default_name
  -OEChem-02102213163D

 31 30  0     1  0  0  0  0  0999 V2000
   -3.0760   -3.6390    1.5496 H   0  0  0  0  0  0  0  0  0  0  0  0
   -3.0940   -2.6290    1.1426 C   0  0  0  0  0  0  0  0  0  0  0  0
   -3.7160   -1.9930    1.7706 H   0  0  0  0  0  0  0  0  0  0  0  0
   -3.4880   -2.6500    0.1286 H   0  0  0  0  0  0  0  0  0  0  0  0
   -1.6860   -2.0850    1.1196 C   0  0  0  0  0  0  0  0  0  0  0  0
   -0.7540   -2.7700    1.5226 O   0  0  0  0  0  0  0  0  0  0  0  0
   -1.5320   -0.8490    0.6496 N   0  0  0  0  0  0  0  0  0  0  0  0
   -2.3500   -0.3360    0.3566 H   0  0  0  0  0  0  0  0  0  0  0  0
   -0.2470   -0.1410    0.5576 C   0  0  1  0  0  0  0  0  0  0  0  0
    0.4572   -0.6505    1.2162 H   0  0  0  0  0  0  0  0  0  0  0  0
    0.3091   -0.2220   -0.8868 C   0  0  1  0  0  0  0  0  0  0  0  0
    0.4958   -1.2761   -1.1010 H   0  0  0  0  0  0  0  0  0  0  0  0
   -0.6942    0.2984   -1.9338 C   0  0  0  0  0  0  0  0  0  0  0  0
   -0.8575    1.3704   -1.8094 H   0  0  0  0  0  0  0  0  0  0  0  0
   -0.3233    0.1095   -2.9399 H   0  0  0  0  0  0  0  0  0  0  0  0
   -1.6494   -0.2174   -1.8289 H   0  0  0  0  0  0  0  0  0  0  0  0
    1.6609    0.5176   -1.0024 C   0  0  0  0  0  0  0  0  0  0  0  0
    1.5411    1.5604   -0.7056 H   0  0  0  0  0  0  0  0  0  0  0  0
    2.3757    0.0494   -0.3258 H   0  0  0  0  0  0  0  0  0  0  0  0
    2.2689    0.4761   -2.4109 C   0  0  0  0  0  0  0  0  0  0  0  0
    1.6435    1.0265   -3.1136 H   0  0  0  0  0  0  0  0  0  0  0  0
    3.2562    0.9381   -2.3901 H   0  0  0  0  0  0  0  0  0  0  0  0
    2.3685   -0.5576   -2.7439 H   0  0  0  0  0  0  0  0  0  0  0  0
   -0.3971    1.3008    1.0689 C   0  0  0  0  0  0  0  0  0  0  0  0
   -1.3643    1.9819    0.7311 O   0  0  0  0  0  0  0  0  0  0  0  0
    0.5522    1.7647    1.8915 N   0  0  0  0  0  0  0  0  0  0  0  0
    1.3093    1.1450    2.1332 H   0  0  0  0  0  0  0  0  0  0  0  0
    0.5577    3.1119    2.4582 C   0  0  0  0  0  0  0  0  0  0  0  0
   -0.3986    3.3098    2.9475 H   0  0  0  0  0  0  0  0  0  0  0  0
    1.3619    3.2123    3.1886 H   0  0  0  0  0  0  0  0  0  0  0  0
    0.6974    3.8450    1.6614 H   0  0  0  0  0  0  0  0  0  0  0  0
  5  6  2  0  0  0  0
  5  7  1  0  0  0  0
  2  3  1  0  0  0  0
  2  4  1  0  0  0  0
  2  5  1  0  0  0  0
  1  2  1  0  0  0  0
 24 25  2  0  0  0  0
 24 26  1  0  0  0  0
 20 21  1  0  0  0  0
 20 22  1  0  0  0  0
 20 23  1  0  0  0  0
 17 18  1  0  0  0  0
 17 19  1  0  0  0  0
 17 20  1  0  0  0  0
 13 14  1  0  0  0  0
 13 15  1  0  0  0  0
 13 16  1  0  0  0  0
 11 12  1  0  0  0  0
 11 13  1  0  0  0  0
 11 17  1  0  0  0  0
  9 10  1  0  0  0  0
  9 11  1  0  0  0  0
  9 24  1  0  0  0  0
  7  8  1  0  0  0  0
  7  9  1  0  0  0  0
 28 29  1  0  0  0  0
 28 30  1  0  0  0  0
 28 31  1  0  0  0  0
 26 27  1  0  0  0  0
 26 28  1  0  0  0  0
M  END
$$$$
default_name
  -OEChem-02102213163D

 31 30  0     1  0  0  0  0  0999 V2000
   -3.0760   -3.6390    1.5496 H   0  0  0  0  0  0  0  0  0  0  0  0
   -3.0940   -2.6290    1.1426 C   0  0  0  0  0  0  0  0  0  0  0  0
   -3.7160   -1.9930    1.7706 H   0  0  0  0  0  0  0  0  0  0  0  0
   -3.4880   -2.6500    0.1286 H   0  0  0  0  0  0  0  0  0  0  0  0
   -1.6860   -2.0850    1.1196 C   0  0  0  0  0  0  0  0  0  0  0  0
   -0.7540   -2.7700    1.5226 O   0  0  0  0  0  0  0  0  0  0  0  0
   -1.5320   -0.8490    0.6496 N   0  0  0  0  0  0  0  0  0  0  0  0
   -2.3500   -0.3360    0.3566 H   0  0  0  0  0  0  0  0  0  0  0  0
   -0.2470   -0.1410    0.5576 C   0  0  1  0  0  0  0  0  0  0  0  0
    0.4572   -0.6505    1.2162 H   0  0  0  0  0  0  0  0  0  0  0  0
    0.3091   -0.2220   -0.8868 C   0  0  1  0  0  0  0  0  0  0  0  0
    0.4958   -1.2761   -1.1010 H   0  0  0  0  0  0  0  0  0  0  0  0
   -0.6942    0.2984   -1.9338 C   0  0  0  0  0  0  0  0  0  0  0  0
   -0.8575    1.3704   -1.8094 H   0  0  0  0  0  0  0  0  0  0  0  0
   -0.3233    0.1095   -2.9399 H   0  0  0  0  0  0  0  0  0  0  0  0
   -1.6494   -0.2174   -1.8289 H   0  0  0  0  0  0  0  0  0  0  0  0
    1.6609    0.5176   -1.0024 C   0  0  0  0  0  0  0  0  0  0  0  0
    1.6133    1.4660   -0.4657 H   0  0  0  0  0  0  0  0  0  0  0  0
    2.4366   -0.0960   -0.5444 H   0  0  0  0  0  0  0  0  0  0  0  0
    2.0913    0.7947   -2.4492 C   0  0  0  0  0  0  0  0  0  0  0  0
    1.4039    1.4938   -2.9253 H   0  0  0  0  0  0  0  0  0  0  0  0
    3.0887    1.2348   -2.4495 H   0  0  0  0  0  0  0  0  0  0  0  0
    2.1148   -0.1365   -3.0163 H   0  0  0  0  0  0  0  0  0  0  0  0
   -0.3971    1.3008    1.0689 C   0  0  0  0  0  0  0  0  0  0  0  0
   -1.3643    1.9819    0.7311 O   0  0  0  0  0  0  0  0  0  0  0  0
    0.5522    1.7647    1.8915 N   0  0  0  0  0  0  0  0  0  0  0  0
    1.3093    1.1450    2.1332 H   0  0  0  0  0  0  0  0  0  0  0  0
    0.5577    3.1119    2.4582 C   0  0  0  0  0  0  0  0  0  0  0  0
   -0.3986    3.3098    2.9475 H   0  0  0  0  0  0  0  0  0  0  0  0
    1.3619    3.2123    3.1886 H   0  0  0  0  0  0  0  0  0  0  0  0
    0.6974    3.8450    1.6614 H   0  0  0  0  0  0  0  0  0  0  0  0
  5  6  2  0  0  0  0
  5  7  1  0  0  0  0
  2  3  1  0  0  0  0
  2  4  1  0  0  0  0
  2  5  1  0  0  0  0
  1  2  1  0  0  0  0
 24 25  2  0  0  0  0
 24 26  1  0  0  0  0
 20 21  1  0  0  0  0
 20 22  1  0  0  0  0
 20 23  1  0  0  0  0
 17 18  1  0  0  0  0
 17 19  1  0  0  0  0
 17 20  1  0  0  0  0
 13 14  1  0  0  0  0
 13 15  1  0  0  0  0
 13 16  1  0  0  0  0
 11 12  1  0  0  0  0
 11 13  1  0  0  0  0
 11 17  1  0  0  0  0
  9 10  1  0  0  0  0
  9 11  1  0  0  0  0
  9 24  1  0  0  0  0
  7  8  1  0  0  0  0
  7  9  1  0  0  0  0
 28 29  1  0  0  0  0
 28 30  1  0  0  0  0
 28 31  1  0  0  0  0
 26 27  1  0  0  0  0
 26 28  1  0  0  0  0
M  END
$$$$
default_name
  -OEChem-02102213163D

 31 30  0     1  0  0  0  0  0999 V2000
   -3.0760   -3.6390    1.5496 H   0  0  0  0  0  0  0  0  0  0  0  0
   -3.0940   -2.6290    1.1426 C   0  0  0  0  0  0  0  0  0  0  0  0
   -3.7160   -1.9930    1.7706 H   0  0  0  0  0  0  0  0  0  0  0  0
   -3.4880   -2.6500    0.1286 H   0  0  0  0  0  0  0  0  0  0  0  0
   -1.6860   -2.0850    1.1196 C   0  0  0  0  0  0  0  0  0  0  0  0
   -0.7540   -2.7700    1.5226 O   0  0  0  0  0  0  0  0  0  0  0  0
   -1.5320   -0.8490    0.6496 N   0  0  0  0  0  0  0  0  0  0  0  0
   -2.3500   -0.3360    0.3566 H   0  0  0  0  0  0  0  0  0  0  0  0
   -0.2470   -0.1410    0.5576 C   0  0  1  0  0  0  0  0  0  0  0  0
    0.4572   -0.6505    1.2162 H   0  0  0  0  0  0  0  0  0  0  0  0
    0.3091   -0.2220   -0.8868 C   0  0  1  0  0  0  0  0  0  0  0  0
    0.4958   -1.2761   -1.1010 H   0  0  0  0  0  0  0  0  0  0  0  0
   -0.6942    0.2984   -1.9338 C   0  0  0  0  0  0  0  0  0  0  0  0
   -0.8575    1.3704   -1.8094 H   0  0  0  0  0  0  0  0  0  0  0  0
   -0.3233    0.1095   -2.9399 H   0  0  0  0  0  0  0  0  0  0  0  0
   -1.6494   -0.2174   -1.8289 H   0  0  0  0  0  0  0  0  0  0  0  0
    1.6609    0.5176   -1.0024 C   0  0  0  0  0  0  0  0  0  0  0  0
    1.7108    1.3192   -0.2643 H   0  0  0  0  0  0  0  0  0  0  0  0
    2.4655   -0.1881   -0.7959 H   0  0  0  0  0  0  0  0  0  0  0  0
    1.9211    1.1146   -2.3921 C   0  0  0  0  0  0  0  0  0  0  0  0
    1.2049    1.9072   -2.6079 H   0  0  0  0  0  0  0  0  0  0  0  0
    2.9254    1.5381   -2.4191 H   0  0  0  0  0  0  0  0  0  0  0  0
    1.8442    0.3368   -3.1526 H   0  0  0  0  0  0  0  0  0  0  0  0
   -0.3971    1.3008    1.0689 C   0  0  0  0  0  0  0  0  0  0  0  0
   -1.3643    1.9819    0.7311 O   0  0  0  0  0  0  0  0  0  0  0  0
    0.5522    1.7647    1.8915 N   0  0  0  0  0  0  0  0  0  0  0  0
    1.3093    1.1450    2.1332 H   0  0  0  0  0  0  0  0  0  0  0  0
    0.5577    3.1119    2.4582 C   0  0  0  0  0  0  0  0  0  0  0  0
   -0.3986    3.3098    2.9475 H   0  0  0  0  0  0  0  0  0  0  0  0
    1.3619    3.2123    3.1886 H   0  0  0  0  0  0  0  0  0  0  0  0
    0.6974    3.8450    1.6614 H   0  0  0  0  0  0  0  0  0  0  0  0
  5  6  2  0  0  0  0
  5  7  1  0  0  0  0
  2  3  1  0  0  0  0
  2  4  1  0  0  0  0
  2  5  1  0  0  0  0
  1  2  1  0  0  0  0
 24 25  2  0  0  0  0
 24 26  1  0  0  0  0
 20 21  1  0  0  0  0
 20 22  1  0  0  0  0
 20 23  1  0  0  0  0
 17 18  1  0  0  0  0
 17 19  1  0  0  0  0
 17 20  1  0  0  0  0
 13 14  1  0  0  0  0
 13 15  1  0  0  0  0
 13 16  1  0  0  0  0
 11 12  1  0  0  0  0
 11 13  1  0  0  0  0
 11 17  1  0  0  0  0
  9 10  1  0  0  0  0
  9 11  1  0  0  0  0
  9 24  1  0  0  0  0
  7  8  1  0  0  0  0
  7  9  1  0  0  0  0
 28 29  1  0  0  0  0
 28 30  1  0  0  0  0
 28 31  1  0  0  0  0
 26 27  1  0  0  0  0
 26 28  1  0  0  0  0
M  END
$$$$
default_name
  -OEChem-02102213163D

 31 30  0     1  0  0  0  0  0999 V2000
   -3.0760   -3.6390    1.5496 H   0  0  0  0  0  0  0  0  0  0  0  0
   -3.0940   -2.6290    1.1426 C   0  0  0  0  0  0  0  0  0  0  0  0
   -3.7160   -1.9930    1.7706 H   0  0  0  0  0  0  0  0  0  0  0  0
   -3.4880   -2.6500    0.1286 H   0  0  0  0  0  0  0  0  0  0  0  0
   -1.6860   -2.0850    1.1196 C   0  0  0  0  0  0  0  0  0  0  0  0
   -0.7540   -2.7700    1.5226 O   0  0  0  0  0  0  0  0  0  0  0  0
   -1.5320   -0.8490    0.6496 N   0  0  0  0  0  0  0  0  0  0  0  0
   -2.3500   -0.3360    0.3566 H   0  0  0  0  0  0  0  0  0  0  0  0
   -0.2470   -0.1410    0.5576 C   0  0  1  0  0  0  0  0  0  0  0  0
    0.4572   -0.6505    1.2162 H   0  0  0  0  0  0  0  0  0  0  0  0
    0.3091   -0.2220   -0.8868 C   0  0  1  0  0  0  0  0  0  0  0  0
    0.4958   -1.2761   -1.1010 H   0  0  0  0  0  0  0  0  0  0  0  0
   -0.6942    0.2984   -1.9338 C   0  0  0  0  0  0  0  0  0  0  0  0
   -0.8575    1.3704   -1.8094 H   0  0  0  0  0  0  0  0  0  0  0  0
   -0.3233    0.1095   -2.9399 H   0  0  0  0  0  0  0  0  0  0  0  0
   -1.6494   -0.2174   -1.8289 H   0  0  0  0  0  0  0  0  0  0  0  0
    1.6609    0.5176   -1.0024 C   0  0  0  0  0  0  0  0  0  0  0  0
    1.8272    1.1299   -0.1151 H   0  0  0  0  0  0  0  0  0  0  0  0
    2.4604   -0.2207   -1.0633 H   0  0  0  0  0  0  0  0  0  0  0  0
    1.7701    1.4139   -2.2434 C   0  0  0  0  0  0  0  0  0  0  0  0
    1.0600    2.2385   -2.1831 H   0  0  0  0  0  0  0  0  0  0  0  0
    2.7772    1.8273   -2.3007 H   0  0  0  0  0  0  0  0  0  0  0  0
    1.5750    0.8301   -3.1436 H   0  0  0  0  0  0  0  0  0  0  0  0
   -0.3971    1.3008    1.0689 C   0  0  0  0  0  0  0  0  0  0  0  0
   -1.3643    1.9819    0.7311 O   0  0  0  0  0  0  0  0  0  0  0  0
    0.5522    1.7647    1.8915 N   0  0  0  0  0  0  0  0  0  0  0  0
    1.3093    1.1450    2.1332 H   0  0  0  0  0  0  0  0  0  0  0  0
    0.5577    3.1119    2.4582 C   0  0  0  0  0  0  0  0  0  0  0  0
   -0.3986    3.3098    2.9475 H   0  0  0  0  0  0  0  0  0  0  0  0
    1.3619    3.2123    3.1886 H   0  0  0  0  0  0  0  0  0  0  0  0
    0.6974    3.8450    1.6614 H   0  0  0  0  0  0  0  0  0  0  0  0
  5  6  2  0  0  0  0
  5  7  1  0  0  0  0
  2  3  1  0  0  0  0
  2  4  1  0  0  0  0
  2  5  1  0  0  0  0
  1  2  1  0  0  0  0
 24 25  2  0  0  0  0
 24 26  1  0  0  0  0
 20 21  1  0  0  0  0
 20 22  1  0  0  0  0
 20 23  1  0  0  0  0
 17 18  1  0  0  0  0
 17 19  1  0  0  0  0
 17 20  1  0  0  0  0
 13 14  1  0  0  0  0
 13 15  1  0  0  0  0
 13 16  1  0  0  0  0
 11 12  1  0  0  0  0
 11 13  1  0  0  0  0
 11 17  1  0  0  0  0
  9 10  1  0  0  0  0
  9 11  1  0  0  0  0
  9 24  1  0  0  0  0
  7  8  1  0  0  0  0
  7  9  1  0  0  0  0
 28 29  1  0  0  0  0
 28 30  1  0  0  0  0
 28 31  1  0  0  0  0
 26 27  1  0  0  0  0
 26 28  1  0  0  0  0
M  END
$$$$
default_name
  -OEChem-02102213163D

 31 30  0     1  0  0  0  0  0999 V2000
   -3.0760   -3.6390    1.5496 H   0  0  0  0  0  0  0  0  0  0  0  0
   -3.0940   -2.6290    1.1426 C   0  0  0  0  0  0  0  0  0  0  0  0
   -3.7160   -1.9930    1.7706 H   0  0  0  0  0  0  0  0  0  0  0  0
   -3.4880   -2.6500    0.1286 H   0  0  0  0  0  0  0  0  0  0  0  0
   -1.6860   -2.0850    1.1196 C   0  0  0  0  0  0  0  0  0  0  0  0
   -0.7540   -2.7700    1.5226 O   0  0  0  0  0  0  0  0  0  0  0  0
   -1.5320   -0.8490    0.6496 N   0  0  0  0  0  0  0  0  0  0  0  0
   -2.3500   -0.3360    0.3566 H   0  0  0  0  0  0  0  0  0  0  0  0
   -0.2470   -0.1410    0.5576 C   0  0  1  0  0  0  0  0  0  0  0  0
    0.4572   -0.6505    1.2162 H   0  0  0  0  0  0  0  0  0  0  0  0
    0.3091   -0.2220   -0.8868 C   0  0  1  0  0  0  0  0  0  0  0  0
    0.4958   -1.2761   -1.1010 H   0  0  0  0  0  0  0  0  0  0  0  0
   -0.6942    0.2984   -1.9338 C   0  0  0  0  0  0  0  0  0  0  0  0
   -0.8575    1.3704   -1.8094 H   0  0  0  0  0  0  0  0  0  0  0  0
   -0.3233    0.1095   -2.9399 H   0  0  0  0  0  0  0  0  0  0  0  0
   -1.6494   -0.2174   -1.8289 H   0  0  0  0  0  0  0  0  0  0  0  0
    1.6609    0.5176   -1.0024 C   0  0  0  0  0  0  0  0  0  0  0  0
    1.9544    0.9109   -0.0282 H   0  0  0  0  0  0  0  0  0  0  0  0
    2.4218   -0.1915   -1.3283 H   0  0  0  0  0  0  0  0  0  0  0  0
    1.6484    1.6723   -2.0132 C   0  0  0  0  0  0  0  0  0  0  0  0
    0.9790    2.4651   -1.6797 H   0  0  0  0  0  0  0  0  0  0  0  0
    2.6544    2.0828   -2.1026 H   0  0  0  0  0  0  0  0  0  0  0  0
    1.3258    1.3097   -2.9898 H   0  0  0  0  0  0  0  0  0  0  0  0
   -0.3971    1.3008    1.0689 C   0  0  0  0  0  0  0  0  0  0  0  0
   -1.3643    1.9819    0.7311 O   0  0  0  0  0  0  0  0  0  0  0  0
    0.5522    1.7647    1.8915 N   0  0  0  0  0  0  0  0  0  0  0  0
    1.3093    1.1450    2.1332 H   0  0  0  0  0  0  0  0  0  0  0  0
    0.5577    3.1119    2.4582 C   0  0  0  0  0  0  0  0  0  0  0  0
   -0.3986    3.3098    2.9475 H   0  0  0  0  0  0  0  0  0  0  0  0
    1.3619    3.2123    3.1886 H   0  0  0  0  0  0  0  0  0  0  0  0
    0.6974    3.8450    1.6614 H   0  0  0  0  0  0  0  0  0  0  0  0
  5  6  2  0  0  0  0
  5  7  1  0  0  0  0
  2  3  1  0  0  0  0
  2  4  1  0  0  0  0
  2  5  1  0  0  0  0
  1  2  1  0  0  0  0
 24 25  2  0  0  0  0
 24 26  1  0  0  0  0
 20 21  1  0  0  0  0
 20 22  1  0  0  0  0
 20 23  1  0  0  0  0
 17 18  1  0  0  0  0
 17 19  1  0  0  0  0
 17 20  1  0  0  0  0
 13 14  1  0  0  0  0
 13 15  1  0  0  0  0
 13 16  1  0  0  0  0
 11 12  1  0  0  0  0
 11 13  1  0  0  0  0
 11 17  1  0  0  0  0
  9 10  1  0  0  0  0
  9 11  1  0  0  0  0
  9 24  1  0  0  0  0
  7  8  1  0  0  0  0
  7  9  1  0  0  0  0
 28 29  1  0  0  0  0
 28 30  1  0  0  0  0
 28 31  1  0  0  0  0
 26 27  1  0  0  0  0
 26 28  1  0  0  0  0
M  END
$$$$
default_name
  -OEChem-02102213163D

 31 30  0     1  0  0  0  0  0999 V2000
   -3.0760   -3.6390    1.5496 H   0  0  0  0  0  0  0  0  0  0  0  0
   -3.0940   -2.6290    1.1426 C   0  0  0  0  0  0  0  0  0  0  0  0
   -3.7160   -1.9930    1.7706 H   0  0  0  0  0  0  0  0  0  0  0  0
   -3.4880   -2.6500    0.1286 H   0  0  0  0  0  0  0  0  0  0  0  0
   -1.6860   -2.0850    1.1196 C   0  0  0  0  0  0  0  0  0  0  0  0
   -0.7540   -2.7700    1.5226 O   0  0  0  0  0  0  0  0  0  0  0  0
   -1.5320   -0.8490    0.6496 N   0  0  0  0  0  0  0  0  0  0  0  0
   -2.3500   -0.3360    0.3566 H   0  0  0  0  0  0  0  0  0  0  0  0
   -0.2470   -0.1410    0.5576 C   0  0  1  0  0  0  0  0  0  0  0  0
    0.4572   -0.6505    1.2162 H   0  0  0  0  0  0  0  0  0  0  0  0
    0.3091   -0.2220   -0.8868 C   0  0  1  0  0  0  0  0  0  0  0  0
    0.4958   -1.2761   -1.1010 H   0  0  0  0  0  0  0  0  0  0  0  0
   -0.6942    0.2984   -1.9338 C   0  0  0  0  0  0  0  0  0  0  0  0
   -0.8575    1.3704   -1.8094 H   0  0  0  0  0  0  0  0  0  0  0  0
   -0.3233    0.1095   -2.9399 H   0  0  0  0  0  0  0  0  0  0  0  0
   -1.6494   -0.2174   -1.8289 H   0  0  0  0  0  0  0  0  0  0  0  0
    1.6609    0.5176   -1.0024 C   0  0  0  0  0  0  0  0  0  0  0  0
    2.0838    0.6773   -0.0097 H   0  0  0  0  0  0  0  0  0  0  0  0
    2.3522   -0.1025   -1.5729 H   0  0  0  0  0  0  0  0  0  0  0  0
    1.5643    1.8721   -1.7174 C   0  0  0  0  0  0  0  0  0  0  0  0
    0.9675    2.5716   -1.1322 H   0  0  0  0  0  0  0  0  0  0  0  0
    2.5653    2.2871   -1.8381 H   0  0  0  0  0  0  0  0  0  0  0  0
    1.1133    1.7430   -2.7019 H   0  0  0  0  0  0  0  0  0  0  0  0
   -0.3971    1.3008    1.0689 C   0  0  0  0  0  0  0  0  0  0  0  0
   -1.3643    1.9819    0.7311 O   0  0  0  0  0  0  0  0  0  0  0  0
    0.5522    1.7647    1.8915 N   0  0  0  0  0  0  0  0  0  0  0  0
    1.3093    1.1450    2.1332 H   0  0  0  0  0  0  0  0  0  0  0  0
    0.5577    3.1119    2.4582 C   0  0  0  0  0  0  0  0  0  0  0  0
   -0.3986    3.3098    2.9475 H   0  0  0  0  0  0  0  0  0  0  0  0
    1.3619    3.2123    3.1886 H   0  0  0  0  0  0  0  0  0  0  0  0
    0.6974    3.8450    1.6614 H   0  0  0  0  0  0  0  0  0  0  0  0
  5  6  2  0  0  0  0
  5  7  1  0  0  0  0
  2  3  1  0  0  0  0
  2  4  1  0  0  0  0
  2  5  1  0  0  0  0
  1  2  1  0  0  0  0
 24 25  2  0  0  0  0
 24 26  1  0  0  0  0
 20 21  1  0  0  0  0
 20 22  1  0  0  0  0
 20 23  1  0  0  0  0
 17 18  1  0  0  0  0
 17 19  1  0  0  0  0
 17 20  1  0  0  0  0
 13 14  1  0  0  0  0
 13 15  1  0  0  0  0
 13 16  1  0  0  0  0
 11 12  1  0  0  0  0
 11 13  1  0  0  0  0
 11 17  1  0  0  0  0
  9 10  1  0  0  0  0
  9 11  1  0  0  0  0
  9 24  1  0  0  0  0
  7  8  1  0  0  0  0
  7  9  1  0  0  0  0
 28 29  1  0  0  0  0
 28 30  1  0  0  0  0
 28 31  1  0  0  0  0
 26 27  1  0  0  0  0
 26 28  1  0  0  0  0
M  END
$$$$
default_name
  -OEChem-02102213163D

 31 30  0     1  0  0  0  0  0999 V2000
   -3.0760   -3.6390    1.5496 H   0  0  0  0  0  0  0  0  0  0  0  0
   -3.0940   -2.6290    1.1426 C   0  0  0  0  0  0  0  0  0  0  0  0
   -3.7160   -1.9930    1.7706 H   0  0  0  0  0  0  0  0  0  0  0  0
   -3.4880   -2.6500    0.1286 H   0  0  0  0  0  0  0  0  0  0  0  0
   -1.6860   -2.0850    1.1196 C   0  0  0  0  0  0  0  0  0  0  0  0
   -0.7540   -2.7700    1.5226 O   0  0  0  0  0  0  0  0  0  0  0  0
   -1.5320   -0.8490    0.6496 N   0  0  0  0  0  0  0  0  0  0  0  0
   -2.3500   -0.3360    0.3566 H   0  0  0  0  0  0  0  0  0  0  0  0
   -0.2470   -0.1410    0.5576 C   0  0  1  0  0  0  0  0  0  0  0  0
    0.4572   -0.6505    1.2162 H   0  0  0  0  0  0  0  0  0  0  0  0
    0.3091   -0.2220   -0.8868 C   0  0  1  0  0  0  0  0  0  0  0  0
    0.4958   -1.2761   -1.1010 H   0  0  0  0  0  0  0  0  0  0  0  0
   -0.6942    0.2984   -1.9338 C   0  0  0  0  0  0  0  0  0  0  0  0
   -0.8575    1.3704   -1.8094 H   0  0  0  0  0  0  0  0  0  0  0  0
   -0.3233    0.1095   -2.9399 H   0  0  0  0  0  0  0  0  0  0  0  0
   -1.6494   -0.2174   -1.8289 H   0  0  0  0  0  0  0  0  0  0  0  0
    1.6609    0.5176   -1.0024 C   0  0  0  0  0  0  0  0  0  0  0  0
    2.2065    0.4450   -0.0607 H   0  0  0  0  0  0  0  0  0  0  0  0
    2.2565    0.0401   -1.7804 H   0  0  0  0  0  0  0  0  0  0  0  0
    1.5237    1.9998   -1.3759 C   0  0  0  0  0  0  0  0  0  0  0  0
    1.0264    2.5507   -0.5778 H   0  0  0  0  0  0  0  0  0  0  0  0
    2.5159    2.4262   -1.5253 H   0  0  0  0  0  0  0  0  0  0  0  0
    0.9521    2.1005   -2.2993 H   0  0  0  0  0  0  0  0  0  0  0  0
   -0.3971    1.3008    1.0689 C   0  0  0  0  0  0  0  0  0  0  0  0
   -1.3643    1.9819    0.7311 O   0  0  0  0  0  0  0  0  0  0  0  0
    0.5522    1.7647    1.8915 N   0  0  0  0  0  0  0  0  0  0  0  0
    1.3093    1.1450    2.1332 H   0  0  0  0  0  0  0  0  0  0  0  0
    0.5577    3.1119    2.4582 C   0  0  0  0  0  0  0  0  0  0  0  0
   -0.3986    3.3098    2.9475 H   0  0  0  0  0  0  0  0  0  0  0  0
    1.3619    3.2123    3.1886 H   0  0  0  0  0  0  0  0  0  0  0  0
    0.6974    3.8450    1.6614 H   0  0  0  0  0  0  0  0  0  0  0  0
  5  6  2  0  0  0  0
  5  7  1  0  0  0  0
  2  3  1  0  0  0  0
  2  4  1  0  0  0  0
  2  5  1  0  0  0  0
  1  2  1  0  0  0  0
 24 25  2  0  0  0  0
 24 26  1  0  0  0  0
 20 21  1  0  0  0  0
 20 22  1  0  0  0  0
 20 23  1  0  0  0  0
 17 18  1  0  0  0  0
 17 19  1  0  0  0  0
 17 20  1  0  0  0  0
 13 14  1  0  0  0  0
 13 15  1  0  0  0  0
 13 16  1  0  0  0  0
 11 12  1  0  0  0  0
 11 13  1  0  0  0  0
 11 17  1  0  0  0  0
  9 10  1  0  0  0  0
  9 11  1  0  0  0  0
  9 24  1  0  0  0  0
  7  8  1  0  0  0  0
  7  9  1  0  0  0  0
 28 29  1  0  0  0  0
 28 30  1  0  0  0  0
 28 31  1  0  0  0  0
 26 27  1  0  0  0  0
 26 28  1  0  0  0  0
M  END
$$$$
default_name
  -OEChem-02102213163D

 31 30  0     1  0  0  0  0  0999 V2000
   -3.0760   -3.6390    1.5496 H   0  0  0  0  0  0  0  0  0  0  0  0
   -3.0940   -2.6290    1.1426 C   0  0  0  0  0  0  0  0  0  0  0  0
   -3.7160   -1.9930    1.7706 H   0  0  0  0  0  0  0  0  0  0  0  0
   -3.4880   -2.6500    0.1286 H   0  0  0  0  0  0  0  0  0  0  0  0
   -1.6860   -2.0850    1.1196 C   0  0  0  0  0  0  0  0  0  0  0  0
   -0.7540   -2.7700    1.5226 O   0  0  0  0  0  0  0  0  0  0  0  0
   -1.5320   -0.8490    0.6496 N   0  0  0  0  0  0  0  0  0  0  0  0
   -2.3500   -0.3360    0.3566 H   0  0  0  0  0  0  0  0  0  0  0  0
   -0.2470   -0.1410    0.5576 C   0  0  1  0  0  0  0  0  0  0  0  0
    0.4572   -0.6505    1.2162 H   0  0  0  0  0  0  0  0  0  0  0  0
    0.3091   -0.2220   -0.8868 C   0  0  1  0  0  0  0  0  0  0  0  0
    0.4958   -1.2761   -1.1010 H   0  0  0  0  0  0  0  0  0  0  0  0
   -0.6942    0.2984   -1.9338 C   0  0  0  0  0  0  0  0  0  0  0  0
   -0.8575    1.3704   -1.8094 H   0  0  0  0  0  0  0  0  0  0  0  0
   -0.3233    0.1095   -2.9399 H   0  0  0  0  0  0  0  0  0  0  0  0
   -1.6494   -0.2174   -1.8289 H   0  0  0  0  0  0  0  0  0  0  0  0
    1.6609    0.5176   -1.0024 C   0  0  0  0  0  0  0  0  0  0  0  0
    2.3143    0.2298   -0.1777 H   0  0  0  0  0  0  0  0  0  0  0  0
    2.1410    0.2267   -1.9367 H   0  0  0  0  0  0  0  0  0  0  0  0
    1.5292    2.0466   -1.0122 C   0  0  0  0  0  0  0  0  0  0  0  0
    1.1514    2.4039   -0.0543 H   0  0  0  0  0  0  0  0  0  0  0  0
    2.5096    2.4908   -1.1856 H   0  0  0  0  0  0  0  0  0  0  0  0
    0.8533    2.3577   -1.8095 H   0  0  0  0  0  0  0  0  0  0  0  0
   -0.3971    1.3008    1.0689 C   0  0  0  0  0  0  0  0  0  0  0  0
   -1.3643    1.9819    0.7311 O   0  0  0  0  0  0  0  0  0  0  0  0
    0.5522    1.7647    1.8915 N   0  0  0  0  0  0  0  0  0  0  0  0
    1.3093    1.1450    2.1332 H   0  0  0  0  0  0  0  0  0  0  0  0
    0.5577    3.1119    2.4582 C   0  0  0  0  0  0  0  0  0  0  0  0
   -0.3986    3.3098    2.9475 H   0  0  0  0  0  0  0  0  0  0  0  0
    1.3619    3.2123    3.1886 H   0  0  0  0  0  0  0  0  0  0  0  0
    0.6974    3.8450    1.6614 H   0  0  0  0  0  0  0  0  0  0  0  0
  5  6  2  0  0  0  0
  5  7  1  0  0  0  0
  2  3  1  0  0  0  0
  2  4  1  0  0  0  0
  2  5  1  0  0  0  0
  1  2  1  0  0  0  0
 24 25  2  0  0  0  0
 24 26  1  0  0  0  0
 20 21  1  0  0  0  0
 20 22  1  0  0  0  0
 20 23  1  0  0  0  0
 17 18  1  0  0  0  0
 17 19  1  0  0  0  0
 17 20  1  0  0  0  0
 13 14  1  0  0  0  0
 13 15  1  0  0  0  0
 13 16  1  0  0  0  0
 11 12  1  0  0  0  0
 11 13  1  0  0  0  0
 11 17  1  0  0  0  0
  9 10  1  0  0  0  0
  9 11  1  0  0  0  0
  9 24  1  0  0  0  0
  7  8  1  0  0  0  0
  7  9  1  0  0  0  0
 28 29  1  0  0  0  0
 28 30  1  0  0  0  0
 28 31  1  0  0  0  0
 26 27  1  0  0  0  0
 26 28  1  0  0  0  0
M  END
$$$$
default_name
  -OEChem-02102213163D

 31 30  0     1  0  0  0  0  0999 V2000
   -3.0760   -3.6390    1.5496 H   0  0  0  0  0  0  0  0  0  0  0  0
   -3.0940   -2.6290    1.1426 C   0  0  0  0  0  0  0  0  0  0  0  0
   -3.7160   -1.9930    1.7706 H   0  0  0  0  0  0  0  0  0  0  0  0
   -3.4880   -2.6500    0.1286 H   0  0  0  0  0  0  0  0  0  0  0  0
   -1.6860   -2.0850    1.1196 C   0  0  0  0  0  0  0  0  0  0  0  0
   -0.7540   -2.7700    1.5226 O   0  0  0  0  0  0  0  0  0  0  0  0
   -1.5320   -0.8490    0.6496 N   0  0  0  0  0  0  0  0  0  0  0  0
   -2.3500   -0.3360    0.3566 H   0  0  0  0  0  0  0  0  0  0  0  0
   -0.2470   -0.1410    0.5576 C   0  0  1  0  0  0  0  0  0  0  0  0
    0.4572   -0.6505    1.2162 H   0  0  0  0  0  0  0  0  0  0  0  0
    0.3091   -0.2220   -0.8868 C   0  0  1  0  0  0  0  0  0  0  0  0
    0.4958   -1.2761   -1.1010 H   0  0  0  0  0  0  0  0  0  0  0  0
   -0.6942    0.2984   -1.9338 C   0  0  0  0  0  0  0  0  0  0  0  0
   -0.8575    1.3704   -1.8094 H   0  0  0  0  0  0  0  0  0  0  0  0
   -0.3233    0.1095   -2.9399 H   0  0  0  0  0  0  0  0  0  0  0  0
   -1.6494   -0.2174   -1.8289 H   0  0  0  0  0  0  0  0  0  0  0  0
    1.6609    0.5176   -1.0024 C   0  0  0  0  0  0  0  0  0  0  0  0
    2.3997    0.0463   -0.3529 H   0  0  0  0  0  0  0  0  0  0  0  0
    2.0137    0.4446   -2.0311 H   0  0  0  0  0  0  0  0  0  0  0  0
    1.5804    2.0093   -0.6509 C   0  0  0  0  0  0  0  0  0  0  0  0
    1.3343    2.1411    0.4026 H   0  0  0  0  0  0  0  0  0  0  0  0
    2.5469    2.4763   -0.8421 H   0  0  0  0  0  0  0  0  0  0  0  0
    0.8234    2.4972   -1.2659 H   0  0  0  0  0  0  0  0  0  0  0  0
   -0.3971    1.3008    1.0689 C   0  0  0  0  0  0  0  0  0  0  0  0
   -1.3643    1.9819    0.7311 O   0  0  0  0  0  0  0  0  0  0  0  0
    0.5522    1.7647    1.8915 N   0  0  0  0  0  0  0  0  0  0  0  0
    1.3093    1.1450    2.1332 H   0  0  0  0  0  0  0  0  0  0  0  0
    0.5577    3.1119    2.4582 C   0  0  0  0  0  0  0  0  0  0  0  0
   -0.3986    3.3098    2.9475 H   0  0  0  0  0  0  0  0  0  0  0  0
    1.3619    3.2123    3.1886 H   0  0  0  0  0  0  0  0  0  0  0  0
    0.6974    3.8450    1.6614 H   0  0  0  0  0  0  0  0  0  0  0  0
  5  6  2  0  0  0  0
  5  7  1  0  0  0  0
  2  3  1  0  0  0  0
  2  4  1  0  0  0  0
  2  5  1  0  0  0  0
  1  2  1  0  0  0  0
 24 25  2  0  0  0  0
 24 26  1  0  0  0  0
 20 21  1  0  0  0  0
 20 22  1  0  0  0  0
 20 23  1  0  0  0  0
 17 18  1  0  0  0  0
 17 19  1  0  0  0  0
 17 20  1  0  0  0  0
 13 14  1  0  0  0  0
 13 15  1  0  0  0  0
 13 16  1  0  0  0  0
 11 12  1  0  0  0  0
 11 13  1  0  0  0  0
 11 17  1  0  0  0  0
  9 10  1  0  0  0  0
  9 11  1  0  0  0  0
  9 24  1  0  0  0  0
  7  8  1  0  0  0  0
  7  9  1  0  0  0  0
 28 29  1  0  0  0  0
 28 30  1  0  0  0  0
 28 31  1  0  0  0  0
 26 27  1  0  0  0  0
 26 28  1  0  0  0  0
M  END
$$$$
default_name
  -OEChem-02102213163D

 31 30  0     1  0  0  0  0  0999 V2000
   -3.0760   -3.6390    1.5496 H   0  0  0  0  0  0  0  0  0  0  0  0
   -3.0940   -2.6290    1.1426 C   0  0  0  0  0  0  0  0  0  0  0  0
   -3.7160   -1.9930    1.7706 H   0  0  0  0  0  0  0  0  0  0  0  0
   -3.4880   -2.6500    0.1286 H   0  0  0  0  0  0  0  0  0  0  0  0
   -1.6860   -2.0850    1.1196 C   0  0  0  0  0  0  0  0  0  0  0  0
   -0.7540   -2.7700    1.5226 O   0  0  0  0  0  0  0  0  0  0  0  0
   -1.5320   -0.8490    0.6496 N   0  0  0  0  0  0  0  0  0  0  0  0
   -2.3500   -0.3360    0.3566 H   0  0  0  0  0  0  0  0  0  0  0  0
   -0.2470   -0.1410    0.5576 C   0  0  1  0  0  0  0  0  0  0  0  0
    0.4572   -0.6505    1.2162 H   0  0  0  0  0  0  0  0  0  0  0  0
    0.3091   -0.2220   -0.8868 C   0  0  1  0  0  0  0  0  0  0  0  0
    0.4958   -1.2761   -1.1010 H   0  0  0  0  0  0  0  0  0  0  0  0
   -0.6942    0.2984   -1.9338 C   0  0  0  0  0  0  0  0  0  0  0  0
   -0.8575    1.3704   -1.8094 H   0  0  0  0  0  0  0  0  0  0  0  0
   -0.3233    0.1095   -2.9399 H   0  0  0  0  0  0  0  0  0  0  0  0
   -1.6494   -0.2174   -1.8289 H   0  0  0  0  0  0  0  0  0  0  0  0
    1.6609    0.5176   -1.0024 C   0  0  0  0  0  0  0  0  0  0  0  0
    2.4570   -0.0930   -0.5742 H   0  0  0  0  0  0  0  0  0  0  0  0
    1.8833    0.6789   -2.0572 H   0  0  0  0  0  0  0  0  0  0  0  0
    1.6740    1.8905   -0.3167 C   0  0  0  0  0  0  0  0  0  0  0  0
    1.5624    1.7803    0.7618 H   0  0  0  0  0  0  0  0  0  0  0  0
    2.6251    2.3839   -0.5182 H   0  0  0  0  0  0  0  0  0  0  0  0
    0.8646    2.5095   -0.7055 H   0  0  0  0  0  0  0  0  0  0  0  0
   -0.3971    1.3008    1.0689 C   0  0  0  0  0  0  0  0  0  0  0  0
   -1.3643    1.9819    0.7311 O   0  0  0  0  0  0  0  0  0  0  0  0
    0.5522    1.7647    1.8915 N   0  0  0  0  0  0  0  0  0  0  0  0
    1.3093    1.1450    2.1332 H   0  0  0  0  0  0  0  0  0  0  0  0
    0.5577    3.1119    2.4582 C   0  0  0  0  0  0  0  0  0  0  0  0
   -0.3986    3.3098    2.9475 H   0  0  0  0  0  0  0  0  0  0  0  0
    1.3619    3.2123    3.1886 H   0  0  0  0  0  0  0  0  0  0  0  0
    0.6974    3.8450    1.6614 H   0  0  0  0  0  0  0  0  0  0  0  0
  5  6  2  0  0  0  0
  5  7  1  0  0  0  0
  2  3  1  0  0  0  0
  2  4  1  0  0  0  0
  2  5  1  0  0  0  0
  1  2  1  0  0  0  0
 24 25  2  0  0  0  0
 24 26  1  0  0  0  0
 20 21  1  0  0  0  0
 20 22  1  0  0  0  0
 20 23  1  0  0  0  0
 17 18  1  0  0  0  0
 17 19  1  0  0  0  0
 17 20  1  0  0  0  0
 13 14  1  0  0  0  0
 13 15  1  0  0  0  0
 13 16  1  0  0  0  0
 11 12  1  0  0  0  0
 11 13  1  0  0  0  0
 11 17  1  0  0  0  0
  9 10  1  0  0  0  0
  9 11  1  0  0  0  0
  9 24  1  0  0  0  0
  7  8  1  0  0  0  0
  7  9  1  0  0  0  0
 28 29  1  0  0  0  0
 28 30  1  0  0  0  0
 28 31  1  0  0  0  0
 26 27  1  0  0  0  0
 26 28  1  0  0  0  0
M  END
$$$$
default_name
  -OEChem-02102213163D

 31 30  0     1  0  0  0  0  0999 V2000
   -3.0760   -3.6390    1.5496 H   0  0  0  0  0  0  0  0  0  0  0  0
   -3.0940   -2.6290    1.1426 C   0  0  0  0  0  0  0  0  0  0  0  0
   -3.7160   -1.9930    1.7706 H   0  0  0  0  0  0  0  0  0  0  0  0
   -3.4880   -2.6500    0.1286 H   0  0  0  0  0  0  0  0  0  0  0  0
   -1.6860   -2.0850    1.1196 C   0  0  0  0  0  0  0  0  0  0  0  0
   -0.7540   -2.7700    1.5226 O   0  0  0  0  0  0  0  0  0  0  0  0
   -1.5320   -0.8490    0.6496 N   0  0  0  0  0  0  0  0  0  0  0  0
   -2.3500   -0.3360    0.3566 H   0  0  0  0  0  0  0  0  0  0  0  0
   -0.2470   -0.1410    0.5576 C   0  0  1  0  0  0  0  0  0  0  0  0
    0.4572   -0.6505    1.2162 H   0  0  0  0  0  0  0  0  0  0  0  0
    0.3091   -0.2220   -0.8868 C   0  0  1  0  0  0  0  0  0  0  0  0
    0.4958   -1.2761   -1.1010 H   0  0  0  0  0  0  0  0  0  0  0  0
   -0.6942    0.2984   -1.9338 C   0  0  0  0  0  0  0  0  0  0  0  0
   -0.8575    1.3704   -1.8094 H   0  0  0  0  0  0  0  0  0  0  0  0
   -0.3233    0.1095   -2.9399 H   0  0  0  0  0  0  0  0  0  0  0  0
   -1.6494   -0.2174   -1.8289 H   0  0  0  0  0  0  0  0  0  0  0  0
    1.6609    0.5176   -1.0024 C   0  0  0  0  0  0  0  0  0  0  0  0
    2.4822   -0.1784   -0.8266 H   0  0  0  0  0  0  0  0  0  0  0  0
    1.7586    0.9136   -2.0132 H   0  0  0  0  0  0  0  0  0  0  0  0
    1.8035    1.6983   -0.0324 C   0  0  0  0  0  0  0  0  0  0  0  0
    1.8203    1.3460    0.9988 H   0  0  0  0  0  0  0  0  0  0  0  0
    2.7391    2.2197   -0.2359 H   0  0  0  0  0  0  0  0  0  0  0  0
    0.9741    2.3936   -0.1666 H   0  0  0  0  0  0  0  0  0  0  0  0
   -0.3971    1.3008    1.0689 C   0  0  0  0  0  0  0  0  0  0  0  0
   -1.3643    1.9819    0.7311 O   0  0  0  0  0  0  0  0  0  0  0  0
    0.5522    1.7647    1.8915 N   0  0  0  0  0  0  0  0  0  0  0  0
    1.3093    1.1450    2.1332 H   0  0  0  0  0  0  0  0  0  0  0  0
    0.5577    3.1119    2.4582 C   0  0  0  0  0  0  0  0  0  0  0  0
   -0.3986    3.3098    2.9475 H   0  0  0  0  0  0  0  0  0  0  0  0
    1.3619    3.2123    3.1886 H   0  0  0  0  0  0  0  0  0  0  0  0
    0.6974    3.8450    1.6614 H   0  0  0  0  0  0  0  0  0  0  0  0
  5  6  2  0  0  0  0
  5  7  1  0  0  0  0
  2  3  1  0  0  0  0
  2  4  1  0  0  0  0
  2  5  1  0  0  0  0
  1  2  1  0  0  0  0
 24 25  2  0  0  0  0
 24 26  1  0  0  0  0
 20 21  1  0  0  0  0
 20 22  1  0  0  0  0
 20 23  1  0  0  0  0
 17 18  1  0  0  0  0
 17 19  1  0  0  0  0
 17 20  1  0  0  0  0
 13 14  1  0  0  0  0
 13 15  1  0  0  0  0
 13 16  1  0  0  0  0
 11 12  1  0  0  0  0
 11 13  1  0  0  0  0
 11 17  1  0  0  0  0
  9 10  1  0  0  0  0
  9 11  1  0  0  0  0
  9 24  1  0  0  0  0
  7  8  1  0  0  0  0
  7  9  1  0  0  0  0
 28 29  1  0  0  0  0
 28 30  1  0  0  0  0
 28 31  1  0  0  0  0
 26 27  1  0  0  0  0
 26 28  1  0  0  0  0
M  END
$$$$
default_name
  -OEChem-02102213163D

 31 30  0     1  0  0  0  0  0999 V2000
   -3.0760   -3.6390    1.5496 H   0  0  0  0  0  0  0  0  0  0  0  0
   -3.0940   -2.6290    1.1426 C   0  0  0  0  0  0  0  0  0  0  0  0
   -3.7160   -1.9930    1.7706 H   0  0  0  0  0  0  0  0  0  0  0  0
   -3.4880   -2.6500    0.1286 H   0  0  0  0  0  0  0  0  0  0  0  0
   -1.6860   -2.0850    1.1196 C   0  0  0  0  0  0  0  0  0  0  0  0
   -0.7540   -2.7700    1.5226 O   0  0  0  0  0  0  0  0  0  0  0  0
   -1.5320   -0.8490    0.6496 N   0  0  0  0  0  0  0  0  0  0  0  0
   -2.3500   -0.3360    0.3566 H   0  0  0  0  0  0  0  0  0  0  0  0
   -0.2470   -0.1410    0.5576 C   0  0  1  0  0  0  0  0  0  0  0  0
    0.4572   -0.6505    1.2162 H   0  0  0  0  0  0  0  0  0  0  0  0
    0.3091   -0.2220   -0.8868 C   0  0  1  0  0  0  0  0  0  0  0  0
    0.4958   -1.2761   -1.1010 H   0  0  0  0  0  0  0  0  0  0  0  0
   -0.6942    0.2984   -1.9338 C   0  0  0  0  0  0  0  0  0  0  0  0
   -0.8575    1.3704   -1.8094 H   0  0  0  0  0  0  0  0  0  0  0  0
   -0.3233    0.1095   -2.9399 H   0  0  0  0  0  0  0  0  0  0  0  0
   -1.6494   -0.2174   -1.8289 H   0  0  0  0  0  0  0  0  0  0  0  0
    1.6609    0.5176   -1.0024 C   0  0  0  0  0  0  0  0  0  0  0  0
    2.4736   -0.2044   -1.0929 H   0  0  0  0  0  0  0  0  0  0  0  0
    1.6482    1.1328   -1.9021 H   0  0  0  0  0  0  0  0  0  0  0  0
    1.9601    1.4458    0.1826 C   0  0  0  0  0  0  0  0  0  0  0  0
    2.0903    0.8679    1.0974 H   0  0  0  0  0  0  0  0  0  0  0  0
    2.8810    1.9950   -0.0145 H   0  0  0  0  0  0  0  0  0  0  0  0
    1.1443    2.1576    0.3142 H   0  0  0  0  0  0  0  0  0  0  0  0
   -0.3971    1.3008    1.0689 C   0  0  0  0  0  0  0  0  0  0  0  0
   -1.3643    1.9819    0.7311 O   0  0  0  0  0  0  0  0  0  0  0  0
    0.5522    1.7647    1.8915 N   0  0  0  0  0  0  0  0  0  0  0  0
    1.3093    1.1450    2.1332 H   0  0  0  0  0  0  0  0  0  0  0  0
    0.5577    3.1119    2.4582 C   0  0  0  0  0  0  0  0  0  0  0  0
   -0.3986    3.3098    2.9475 H   0  0  0  0  0  0  0  0  0  0  0  0
    1.3619    3.2123    3.1886 H   0  0  0  0  0  0  0  0  0  0  0  0
    0.6974    3.8450    1.6614 H   0  0  0  0  0  0  0  0  0  0  0  0
  5  6  2  0  0  0  0
  5  7  1  0  0  0  0
  2  3  1  0  0  0  0
  2  4  1  0  0  0  0
  2  5  1  0  0  0  0
  1  2  1  0  0  0  0
 24 25  2  0  0  0  0
 24 26  1  0  0  0  0
 20 21  1  0  0  0  0
 20 22  1  0  0  0  0
 20 23  1  0  0  0  0
 17 18  1  0  0  0  0
 17 19  1  0  0  0  0
 17 20  1  0  0  0  0
 13 14  1  0  0  0  0
 13 15  1  0  0  0  0
 13 16  1  0  0  0  0
 11 12  1  0  0  0  0
 11 13  1  0  0  0  0
 11 17  1  0  0  0  0
  9 10  1  0  0  0  0
  9 11  1  0  0  0  0
  9 24  1  0  0  0  0
  7  8  1  0  0  0  0
  7  9  1  0  0  0  0
 28 29  1  0  0  0  0
 28 30  1  0  0  0  0
 28 31  1  0  0  0  0
 26 27  1  0  0  0  0
 26 28  1  0  0  0  0
M  END
$$$$
default_name
  -OEChem-02102213163D

 31 30  0     1  0  0  0  0  0999 V2000
   -3.0760   -3.6390    1.5496 H   0  0  0  0  0  0  0  0  0  0  0  0
   -3.0940   -2.6290    1.1426 C   0  0  0  0  0  0  0  0  0  0  0  0
   -3.7160   -1.9930    1.7706 H   0  0  0  0  0  0  0  0  0  0  0  0
   -3.4880   -2.6500    0.1286 H   0  0  0  0  0  0  0  0  0  0  0  0
   -1.6860   -2.0850    1.1196 C   0  0  0  0  0  0  0  0  0  0  0  0
   -0.7540   -2.7700    1.5226 O   0  0  0  0  0  0  0  0  0  0  0  0
   -1.5320   -0.8490    0.6496 N   0  0  0  0  0  0  0  0  0  0  0  0
   -2.3500   -0.3360    0.3566 H   0  0  0  0  0  0  0  0  0  0  0  0
   -0.2470   -0.1410    0.5576 C   0  0  1  0  0  0  0  0  0  0  0  0
    0.4572   -0.6505    1.2162 H   0  0  0  0  0  0  0  0  0  0  0  0
    0.3091   -0.2220   -0.8868 C   0  0  1  0  0  0  0  0  0  0  0  0
    0.4958   -1.2761   -1.1010 H   0  0  0  0  0  0  0  0  0  0  0  0
   -0.6942    0.2984   -1.9338 C   0  0  0  0  0  0  0  0  0  0  0  0
   -0.8575    1.3704   -1.8094 H   0  0  0  0  0  0  0  0  0  0  0  0
   -0.3233    0.1095   -2.9399 H   0  0  0  0  0  0  0  0  0  0  0  0
   -1.6494   -0.2174   -1.8289 H   0  0  0  0  0  0  0  0  0  0  0  0
    1.6609    0.5176   -1.0024 C   0  0  0  0  0  0  0  0  0  0  0  0
    2.4318   -0.1689   -1.3549 H   0  0  0  0  0  0  0  0  0  0  0  0
    1.5595    1.3215   -1.7314 H   0  0  0  0  0  0  0  0  0  0  0  0
    2.1330    1.1501    0.3138 C   0  0  0  0  0  0  0  0  0  0  0  0
    2.3541    0.3785    1.0510 H   0  0  0  0  0  0  0  0  0  0  0  0
    3.0411    1.7251    0.1308 H   0  0  0  0  0  0  0  0  0  0  0  0
    1.3638    1.8174    0.7040 H   0  0  0  0  0  0  0  0  0  0  0  0
   -0.3971    1.3008    1.0689 C   0  0  0  0  0  0  0  0  0  0  0  0
   -1.3643    1.9819    0.7311 O   0  0  0  0  0  0  0  0  0  0  0  0
    0.5522    1.7647    1.8915 N   0  0  0  0  0  0  0  0  0  0  0  0
    1.3093    1.1450    2.1332 H   0  0  0  0  0  0  0  0  0  0  0  0
    0.5577    3.1119    2.4582 C   0  0  0  0  0  0  0  0  0  0  0  0
   -0.3986    3.3098    2.9475 H   0  0  0  0  0  0  0  0  0  0  0  0
    1.3619    3.2123    3.1886 H   0  0  0  0  0  0  0  0  0  0  0  0
    0.6974    3.8450    1.6614 H   0  0  0  0  0  0  0  0  0  0  0  0
  5  6  2  0  0  0  0
  5  7  1  0  0  0  0
  2  3  1  0  0  0  0
  2  4  1  0  0  0  0
  2  5  1  0  0  0  0
  1  2  1  0  0  0  0
 24 25  2  0  0  0  0
 24 26  1  0  0  0  0
 20 21  1  0  0  0  0
 20 22  1  0  0  0  0
 20 23  1  0  0  0  0
 17 18  1  0  0  0  0
 17 19  1  0  0  0  0
 17 20  1  0  0  0  0
 13 14  1  0  0  0  0
 13 15  1  0  0  0  0
 13 16  1  0  0  0  0
 11 12  1  0  0  0  0
 11 13  1  0  0  0  0
 11 17  1  0  0  0  0
  9 10  1  0  0  0  0
  9 11  1  0  0  0  0
  9 24  1  0  0  0  0
  7  8  1  0  0  0  0
  7  9  1  0  0  0  0
 28 29  1  0  0  0  0
 28 30  1  0  0  0  0
 28 31  1  0  0  0  0
 26 27  1  0  0  0  0
 26 28  1  0  0  0  0
M  END
$$$$
default_name
  -OEChem-02102213163D

 31 30  0     1  0  0  0  0  0999 V2000
   -3.0760   -3.6390    1.5496 H   0  0  0  0  0  0  0  0  0  0  0  0
   -3.0940   -2.6290    1.1426 C   0  0  0  0  0  0  0  0  0  0  0  0
   -3.7160   -1.9930    1.7706 H   0  0  0  0  0  0  0  0  0  0  0  0
   -3.4880   -2.6500    0.1286 H   0  0  0  0  0  0  0  0  0  0  0  0
   -1.6860   -2.0850    1.1196 C   0  0  0  0  0  0  0  0  0  0  0  0
   -0.7540   -2.7700    1.5226 O   0  0  0  0  0  0  0  0  0  0  0  0
   -1.5320   -0.8490    0.6496 N   0  0  0  0  0  0  0  0  0  0  0  0
   -2.3500   -0.3360    0.3566 H   0  0  0  0  0  0  0  0  0  0  0  0
   -0.2470   -0.1410    0.5576 C   0  0  1  0  0  0  0  0  0  0  0  0
    0.4572   -0.6505    1.2162 H   0  0  0  0  0  0  0  0  0  0  0  0
    0.3091   -0.2220   -0.8868 C   0  0  1  0  0  0  0  0  0  0  0  0
    0.4958   -1.2761   -1.1010 H   0  0  0  0  0  0  0  0  0  0  0  0
   -0.6942    0.2984   -1.9338 C   0  0  0  0  0  0  0  0  0  0  0  0
   -0.8575    1.3704   -1.8094 H   0  0  0  0  0  0  0  0  0  0  0  0
   -0.3233    0.1095   -2.9399 H   0  0  0  0  0  0  0  0  0  0  0  0
   -1.6494   -0.2174   -1.8289 H   0  0  0  0  0  0  0  0  0  0  0  0
    1.6609    0.5176   -1.0024 C   0  0  0  0  0  0  0  0  0  0  0  0
    2.3597   -0.0746   -1.5948 H   0  0  0  0  0  0  0  0  0  0  0  0
    1.4987    1.4669   -1.5129 H   0  0  0  0  0  0  0  0  0  0  0  0
    2.3106    0.8315    0.3521 C   0  0  0  0  0  0  0  0  0  0  0  0
    2.5937   -0.0888    0.8627 H   0  0  0  0  0  0  0  0  0  0  0  0
    3.2085    1.4284    0.1903 H   0  0  0  0  0  0  0  0  0  0  0  0
    1.6175    1.3963    0.9764 H   0  0  0  0  0  0  0  0  0  0  0  0
   -0.3971    1.3008    1.0689 C   0  0  0  0  0  0  0  0  0  0  0  0
   -1.3643    1.9819    0.7311 O   0  0  0  0  0  0  0  0  0  0  0  0
    0.5522    1.7647    1.8915 N   0  0  0  0  0  0  0  0  0  0  0  0
    1.3093    1.1450    2.1332 H   0  0  0  0  0  0  0  0  0  0  0  0
    0.5577    3.1119    2.4582 C   0  0  0  0  0  0  0  0  0  0  0  0
   -0.3986    3.3098    2.9475 H   0  0  0  0  0  0  0  0  0  0  0  0
    1.3619    3.2123    3.1886 H   0  0  0  0  0  0  0  0  0  0  0  0
    0.6974    3.8450    1.6614 H   0  0  0  0  0  0  0  0  0  0  0  0
  5  6  2  0  0  0  0
  5  7  1  0  0  0  0
  2  3  1  0  0  0  0
  2  4  1  0  0  0  0
  2  5  1  0  0  0  0
  1  2  1  0  0  0  0
 24 25  2  0  0  0  0
 24 26  1  0  0  0  0
 20 21  1  0  0  0  0
 20 22  1  0  0  0  0
 20 23  1  0  0  0  0
 17 18  1  0  0  0  0
 17 19  1  0  0  0  0
 17 20  1  0  0  0  0
 13 14  1  0  0  0  0
 13 15  1  0  0  0  0
 13 16  1  0  0  0  0
 11 12  1  0  0  0  0
 11 13  1  0  0  0  0
 11 17  1  0  0  0  0
  9 10  1  0  0  0  0
  9 11  1  0  0  0  0
  9 24  1  0  0  0  0
  7  8  1  0  0  0  0
  7  9  1  0  0  0  0
 28 29  1  0  0  0  0
 28 30  1  0  0  0  0
 28 31  1  0  0  0  0
 26 27  1  0  0  0  0
 26 28  1  0  0  0  0
M  END
$$$$
default_name
  -OEChem-02102213163D

 31 30  0     1  0  0  0  0  0999 V2000
   -3.0760   -3.6390    1.5496 H   0  0  0  0  0  0  0  0  0  0  0  0
   -3.0940   -2.6290    1.1426 C   0  0  0  0  0  0  0  0  0  0  0  0
   -3.7160   -1.9930    1.7706 H   0  0  0  0  0  0  0  0  0  0  0  0
   -3.4880   -2.6500    0.1286 H   0  0  0  0  0  0  0  0  0  0  0  0
   -1.6860   -2.0850    1.1196 C   0  0  0  0  0  0  0  0  0  0  0  0
   -0.7540   -2.7700    1.5226 O   0  0  0  0  0  0  0  0  0  0  0  0
   -1.5320   -0.8490    0.6496 N   0  0  0  0  0  0  0  0  0  0  0  0
   -2.3500   -0.3360    0.3566 H   0  0  0  0  0  0  0  0  0  0  0  0
   -0.2470   -0.1410    0.5576 C   0  0  1  0  0  0  0  0  0  0  0  0
    0.4572   -0.6505    1.2162 H   0  0  0  0  0  0  0  0  0  0  0  0
    0.3091   -0.2220   -0.8868 C   0  0  1  0  0  0  0  0  0  0  0  0
    0.4958   -1.2761   -1.1010 H   0  0  0  0  0  0  0  0  0  0  0  0
   -0.6942    0.2984   -1.9338 C   0  0  0  0  0  0  0  0  0  0  0  0
   -0.8575    1.3704   -1.8094 H   0  0  0  0  0  0  0  0  0  0  0  0
   -0.3233    0.1095   -2.9399 H   0  0  0  0  0  0  0  0  0  0  0  0
   -1.6494   -0.2174   -1.8289 H   0  0  0  0  0  0  0  0  0  0  0  0
    1.6609    0.5176   -1.0024 C   0  0  0  0  0  0  0  0  0  0  0  0
    2.2621    0.0723   -1.7962 H   0  0  0  0  0  0  0  0  0  0  0  0
    1.4698    1.5590   -1.2614 H   0  0  0  0  0  0  0  0  0  0  0  0
    2.4808    0.5116    0.2949 C   0  0  0  0  0  0  0  0  0  0  0  0
    2.7927   -0.5022    0.5453 H   0  0  0  0  0  0  0  0  0  0  0  0
    3.3718    1.1251    0.1598 H   0  0  0  0  0  0  0  0  0  0  0  0
    1.8881    0.9230    1.1127 H   0  0  0  0  0  0  0  0  0  0  0  0
   -0.3971    1.3008    1.0689 C   0  0  0  0  0  0  0  0  0  0  0  0
   -1.3643    1.9819    0.7311 O   0  0  0  0  0  0  0  0  0  0  0  0
    0.5522    1.7647    1.8915 N   0  0  0  0  0  0  0  0  0  0  0  0
    1.3093    1.1450    2.1332 H   0  0  0  0  0  0  0  0  0  0  0  0
    0.5577    3.1119    2.4582 C   0  0  0  0  0  0  0  0  0  0  0  0
   -0.3986    3.3098    2.9475 H   0  0  0  0  0  0  0  0  0  0  0  0
    1.3619    3.2123    3.1886 H   0  0  0  0  0  0  0  0  0  0  0  0
    0.6974    3.8450    1.6614 H   0  0  0  0  0  0  0  0  0  0  0  0
  5  6  2  0  0  0  0
  5  7  1  0  0  0  0
  2  3  1  0  0  0  0
  2  4  1  0  0  0  0
  2  5  1  0  0  0  0
  1  2  1  0  0  0  0
 24 25  2  0  0  0  0
 24 26  1  0  0  0  0
 20 21  1  0  0  0  0
 20 22  1  0  0  0  0
 20 23  1  0  0  0  0
 17 18  1  0  0  0  0
 17 19  1  0  0  0  0
 17 20  1  0  0  0  0
 13 14  1  0  0  0  0
 13 15  1  0  0  0  0
 13 16  1  0  0  0  0
 11 12  1  0  0  0  0
 11 13  1  0  0  0  0
 11 17  1  0  0  0  0
  9 10  1  0  0  0  0
  9 11  1  0  0  0  0
  9 24  1  0  0  0  0
  7  8  1  0  0  0  0
  7  9  1  0  0  0  0
 28 29  1  0  0  0  0
 28 30  1  0  0  0  0
 28 31  1  0  0  0  0
 26 27  1  0  0  0  0
 26 28  1  0  0  0  0
M  END
$$$$
default_name
  -OEChem-02102213163D

 31 30  0     1  0  0  0  0  0999 V2000
   -3.0760   -3.6390    1.5496 H   0  0  0  0  0  0  0  0  0  0  0  0
   -3.0940   -2.6290    1.1426 C   0  0  0  0  0  0  0  0  0  0  0  0
   -3.7160   -1.9930    1.7706 H   0  0  0  0  0  0  0  0  0  0  0  0
   -3.4880   -2.6500    0.1286 H   0  0  0  0  0  0  0  0  0  0  0  0
   -1.6860   -2.0850    1.1196 C   0  0  0  0  0  0  0  0  0  0  0  0
   -0.7540   -2.7700    1.5226 O   0  0  0  0  0  0  0  0  0  0  0  0
   -1.5320   -0.8490    0.6496 N   0  0  0  0  0  0  0  0  0  0  0  0
   -2.3500   -0.3360    0.3566 H   0  0  0  0  0  0  0  0  0  0  0  0
   -0.2470   -0.1410    0.5576 C   0  0  1  0  0  0  0  0  0  0  0  0
    0.4572   -0.6505    1.2162 H   0  0  0  0  0  0  0  0  0  0  0  0
    0.3091   -0.2220   -0.8868 C   0  0  1  0  0  0  0  0  0  0  0  0
    0.4958   -1.2761   -1.1010 H   0  0  0  0  0  0  0  0  0  0  0  0
   -0.6942    0.2984   -1.9338 C   0  0  0  0  0  0  0  0  0  0  0  0
   -0.8575    1.3704   -1.8094 H   0  0  0  0  0  0  0  0  0  0  0  0
   -0.3233    0.1095   -2.9399 H   0  0  0  0  0  0  0  0  0  0  0  0
   -1.6494   -0.2174   -1.8289 H   0  0  0  0  0  0  0  0  0  0  0  0
    1.6609    0.5176   -1.0024 C   0  0  0  0  0  0  0  0  0  0  0  0
    2.1457    0.2616   -1.9454 H   0  0  0  0  0  0  0  0  0  0  0  0
    1.4748    1.5915   -0.9940 H   0  0  0  0  0  0  0  0  0  0  0  0
    2.6318    0.2123    0.1462 C   0  0  0  0  0  0  0  0  0  0  0  0
    2.9377   -0.8335    0.1205 H   0  0  0  0  0  0  0  0  0  0  0  0
    3.5200    0.8358    0.0415 H   0  0  0  0  0  0  0  0  0  0  0  0
    2.1572    0.4297    1.1037 H   0  0  0  0  0  0  0  0  0  0  0  0
   -0.3971    1.3008    1.0689 C   0  0  0  0  0  0  0  0  0  0  0  0
   -1.3643    1.9819    0.7311 O   0  0  0  0  0  0  0  0  0  0  0  0
    0.5522    1.7647    1.8915 N   0  0  0  0  0  0  0  0  0  0  0  0
    1.3093    1.1450    2.1332 H   0  0  0  0  0  0  0  0  0  0  0  0
    0.5577    3.1119    2.4582 C   0  0  0  0  0  0  0  0  0  0  0  0
   -0.3986    3.3098    2.9475 H   0  0  0  0  0  0  0  0  0  0  0  0
    1.3619    3.2123    3.1886 H   0  0  0  0  0  0  0  0  0  0  0  0
    0.6974    3.8450    1.6614 H   0  0  0  0  0  0  0  0  0  0  0  0
  5  6  2  0  0  0  0
  5  7  1  0  0  0  0
  2  3  1  0  0  0  0
  2  4  1  0  0  0  0
  2  5  1  0  0  0  0
  1  2  1  0  0  0  0
 24 25  2  0  0  0  0
 24 26  1  0  0  0  0
 20 21  1  0  0  0  0
 20 22  1  0  0  0  0
 20 23  1  0  0  0  0
 17 18  1  0  0  0  0
 17 19  1  0  0  0  0
 17 20  1  0  0  0  0
 13 14  1  0  0  0  0
 13 15  1  0  0  0  0
 13 16  1  0  0  0  0
 11 12  1  0  0  0  0
 11 13  1  0  0  0  0
 11 17  1  0  0  0  0
  9 10  1  0  0  0  0
  9 11  1  0  0  0  0
  9 24  1  0  0  0  0
  7  8  1  0  0  0  0
  7  9  1  0  0  0  0
 28 29  1  0  0  0  0
 28 30  1  0  0  0  0
 28 31  1  0  0  0  0
 26 27  1  0  0  0  0
 26 28  1  0  0  0  0
M  END
$$$$
default_name
  -OEChem-02102213163D

 31 30  0     1  0  0  0  0  0999 V2000
   -3.0760   -3.6390    1.5496 H   0  0  0  0  0  0  0  0  0  0  0  0
   -3.0940   -2.6290    1.1426 C   0  0  0  0  0  0  0  0  0  0  0  0
   -3.7160   -1.9930    1.7706 H   0  0  0  0  0  0  0  0  0  0  0  0
   -3.4880   -2.6500    0.1286 H   0  0  0  0  0  0  0  0  0  0  0  0
   -1.6860   -2.0850    1.1196 C   0  0  0  0  0  0  0  0  0  0  0  0
   -0.7540   -2.7700    1.5226 O   0  0  0  0  0  0  0  0  0  0  0  0
   -1.5320   -0.8490    0.6496 N   0  0  0  0  0  0  0  0  0  0  0  0
   -2.3500   -0.3360    0.3566 H   0  0  0  0  0  0  0  0  0  0  0  0
   -0.2470   -0.1410    0.5576 C   0  0  1  0  0  0  0  0  0  0  0  0
    0.4572   -0.6505    1.2162 H   0  0  0  0  0  0  0  0  0  0  0  0
    0.3091   -0.2220   -0.8868 C   0  0  1  0  0  0  0  0  0  0  0  0
    0.4958   -1.2761   -1.1010 H   0  0  0  0  0  0  0  0  0  0  0  0
   -0.6942    0.2984   -1.9338 C   0  0  0  0  0  0  0  0  0  0  0  0
   -0.8575    1.3704   -1.8094 H   0  0  0  0  0  0  0  0  0  0  0  0
   -0.3233    0.1095   -2.9399 H   0  0  0  0  0  0  0  0  0  0  0  0
   -1.6494   -0.2174   -1.8289 H   0  0  0  0  0  0  0  0  0  0  0  0
    1.6609    0.5176   -1.0024 C   0  0  0  0  0  0  0  0  0  0  0  0
    2.0185    0.4805   -2.0323 H   0  0  0  0  0  0  0  0  0  0  0  0
    1.5135    1.5624   -0.7290 H   0  0  0  0  0  0  0  0  0  0  0  0
    2.7535   -0.0461   -0.0839 C   0  0  0  0  0  0  0  0  0  0  0  0
    3.0186   -1.0601   -0.3829 H   0  0  0  0  0  0  0  0  0  0  0  0
    3.6428    0.5804   -0.1567 H   0  0  0  0  0  0  0  0  0  0  0  0
    2.4065   -0.0499    0.9499 H   0  0  0  0  0  0  0  0  0  0  0  0
   -0.3971    1.3008    1.0689 C   0  0  0  0  0  0  0  0  0  0  0  0
   -1.3643    1.9819    0.7311 O   0  0  0  0  0  0  0  0  0  0  0  0
    0.5522    1.7647    1.8915 N   0  0  0  0  0  0  0  0  0  0  0  0
    1.3093    1.1450    2.1332 H   0  0  0  0  0  0  0  0  0  0  0  0
    0.5577    3.1119    2.4582 C   0  0  0  0  0  0  0  0  0  0  0  0
   -0.3986    3.3098    2.9475 H   0  0  0  0  0  0  0  0  0  0  0  0
    1.3619    3.2123    3.1886 H   0  0  0  0  0  0  0  0  0  0  0  0
    0.6974    3.8450    1.6614 H   0  0  0  0  0  0  0  0  0  0  0  0
  5  6  2  0  0  0  0
  5  7  1  0  0  0  0
  2  3  1  0  0  0  0
  2  4  1  0  0  0  0
  2  5  1  0  0  0  0
  1  2  1  0  0  0  0
 24 25  2  0  0  0  0
 24 26  1  0  0  0  0
 20 21  1  0  0  0  0
 20 22  1  0  0  0  0
 20 23  1  0  0  0  0
 17 18  1  0  0  0  0
 17 19  1  0  0  0  0
 17 20  1  0  0  0  0
 13 14  1  0  0  0  0
 13 15  1  0  0  0  0
 13 16  1  0  0  0  0
 11 12  1  0  0  0  0
 11 13  1  0  0  0  0
 11 17  1  0  0  0  0
  9 10  1  0  0  0  0
  9 11  1  0  0  0  0
  9 24  1  0  0  0  0
  7  8  1  0  0  0  0
  7  9  1  0  0  0  0
 28 29  1  0  0  0  0
 28 30  1  0  0  0  0
 28 31  1  0  0  0  0
 26 27  1  0  0  0  0
 26 28  1  0  0  0  0
M  END
$$$$
default_name
  -OEChem-02102213163D

 31 30  0     1  0  0  0  0  0999 V2000
   -3.0760   -3.6390    1.5496 H   0  0  0  0  0  0  0  0  0  0  0  0
   -3.0940   -2.6290    1.1426 C   0  0  0  0  0  0  0  0  0  0  0  0
   -3.7160   -1.9930    1.7706 H   0  0  0  0  0  0  0  0  0  0  0  0
   -3.4880   -2.6500    0.1286 H   0  0  0  0  0  0  0  0  0  0  0  0
   -1.6860   -2.0850    1.1196 C   0  0  0  0  0  0  0  0  0  0  0  0
   -0.7540   -2.7700    1.5226 O   0  0  0  0  0  0  0  0  0  0  0  0
   -1.5320   -0.8490    0.6496 N   0  0  0  0  0  0  0  0  0  0  0  0
   -2.3500   -0.3360    0.3566 H   0  0  0  0  0  0  0  0  0  0  0  0
   -0.2470   -0.1410    0.5576 C   0  0  1  0  0  0  0  0  0  0  0  0
    0.4572   -0.6505    1.2162 H   0  0  0  0  0  0  0  0  0  0  0  0
    0.3091   -0.2220   -0.8868 C   0  0  1  0  0  0  0  0  0  0  0  0
    0.4958   -1.2761   -1.1010 H   0  0  0  0  0  0  0  0  0  0  0  0
   -0.6942    0.2984   -1.9338 C   0  0  0  0  0  0  0  0  0  0  0  0
   -0.8575    1.3704   -1.8094 H   0  0  0  0  0  0  0  0  0  0  0  0
   -0.3233    0.1095   -2.9399 H   0  0  0  0  0  0  0  0  0  0  0  0
   -1.6494   -0.2174   -1.8289 H   0  0  0  0  0  0  0  0  0  0  0  0
    1.6609    0.5176   -1.0024 C   0  0  0  0  0  0  0  0  0  0  0  0
    1.8891    0.7141   -2.0508 H   0  0  0  0  0  0  0  0  0  0  0  0
    1.5830    1.4734   -0.4844 H   0  0  0  0  0  0  0  0  0  0  0  0
    2.8376   -0.2460   -0.3798 C   0  0  0  0  0  0  0  0  0  0  0  0
    3.0301   -1.1666   -0.9304 H   0  0  0  0  0  0  0  0  0  0  0  0
    3.7320    0.3761   -0.4211 H   0  0  0  0  0  0  0  0  0  0  0  0
    2.6190   -0.4832    0.6619 H   0  0  0  0  0  0  0  0  0  0  0  0
   -0.3971    1.3008    1.0689 C   0  0  0  0  0  0  0  0  0  0  0  0
   -1.3643    1.9819    0.7311 O   0  0  0  0  0  0  0  0  0  0  0  0
    0.5522    1.7647    1.8915 N   0  0  0  0  0  0  0  0  0  0  0  0
    1.3093    1.1450    2.1332 H   0  0  0  0  0  0  0  0  0  0  0  0
    0.5577    3.1119    2.4582 C   0  0  0  0  0  0  0  0  0  0  0  0
   -0.3986    3.3098    2.9475 H   0  0  0  0  0  0  0  0  0  0  0  0
    1.3619    3.2123    3.1886 H   0  0  0  0  0  0  0  0  0  0  0  0
    0.6974    3.8450    1.6614 H   0  0  0  0  0  0  0  0  0  0  0  0
  5  6  2  0  0  0  0
  5  7  1  0  0  0  0
  2  3  1  0  0  0  0
  2  4  1  0  0  0  0
  2  5  1  0  0  0  0
  1  2  1  0  0  0  0
 24 25  2  0  0  0  0
 24 26  1  0  0  0  0
 20 21  1  0  0  0  0
 20 22  1  0  0  0  0
 20 23  1  0  0  0  0
 17 18  1  0  0  0  0
 17 19  1  0  0  0  0
 17 20  1  0  0  0  0
 13 14  1  0  0  0  0
 13 15  1  0  0  0  0
 13 16  1  0  0  0  0
 11 12  1  0  0  0  0
 11 13  1  0  0  0  0
 11 17  1  0  0  0  0
  9 10  1  0  0  0  0
  9 11  1  0  0  0  0
  9 24  1  0  0  0  0
  7  8  1  0  0  0  0
  7  9  1  0  0  0  0
 28 29  1  0  0  0  0
 28 30  1  0  0  0  0
 28 31  1  0  0  0  0
 26 27  1  0  0  0  0
 26 28  1  0  0  0  0
M  END
$$$$
default_name
  -OEChem-02102213163D

 31 30  0     1  0  0  0  0  0999 V2000
   -3.0760   -3.6390    1.5496 H   0  0  0  0  0  0  0  0  0  0  0  0
   -3.0940   -2.6290    1.1426 C   0  0  0  0  0  0  0  0  0  0  0  0
   -3.7160   -1.9930    1.7706 H   0  0  0  0  0  0  0  0  0  0  0  0
   -3.4880   -2.6500    0.1286 H   0  0  0  0  0  0  0  0  0  0  0  0
   -1.6860   -2.0850    1.1196 C   0  0  0  0  0  0  0  0  0  0  0  0
   -0.7540   -2.7700    1.5226 O   0  0  0  0  0  0  0  0  0  0  0  0
   -1.5320   -0.8490    0.6496 N   0  0  0  0  0  0  0  0  0  0  0  0
   -2.3500   -0.3360    0.3566 H   0  0  0  0  0  0  0  0  0  0  0  0
   -0.2470   -0.1410    0.5576 C   0  0  1  0  0  0  0  0  0  0  0  0
    0.4572   -0.6505    1.2162 H   0  0  0  0  0  0  0  0  0  0  0  0
    0.3091   -0.2220   -0.8868 C   0  0  1  0  0  0  0  0  0  0  0  0
    0.4958   -1.2761   -1.1010 H   0  0  0  0  0  0  0  0  0  0  0  0
   -0.6942    0.2984   -1.9338 C   0  0  0  0  0  0  0  0  0  0  0  0
   -0.8575    1.3704   -1.8094 H   0  0  0  0  0  0  0  0  0  0  0  0
   -0.3233    0.1095   -2.9399 H   0  0  0  0  0  0  0  0  0  0  0  0
   -1.6494   -0.2174   -1.8289 H   0  0  0  0  0  0  0  0  0  0  0  0
    1.6609    0.5176   -1.0024 C   0  0  0  0  0  0  0  0  0  0  0  0
    1.7664    0.9465   -1.9998 H   0  0  0  0  0  0  0  0  0  0  0  0
    1.6788    1.3308   -0.2768 H   0  0  0  0  0  0  0  0  0  0  0  0
    2.8782   -0.3736   -0.7212 C   0  0  0  0  0  0  0  0  0  0  0  0
    2.9713   -1.1457   -1.4848 H   0  0  0  0  0  0  0  0  0  0  0  0
    3.7814    0.2370   -0.7339 H   0  0  0  0  0  0  0  0  0  0  0  0
    2.7801   -0.8407    0.2593 H   0  0  0  0  0  0  0  0  0  0  0  0
   -0.3971    1.3008    1.0689 C   0  0  0  0  0  0  0  0  0  0  0  0
   -1.3643    1.9819    0.7311 O   0  0  0  0  0  0  0  0  0  0  0  0
    0.5522    1.7647    1.8915 N   0  0  0  0  0  0  0  0  0  0  0  0
    1.3093    1.1450    2.1332 H   0  0  0  0  0  0  0  0  0  0  0  0
    0.5577    3.1119    2.4582 C   0  0  0  0  0  0  0  0  0  0  0  0
   -0.3986    3.3098    2.9475 H   0  0  0  0  0  0  0  0  0  0  0  0
    1.3619    3.2123    3.1886 H   0  0  0  0  0  0  0  0  0  0  0  0
    0.6974    3.8450    1.6614 H   0  0  0  0  0  0  0  0  0  0  0  0
  5  6  2  0  0  0  0
  5  7  1  0  0  0  0
  2  3  1  0  0  0  0
  2  4  1  0  0  0  0
  2  5  1  0  0  0  0
  1  2  1  0  0  0  0
 24 25  2  0  0  0  0
 24 26  1  0  0  0  0
 20 21  1  0  0  0  0
 20 22  1  0  0  0  0
 20 23  1  0  0  0  0
 17 18  1  0  0  0  0
 17 19  1  0  0  0  0
 17 20  1  0  0  0  0
 13 14  1  0  0  0  0
 13 15  1  0  0  0  0
 13 16  1  0  0  0  0
 11 12  1  0  0  0  0
 11 13  1  0  0  0  0
 11 17  1  0  0  0  0
  9 10  1  0  0  0  0
  9 11  1  0  0  0  0
  9 24  1  0  0  0  0
  7  8  1  0  0  0  0
  7  9  1  0  0  0  0
 28 29  1  0  0  0  0
 28 30  1  0  0  0  0
 28 31  1  0  0  0  0
 26 27  1  0  0  0  0
 26 28  1  0  0  0  0
M  END
$$$$
default_name
  -OEChem-02102213163D

 31 30  0     1  0  0  0  0  0999 V2000
   -3.0760   -3.6390    1.5496 H   0  0  0  0  0  0  0  0  0  0  0  0
   -3.0940   -2.6290    1.1426 C   0  0  0  0  0  0  0  0  0  0  0  0
   -3.7160   -1.9930    1.7706 H   0  0  0  0  0  0  0  0  0  0  0  0
   -3.4880   -2.6500    0.1286 H   0  0  0  0  0  0  0  0  0  0  0  0
   -1.6860   -2.0850    1.1196 C   0  0  0  0  0  0  0  0  0  0  0  0
   -0.7540   -2.7700    1.5226 O   0  0  0  0  0  0  0  0  0  0  0  0
   -1.5320   -0.8490    0.6496 N   0  0  0  0  0  0  0  0  0  0  0  0
   -2.3500   -0.3360    0.3566 H   0  0  0  0  0  0  0  0  0  0  0  0
   -0.2470   -0.1410    0.5576 C   0  0  1  0  0  0  0  0  0  0  0  0
    0.4572   -0.6505    1.2162 H   0  0  0  0  0  0  0  0  0  0  0  0
    0.3091   -0.2220   -0.8868 C   0  0  1  0  0  0  0  0  0  0  0  0
    0.4958   -1.2761   -1.1010 H   0  0  0  0  0  0  0  0  0  0  0  0
   -0.6942    0.2984   -1.9338 C   0  0  0  0  0  0  0  0  0  0  0  0
   -0.8575    1.3704   -1.8094 H   0  0  0  0  0  0  0  0  0  0  0  0
   -0.3233    0.1095   -2.9399 H   0  0  0  0  0  0  0  0  0  0  0  0
   -1.6494   -0.2174   -1.8289 H   0  0  0  0  0  0  0  0  0  0  0  0
    1.6609    0.5176   -1.0024 C   0  0  0  0  0  0  0  0  0  0  0  0
    1.6586    1.1617   -1.8828 H   0  0  0  0  0  0  0  0  0  0  0  0
    1.7943    1.1442   -0.1206 H   0  0  0  0  0  0  0  0  0  0  0  0
    2.8727   -0.4204   -1.0850 C   0  0  0  0  0  0  0  0  0  0  0  0
    2.8462   -0.9989   -2.0083 H   0  0  0  0  0  0  0  0  0  0  0  0
    3.7876    0.1724   -1.0736 H   0  0  0  0  0  0  0  0  0  0  0  0
    2.8790   -1.0979   -0.2305 H   0  0  0  0  0  0  0  0  0  0  0  0
   -0.3971    1.3008    1.0689 C   0  0  0  0  0  0  0  0  0  0  0  0
   -1.3643    1.9819    0.7311 O   0  0  0  0  0  0  0  0  0  0  0  0
    0.5522    1.7647    1.8915 N   0  0  0  0  0  0  0  0  0  0  0  0
    1.3093    1.1450    2.1332 H   0  0  0  0  0  0  0  0  0  0  0  0
    0.5577    3.1119    2.4582 C   0  0  0  0  0  0  0  0  0  0  0  0
   -0.3986    3.3098    2.9475 H   0  0  0  0  0  0  0  0  0  0  0  0
    1.3619    3.2123    3.1886 H   0  0  0  0  0  0  0  0  0  0  0  0
    0.6974    3.8450    1.6614 H   0  0  0  0  0  0  0  0  0  0  0  0
  5  6  2  0  0  0  0
  5  7  1  0  0  0  0
  2  3  1  0  0  0  0
  2  4  1  0  0  0  0
  2  5  1  0  0  0  0
  1  2  1  0  0  0  0
 24 25  2  0  0  0  0
 24 26  1  0  0  0  0
 20 21  1  0  0  0  0
 20 22  1  0  0  0  0
 20 23  1  0  0  0  0
 17 18  1  0  0  0  0
 17 19  1  0  0  0  0
 17 20  1  0  0  0  0
 13 14  1  0  0  0  0
 13 15  1  0  0  0  0
 13 16  1  0  0  0  0
 11 12  1  0  0  0  0
 11 13  1  0  0  0  0
 11 17  1  0  0  0  0
  9 10  1  0  0  0  0
  9 11  1  0  0  0  0
  9 24  1  0  0  0  0
  7  8  1  0  0  0  0
  7  9  1  0  0  0  0
 28 29  1  0  0  0  0
 28 30  1  0  0  0  0
 28 31  1  0  0  0  0
 26 27  1  0  0  0  0
 26 28  1  0  0  0  0
M  END
$$$$
default_name
  -OEChem-02102213163D

 31 30  0     1  0  0  0  0  0999 V2000
   -3.0760   -3.6390    1.5496 H   0  0  0  0  0  0  0  0  0  0  0  0
   -3.0940   -2.6290    1.1426 C   0  0  0  0  0  0  0  0  0  0  0  0
   -3.7160   -1.9930    1.7706 H   0  0  0  0  0  0  0  0  0  0  0  0
   -3.4880   -2.6500    0.1286 H   0  0  0  0  0  0  0  0  0  0  0  0
   -1.6860   -2.0850    1.1196 C   0  0  0  0  0  0  0  0  0  0  0  0
   -0.7540   -2.7700    1.5226 O   0  0  0  0  0  0  0  0  0  0  0  0
   -1.5320   -0.8490    0.6496 N   0  0  0  0  0  0  0  0  0  0  0  0
   -2.3500   -0.3360    0.3566 H   0  0  0  0  0  0  0  0  0  0  0  0
   -0.2470   -0.1410    0.5576 C   0  0  1  0  0  0  0  0  0  0  0  0
    0.4572   -0.6505    1.2162 H   0  0  0  0  0  0  0  0  0  0  0  0
    0.3091   -0.2220   -0.8868 C   0  0  1  0  0  0  0  0  0  0  0  0
    0.4958   -1.2761   -1.1010 H   0  0  0  0  0  0  0  0  0  0  0  0
   -0.6942    0.2984   -1.9338 C   0  0  0  0  0  0  0  0  0  0  0  0
   -0.8575    1.3704   -1.8094 H   0  0  0  0  0  0  0  0  0  0  0  0
   -0.3233    0.1095   -2.9399 H   0  0  0  0  0  0  0  0  0  0  0  0
   -1.6494   -0.2174   -1.8289 H   0  0  0  0  0  0  0  0  0  0  0  0
    1.6609    0.5176   -1.0024 C   0  0  0  0  0  0  0  0  0  0  0  0
    1.5732    1.3452   -1.7076 H   0  0  0  0  0  0  0  0  0  0  0  0
    1.9216    0.9263   -0.0262 H   0  0  0  0  0  0  0  0  0  0  0  0
    2.8215   -0.3831   -1.4463 C   0  0  0  0  0  0  0  0  0  0  0  0
    2.6633   -0.7361   -2.4652 H   0  0  0  0  0  0  0  0  0  0  0  0
    3.7504    0.1869   -1.4171 H   0  0  0  0  0  0  0  0  0  0  0  0
    2.9088   -1.2374   -0.7740 H   0  0  0  0  0  0  0  0  0  0  0  0
   -0.3971    1.3008    1.0689 C   0  0  0  0  0  0  0  0  0  0  0  0
   -1.3643    1.9819    0.7311 O   0  0  0  0  0  0  0  0  0  0  0  0
    0.5522    1.7647    1.8915 N   0  0  0  0  0  0  0  0  0  0  0  0
    1.3093    1.1450    2.1332 H   0  0  0  0  0  0  0  0  0  0  0  0
    0.5577    3.1119    2.4582 C   0  0  0  0  0  0  0  0  0  0  0  0
   -0.3986    3.3098    2.9475 H   0  0  0  0  0  0  0  0  0  0  0  0
    1.3619    3.2123    3.1886 H   0  0  0  0  0  0  0  0  0  0  0  0
    0.6974    3.8450    1.6614 H   0  0  0  0  0  0  0  0  0  0  0  0
  5  6  2  0  0  0  0
  5  7  1  0  0  0  0
  2  3  1  0  0  0  0
  2  4  1  0  0  0  0
  2  5  1  0  0  0  0
  1  2  1  0  0  0  0
 24 25  2  0  0  0  0
 24 26  1  0  0  0  0
 20 21  1  0  0  0  0
 20 22  1  0  0  0  0
 20 23  1  0  0  0  0
 17 18  1  0  0  0  0
 17 19  1  0  0  0  0
 17 20  1  0  0  0  0
 13 14  1  0  0  0  0
 13 15  1  0  0  0  0
 13 16  1  0  0  0  0
 11 12  1  0  0  0  0
 11 13  1  0  0  0  0
 11 17  1  0  0  0  0
  9 10  1  0  0  0  0
  9 11  1  0  0  0  0
  9 24  1  0  0  0  0
  7  8  1  0  0  0  0
  7  9  1  0  0  0  0
 28 29  1  0  0  0  0
 28 30  1  0  0  0  0
 28 31  1  0  0  0  0
 26 27  1  0  0  0  0
 26 28  1  0  0  0  0
M  END
$$$$
default_name
  -OEChem-02102213163D

 31 30  0     1  0  0  0  0  0999 V2000
   -3.0760   -3.6390    1.5496 H   0  0  0  0  0  0  0  0  0  0  0  0
   -3.0940   -2.6290    1.1426 C   0  0  0  0  0  0  0  0  0  0  0  0
   -3.7160   -1.9930    1.7706 H   0  0  0  0  0  0  0  0  0  0  0  0
   -3.4880   -2.6500    0.1286 H   0  0  0  0  0  0  0  0  0  0  0  0
   -1.6860   -2.0850    1.1196 C   0  0  0  0  0  0  0  0  0  0  0  0
   -0.7540   -2.7700    1.5226 O   0  0  0  0  0  0  0  0  0  0  0  0
   -1.5320   -0.8490    0.6496 N   0  0  0  0  0  0  0  0  0  0  0  0
   -2.3500   -0.3360    0.3566 H   0  0  0  0  0  0  0  0  0  0  0  0
   -0.2470   -0.1410    0.5576 C   0  0  1  0  0  0  0  0  0  0  0  0
    0.4572   -0.6505    1.2162 H   0  0  0  0  0  0  0  0  0  0  0  0
    0.3091   -0.2220   -0.8868 C   0  0  1  0  0  0  0  0  0  0  0  0
    0.4958   -1.2761   -1.1010 H   0  0  0  0  0  0  0  0  0  0  0  0
   -0.6942    0.2984   -1.9338 C   0  0  0  0  0  0  0  0  0  0  0  0
   -0.8575    1.3704   -1.8094 H   0  0  0  0  0  0  0  0  0  0  0  0
   -0.3233    0.1095   -2.9399 H   0  0  0  0  0  0  0  0  0  0  0  0
   -1.6494   -0.2174   -1.8289 H   0  0  0  0  0  0  0  0  0  0  0  0
    1.6609    0.5176   -1.0024 C   0  0  0  0  0  0  0  0  0  0  0  0
    1.5159    1.4844   -1.4863 H   0  0  0  0  0  0  0  0  0  0  0  0
    2.0520    0.6920   -0.0001 H   0  0  0  0  0  0  0  0  0  0  0  0
    2.7279   -0.2644   -1.7804 C   0  0  0  0  0  0  0  0  0  0  0  0
    2.4352   -0.3753   -2.8244 H   0  0  0  0  0  0  0  0  0  0  0  0
    3.6721    0.2793   -1.7411 H   0  0  0  0  0  0  0  0  0  0  0  0
    2.8676   -1.2497   -1.3344 H   0  0  0  0  0  0  0  0  0  0  0  0
   -0.3971    1.3008    1.0689 C   0  0  0  0  0  0  0  0  0  0  0  0
   -1.3643    1.9819    0.7311 O   0  0  0  0  0  0  0  0  0  0  0  0
    0.5522    1.7647    1.8915 N   0  0  0  0  0  0  0  0  0  0  0  0
    1.3093    1.1450    2.1332 H   0  0  0  0  0  0  0  0  0  0  0  0
    0.5577    3.1119    2.4582 C   0  0  0  0  0  0  0  0  0  0  0  0
   -0.3986    3.3098    2.9475 H   0  0  0  0  0  0  0  0  0  0  0  0
    1.3619    3.2123    3.1886 H   0  0  0  0  0  0  0  0  0  0  0  0
    0.6974    3.8450    1.6614 H   0  0  0  0  0  0  0  0  0  0  0  0
  5  6  2  0  0  0  0
  5  7  1  0  0  0  0
  2  3  1  0  0  0  0
  2  4  1  0  0  0  0
  2  5  1  0  0  0  0
  1  2  1  0  0  0  0
 24 25  2  0  0  0  0
 24 26  1  0  0  0  0
 20 21  1  0  0  0  0
 20 22  1  0  0  0  0
 20 23  1  0  0  0  0
 17 18  1  0  0  0  0
 17 19  1  0  0  0  0
 17 20  1  0  0  0  0
 13 14  1  0  0  0  0
 13 15  1  0  0  0  0
 13 16  1  0  0  0  0
 11 12  1  0  0  0  0
 11 13  1  0  0  0  0
 11 17  1  0  0  0  0
  9 10  1  0  0  0  0
  9 11  1  0  0  0  0
  9 24  1  0  0  0  0
  7  8  1  0  0  0  0
  7  9  1  0  0  0  0
 28 29  1  0  0  0  0
 28 30  1  0  0  0  0
 28 31  1  0  0  0  0
 26 27  1  0  0  0  0
 26 28  1  0  0  0  0
M  END
$$$$
default_name
  -OEChem-02102213163D

 31 30  0     1  0  0  0  0  0999 V2000
   -3.0760   -3.6390    1.5496 H   0  0  0  0  0  0  0  0  0  0  0  0
   -3.0940   -2.6290    1.1426 C   0  0  0  0  0  0  0  0  0  0  0  0
   -3.7160   -1.9930    1.7706 H   0  0  0  0  0  0  0  0  0  0  0  0
   -3.4880   -2.6500    0.1286 H   0  0  0  0  0  0  0  0  0  0  0  0
   -1.6860   -2.0850    1.1196 C   0  0  0  0  0  0  0  0  0  0  0  0
   -0.7540   -2.7700    1.5226 O   0  0  0  0  0  0  0  0  0  0  0  0
   -1.5320   -0.8490    0.6496 N   0  0  0  0  0  0  0  0  0  0  0  0
   -2.3500   -0.3360    0.3566 H   0  0  0  0  0  0  0  0  0  0  0  0
   -0.2470   -0.1410    0.5576 C   0  0  1  0  0  0  0  0  0  0  0  0
    0.4572   -0.6505    1.2162 H   0  0  0  0  0  0  0  0  0  0  0  0
    0.3091   -0.2220   -0.8868 C   0  0  1  0  0  0  0  0  0  0  0  0
    0.4958   -1.2761   -1.1010 H   0  0  0  0  0  0  0  0  0  0  0  0
   -0.6942    0.2984   -1.9338 C   0  0  0  0  0  0  0  0  0  0  0  0
   -0.8575    1.3704   -1.8094 H   0  0  0  0  0  0  0  0  0  0  0  0
   -0.3233    0.1095   -2.9399 H   0  0  0  0  0  0  0  0  0  0  0  0
   -1.6494   -0.2174   -1.8289 H   0  0  0  0  0  0  0  0  0  0  0  0
    1.6609    0.5176   -1.0024 C   0  0  0  0  0  0  0  0  0  0  0  0
    1.4907    1.5699   -1.2339 H   0  0  0  0  0  0  0  0  0  0  0  0
    2.1767    0.4573   -0.0441 H   0  0  0  0  0  0  0  0  0  0  0  0
    2.5984   -0.0721   -2.0647 C   0  0  0  0  0  0  0  0  0  0  0  0
    2.1774    0.0590   -3.0614 H   0  0  0  0  0  0  0  0  0  0  0  0
    3.5581    0.4435   -2.0233 H   0  0  0  0  0  0  0  0  0  0  0  0
    2.7582   -1.1338   -1.8733 H   0  0  0  0  0  0  0  0  0  0  0  0
   -0.3971    1.3008    1.0689 C   0  0  0  0  0  0  0  0  0  0  0  0
   -1.3643    1.9819    0.7311 O   0  0  0  0  0  0  0  0  0  0  0  0
    0.5522    1.7647    1.8915 N   0  0  0  0  0  0  0  0  0  0  0  0
    1.3093    1.1450    2.1332 H   0  0  0  0  0  0  0  0  0  0  0  0
    0.5577    3.1119    2.4582 C   0  0  0  0  0  0  0  0  0  0  0  0
   -0.3986    3.3098    2.9475 H   0  0  0  0  0  0  0  0  0  0  0  0
    1.3619    3.2123    3.1886 H   0  0  0  0  0  0  0  0  0  0  0  0
    0.6974    3.8450    1.6614 H   0  0  0  0  0  0  0  0  0  0  0  0
  5  6  2  0  0  0  0
  5  7  1  0  0  0  0
  2  3  1  0  0  0  0
  2  4  1  0  0  0  0
  2  5  1  0  0  0  0
  1  2  1  0  0  0  0
 24 25  2  0  0  0  0
 24 26  1  0  0  0  0
 20 21  1  0  0  0  0
 20 22  1  0  0  0  0
 20 23  1  0  0  0  0
 17 18  1  0  0  0  0
 17 19  1  0  0  0  0
 17 20  1  0  0  0  0
 13 14  1  0  0  0  0
 13 15  1  0  0  0  0
 13 16  1  0  0  0  0
 11 12  1  0  0  0  0
 11 13  1  0  0  0  0
 11 17  1  0  0  0  0
  9 10  1  0  0  0  0
  9 11  1  0  0  0  0
  9 24  1  0  0  0  0
  7  8  1  0  0  0  0
  7  9  1  0  0  0  0
 28 29  1  0  0  0  0
 28 30  1  0  0  0  0
 28 31  1  0  0  0  0
 26 27  1  0  0  0  0
 26 28  1  0  0  0  0
M  END
$$$$
default_name
  -OEChem-02102213163D

 31 30  0     1  0  0  0  0  0999 V2000
   -3.0760   -3.6390    1.5496 H   0  0  0  0  0  0  0  0  0  0  0  0
   -3.0940   -2.6290    1.1426 C   0  0  0  0  0  0  0  0  0  0  0  0
   -3.7160   -1.9930    1.7706 H   0  0  0  0  0  0  0  0  0  0  0  0
   -3.4880   -2.6500    0.1286 H   0  0  0  0  0  0  0  0  0  0  0  0
   -1.6860   -2.0850    1.1196 C   0  0  0  0  0  0  0  0  0  0  0  0
   -0.7540   -2.7700    1.5226 O   0  0  0  0  0  0  0  0  0  0  0  0
   -1.5320   -0.8490    0.6496 N   0  0  0  0  0  0  0  0  0  0  0  0
   -2.3500   -0.3360    0.3566 H   0  0  0  0  0  0  0  0  0  0  0  0
   -0.2470   -0.1410    0.5576 C   0  0  1  0  0  0  0  0  0  0  0  0
    0.4572   -0.6505    1.2162 H   0  0  0  0  0  0  0  0  0  0  0  0
    0.3091   -0.2220   -0.8868 C   0  0  1  0  0  0  0  0  0  0  0  0
    0.4958   -1.2761   -1.1010 H   0  0  0  0  0  0  0  0  0  0  0  0
   -0.6942    0.2984   -1.9338 C   0  0  0  0  0  0  0  0  0  0  0  0
   -0.8575    1.3704   -1.8094 H   0  0  0  0  0  0  0  0  0  0  0  0
   -0.3233    0.1095   -2.9399 H   0  0  0  0  0  0  0  0  0  0  0  0
   -1.6494   -0.2174   -1.8289 H   0  0  0  0  0  0  0  0  0  0  0  0
    1.6609    0.5176   -1.0024 C   0  0  0  0  0  0  0  0  0  0  0  0
    1.4993    1.5958   -0.9676 H   0  0  0  0  0  0  0  0  0  0  0  0
    2.2871    0.2381   -0.1552 H   0  0  0  0  0  0  0  0  0  0  0  0
    2.4419    0.1804   -2.2798 C   0  0  0  0  0  0  0  0  0  0  0  0
    1.9073    0.5371   -3.1600 H   0  0  0  0  0  0  0  0  0  0  0  0
    3.4163    0.6682   -2.2447 H   0  0  0  0  0  0  0  0  0  0  0  0
    2.5879   -0.8978   -2.3541 H   0  0  0  0  0  0  0  0  0  0  0  0
   -0.3971    1.3008    1.0689 C   0  0  0  0  0  0  0  0  0  0  0  0
   -1.3643    1.9819    0.7311 O   0  0  0  0  0  0  0  0  0  0  0  0
    0.5522    1.7647    1.8915 N   0  0  0  0  0  0  0  0  0  0  0  0
    1.3093    1.1450    2.1332 H   0  0  0  0  0  0  0  0  0  0  0  0
    0.5577    3.1119    2.4582 C   0  0  0  0  0  0  0  0  0  0  0  0
   -0.3986    3.3098    2.9475 H   0  0  0  0  0  0  0  0  0  0  0  0
    1.3619    3.2123    3.1886 H   0  0  0  0  0  0  0  0  0  0  0  0
    0.6974    3.8450    1.6614 H   0  0  0  0  0  0  0  0  0  0  0  0
  5  6  2  0  0  0  0
  5  7  1  0  0  0  0
  2  3  1  0  0  0  0
  2  4  1  0  0  0  0
  2  5  1  0  0  0  0
  1  2  1  0  0  0  0
 24 25  2  0  0  0  0
 24 26  1  0  0  0  0
 20 21  1  0  0  0  0
 20 22  1  0  0  0  0
 20 23  1  0  0  0  0
 17 18  1  0  0  0  0
 17 19  1  0  0  0  0
 17 20  1  0  0  0  0
 13 14  1  0  0  0  0
 13 15  1  0  0  0  0
 13 16  1  0  0  0  0
 11 12  1  0  0  0  0
 11 13  1  0  0  0  0
 11 17  1  0  0  0  0
  9 10  1  0  0  0  0
  9 11  1  0  0  0  0
  9 24  1  0  0  0  0
  7  8  1  0  0  0  0
  7  9  1  0  0  0  0
 28 29  1  0  0  0  0
 28 30  1  0  0  0  0
 28 31  1  0  0  0  0
 26 27  1  0  0  0  0
 26 28  1  0  0  0  0
M  END
$$$$
default_name
  -OEChem-02102213163D

 31 30  0     1  0  0  0  0  0999 V2000
   -3.0760   -3.6390    1.5496 H   0  0  0  0  0  0  0  0  0  0  0  0
   -3.0940   -2.6290    1.1426 C   0  0  0  0  0  0  0  0  0  0  0  0
   -3.7160   -1.9930    1.7706 H   0  0  0  0  0  0  0  0  0  0  0  0
   -3.4880   -2.6500    0.1286 H   0  0  0  0  0  0  0  0  0  0  0  0
   -1.6860   -2.0850    1.1196 C   0  0  0  0  0  0  0  0  0  0  0  0
   -0.7540   -2.7700    1.5226 O   0  0  0  0  0  0  0  0  0  0  0  0
   -1.5320   -0.8490    0.6496 N   0  0  0  0  0  0  0  0  0  0  0  0
   -2.3500   -0.3360    0.3566 H   0  0  0  0  0  0  0  0  0  0  0  0
   -0.2470   -0.1410    0.5576 C   0  0  1  0  0  0  0  0  0  0  0  0
    0.4572   -0.6505    1.2162 H   0  0  0  0  0  0  0  0  0  0  0  0
    0.3091   -0.2220   -0.8868 C   0  0  1  0  0  0  0  0  0  0  0  0
    0.2420   -1.2659   -1.1992 H   0  0  0  0  0  0  0  0  0  0  0  0
   -0.5131    0.6189   -1.8820 C   0  0  0  0  0  0  0  0  0  0  0  0
   -0.4168    1.6826   -1.6572 H   0  0  0  0  0  0  0  0  0  0  0  0
   -0.1736    0.4384   -2.9007 H   0  0  0  0  0  0  0  0  0  0  0  0
   -1.5667    0.3421   -1.8284 H   0  0  0  0  0  0  0  0  0  0  0  0
    1.8016    0.1761   -0.9291 C   0  0  0  0  0  0  0  0  0  0  0  0
    1.9288    1.1854   -0.5353 H   0  0  0  0  0  0  0  0  0  0  0  0
    2.3657   -0.5108   -0.2983 H   0  0  0  0  0  0  0  0  0  0  0  0
    2.4166    0.1174   -2.3339 C   0  0  0  0  0  0  0  0  0  0  0  0
    1.9597    0.8644   -2.9828 H   0  0  0  0  0  0  0  0  0  0  0  0
    3.4852    0.3231   -2.2674 H   0  0  0  0  0  0  0  0  0  0  0  0
    2.2729   -0.8748   -2.7629 H   0  0  0  0  0  0  0  0  0  0  0  0
   -0.3971    1.3008    1.0689 C   0  0  0  0  0  0  0  0  0  0  0  0
   -1.3643    1.9819    0.7311 O   0  0  0  0  0  0  0  0  0  0  0  0
    0.5522    1.7647    1.8915 N   0  0  0  0  0  0  0  0  0  0  0  0
    1.3093    1.1450    2.1332 H   0  0  0  0  0  0  0  0  0  0  0  0
    0.5577    3.1119    2.4582 C   0  0  0  0  0  0  0  0  0  0  0  0
   -0.3986    3.3098    2.9475 H   0  0  0  0  0  0  0  0  0  0  0  0
    1.3619    3.2123    3.1886 H   0  0  0  0  0  0  0  0  0  0  0  0
    0.6974    3.8450    1.6614 H   0  0  0  0  0  0  0  0  0  0  0  0
  5  6  2  0  0  0  0
  5  7  1  0  0  0  0
  2  3  1  0  0  0  0
  2  4  1  0  0  0  0
  2  5  1  0  0  0  0
  1  2  1  0  0  0  0
 24 25  2  0  0  0  0
 24 26  1  0  0  0  0
 20 21  1  0  0  0  0
 20 22  1  0  0  0  0
 20 23  1  0  0  0  0
 17 18  1  0  0  0  0
 17 19  1  0  0  0  0
 17 20  1  0  0  0  0
 13 14  1  0  0  0  0
 13 15  1  0  0  0  0
 13 16  1  0  0  0  0
 11 12  1  0  0  0  0
 11 13  1  0  0  0  0
 11 17  1  0  0  0  0
  9 10  1  0  0  0  0
  9 11  1  0  0  0  0
  9 24  1  0  0  0  0
  7  8  1  0  0  0  0
  7  9  1  0  0  0  0
 28 29  1  0  0  0  0
 28 30  1  0  0  0  0
 28 31  1  0  0  0  0
 26 27  1  0  0  0  0
 26 28  1  0  0  0  0
M  END
$$$$
default_name
  -OEChem-02102213163D

 31 30  0     1  0  0  0  0  0999 V2000
   -3.0760   -3.6390    1.5496 H   0  0  0  0  0  0  0  0  0  0  0  0
   -3.0940   -2.6290    1.1426 C   0  0  0  0  0  0  0  0  0  0  0  0
   -3.7160   -1.9930    1.7706 H   0  0  0  0  0  0  0  0  0  0  0  0
   -3.4880   -2.6500    0.1286 H   0  0  0  0  0  0  0  0  0  0  0  0
   -1.6860   -2.0850    1.1196 C   0  0  0  0  0  0  0  0  0  0  0  0
   -0.7540   -2.7700    1.5226 O   0  0  0  0  0  0  0  0  0  0  0  0
   -1.5320   -0.8490    0.6496 N   0  0  0  0  0  0  0  0  0  0  0  0
   -2.3500   -0.3360    0.3566 H   0  0  0  0  0  0  0  0  0  0  0  0
   -0.2470   -0.1410    0.5576 C   0  0  1  0  0  0  0  0  0  0  0  0
    0.4572   -0.6505    1.2162 H   0  0  0  0  0  0  0  0  0  0  0  0
    0.3091   -0.2220   -0.8868 C   0  0  1  0  0  0  0  0  0  0  0  0
    0.2420   -1.2659   -1.1992 H   0  0  0  0  0  0  0  0  0  0  0  0
   -0.5131    0.6189   -1.8820 C   0  0  0  0  0  0  0  0  0  0  0  0
   -0.4168    1.6826   -1.6572 H   0  0  0  0  0  0  0  0  0  0  0  0
   -0.1736    0.4384   -2.9007 H   0  0  0  0  0  0  0  0  0  0  0  0
   -1.5667    0.3421   -1.8284 H   0  0  0  0  0  0  0  0  0  0  0  0
    1.8016    0.1761   -0.9291 C   0  0  0  0  0  0  0  0  0  0  0  0
    1.9701    1.0549   -0.3052 H   0  0  0  0  0  0  0  0  0  0  0  0
    2.3952   -0.6460   -0.5294 H   0  0  0  0  0  0  0  0  0  0  0  0
    2.3219    0.4717   -2.3423 C   0  0  0  0  0  0  0  0  0  0  0  0
    1.8350    1.3566   -2.7516 H   0  0  0  0  0  0  0  0  0  0  0  0
    3.3956    0.6556   -2.2989 H   0  0  0  0  0  0  0  0  0  0  0  0
    2.1348   -0.3819   -2.9948 H   0  0  0  0  0  0  0  0  0  0  0  0
   -0.3971    1.3008    1.0689 C   0  0  0  0  0  0  0  0  0  0  0  0
   -1.3643    1.9819    0.7311 O   0  0  0  0  0  0  0  0  0  0  0  0
    0.5522    1.7647    1.8915 N   0  0  0  0  0  0  0  0  0  0  0  0
    1.3093    1.1450    2.1332 H   0  0  0  0  0  0  0  0  0  0  0  0
    0.5577    3.1119    2.4582 C   0  0  0  0  0  0  0  0  0  0  0  0
   -0.3986    3.3098    2.9475 H   0  0  0  0  0  0  0  0  0  0  0  0
    1.3619    3.2123    3.1886 H   0  0  0  0  0  0  0  0  0  0  0  0
    0.6974    3.8450    1.6614 H   0  0  0  0  0  0  0  0  0  0  0  0
  5  6  2  0  0  0  0
  5  7  1  0  0  0  0
  2  3  1  0  0  0  0
  2  4  1  0  0  0  0
  2  5  1  0  0  0  0
  1  2  1  0  0  0  0
 24 25  2  0  0  0  0
 24 26  1  0  0  0  0
 20 21  1  0  0  0  0
 20 22  1  0  0  0  0
 20 23  1  0  0  0  0
 17 18  1  0  0  0  0
 17 19  1  0  0  0  0
 17 20  1  0  0  0  0
 13 14  1  0  0  0  0
 13 15  1  0  0  0  0
 13 16  1  0  0  0  0
 11 12  1  0  0  0  0
 11 13  1  0  0  0  0
 11 17  1  0  0  0  0
  9 10  1  0  0  0  0
  9 11  1  0  0  0  0
  9 24  1  0  0  0  0
  7  8  1  0  0  0  0
  7  9  1  0  0  0  0
 28 29  1  0  0  0  0
 28 30  1  0  0  0  0
 28 31  1  0  0  0  0
 26 27  1  0  0  0  0
 26 28  1  0  0  0  0
M  END
$$$$
default_name
  -OEChem-02102213163D

 31 30  0     1  0  0  0  0  0999 V2000
   -3.0760   -3.6390    1.5496 H   0  0  0  0  0  0  0  0  0  0  0  0
   -3.0940   -2.6290    1.1426 C   0  0  0  0  0  0  0  0  0  0  0  0
   -3.7160   -1.9930    1.7706 H   0  0  0  0  0  0  0  0  0  0  0  0
   -3.4880   -2.6500    0.1286 H   0  0  0  0  0  0  0  0  0  0  0  0
   -1.6860   -2.0850    1.1196 C   0  0  0  0  0  0  0  0  0  0  0  0
   -0.7540   -2.7700    1.5226 O   0  0  0  0  0  0  0  0  0  0  0  0
   -1.5320   -0.8490    0.6496 N   0  0  0  0  0  0  0  0  0  0  0  0
   -2.3500   -0.3360    0.3566 H   0  0  0  0  0  0  0  0  0  0  0  0
   -0.2470   -0.1410    0.5576 C   0  0  1  0  0  0  0  0  0  0  0  0
    0.4572   -0.6505    1.2162 H   0  0  0  0  0  0  0  0  0  0  0  0
    0.3091   -0.2220   -0.8868 C   0  0  1  0  0  0  0  0  0  0  0  0
    0.2420   -1.2659   -1.1992 H   0  0  0  0  0  0  0  0  0  0  0  0
   -0.5131    0.6189   -1.8820 C   0  0  0  0  0  0  0  0  0  0  0  0
   -0.4168    1.6826   -1.6572 H   0  0  0  0  0  0  0  0  0  0  0  0
   -0.1736    0.4384   -2.9007 H   0  0  0  0  0  0  0  0  0  0  0  0
   -1.5667    0.3421   -1.8284 H   0  0  0  0  0  0  0  0  0  0  0  0
    1.8016    0.1761   -0.9291 C   0  0  0  0  0  0  0  0  0  0  0  0
    2.0245    0.8711   -0.1184 H   0  0  0  0  0  0  0  0  0  0  0  0
    2.4073   -0.7190   -0.7885 H   0  0  0  0  0  0  0  0  0  0  0  0
    2.2323    0.8166   -2.2555 C   0  0  0  0  0  0  0  0  0  0  0  0
    1.7334    1.7752   -2.3970 H   0  0  0  0  0  0  0  0  0  0  0  0
    3.3093    0.9853   -2.2402 H   0  0  0  0  0  0  0  0  0  0  0  0
    1.9895    0.1532   -3.0864 H   0  0  0  0  0  0  0  0  0  0  0  0
   -0.3971    1.3008    1.0689 C   0  0  0  0  0  0  0  0  0  0  0  0
   -1.3643    1.9819    0.7311 O   0  0  0  0  0  0  0  0  0  0  0  0
    0.5522    1.7647    1.8915 N   0  0  0  0  0  0  0  0  0  0  0  0
    1.3093    1.1450    2.1332 H   0  0  0  0  0  0  0  0  0  0  0  0
    0.5577    3.1119    2.4582 C   0  0  0  0  0  0  0  0  0  0  0  0
   -0.3986    3.3098    2.9475 H   0  0  0  0  0  0  0  0  0  0  0  0
    1.3619    3.2123    3.1886 H   0  0  0  0  0  0  0  0  0  0  0  0
    0.6974    3.8450    1.6614 H   0  0  0  0  0  0  0  0  0  0  0  0
  5  6  2  0  0  0  0
  5  7  1  0  0  0  0
  2  3  1  0  0  0  0
  2  4  1  0  0  0  0
  2  5  1  0  0  0  0
  1  2  1  0  0  0  0
 24 25  2  0  0  0  0
 24 26  1  0  0  0  0
 20 21  1  0  0  0  0
 20 22  1  0  0  0  0
 20 23  1  0  0  0  0
 17 18  1  0  0  0  0
 17 19  1  0  0  0  0
 17 20  1  0  0  0  0
 13 14  1  0  0  0  0
 13 15  1  0  0  0  0
 13 16  1  0  0  0  0
 11 12  1  0  0  0  0
 11 13  1  0  0  0  0
 11 17  1  0  0  0  0
  9 10  1  0  0  0  0
  9 11  1  0  0  0  0
  9 24  1  0  0  0  0
  7  8  1  0  0  0  0
  7  9  1  0  0  0  0
 28 29  1  0  0  0  0
 28 30  1  0  0  0  0
 28 31  1  0  0  0  0
 26 27  1  0  0  0  0
 26 28  1  0  0  0  0
M  END
$$$$
default_name
  -OEChem-02102213163D

 31 30  0     1  0  0  0  0  0999 V2000
   -3.0760   -3.6390    1.5496 H   0  0  0  0  0  0  0  0  0  0  0  0
   -3.0940   -2.6290    1.1426 C   0  0  0  0  0  0  0  0  0  0  0  0
   -3.7160   -1.9930    1.7706 H   0  0  0  0  0  0  0  0  0  0  0  0
   -3.4880   -2.6500    0.1286 H   0  0  0  0  0  0  0  0  0  0  0  0
   -1.6860   -2.0850    1.1196 C   0  0  0  0  0  0  0  0  0  0  0  0
   -0.7540   -2.7700    1.5226 O   0  0  0  0  0  0  0  0  0  0  0  0
   -1.5320   -0.8490    0.6496 N   0  0  0  0  0  0  0  0  0  0  0  0
   -2.3500   -0.3360    0.3566 H   0  0  0  0  0  0  0  0  0  0  0  0
   -0.2470   -0.1410    0.5576 C   0  0  1  0  0  0  0  0  0  0  0  0
    0.4572   -0.6505    1.2162 H   0  0  0  0  0  0  0  0  0  0  0  0
    0.3091   -0.2220   -0.8868 C   0  0  1  0  0  0  0  0  0  0  0  0
    0.2420   -1.2659   -1.1992 H   0  0  0  0  0  0  0  0  0  0  0  0
   -0.5131    0.6189   -1.8820 C   0  0  0  0  0  0  0  0  0  0  0  0
   -0.4168    1.6826   -1.6572 H   0  0  0  0  0  0  0  0  0  0  0  0
   -0.1736    0.4384   -2.9007 H   0  0  0  0  0  0  0  0  0  0  0  0
   -1.5667    0.3421   -1.8284 H   0  0  0  0  0  0  0  0  0  0  0  0
    1.8016    0.1761   -0.9291 C   0  0  0  0  0  0  0  0  0  0  0  0
    2.0881    0.6464    0.0125 H   0  0  0  0  0  0  0  0  0  0  0  0
    2.4013   -0.7249   -1.0578 H   0  0  0  0  0  0  0  0  0  0  0  0
    2.1540    1.1287   -2.0795 C   0  0  0  0  0  0  0  0  0  0  0  0
    1.6619    2.0915   -1.9431 H   0  0  0  0  0  0  0  0  0  0  0  0
    3.2322    1.2898   -2.0954 H   0  0  0  0  0  0  0  0  0  0  0  0
    1.8468    0.6940   -3.0313 H   0  0  0  0  0  0  0  0  0  0  0  0
   -0.3971    1.3008    1.0689 C   0  0  0  0  0  0  0  0  0  0  0  0
   -1.3643    1.9819    0.7311 O   0  0  0  0  0  0  0  0  0  0  0  0
    0.5522    1.7647    1.8915 N   0  0  0  0  0  0  0  0  0  0  0  0
    1.3093    1.1450    2.1332 H   0  0  0  0  0  0  0  0  0  0  0  0
    0.5577    3.1119    2.4582 C   0  0  0  0  0  0  0  0  0  0  0  0
   -0.3986    3.3098    2.9475 H   0  0  0  0  0  0  0  0  0  0  0  0
    1.3619    3.2123    3.1886 H   0  0  0  0  0  0  0  0  0  0  0  0
    0.6974    3.8450    1.6614 H   0  0  0  0  0  0  0  0  0  0  0  0
  5  6  2  0  0  0  0
  5  7  1  0  0  0  0
  2  3  1  0  0  0  0
  2  4  1  0  0  0  0
  2  5  1  0  0  0  0
  1  2  1  0  0  0  0
 24 25  2  0  0  0  0
 24 26  1  0  0  0  0
 20 21  1  0  0  0  0
 20 22  1  0  0  0  0
 20 23  1  0  0  0  0
 17 18  1  0  0  0  0
 17 19  1  0  0  0  0
 17 20  1  0  0  0  0
 13 14  1  0  0  0  0
 13 15  1  0  0  0  0
 13 16  1  0  0  0  0
 11 12  1  0  0  0  0
 11 13  1  0  0  0  0
 11 17  1  0  0  0  0
  9 10  1  0  0  0  0
  9 11  1  0  0  0  0
  9 24  1  0  0  0  0
  7  8  1  0  0  0  0
  7  9  1  0  0  0  0
 28 29  1  0  0  0  0
 28 30  1  0  0  0  0
 28 31  1  0  0  0  0
 26 27  1  0  0  0  0
 26 28  1  0  0  0  0
M  END
$$$$
default_name
  -OEChem-02102213163D

 31 30  0     1  0  0  0  0  0999 V2000
   -3.0760   -3.6390    1.5496 H   0  0  0  0  0  0  0  0  0  0  0  0
   -3.0940   -2.6290    1.1426 C   0  0  0  0  0  0  0  0  0  0  0  0
   -3.7160   -1.9930    1.7706 H   0  0  0  0  0  0  0  0  0  0  0  0
   -3.4880   -2.6500    0.1286 H   0  0  0  0  0  0  0  0  0  0  0  0
   -1.6860   -2.0850    1.1196 C   0  0  0  0  0  0  0  0  0  0  0  0
   -0.7540   -2.7700    1.5226 O   0  0  0  0  0  0  0  0  0  0  0  0
   -1.5320   -0.8490    0.6496 N   0  0  0  0  0  0  0  0  0  0  0  0
   -2.3500   -0.3360    0.3566 H   0  0  0  0  0  0  0  0  0  0  0  0
   -0.2470   -0.1410    0.5576 C   0  0  1  0  0  0  0  0  0  0  0  0
    0.4572   -0.6505    1.2162 H   0  0  0  0  0  0  0  0  0  0  0  0
    0.3091   -0.2220   -0.8868 C   0  0  1  0  0  0  0  0  0  0  0  0
    0.2420   -1.2659   -1.1992 H   0  0  0  0  0  0  0  0  0  0  0  0
   -0.5131    0.6189   -1.8820 C   0  0  0  0  0  0  0  0  0  0  0  0
   -0.4168    1.6826   -1.6572 H   0  0  0  0  0  0  0  0  0  0  0  0
   -0.1736    0.4384   -2.9007 H   0  0  0  0  0  0  0  0  0  0  0  0
   -1.5667    0.3421   -1.8284 H   0  0  0  0  0  0  0  0  0  0  0  0
    1.8016    0.1761   -0.9291 C   0  0  0  0  0  0  0  0  0  0  0  0
    2.1567    0.3962    0.0785 H   0  0  0  0  0  0  0  0  0  0  0  0
    2.3774   -0.6632   -1.3189 H   0  0  0  0  0  0  0  0  0  0  0  0
    2.0924    1.3868   -1.8263 C   0  0  0  0  0  0  0  0  0  0  0  0
    1.6253    2.2841   -1.4207 H   0  0  0  0  0  0  0  0  0  0  0  0
    3.1695    1.5482   -1.8742 H   0  0  0  0  0  0  0  0  0  0  0  0
    1.7165    1.2036   -2.8335 H   0  0  0  0  0  0  0  0  0  0  0  0
   -0.3971    1.3008    1.0689 C   0  0  0  0  0  0  0  0  0  0  0  0
   -1.3643    1.9819    0.7311 O   0  0  0  0  0  0  0  0  0  0  0  0
    0.5522    1.7647    1.8915 N   0  0  0  0  0  0  0  0  0  0  0  0
    1.3093    1.1450    2.1332 H   0  0  0  0  0  0  0  0  0  0  0  0
    0.5577    3.1119    2.4582 C   0  0  0  0  0  0  0  0  0  0  0  0
   -0.3986    3.3098    2.9475 H   0  0  0  0  0  0  0  0  0  0  0  0
    1.3619    3.2123    3.1886 H   0  0  0  0  0  0  0  0  0  0  0  0
    0.6974    3.8450    1.6614 H   0  0  0  0  0  0  0  0  0  0  0  0
  5  6  2  0  0  0  0
  5  7  1  0  0  0  0
  2  3  1  0  0  0  0
  2  4  1  0  0  0  0
  2  5  1  0  0  0  0
  1  2  1  0  0  0  0
 24 25  2  0  0  0  0
 24 26  1  0  0  0  0
 20 21  1  0  0  0  0
 20 22  1  0  0  0  0
 20 23  1  0  0  0  0
 17 18  1  0  0  0  0
 17 19  1  0  0  0  0
 17 20  1  0  0  0  0
 13 14  1  0  0  0  0
 13 15  1  0  0  0  0
 13 16  1  0  0  0  0
 11 12  1  0  0  0  0
 11 13  1  0  0  0  0
 11 17  1  0  0  0  0
  9 10  1  0  0  0  0
  9 11  1  0  0  0  0
  9 24  1  0  0  0  0
  7  8  1  0  0  0  0
  7  9  1  0  0  0  0
 28 29  1  0  0  0  0
 28 30  1  0  0  0  0
 28 31  1  0  0  0  0
 26 27  1  0  0  0  0
 26 28  1  0  0  0  0
M  END
$$$$
default_name
  -OEChem-02102213163D

 31 30  0     1  0  0  0  0  0999 V2000
   -3.0760   -3.6390    1.5496 H   0  0  0  0  0  0  0  0  0  0  0  0
   -3.0940   -2.6290    1.1426 C   0  0  0  0  0  0  0  0  0  0  0  0
   -3.7160   -1.9930    1.7706 H   0  0  0  0  0  0  0  0  0  0  0  0
   -3.4880   -2.6500    0.1286 H   0  0  0  0  0  0  0  0  0  0  0  0
   -1.6860   -2.0850    1.1196 C   0  0  0  0  0  0  0  0  0  0  0  0
   -0.7540   -2.7700    1.5226 O   0  0  0  0  0  0  0  0  0  0  0  0
   -1.5320   -0.8490    0.6496 N   0  0  0  0  0  0  0  0  0  0  0  0
   -2.3500   -0.3360    0.3566 H   0  0  0  0  0  0  0  0  0  0  0  0
   -0.2470   -0.1410    0.5576 C   0  0  1  0  0  0  0  0  0  0  0  0
    0.4572   -0.6505    1.2162 H   0  0  0  0  0  0  0  0  0  0  0  0
    0.3091   -0.2220   -0.8868 C   0  0  1  0  0  0  0  0  0  0  0  0
    0.2420   -1.2659   -1.1992 H   0  0  0  0  0  0  0  0  0  0  0  0
   -0.5131    0.6189   -1.8820 C   0  0  0  0  0  0  0  0  0  0  0  0
   -0.4168    1.6826   -1.6572 H   0  0  0  0  0  0  0  0  0  0  0  0
   -0.1736    0.4384   -2.9007 H   0  0  0  0  0  0  0  0  0  0  0  0
   -1.5667    0.3421   -1.8284 H   0  0  0  0  0  0  0  0  0  0  0  0
    1.8016    0.1761   -0.9291 C   0  0  0  0  0  0  0  0  0  0  0  0
    2.2256    0.1376    0.0752 H   0  0  0  0  0  0  0  0  0  0  0  0
    2.3374   -0.5381   -1.5542 H   0  0  0  0  0  0  0  0  0  0  0  0
    2.0515    1.5732   -1.5130 C   0  0  0  0  0  0  0  0  0  0  0  0
    1.6261    2.3398   -0.8656 H   0  0  0  0  0  0  0  0  0  0  0  0
    3.1256    1.7430   -1.5918 H   0  0  0  0  0  0  0  0  0  0  0  0
    1.6074    1.6473   -2.5062 H   0  0  0  0  0  0  0  0  0  0  0  0
   -0.3971    1.3008    1.0689 C   0  0  0  0  0  0  0  0  0  0  0  0
   -1.3643    1.9819    0.7311 O   0  0  0  0  0  0  0  0  0  0  0  0
    0.5522    1.7647    1.8915 N   0  0  0  0  0  0  0  0  0  0  0  0
    1.3093    1.1450    2.1332 H   0  0  0  0  0  0  0  0  0  0  0  0
    0.5577    3.1119    2.4582 C   0  0  0  0  0  0  0  0  0  0  0  0
   -0.3986    3.3098    2.9475 H   0  0  0  0  0  0  0  0  0  0  0  0
    1.3619    3.2123    3.1886 H   0  0  0  0  0  0  0  0  0  0  0  0
    0.6974    3.8450    1.6614 H   0  0  0  0  0  0  0  0  0  0  0  0
  5  6  2  0  0  0  0
  5  7  1  0  0  0  0
  2  3  1  0  0  0  0
  2  4  1  0  0  0  0
  2  5  1  0  0  0  0
  1  2  1  0  0  0  0
 24 25  2  0  0  0  0
 24 26  1  0  0  0  0
 20 21  1  0  0  0  0
 20 22  1  0  0  0  0
 20 23  1  0  0  0  0
 17 18  1  0  0  0  0
 17 19  1  0  0  0  0
 17 20  1  0  0  0  0
 13 14  1  0  0  0  0
 13 15  1  0  0  0  0
 13 16  1  0  0  0  0
 11 12  1  0  0  0  0
 11 13  1  0  0  0  0
 11 17  1  0  0  0  0
  9 10  1  0  0  0  0
  9 11  1  0  0  0  0
  9 24  1  0  0  0  0
  7  8  1  0  0  0  0
  7  9  1  0  0  0  0
 28 29  1  0  0  0  0
 28 30  1  0  0  0  0
 28 31  1  0  0  0  0
 26 27  1  0  0  0  0
 26 28  1  0  0  0  0
M  END
$$$$
default_name
  -OEChem-02102213163D

 31 30  0     1  0  0  0  0  0999 V2000
   -3.0760   -3.6390    1.5496 H   0  0  0  0  0  0  0  0  0  0  0  0
   -3.0940   -2.6290    1.1426 C   0  0  0  0  0  0  0  0  0  0  0  0
   -3.7160   -1.9930    1.7706 H   0  0  0  0  0  0  0  0  0  0  0  0
   -3.4880   -2.6500    0.1286 H   0  0  0  0  0  0  0  0  0  0  0  0
   -1.6860   -2.0850    1.1196 C   0  0  0  0  0  0  0  0  0  0  0  0
   -0.7540   -2.7700    1.5226 O   0  0  0  0  0  0  0  0  0  0  0  0
   -1.5320   -0.8490    0.6496 N   0  0  0  0  0  0  0  0  0  0  0  0
   -2.3500   -0.3360    0.3566 H   0  0  0  0  0  0  0  0  0  0  0  0
   -0.2470   -0.1410    0.5576 C   0  0  1  0  0  0  0  0  0  0  0  0
    0.4572   -0.6505    1.2162 H   0  0  0  0  0  0  0  0  0  0  0  0
    0.3091   -0.2220   -0.8868 C   0  0  1  0  0  0  0  0  0  0  0  0
    0.2420   -1.2659   -1.1992 H   0  0  0  0  0  0  0  0  0  0  0  0
   -0.5131    0.6189   -1.8820 C   0  0  0  0  0  0  0  0  0  0  0  0
   -0.4168    1.6826   -1.6572 H   0  0  0  0  0  0  0  0  0  0  0  0
   -0.1736    0.4384   -2.9007 H   0  0  0  0  0  0  0  0  0  0  0  0
   -1.5667    0.3421   -1.8284 H   0  0  0  0  0  0  0  0  0  0  0  0
    1.8016    0.1761   -0.9291 C   0  0  0  0  0  0  0  0  0  0  0  0
    2.2901   -0.1119    0.0027 H   0  0  0  0  0  0  0  0  0  0  0  0
    2.2840   -0.3582   -1.7475 H   0  0  0  0  0  0  0  0  0  0  0  0
    2.0343    1.6752   -1.1611 C   0  0  0  0  0  0  0  0  0  0  0  0
    1.6644    2.2549   -0.3156 H   0  0  0  0  0  0  0  0  0  0  0  0
    3.1033    1.8608   -1.2674 H   0  0  0  0  0  0  0  0  0  0  0  0
    1.5270    1.9949   -2.0720 H   0  0  0  0  0  0  0  0  0  0  0  0
   -0.3971    1.3008    1.0689 C   0  0  0  0  0  0  0  0  0  0  0  0
   -1.3643    1.9819    0.7311 O   0  0  0  0  0  0  0  0  0  0  0  0
    0.5522    1.7647    1.8915 N   0  0  0  0  0  0  0  0  0  0  0  0
    1.3093    1.1450    2.1332 H   0  0  0  0  0  0  0  0  0  0  0  0
    0.5577    3.1119    2.4582 C   0  0  0  0  0  0  0  0  0  0  0  0
   -0.3986    3.3098    2.9475 H   0  0  0  0  0  0  0  0  0  0  0  0
    1.3619    3.2123    3.1886 H   0  0  0  0  0  0  0  0  0  0  0  0
    0.6974    3.8450    1.6614 H   0  0  0  0  0  0  0  0  0  0  0  0
  5  6  2  0  0  0  0
  5  7  1  0  0  0  0
  2  3  1  0  0  0  0
  2  4  1  0  0  0  0
  2  5  1  0  0  0  0
  1  2  1  0  0  0  0
 24 25  2  0  0  0  0
 24 26  1  0  0  0  0
 20 21  1  0  0  0  0
 20 22  1  0  0  0  0
 20 23  1  0  0  0  0
 17 18  1  0  0  0  0
 17 19  1  0  0  0  0
 17 20  1  0  0  0  0
 13 14  1  0  0  0  0
 13 15  1  0  0  0  0
 13 16  1  0  0  0  0
 11 12  1  0  0  0  0
 11 13  1  0  0  0  0
 11 17  1  0  0  0  0
  9 10  1  0  0  0  0
  9 11  1  0  0  0  0
  9 24  1  0  0  0  0
  7  8  1  0  0  0  0
  7  9  1  0  0  0  0
 28 29  1  0  0  0  0
 28 30  1  0  0  0  0
 28 31  1  0  0  0  0
 26 27  1  0  0  0  0
 26 28  1  0  0  0  0
M  END
$$$$
default_name
  -OEChem-02102213163D

 31 30  0     1  0  0  0  0  0999 V2000
   -3.0760   -3.6390    1.5496 H   0  0  0  0  0  0  0  0  0  0  0  0
   -3.0940   -2.6290    1.1426 C   0  0  0  0  0  0  0  0  0  0  0  0
   -3.7160   -1.9930    1.7706 H   0  0  0  0  0  0  0  0  0  0  0  0
   -3.4880   -2.6500    0.1286 H   0  0  0  0  0  0  0  0  0  0  0  0
   -1.6860   -2.0850    1.1196 C   0  0  0  0  0  0  0  0  0  0  0  0
   -0.7540   -2.7700    1.5226 O   0  0  0  0  0  0  0  0  0  0  0  0
   -1.5320   -0.8490    0.6496 N   0  0  0  0  0  0  0  0  0  0  0  0
   -2.3500   -0.3360    0.3566 H   0  0  0  0  0  0  0  0  0  0  0  0
   -0.2470   -0.1410    0.5576 C   0  0  1  0  0  0  0  0  0  0  0  0
    0.4572   -0.6505    1.2162 H   0  0  0  0  0  0  0  0  0  0  0  0
    0.3091   -0.2220   -0.8868 C   0  0  1  0  0  0  0  0  0  0  0  0
    0.2420   -1.2659   -1.1992 H   0  0  0  0  0  0  0  0  0  0  0  0
   -0.5131    0.6189   -1.8820 C   0  0  0  0  0  0  0  0  0  0  0  0
   -0.4168    1.6826   -1.6572 H   0  0  0  0  0  0  0  0  0  0  0  0
   -0.1736    0.4384   -2.9007 H   0  0  0  0  0  0  0  0  0  0  0  0
   -1.5667    0.3421   -1.8284 H   0  0  0  0  0  0  0  0  0  0  0  0
    1.8016    0.1761   -0.9291 C   0  0  0  0  0  0  0  0  0  0  0  0
    2.3458   -0.3352   -0.1339 H   0  0  0  0  0  0  0  0  0  0  0  0
    2.2207   -0.1358   -1.8857 H   0  0  0  0  0  0  0  0  0  0  0  0
    2.0418    1.6859   -0.7946 C   0  0  0  0  0  0  0  0  0  0  0  0
    1.7374    2.0350    0.1920 H   0  0  0  0  0  0  0  0  0  0  0  0
    3.1043    1.8937   -0.9231 H   0  0  0  0  0  0  0  0  0  0  0  0
    1.4807    2.2226   -1.5603 H   0  0  0  0  0  0  0  0  0  0  0  0
   -0.3971    1.3008    1.0689 C   0  0  0  0  0  0  0  0  0  0  0  0
   -1.3643    1.9819    0.7311 O   0  0  0  0  0  0  0  0  0  0  0  0
    0.5522    1.7647    1.8915 N   0  0  0  0  0  0  0  0  0  0  0  0
    1.3093    1.1450    2.1332 H   0  0  0  0  0  0  0  0  0  0  0  0
    0.5577    3.1119    2.4582 C   0  0  0  0  0  0  0  0  0  0  0  0
   -0.3986    3.3098    2.9475 H   0  0  0  0  0  0  0  0  0  0  0  0
    1.3619    3.2123    3.1886 H   0  0  0  0  0  0  0  0  0  0  0  0
    0.6974    3.8450    1.6614 H   0  0  0  0  0  0  0  0  0  0  0  0
  5  6  2  0  0  0  0
  5  7  1  0  0  0  0
  2  3  1  0  0  0  0
  2  4  1  0  0  0  0
  2  5  1  0  0  0  0
  1  2  1  0  0  0  0
 24 25  2  0  0  0  0
 24 26  1  0  0  0  0
 20 21  1  0  0  0  0
 20 22  1  0  0  0  0
 20 23  1  0  0  0  0
 17 18  1  0  0  0  0
 17 19  1  0  0  0  0
 17 20  1  0  0  0  0
 13 14  1  0  0  0  0
 13 15  1  0  0  0  0
 13 16  1  0  0  0  0
 11 12  1  0  0  0  0
 11 13  1  0  0  0  0
 11 17  1  0  0  0  0
  9 10  1  0  0  0  0
  9 11  1  0  0  0  0
  9 24  1  0  0  0  0
  7  8  1  0  0  0  0
  7  9  1  0  0  0  0
 28 29  1  0  0  0  0
 28 30  1  0  0  0  0
 28 31  1  0  0  0  0
 26 27  1  0  0  0  0
 26 28  1  0  0  0  0
M  END
$$$$
default_name
  -OEChem-02102213163D

 31 30  0     1  0  0  0  0  0999 V2000
   -3.0760   -3.6390    1.5496 H   0  0  0  0  0  0  0  0  0  0  0  0
   -3.0940   -2.6290    1.1426 C   0  0  0  0  0  0  0  0  0  0  0  0
   -3.7160   -1.9930    1.7706 H   0  0  0  0  0  0  0  0  0  0  0  0
   -3.4880   -2.6500    0.1286 H   0  0  0  0  0  0  0  0  0  0  0  0
   -1.6860   -2.0850    1.1196 C   0  0  0  0  0  0  0  0  0  0  0  0
   -0.7540   -2.7700    1.5226 O   0  0  0  0  0  0  0  0  0  0  0  0
   -1.5320   -0.8490    0.6496 N   0  0  0  0  0  0  0  0  0  0  0  0
   -2.3500   -0.3360    0.3566 H   0  0  0  0  0  0  0  0  0  0  0  0
   -0.2470   -0.1410    0.5576 C   0  0  1  0  0  0  0  0  0  0  0  0
    0.4572   -0.6505    1.2162 H   0  0  0  0  0  0  0  0  0  0  0  0
    0.3091   -0.2220   -0.8868 C   0  0  1  0  0  0  0  0  0  0  0  0
    0.2420   -1.2659   -1.1992 H   0  0  0  0  0  0  0  0  0  0  0  0
   -0.5131    0.6189   -1.8820 C   0  0  0  0  0  0  0  0  0  0  0  0
   -0.4168    1.6826   -1.6572 H   0  0  0  0  0  0  0  0  0  0  0  0
   -0.1736    0.4384   -2.9007 H   0  0  0  0  0  0  0  0  0  0  0  0
   -1.5667    0.3421   -1.8284 H   0  0  0  0  0  0  0  0  0  0  0  0
    1.8016    0.1761   -0.9291 C   0  0  0  0  0  0  0  0  0  0  0  0
    2.3889   -0.5171   -0.3255 H   0  0  0  0  0  0  0  0  0  0  0  0
    2.1520    0.1141   -1.9593 H   0  0  0  0  0  0  0  0  0  0  0  0
    2.0736    1.6045   -0.4383 C   0  0  0  0  0  0  0  0  0  0  0  0
    1.8402    1.6953    0.6224 H   0  0  0  0  0  0  0  0  0  0  0  0
    3.1284    1.8394   -0.5824 H   0  0  0  0  0  0  0  0  0  0  0  0
    1.4717    2.3150   -1.0060 H   0  0  0  0  0  0  0  0  0  0  0  0
   -0.3971    1.3008    1.0689 C   0  0  0  0  0  0  0  0  0  0  0  0
   -1.3643    1.9819    0.7311 O   0  0  0  0  0  0  0  0  0  0  0  0
    0.5522    1.7647    1.8915 N   0  0  0  0  0  0  0  0  0  0  0  0
    1.3093    1.1450    2.1332 H   0  0  0  0  0  0  0  0  0  0  0  0
    0.5577    3.1119    2.4582 C   0  0  0  0  0  0  0  0  0  0  0  0
   -0.3986    3.3098    2.9475 H   0  0  0  0  0  0  0  0  0  0  0  0
    1.3619    3.2123    3.1886 H   0  0  0  0  0  0  0  0  0  0  0  0
    0.6974    3.8450    1.6614 H   0  0  0  0  0  0  0  0  0  0  0  0
  5  6  2  0  0  0  0
  5  7  1  0  0  0  0
  2  3  1  0  0  0  0
  2  4  1  0  0  0  0
  2  5  1  0  0  0  0
  1  2  1  0  0  0  0
 24 25  2  0  0  0  0
 24 26  1  0  0  0  0
 20 21  1  0  0  0  0
 20 22  1  0  0  0  0
 20 23  1  0  0  0  0
 17 18  1  0  0  0  0
 17 19  1  0  0  0  0
 17 20  1  0  0  0  0
 13 14  1  0  0  0  0
 13 15  1  0  0  0  0
 13 16  1  0  0  0  0
 11 12  1  0  0  0  0
 11 13  1  0  0  0  0
 11 17  1  0  0  0  0
  9 10  1  0  0  0  0
  9 11  1  0  0  0  0
  9 24  1  0  0  0  0
  7  8  1  0  0  0  0
  7  9  1  0  0  0  0
 28 29  1  0  0  0  0
 28 30  1  0  0  0  0
 28 31  1  0  0  0  0
 26 27  1  0  0  0  0
 26 28  1  0  0  0  0
M  END
$$$$
default_name
  -OEChem-02102213163D

 31 30  0     1  0  0  0  0  0999 V2000
   -3.0760   -3.6390    1.5496 H   0  0  0  0  0  0  0  0  0  0  0  0
   -3.0940   -2.6290    1.1426 C   0  0  0  0  0  0  0  0  0  0  0  0
   -3.7160   -1.9930    1.7706 H   0  0  0  0  0  0  0  0  0  0  0  0
   -3.4880   -2.6500    0.1286 H   0  0  0  0  0  0  0  0  0  0  0  0
   -1.6860   -2.0850    1.1196 C   0  0  0  0  0  0  0  0  0  0  0  0
   -0.7540   -2.7700    1.5226 O   0  0  0  0  0  0  0  0  0  0  0  0
   -1.5320   -0.8490    0.6496 N   0  0  0  0  0  0  0  0  0  0  0  0
   -2.3500   -0.3360    0.3566 H   0  0  0  0  0  0  0  0  0  0  0  0
   -0.2470   -0.1410    0.5576 C   0  0  1  0  0  0  0  0  0  0  0  0
    0.4572   -0.6505    1.2162 H   0  0  0  0  0  0  0  0  0  0  0  0
    0.3091   -0.2220   -0.8868 C   0  0  1  0  0  0  0  0  0  0  0  0
    0.2420   -1.2659   -1.1992 H   0  0  0  0  0  0  0  0  0  0  0  0
   -0.5131    0.6189   -1.8820 C   0  0  0  0  0  0  0  0  0  0  0  0
   -0.4168    1.6826   -1.6572 H   0  0  0  0  0  0  0  0  0  0  0  0
   -0.1736    0.4384   -2.9007 H   0  0  0  0  0  0  0  0  0  0  0  0
   -1.5667    0.3421   -1.8284 H   0  0  0  0  0  0  0  0  0  0  0  0
    1.8016    0.1761   -0.9291 C   0  0  0  0  0  0  0  0  0  0  0  0
    2.4165   -0.6453   -0.5588 H   0  0  0  0  0  0  0  0  0  0  0  0
    2.0824    0.3743   -1.9634 H   0  0  0  0  0  0  0  0  0  0  0  0
    2.1275    1.4367   -0.1167 C   0  0  0  0  0  0  0  0  0  0  0  0
    1.9658    1.2588    0.9463 H   0  0  0  0  0  0  0  0  0  0  0  0
    3.1741    1.7016   -0.2685 H   0  0  0  0  0  0  0  0  0  0  0  0
    1.5007    2.2658   -0.4469 H   0  0  0  0  0  0  0  0  0  0  0  0
   -0.3971    1.3008    1.0689 C   0  0  0  0  0  0  0  0  0  0  0  0
   -1.3643    1.9819    0.7311 O   0  0  0  0  0  0  0  0  0  0  0  0
    0.5522    1.7647    1.8915 N   0  0  0  0  0  0  0  0  0  0  0  0
    1.3093    1.1450    2.1332 H   0  0  0  0  0  0  0  0  0  0  0  0
    0.5577    3.1119    2.4582 C   0  0  0  0  0  0  0  0  0  0  0  0
   -0.3986    3.3098    2.9475 H   0  0  0  0  0  0  0  0  0  0  0  0
    1.3619    3.2123    3.1886 H   0  0  0  0  0  0  0  0  0  0  0  0
    0.6974    3.8450    1.6614 H   0  0  0  0  0  0  0  0  0  0  0  0
  5  6  2  0  0  0  0
  5  7  1  0  0  0  0
  2  3  1  0  0  0  0
  2  4  1  0  0  0  0
  2  5  1  0  0  0  0
  1  2  1  0  0  0  0
 24 25  2  0  0  0  0
 24 26  1  0  0  0  0
 20 21  1  0  0  0  0
 20 22  1  0  0  0  0
 20 23  1  0  0  0  0
 17 18  1  0  0  0  0
 17 19  1  0  0  0  0
 17 20  1  0  0  0  0
 13 14  1  0  0  0  0
 13 15  1  0  0  0  0
 13 16  1  0  0  0  0
 11 12  1  0  0  0  0
 11 13  1  0  0  0  0
 11 17  1  0  0  0  0
  9 10  1  0  0  0  0
  9 11  1  0  0  0  0
  9 24  1  0  0  0  0
  7  8  1  0  0  0  0
  7  9  1  0  0  0  0
 28 29  1  0  0  0  0
 28 30  1  0  0  0  0
 28 31  1  0  0  0  0
 26 27  1  0  0  0  0
 26 28  1  0  0  0  0
M  END
$$$$
default_name
  -OEChem-02102213163D

 31 30  0     1  0  0  0  0  0999 V2000
   -3.0760   -3.6390    1.5496 H   0  0  0  0  0  0  0  0  0  0  0  0
   -3.0940   -2.6290    1.1426 C   0  0  0  0  0  0  0  0  0  0  0  0
   -3.7160   -1.9930    1.7706 H   0  0  0  0  0  0  0  0  0  0  0  0
   -3.4880   -2.6500    0.1286 H   0  0  0  0  0  0  0  0  0  0  0  0
   -1.6860   -2.0850    1.1196 C   0  0  0  0  0  0  0  0  0  0  0  0
   -0.7540   -2.7700    1.5226 O   0  0  0  0  0  0  0  0  0  0  0  0
   -1.5320   -0.8490    0.6496 N   0  0  0  0  0  0  0  0  0  0  0  0
   -2.3500   -0.3360    0.3566 H   0  0  0  0  0  0  0  0  0  0  0  0
   -0.2470   -0.1410    0.5576 C   0  0  1  0  0  0  0  0  0  0  0  0
    0.4572   -0.6505    1.2162 H   0  0  0  0  0  0  0  0  0  0  0  0
    0.3091   -0.2220   -0.8868 C   0  0  1  0  0  0  0  0  0  0  0  0
    0.2420   -1.2659   -1.1992 H   0  0  0  0  0  0  0  0  0  0  0  0
   -0.5131    0.6189   -1.8820 C   0  0  0  0  0  0  0  0  0  0  0  0
   -0.4168    1.6826   -1.6572 H   0  0  0  0  0  0  0  0  0  0  0  0
   -0.1736    0.4384   -2.9007 H   0  0  0  0  0  0  0  0  0  0  0  0
   -1.5667    0.3421   -1.8284 H   0  0  0  0  0  0  0  0  0  0  0  0
    1.8016    0.1761   -0.9291 C   0  0  0  0  0  0  0  0  0  0  0  0
    2.4266   -0.7109   -0.8181 H   0  0  0  0  0  0  0  0  0  0  0  0
    2.0168    0.6272   -1.8977 H   0  0  0  0  0  0  0  0  0  0  0  0
    2.1998    1.1937    0.1485 C   0  0  0  0  0  0  0  0  0  0  0  0
    2.1056    0.7553    1.1418 H   0  0  0  0  0  0  0  0  0  0  0  0
    3.2381    1.4897   -0.0028 H   0  0  0  0  0  0  0  0  0  0  0  0
    1.5656    2.0782    0.0788 H   0  0  0  0  0  0  0  0  0  0  0  0
   -0.3971    1.3008    1.0689 C   0  0  0  0  0  0  0  0  0  0  0  0
   -1.3643    1.9819    0.7311 O   0  0  0  0  0  0  0  0  0  0  0  0
    0.5522    1.7647    1.8915 N   0  0  0  0  0  0  0  0  0  0  0  0
    1.3093    1.1450    2.1332 H   0  0  0  0  0  0  0  0  0  0  0  0
    0.5577    3.1119    2.4582 C   0  0  0  0  0  0  0  0  0  0  0  0
   -0.3986    3.3098    2.9475 H   0  0  0  0  0  0  0  0  0  0  0  0
    1.3619    3.2123    3.1886 H   0  0  0  0  0  0  0  0  0  0  0  0
    0.6974    3.8450    1.6614 H   0  0  0  0  0  0  0  0  0  0  0  0
  5  6  2  0  0  0  0
  5  7  1  0  0  0  0
  2  3  1  0  0  0  0
  2  4  1  0  0  0  0
  2  5  1  0  0  0  0
  1  2  1  0  0  0  0
 24 25  2  0  0  0  0
 24 26  1  0  0  0  0
 20 21  1  0  0  0  0
 20 22  1  0  0  0  0
 20 23  1  0  0  0  0
 17 18  1  0  0  0  0
 17 19  1  0  0  0  0
 17 20  1  0  0  0  0
 13 14  1  0  0  0  0
 13 15  1  0  0  0  0
 13 16  1  0  0  0  0
 11 12  1  0  0  0  0
 11 13  1  0  0  0  0
 11 17  1  0  0  0  0
  9 10  1  0  0  0  0
  9 11  1  0  0  0  0
  9 24  1  0  0  0  0
  7  8  1  0  0  0  0
  7  9  1  0  0  0  0
 28 29  1  0  0  0  0
 28 30  1  0  0  0  0
 28 31  1  0  0  0  0
 26 27  1  0  0  0  0
 26 28  1  0  0  0  0
M  END
$$$$
default_name
  -OEChem-02102213163D

 31 30  0     1  0  0  0  0  0999 V2000
   -3.0760   -3.6390    1.5496 H   0  0  0  0  0  0  0  0  0  0  0  0
   -3.0940   -2.6290    1.1426 C   0  0  0  0  0  0  0  0  0  0  0  0
   -3.7160   -1.9930    1.7706 H   0  0  0  0  0  0  0  0  0  0  0  0
   -3.4880   -2.6500    0.1286 H   0  0  0  0  0  0  0  0  0  0  0  0
   -1.6860   -2.0850    1.1196 C   0  0  0  0  0  0  0  0  0  0  0  0
   -0.7540   -2.7700    1.5226 O   0  0  0  0  0  0  0  0  0  0  0  0
   -1.5320   -0.8490    0.6496 N   0  0  0  0  0  0  0  0  0  0  0  0
   -2.3500   -0.3360    0.3566 H   0  0  0  0  0  0  0  0  0  0  0  0
   -0.2470   -0.1410    0.5576 C   0  0  1  0  0  0  0  0  0  0  0  0
    0.4572   -0.6505    1.2162 H   0  0  0  0  0  0  0  0  0  0  0  0
    0.3091   -0.2220   -0.8868 C   0  0  1  0  0  0  0  0  0  0  0  0
    0.2420   -1.2659   -1.1992 H   0  0  0  0  0  0  0  0  0  0  0  0
   -0.5131    0.6189   -1.8820 C   0  0  0  0  0  0  0  0  0  0  0  0
   -0.4168    1.6826   -1.6572 H   0  0  0  0  0  0  0  0  0  0  0  0
   -0.1736    0.4384   -2.9007 H   0  0  0  0  0  0  0  0  0  0  0  0
   -1.5667    0.3421   -1.8284 H   0  0  0  0  0  0  0  0  0  0  0  0
    1.8016    0.1761   -0.9291 C   0  0  0  0  0  0  0  0  0  0  0  0
    2.4187   -0.7096   -1.0857 H   0  0  0  0  0  0  0  0  0  0  0  0
    1.9597    0.8555   -1.7666 H   0  0  0  0  0  0  0  0  0  0  0  0
    2.2856    0.8923    0.3390 C   0  0  0  0  0  0  0  0  0  0  0  0
    2.2502    0.2191    1.1954 H   0  0  0  0  0  0  0  0  0  0  0  0
    3.3162    1.2181    0.1966 H   0  0  0  0  0  0  0  0  0  0  0  0
    1.6621    1.7652    0.5355 H   0  0  0  0  0  0  0  0  0  0  0  0
   -0.3971    1.3008    1.0689 C   0  0  0  0  0  0  0  0  0  0  0  0
   -1.3643    1.9819    0.7311 O   0  0  0  0  0  0  0  0  0  0  0  0
    0.5522    1.7647    1.8915 N   0  0  0  0  0  0  0  0  0  0  0  0
    1.3093    1.1450    2.1332 H   0  0  0  0  0  0  0  0  0  0  0  0
    0.5577    3.1119    2.4582 C   0  0  0  0  0  0  0  0  0  0  0  0
   -0.3986    3.3098    2.9475 H   0  0  0  0  0  0  0  0  0  0  0  0
    1.3619    3.2123    3.1886 H   0  0  0  0  0  0  0  0  0  0  0  0
    0.6974    3.8450    1.6614 H   0  0  0  0  0  0  0  0  0  0  0  0
  5  6  2  0  0  0  0
  5  7  1  0  0  0  0
  2  3  1  0  0  0  0
  2  4  1  0  0  0  0
  2  5  1  0  0  0  0
  1  2  1  0  0  0  0
 24 25  2  0  0  0  0
 24 26  1  0  0  0  0
 20 21  1  0  0  0  0
 20 22  1  0  0  0  0
 20 23  1  0  0  0  0
 17 18  1  0  0  0  0
 17 19  1  0  0  0  0
 17 20  1  0  0  0  0
 13 14  1  0  0  0  0
 13 15  1  0  0  0  0
 13 16  1  0  0  0  0
 11 12  1  0  0  0  0
 11 13  1  0  0  0  0
 11 17  1  0  0  0  0
  9 10  1  0  0  0  0
  9 11  1  0  0  0  0
  9 24  1  0  0  0  0
  7  8  1  0  0  0  0
  7  9  1  0  0  0  0
 28 29  1  0  0  0  0
 28 30  1  0  0  0  0
 28 31  1  0  0  0  0
 26 27  1  0  0  0  0
 26 28  1  0  0  0  0
M  END
$$$$
default_name
  -OEChem-02102213163D

 31 30  0     1  0  0  0  0  0999 V2000
   -3.0760   -3.6390    1.5496 H   0  0  0  0  0  0  0  0  0  0  0  0
   -3.0940   -2.6290    1.1426 C   0  0  0  0  0  0  0  0  0  0  0  0
   -3.7160   -1.9930    1.7706 H   0  0  0  0  0  0  0  0  0  0  0  0
   -3.4880   -2.6500    0.1286 H   0  0  0  0  0  0  0  0  0  0  0  0
   -1.6860   -2.0850    1.1196 C   0  0  0  0  0  0  0  0  0  0  0  0
   -0.7540   -2.7700    1.5226 O   0  0  0  0  0  0  0  0  0  0  0  0
   -1.5320   -0.8490    0.6496 N   0  0  0  0  0  0  0  0  0  0  0  0
   -2.3500   -0.3360    0.3566 H   0  0  0  0  0  0  0  0  0  0  0  0
   -0.2470   -0.1410    0.5576 C   0  0  1  0  0  0  0  0  0  0  0  0
    0.4572   -0.6505    1.2162 H   0  0  0  0  0  0  0  0  0  0  0  0
    0.3091   -0.2220   -0.8868 C   0  0  1  0  0  0  0  0  0  0  0  0
    0.2420   -1.2659   -1.1992 H   0  0  0  0  0  0  0  0  0  0  0  0
   -0.5131    0.6189   -1.8820 C   0  0  0  0  0  0  0  0  0  0  0  0
   -0.4168    1.6826   -1.6572 H   0  0  0  0  0  0  0  0  0  0  0  0
   -0.1736    0.4384   -2.9007 H   0  0  0  0  0  0  0  0  0  0  0  0
   -1.5667    0.3421   -1.8284 H   0  0  0  0  0  0  0  0  0  0  0  0
    1.8016    0.1761   -0.9291 C   0  0  0  0  0  0  0  0  0  0  0  0
    2.3932   -0.6414   -1.3433 H   0  0  0  0  0  0  0  0  0  0  0  0
    1.9148    1.0437   -1.5791 H   0  0  0  0  0  0  0  0  0  0  0  0
    2.3790    0.5529    0.4420 C   0  0  0  0  0  0  0  0  0  0  0  0
    2.3896   -0.3132    1.1035 H   0  0  0  0  0  0  0  0  0  0  0  0
    3.4030    0.9054    0.3162 H   0  0  0  0  0  0  0  0  0  0  0  0
    1.7834    1.3479    0.8919 H   0  0  0  0  0  0  0  0  0  0  0  0
   -0.3971    1.3008    1.0689 C   0  0  0  0  0  0  0  0  0  0  0  0
   -1.3643    1.9819    0.7311 O   0  0  0  0  0  0  0  0  0  0  0  0
    0.5522    1.7647    1.8915 N   0  0  0  0  0  0  0  0  0  0  0  0
    1.3093    1.1450    2.1332 H   0  0  0  0  0  0  0  0  0  0  0  0
    0.5577    3.1119    2.4582 C   0  0  0  0  0  0  0  0  0  0  0  0
   -0.3986    3.3098    2.9475 H   0  0  0  0  0  0  0  0  0  0  0  0
    1.3619    3.2123    3.1886 H   0  0  0  0  0  0  0  0  0  0  0  0
    0.6974    3.8450    1.6614 H   0  0  0  0  0  0  0  0  0  0  0  0
  5  6  2  0  0  0  0
  5  7  1  0  0  0  0
  2  3  1  0  0  0  0
  2  4  1  0  0  0  0
  2  5  1  0  0  0  0
  1  2  1  0  0  0  0
 24 25  2  0  0  0  0
 24 26  1  0  0  0  0
 20 21  1  0  0  0  0
 20 22  1  0  0  0  0
 20 23  1  0  0  0  0
 17 18  1  0  0  0  0
 17 19  1  0  0  0  0
 17 20  1  0  0  0  0
 13 14  1  0  0  0  0
 13 15  1  0  0  0  0
 13 16  1  0  0  0  0
 11 12  1  0  0  0  0
 11 13  1  0  0  0  0
 11 17  1  0  0  0  0
  9 10  1  0  0  0  0
  9 11  1  0  0  0  0
  9 24  1  0  0  0  0
  7  8  1  0  0  0  0
  7  9  1  0  0  0  0
 28 29  1  0  0  0  0
 28 30  1  0  0  0  0
 28 31  1  0  0  0  0
 26 27  1  0  0  0  0
 26 28  1  0  0  0  0
M  END
$$$$
default_name
  -OEChem-02102213163D

 31 30  0     1  0  0  0  0  0999 V2000
   -3.0760   -3.6390    1.5496 H   0  0  0  0  0  0  0  0  0  0  0  0
   -3.0940   -2.6290    1.1426 C   0  0  0  0  0  0  0  0  0  0  0  0
   -3.7160   -1.9930    1.7706 H   0  0  0  0  0  0  0  0  0  0  0  0
   -3.4880   -2.6500    0.1286 H   0  0  0  0  0  0  0  0  0  0  0  0
   -1.6860   -2.0850    1.1196 C   0  0  0  0  0  0  0  0  0  0  0  0
   -0.7540   -2.7700    1.5226 O   0  0  0  0  0  0  0  0  0  0  0  0
   -1.5320   -0.8490    0.6496 N   0  0  0  0  0  0  0  0  0  0  0  0
   -2.3500   -0.3360    0.3566 H   0  0  0  0  0  0  0  0  0  0  0  0
   -0.2470   -0.1410    0.5576 C   0  0  1  0  0  0  0  0  0  0  0  0
    0.4572   -0.6505    1.2162 H   0  0  0  0  0  0  0  0  0  0  0  0
    0.3091   -0.2220   -0.8868 C   0  0  1  0  0  0  0  0  0  0  0  0
    0.2420   -1.2659   -1.1992 H   0  0  0  0  0  0  0  0  0  0  0  0
   -0.5131    0.6189   -1.8820 C   0  0  0  0  0  0  0  0  0  0  0  0
   -0.4168    1.6826   -1.6572 H   0  0  0  0  0  0  0  0  0  0  0  0
   -0.1736    0.4384   -2.9007 H   0  0  0  0  0  0  0  0  0  0  0  0
   -1.5667    0.3421   -1.8284 H   0  0  0  0  0  0  0  0  0  0  0  0
    1.8016    0.1761   -0.9291 C   0  0  0  0  0  0  0  0  0  0  0  0
    2.3519   -0.5109   -1.5733 H   0  0  0  0  0  0  0  0  0  0  0  0
    1.8852    1.1789   -1.3479 H   0  0  0  0  0  0  0  0  0  0  0  0
    2.4738    0.1986    0.4504 C   0  0  0  0  0  0  0  0  0  0  0  0
    2.5143   -0.8054    0.8723 H   0  0  0  0  0  0  0  0  0  0  0  0
    3.4926    0.5729    0.3477 H   0  0  0  0  0  0  0  0  0  0  0  0
    1.9215    0.8550    1.1238 H   0  0  0  0  0  0  0  0  0  0  0  0
   -0.3971    1.3008    1.0689 C   0  0  0  0  0  0  0  0  0  0  0  0
   -1.3643    1.9819    0.7311 O   0  0  0  0  0  0  0  0  0  0  0  0
    0.5522    1.7647    1.8915 N   0  0  0  0  0  0  0  0  0  0  0  0
    1.3093    1.1450    2.1332 H   0  0  0  0  0  0  0  0  0  0  0  0
    0.5577    3.1119    2.4582 C   0  0  0  0  0  0  0  0  0  0  0  0
   -0.3986    3.3098    2.9475 H   0  0  0  0  0  0  0  0  0  0  0  0
    1.3619    3.2123    3.1886 H   0  0  0  0  0  0  0  0  0  0  0  0
    0.6974    3.8450    1.6614 H   0  0  0  0  0  0  0  0  0  0  0  0
  5  6  2  0  0  0  0
  5  7  1  0  0  0  0
  2  3  1  0  0  0  0
  2  4  1  0  0  0  0
  2  5  1  0  0  0  0
  1  2  1  0  0  0  0
 24 25  2  0  0  0  0
 24 26  1  0  0  0  0
 20 21  1  0  0  0  0
 20 22  1  0  0  0  0
 20 23  1  0  0  0  0
 17 18  1  0  0  0  0
 17 19  1  0  0  0  0
 17 20  1  0  0  0  0
 13 14  1  0  0  0  0
 13 15  1  0  0  0  0
 13 16  1  0  0  0  0
 11 12  1  0  0  0  0
 11 13  1  0  0  0  0
 11 17  1  0  0  0  0
  9 10  1  0  0  0  0
  9 11  1  0  0  0  0
  9 24  1  0  0  0  0
  7  8  1  0  0  0  0
  7  9  1  0  0  0  0
 28 29  1  0  0  0  0
 28 30  1  0  0  0  0
 28 31  1  0  0  0  0
 26 27  1  0  0  0  0
 26 28  1  0  0  0  0
M  END
$$$$
default_name
  -OEChem-02102213163D

 31 30  0     1  0  0  0  0  0999 V2000
   -3.0760   -3.6390    1.5496 H   0  0  0  0  0  0  0  0  0  0  0  0
   -3.0940   -2.6290    1.1426 C   0  0  0  0  0  0  0  0  0  0  0  0
   -3.7160   -1.9930    1.7706 H   0  0  0  0  0  0  0  0  0  0  0  0
   -3.4880   -2.6500    0.1286 H   0  0  0  0  0  0  0  0  0  0  0  0
   -1.6860   -2.0850    1.1196 C   0  0  0  0  0  0  0  0  0  0  0  0
   -0.7540   -2.7700    1.5226 O   0  0  0  0  0  0  0  0  0  0  0  0
   -1.5320   -0.8490    0.6496 N   0  0  0  0  0  0  0  0  0  0  0  0
   -2.3500   -0.3360    0.3566 H   0  0  0  0  0  0  0  0  0  0  0  0
   -0.2470   -0.1410    0.5576 C   0  0  1  0  0  0  0  0  0  0  0  0
    0.4572   -0.6505    1.2162 H   0  0  0  0  0  0  0  0  0  0  0  0
    0.3091   -0.2220   -0.8868 C   0  0  1  0  0  0  0  0  0  0  0  0
    0.2420   -1.2659   -1.1992 H   0  0  0  0  0  0  0  0  0  0  0  0
   -0.5131    0.6189   -1.8820 C   0  0  0  0  0  0  0  0  0  0  0  0
   -0.4168    1.6826   -1.6572 H   0  0  0  0  0  0  0  0  0  0  0  0
   -0.1736    0.4384   -2.9007 H   0  0  0  0  0  0  0  0  0  0  0  0
   -1.5667    0.3421   -1.8284 H   0  0  0  0  0  0  0  0  0  0  0  0
    1.8016    0.1761   -0.9291 C   0  0  0  0  0  0  0  0  0  0  0  0
    2.2976   -0.3271   -1.7602 H   0  0  0  0  0  0  0  0  0  0  0  0
    1.8731    1.2519   -1.0889 H   0  0  0  0  0  0  0  0  0  0  0  0
    2.5633   -0.1463    0.3636 C   0  0  0  0  0  0  0  0  0  0  0  0
    2.6159   -1.2239    0.5177 H   0  0  0  0  0  0  0  0  0  0  0  0
    3.5789    0.2431    0.2890 H   0  0  0  0  0  0  0  0  0  0  0  0
    2.0668    0.3199    1.2153 H   0  0  0  0  0  0  0  0  0  0  0  0
   -0.3971    1.3008    1.0689 C   0  0  0  0  0  0  0  0  0  0  0  0
   -1.3643    1.9819    0.7311 O   0  0  0  0  0  0  0  0  0  0  0  0
    0.5522    1.7647    1.8915 N   0  0  0  0  0  0  0  0  0  0  0  0
    1.3093    1.1450    2.1332 H   0  0  0  0  0  0  0  0  0  0  0  0
    0.5577    3.1119    2.4582 C   0  0  0  0  0  0  0  0  0  0  0  0
   -0.3986    3.3098    2.9475 H   0  0  0  0  0  0  0  0  0  0  0  0
    1.3619    3.2123    3.1886 H   0  0  0  0  0  0  0  0  0  0  0  0
    0.6974    3.8450    1.6614 H   0  0  0  0  0  0  0  0  0  0  0  0
  5  6  2  0  0  0  0
  5  7  1  0  0  0  0
  2  3  1  0  0  0  0
  2  4  1  0  0  0  0
  2  5  1  0  0  0  0
  1  2  1  0  0  0  0
 24 25  2  0  0  0  0
 24 26  1  0  0  0  0
 20 21  1  0  0  0  0
 20 22  1  0  0  0  0
 20 23  1  0  0  0  0
 17 18  1  0  0  0  0
 17 19  1  0  0  0  0
 17 20  1  0  0  0  0
 13 14  1  0  0  0  0
 13 15  1  0  0  0  0
 13 16  1  0  0  0  0
 11 12  1  0  0  0  0
 11 13  1  0  0  0  0
 11 17  1  0  0  0  0
  9 10  1  0  0  0  0
  9 11  1  0  0  0  0
  9 24  1  0  0  0  0
  7  8  1  0  0  0  0
  7  9  1  0  0  0  0
 28 29  1  0  0  0  0
 28 30  1  0  0  0  0
 28 31  1  0  0  0  0
 26 27  1  0  0  0  0
 26 28  1  0  0  0  0
M  END
$$$$
default_name
  -OEChem-02102213163D

 31 30  0     1  0  0  0  0  0999 V2000
   -3.0760   -3.6390    1.5496 H   0  0  0  0  0  0  0  0  0  0  0  0
   -3.0940   -2.6290    1.1426 C   0  0  0  0  0  0  0  0  0  0  0  0
   -3.7160   -1.9930    1.7706 H   0  0  0  0  0  0  0  0  0  0  0  0
   -3.4880   -2.6500    0.1286 H   0  0  0  0  0  0  0  0  0  0  0  0
   -1.6860   -2.0850    1.1196 C   0  0  0  0  0  0  0  0  0  0  0  0
   -0.7540   -2.7700    1.5226 O   0  0  0  0  0  0  0  0  0  0  0  0
   -1.5320   -0.8490    0.6496 N   0  0  0  0  0  0  0  0  0  0  0  0
   -2.3500   -0.3360    0.3566 H   0  0  0  0  0  0  0  0  0  0  0  0
   -0.2470   -0.1410    0.5576 C   0  0  1  0  0  0  0  0  0  0  0  0
    0.4572   -0.6505    1.2162 H   0  0  0  0  0  0  0  0  0  0  0  0
    0.3091   -0.2220   -0.8868 C   0  0  1  0  0  0  0  0  0  0  0  0
    0.2420   -1.2659   -1.1992 H   0  0  0  0  0  0  0  0  0  0  0  0
   -0.5131    0.6189   -1.8820 C   0  0  0  0  0  0  0  0  0  0  0  0
   -0.4168    1.6826   -1.6572 H   0  0  0  0  0  0  0  0  0  0  0  0
   -0.1736    0.4384   -2.9007 H   0  0  0  0  0  0  0  0  0  0  0  0
   -1.5667    0.3421   -1.8284 H   0  0  0  0  0  0  0  0  0  0  0  0
    1.8016    0.1761   -0.9291 C   0  0  0  0  0  0  0  0  0  0  0  0
    2.2339   -0.1024   -1.8910 H   0  0  0  0  0  0  0  0  0  0  0  0
    1.8792    1.2578   -0.8196 H   0  0  0  0  0  0  0  0  0  0  0  0
    2.6416   -0.4584    0.1876 C   0  0  0  0  0  0  0  0  0  0  0  0
    2.6874   -1.5403    0.0638 H   0  0  0  0  0  0  0  0  0  0  0  0
    3.6560   -0.0613    0.1442 H   0  0  0  0  0  0  0  0  0  0  0  0
    2.2095   -0.2209    1.1603 H   0  0  0  0  0  0  0  0  0  0  0  0
   -0.3971    1.3008    1.0689 C   0  0  0  0  0  0  0  0  0  0  0  0
   -1.3643    1.9819    0.7311 O   0  0  0  0  0  0  0  0  0  0  0  0
    0.5522    1.7647    1.8915 N   0  0  0  0  0  0  0  0  0  0  0  0
    1.3093    1.1450    2.1332 H   0  0  0  0  0  0  0  0  0  0  0  0
    0.5577    3.1119    2.4582 C   0  0  0  0  0  0  0  0  0  0  0  0
   -0.3986    3.3098    2.9475 H   0  0  0  0  0  0  0  0  0  0  0  0
    1.3619    3.2123    3.1886 H   0  0  0  0  0  0  0  0  0  0  0  0
    0.6974    3.8450    1.6614 H   0  0  0  0  0  0  0  0  0  0  0  0
  5  6  2  0  0  0  0
  5  7  1  0  0  0  0
  2  3  1  0  0  0  0
  2  4  1  0  0  0  0
  2  5  1  0  0  0  0
  1  2  1  0  0  0  0
 24 25  2  0  0  0  0
 24 26  1  0  0  0  0
 20 21  1  0  0  0  0
 20 22  1  0  0  0  0
 20 23  1  0  0  0  0
 17 18  1  0  0  0  0
 17 19  1  0  0  0  0
 17 20  1  0  0  0  0
 13 14  1  0  0  0  0
 13 15  1  0  0  0  0
 13 16  1  0  0  0  0
 11 12  1  0  0  0  0
 11 13  1  0  0  0  0
 11 17  1  0  0  0  0
  9 10  1  0  0  0  0
  9 11  1  0  0  0  0
  9 24  1  0  0  0  0
  7  8  1  0  0  0  0
  7  9  1  0  0  0  0
 28 29  1  0  0  0  0
 28 30  1  0  0  0  0
 28 31  1  0  0  0  0
 26 27  1  0  0  0  0
 26 28  1  0  0  0  0
M  END
$$$$
default_name
  -OEChem-02102213163D

 31 30  0     1  0  0  0  0  0999 V2000
   -3.0760   -3.6390    1.5496 H   0  0  0  0  0  0  0  0  0  0  0  0
   -3.0940   -2.6290    1.1426 C   0  0  0  0  0  0  0  0  0  0  0  0
   -3.7160   -1.9930    1.7706 H   0  0  0  0  0  0  0  0  0  0  0  0
   -3.4880   -2.6500    0.1286 H   0  0  0  0  0  0  0  0  0  0  0  0
   -1.6860   -2.0850    1.1196 C   0  0  0  0  0  0  0  0  0  0  0  0
   -0.7540   -2.7700    1.5226 O   0  0  0  0  0  0  0  0  0  0  0  0
   -1.5320   -0.8490    0.6496 N   0  0  0  0  0  0  0  0  0  0  0  0
   -2.3500   -0.3360    0.3566 H   0  0  0  0  0  0  0  0  0  0  0  0
   -0.2470   -0.1410    0.5576 C   0  0  1  0  0  0  0  0  0  0  0  0
    0.4572   -0.6505    1.2162 H   0  0  0  0  0  0  0  0  0  0  0  0
    0.3091   -0.2220   -0.8868 C   0  0  1  0  0  0  0  0  0  0  0  0
    0.2420   -1.2659   -1.1992 H   0  0  0  0  0  0  0  0  0  0  0  0
   -0.5131    0.6189   -1.8820 C   0  0  0  0  0  0  0  0  0  0  0  0
   -0.4168    1.6826   -1.6572 H   0  0  0  0  0  0  0  0  0  0  0  0
   -0.1736    0.4384   -2.9007 H   0  0  0  0  0  0  0  0  0  0  0  0
   -1.5667    0.3421   -1.8284 H   0  0  0  0  0  0  0  0  0  0  0  0
    1.8016    0.1761   -0.9291 C   0  0  0  0  0  0  0  0  0  0  0  0
    2.1653    0.1477   -1.9571 H   0  0  0  0  0  0  0  0  0  0  0  0
    1.9030    1.1961   -0.5584 H   0  0  0  0  0  0  0  0  0  0  0  0
    2.7033   -0.7165   -0.0657 C   0  0  0  0  0  0  0  0  0  0  0  0
    2.7240   -1.7328   -0.4586 H   0  0  0  0  0  0  0  0  0  0  0  0
    3.7187   -0.3197   -0.0770 H   0  0  0  0  0  0  0  0  0  0  0  0
    2.3398   -0.7305    0.9624 H   0  0  0  0  0  0  0  0  0  0  0  0
   -0.3971    1.3008    1.0689 C   0  0  0  0  0  0  0  0  0  0  0  0
   -1.3643    1.9819    0.7311 O   0  0  0  0  0  0  0  0  0  0  0  0
    0.5522    1.7647    1.8915 N   0  0  0  0  0  0  0  0  0  0  0  0
    1.3093    1.1450    2.1332 H   0  0  0  0  0  0  0  0  0  0  0  0
    0.5577    3.1119    2.4582 C   0  0  0  0  0  0  0  0  0  0  0  0
   -0.3986    3.3098    2.9475 H   0  0  0  0  0  0  0  0  0  0  0  0
    1.3619    3.2123    3.1886 H   0  0  0  0  0  0  0  0  0  0  0  0
    0.6974    3.8450    1.6614 H   0  0  0  0  0  0  0  0  0  0  0  0
  5  6  2  0  0  0  0
  5  7  1  0  0  0  0
  2  3  1  0  0  0  0
  2  4  1  0  0  0  0
  2  5  1  0  0  0  0
  1  2  1  0  0  0  0
 24 25  2  0  0  0  0
 24 26  1  0  0  0  0
 20 21  1  0  0  0  0
 20 22  1  0  0  0  0
 20 23  1  0  0  0  0
 17 18  1  0  0  0  0
 17 19  1  0  0  0  0
 17 20  1  0  0  0  0
 13 14  1  0  0  0  0
 13 15  1  0  0  0  0
 13 16  1  0  0  0  0
 11 12  1  0  0  0  0
 11 13  1  0  0  0  0
 11 17  1  0  0  0  0
  9 10  1  0  0  0  0
  9 11  1  0  0  0  0
  9 24  1  0  0  0  0
  7  8  1  0  0  0  0
  7  9  1  0  0  0  0
 28 29  1  0  0  0  0
 28 30  1  0  0  0  0
 28 31  1  0  0  0  0
 26 27  1  0  0  0  0
 26 28  1  0  0  0  0
M  END
$$$$
default_name
  -OEChem-02102213163D

 31 30  0     1  0  0  0  0  0999 V2000
   -3.0760   -3.6390    1.5496 H   0  0  0  0  0  0  0  0  0  0  0  0
   -3.0940   -2.6290    1.1426 C   0  0  0  0  0  0  0  0  0  0  0  0
   -3.7160   -1.9930    1.7706 H   0  0  0  0  0  0  0  0  0  0  0  0
   -3.4880   -2.6500    0.1286 H   0  0  0  0  0  0  0  0  0  0  0  0
   -1.6860   -2.0850    1.1196 C   0  0  0  0  0  0  0  0  0  0  0  0
   -0.7540   -2.7700    1.5226 O   0  0  0  0  0  0  0  0  0  0  0  0
   -1.5320   -0.8490    0.6496 N   0  0  0  0  0  0  0  0  0  0  0  0
   -2.3500   -0.3360    0.3566 H   0  0  0  0  0  0  0  0  0  0  0  0
   -0.2470   -0.1410    0.5576 C   0  0  1  0  0  0  0  0  0  0  0  0
    0.4572   -0.6505    1.2162 H   0  0  0  0  0  0  0  0  0  0  0  0
    0.3091   -0.2220   -0.8868 C   0  0  1  0  0  0  0  0  0  0  0  0
    0.2420   -1.2659   -1.1992 H   0  0  0  0  0  0  0  0  0  0  0  0
   -0.5131    0.6189   -1.8820 C   0  0  0  0  0  0  0  0  0  0  0  0
   -0.4168    1.6826   -1.6572 H   0  0  0  0  0  0  0  0  0  0  0  0
   -0.1736    0.4384   -2.9007 H   0  0  0  0  0  0  0  0  0  0  0  0
   -1.5667    0.3421   -1.8284 H   0  0  0  0  0  0  0  0  0  0  0  0
    1.8016    0.1761   -0.9291 C   0  0  0  0  0  0  0  0  0  0  0  0
    2.0964    0.4064   -1.9537 H   0  0  0  0  0  0  0  0  0  0  0  0
    1.9430    1.0710   -0.3232 H   0  0  0  0  0  0  0  0  0  0  0  0
    2.7441   -0.9029   -0.3789 C   0  0  0  0  0  0  0  0  0  0  0  0
    2.7232   -1.7886   -1.0137 H   0  0  0  0  0  0  0  0  0  0  0  0
    3.7626   -0.5145   -0.3594 H   0  0  0  0  0  0  0  0  0  0  0  0
    2.4489   -1.1742    0.6352 H   0  0  0  0  0  0  0  0  0  0  0  0
   -0.3971    1.3008    1.0689 C   0  0  0  0  0  0  0  0  0  0  0  0
   -1.3643    1.9819    0.7311 O   0  0  0  0  0  0  0  0  0  0  0  0
    0.5522    1.7647    1.8915 N   0  0  0  0  0  0  0  0  0  0  0  0
    1.3093    1.1450    2.1332 H   0  0  0  0  0  0  0  0  0  0  0  0
    0.5577    3.1119    2.4582 C   0  0  0  0  0  0  0  0  0  0  0  0
   -0.3986    3.3098    2.9475 H   0  0  0  0  0  0  0  0  0  0  0  0
    1.3619    3.2123    3.1886 H   0  0  0  0  0  0  0  0  0  0  0  0
    0.6974    3.8450    1.6614 H   0  0  0  0  0  0  0  0  0  0  0  0
  5  6  2  0  0  0  0
  5  7  1  0  0  0  0
  2  3  1  0  0  0  0
  2  4  1  0  0  0  0
  2  5  1  0  0  0  0
  1  2  1  0  0  0  0
 24 25  2  0  0  0  0
 24 26  1  0  0  0  0
 20 21  1  0  0  0  0
 20 22  1  0  0  0  0
 20 23  1  0  0  0  0
 17 18  1  0  0  0  0
 17 19  1  0  0  0  0
 17 20  1  0  0  0  0
 13 14  1  0  0  0  0
 13 15  1  0  0  0  0
 13 16  1  0  0  0  0
 11 12  1  0  0  0  0
 11 13  1  0  0  0  0
 11 17  1  0  0  0  0
  9 10  1  0  0  0  0
  9 11  1  0  0  0  0
  9 24  1  0  0  0  0
  7  8  1  0  0  0  0
  7  9  1  0  0  0  0
 28 29  1  0  0  0  0
 28 30  1  0  0  0  0
 28 31  1  0  0  0  0
 26 27  1  0  0  0  0
 26 28  1  0  0  0  0
M  END
$$$$
default_name
  -OEChem-02102213163D

 31 30  0     1  0  0  0  0  0999 V2000
   -3.0760   -3.6390    1.5496 H   0  0  0  0  0  0  0  0  0  0  0  0
   -3.0940   -2.6290    1.1426 C   0  0  0  0  0  0  0  0  0  0  0  0
   -3.7160   -1.9930    1.7706 H   0  0  0  0  0  0  0  0  0  0  0  0
   -3.4880   -2.6500    0.1286 H   0  0  0  0  0  0  0  0  0  0  0  0
   -1.6860   -2.0850    1.1196 C   0  0  0  0  0  0  0  0  0  0  0  0
   -0.7540   -2.7700    1.5226 O   0  0  0  0  0  0  0  0  0  0  0  0
   -1.5320   -0.8490    0.6496 N   0  0  0  0  0  0  0  0  0  0  0  0
   -2.3500   -0.3360    0.3566 H   0  0  0  0  0  0  0  0  0  0  0  0
   -0.2470   -0.1410    0.5576 C   0  0  1  0  0  0  0  0  0  0  0  0
    0.4572   -0.6505    1.2162 H   0  0  0  0  0  0  0  0  0  0  0  0
    0.3091   -0.2220   -0.8868 C   0  0  1  0  0  0  0  0  0  0  0  0
    0.2420   -1.2659   -1.1992 H   0  0  0  0  0  0  0  0  0  0  0  0
   -0.5131    0.6189   -1.8820 C   0  0  0  0  0  0  0  0  0  0  0  0
   -0.4168    1.6826   -1.6572 H   0  0  0  0  0  0  0  0  0  0  0  0
   -0.1736    0.4384   -2.9007 H   0  0  0  0  0  0  0  0  0  0  0  0
   -1.5667    0.3421   -1.8284 H   0  0  0  0  0  0  0  0  0  0  0  0
    1.8016    0.1761   -0.9291 C   0  0  0  0  0  0  0  0  0  0  0  0
    2.0319    0.6559   -1.8813 H   0  0  0  0  0  0  0  0  0  0  0  0
    1.9965    0.8911   -0.1299 H   0  0  0  0  0  0  0  0  0  0  0  0
    2.7614   -1.0049   -0.7308 C   0  0  0  0  0  0  0  0  0  0  0  0
    2.6849   -1.7036   -1.5637 H   0  0  0  0  0  0  0  0  0  0  0  0
    3.7849   -0.6323   -0.6838 H   0  0  0  0  0  0  0  0  0  0  0  0
    2.5294   -1.5218    0.2010 H   0  0  0  0  0  0  0  0  0  0  0  0
   -0.3971    1.3008    1.0689 C   0  0  0  0  0  0  0  0  0  0  0  0
   -1.3643    1.9819    0.7311 O   0  0  0  0  0  0  0  0  0  0  0  0
    0.5522    1.7647    1.8915 N   0  0  0  0  0  0  0  0  0  0  0  0
    1.3093    1.1450    2.1332 H   0  0  0  0  0  0  0  0  0  0  0  0
    0.5577    3.1119    2.4582 C   0  0  0  0  0  0  0  0  0  0  0  0
   -0.3986    3.3098    2.9475 H   0  0  0  0  0  0  0  0  0  0  0  0
    1.3619    3.2123    3.1886 H   0  0  0  0  0  0  0  0  0  0  0  0
    0.6974    3.8450    1.6614 H   0  0  0  0  0  0  0  0  0  0  0  0
  5  6  2  0  0  0  0
  5  7  1  0  0  0  0
  2  3  1  0  0  0  0
  2  4  1  0  0  0  0
  2  5  1  0  0  0  0
  1  2  1  0  0  0  0
 24 25  2  0  0  0  0
 24 26  1  0  0  0  0
 20 21  1  0  0  0  0
 20 22  1  0  0  0  0
 20 23  1  0  0  0  0
 17 18  1  0  0  0  0
 17 19  1  0  0  0  0
 17 20  1  0  0  0  0
 13 14  1  0  0  0  0
 13 15  1  0  0  0  0
 13 16  1  0  0  0  0
 11 12  1  0  0  0  0
 11 13  1  0  0  0  0
 11 17  1  0  0  0  0
  9 10  1  0  0  0  0
  9 11  1  0  0  0  0
  9 24  1  0  0  0  0
  7  8  1  0  0  0  0
  7  9  1  0  0  0  0
 28 29  1  0  0  0  0
 28 30  1  0  0  0  0
 28 31  1  0  0  0  0
 26 27  1  0  0  0  0
 26 28  1  0  0  0  0
M  END
$$$$
default_name
  -OEChem-02102213163D

 31 30  0     1  0  0  0  0  0999 V2000
   -3.0760   -3.6390    1.5496 H   0  0  0  0  0  0  0  0  0  0  0  0
   -3.0940   -2.6290    1.1426 C   0  0  0  0  0  0  0  0  0  0  0  0
   -3.7160   -1.9930    1.7706 H   0  0  0  0  0  0  0  0  0  0  0  0
   -3.4880   -2.6500    0.1286 H   0  0  0  0  0  0  0  0  0  0  0  0
   -1.6860   -2.0850    1.1196 C   0  0  0  0  0  0  0  0  0  0  0  0
   -0.7540   -2.7700    1.5226 O   0  0  0  0  0  0  0  0  0  0  0  0
   -1.5320   -0.8490    0.6496 N   0  0  0  0  0  0  0  0  0  0  0  0
   -2.3500   -0.3360    0.3566 H   0  0  0  0  0  0  0  0  0  0  0  0
   -0.2470   -0.1410    0.5576 C   0  0  1  0  0  0  0  0  0  0  0  0
    0.4572   -0.6505    1.2162 H   0  0  0  0  0  0  0  0  0  0  0  0
    0.3091   -0.2220   -0.8868 C   0  0  1  0  0  0  0  0  0  0  0  0
    0.2420   -1.2659   -1.1992 H   0  0  0  0  0  0  0  0  0  0  0  0
   -0.5131    0.6189   -1.8820 C   0  0  0  0  0  0  0  0  0  0  0  0
   -0.4168    1.6826   -1.6572 H   0  0  0  0  0  0  0  0  0  0  0  0
   -0.1736    0.4384   -2.9007 H   0  0  0  0  0  0  0  0  0  0  0  0
   -1.5667    0.3421   -1.8284 H   0  0  0  0  0  0  0  0  0  0  0  0
    1.8016    0.1761   -0.9291 C   0  0  0  0  0  0  0  0  0  0  0  0
    1.9762    0.8792   -1.7446 H   0  0  0  0  0  0  0  0  0  0  0  0
    2.0597    0.6687    0.0083 H   0  0  0  0  0  0  0  0  0  0  0  0
    2.7538   -1.0156   -1.0974 C   0  0  0  0  0  0  0  0  0  0  0  0
    2.6119   -1.4838   -2.0713 H   0  0  0  0  0  0  0  0  0  0  0  0
    3.7839   -0.6652   -1.0280 H   0  0  0  0  0  0  0  0  0  0  0  0
    2.5756   -1.7495   -0.3107 H   0  0  0  0  0  0  0  0  0  0  0  0
   -0.3971    1.3008    1.0689 C   0  0  0  0  0  0  0  0  0  0  0  0
   -1.3643    1.9819    0.7311 O   0  0  0  0  0  0  0  0  0  0  0  0
    0.5522    1.7647    1.8915 N   0  0  0  0  0  0  0  0  0  0  0  0
    1.3093    1.1450    2.1332 H   0  0  0  0  0  0  0  0  0  0  0  0
    0.5577    3.1119    2.4582 C   0  0  0  0  0  0  0  0  0  0  0  0
   -0.3986    3.3098    2.9475 H   0  0  0  0  0  0  0  0  0  0  0  0
    1.3619    3.2123    3.1886 H   0  0  0  0  0  0  0  0  0  0  0  0
    0.6974    3.8450    1.6614 H   0  0  0  0  0  0  0  0  0  0  0  0
  5  6  2  0  0  0  0
  5  7  1  0  0  0  0
  2  3  1  0  0  0  0
  2  4  1  0  0  0  0
  2  5  1  0  0  0  0
  1  2  1  0  0  0  0
 24 25  2  0  0  0  0
 24 26  1  0  0  0  0
 20 21  1  0  0  0  0
 20 22  1  0  0  0  0
 20 23  1  0  0  0  0
 17 18  1  0  0  0  0
 17 19  1  0  0  0  0
 17 20  1  0  0  0  0
 13 14  1  0  0  0  0
 13 15  1  0  0  0  0
 13 16  1  0  0  0  0
 11 12  1  0  0  0  0
 11 13  1  0  0  0  0
 11 17  1  0  0  0  0
  9 10  1  0  0  0  0
  9 11  1  0  0  0  0
  9 24  1  0  0  0  0
  7  8  1  0  0  0  0
  7  9  1  0  0  0  0
 28 29  1  0  0  0  0
 28 30  1  0  0  0  0
 28 31  1  0  0  0  0
 26 27  1  0  0  0  0
 26 28  1  0  0  0  0
M  END
$$$$
default_name
  -OEChem-02102213163D

 31 30  0     1  0  0  0  0  0999 V2000
   -3.0760   -3.6390    1.5496 H   0  0  0  0  0  0  0  0  0  0  0  0
   -3.0940   -2.6290    1.1426 C   0  0  0  0  0  0  0  0  0  0  0  0
   -3.7160   -1.9930    1.7706 H   0  0  0  0  0  0  0  0  0  0  0  0
   -3.4880   -2.6500    0.1286 H   0  0  0  0  0  0  0  0  0  0  0  0
   -1.6860   -2.0850    1.1196 C   0  0  0  0  0  0  0  0  0  0  0  0
   -0.7540   -2.7700    1.5226 O   0  0  0  0  0  0  0  0  0  0  0  0
   -1.5320   -0.8490    0.6496 N   0  0  0  0  0  0  0  0  0  0  0  0
   -2.3500   -0.3360    0.3566 H   0  0  0  0  0  0  0  0  0  0  0  0
   -0.2470   -0.1410    0.5576 C   0  0  1  0  0  0  0  0  0  0  0  0
    0.4572   -0.6505    1.2162 H   0  0  0  0  0  0  0  0  0  0  0  0
    0.3091   -0.2220   -0.8868 C   0  0  1  0  0  0  0  0  0  0  0  0
    0.2420   -1.2659   -1.1992 H   0  0  0  0  0  0  0  0  0  0  0  0
   -0.5131    0.6189   -1.8820 C   0  0  0  0  0  0  0  0  0  0  0  0
   -0.4168    1.6826   -1.6572 H   0  0  0  0  0  0  0  0  0  0  0  0
   -0.1736    0.4384   -2.9007 H   0  0  0  0  0  0  0  0  0  0  0  0
   -1.5667    0.3421   -1.8284 H   0  0  0  0  0  0  0  0  0  0  0  0
    1.8016    0.1761   -0.9291 C   0  0  0  0  0  0  0  0  0  0  0  0
    1.9331    1.0611   -1.5531 H   0  0  0  0  0  0  0  0  0  0  0  0
    2.1285    0.4188    0.0820 H   0  0  0  0  0  0  0  0  0  0  0  0
    2.7221   -0.9342   -1.4536 C   0  0  0  0  0  0  0  0  0  0  0  0
    2.5091   -1.1440   -2.5017 H   0  0  0  0  0  0  0  0  0  0  0  0
    3.7598   -0.6109   -1.3687 H   0  0  0  0  0  0  0  0  0  0  0  0
    2.5846   -1.8419   -0.8650 H   0  0  0  0  0  0  0  0  0  0  0  0
   -0.3971    1.3008    1.0689 C   0  0  0  0  0  0  0  0  0  0  0  0
   -1.3643    1.9819    0.7311 O   0  0  0  0  0  0  0  0  0  0  0  0
    0.5522    1.7647    1.8915 N   0  0  0  0  0  0  0  0  0  0  0  0
    1.3093    1.1450    2.1332 H   0  0  0  0  0  0  0  0  0  0  0  0
    0.5577    3.1119    2.4582 C   0  0  0  0  0  0  0  0  0  0  0  0
   -0.3986    3.3098    2.9475 H   0  0  0  0  0  0  0  0  0  0  0  0
    1.3619    3.2123    3.1886 H   0  0  0  0  0  0  0  0  0  0  0  0
    0.6974    3.8450    1.6614 H   0  0  0  0  0  0  0  0  0  0  0  0
  5  6  2  0  0  0  0
  5  7  1  0  0  0  0
  2  3  1  0  0  0  0
  2  4  1  0  0  0  0
  2  5  1  0  0  0  0
  1  2  1  0  0  0  0
 24 25  2  0  0  0  0
 24 26  1  0  0  0  0
 20 21  1  0  0  0  0
 20 22  1  0  0  0  0
 20 23  1  0  0  0  0
 17 18  1  0  0  0  0
 17 19  1  0  0  0  0
 17 20  1  0  0  0  0
 13 14  1  0  0  0  0
 13 15  1  0  0  0  0
 13 16  1  0  0  0  0
 11 12  1  0  0  0  0
 11 13  1  0  0  0  0
 11 17  1  0  0  0  0
  9 10  1  0  0  0  0
  9 11  1  0  0  0  0
  9 24  1  0  0  0  0
  7  8  1  0  0  0  0
  7  9  1  0  0  0  0
 28 29  1  0  0  0  0
 28 30  1  0  0  0  0
 28 31  1  0  0  0  0
 26 27  1  0  0  0  0
 26 28  1  0  0  0  0
M  END
$$$$
default_name
  -OEChem-02102213163D

 31 30  0     1  0  0  0  0  0999 V2000
   -3.0760   -3.6390    1.5496 H   0  0  0  0  0  0  0  0  0  0  0  0
   -3.0940   -2.6290    1.1426 C   0  0  0  0  0  0  0  0  0  0  0  0
   -3.7160   -1.9930    1.7706 H   0  0  0  0  0  0  0  0  0  0  0  0
   -3.4880   -2.6500    0.1286 H   0  0  0  0  0  0  0  0  0  0  0  0
   -1.6860   -2.0850    1.1196 C   0  0  0  0  0  0  0  0  0  0  0  0
   -0.7540   -2.7700    1.5226 O   0  0  0  0  0  0  0  0  0  0  0  0
   -1.5320   -0.8490    0.6496 N   0  0  0  0  0  0  0  0  0  0  0  0
   -2.3500   -0.3360    0.3566 H   0  0  0  0  0  0  0  0  0  0  0  0
   -0.2470   -0.1410    0.5576 C   0  0  1  0  0  0  0  0  0  0  0  0
    0.4572   -0.6505    1.2162 H   0  0  0  0  0  0  0  0  0  0  0  0
    0.3091   -0.2220   -0.8868 C   0  0  1  0  0  0  0  0  0  0  0  0
    0.2420   -1.2659   -1.1992 H   0  0  0  0  0  0  0  0  0  0  0  0
   -0.5131    0.6189   -1.8820 C   0  0  0  0  0  0  0  0  0  0  0  0
   -0.4168    1.6826   -1.6572 H   0  0  0  0  0  0  0  0  0  0  0  0
   -0.1736    0.4384   -2.9007 H   0  0  0  0  0  0  0  0  0  0  0  0
   -1.5667    0.3421   -1.8284 H   0  0  0  0  0  0  0  0  0  0  0  0
    1.8016    0.1761   -0.9291 C   0  0  0  0  0  0  0  0  0  0  0  0
    1.9056    1.1893   -1.3197 H   0  0  0  0  0  0  0  0  0  0  0  0
    2.1980    0.1586    0.0861 H   0  0  0  0  0  0  0  0  0  0  0  0
    2.6682   -0.7664   -1.7753 C   0  0  0  0  0  0  0  0  0  0  0  0
    2.3835   -0.7075   -2.8256 H   0  0  0  0  0  0  0  0  0  0  0  0
    3.7141   -0.4731   -1.6827 H   0  0  0  0  0  0  0  0  0  0  0  0
    2.5556   -1.7927   -1.4241 H   0  0  0  0  0  0  0  0  0  0  0  0
   -0.3971    1.3008    1.0689 C   0  0  0  0  0  0  0  0  0  0  0  0
   -1.3643    1.9819    0.7311 O   0  0  0  0  0  0  0  0  0  0  0  0
    0.5522    1.7647    1.8915 N   0  0  0  0  0  0  0  0  0  0  0  0
    1.3093    1.1450    2.1332 H   0  0  0  0  0  0  0  0  0  0  0  0
    0.5577    3.1119    2.4582 C   0  0  0  0  0  0  0  0  0  0  0  0
   -0.3986    3.3098    2.9475 H   0  0  0  0  0  0  0  0  0  0  0  0
    1.3619    3.2123    3.1886 H   0  0  0  0  0  0  0  0  0  0  0  0
    0.6974    3.8450    1.6614 H   0  0  0  0  0  0  0  0  0  0  0  0
  5  6  2  0  0  0  0
  5  7  1  0  0  0  0
  2  3  1  0  0  0  0
  2  4  1  0  0  0  0
  2  5  1  0  0  0  0
  1  2  1  0  0  0  0
 24 25  2  0  0  0  0
 24 26  1  0  0  0  0
 20 21  1  0  0  0  0
 20 22  1  0  0  0  0
 20 23  1  0  0  0  0
 17 18  1  0  0  0  0
 17 19  1  0  0  0  0
 17 20  1  0  0  0  0
 13 14  1  0  0  0  0
 13 15  1  0  0  0  0
 13 16  1  0  0  0  0
 11 12  1  0  0  0  0
 11 13  1  0  0  0  0
 11 17  1  0  0  0  0
  9 10  1  0  0  0  0
  9 11  1  0  0  0  0
  9 24  1  0  0  0  0
  7  8  1  0  0  0  0
  7  9  1  0  0  0  0
 28 29  1  0  0  0  0
 28 30  1  0  0  0  0
 28 31  1  0  0  0  0
 26 27  1  0  0  0  0
 26 28  1  0  0  0  0
M  END
$$$$
default_name
  -OEChem-02102213163D

 31 30  0     1  0  0  0  0  0999 V2000
   -3.0760   -3.6390    1.5496 H   0  0  0  0  0  0  0  0  0  0  0  0
   -3.0940   -2.6290    1.1426 C   0  0  0  0  0  0  0  0  0  0  0  0
   -3.7160   -1.9930    1.7706 H   0  0  0  0  0  0  0  0  0  0  0  0
   -3.4880   -2.6500    0.1286 H   0  0  0  0  0  0  0  0  0  0  0  0
   -1.6860   -2.0850    1.1196 C   0  0  0  0  0  0  0  0  0  0  0  0
   -0.7540   -2.7700    1.5226 O   0  0  0  0  0  0  0  0  0  0  0  0
   -1.5320   -0.8490    0.6496 N   0  0  0  0  0  0  0  0  0  0  0  0
   -2.3500   -0.3360    0.3566 H   0  0  0  0  0  0  0  0  0  0  0  0
   -0.2470   -0.1410    0.5576 C   0  0  1  0  0  0  0  0  0  0  0  0
    0.4572   -0.6505    1.2162 H   0  0  0  0  0  0  0  0  0  0  0  0
    0.3091   -0.2220   -0.8868 C   0  0  1  0  0  0  0  0  0  0  0  0
    0.2420   -1.2659   -1.1992 H   0  0  0  0  0  0  0  0  0  0  0  0
   -0.5131    0.6189   -1.8820 C   0  0  0  0  0  0  0  0  0  0  0  0
   -0.4168    1.6826   -1.6572 H   0  0  0  0  0  0  0  0  0  0  0  0
   -0.1736    0.4384   -2.9007 H   0  0  0  0  0  0  0  0  0  0  0  0
   -1.5667    0.3421   -1.8284 H   0  0  0  0  0  0  0  0  0  0  0  0
    1.8016    0.1761   -0.9291 C   0  0  0  0  0  0  0  0  0  0  0  0
    1.8954    1.2549   -1.0604 H   0  0  0  0  0  0  0  0  0  0  0  0
    2.2636   -0.0943    0.0203 H   0  0  0  0  0  0  0  0  0  0  0  0
    2.5959   -0.5234   -2.0404 C   0  0  0  0  0  0  0  0  0  0  0  0
    2.2437   -0.2041   -3.0211 H   0  0  0  0  0  0  0  0  0  0  0  0
    3.6501   -0.2612   -1.9484 H   0  0  0  0  0  0  0  0  0  0  0  0
    2.4907   -1.6051   -1.9499 H   0  0  0  0  0  0  0  0  0  0  0  0
   -0.3971    1.3008    1.0689 C   0  0  0  0  0  0  0  0  0  0  0  0
   -1.3643    1.9819    0.7311 O   0  0  0  0  0  0  0  0  0  0  0  0
    0.5522    1.7647    1.8915 N   0  0  0  0  0  0  0  0  0  0  0  0
    1.3093    1.1450    2.1332 H   0  0  0  0  0  0  0  0  0  0  0  0
    0.5577    3.1119    2.4582 C   0  0  0  0  0  0  0  0  0  0  0  0
   -0.3986    3.3098    2.9475 H   0  0  0  0  0  0  0  0  0  0  0  0
    1.3619    3.2123    3.1886 H   0  0  0  0  0  0  0  0  0  0  0  0
    0.6974    3.8450    1.6614 H   0  0  0  0  0  0  0  0  0  0  0  0
  5  6  2  0  0  0  0
  5  7  1  0  0  0  0
  2  3  1  0  0  0  0
  2  4  1  0  0  0  0
  2  5  1  0  0  0  0
  1  2  1  0  0  0  0
 24 25  2  0  0  0  0
 24 26  1  0  0  0  0
 20 21  1  0  0  0  0
 20 22  1  0  0  0  0
 20 23  1  0  0  0  0
 17 18  1  0  0  0  0
 17 19  1  0  0  0  0
 17 20  1  0  0  0  0
 13 14  1  0  0  0  0
 13 15  1  0  0  0  0
 13 16  1  0  0  0  0
 11 12  1  0  0  0  0
 11 13  1  0  0  0  0
 11 17  1  0  0  0  0
  9 10  1  0  0  0  0
  9 11  1  0  0  0  0
  9 24  1  0  0  0  0
  7  8  1  0  0  0  0
  7  9  1  0  0  0  0
 28 29  1  0  0  0  0
 28 30  1  0  0  0  0
 28 31  1  0  0  0  0
 26 27  1  0  0  0  0
 26 28  1  0  0  0  0
M  END
$$$$
default_name
  -OEChem-02102213163D

 31 30  0     1  0  0  0  0  0999 V2000
   -3.0760   -3.6390    1.5496 H   0  0  0  0  0  0  0  0  0  0  0  0
   -3.0940   -2.6290    1.1426 C   0  0  0  0  0  0  0  0  0  0  0  0
   -3.7160   -1.9930    1.7706 H   0  0  0  0  0  0  0  0  0  0  0  0
   -3.4880   -2.6500    0.1286 H   0  0  0  0  0  0  0  0  0  0  0  0
   -1.6860   -2.0850    1.1196 C   0  0  0  0  0  0  0  0  0  0  0  0
   -0.7540   -2.7700    1.5226 O   0  0  0  0  0  0  0  0  0  0  0  0
   -1.5320   -0.8490    0.6496 N   0  0  0  0  0  0  0  0  0  0  0  0
   -2.3500   -0.3360    0.3566 H   0  0  0  0  0  0  0  0  0  0  0  0
   -0.2470   -0.1410    0.5576 C   0  0  1  0  0  0  0  0  0  0  0  0
    0.4572   -0.6505    1.2162 H   0  0  0  0  0  0  0  0  0  0  0  0
    0.3091   -0.2220   -0.8868 C   0  0  1  0  0  0  0  0  0  0  0  0
    0.2420   -1.2659   -1.1992 H   0  0  0  0  0  0  0  0  0  0  0  0
   -0.5131    0.6189   -1.8820 C   0  0  0  0  0  0  0  0  0  0  0  0
   -0.4168    1.6826   -1.6572 H   0  0  0  0  0  0  0  0  0  0  0  0
   -0.1736    0.4384   -2.9007 H   0  0  0  0  0  0  0  0  0  0  0  0
   -1.5667    0.3421   -1.8284 H   0  0  0  0  0  0  0  0  0  0  0  0
    1.8016    0.1761   -0.9291 C   0  0  0  0  0  0  0  0  0  0  0  0
    1.9033    1.2536   -0.7928 H   0  0  0  0  0  0  0  0  0  0  0  0
    2.3208   -0.3227   -0.1108 H   0  0  0  0  0  0  0  0  0  0  0  0
    2.5101   -0.2220   -2.2309 C   0  0  0  0  0  0  0  0  0  0  0  0
    2.0991    0.3321   -3.0747 H   0  0  0  0  0  0  0  0  0  0  0  0
    3.5720    0.0103   -2.1478 H   0  0  0  0  0  0  0  0  0  0  0  0
    2.3943   -1.2921   -2.4065 H   0  0  0  0  0  0  0  0  0  0  0  0
   -0.3971    1.3008    1.0689 C   0  0  0  0  0  0  0  0  0  0  0  0
   -1.3643    1.9819    0.7311 O   0  0  0  0  0  0  0  0  0  0  0  0
    0.5522    1.7647    1.8915 N   0  0  0  0  0  0  0  0  0  0  0  0
    1.3093    1.1450    2.1332 H   0  0  0  0  0  0  0  0  0  0  0  0
    0.5577    3.1119    2.4582 C   0  0  0  0  0  0  0  0  0  0  0  0
   -0.3986    3.3098    2.9475 H   0  0  0  0  0  0  0  0  0  0  0  0
    1.3619    3.2123    3.1886 H   0  0  0  0  0  0  0  0  0  0  0  0
    0.6974    3.8450    1.6614 H   0  0  0  0  0  0  0  0  0  0  0  0
  5  6  2  0  0  0  0
  5  7  1  0  0  0  0
  2  3  1  0  0  0  0
  2  4  1  0  0  0  0
  2  5  1  0  0  0  0
  1  2  1  0  0  0  0
 24 25  2  0  0  0  0
 24 26  1  0  0  0  0
 20 21  1  0  0  0  0
 20 22  1  0  0  0  0
 20 23  1  0  0  0  0
 17 18  1  0  0  0  0
 17 19  1  0  0  0  0
 17 20  1  0  0  0  0
 13 14  1  0  0  0  0
 13 15  1  0  0  0  0
 13 16  1  0  0  0  0
 11 12  1  0  0  0  0
 11 13  1  0  0  0  0
 11 17  1  0  0  0  0
  9 10  1  0  0  0  0
  9 11  1  0  0  0  0
  9 24  1  0  0  0  0
  7  8  1  0  0  0  0
  7  9  1  0  0  0  0
 28 29  1  0  0  0  0
 28 30  1  0  0  0  0
 28 31  1  0  0  0  0
 26 27  1  0  0  0  0
 26 28  1  0  0  0  0
M  END
$$$$
default_name
  -OEChem-02102213163D

 31 30  0     1  0  0  0  0  0999 V2000
   -3.0760   -3.6390    1.5496 H   0  0  0  0  0  0  0  0  0  0  0  0
   -3.0940   -2.6290    1.1426 C   0  0  0  0  0  0  0  0  0  0  0  0
   -3.7160   -1.9930    1.7706 H   0  0  0  0  0  0  0  0  0  0  0  0
   -3.4880   -2.6500    0.1286 H   0  0  0  0  0  0  0  0  0  0  0  0
   -1.6860   -2.0850    1.1196 C   0  0  0  0  0  0  0  0  0  0  0  0
   -0.7540   -2.7700    1.5226 O   0  0  0  0  0  0  0  0  0  0  0  0
   -1.5320   -0.8490    0.6496 N   0  0  0  0  0  0  0  0  0  0  0  0
   -2.3500   -0.3360    0.3566 H   0  0  0  0  0  0  0  0  0  0  0  0
   -0.2470   -0.1410    0.5576 C   0  0  1  0  0  0  0  0  0  0  0  0
    0.4572   -0.6505    1.2162 H   0  0  0  0  0  0  0  0  0  0  0  0
    0.3091   -0.2220   -0.8868 C   0  0  1  0  0  0  0  0  0  0  0  0
    0.0007   -1.1857   -1.2967 H   0  0  0  0  0  0  0  0  0  0  0  0
   -0.2616    0.8800   -1.7998 C   0  0  0  0  0  0  0  0  0  0  0  0
    0.0821    1.8637   -1.4753 H   0  0  0  0  0  0  0  0  0  0  0  0
    0.0498    0.7164   -2.8303 H   0  0  0  0  0  0  0  0  0  0  0  0
   -1.3518    0.8624   -1.7749 H   0  0  0  0  0  0  0  0  0  0  0  0
    1.8541   -0.1945   -0.8881 C   0  0  0  0  0  0  0  0  0  0  0  0
    2.2105    0.7138   -0.4003 H   0  0  0  0  0  0  0  0  0  0  0  0
    2.2205   -1.0520   -0.3238 H   0  0  0  0  0  0  0  0  0  0  0  0
    2.4718   -0.2718   -2.2909 C   0  0  0  0  0  0  0  0  0  0  0  0
    2.2243    0.6195   -2.8671 H   0  0  0  0  0  0  0  0  0  0  0  0
    3.5564   -0.3377   -2.2029 H   0  0  0  0  0  0  0  0  0  0  0  0
    2.1043   -1.1564   -2.8121 H   0  0  0  0  0  0  0  0  0  0  0  0
   -0.3971    1.3008    1.0689 C   0  0  0  0  0  0  0  0  0  0  0  0
   -1.3643    1.9819    0.7311 O   0  0  0  0  0  0  0  0  0  0  0  0
    0.5522    1.7647    1.8915 N   0  0  0  0  0  0  0  0  0  0  0  0
    1.3093    1.1450    2.1332 H   0  0  0  0  0  0  0  0  0  0  0  0
    0.5577    3.1119    2.4582 C   0  0  0  0  0  0  0  0  0  0  0  0
   -0.3986    3.3098    2.9475 H   0  0  0  0  0  0  0  0  0  0  0  0
    1.3619    3.2123    3.1886 H   0  0  0  0  0  0  0  0  0  0  0  0
    0.6974    3.8450    1.6614 H   0  0  0  0  0  0  0  0  0  0  0  0
  5  6  2  0  0  0  0
  5  7  1  0  0  0  0
  2  3  1  0  0  0  0
  2  4  1  0  0  0  0
  2  5  1  0  0  0  0
  1  2  1  0  0  0  0
 24 25  2  0  0  0  0
 24 26  1  0  0  0  0
 20 21  1  0  0  0  0
 20 22  1  0  0  0  0
 20 23  1  0  0  0  0
 17 18  1  0  0  0  0
 17 19  1  0  0  0  0
 17 20  1  0  0  0  0
 13 14  1  0  0  0  0
 13 15  1  0  0  0  0
 13 16  1  0  0  0  0
 11 12  1  0  0  0  0
 11 13  1  0  0  0  0
 11 17  1  0  0  0  0
  9 10  1  0  0  0  0
  9 11  1  0  0  0  0
  9 24  1  0  0  0  0
  7  8  1  0  0  0  0
  7  9  1  0  0  0  0
 28 29  1  0  0  0  0
 28 30  1  0  0  0  0
 28 31  1  0  0  0  0
 26 27  1  0  0  0  0
 26 28  1  0  0  0  0
M  END
$$$$
default_name
  -OEChem-02102213163D

 31 30  0     1  0  0  0  0  0999 V2000
   -3.0760   -3.6390    1.5496 H   0  0  0  0  0  0  0  0  0  0  0  0
   -3.0940   -2.6290    1.1426 C   0  0  0  0  0  0  0  0  0  0  0  0
   -3.7160   -1.9930    1.7706 H   0  0  0  0  0  0  0  0  0  0  0  0
   -3.4880   -2.6500    0.1286 H   0  0  0  0  0  0  0  0  0  0  0  0
   -1.6860   -2.0850    1.1196 C   0  0  0  0  0  0  0  0  0  0  0  0
   -0.7540   -2.7700    1.5226 O   0  0  0  0  0  0  0  0  0  0  0  0
   -1.5320   -0.8490    0.6496 N   0  0  0  0  0  0  0  0  0  0  0  0
   -2.3500   -0.3360    0.3566 H   0  0  0  0  0  0  0  0  0  0  0  0
   -0.2470   -0.1410    0.5576 C   0  0  1  0  0  0  0  0  0  0  0  0
    0.4572   -0.6505    1.2162 H   0  0  0  0  0  0  0  0  0  0  0  0
    0.3091   -0.2220   -0.8868 C   0  0  1  0  0  0  0  0  0  0  0  0
    0.0007   -1.1857   -1.2967 H   0  0  0  0  0  0  0  0  0  0  0  0
   -0.2616    0.8800   -1.7998 C   0  0  0  0  0  0  0  0  0  0  0  0
    0.0821    1.8637   -1.4753 H   0  0  0  0  0  0  0  0  0  0  0  0
    0.0498    0.7164   -2.8303 H   0  0  0  0  0  0  0  0  0  0  0  0
   -1.3518    0.8624   -1.7749 H   0  0  0  0  0  0  0  0  0  0  0  0
    1.8541   -0.1945   -0.8881 C   0  0  0  0  0  0  0  0  0  0  0  0
    2.2135    0.5567   -0.1836 H   0  0  0  0  0  0  0  0  0  0  0  0
    2.2224   -1.1687   -0.5667 H   0  0  0  0  0  0  0  0  0  0  0  0
    2.4653    0.0941   -2.2659 C   0  0  0  0  0  0  0  0  0  0  0  0
    2.2159    1.1041   -2.5908 H   0  0  0  0  0  0  0  0  0  0  0  0
    3.5503    0.0081   -2.2030 H   0  0  0  0  0  0  0  0  0  0  0  0
    2.0947   -0.6257   -2.9966 H   0  0  0  0  0  0  0  0  0  0  0  0
   -0.3971    1.3008    1.0689 C   0  0  0  0  0  0  0  0  0  0  0  0
   -1.3643    1.9819    0.7311 O   0  0  0  0  0  0  0  0  0  0  0  0
    0.5522    1.7647    1.8915 N   0  0  0  0  0  0  0  0  0  0  0  0
    1.3093    1.1450    2.1332 H   0  0  0  0  0  0  0  0  0  0  0  0
    0.5577    3.1119    2.4582 C   0  0  0  0  0  0  0  0  0  0  0  0
   -0.3986    3.3098    2.9475 H   0  0  0  0  0  0  0  0  0  0  0  0
    1.3619    3.2123    3.1886 H   0  0  0  0  0  0  0  0  0  0  0  0
    0.6974    3.8450    1.6614 H   0  0  0  0  0  0  0  0  0  0  0  0
  5  6  2  0  0  0  0
  5  7  1  0  0  0  0
  2  3  1  0  0  0  0
  2  4  1  0  0  0  0
  2  5  1  0  0  0  0
  1  2  1  0  0  0  0
 24 25  2  0  0  0  0
 24 26  1  0  0  0  0
 20 21  1  0  0  0  0
 20 22  1  0  0  0  0
 20 23  1  0  0  0  0
 17 18  1  0  0  0  0
 17 19  1  0  0  0  0
 17 20  1  0  0  0  0
 13 14  1  0  0  0  0
 13 15  1  0  0  0  0
 13 16  1  0  0  0  0
 11 12  1  0  0  0  0
 11 13  1  0  0  0  0
 11 17  1  0  0  0  0
  9 10  1  0  0  0  0
  9 11  1  0  0  0  0
  9 24  1  0  0  0  0
  7  8  1  0  0  0  0
  7  9  1  0  0  0  0
 28 29  1  0  0  0  0
 28 30  1  0  0  0  0
 28 31  1  0  0  0  0
 26 27  1  0  0  0  0
 26 28  1  0  0  0  0
M  END
$$$$
default_name
  -OEChem-02102213163D

 31 30  0     1  0  0  0  0  0999 V2000
   -3.0760   -3.6390    1.5496 H   0  0  0  0  0  0  0  0  0  0  0  0
   -3.0940   -2.6290    1.1426 C   0  0  0  0  0  0  0  0  0  0  0  0
   -3.7160   -1.9930    1.7706 H   0  0  0  0  0  0  0  0  0  0  0  0
   -3.4880   -2.6500    0.1286 H   0  0  0  0  0  0  0  0  0  0  0  0
   -1.6860   -2.0850    1.1196 C   0  0  0  0  0  0  0  0  0  0  0  0
   -0.7540   -2.7700    1.5226 O   0  0  0  0  0  0  0  0  0  0  0  0
   -1.5320   -0.8490    0.6496 N   0  0  0  0  0  0  0  0  0  0  0  0
   -2.3500   -0.3360    0.3566 H   0  0  0  0  0  0  0  0  0  0  0  0
   -0.2470   -0.1410    0.5576 C   0  0  1  0  0  0  0  0  0  0  0  0
    0.4572   -0.6505    1.2162 H   0  0  0  0  0  0  0  0  0  0  0  0
    0.3091   -0.2220   -0.8868 C   0  0  1  0  0  0  0  0  0  0  0  0
    0.0007   -1.1857   -1.2967 H   0  0  0  0  0  0  0  0  0  0  0  0
   -0.2616    0.8800   -1.7998 C   0  0  0  0  0  0  0  0  0  0  0  0
    0.0821    1.8637   -1.4753 H   0  0  0  0  0  0  0  0  0  0  0  0
    0.0498    0.7164   -2.8303 H   0  0  0  0  0  0  0  0  0  0  0  0
   -1.3518    0.8624   -1.7749 H   0  0  0  0  0  0  0  0  0  0  0  0
    1.8541   -0.1945   -0.8881 C   0  0  0  0  0  0  0  0  0  0  0  0
    2.2173    0.3490   -0.0148 H   0  0  0  0  0  0  0  0  0  0  0  0
    2.2230   -1.2185   -0.8314 H   0  0  0  0  0  0  0  0  0  0  0  0
    2.4592    0.4411   -2.1471 C   0  0  0  0  0  0  0  0  0  0  0  0
    2.2092    1.5006   -2.1984 H   0  0  0  0  0  0  0  0  0  0  0  0
    3.5444    0.3422   -2.1136 H   0  0  0  0  0  0  0  0  0  0  0  0
    2.0847   -0.0653   -3.0374 H   0  0  0  0  0  0  0  0  0  0  0  0
   -0.3971    1.3008    1.0689 C   0  0  0  0  0  0  0  0  0  0  0  0
   -1.3643    1.9819    0.7311 O   0  0  0  0  0  0  0  0  0  0  0  0
    0.5522    1.7647    1.8915 N   0  0  0  0  0  0  0  0  0  0  0  0
    1.3093    1.1450    2.1332 H   0  0  0  0  0  0  0  0  0  0  0  0
    0.5577    3.1119    2.4582 C   0  0  0  0  0  0  0  0  0  0  0  0
   -0.3986    3.3098    2.9475 H   0  0  0  0  0  0  0  0  0  0  0  0
    1.3619    3.2123    3.1886 H   0  0  0  0  0  0  0  0  0  0  0  0
    0.6974    3.8450    1.6614 H   0  0  0  0  0  0  0  0  0  0  0  0
  5  6  2  0  0  0  0
  5  7  1  0  0  0  0
  2  3  1  0  0  0  0
  2  4  1  0  0  0  0
  2  5  1  0  0  0  0
  1  2  1  0  0  0  0
 24 25  2  0  0  0  0
 24 26  1  0  0  0  0
 20 21  1  0  0  0  0
 20 22  1  0  0  0  0
 20 23  1  0  0  0  0
 17 18  1  0  0  0  0
 17 19  1  0  0  0  0
 17 20  1  0  0  0  0
 13 14  1  0  0  0  0
 13 15  1  0  0  0  0
 13 16  1  0  0  0  0
 11 12  1  0  0  0  0
 11 13  1  0  0  0  0
 11 17  1  0  0  0  0
  9 10  1  0  0  0  0
  9 11  1  0  0  0  0
  9 24  1  0  0  0  0
  7  8  1  0  0  0  0
  7  9  1  0  0  0  0
 28 29  1  0  0  0  0
 28 30  1  0  0  0  0
 28 31  1  0  0  0  0
 26 27  1  0  0  0  0
 26 28  1  0  0  0  0
M  END
$$$$
default_name
  -OEChem-02102213163D

 31 30  0     1  0  0  0  0  0999 V2000
   -3.0760   -3.6390    1.5496 H   0  0  0  0  0  0  0  0  0  0  0  0
   -3.0940   -2.6290    1.1426 C   0  0  0  0  0  0  0  0  0  0  0  0
   -3.7160   -1.9930    1.7706 H   0  0  0  0  0  0  0  0  0  0  0  0
   -3.4880   -2.6500    0.1286 H   0  0  0  0  0  0  0  0  0  0  0  0
   -1.6860   -2.0850    1.1196 C   0  0  0  0  0  0  0  0  0  0  0  0
   -0.7540   -2.7700    1.5226 O   0  0  0  0  0  0  0  0  0  0  0  0
   -1.5320   -0.8490    0.6496 N   0  0  0  0  0  0  0  0  0  0  0  0
   -2.3500   -0.3360    0.3566 H   0  0  0  0  0  0  0  0  0  0  0  0
   -0.2470   -0.1410    0.5576 C   0  0  1  0  0  0  0  0  0  0  0  0
    0.4572   -0.6505    1.2162 H   0  0  0  0  0  0  0  0  0  0  0  0
    0.3091   -0.2220   -0.8868 C   0  0  1  0  0  0  0  0  0  0  0  0
    0.0007   -1.1857   -1.2967 H   0  0  0  0  0  0  0  0  0  0  0  0
   -0.2616    0.8800   -1.7998 C   0  0  0  0  0  0  0  0  0  0  0  0
    0.0821    1.8637   -1.4753 H   0  0  0  0  0  0  0  0  0  0  0  0
    0.0498    0.7164   -2.8303 H   0  0  0  0  0  0  0  0  0  0  0  0
   -1.3518    0.8624   -1.7749 H   0  0  0  0  0  0  0  0  0  0  0  0
    1.8541   -0.1945   -0.8881 C   0  0  0  0  0  0  0  0  0  0  0  0
    2.2218    0.1046    0.0944 H   0  0  0  0  0  0  0  0  0  0  0  0
    2.2225   -1.1982   -1.1001 H   0  0  0  0  0  0  0  0  0  0  0  0
    2.4539    0.7455   -1.9426 C   0  0  0  0  0  0  0  0  0  0  0  0
    2.2046    1.7821   -1.7167 H   0  0  0  0  0  0  0  0  0  0  0  0
    3.5392    0.6417   -1.9408 H   0  0  0  0  0  0  0  0  0  0  0  0
    2.0749    0.4866   -2.9318 H   0  0  0  0  0  0  0  0  0  0  0  0
   -0.3971    1.3008    1.0689 C   0  0  0  0  0  0  0  0  0  0  0  0
   -1.3643    1.9819    0.7311 O   0  0  0  0  0  0  0  0  0  0  0  0
    0.5522    1.7647    1.8915 N   0  0  0  0  0  0  0  0  0  0  0  0
    1.3093    1.1450    2.1332 H   0  0  0  0  0  0  0  0  0  0  0  0
    0.5577    3.1119    2.4582 C   0  0  0  0  0  0  0  0  0  0  0  0
   -0.3986    3.3098    2.9475 H   0  0  0  0  0  0  0  0  0  0  0  0
    1.3619    3.2123    3.1886 H   0  0  0  0  0  0  0  0  0  0  0  0
    0.6974    3.8450    1.6614 H   0  0  0  0  0  0  0  0  0  0  0  0
  5  6  2  0  0  0  0
  5  7  1  0  0  0  0
  2  3  1  0  0  0  0
  2  4  1  0  0  0  0
  2  5  1  0  0  0  0
  1  2  1  0  0  0  0
 24 25  2  0  0  0  0
 24 26  1  0  0  0  0
 20 21  1  0  0  0  0
 20 22  1  0  0  0  0
 20 23  1  0  0  0  0
 17 18  1  0  0  0  0
 17 19  1  0  0  0  0
 17 20  1  0  0  0  0
 13 14  1  0  0  0  0
 13 15  1  0  0  0  0
 13 16  1  0  0  0  0
 11 12  1  0  0  0  0
 11 13  1  0  0  0  0
 11 17  1  0  0  0  0
  9 10  1  0  0  0  0
  9 11  1  0  0  0  0
  9 24  1  0  0  0  0
  7  8  1  0  0  0  0
  7  9  1  0  0  0  0
 28 29  1  0  0  0  0
 28 30  1  0  0  0  0
 28 31  1  0  0  0  0
 26 27  1  0  0  0  0
 26 28  1  0  0  0  0
M  END
$$$$
default_name
  -OEChem-02102213163D

 31 30  0     1  0  0  0  0  0999 V2000
   -3.0760   -3.6390    1.5496 H   0  0  0  0  0  0  0  0  0  0  0  0
   -3.0940   -2.6290    1.1426 C   0  0  0  0  0  0  0  0  0  0  0  0
   -3.7160   -1.9930    1.7706 H   0  0  0  0  0  0  0  0  0  0  0  0
   -3.4880   -2.6500    0.1286 H   0  0  0  0  0  0  0  0  0  0  0  0
   -1.6860   -2.0850    1.1196 C   0  0  0  0  0  0  0  0  0  0  0  0
   -0.7540   -2.7700    1.5226 O   0  0  0  0  0  0  0  0  0  0  0  0
   -1.5320   -0.8490    0.6496 N   0  0  0  0  0  0  0  0  0  0  0  0
   -2.3500   -0.3360    0.3566 H   0  0  0  0  0  0  0  0  0  0  0  0
   -0.2470   -0.1410    0.5576 C   0  0  1  0  0  0  0  0  0  0  0  0
    0.4572   -0.6505    1.2162 H   0  0  0  0  0  0  0  0  0  0  0  0
    0.3091   -0.2220   -0.8868 C   0  0  1  0  0  0  0  0  0  0  0  0
    0.0007   -1.1857   -1.2967 H   0  0  0  0  0  0  0  0  0  0  0  0
   -0.2616    0.8800   -1.7998 C   0  0  0  0  0  0  0  0  0  0  0  0
    0.0821    1.8637   -1.4753 H   0  0  0  0  0  0  0  0  0  0  0  0
    0.0498    0.7164   -2.8303 H   0  0  0  0  0  0  0  0  0  0  0  0
   -1.3518    0.8624   -1.7749 H   0  0  0  0  0  0  0  0  0  0  0  0
    1.8541   -0.1945   -0.8881 C   0  0  0  0  0  0  0  0  0  0  0  0
    2.2265   -0.1596    0.1366 H   0  0  0  0  0  0  0  0  0  0  0  0
    2.2207   -1.1090   -1.3543 H   0  0  0  0  0  0  0  0  0  0  0  0
    2.4499    0.9866   -1.6662 C   0  0  0  0  0  0  0  0  0  0  0  0
    2.2024    1.9293   -1.1786 H   0  0  0  0  0  0  0  0  0  0  0  0
    3.5351    0.8863   -1.6964 H   0  0  0  0  0  0  0  0  0  0  0  0
    2.0661    0.9924   -2.6870 H   0  0  0  0  0  0  0  0  0  0  0  0
   -0.3971    1.3008    1.0689 C   0  0  0  0  0  0  0  0  0  0  0  0
   -1.3643    1.9819    0.7311 O   0  0  0  0  0  0  0  0  0  0  0  0
    0.5522    1.7647    1.8915 N   0  0  0  0  0  0  0  0  0  0  0  0
    1.3093    1.1450    2.1332 H   0  0  0  0  0  0  0  0  0  0  0  0
    0.5577    3.1119    2.4582 C   0  0  0  0  0  0  0  0  0  0  0  0
   -0.3986    3.3098    2.9475 H   0  0  0  0  0  0  0  0  0  0  0  0
    1.3619    3.2123    3.1886 H   0  0  0  0  0  0  0  0  0  0  0  0
    0.6974    3.8450    1.6614 H   0  0  0  0  0  0  0  0  0  0  0  0
  5  6  2  0  0  0  0
  5  7  1  0  0  0  0
  2  3  1  0  0  0  0
  2  4  1  0  0  0  0
  2  5  1  0  0  0  0
  1  2  1  0  0  0  0
 24 25  2  0  0  0  0
 24 26  1  0  0  0  0
 20 21  1  0  0  0  0
 20 22  1  0  0  0  0
 20 23  1  0  0  0  0
 17 18  1  0  0  0  0
 17 19  1  0  0  0  0
 17 20  1  0  0  0  0
 13 14  1  0  0  0  0
 13 15  1  0  0  0  0
 13 16  1  0  0  0  0
 11 12  1  0  0  0  0
 11 13  1  0  0  0  0
 11 17  1  0  0  0  0
  9 10  1  0  0  0  0
  9 11  1  0  0  0  0
  9 24  1  0  0  0  0
  7  8  1  0  0  0  0
  7  9  1  0  0  0  0
 28 29  1  0  0  0  0
 28 30  1  0  0  0  0
 28 31  1  0  0  0  0
 26 27  1  0  0  0  0
 26 28  1  0  0  0  0
M  END
$$$$
default_name
  -OEChem-02102213163D

 31 30  0     1  0  0  0  0  0999 V2000
   -3.0760   -3.6390    1.5496 H   0  0  0  0  0  0  0  0  0  0  0  0
   -3.0940   -2.6290    1.1426 C   0  0  0  0  0  0  0  0  0  0  0  0
   -3.7160   -1.9930    1.7706 H   0  0  0  0  0  0  0  0  0  0  0  0
   -3.4880   -2.6500    0.1286 H   0  0  0  0  0  0  0  0  0  0  0  0
   -1.6860   -2.0850    1.1196 C   0  0  0  0  0  0  0  0  0  0  0  0
   -0.7540   -2.7700    1.5226 O   0  0  0  0  0  0  0  0  0  0  0  0
   -1.5320   -0.8490    0.6496 N   0  0  0  0  0  0  0  0  0  0  0  0
   -2.3500   -0.3360    0.3566 H   0  0  0  0  0  0  0  0  0  0  0  0
   -0.2470   -0.1410    0.5576 C   0  0  1  0  0  0  0  0  0  0  0  0
    0.4572   -0.6505    1.2162 H   0  0  0  0  0  0  0  0  0  0  0  0
    0.3091   -0.2220   -0.8868 C   0  0  1  0  0  0  0  0  0  0  0  0
    0.0007   -1.1857   -1.2967 H   0  0  0  0  0  0  0  0  0  0  0  0
   -0.2616    0.8800   -1.7998 C   0  0  0  0  0  0  0  0  0  0  0  0
    0.0821    1.8637   -1.4753 H   0  0  0  0  0  0  0  0  0  0  0  0
    0.0498    0.7164   -2.8303 H   0  0  0  0  0  0  0  0  0  0  0  0
   -1.3518    0.8624   -1.7749 H   0  0  0  0  0  0  0  0  0  0  0  0
    1.8541   -0.1945   -0.8881 C   0  0  0  0  0  0  0  0  0  0  0  0
    2.2312   -0.4258    0.1090 H   0  0  0  0  0  0  0  0  0  0  0  0
    2.2178   -0.9570   -1.5768 H   0  0  0  0  0  0  0  0  0  0  0  0
    2.4473    1.1479   -1.3368 C   0  0  0  0  0  0  0  0  0  0  0  0
    2.2028    1.9323   -0.6207 H   0  0  0  0  0  0  0  0  0  0  0  0
    3.5322    1.0593   -1.3969 H   0  0  0  0  0  0  0  0  0  0  0  0
    2.0589    1.4175   -2.3195 H   0  0  0  0  0  0  0  0  0  0  0  0
   -0.3971    1.3008    1.0689 C   0  0  0  0  0  0  0  0  0  0  0  0
   -1.3643    1.9819    0.7311 O   0  0  0  0  0  0  0  0  0  0  0  0
    0.5522    1.7647    1.8915 N   0  0  0  0  0  0  0  0  0  0  0  0
    1.3093    1.1450    2.1332 H   0  0  0  0  0  0  0  0  0  0  0  0
    0.5577    3.1119    2.4582 C   0  0  0  0  0  0  0  0  0  0  0  0
   -0.3986    3.3098    2.9475 H   0  0  0  0  0  0  0  0  0  0  0  0
    1.3619    3.2123    3.1886 H   0  0  0  0  0  0  0  0  0  0  0  0
    0.6974    3.8450    1.6614 H   0  0  0  0  0  0  0  0  0  0  0  0
  5  6  2  0  0  0  0
  5  7  1  0  0  0  0
  2  3  1  0  0  0  0
  2  4  1  0  0  0  0
  2  5  1  0  0  0  0
  1  2  1  0  0  0  0
 24 25  2  0  0  0  0
 24 26  1  0  0  0  0
 20 21  1  0  0  0  0
 20 22  1  0  0  0  0
 20 23  1  0  0  0  0
 17 18  1  0  0  0  0
 17 19  1  0  0  0  0
 17 20  1  0  0  0  0
 13 14  1  0  0  0  0
 13 15  1  0  0  0  0
 13 16  1  0  0  0  0
 11 12  1  0  0  0  0
 11 13  1  0  0  0  0
 11 17  1  0  0  0  0
  9 10  1  0  0  0  0
  9 11  1  0  0  0  0
  9 24  1  0  0  0  0
  7  8  1  0  0  0  0
  7  9  1  0  0  0  0
 28 29  1  0  0  0  0
 28 30  1  0  0  0  0
 28 31  1  0  0  0  0
 26 27  1  0  0  0  0
 26 28  1  0  0  0  0
M  END
$$$$
default_name
  -OEChem-02102213163D

 31 30  0     1  0  0  0  0  0999 V2000
   -3.0760   -3.6390    1.5496 H   0  0  0  0  0  0  0  0  0  0  0  0
   -3.0940   -2.6290    1.1426 C   0  0  0  0  0  0  0  0  0  0  0  0
   -3.7160   -1.9930    1.7706 H   0  0  0  0  0  0  0  0  0  0  0  0
   -3.4880   -2.6500    0.1286 H   0  0  0  0  0  0  0  0  0  0  0  0
   -1.6860   -2.0850    1.1196 C   0  0  0  0  0  0  0  0  0  0  0  0
   -0.7540   -2.7700    1.5226 O   0  0  0  0  0  0  0  0  0  0  0  0
   -1.5320   -0.8490    0.6496 N   0  0  0  0  0  0  0  0  0  0  0  0
   -2.3500   -0.3360    0.3566 H   0  0  0  0  0  0  0  0  0  0  0  0
   -0.2470   -0.1410    0.5576 C   0  0  1  0  0  0  0  0  0  0  0  0
    0.4572   -0.6505    1.2162 H   0  0  0  0  0  0  0  0  0  0  0  0
    0.3091   -0.2220   -0.8868 C   0  0  1  0  0  0  0  0  0  0  0  0
    0.0007   -1.1857   -1.2967 H   0  0  0  0  0  0  0  0  0  0  0  0
   -0.2616    0.8800   -1.7998 C   0  0  0  0  0  0  0  0  0  0  0  0
    0.0821    1.8637   -1.4753 H   0  0  0  0  0  0  0  0  0  0  0  0
    0.0498    0.7164   -2.8303 H   0  0  0  0  0  0  0  0  0  0  0  0
   -1.3518    0.8624   -1.7749 H   0  0  0  0  0  0  0  0  0  0  0  0
    1.8541   -0.1945   -0.8881 C   0  0  0  0  0  0  0  0  0  0  0  0
    2.2356   -0.6758    0.0134 H   0  0  0  0  0  0  0  0  0  0  0  0
    2.2140   -0.7527   -1.7523 H   0  0  0  0  0  0  0  0  0  0  0  0
    2.4463    1.2185   -0.9769 C   0  0  0  0  0  0  0  0  0  0  0  0
    2.2057    1.7908   -0.0811 H   0  0  0  0  0  0  0  0  0  0  0  0
    3.5309    1.1490   -1.0629 H   0  0  0  0  0  0  0  0  0  0  0  0
    2.0536    1.7331   -1.8545 H   0  0  0  0  0  0  0  0  0  0  0  0
   -0.3971    1.3008    1.0689 C   0  0  0  0  0  0  0  0  0  0  0  0
   -1.3643    1.9819    0.7311 O   0  0  0  0  0  0  0  0  0  0  0  0
    0.5522    1.7647    1.8915 N   0  0  0  0  0  0  0  0  0  0  0  0
    1.3093    1.1450    2.1332 H   0  0  0  0  0  0  0  0  0  0  0  0
    0.5577    3.1119    2.4582 C   0  0  0  0  0  0  0  0  0  0  0  0
   -0.3986    3.3098    2.9475 H   0  0  0  0  0  0  0  0  0  0  0  0
    1.3619    3.2123    3.1886 H   0  0  0  0  0  0  0  0  0  0  0  0
    0.6974    3.8450    1.6614 H   0  0  0  0  0  0  0  0  0  0  0  0
  5  6  2  0  0  0  0
  5  7  1  0  0  0  0
  2  3  1  0  0  0  0
  2  4  1  0  0  0  0
  2  5  1  0  0  0  0
  1  2  1  0  0  0  0
 24 25  2  0  0  0  0
 24 26  1  0  0  0  0
 20 21  1  0  0  0  0
 20 22  1  0  0  0  0
 20 23  1  0  0  0  0
 17 18  1  0  0  0  0
 17 19  1  0  0  0  0
 17 20  1  0  0  0  0
 13 14  1  0  0  0  0
 13 15  1  0  0  0  0
 13 16  1  0  0  0  0
 11 12  1  0  0  0  0
 11 13  1  0  0  0  0
 11 17  1  0  0  0  0
  9 10  1  0  0  0  0
  9 11  1  0  0  0  0
  9 24  1  0  0  0  0
  7  8  1  0  0  0  0
  7  9  1  0  0  0  0
 28 29  1  0  0  0  0
 28 30  1  0  0  0  0
 28 31  1  0  0  0  0
 26 27  1  0  0  0  0
 26 28  1  0  0  0  0
M  END
$$$$
default_name
  -OEChem-02102213163D

 31 30  0     1  0  0  0  0  0999 V2000
   -3.0760   -3.6390    1.5496 H   0  0  0  0  0  0  0  0  0  0  0  0
   -3.0940   -2.6290    1.1426 C   0  0  0  0  0  0  0  0  0  0  0  0
   -3.7160   -1.9930    1.7706 H   0  0  0  0  0  0  0  0  0  0  0  0
   -3.4880   -2.6500    0.1286 H   0  0  0  0  0  0  0  0  0  0  0  0
   -1.6860   -2.0850    1.1196 C   0  0  0  0  0  0  0  0  0  0  0  0
   -0.7540   -2.7700    1.5226 O   0  0  0  0  0  0  0  0  0  0  0  0
   -1.5320   -0.8490    0.6496 N   0  0  0  0  0  0  0  0  0  0  0  0
   -2.3500   -0.3360    0.3566 H   0  0  0  0  0  0  0  0  0  0  0  0
   -0.2470   -0.1410    0.5576 C   0  0  1  0  0  0  0  0  0  0  0  0
    0.4572   -0.6505    1.2162 H   0  0  0  0  0  0  0  0  0  0  0  0
    0.3091   -0.2220   -0.8868 C   0  0  1  0  0  0  0  0  0  0  0  0
    0.0007   -1.1857   -1.2967 H   0  0  0  0  0  0  0  0  0  0  0  0
   -0.2616    0.8800   -1.7998 C   0  0  0  0  0  0  0  0  0  0  0  0
    0.0821    1.8637   -1.4753 H   0  0  0  0  0  0  0  0  0  0  0  0
    0.0498    0.7164   -2.8303 H   0  0  0  0  0  0  0  0  0  0  0  0
   -1.3518    0.8624   -1.7749 H   0  0  0  0  0  0  0  0  0  0  0  0
    1.8541   -0.1945   -0.8881 C   0  0  0  0  0  0  0  0  0  0  0  0
    2.2393   -0.8926   -0.1437 H   0  0  0  0  0  0  0  0  0  0  0  0
    2.2096   -0.5099   -1.8690 H   0  0  0  0  0  0  0  0  0  0  0  0
    2.4470    1.1936   -0.6109 C   0  0  0  0  0  0  0  0  0  0  0  0
    2.2110    1.5145    0.4035 H   0  0  0  0  0  0  0  0  0  0  0  0
    3.5312    1.1491   -0.7170 H   0  0  0  0  0  0  0  0  0  0  0  0
    2.0508    1.9177   -1.3237 H   0  0  0  0  0  0  0  0  0  0  0  0
   -0.3971    1.3008    1.0689 C   0  0  0  0  0  0  0  0  0  0  0  0
   -1.3643    1.9819    0.7311 O   0  0  0  0  0  0  0  0  0  0  0  0
    0.5522    1.7647    1.8915 N   0  0  0  0  0  0  0  0  0  0  0  0
    1.3093    1.1450    2.1332 H   0  0  0  0  0  0  0  0  0  0  0  0
    0.5577    3.1119    2.4582 C   0  0  0  0  0  0  0  0  0  0  0  0
   -0.3986    3.3098    2.9475 H   0  0  0  0  0  0  0  0  0  0  0  0
    1.3619    3.2123    3.1886 H   0  0  0  0  0  0  0  0  0  0  0  0
    0.6974    3.8450    1.6614 H   0  0  0  0  0  0  0  0  0  0  0  0
  5  6  2  0  0  0  0
  5  7  1  0  0  0  0
  2  3  1  0  0  0  0
  2  4  1  0  0  0  0
  2  5  1  0  0  0  0
  1  2  1  0  0  0  0
 24 25  2  0  0  0  0
 24 26  1  0  0  0  0
 20 21  1  0  0  0  0
 20 22  1  0  0  0  0
 20 23  1  0  0  0  0
 17 18  1  0  0  0  0
 17 19  1  0  0  0  0
 17 20  1  0  0  0  0
 13 14  1  0  0  0  0
 13 15  1  0  0  0  0
 13 16  1  0  0  0  0
 11 12  1  0  0  0  0
 11 13  1  0  0  0  0
 11 17  1  0  0  0  0
  9 10  1  0  0  0  0
  9 11  1  0  0  0  0
  9 24  1  0  0  0  0
  7  8  1  0  0  0  0
  7  9  1  0  0  0  0
 28 29  1  0  0  0  0
 28 30  1  0  0  0  0
 28 31  1  0  0  0  0
 26 27  1  0  0  0  0
 26 28  1  0  0  0  0
M  END
$$$$
default_name
  -OEChem-02102213163D

 31 30  0     1  0  0  0  0  0999 V2000
   -3.0760   -3.6390    1.5496 H   0  0  0  0  0  0  0  0  0  0  0  0
   -3.0940   -2.6290    1.1426 C   0  0  0  0  0  0  0  0  0  0  0  0
   -3.7160   -1.9930    1.7706 H   0  0  0  0  0  0  0  0  0  0  0  0
   -3.4880   -2.6500    0.1286 H   0  0  0  0  0  0  0  0  0  0  0  0
   -1.6860   -2.0850    1.1196 C   0  0  0  0  0  0  0  0  0  0  0  0
   -0.7540   -2.7700    1.5226 O   0  0  0  0  0  0  0  0  0  0  0  0
   -1.5320   -0.8490    0.6496 N   0  0  0  0  0  0  0  0  0  0  0  0
   -2.3500   -0.3360    0.3566 H   0  0  0  0  0  0  0  0  0  0  0  0
   -0.2470   -0.1410    0.5576 C   0  0  1  0  0  0  0  0  0  0  0  0
    0.4572   -0.6505    1.2162 H   0  0  0  0  0  0  0  0  0  0  0  0
    0.3091   -0.2220   -0.8868 C   0  0  1  0  0  0  0  0  0  0  0  0
    0.0007   -1.1857   -1.2967 H   0  0  0  0  0  0  0  0  0  0  0  0
   -0.2616    0.8800   -1.7998 C   0  0  0  0  0  0  0  0  0  0  0  0
    0.0821    1.8637   -1.4753 H   0  0  0  0  0  0  0  0  0  0  0  0
    0.0498    0.7164   -2.8303 H   0  0  0  0  0  0  0  0  0  0  0  0
   -1.3518    0.8624   -1.7749 H   0  0  0  0  0  0  0  0  0  0  0  0
    1.8541   -0.1945   -0.8881 C   0  0  0  0  0  0  0  0  0  0  0  0
    2.2421   -1.0613   -0.3515 H   0  0  0  0  0  0  0  0  0  0  0  0
    2.2048   -0.2452   -1.9188 H   0  0  0  0  0  0  0  0  0  0  0  0
    2.4494    1.0748   -0.2639 C   0  0  0  0  0  0  0  0  0  0  0  0
    2.2183    1.1222    0.8001 H   0  0  0  0  0  0  0  0  0  0  0  0
    3.5330    1.0597   -0.3829 H   0  0  0  0  0  0  0  0  0  0  0  0
    2.0505    1.9585   -0.7632 H   0  0  0  0  0  0  0  0  0  0  0  0
   -0.3971    1.3008    1.0689 C   0  0  0  0  0  0  0  0  0  0  0  0
   -1.3643    1.9819    0.7311 O   0  0  0  0  0  0  0  0  0  0  0  0
    0.5522    1.7647    1.8915 N   0  0  0  0  0  0  0  0  0  0  0  0
    1.3093    1.1450    2.1332 H   0  0  0  0  0  0  0  0  0  0  0  0
    0.5577    3.1119    2.4582 C   0  0  0  0  0  0  0  0  0  0  0  0
   -0.3986    3.3098    2.9475 H   0  0  0  0  0  0  0  0  0  0  0  0
    1.3619    3.2123    3.1886 H   0  0  0  0  0  0  0  0  0  0  0  0
    0.6974    3.8450    1.6614 H   0  0  0  0  0  0  0  0  0  0  0  0
  5  6  2  0  0  0  0
  5  7  1  0  0  0  0
  2  3  1  0  0  0  0
  2  4  1  0  0  0  0
  2  5  1  0  0  0  0
  1  2  1  0  0  0  0
 24 25  2  0  0  0  0
 24 26  1  0  0  0  0
 20 21  1  0  0  0  0
 20 22  1  0  0  0  0
 20 23  1  0  0  0  0
 17 18  1  0  0  0  0
 17 19  1  0  0  0  0
 17 20  1  0  0  0  0
 13 14  1  0  0  0  0
 13 15  1  0  0  0  0
 13 16  1  0  0  0  0
 11 12  1  0  0  0  0
 11 13  1  0  0  0  0
 11 17  1  0  0  0  0
  9 10  1  0  0  0  0
  9 11  1  0  0  0  0
  9 24  1  0  0  0  0
  7  8  1  0  0  0  0
  7  9  1  0  0  0  0
 28 29  1  0  0  0  0
 28 30  1  0  0  0  0
 28 31  1  0  0  0  0
 26 27  1  0  0  0  0
 26 28  1  0  0  0  0
M  END
$$$$
default_name
  -OEChem-02102213163D

 31 30  0     1  0  0  0  0  0999 V2000
   -3.0760   -3.6390    1.5496 H   0  0  0  0  0  0  0  0  0  0  0  0
   -3.0940   -2.6290    1.1426 C   0  0  0  0  0  0  0  0  0  0  0  0
   -3.7160   -1.9930    1.7706 H   0  0  0  0  0  0  0  0  0  0  0  0
   -3.4880   -2.6500    0.1286 H   0  0  0  0  0  0  0  0  0  0  0  0
   -1.6860   -2.0850    1.1196 C   0  0  0  0  0  0  0  0  0  0  0  0
   -0.7540   -2.7700    1.5226 O   0  0  0  0  0  0  0  0  0  0  0  0
   -1.5320   -0.8490    0.6496 N   0  0  0  0  0  0  0  0  0  0  0  0
   -2.3500   -0.3360    0.3566 H   0  0  0  0  0  0  0  0  0  0  0  0
   -0.2470   -0.1410    0.5576 C   0  0  1  0  0  0  0  0  0  0  0  0
    0.4572   -0.6505    1.2162 H   0  0  0  0  0  0  0  0  0  0  0  0
    0.3091   -0.2220   -0.8868 C   0  0  1  0  0  0  0  0  0  0  0  0
    0.0007   -1.1857   -1.2967 H   0  0  0  0  0  0  0  0  0  0  0  0
   -0.2616    0.8800   -1.7998 C   0  0  0  0  0  0  0  0  0  0  0  0
    0.0821    1.8637   -1.4753 H   0  0  0  0  0  0  0  0  0  0  0  0
    0.0498    0.7164   -2.8303 H   0  0  0  0  0  0  0  0  0  0  0  0
   -1.3518    0.8624   -1.7749 H   0  0  0  0  0  0  0  0  0  0  0  0
    1.8541   -0.1945   -0.8881 C   0  0  0  0  0  0  0  0  0  0  0  0
    2.2439   -1.1705   -0.5958 H   0  0  0  0  0  0  0  0  0  0  0  0
    2.2001    0.0234   -1.8984 H   0  0  0  0  0  0  0  0  0  0  0  0
    2.4533    0.8703    0.0406 C   0  0  0  0  0  0  0  0  0  0  0  0
    2.2271    0.6406    1.0816 H   0  0  0  0  0  0  0  0  0  0  0  0
    3.5364    0.8870   -0.0833 H   0  0  0  0  0  0  0  0  0  0  0  0
    2.0528    1.8529   -0.2112 H   0  0  0  0  0  0  0  0  0  0  0  0
   -0.3971    1.3008    1.0689 C   0  0  0  0  0  0  0  0  0  0  0  0
   -1.3643    1.9819    0.7311 O   0  0  0  0  0  0  0  0  0  0  0  0
    0.5522    1.7647    1.8915 N   0  0  0  0  0  0  0  0  0  0  0  0
    1.3093    1.1450    2.1332 H   0  0  0  0  0  0  0  0  0  0  0  0
    0.5577    3.1119    2.4582 C   0  0  0  0  0  0  0  0  0  0  0  0
   -0.3986    3.3098    2.9475 H   0  0  0  0  0  0  0  0  0  0  0  0
    1.3619    3.2123    3.1886 H   0  0  0  0  0  0  0  0  0  0  0  0
    0.6974    3.8450    1.6614 H   0  0  0  0  0  0  0  0  0  0  0  0
  5  6  2  0  0  0  0
  5  7  1  0  0  0  0
  2  3  1  0  0  0  0
  2  4  1  0  0  0  0
  2  5  1  0  0  0  0
  1  2  1  0  0  0  0
 24 25  2  0  0  0  0
 24 26  1  0  0  0  0
 20 21  1  0  0  0  0
 20 22  1  0  0  0  0
 20 23  1  0  0  0  0
 17 18  1  0  0  0  0
 17 19  1  0  0  0  0
 17 20  1  0  0  0  0
 13 14  1  0  0  0  0
 13 15  1  0  0  0  0
 13 16  1  0  0  0  0
 11 12  1  0  0  0  0
 11 13  1  0  0  0  0
 11 17  1  0  0  0  0
  9 10  1  0  0  0  0
  9 11  1  0  0  0  0
  9 24  1  0  0  0  0
  7  8  1  0  0  0  0
  7  9  1  0  0  0  0
 28 29  1  0  0  0  0
 28 30  1  0  0  0  0
 28 31  1  0  0  0  0
 26 27  1  0  0  0  0
 26 28  1  0  0  0  0
M  END
$$$$
default_name
  -OEChem-02102213163D

 31 30  0     1  0  0  0  0  0999 V2000
   -3.0760   -3.6390    1.5496 H   0  0  0  0  0  0  0  0  0  0  0  0
   -3.0940   -2.6290    1.1426 C   0  0  0  0  0  0  0  0  0  0  0  0
   -3.7160   -1.9930    1.7706 H   0  0  0  0  0  0  0  0  0  0  0  0
   -3.4880   -2.6500    0.1286 H   0  0  0  0  0  0  0  0  0  0  0  0
   -1.6860   -2.0850    1.1196 C   0  0  0  0  0  0  0  0  0  0  0  0
   -0.7540   -2.7700    1.5226 O   0  0  0  0  0  0  0  0  0  0  0  0
   -1.5320   -0.8490    0.6496 N   0  0  0  0  0  0  0  0  0  0  0  0
   -2.3500   -0.3360    0.3566 H   0  0  0  0  0  0  0  0  0  0  0  0
   -0.2470   -0.1410    0.5576 C   0  0  1  0  0  0  0  0  0  0  0  0
    0.4572   -0.6505    1.2162 H   0  0  0  0  0  0  0  0  0  0  0  0
    0.3091   -0.2220   -0.8868 C   0  0  1  0  0  0  0  0  0  0  0  0
    0.0007   -1.1857   -1.2967 H   0  0  0  0  0  0  0  0  0  0  0  0
   -0.2616    0.8800   -1.7998 C   0  0  0  0  0  0  0  0  0  0  0  0
    0.0821    1.8637   -1.4753 H   0  0  0  0  0  0  0  0  0  0  0  0
    0.0498    0.7164   -2.8303 H   0  0  0  0  0  0  0  0  0  0  0  0
   -1.3518    0.8624   -1.7749 H   0  0  0  0  0  0  0  0  0  0  0  0
    1.8541   -0.1945   -0.8881 C   0  0  0  0  0  0  0  0  0  0  0  0
    2.2444   -1.2127   -0.8602 H   0  0  0  0  0  0  0  0  0  0  0  0
    2.1956    0.2776   -1.8092 H   0  0  0  0  0  0  0  0  0  0  0  0
    2.4584    0.5940    0.2817 C   0  0  0  0  0  0  0  0  0  0  0  0
    2.2368    0.1026    1.2289 H   0  0  0  0  0  0  0  0  0  0  0  0
    3.5409    0.6425    0.1613 H   0  0  0  0  0  0  0  0  0  0  0  0
    2.0576    1.6081    0.2946 H   0  0  0  0  0  0  0  0  0  0  0  0
   -0.3971    1.3008    1.0689 C   0  0  0  0  0  0  0  0  0  0  0  0
   -1.3643    1.9819    0.7311 O   0  0  0  0  0  0  0  0  0  0  0  0
    0.5522    1.7647    1.8915 N   0  0  0  0  0  0  0  0  0  0  0  0
    1.3093    1.1450    2.1332 H   0  0  0  0  0  0  0  0  0  0  0  0
    0.5577    3.1119    2.4582 C   0  0  0  0  0  0  0  0  0  0  0  0
   -0.3986    3.3098    2.9475 H   0  0  0  0  0  0  0  0  0  0  0  0
    1.3619    3.2123    3.1886 H   0  0  0  0  0  0  0  0  0  0  0  0
    0.6974    3.8450    1.6614 H   0  0  0  0  0  0  0  0  0  0  0  0
  5  6  2  0  0  0  0
  5  7  1  0  0  0  0
  2  3  1  0  0  0  0
  2  4  1  0  0  0  0
  2  5  1  0  0  0  0
  1  2  1  0  0  0  0
 24 25  2  0  0  0  0
 24 26  1  0  0  0  0
 20 21  1  0  0  0  0
 20 22  1  0  0  0  0
 20 23  1  0  0  0  0
 17 18  1  0  0  0  0
 17 19  1  0  0  0  0
 17 20  1  0  0  0  0
 13 14  1  0  0  0  0
 13 15  1  0  0  0  0
 13 16  1  0  0  0  0
 11 12  1  0  0  0  0
 11 13  1  0  0  0  0
 11 17  1  0  0  0  0
  9 10  1  0  0  0  0
  9 11  1  0  0  0  0
  9 24  1  0  0  0  0
  7  8  1  0  0  0  0
  7  9  1  0  0  0  0
 28 29  1  0  0  0  0
 28 30  1  0  0  0  0
 28 31  1  0  0  0  0
 26 27  1  0  0  0  0
 26 28  1  0  0  0  0
M  END
$$$$
default_name
  -OEChem-02102213163D

 31 30  0     1  0  0  0  0  0999 V2000
   -3.0760   -3.6390    1.5496 H   0  0  0  0  0  0  0  0  0  0  0  0
   -3.0940   -2.6290    1.1426 C   0  0  0  0  0  0  0  0  0  0  0  0
   -3.7160   -1.9930    1.7706 H   0  0  0  0  0  0  0  0  0  0  0  0
   -3.4880   -2.6500    0.1286 H   0  0  0  0  0  0  0  0  0  0  0  0
   -1.6860   -2.0850    1.1196 C   0  0  0  0  0  0  0  0  0  0  0  0
   -0.7540   -2.7700    1.5226 O   0  0  0  0  0  0  0  0  0  0  0  0
   -1.5320   -0.8490    0.6496 N   0  0  0  0  0  0  0  0  0  0  0  0
   -2.3500   -0.3360    0.3566 H   0  0  0  0  0  0  0  0  0  0  0  0
   -0.2470   -0.1410    0.5576 C   0  0  1  0  0  0  0  0  0  0  0  0
    0.4572   -0.6505    1.2162 H   0  0  0  0  0  0  0  0  0  0  0  0
    0.3091   -0.2220   -0.8868 C   0  0  1  0  0  0  0  0  0  0  0  0
    0.0007   -1.1857   -1.2967 H   0  0  0  0  0  0  0  0  0  0  0  0
   -0.2616    0.8800   -1.7998 C   0  0  0  0  0  0  0  0  0  0  0  0
    0.0821    1.8637   -1.4753 H   0  0  0  0  0  0  0  0  0  0  0  0
    0.0498    0.7164   -2.8303 H   0  0  0  0  0  0  0  0  0  0  0  0
   -1.3518    0.8624   -1.7749 H   0  0  0  0  0  0  0  0  0  0  0  0
    1.8541   -0.1945   -0.8881 C   0  0  0  0  0  0  0  0  0  0  0  0
    2.2437   -1.1851   -1.1264 H   0  0  0  0  0  0  0  0  0  0  0  0
    2.1918    0.5000   -1.6573 H   0  0  0  0  0  0  0  0  0  0  0  0
    2.4644    0.2646    0.4431 C   0  0  0  0  0  0  0  0  0  0  0  0
    2.2468   -0.4552    1.2319 H   0  0  0  0  0  0  0  0  0  0  0  0
    3.5464    0.3431    0.3343 H   0  0  0  0  0  0  0  0  0  0  0  0
    2.0645    1.2407    0.7199 H   0  0  0  0  0  0  0  0  0  0  0  0
   -0.3971    1.3008    1.0689 C   0  0  0  0  0  0  0  0  0  0  0  0
   -1.3643    1.9819    0.7311 O   0  0  0  0  0  0  0  0  0  0  0  0
    0.5522    1.7647    1.8915 N   0  0  0  0  0  0  0  0  0  0  0  0
    1.3093    1.1450    2.1332 H   0  0  0  0  0  0  0  0  0  0  0  0
    0.5577    3.1119    2.4582 C   0  0  0  0  0  0  0  0  0  0  0  0
   -0.3986    3.3098    2.9475 H   0  0  0  0  0  0  0  0  0  0  0  0
    1.3619    3.2123    3.1886 H   0  0  0  0  0  0  0  0  0  0  0  0
    0.6974    3.8450    1.6614 H   0  0  0  0  0  0  0  0  0  0  0  0
  5  6  2  0  0  0  0
  5  7  1  0  0  0  0
  2  3  1  0  0  0  0
  2  4  1  0  0  0  0
  2  5  1  0  0  0  0
  1  2  1  0  0  0  0
 24 25  2  0  0  0  0
 24 26  1  0  0  0  0
 20 21  1  0  0  0  0
 20 22  1  0  0  0  0
 20 23  1  0  0  0  0
 17 18  1  0  0  0  0
 17 19  1  0  0  0  0
 17 20  1  0  0  0  0
 13 14  1  0  0  0  0
 13 15  1  0  0  0  0
 13 16  1  0  0  0  0
 11 12  1  0  0  0  0
 11 13  1  0  0  0  0
 11 17  1  0  0  0  0
  9 10  1  0  0  0  0
  9 11  1  0  0  0  0
  9 24  1  0  0  0  0
  7  8  1  0  0  0  0
  7  9  1  0  0  0  0
 28 29  1  0  0  0  0
 28 30  1  0  0  0  0
 28 31  1  0  0  0  0
 26 27  1  0  0  0  0
 26 28  1  0  0  0  0
M  END
$$$$
default_name
  -OEChem-02102213163D

 31 30  0     1  0  0  0  0  0999 V2000
   -3.0760   -3.6390    1.5496 H   0  0  0  0  0  0  0  0  0  0  0  0
   -3.0940   -2.6290    1.1426 C   0  0  0  0  0  0  0  0  0  0  0  0
   -3.7160   -1.9930    1.7706 H   0  0  0  0  0  0  0  0  0  0  0  0
   -3.4880   -2.6500    0.1286 H   0  0  0  0  0  0  0  0  0  0  0  0
   -1.6860   -2.0850    1.1196 C   0  0  0  0  0  0  0  0  0  0  0  0
   -0.7540   -2.7700    1.5226 O   0  0  0  0  0  0  0  0  0  0  0  0
   -1.5320   -0.8490    0.6496 N   0  0  0  0  0  0  0  0  0  0  0  0
   -2.3500   -0.3360    0.3566 H   0  0  0  0  0  0  0  0  0  0  0  0
   -0.2470   -0.1410    0.5576 C   0  0  1  0  0  0  0  0  0  0  0  0
    0.4572   -0.6505    1.2162 H   0  0  0  0  0  0  0  0  0  0  0  0
    0.3091   -0.2220   -0.8868 C   0  0  1  0  0  0  0  0  0  0  0  0
    0.0007   -1.1857   -1.2967 H   0  0  0  0  0  0  0  0  0  0  0  0
   -0.2616    0.8800   -1.7998 C   0  0  0  0  0  0  0  0  0  0  0  0
    0.0821    1.8637   -1.4753 H   0  0  0  0  0  0  0  0  0  0  0  0
    0.0498    0.7164   -2.8303 H   0  0  0  0  0  0  0  0  0  0  0  0
   -1.3518    0.8624   -1.7749 H   0  0  0  0  0  0  0  0  0  0  0  0
    1.8541   -0.1945   -0.8881 C   0  0  0  0  0  0  0  0  0  0  0  0
    2.2418   -1.0895   -1.3764 H   0  0  0  0  0  0  0  0  0  0  0  0
    2.1888    0.6755   -1.4529 H   0  0  0  0  0  0  0  0  0  0  0  0
    2.4709   -0.0952    0.5137 C   0  0  0  0  0  0  0  0  0  0  0  0
    2.2562   -0.9948    1.0904 H   0  0  0  0  0  0  0  0  0  0  0  0
    3.5524    0.0092    0.4240 H   0  0  0  0  0  0  0  0  0  0  0  0
    2.0730    0.7758    1.0355 H   0  0  0  0  0  0  0  0  0  0  0  0
   -0.3971    1.3008    1.0689 C   0  0  0  0  0  0  0  0  0  0  0  0
   -1.3643    1.9819    0.7311 O   0  0  0  0  0  0  0  0  0  0  0  0
    0.5522    1.7647    1.8915 N   0  0  0  0  0  0  0  0  0  0  0  0
    1.3093    1.1450    2.1332 H   0  0  0  0  0  0  0  0  0  0  0  0
    0.5577    3.1119    2.4582 C   0  0  0  0  0  0  0  0  0  0  0  0
   -0.3986    3.3098    2.9475 H   0  0  0  0  0  0  0  0  0  0  0  0
    1.3619    3.2123    3.1886 H   0  0  0  0  0  0  0  0  0  0  0  0
    0.6974    3.8450    1.6614 H   0  0  0  0  0  0  0  0  0  0  0  0
  5  6  2  0  0  0  0
  5  7  1  0  0  0  0
  2  3  1  0  0  0  0
  2  4  1  0  0  0  0
  2  5  1  0  0  0  0
  1  2  1  0  0  0  0
 24 25  2  0  0  0  0
 24 26  1  0  0  0  0
 20 21  1  0  0  0  0
 20 22  1  0  0  0  0
 20 23  1  0  0  0  0
 17 18  1  0  0  0  0
 17 19  1  0  0  0  0
 17 20  1  0  0  0  0
 13 14  1  0  0  0  0
 13 15  1  0  0  0  0
 13 16  1  0  0  0  0
 11 12  1  0  0  0  0
 11 13  1  0  0  0  0
 11 17  1  0  0  0  0
  9 10  1  0  0  0  0
  9 11  1  0  0  0  0
  9 24  1  0  0  0  0
  7  8  1  0  0  0  0
  7  9  1  0  0  0  0
 28 29  1  0  0  0  0
 28 30  1  0  0  0  0
 28 31  1  0  0  0  0
 26 27  1  0  0  0  0
 26 28  1  0  0  0  0
M  END
$$$$
default_name
  -OEChem-02102213163D

 31 30  0     1  0  0  0  0  0999 V2000
   -3.0760   -3.6390    1.5496 H   0  0  0  0  0  0  0  0  0  0  0  0
   -3.0940   -2.6290    1.1426 C   0  0  0  0  0  0  0  0  0  0  0  0
   -3.7160   -1.9930    1.7706 H   0  0  0  0  0  0  0  0  0  0  0  0
   -3.4880   -2.6500    0.1286 H   0  0  0  0  0  0  0  0  0  0  0  0
   -1.6860   -2.0850    1.1196 C   0  0  0  0  0  0  0  0  0  0  0  0
   -0.7540   -2.7700    1.5226 O   0  0  0  0  0  0  0  0  0  0  0  0
   -1.5320   -0.8490    0.6496 N   0  0  0  0  0  0  0  0  0  0  0  0
   -2.3500   -0.3360    0.3566 H   0  0  0  0  0  0  0  0  0  0  0  0
   -0.2470   -0.1410    0.5576 C   0  0  1  0  0  0  0  0  0  0  0  0
    0.4572   -0.6505    1.2162 H   0  0  0  0  0  0  0  0  0  0  0  0
    0.3091   -0.2220   -0.8868 C   0  0  1  0  0  0  0  0  0  0  0  0
    0.0007   -1.1857   -1.2967 H   0  0  0  0  0  0  0  0  0  0  0  0
   -0.2616    0.8800   -1.7998 C   0  0  0  0  0  0  0  0  0  0  0  0
    0.0821    1.8637   -1.4753 H   0  0  0  0  0  0  0  0  0  0  0  0
    0.0498    0.7164   -2.8303 H   0  0  0  0  0  0  0  0  0  0  0  0
   -1.3518    0.8624   -1.7749 H   0  0  0  0  0  0  0  0  0  0  0  0
    1.8541   -0.1945   -0.8881 C   0  0  0  0  0  0  0  0  0  0  0  0
    2.2389   -0.9325   -1.5932 H   0  0  0  0  0  0  0  0  0  0  0  0
    2.1870    0.7922   -1.2101 H   0  0  0  0  0  0  0  0  0  0  0  0
    2.4774   -0.4611    0.4888 C   0  0  0  0  0  0  0  0  0  0  0  0
    2.2646   -1.4793    0.8140 H   0  0  0  0  0  0  0  0  0  0  0  0
    3.5585   -0.3366    0.4241 H   0  0  0  0  0  0  0  0  0  0  0  0
    2.0826    0.2451    1.2200 H   0  0  0  0  0  0  0  0  0  0  0  0
   -0.3971    1.3008    1.0689 C   0  0  0  0  0  0  0  0  0  0  0  0
   -1.3643    1.9819    0.7311 O   0  0  0  0  0  0  0  0  0  0  0  0
    0.5522    1.7647    1.8915 N   0  0  0  0  0  0  0  0  0  0  0  0
    1.3093    1.1450    2.1332 H   0  0  0  0  0  0  0  0  0  0  0  0
    0.5577    3.1119    2.4582 C   0  0  0  0  0  0  0  0  0  0  0  0
   -0.3986    3.3098    2.9475 H   0  0  0  0  0  0  0  0  0  0  0  0
    1.3619    3.2123    3.1886 H   0  0  0  0  0  0  0  0  0  0  0  0
    0.6974    3.8450    1.6614 H   0  0  0  0  0  0  0  0  0  0  0  0
  5  6  2  0  0  0  0
  5  7  1  0  0  0  0
  2  3  1  0  0  0  0
  2  4  1  0  0  0  0
  2  5  1  0  0  0  0
  1  2  1  0  0  0  0
 24 25  2  0  0  0  0
 24 26  1  0  0  0  0
 20 21  1  0  0  0  0
 20 22  1  0  0  0  0
 20 23  1  0  0  0  0
 17 18  1  0  0  0  0
 17 19  1  0  0  0  0
 17 20  1  0  0  0  0
 13 14  1  0  0  0  0
 13 15  1  0  0  0  0
 13 16  1  0  0  0  0
 11 12  1  0  0  0  0
 11 13  1  0  0  0  0
 11 17  1  0  0  0  0
  9 10  1  0  0  0  0
  9 11  1  0  0  0  0
  9 24  1  0  0  0  0
  7  8  1  0  0  0  0
  7  9  1  0  0  0  0
 28 29  1  0  0  0  0
 28 30  1  0  0  0  0
 28 31  1  0  0  0  0
 26 27  1  0  0  0  0
 26 28  1  0  0  0  0
M  END
$$$$
default_name
  -OEChem-02102213163D

 31 30  0     1  0  0  0  0  0999 V2000
   -3.0760   -3.6390    1.5496 H   0  0  0  0  0  0  0  0  0  0  0  0
   -3.0940   -2.6290    1.1426 C   0  0  0  0  0  0  0  0  0  0  0  0
   -3.7160   -1.9930    1.7706 H   0  0  0  0  0  0  0  0  0  0  0  0
   -3.4880   -2.6500    0.1286 H   0  0  0  0  0  0  0  0  0  0  0  0
   -1.6860   -2.0850    1.1196 C   0  0  0  0  0  0  0  0  0  0  0  0
   -0.7540   -2.7700    1.5226 O   0  0  0  0  0  0  0  0  0  0  0  0
   -1.5320   -0.8490    0.6496 N   0  0  0  0  0  0  0  0  0  0  0  0
   -2.3500   -0.3360    0.3566 H   0  0  0  0  0  0  0  0  0  0  0  0
   -0.2470   -0.1410    0.5576 C   0  0  1  0  0  0  0  0  0  0  0  0
    0.4572   -0.6505    1.2162 H   0  0  0  0  0  0  0  0  0  0  0  0
    0.3091   -0.2220   -0.8868 C   0  0  1  0  0  0  0  0  0  0  0  0
    0.0007   -1.1857   -1.2967 H   0  0  0  0  0  0  0  0  0  0  0  0
   -0.2616    0.8800   -1.7998 C   0  0  0  0  0  0  0  0  0  0  0  0
    0.0821    1.8637   -1.4753 H   0  0  0  0  0  0  0  0  0  0  0  0
    0.0498    0.7164   -2.8303 H   0  0  0  0  0  0  0  0  0  0  0  0
   -1.3518    0.8624   -1.7749 H   0  0  0  0  0  0  0  0  0  0  0  0
    1.8541   -0.1945   -0.8881 C   0  0  0  0  0  0  0  0  0  0  0  0
    2.2350   -0.7247   -1.7619 H   0  0  0  0  0  0  0  0  0  0  0  0
    2.1863    0.8420   -0.9453 H   0  0  0  0  0  0  0  0  0  0  0  0
    2.4835   -0.8081    0.3700 C   0  0  0  0  0  0  0  0  0  0  0  0
    2.2714   -1.8759    0.4216 H   0  0  0  0  0  0  0  0  0  0  0  0
    3.5644   -0.6707    0.3347 H   0  0  0  0  0  0  0  0  0  0  0  0
    2.0926   -0.3154    1.2609 H   0  0  0  0  0  0  0  0  0  0  0  0
   -0.3971    1.3008    1.0689 C   0  0  0  0  0  0  0  0  0  0  0  0
   -1.3643    1.9819    0.7311 O   0  0  0  0  0  0  0  0  0  0  0  0
    0.5522    1.7647    1.8915 N   0  0  0  0  0  0  0  0  0  0  0  0
    1.3093    1.1450    2.1332 H   0  0  0  0  0  0  0  0  0  0  0  0
    0.5577    3.1119    2.4582 C   0  0  0  0  0  0  0  0  0  0  0  0
   -0.3986    3.3098    2.9475 H   0  0  0  0  0  0  0  0  0  0  0  0
    1.3619    3.2123    3.1886 H   0  0  0  0  0  0  0  0  0  0  0  0
    0.6974    3.8450    1.6614 H   0  0  0  0  0  0  0  0  0  0  0  0
  5  6  2  0  0  0  0
  5  7  1  0  0  0  0
  2  3  1  0  0  0  0
  2  4  1  0  0  0  0
  2  5  1  0  0  0  0
  1  2  1  0  0  0  0
 24 25  2  0  0  0  0
 24 26  1  0  0  0  0
 20 21  1  0  0  0  0
 20 22  1  0  0  0  0
 20 23  1  0  0  0  0
 17 18  1  0  0  0  0
 17 19  1  0  0  0  0
 17 20  1  0  0  0  0
 13 14  1  0  0  0  0
 13 15  1  0  0  0  0
 13 16  1  0  0  0  0
 11 12  1  0  0  0  0
 11 13  1  0  0  0  0
 11 17  1  0  0  0  0
  9 10  1  0  0  0  0
  9 11  1  0  0  0  0
  9 24  1  0  0  0  0
  7  8  1  0  0  0  0
  7  9  1  0  0  0  0
 28 29  1  0  0  0  0
 28 30  1  0  0  0  0
 28 31  1  0  0  0  0
 26 27  1  0  0  0  0
 26 28  1  0  0  0  0
M  END
$$$$
default_name
  -OEChem-02102213163D

 31 30  0     1  0  0  0  0  0999 V2000
   -3.0760   -3.6390    1.5496 H   0  0  0  0  0  0  0  0  0  0  0  0
   -3.0940   -2.6290    1.1426 C   0  0  0  0  0  0  0  0  0  0  0  0
   -3.7160   -1.9930    1.7706 H   0  0  0  0  0  0  0  0  0  0  0  0
   -3.4880   -2.6500    0.1286 H   0  0  0  0  0  0  0  0  0  0  0  0
   -1.6860   -2.0850    1.1196 C   0  0  0  0  0  0  0  0  0  0  0  0
   -0.7540   -2.7700    1.5226 O   0  0  0  0  0  0  0  0  0  0  0  0
   -1.5320   -0.8490    0.6496 N   0  0  0  0  0  0  0  0  0  0  0  0
   -2.3500   -0.3360    0.3566 H   0  0  0  0  0  0  0  0  0  0  0  0
   -0.2470   -0.1410    0.5576 C   0  0  1  0  0  0  0  0  0  0  0  0
    0.4572   -0.6505    1.2162 H   0  0  0  0  0  0  0  0  0  0  0  0
    0.3091   -0.2220   -0.8868 C   0  0  1  0  0  0  0  0  0  0  0  0
    0.0007   -1.1857   -1.2967 H   0  0  0  0  0  0  0  0  0  0  0  0
   -0.2616    0.8800   -1.7998 C   0  0  0  0  0  0  0  0  0  0  0  0
    0.0821    1.8637   -1.4753 H   0  0  0  0  0  0  0  0  0  0  0  0
    0.0498    0.7164   -2.8303 H   0  0  0  0  0  0  0  0  0  0  0  0
   -1.3518    0.8624   -1.7749 H   0  0  0  0  0  0  0  0  0  0  0  0
    1.8541   -0.1945   -0.8881 C   0  0  0  0  0  0  0  0  0  0  0  0
    2.2306   -0.4804   -1.8711 H   0  0  0  0  0  0  0  0  0  0  0  0
    2.1869    0.8217   -0.6767 H   0  0  0  0  0  0  0  0  0  0  0  0
    2.4887   -1.1125    0.1654 C   0  0  0  0  0  0  0  0  0  0  0  0
    2.2760   -2.1573   -0.0600 H   0  0  0  0  0  0  0  0  0  0  0  0
    3.5696   -0.9702    0.1619 H   0  0  0  0  0  0  0  0  0  0  0  0
    2.1023   -0.8673    1.1553 H   0  0  0  0  0  0  0  0  0  0  0  0
   -0.3971    1.3008    1.0689 C   0  0  0  0  0  0  0  0  0  0  0  0
   -1.3643    1.9819    0.7311 O   0  0  0  0  0  0  0  0  0  0  0  0
    0.5522    1.7647    1.8915 N   0  0  0  0  0  0  0  0  0  0  0  0
    1.3093    1.1450    2.1332 H   0  0  0  0  0  0  0  0  0  0  0  0
    0.5577    3.1119    2.4582 C   0  0  0  0  0  0  0  0  0  0  0  0
   -0.3986    3.3098    2.9475 H   0  0  0  0  0  0  0  0  0  0  0  0
    1.3619    3.2123    3.1886 H   0  0  0  0  0  0  0  0  0  0  0  0
    0.6974    3.8450    1.6614 H   0  0  0  0  0  0  0  0  0  0  0  0
  5  6  2  0  0  0  0
  5  7  1  0  0  0  0
  2  3  1  0  0  0  0
  2  4  1  0  0  0  0
  2  5  1  0  0  0  0
  1  2  1  0  0  0  0
 24 25  2  0  0  0  0
 24 26  1  0  0  0  0
 20 21  1  0  0  0  0
 20 22  1  0  0  0  0
 20 23  1  0  0  0  0
 17 18  1  0  0  0  0
 17 19  1  0  0  0  0
 17 20  1  0  0  0  0
 13 14  1  0  0  0  0
 13 15  1  0  0  0  0
 13 16  1  0  0  0  0
 11 12  1  0  0  0  0
 11 13  1  0  0  0  0
 11 17  1  0  0  0  0
  9 10  1  0  0  0  0
  9 11  1  0  0  0  0
  9 24  1  0  0  0  0
  7  8  1  0  0  0  0
  7  9  1  0  0  0  0
 28 29  1  0  0  0  0
 28 30  1  0  0  0  0
 28 31  1  0  0  0  0
 26 27  1  0  0  0  0
 26 28  1  0  0  0  0
M  END
$$$$
default_name
  -OEChem-02102213163D

 31 30  0     1  0  0  0  0  0999 V2000
   -3.0760   -3.6390    1.5496 H   0  0  0  0  0  0  0  0  0  0  0  0
   -3.0940   -2.6290    1.1426 C   0  0  0  0  0  0  0  0  0  0  0  0
   -3.7160   -1.9930    1.7706 H   0  0  0  0  0  0  0  0  0  0  0  0
   -3.4880   -2.6500    0.1286 H   0  0  0  0  0  0  0  0  0  0  0  0
   -1.6860   -2.0850    1.1196 C   0  0  0  0  0  0  0  0  0  0  0  0
   -0.7540   -2.7700    1.5226 O   0  0  0  0  0  0  0  0  0  0  0  0
   -1.5320   -0.8490    0.6496 N   0  0  0  0  0  0  0  0  0  0  0  0
   -2.3500   -0.3360    0.3566 H   0  0  0  0  0  0  0  0  0  0  0  0
   -0.2470   -0.1410    0.5576 C   0  0  1  0  0  0  0  0  0  0  0  0
    0.4572   -0.6505    1.2162 H   0  0  0  0  0  0  0  0  0  0  0  0
    0.3091   -0.2220   -0.8868 C   0  0  1  0  0  0  0  0  0  0  0  0
    0.0007   -1.1857   -1.2967 H   0  0  0  0  0  0  0  0  0  0  0  0
   -0.2616    0.8800   -1.7998 C   0  0  0  0  0  0  0  0  0  0  0  0
    0.0821    1.8637   -1.4753 H   0  0  0  0  0  0  0  0  0  0  0  0
    0.0498    0.7164   -2.8303 H   0  0  0  0  0  0  0  0  0  0  0  0
   -1.3518    0.8624   -1.7749 H   0  0  0  0  0  0  0  0  0  0  0  0
    1.8541   -0.1945   -0.8881 C   0  0  0  0  0  0  0  0  0  0  0  0
    2.2258   -0.2161   -1.9134 H   0  0  0  0  0  0  0  0  0  0  0  0
    2.1887    0.7325   -0.4224 H   0  0  0  0  0  0  0  0  0  0  0  0
    2.4928   -1.3536   -0.1110 C   0  0  0  0  0  0  0  0  0  0  0  0
    2.2782   -2.3046   -0.5982 H   0  0  0  0  0  0  0  0  0  0  0  0
    3.5738   -1.2148   -0.0826 H   0  0  0  0  0  0  0  0  0  0  0  0
    2.1111   -1.3730    0.9104 H   0  0  0  0  0  0  0  0  0  0  0  0
   -0.3971    1.3008    1.0689 C   0  0  0  0  0  0  0  0  0  0  0  0
   -1.3643    1.9819    0.7311 O   0  0  0  0  0  0  0  0  0  0  0  0
    0.5522    1.7647    1.8915 N   0  0  0  0  0  0  0  0  0  0  0  0
    1.3093    1.1450    2.1332 H   0  0  0  0  0  0  0  0  0  0  0  0
    0.5577    3.1119    2.4582 C   0  0  0  0  0  0  0  0  0  0  0  0
   -0.3986    3.3098    2.9475 H   0  0  0  0  0  0  0  0  0  0  0  0
    1.3619    3.2123    3.1886 H   0  0  0  0  0  0  0  0  0  0  0  0
    0.6974    3.8450    1.6614 H   0  0  0  0  0  0  0  0  0  0  0  0
  5  6  2  0  0  0  0
  5  7  1  0  0  0  0
  2  3  1  0  0  0  0
  2  4  1  0  0  0  0
  2  5  1  0  0  0  0
  1  2  1  0  0  0  0
 24 25  2  0  0  0  0
 24 26  1  0  0  0  0
 20 21  1  0  0  0  0
 20 22  1  0  0  0  0
 20 23  1  0  0  0  0
 17 18  1  0  0  0  0
 17 19  1  0  0  0  0
 17 20  1  0  0  0  0
 13 14  1  0  0  0  0
 13 15  1  0  0  0  0
 13 16  1  0  0  0  0
 11 12  1  0  0  0  0
 11 13  1  0  0  0  0
 11 17  1  0  0  0  0
  9 10  1  0  0  0  0
  9 11  1  0  0  0  0
  9 24  1  0  0  0  0
  7  8  1  0  0  0  0
  7  9  1  0  0  0  0
 28 29  1  0  0  0  0
 28 30  1  0  0  0  0
 28 31  1  0  0  0  0
 26 27  1  0  0  0  0
 26 28  1  0  0  0  0
M  END
$$$$
default_name
  -OEChem-02102213163D

 31 30  0     1  0  0  0  0  0999 V2000
   -3.0760   -3.6390    1.5496 H   0  0  0  0  0  0  0  0  0  0  0  0
   -3.0940   -2.6290    1.1426 C   0  0  0  0  0  0  0  0  0  0  0  0
   -3.7160   -1.9930    1.7706 H   0  0  0  0  0  0  0  0  0  0  0  0
   -3.4880   -2.6500    0.1286 H   0  0  0  0  0  0  0  0  0  0  0  0
   -1.6860   -2.0850    1.1196 C   0  0  0  0  0  0  0  0  0  0  0  0
   -0.7540   -2.7700    1.5226 O   0  0  0  0  0  0  0  0  0  0  0  0
   -1.5320   -0.8490    0.6496 N   0  0  0  0  0  0  0  0  0  0  0  0
   -2.3500   -0.3360    0.3566 H   0  0  0  0  0  0  0  0  0  0  0  0
   -0.2470   -0.1410    0.5576 C   0  0  1  0  0  0  0  0  0  0  0  0
    0.4572   -0.6505    1.2162 H   0  0  0  0  0  0  0  0  0  0  0  0
    0.3091   -0.2220   -0.8868 C   0  0  1  0  0  0  0  0  0  0  0  0
    0.0007   -1.1857   -1.2967 H   0  0  0  0  0  0  0  0  0  0  0  0
   -0.2616    0.8800   -1.7998 C   0  0  0  0  0  0  0  0  0  0  0  0
    0.0821    1.8637   -1.4753 H   0  0  0  0  0  0  0  0  0  0  0  0
    0.0498    0.7164   -2.8303 H   0  0  0  0  0  0  0  0  0  0  0  0
   -1.3518    0.8624   -1.7749 H   0  0  0  0  0  0  0  0  0  0  0  0
    1.8541   -0.1945   -0.8881 C   0  0  0  0  0  0  0  0  0  0  0  0
    2.2211    0.0501   -1.8857 H   0  0  0  0  0  0  0  0  0  0  0  0
    2.1915    0.5805   -0.2000 H   0  0  0  0  0  0  0  0  0  0  0  0
    2.4954   -1.5149   -0.4404 C   0  0  0  0  0  0  0  0  0  0  0  0
    2.2778   -2.3076   -1.1560 H   0  0  0  0  0  0  0  0  0  0  0  0
    3.5766   -1.3878   -0.3820 H   0  0  0  0  0  0  0  0  0  0  0  0
    2.1184   -1.7982    0.5430 H   0  0  0  0  0  0  0  0  0  0  0  0
   -0.3971    1.3008    1.0689 C   0  0  0  0  0  0  0  0  0  0  0  0
   -1.3643    1.9819    0.7311 O   0  0  0  0  0  0  0  0  0  0  0  0
    0.5522    1.7647    1.8915 N   0  0  0  0  0  0  0  0  0  0  0  0
    1.3093    1.1450    2.1332 H   0  0  0  0  0  0  0  0  0  0  0  0
    0.5577    3.1119    2.4582 C   0  0  0  0  0  0  0  0  0  0  0  0
   -0.3986    3.3098    2.9475 H   0  0  0  0  0  0  0  0  0  0  0  0
    1.3619    3.2123    3.1886 H   0  0  0  0  0  0  0  0  0  0  0  0
    0.6974    3.8450    1.6614 H   0  0  0  0  0  0  0  0  0  0  0  0
  5  6  2  0  0  0  0
  5  7  1  0  0  0  0
  2  3  1  0  0  0  0
  2  4  1  0  0  0  0
  2  5  1  0  0  0  0
  1  2  1  0  0  0  0
 24 25  2  0  0  0  0
 24 26  1  0  0  0  0
 20 21  1  0  0  0  0
 20 22  1  0  0  0  0
 20 23  1  0  0  0  0
 17 18  1  0  0  0  0
 17 19  1  0  0  0  0
 17 20  1  0  0  0  0
 13 14  1  0  0  0  0
 13 15  1  0  0  0  0
 13 16  1  0  0  0  0
 11 12  1  0  0  0  0
 11 13  1  0  0  0  0
 11 17  1  0  0  0  0
  9 10  1  0  0  0  0
  9 11  1  0  0  0  0
  9 24  1  0  0  0  0
  7  8  1  0  0  0  0
  7  9  1  0  0  0  0
 28 29  1  0  0  0  0
 28 30  1  0  0  0  0
 28 31  1  0  0  0  0
 26 27  1  0  0  0  0
 26 28  1  0  0  0  0
M  END
$$$$
default_name
  -OEChem-02102213163D

 31 30  0     1  0  0  0  0  0999 V2000
   -3.0760   -3.6390    1.5496 H   0  0  0  0  0  0  0  0  0  0  0  0
   -3.0940   -2.6290    1.1426 C   0  0  0  0  0  0  0  0  0  0  0  0
   -3.7160   -1.9930    1.7706 H   0  0  0  0  0  0  0  0  0  0  0  0
   -3.4880   -2.6500    0.1286 H   0  0  0  0  0  0  0  0  0  0  0  0
   -1.6860   -2.0850    1.1196 C   0  0  0  0  0  0  0  0  0  0  0  0
   -0.7540   -2.7700    1.5226 O   0  0  0  0  0  0  0  0  0  0  0  0
   -1.5320   -0.8490    0.6496 N   0  0  0  0  0  0  0  0  0  0  0  0
   -2.3500   -0.3360    0.3566 H   0  0  0  0  0  0  0  0  0  0  0  0
   -0.2470   -0.1410    0.5576 C   0  0  1  0  0  0  0  0  0  0  0  0
    0.4572   -0.6505    1.2162 H   0  0  0  0  0  0  0  0  0  0  0  0
    0.3091   -0.2220   -0.8868 C   0  0  1  0  0  0  0  0  0  0  0  0
    0.0007   -1.1857   -1.2967 H   0  0  0  0  0  0  0  0  0  0  0  0
   -0.2616    0.8800   -1.7998 C   0  0  0  0  0  0  0  0  0  0  0  0
    0.0821    1.8637   -1.4753 H   0  0  0  0  0  0  0  0  0  0  0  0
    0.0498    0.7164   -2.8303 H   0  0  0  0  0  0  0  0  0  0  0  0
   -1.3518    0.8624   -1.7749 H   0  0  0  0  0  0  0  0  0  0  0  0
    1.8541   -0.1945   -0.8881 C   0  0  0  0  0  0  0  0  0  0  0  0
    2.2168    0.3001   -1.7902 H   0  0  0  0  0  0  0  0  0  0  0  0
    2.1953    0.3762   -0.0244 H   0  0  0  0  0  0  0  0  0  0  0  0
    2.4963   -1.5856   -0.8003 C   0  0  0  0  0  0  0  0  0  0  0  0
    2.2748   -2.1661   -1.6957 H   0  0  0  0  0  0  0  0  0  0  0  0
    3.5779   -1.4775   -0.7160 H   0  0  0  0  0  0  0  0  0  0  0  0
    2.1236   -2.1138    0.0780 H   0  0  0  0  0  0  0  0  0  0  0  0
   -0.3971    1.3008    1.0689 C   0  0  0  0  0  0  0  0  0  0  0  0
   -1.3643    1.9819    0.7311 O   0  0  0  0  0  0  0  0  0  0  0  0
    0.5522    1.7647    1.8915 N   0  0  0  0  0  0  0  0  0  0  0  0
    1.3093    1.1450    2.1332 H   0  0  0  0  0  0  0  0  0  0  0  0
    0.5577    3.1119    2.4582 C   0  0  0  0  0  0  0  0  0  0  0  0
   -0.3986    3.3098    2.9475 H   0  0  0  0  0  0  0  0  0  0  0  0
    1.3619    3.2123    3.1886 H   0  0  0  0  0  0  0  0  0  0  0  0
    0.6974    3.8450    1.6614 H   0  0  0  0  0  0  0  0  0  0  0  0
  5  6  2  0  0  0  0
  5  7  1  0  0  0  0
  2  3  1  0  0  0  0
  2  4  1  0  0  0  0
  2  5  1  0  0  0  0
  1  2  1  0  0  0  0
 24 25  2  0  0  0  0
 24 26  1  0  0  0  0
 20 21  1  0  0  0  0
 20 22  1  0  0  0  0
 20 23  1  0  0  0  0
 17 18  1  0  0  0  0
 17 19  1  0  0  0  0
 17 20  1  0  0  0  0
 13 14  1  0  0  0  0
 13 15  1  0  0  0  0
 13 16  1  0  0  0  0
 11 12  1  0  0  0  0
 11 13  1  0  0  0  0
 11 17  1  0  0  0  0
  9 10  1  0  0  0  0
  9 11  1  0  0  0  0
  9 24  1  0  0  0  0
  7  8  1  0  0  0  0
  7  9  1  0  0  0  0
 28 29  1  0  0  0  0
 28 30  1  0  0  0  0
 28 31  1  0  0  0  0
 26 27  1  0  0  0  0
 26 28  1  0  0  0  0
M  END
$$$$
default_name
  -OEChem-02102213163D

 31 30  0     1  0  0  0  0  0999 V2000
   -3.0760   -3.6390    1.5496 H   0  0  0  0  0  0  0  0  0  0  0  0
   -3.0940   -2.6290    1.1426 C   0  0  0  0  0  0  0  0  0  0  0  0
   -3.7160   -1.9930    1.7706 H   0  0  0  0  0  0  0  0  0  0  0  0
   -3.4880   -2.6500    0.1286 H   0  0  0  0  0  0  0  0  0  0  0  0
   -1.6860   -2.0850    1.1196 C   0  0  0  0  0  0  0  0  0  0  0  0
   -0.7540   -2.7700    1.5226 O   0  0  0  0  0  0  0  0  0  0  0  0
   -1.5320   -0.8490    0.6496 N   0  0  0  0  0  0  0  0  0  0  0  0
   -2.3500   -0.3360    0.3566 H   0  0  0  0  0  0  0  0  0  0  0  0
   -0.2470   -0.1410    0.5576 C   0  0  1  0  0  0  0  0  0  0  0  0
    0.4572   -0.6505    1.2162 H   0  0  0  0  0  0  0  0  0  0  0  0
    0.3091   -0.2220   -0.8868 C   0  0  1  0  0  0  0  0  0  0  0  0
    0.0007   -1.1857   -1.2967 H   0  0  0  0  0  0  0  0  0  0  0  0
   -0.2616    0.8800   -1.7998 C   0  0  0  0  0  0  0  0  0  0  0  0
    0.0821    1.8637   -1.4753 H   0  0  0  0  0  0  0  0  0  0  0  0
    0.0498    0.7164   -2.8303 H   0  0  0  0  0  0  0  0  0  0  0  0
   -1.3518    0.8624   -1.7749 H   0  0  0  0  0  0  0  0  0  0  0  0
    1.8541   -0.1945   -0.8881 C   0  0  0  0  0  0  0  0  0  0  0  0
    2.2130    0.5168   -1.6331 H   0  0  0  0  0  0  0  0  0  0  0  0
    2.1997    0.1334    0.0922 H   0  0  0  0  0  0  0  0  0  0  0  0
    2.4956   -1.5606   -1.1663 C   0  0  0  0  0  0  0  0  0  0  0  0
    2.2695   -1.8898   -2.1803 H   0  0  0  0  0  0  0  0  0  0  0  0
    3.5776   -1.4776   -1.0619 H   0  0  0  0  0  0  0  0  0  0  0  0
    2.1265   -2.2983   -0.4529 H   0  0  0  0  0  0  0  0  0  0  0  0
   -0.3971    1.3008    1.0689 C   0  0  0  0  0  0  0  0  0  0  0  0
   -1.3643    1.9819    0.7311 O   0  0  0  0  0  0  0  0  0  0  0  0
    0.5522    1.7647    1.8915 N   0  0  0  0  0  0  0  0  0  0  0  0
    1.3093    1.1450    2.1332 H   0  0  0  0  0  0  0  0  0  0  0  0
    0.5577    3.1119    2.4582 C   0  0  0  0  0  0  0  0  0  0  0  0
   -0.3986    3.3098    2.9475 H   0  0  0  0  0  0  0  0  0  0  0  0
    1.3619    3.2123    3.1886 H   0  0  0  0  0  0  0  0  0  0  0  0
    0.6974    3.8450    1.6614 H   0  0  0  0  0  0  0  0  0  0  0  0
  5  6  2  0  0  0  0
  5  7  1  0  0  0  0
  2  3  1  0  0  0  0
  2  4  1  0  0  0  0
  2  5  1  0  0  0  0
  1  2  1  0  0  0  0
 24 25  2  0  0  0  0
 24 26  1  0  0  0  0
 20 21  1  0  0  0  0
 20 22  1  0  0  0  0
 20 23  1  0  0  0  0
 17 18  1  0  0  0  0
 17 19  1  0  0  0  0
 17 20  1  0  0  0  0
 13 14  1  0  0  0  0
 13 15  1  0  0  0  0
 13 16  1  0  0  0  0
 11 12  1  0  0  0  0
 11 13  1  0  0  0  0
 11 17  1  0  0  0  0
  9 10  1  0  0  0  0
  9 11  1  0  0  0  0
  9 24  1  0  0  0  0
  7  8  1  0  0  0  0
  7  9  1  0  0  0  0
 28 29  1  0  0  0  0
 28 30  1  0  0  0  0
 28 31  1  0  0  0  0
 26 27  1  0  0  0  0
 26 28  1  0  0  0  0
M  END
$$$$
default_name
  -OEChem-02102213163D

 31 30  0     1  0  0  0  0  0999 V2000
   -3.0760   -3.6390    1.5496 H   0  0  0  0  0  0  0  0  0  0  0  0
   -3.0940   -2.6290    1.1426 C   0  0  0  0  0  0  0  0  0  0  0  0
   -3.7160   -1.9930    1.7706 H   0  0  0  0  0  0  0  0  0  0  0  0
   -3.4880   -2.6500    0.1286 H   0  0  0  0  0  0  0  0  0  0  0  0
   -1.6860   -2.0850    1.1196 C   0  0  0  0  0  0  0  0  0  0  0  0
   -0.7540   -2.7700    1.5226 O   0  0  0  0  0  0  0  0  0  0  0  0
   -1.5320   -0.8490    0.6496 N   0  0  0  0  0  0  0  0  0  0  0  0
   -2.3500   -0.3360    0.3566 H   0  0  0  0  0  0  0  0  0  0  0  0
   -0.2470   -0.1410    0.5576 C   0  0  1  0  0  0  0  0  0  0  0  0
    0.4572   -0.6505    1.2162 H   0  0  0  0  0  0  0  0  0  0  0  0
    0.3091   -0.2220   -0.8868 C   0  0  1  0  0  0  0  0  0  0  0  0
    0.0007   -1.1857   -1.2967 H   0  0  0  0  0  0  0  0  0  0  0  0
   -0.2616    0.8800   -1.7998 C   0  0  0  0  0  0  0  0  0  0  0  0
    0.0821    1.8637   -1.4753 H   0  0  0  0  0  0  0  0  0  0  0  0
    0.0498    0.7164   -2.8303 H   0  0  0  0  0  0  0  0  0  0  0  0
   -1.3518    0.8624   -1.7749 H   0  0  0  0  0  0  0  0  0  0  0  0
    1.8541   -0.1945   -0.8881 C   0  0  0  0  0  0  0  0  0  0  0  0
    2.2102    0.6855   -1.4253 H   0  0  0  0  0  0  0  0  0  0  0  0
    2.2045   -0.1313    0.1421 H   0  0  0  0  0  0  0  0  0  0  0  0
    2.4932   -1.4419   -1.5133 C   0  0  0  0  0  0  0  0  0  0  0  0
    2.2622   -1.4974   -2.5769 H   0  0  0  0  0  0  0  0  0  0  0  0
    3.5758   -1.3882   -1.3960 H   0  0  0  0  0  0  0  0  0  0  0  0
    2.1268   -2.3392   -1.0134 H   0  0  0  0  0  0  0  0  0  0  0  0
   -0.3971    1.3008    1.0689 C   0  0  0  0  0  0  0  0  0  0  0  0
   -1.3643    1.9819    0.7311 O   0  0  0  0  0  0  0  0  0  0  0  0
    0.5522    1.7647    1.8915 N   0  0  0  0  0  0  0  0  0  0  0  0
    1.3093    1.1450    2.1332 H   0  0  0  0  0  0  0  0  0  0  0  0
    0.5577    3.1119    2.4582 C   0  0  0  0  0  0  0  0  0  0  0  0
   -0.3986    3.3098    2.9475 H   0  0  0  0  0  0  0  0  0  0  0  0
    1.3619    3.2123    3.1886 H   0  0  0  0  0  0  0  0  0  0  0  0
    0.6974    3.8450    1.6614 H   0  0  0  0  0  0  0  0  0  0  0  0
  5  6  2  0  0  0  0
  5  7  1  0  0  0  0
  2  3  1  0  0  0  0
  2  4  1  0  0  0  0
  2  5  1  0  0  0  0
  1  2  1  0  0  0  0
 24 25  2  0  0  0  0
 24 26  1  0  0  0  0
 20 21  1  0  0  0  0
 20 22  1  0  0  0  0
 20 23  1  0  0  0  0
 17 18  1  0  0  0  0
 17 19  1  0  0  0  0
 17 20  1  0  0  0  0
 13 14  1  0  0  0  0
 13 15  1  0  0  0  0
 13 16  1  0  0  0  0
 11 12  1  0  0  0  0
 11 13  1  0  0  0  0
 11 17  1  0  0  0  0
  9 10  1  0  0  0  0
  9 11  1  0  0  0  0
  9 24  1  0  0  0  0
  7  8  1  0  0  0  0
  7  9  1  0  0  0  0
 28 29  1  0  0  0  0
 28 30  1  0  0  0  0
 28 31  1  0  0  0  0
 26 27  1  0  0  0  0
 26 28  1  0  0  0  0
M  END
$$$$
default_name
  -OEChem-02102213163D

 31 30  0     1  0  0  0  0  0999 V2000
   -3.0760   -3.6390    1.5496 H   0  0  0  0  0  0  0  0  0  0  0  0
   -3.0940   -2.6290    1.1426 C   0  0  0  0  0  0  0  0  0  0  0  0
   -3.7160   -1.9930    1.7706 H   0  0  0  0  0  0  0  0  0  0  0  0
   -3.4880   -2.6500    0.1286 H   0  0  0  0  0  0  0  0  0  0  0  0
   -1.6860   -2.0850    1.1196 C   0  0  0  0  0  0  0  0  0  0  0  0
   -0.7540   -2.7700    1.5226 O   0  0  0  0  0  0  0  0  0  0  0  0
   -1.5320   -0.8490    0.6496 N   0  0  0  0  0  0  0  0  0  0  0  0
   -2.3500   -0.3360    0.3566 H   0  0  0  0  0  0  0  0  0  0  0  0
   -0.2470   -0.1410    0.5576 C   0  0  1  0  0  0  0  0  0  0  0  0
    0.4572   -0.6505    1.2162 H   0  0  0  0  0  0  0  0  0  0  0  0
    0.3091   -0.2220   -0.8868 C   0  0  1  0  0  0  0  0  0  0  0  0
    0.0007   -1.1857   -1.2967 H   0  0  0  0  0  0  0  0  0  0  0  0
   -0.2616    0.8800   -1.7998 C   0  0  0  0  0  0  0  0  0  0  0  0
    0.0821    1.8637   -1.4753 H   0  0  0  0  0  0  0  0  0  0  0  0
    0.0498    0.7164   -2.8303 H   0  0  0  0  0  0  0  0  0  0  0  0
   -1.3518    0.8624   -1.7749 H   0  0  0  0  0  0  0  0  0  0  0  0
    1.8541   -0.1945   -0.8881 C   0  0  0  0  0  0  0  0  0  0  0  0
    2.2085    0.7947   -1.1809 H   0  0  0  0  0  0  0  0  0  0  0  0
    2.2092   -0.3999    0.1217 H   0  0  0  0  0  0  0  0  0  0  0  0
    2.4893   -1.2373   -1.8177 C   0  0  0  0  0  0  0  0  0  0  0  0
    2.2534   -1.0159   -2.8584 H   0  0  0  0  0  0  0  0  0  0  0  0
    3.5725   -1.2154   -1.6956 H   0  0  0  0  0  0  0  0  0  0  0  0
    2.1245   -2.2336   -1.5654 H   0  0  0  0  0  0  0  0  0  0  0  0
   -0.3971    1.3008    1.0689 C   0  0  0  0  0  0  0  0  0  0  0  0
   -1.3643    1.9819    0.7311 O   0  0  0  0  0  0  0  0  0  0  0  0
    0.5522    1.7647    1.8915 N   0  0  0  0  0  0  0  0  0  0  0  0
    1.3093    1.1450    2.1332 H   0  0  0  0  0  0  0  0  0  0  0  0
    0.5577    3.1119    2.4582 C   0  0  0  0  0  0  0  0  0  0  0  0
   -0.3986    3.3098    2.9475 H   0  0  0  0  0  0  0  0  0  0  0  0
    1.3619    3.2123    3.1886 H   0  0  0  0  0  0  0  0  0  0  0  0
    0.6974    3.8450    1.6614 H   0  0  0  0  0  0  0  0  0  0  0  0
  5  6  2  0  0  0  0
  5  7  1  0  0  0  0
  2  3  1  0  0  0  0
  2  4  1  0  0  0  0
  2  5  1  0  0  0  0
  1  2  1  0  0  0  0
 24 25  2  0  0  0  0
 24 26  1  0  0  0  0
 20 21  1  0  0  0  0
 20 22  1  0  0  0  0
 20 23  1  0  0  0  0
 17 18  1  0  0  0  0
 17 19  1  0  0  0  0
 17 20  1  0  0  0  0
 13 14  1  0  0  0  0
 13 15  1  0  0  0  0
 13 16  1  0  0  0  0
 11 12  1  0  0  0  0
 11 13  1  0  0  0  0
 11 17  1  0  0  0  0
  9 10  1  0  0  0  0
  9 11  1  0  0  0  0
  9 24  1  0  0  0  0
  7  8  1  0  0  0  0
  7  9  1  0  0  0  0
 28 29  1  0  0  0  0
 28 30  1  0  0  0  0
 28 31  1  0  0  0  0
 26 27  1  0  0  0  0
 26 28  1  0  0  0  0
M  END
$$$$
default_name
  -OEChem-02102213163D

 31 30  0     1  0  0  0  0  0999 V2000
   -3.0760   -3.6390    1.5496 H   0  0  0  0  0  0  0  0  0  0  0  0
   -3.0940   -2.6290    1.1426 C   0  0  0  0  0  0  0  0  0  0  0  0
   -3.7160   -1.9930    1.7706 H   0  0  0  0  0  0  0  0  0  0  0  0
   -3.4880   -2.6500    0.1286 H   0  0  0  0  0  0  0  0  0  0  0  0
   -1.6860   -2.0850    1.1196 C   0  0  0  0  0  0  0  0  0  0  0  0
   -0.7540   -2.7700    1.5226 O   0  0  0  0  0  0  0  0  0  0  0  0
   -1.5320   -0.8490    0.6496 N   0  0  0  0  0  0  0  0  0  0  0  0
   -2.3500   -0.3360    0.3566 H   0  0  0  0  0  0  0  0  0  0  0  0
   -0.2470   -0.1410    0.5576 C   0  0  1  0  0  0  0  0  0  0  0  0
    0.4572   -0.6505    1.2162 H   0  0  0  0  0  0  0  0  0  0  0  0
    0.3091   -0.2220   -0.8868 C   0  0  1  0  0  0  0  0  0  0  0  0
    0.0007   -1.1857   -1.2967 H   0  0  0  0  0  0  0  0  0  0  0  0
   -0.2616    0.8800   -1.7998 C   0  0  0  0  0  0  0  0  0  0  0  0
    0.0821    1.8637   -1.4753 H   0  0  0  0  0  0  0  0  0  0  0  0
    0.0498    0.7164   -2.8303 H   0  0  0  0  0  0  0  0  0  0  0  0
   -1.3518    0.8624   -1.7749 H   0  0  0  0  0  0  0  0  0  0  0  0
    1.8541   -0.1945   -0.8881 C   0  0  0  0  0  0  0  0  0  0  0  0
    2.2079    0.8369   -0.9166 H   0  0  0  0  0  0  0  0  0  0  0  0
    2.2137   -0.6541    0.0325 H   0  0  0  0  0  0  0  0  0  0  0  0
    2.4842   -0.9610   -2.0588 C   0  0  0  0  0  0  0  0  0  0  0  0
    2.2437   -0.4779   -3.0057 H   0  0  0  0  0  0  0  0  0  0  0  0
    3.5679   -0.9710   -1.9402 H   0  0  0  0  0  0  0  0  0  0  0  0
    2.1197   -1.9887   -2.0712 H   0  0  0  0  0  0  0  0  0  0  0  0
   -0.3971    1.3008    1.0689 C   0  0  0  0  0  0  0  0  0  0  0  0
   -1.3643    1.9819    0.7311 O   0  0  0  0  0  0  0  0  0  0  0  0
    0.5522    1.7647    1.8915 N   0  0  0  0  0  0  0  0  0  0  0  0
    1.3093    1.1450    2.1332 H   0  0  0  0  0  0  0  0  0  0  0  0
    0.5577    3.1119    2.4582 C   0  0  0  0  0  0  0  0  0  0  0  0
   -0.3986    3.3098    2.9475 H   0  0  0  0  0  0  0  0  0  0  0  0
    1.3619    3.2123    3.1886 H   0  0  0  0  0  0  0  0  0  0  0  0
    0.6974    3.8450    1.6614 H   0  0  0  0  0  0  0  0  0  0  0  0
  5  6  2  0  0  0  0
  5  7  1  0  0  0  0
  2  3  1  0  0  0  0
  2  4  1  0  0  0  0
  2  5  1  0  0  0  0
  1  2  1  0  0  0  0
 24 25  2  0  0  0  0
 24 26  1  0  0  0  0
 20 21  1  0  0  0  0
 20 22  1  0  0  0  0
 20 23  1  0  0  0  0
 17 18  1  0  0  0  0
 17 19  1  0  0  0  0
 17 20  1  0  0  0  0
 13 14  1  0  0  0  0
 13 15  1  0  0  0  0
 13 16  1  0  0  0  0
 11 12  1  0  0  0  0
 11 13  1  0  0  0  0
 11 17  1  0  0  0  0
  9 10  1  0  0  0  0
  9 11  1  0  0  0  0
  9 24  1  0  0  0  0
  7  8  1  0  0  0  0
  7  9  1  0  0  0  0
 28 29  1  0  0  0  0
 28 30  1  0  0  0  0
 28 31  1  0  0  0  0
 26 27  1  0  0  0  0
 26 28  1  0  0  0  0
M  END
$$$$
default_name
  -OEChem-02102213163D

 31 30  0     1  0  0  0  0  0999 V2000
   -3.0760   -3.6390    1.5496 H   0  0  0  0  0  0  0  0  0  0  0  0
   -3.0940   -2.6290    1.1426 C   0  0  0  0  0  0  0  0  0  0  0  0
   -3.7160   -1.9930    1.7706 H   0  0  0  0  0  0  0  0  0  0  0  0
   -3.4880   -2.6500    0.1286 H   0  0  0  0  0  0  0  0  0  0  0  0
   -1.6860   -2.0850    1.1196 C   0  0  0  0  0  0  0  0  0  0  0  0
   -0.7540   -2.7700    1.5226 O   0  0  0  0  0  0  0  0  0  0  0  0
   -1.5320   -0.8490    0.6496 N   0  0  0  0  0  0  0  0  0  0  0  0
   -2.3500   -0.3360    0.3566 H   0  0  0  0  0  0  0  0  0  0  0  0
   -0.2470   -0.1410    0.5576 C   0  0  1  0  0  0  0  0  0  0  0  0
    0.4572   -0.6505    1.2162 H   0  0  0  0  0  0  0  0  0  0  0  0
    0.3091   -0.2220   -0.8868 C   0  0  1  0  0  0  0  0  0  0  0  0
    0.0007   -1.1857   -1.2967 H   0  0  0  0  0  0  0  0  0  0  0  0
   -0.2616    0.8800   -1.7998 C   0  0  0  0  0  0  0  0  0  0  0  0
    0.0821    1.8637   -1.4753 H   0  0  0  0  0  0  0  0  0  0  0  0
    0.0498    0.7164   -2.8303 H   0  0  0  0  0  0  0  0  0  0  0  0
   -1.3518    0.8624   -1.7749 H   0  0  0  0  0  0  0  0  0  0  0  0
    1.8541   -0.1945   -0.8881 C   0  0  0  0  0  0  0  0  0  0  0  0
    2.2086    0.8093   -0.6504 H   0  0  0  0  0  0  0  0  0  0  0  0
    2.2175   -0.8765   -0.1195 H   0  0  0  0  0  0  0  0  0  0  0  0
    2.4782   -0.6317   -2.2202 C   0  0  0  0  0  0  0  0  0  0  0  0
    2.2338    0.0799   -3.0087 H   0  0  0  0  0  0  0  0  0  0  0  0
    3.5625   -0.6716   -2.1132 H   0  0  0  0  0  0  0  0  0  0  0  0
    2.1128   -1.6214   -2.4964 H   0  0  0  0  0  0  0  0  0  0  0  0
   -0.3971    1.3008    1.0689 C   0  0  0  0  0  0  0  0  0  0  0  0
   -1.3643    1.9819    0.7311 O   0  0  0  0  0  0  0  0  0  0  0  0
    0.5522    1.7647    1.8915 N   0  0  0  0  0  0  0  0  0  0  0  0
    1.3093    1.1450    2.1332 H   0  0  0  0  0  0  0  0  0  0  0  0
    0.5577    3.1119    2.4582 C   0  0  0  0  0  0  0  0  0  0  0  0
   -0.3986    3.3098    2.9475 H   0  0  0  0  0  0  0  0  0  0  0  0
    1.3619    3.2123    3.1886 H   0  0  0  0  0  0  0  0  0  0  0  0
    0.6974    3.8450    1.6614 H   0  0  0  0  0  0  0  0  0  0  0  0
  5  6  2  0  0  0  0
  5  7  1  0  0  0  0
  2  3  1  0  0  0  0
  2  4  1  0  0  0  0
  2  5  1  0  0  0  0
  1  2  1  0  0  0  0
 24 25  2  0  0  0  0
 24 26  1  0  0  0  0
 20 21  1  0  0  0  0
 20 22  1  0  0  0  0
 20 23  1  0  0  0  0
 17 18  1  0  0  0  0
 17 19  1  0  0  0  0
 17 20  1  0  0  0  0
 13 14  1  0  0  0  0
 13 15  1  0  0  0  0
 13 16  1  0  0  0  0
 11 12  1  0  0  0  0
 11 13  1  0  0  0  0
 11 17  1  0  0  0  0
  9 10  1  0  0  0  0
  9 11  1  0  0  0  0
  9 24  1  0  0  0  0
  7  8  1  0  0  0  0
  7  9  1  0  0  0  0
 28 29  1  0  0  0  0
 28 30  1  0  0  0  0
 28 31  1  0  0  0  0
 26 27  1  0  0  0  0
 26 28  1  0  0  0  0
M  END
$$$$
default_name
  -OEChem-02102213163D

 31 30  0     1  0  0  0  0  0999 V2000
   -3.0760   -3.6390    1.5496 H   0  0  0  0  0  0  0  0  0  0  0  0
   -3.0940   -2.6290    1.1426 C   0  0  0  0  0  0  0  0  0  0  0  0
   -3.7160   -1.9930    1.7706 H   0  0  0  0  0  0  0  0  0  0  0  0
   -3.4880   -2.6500    0.1286 H   0  0  0  0  0  0  0  0  0  0  0  0
   -1.6860   -2.0850    1.1196 C   0  0  0  0  0  0  0  0  0  0  0  0
   -0.7540   -2.7700    1.5226 O   0  0  0  0  0  0  0  0  0  0  0  0
   -1.5320   -0.8490    0.6496 N   0  0  0  0  0  0  0  0  0  0  0  0
   -2.3500   -0.3360    0.3566 H   0  0  0  0  0  0  0  0  0  0  0  0
   -0.2470   -0.1410    0.5576 C   0  0  1  0  0  0  0  0  0  0  0  0
    0.4572   -0.6505    1.2162 H   0  0  0  0  0  0  0  0  0  0  0  0
    0.3091   -0.2220   -0.8868 C   0  0  1  0  0  0  0  0  0  0  0  0
   -0.2118   -1.0410   -1.3866 H   0  0  0  0  0  0  0  0  0  0  0  0
    0.0431    1.0638   -1.6928 C   0  0  0  0  0  0  0  0  0  0  0  0
    0.6052    1.9014   -1.2760 H   0  0  0  0  0  0  0  0  0  0  0  0
    0.3317    0.9245   -2.7334 H   0  0  0  0  0  0  0  0  0  0  0  0
   -1.0195    1.3083   -1.6719 H   0  0  0  0  0  0  0  0  0  0  0  0
    1.8149   -0.5689   -0.8822 C   0  0  0  0  0  0  0  0  0  0  0  0
    2.3671    0.1778   -0.3100 H   0  0  0  0  0  0  0  0  0  0  0  0
    1.9500   -1.5374   -0.4008 H   0  0  0  0  0  0  0  0  0  0  0  0
    2.4306   -0.6651   -2.2847 C   0  0  0  0  0  0  0  0  0  0  0  0
    2.4193    0.3084   -2.7746 H   0  0  0  0  0  0  0  0  0  0  0  0
    3.4650   -0.9990   -2.2010 H   0  0  0  0  0  0  0  0  0  0  0  0
    1.8742   -1.3832   -2.8879 H   0  0  0  0  0  0  0  0  0  0  0  0
   -0.3971    1.3008    1.0689 C   0  0  0  0  0  0  0  0  0  0  0  0
   -1.3643    1.9819    0.7311 O   0  0  0  0  0  0  0  0  0  0  0  0
    0.5522    1.7647    1.8915 N   0  0  0  0  0  0  0  0  0  0  0  0
    1.3093    1.1450    2.1332 H   0  0  0  0  0  0  0  0  0  0  0  0
    0.5577    3.1119    2.4582 C   0  0  0  0  0  0  0  0  0  0  0  0
   -0.3986    3.3098    2.9475 H   0  0  0  0  0  0  0  0  0  0  0  0
    1.3619    3.2123    3.1886 H   0  0  0  0  0  0  0  0  0  0  0  0
    0.6974    3.8450    1.6614 H   0  0  0  0  0  0  0  0  0  0  0  0
  5  6  2  0  0  0  0
  5  7  1  0  0  0  0
  2  3  1  0  0  0  0
  2  4  1  0  0  0  0
  2  5  1  0  0  0  0
  1  2  1  0  0  0  0
 24 25  2  0  0  0  0
 24 26  1  0  0  0  0
 20 21  1  0  0  0  0
 20 22  1  0  0  0  0
 20 23  1  0  0  0  0
 17 18  1  0  0  0  0
 17 19  1  0  0  0  0
 17 20  1  0  0  0  0
 13 14  1  0  0  0  0
 13 15  1  0  0  0  0
 13 16  1  0  0  0  0
 11 12  1  0  0  0  0
 11 13  1  0  0  0  0
 11 17  1  0  0  0  0
  9 10  1  0  0  0  0
  9 11  1  0  0  0  0
  9 24  1  0  0  0  0
  7  8  1  0  0  0  0
  7  9  1  0  0  0  0
 28 29  1  0  0  0  0
 28 30  1  0  0  0  0
 28 31  1  0  0  0  0
 26 27  1  0  0  0  0
 26 28  1  0  0  0  0
M  END
$$$$
default_name
  -OEChem-02102213163D

 31 30  0     1  0  0  0  0  0999 V2000
   -3.0760   -3.6390    1.5496 H   0  0  0  0  0  0  0  0  0  0  0  0
   -3.0940   -2.6290    1.1426 C   0  0  0  0  0  0  0  0  0  0  0  0
   -3.7160   -1.9930    1.7706 H   0  0  0  0  0  0  0  0  0  0  0  0
   -3.4880   -2.6500    0.1286 H   0  0  0  0  0  0  0  0  0  0  0  0
   -1.6860   -2.0850    1.1196 C   0  0  0  0  0  0  0  0  0  0  0  0
   -0.7540   -2.7700    1.5226 O   0  0  0  0  0  0  0  0  0  0  0  0
   -1.5320   -0.8490    0.6496 N   0  0  0  0  0  0  0  0  0  0  0  0
   -2.3500   -0.3360    0.3566 H   0  0  0  0  0  0  0  0  0  0  0  0
   -0.2470   -0.1410    0.5576 C   0  0  1  0  0  0  0  0  0  0  0  0
    0.4572   -0.6505    1.2162 H   0  0  0  0  0  0  0  0  0  0  0  0
    0.3091   -0.2220   -0.8868 C   0  0  1  0  0  0  0  0  0  0  0  0
   -0.2118   -1.0410   -1.3866 H   0  0  0  0  0  0  0  0  0  0  0  0
    0.0431    1.0638   -1.6928 C   0  0  0  0  0  0  0  0  0  0  0  0
    0.6052    1.9014   -1.2760 H   0  0  0  0  0  0  0  0  0  0  0  0
    0.3317    0.9245   -2.7334 H   0  0  0  0  0  0  0  0  0  0  0  0
   -1.0195    1.3083   -1.6719 H   0  0  0  0  0  0  0  0  0  0  0  0
    1.8149   -0.5689   -0.8822 C   0  0  0  0  0  0  0  0  0  0  0  0
    2.3268    0.0056   -0.1090 H   0  0  0  0  0  0  0  0  0  0  0  0
    1.9298   -1.6284   -0.6535 H   0  0  0  0  0  0  0  0  0  0  0  0
    2.5117   -0.3123   -2.2253 C   0  0  0  0  0  0  0  0  0  0  0  0
    2.5208    0.7533   -2.4537 H   0  0  0  0  0  0  0  0  0  0  0  0
    3.5422   -0.6635   -2.1684 H   0  0  0  0  0  0  0  0  0  0  0  0
    1.9971   -0.8514   -3.0215 H   0  0  0  0  0  0  0  0  0  0  0  0
   -0.3971    1.3008    1.0689 C   0  0  0  0  0  0  0  0  0  0  0  0
   -1.3643    1.9819    0.7311 O   0  0  0  0  0  0  0  0  0  0  0  0
    0.5522    1.7647    1.8915 N   0  0  0  0  0  0  0  0  0  0  0  0
    1.3093    1.1450    2.1332 H   0  0  0  0  0  0  0  0  0  0  0  0
    0.5577    3.1119    2.4582 C   0  0  0  0  0  0  0  0  0  0  0  0
   -0.3986    3.3098    2.9475 H   0  0  0  0  0  0  0  0  0  0  0  0
    1.3619    3.2123    3.1886 H   0  0  0  0  0  0  0  0  0  0  0  0
    0.6974    3.8450    1.6614 H   0  0  0  0  0  0  0  0  0  0  0  0
  5  6  2  0  0  0  0
  5  7  1  0  0  0  0
  2  3  1  0  0  0  0
  2  4  1  0  0  0  0
  2  5  1  0  0  0  0
  1  2  1  0  0  0  0
 24 25  2  0  0  0  0
 24 26  1  0  0  0  0
 20 21  1  0  0  0  0
 20 22  1  0  0  0  0
 20 23  1  0  0  0  0
 17 18  1  0  0  0  0
 17 19  1  0  0  0  0
 17 20  1  0  0  0  0
 13 14  1  0  0  0  0
 13 15  1  0  0  0  0
 13 16  1  0  0  0  0
 11 12  1  0  0  0  0
 11 13  1  0  0  0  0
 11 17  1  0  0  0  0
  9 10  1  0  0  0  0
  9 11  1  0  0  0  0
  9 24  1  0  0  0  0
  7  8  1  0  0  0  0
  7  9  1  0  0  0  0
 28 29  1  0  0  0  0
 28 30  1  0  0  0  0
 28 31  1  0  0  0  0
 26 27  1  0  0  0  0
 26 28  1  0  0  0  0
M  END
$$$$
default_name
  -OEChem-02102213163D

 31 30  0     1  0  0  0  0  0999 V2000
   -3.0760   -3.6390    1.5496 H   0  0  0  0  0  0  0  0  0  0  0  0
   -3.0940   -2.6290    1.1426 C   0  0  0  0  0  0  0  0  0  0  0  0
   -3.7160   -1.9930    1.7706 H   0  0  0  0  0  0  0  0  0  0  0  0
   -3.4880   -2.6500    0.1286 H   0  0  0  0  0  0  0  0  0  0  0  0
   -1.6860   -2.0850    1.1196 C   0  0  0  0  0  0  0  0  0  0  0  0
   -0.7540   -2.7700    1.5226 O   0  0  0  0  0  0  0  0  0  0  0  0
   -1.5320   -0.8490    0.6496 N   0  0  0  0  0  0  0  0  0  0  0  0
   -2.3500   -0.3360    0.3566 H   0  0  0  0  0  0  0  0  0  0  0  0
   -0.2470   -0.1410    0.5576 C   0  0  1  0  0  0  0  0  0  0  0  0
    0.4572   -0.6505    1.2162 H   0  0  0  0  0  0  0  0  0  0  0  0
    0.3091   -0.2220   -0.8868 C   0  0  1  0  0  0  0  0  0  0  0  0
   -0.2118   -1.0410   -1.3866 H   0  0  0  0  0  0  0  0  0  0  0  0
    0.0431    1.0638   -1.6928 C   0  0  0  0  0  0  0  0  0  0  0  0
    0.6052    1.9014   -1.2760 H   0  0  0  0  0  0  0  0  0  0  0  0
    0.3317    0.9245   -2.7334 H   0  0  0  0  0  0  0  0  0  0  0  0
   -1.0195    1.3083   -1.6719 H   0  0  0  0  0  0  0  0  0  0  0  0
    1.8149   -0.5689   -0.8822 C   0  0  0  0  0  0  0  0  0  0  0  0
    2.2763   -0.2114    0.0393 H   0  0  0  0  0  0  0  0  0  0  0  0
    1.9251   -1.6526   -0.9218 H   0  0  0  0  0  0  0  0  0  0  0  0
    2.5863    0.0135   -2.0742 C   0  0  0  0  0  0  0  0  0  0  0  0
    2.5999    1.1022   -2.0256 H   0  0  0  0  0  0  0  0  0  0  0  0
    3.6147   -0.3475   -2.0479 H   0  0  0  0  0  0  0  0  0  0  0  0
    2.1233   -0.3038   -3.0092 H   0  0  0  0  0  0  0  0  0  0  0  0
   -0.3971    1.3008    1.0689 C   0  0  0  0  0  0  0  0  0  0  0  0
   -1.3643    1.9819    0.7311 O   0  0  0  0  0  0  0  0  0  0  0  0
    0.5522    1.7647    1.8915 N   0  0  0  0  0  0  0  0  0  0  0  0
    1.3093    1.1450    2.1332 H   0  0  0  0  0  0  0  0  0  0  0  0
    0.5577    3.1119    2.4582 C   0  0  0  0  0  0  0  0  0  0  0  0
   -0.3986    3.3098    2.9475 H   0  0  0  0  0  0  0  0  0  0  0  0
    1.3619    3.2123    3.1886 H   0  0  0  0  0  0  0  0  0  0  0  0
    0.6974    3.8450    1.6614 H   0  0  0  0  0  0  0  0  0  0  0  0
  5  6  2  0  0  0  0
  5  7  1  0  0  0  0
  2  3  1  0  0  0  0
  2  4  1  0  0  0  0
  2  5  1  0  0  0  0
  1  2  1  0  0  0  0
 24 25  2  0  0  0  0
 24 26  1  0  0  0  0
 20 21  1  0  0  0  0
 20 22  1  0  0  0  0
 20 23  1  0  0  0  0
 17 18  1  0  0  0  0
 17 19  1  0  0  0  0
 17 20  1  0  0  0  0
 13 14  1  0  0  0  0
 13 15  1  0  0  0  0
 13 16  1  0  0  0  0
 11 12  1  0  0  0  0
 11 13  1  0  0  0  0
 11 17  1  0  0  0  0
  9 10  1  0  0  0  0
  9 11  1  0  0  0  0
  9 24  1  0  0  0  0
  7  8  1  0  0  0  0
  7  9  1  0  0  0  0
 28 29  1  0  0  0  0
 28 30  1  0  0  0  0
 28 31  1  0  0  0  0
 26 27  1  0  0  0  0
 26 28  1  0  0  0  0
M  END
$$$$
default_name
  -OEChem-02102213163D

 31 30  0     1  0  0  0  0  0999 V2000
   -3.0760   -3.6390    1.5496 H   0  0  0  0  0  0  0  0  0  0  0  0
   -3.0940   -2.6290    1.1426 C   0  0  0  0  0  0  0  0  0  0  0  0
   -3.7160   -1.9930    1.7706 H   0  0  0  0  0  0  0  0  0  0  0  0
   -3.4880   -2.6500    0.1286 H   0  0  0  0  0  0  0  0  0  0  0  0
   -1.6860   -2.0850    1.1196 C   0  0  0  0  0  0  0  0  0  0  0  0
   -0.7540   -2.7700    1.5226 O   0  0  0  0  0  0  0  0  0  0  0  0
   -1.5320   -0.8490    0.6496 N   0  0  0  0  0  0  0  0  0  0  0  0
   -2.3500   -0.3360    0.3566 H   0  0  0  0  0  0  0  0  0  0  0  0
   -0.2470   -0.1410    0.5576 C   0  0  1  0  0  0  0  0  0  0  0  0
    0.4572   -0.6505    1.2162 H   0  0  0  0  0  0  0  0  0  0  0  0
    0.3091   -0.2220   -0.8868 C   0  0  1  0  0  0  0  0  0  0  0  0
   -0.2118   -1.0410   -1.3866 H   0  0  0  0  0  0  0  0  0  0  0  0
    0.0431    1.0638   -1.6928 C   0  0  0  0  0  0  0  0  0  0  0  0
    0.6052    1.9014   -1.2760 H   0  0  0  0  0  0  0  0  0  0  0  0
    0.3317    0.9245   -2.7334 H   0  0  0  0  0  0  0  0  0  0  0  0
   -1.0195    1.3083   -1.6719 H   0  0  0  0  0  0  0  0  0  0  0  0
    1.8149   -0.5689   -0.8822 C   0  0  0  0  0  0  0  0  0  0  0  0
    2.2191   -0.4585    0.1249 H   0  0  0  0  0  0  0  0  0  0  0  0
    1.9361   -1.6083   -1.1873 H   0  0  0  0  0  0  0  0  0  0  0  0
    2.6493    0.2902   -1.8418 C   0  0  0  0  0  0  0  0  0  0  0  0
    2.6511    1.3313   -1.5195 H   0  0  0  0  0  0  0  0  0  0  0  0
    3.6774   -0.0727   -1.8475 H   0  0  0  0  0  0  0  0  0  0  0  0
    2.2440    0.2220   -2.8519 H   0  0  0  0  0  0  0  0  0  0  0  0
   -0.3971    1.3008    1.0689 C   0  0  0  0  0  0  0  0  0  0  0  0
   -1.3643    1.9819    0.7311 O   0  0  0  0  0  0  0  0  0  0  0  0
    0.5522    1.7647    1.8915 N   0  0  0  0  0  0  0  0  0  0  0  0
    1.3093    1.1450    2.1332 H   0  0  0  0  0  0  0  0  0  0  0  0
    0.5577    3.1119    2.4582 C   0  0  0  0  0  0  0  0  0  0  0  0
   -0.3986    3.3098    2.9475 H   0  0  0  0  0  0  0  0  0  0  0  0
    1.3619    3.2123    3.1886 H   0  0  0  0  0  0  0  0  0  0  0  0
    0.6974    3.8450    1.6614 H   0  0  0  0  0  0  0  0  0  0  0  0
  5  6  2  0  0  0  0
  5  7  1  0  0  0  0
  2  3  1  0  0  0  0
  2  4  1  0  0  0  0
  2  5  1  0  0  0  0
  1  2  1  0  0  0  0
 24 25  2  0  0  0  0
 24 26  1  0  0  0  0
 20 21  1  0  0  0  0
 20 22  1  0  0  0  0
 20 23  1  0  0  0  0
 17 18  1  0  0  0  0
 17 19  1  0  0  0  0
 17 20  1  0  0  0  0
 13 14  1  0  0  0  0
 13 15  1  0  0  0  0
 13 16  1  0  0  0  0
 11 12  1  0  0  0  0
 11 13  1  0  0  0  0
 11 17  1  0  0  0  0
  9 10  1  0  0  0  0
  9 11  1  0  0  0  0
  9 24  1  0  0  0  0
  7  8  1  0  0  0  0
  7  9  1  0  0  0  0
 28 29  1  0  0  0  0
 28 30  1  0  0  0  0
 28 31  1  0  0  0  0
 26 27  1  0  0  0  0
 26 28  1  0  0  0  0
M  END
$$$$
default_name
  -OEChem-02102213163D

 31 30  0     1  0  0  0  0  0999 V2000
   -3.0760   -3.6390    1.5496 H   0  0  0  0  0  0  0  0  0  0  0  0
   -3.0940   -2.6290    1.1426 C   0  0  0  0  0  0  0  0  0  0  0  0
   -3.7160   -1.9930    1.7706 H   0  0  0  0  0  0  0  0  0  0  0  0
   -3.4880   -2.6500    0.1286 H   0  0  0  0  0  0  0  0  0  0  0  0
   -1.6860   -2.0850    1.1196 C   0  0  0  0  0  0  0  0  0  0  0  0
   -0.7540   -2.7700    1.5226 O   0  0  0  0  0  0  0  0  0  0  0  0
   -1.5320   -0.8490    0.6496 N   0  0  0  0  0  0  0  0  0  0  0  0
   -2.3500   -0.3360    0.3566 H   0  0  0  0  0  0  0  0  0  0  0  0
   -0.2470   -0.1410    0.5576 C   0  0  1  0  0  0  0  0  0  0  0  0
    0.4572   -0.6505    1.2162 H   0  0  0  0  0  0  0  0  0  0  0  0
    0.3091   -0.2220   -0.8868 C   0  0  1  0  0  0  0  0  0  0  0  0
   -0.2118   -1.0410   -1.3866 H   0  0  0  0  0  0  0  0  0  0  0  0
    0.0431    1.0638   -1.6928 C   0  0  0  0  0  0  0  0  0  0  0  0
    0.6052    1.9014   -1.2760 H   0  0  0  0  0  0  0  0  0  0  0  0
    0.3317    0.9245   -2.7334 H   0  0  0  0  0  0  0  0  0  0  0  0
   -1.0195    1.3083   -1.6719 H   0  0  0  0  0  0  0  0  0  0  0  0
    1.8149   -0.5689   -0.8822 C   0  0  0  0  0  0  0  0  0  0  0  0
    2.1591   -0.7188    0.1420 H   0  0  0  0  0  0  0  0  0  0  0  0
    1.9622   -1.4985   -1.4320 H   0  0  0  0  0  0  0  0  0  0  0  0
    2.6965    0.4989   -1.5439 C   0  0  0  0  0  0  0  0  0  0  0  0
    2.6710    1.4250   -0.9699 H   0  0  0  0  0  0  0  0  0  0  0  0
    3.7261    0.1423   -1.5811 H   0  0  0  0  0  0  0  0  0  0  0  0
    2.3510    0.6904   -2.5603 H   0  0  0  0  0  0  0  0  0  0  0  0
   -0.3971    1.3008    1.0689 C   0  0  0  0  0  0  0  0  0  0  0  0
   -1.3643    1.9819    0.7311 O   0  0  0  0  0  0  0  0  0  0  0  0
    0.5522    1.7647    1.8915 N   0  0  0  0  0  0  0  0  0  0  0  0
    1.3093    1.1450    2.1332 H   0  0  0  0  0  0  0  0  0  0  0  0
    0.5577    3.1119    2.4582 C   0  0  0  0  0  0  0  0  0  0  0  0
   -0.3986    3.3098    2.9475 H   0  0  0  0  0  0  0  0  0  0  0  0
    1.3619    3.2123    3.1886 H   0  0  0  0  0  0  0  0  0  0  0  0
    0.6974    3.8450    1.6614 H   0  0  0  0  0  0  0  0  0  0  0  0
  5  6  2  0  0  0  0
  5  7  1  0  0  0  0
  2  3  1  0  0  0  0
  2  4  1  0  0  0  0
  2  5  1  0  0  0  0
  1  2  1  0  0  0  0
 24 25  2  0  0  0  0
 24 26  1  0  0  0  0
 20 21  1  0  0  0  0
 20 22  1  0  0  0  0
 20 23  1  0  0  0  0
 17 18  1  0  0  0  0
 17 19  1  0  0  0  0
 17 20  1  0  0  0  0
 13 14  1  0  0  0  0
 13 15  1  0  0  0  0
 13 16  1  0  0  0  0
 11 12  1  0  0  0  0
 11 13  1  0  0  0  0
 11 17  1  0  0  0  0
  9 10  1  0  0  0  0
  9 11  1  0  0  0  0
  9 24  1  0  0  0  0
  7  8  1  0  0  0  0
  7  9  1  0  0  0  0
 28 29  1  0  0  0  0
 28 30  1  0  0  0  0
 28 31  1  0  0  0  0
 26 27  1  0  0  0  0
 26 28  1  0  0  0  0
M  END
$$$$
default_name
  -OEChem-02102213163D

 31 30  0     1  0  0  0  0  0999 V2000
   -3.0760   -3.6390    1.5496 H   0  0  0  0  0  0  0  0  0  0  0  0
   -3.0940   -2.6290    1.1426 C   0  0  0  0  0  0  0  0  0  0  0  0
   -3.7160   -1.9930    1.7706 H   0  0  0  0  0  0  0  0  0  0  0  0
   -3.4880   -2.6500    0.1286 H   0  0  0  0  0  0  0  0  0  0  0  0
   -1.6860   -2.0850    1.1196 C   0  0  0  0  0  0  0  0  0  0  0  0
   -0.7540   -2.7700    1.5226 O   0  0  0  0  0  0  0  0  0  0  0  0
   -1.5320   -0.8490    0.6496 N   0  0  0  0  0  0  0  0  0  0  0  0
   -2.3500   -0.3360    0.3566 H   0  0  0  0  0  0  0  0  0  0  0  0
   -0.2470   -0.1410    0.5576 C   0  0  1  0  0  0  0  0  0  0  0  0
    0.4572   -0.6505    1.2162 H   0  0  0  0  0  0  0  0  0  0  0  0
    0.3091   -0.2220   -0.8868 C   0  0  1  0  0  0  0  0  0  0  0  0
   -0.2118   -1.0410   -1.3866 H   0  0  0  0  0  0  0  0  0  0  0  0
    0.0431    1.0638   -1.6928 C   0  0  0  0  0  0  0  0  0  0  0  0
    0.6052    1.9014   -1.2760 H   0  0  0  0  0  0  0  0  0  0  0  0
    0.3317    0.9245   -2.7334 H   0  0  0  0  0  0  0  0  0  0  0  0
   -1.0195    1.3083   -1.6719 H   0  0  0  0  0  0  0  0  0  0  0  0
    1.8149   -0.5689   -0.8822 C   0  0  0  0  0  0  0  0  0  0  0  0
    2.1003   -0.9746    0.0893 H   0  0  0  0  0  0  0  0  0  0  0  0
    2.0015   -1.3307   -1.6391 H   0  0  0  0  0  0  0  0  0  0  0  0
    2.7246    0.6253   -1.2007 C   0  0  0  0  0  0  0  0  0  0  0  0
    2.6582    1.3769   -0.4142 H   0  0  0  0  0  0  0  0  0  0  0  0
    3.7575    0.2829   -1.2666 H   0  0  0  0  0  0  0  0  0  0  0  0
    2.4371    1.0694   -2.1544 H   0  0  0  0  0  0  0  0  0  0  0  0
   -0.3971    1.3008    1.0689 C   0  0  0  0  0  0  0  0  0  0  0  0
   -1.3643    1.9819    0.7311 O   0  0  0  0  0  0  0  0  0  0  0  0
    0.5522    1.7647    1.8915 N   0  0  0  0  0  0  0  0  0  0  0  0
    1.3093    1.1450    2.1332 H   0  0  0  0  0  0  0  0  0  0  0  0
    0.5577    3.1119    2.4582 C   0  0  0  0  0  0  0  0  0  0  0  0
   -0.3986    3.3098    2.9475 H   0  0  0  0  0  0  0  0  0  0  0  0
    1.3619    3.2123    3.1886 H   0  0  0  0  0  0  0  0  0  0  0  0
    0.6974    3.8450    1.6614 H   0  0  0  0  0  0  0  0  0  0  0  0
  5  6  2  0  0  0  0
  5  7  1  0  0  0  0
  2  3  1  0  0  0  0
  2  4  1  0  0  0  0
  2  5  1  0  0  0  0
  1  2  1  0  0  0  0
 24 25  2  0  0  0  0
 24 26  1  0  0  0  0
 20 21  1  0  0  0  0
 20 22  1  0  0  0  0
 20 23  1  0  0  0  0
 17 18  1  0  0  0  0
 17 19  1  0  0  0  0
 17 20  1  0  0  0  0
 13 14  1  0  0  0  0
 13 15  1  0  0  0  0
 13 16  1  0  0  0  0
 11 12  1  0  0  0  0
 11 13  1  0  0  0  0
 11 17  1  0  0  0  0
  9 10  1  0  0  0  0
  9 11  1  0  0  0  0
  9 24  1  0  0  0  0
  7  8  1  0  0  0  0
  7  9  1  0  0  0  0
 28 29  1  0  0  0  0
 28 30  1  0  0  0  0
 28 31  1  0  0  0  0
 26 27  1  0  0  0  0
 26 28  1  0  0  0  0
M  END
$$$$
default_name
  -OEChem-02102213163D

 31 30  0     1  0  0  0  0  0999 V2000
   -3.0760   -3.6390    1.5496 H   0  0  0  0  0  0  0  0  0  0  0  0
   -3.0940   -2.6290    1.1426 C   0  0  0  0  0  0  0  0  0  0  0  0
   -3.7160   -1.9930    1.7706 H   0  0  0  0  0  0  0  0  0  0  0  0
   -3.4880   -2.6500    0.1286 H   0  0  0  0  0  0  0  0  0  0  0  0
   -1.6860   -2.0850    1.1196 C   0  0  0  0  0  0  0  0  0  0  0  0
   -0.7540   -2.7700    1.5226 O   0  0  0  0  0  0  0  0  0  0  0  0
   -1.5320   -0.8490    0.6496 N   0  0  0  0  0  0  0  0  0  0  0  0
   -2.3500   -0.3360    0.3566 H   0  0  0  0  0  0  0  0  0  0  0  0
   -0.2470   -0.1410    0.5576 C   0  0  1  0  0  0  0  0  0  0  0  0
    0.4572   -0.6505    1.2162 H   0  0  0  0  0  0  0  0  0  0  0  0
    0.3091   -0.2220   -0.8868 C   0  0  1  0  0  0  0  0  0  0  0  0
   -0.2118   -1.0410   -1.3866 H   0  0  0  0  0  0  0  0  0  0  0  0
    0.0431    1.0638   -1.6928 C   0  0  0  0  0  0  0  0  0  0  0  0
    0.6052    1.9014   -1.2760 H   0  0  0  0  0  0  0  0  0  0  0  0
    0.3317    0.9245   -2.7334 H   0  0  0  0  0  0  0  0  0  0  0  0
   -1.0195    1.3083   -1.6719 H   0  0  0  0  0  0  0  0  0  0  0  0
    1.8149   -0.5689   -0.8822 C   0  0  0  0  0  0  0  0  0  0  0  0
    2.0468   -1.2084   -0.0294 H   0  0  0  0  0  0  0  0  0  0  0  0
    2.0514   -1.1164   -1.7945 H   0  0  0  0  0  0  0  0  0  0  0  0
    2.7316    0.6609   -0.8357 C   0  0  0  0  0  0  0  0  0  0  0  0
    2.6136    1.1903    0.1096 H   0  0  0  0  0  0  0  0  0  0  0  0
    3.7695    0.3393   -0.9256 H   0  0  0  0  0  0  0  0  0  0  0  0
    2.4963    1.3331   -1.6616 H   0  0  0  0  0  0  0  0  0  0  0  0
   -0.3971    1.3008    1.0689 C   0  0  0  0  0  0  0  0  0  0  0  0
   -1.3643    1.9819    0.7311 O   0  0  0  0  0  0  0  0  0  0  0  0
    0.5522    1.7647    1.8915 N   0  0  0  0  0  0  0  0  0  0  0  0
    1.3093    1.1450    2.1332 H   0  0  0  0  0  0  0  0  0  0  0  0
    0.5577    3.1119    2.4582 C   0  0  0  0  0  0  0  0  0  0  0  0
   -0.3986    3.3098    2.9475 H   0  0  0  0  0  0  0  0  0  0  0  0
    1.3619    3.2123    3.1886 H   0  0  0  0  0  0  0  0  0  0  0  0
    0.6974    3.8450    1.6614 H   0  0  0  0  0  0  0  0  0  0  0  0
  5  6  2  0  0  0  0
  5  7  1  0  0  0  0
  2  3  1  0  0  0  0
  2  4  1  0  0  0  0
  2  5  1  0  0  0  0
  1  2  1  0  0  0  0
 24 25  2  0  0  0  0
 24 26  1  0  0  0  0
 20 21  1  0  0  0  0
 20 22  1  0  0  0  0
 20 23  1  0  0  0  0
 17 18  1  0  0  0  0
 17 19  1  0  0  0  0
 17 20  1  0  0  0  0
 13 14  1  0  0  0  0
 13 15  1  0  0  0  0
 13 16  1  0  0  0  0
 11 12  1  0  0  0  0
 11 13  1  0  0  0  0
 11 17  1  0  0  0  0
  9 10  1  0  0  0  0
  9 11  1  0  0  0  0
  9 24  1  0  0  0  0
  7  8  1  0  0  0  0
  7  9  1  0  0  0  0
 28 29  1  0  0  0  0
 28 30  1  0  0  0  0
 28 31  1  0  0  0  0
 26 27  1  0  0  0  0
 26 28  1  0  0  0  0
M  END
$$$$
default_name
  -OEChem-02102213163D

 31 30  0     1  0  0  0  0  0999 V2000
   -3.0760   -3.6390    1.5496 H   0  0  0  0  0  0  0  0  0  0  0  0
   -3.0940   -2.6290    1.1426 C   0  0  0  0  0  0  0  0  0  0  0  0
   -3.7160   -1.9930    1.7706 H   0  0  0  0  0  0  0  0  0  0  0  0
   -3.4880   -2.6500    0.1286 H   0  0  0  0  0  0  0  0  0  0  0  0
   -1.6860   -2.0850    1.1196 C   0  0  0  0  0  0  0  0  0  0  0  0
   -0.7540   -2.7700    1.5226 O   0  0  0  0  0  0  0  0  0  0  0  0
   -1.5320   -0.8490    0.6496 N   0  0  0  0  0  0  0  0  0  0  0  0
   -2.3500   -0.3360    0.3566 H   0  0  0  0  0  0  0  0  0  0  0  0
   -0.2470   -0.1410    0.5576 C   0  0  1  0  0  0  0  0  0  0  0  0
    0.4572   -0.6505    1.2162 H   0  0  0  0  0  0  0  0  0  0  0  0
    0.3091   -0.2220   -0.8868 C   0  0  1  0  0  0  0  0  0  0  0  0
   -0.2118   -1.0410   -1.3866 H   0  0  0  0  0  0  0  0  0  0  0  0
    0.0431    1.0638   -1.6928 C   0  0  0  0  0  0  0  0  0  0  0  0
    0.6052    1.9014   -1.2760 H   0  0  0  0  0  0  0  0  0  0  0  0
    0.3317    0.9245   -2.7334 H   0  0  0  0  0  0  0  0  0  0  0  0
   -1.0195    1.3083   -1.6719 H   0  0  0  0  0  0  0  0  0  0  0  0
    1.8149   -0.5689   -0.8822 C   0  0  0  0  0  0  0  0  0  0  0  0
    2.0022   -1.4044   -0.2063 H   0  0  0  0  0  0  0  0  0  0  0  0
    2.1084   -0.8702   -1.8877 H   0  0  0  0  0  0  0  0  0  0  0  0
    2.7172    0.6033   -0.4738 C   0  0  0  0  0  0  0  0  0  0  0  0
    2.5402    0.8778    0.5660 H   0  0  0  0  0  0  0  0  0  0  0  0
    3.7611    0.3078   -0.5813 H   0  0  0  0  0  0  0  0  0  0  0  0
    2.5247    1.4636   -1.1157 H   0  0  0  0  0  0  0  0  0  0  0  0
   -0.3971    1.3008    1.0689 C   0  0  0  0  0  0  0  0  0  0  0  0
   -1.3643    1.9819    0.7311 O   0  0  0  0  0  0  0  0  0  0  0  0
    0.5522    1.7647    1.8915 N   0  0  0  0  0  0  0  0  0  0  0  0
    1.3093    1.1450    2.1332 H   0  0  0  0  0  0  0  0  0  0  0  0
    0.5577    3.1119    2.4582 C   0  0  0  0  0  0  0  0  0  0  0  0
   -0.3986    3.3098    2.9475 H   0  0  0  0  0  0  0  0  0  0  0  0
    1.3619    3.2123    3.1886 H   0  0  0  0  0  0  0  0  0  0  0  0
    0.6974    3.8450    1.6614 H   0  0  0  0  0  0  0  0  0  0  0  0
  5  6  2  0  0  0  0
  5  7  1  0  0  0  0
  2  3  1  0  0  0  0
  2  4  1  0  0  0  0
  2  5  1  0  0  0  0
  1  2  1  0  0  0  0
 24 25  2  0  0  0  0
 24 26  1  0  0  0  0
 20 21  1  0  0  0  0
 20 22  1  0  0  0  0
 20 23  1  0  0  0  0
 17 18  1  0  0  0  0
 17 19  1  0  0  0  0
 17 20  1  0  0  0  0
 13 14  1  0  0  0  0
 13 15  1  0  0  0  0
 13 16  1  0  0  0  0
 11 12  1  0  0  0  0
 11 13  1  0  0  0  0
 11 17  1  0  0  0  0
  9 10  1  0  0  0  0
  9 11  1  0  0  0  0
  9 24  1  0  0  0  0
  7  8  1  0  0  0  0
  7  9  1  0  0  0  0
 28 29  1  0  0  0  0
 28 30  1  0  0  0  0
 28 31  1  0  0  0  0
 26 27  1  0  0  0  0
 26 28  1  0  0  0  0
M  END
$$$$
default_name
  -OEChem-02102213163D

 31 30  0     1  0  0  0  0  0999 V2000
   -3.0760   -3.6390    1.5496 H   0  0  0  0  0  0  0  0  0  0  0  0
   -3.0940   -2.6290    1.1426 C   0  0  0  0  0  0  0  0  0  0  0  0
   -3.7160   -1.9930    1.7706 H   0  0  0  0  0  0  0  0  0  0  0  0
   -3.4880   -2.6500    0.1286 H   0  0  0  0  0  0  0  0  0  0  0  0
   -1.6860   -2.0850    1.1196 C   0  0  0  0  0  0  0  0  0  0  0  0
   -0.7540   -2.7700    1.5226 O   0  0  0  0  0  0  0  0  0  0  0  0
   -1.5320   -0.8490    0.6496 N   0  0  0  0  0  0  0  0  0  0  0  0
   -2.3500   -0.3360    0.3566 H   0  0  0  0  0  0  0  0  0  0  0  0
   -0.2470   -0.1410    0.5576 C   0  0  1  0  0  0  0  0  0  0  0  0
    0.4572   -0.6505    1.2162 H   0  0  0  0  0  0  0  0  0  0  0  0
    0.3091   -0.2220   -0.8868 C   0  0  1  0  0  0  0  0  0  0  0  0
   -0.2118   -1.0410   -1.3866 H   0  0  0  0  0  0  0  0  0  0  0  0
    0.0431    1.0638   -1.6928 C   0  0  0  0  0  0  0  0  0  0  0  0
    0.6052    1.9014   -1.2760 H   0  0  0  0  0  0  0  0  0  0  0  0
    0.3317    0.9245   -2.7334 H   0  0  0  0  0  0  0  0  0  0  0  0
   -1.0195    1.3083   -1.6719 H   0  0  0  0  0  0  0  0  0  0  0  0
    1.8149   -0.5689   -0.8822 C   0  0  0  0  0  0  0  0  0  0  0  0
    1.9695   -1.5491   -0.4291 H   0  0  0  0  0  0  0  0  0  0  0  0
    2.1687   -0.6087   -1.9123 H   0  0  0  0  0  0  0  0  0  0  0  0
    2.6823    0.4563   -0.1395 C   0  0  0  0  0  0  0  0  0  0  0  0
    2.4430    0.4609    0.9237 H   0  0  0  0  0  0  0  0  0  0  0  0
    3.7331    0.1905   -0.2571 H   0  0  0  0  0  0  0  0  0  0  0  0
    2.5203    1.4520   -0.5539 H   0  0  0  0  0  0  0  0  0  0  0  0
   -0.3971    1.3008    1.0689 C   0  0  0  0  0  0  0  0  0  0  0  0
   -1.3643    1.9819    0.7311 O   0  0  0  0  0  0  0  0  0  0  0  0
    0.5522    1.7647    1.8915 N   0  0  0  0  0  0  0  0  0  0  0  0
    1.3093    1.1450    2.1332 H   0  0  0  0  0  0  0  0  0  0  0  0
    0.5577    3.1119    2.4582 C   0  0  0  0  0  0  0  0  0  0  0  0
   -0.3986    3.3098    2.9475 H   0  0  0  0  0  0  0  0  0  0  0  0
    1.3619    3.2123    3.1886 H   0  0  0  0  0  0  0  0  0  0  0  0
    0.6974    3.8450    1.6614 H   0  0  0  0  0  0  0  0  0  0  0  0
  5  6  2  0  0  0  0
  5  7  1  0  0  0  0
  2  3  1  0  0  0  0
  2  4  1  0  0  0  0
  2  5  1  0  0  0  0
  1  2  1  0  0  0  0
 24 25  2  0  0  0  0
 24 26  1  0  0  0  0
 20 21  1  0  0  0  0
 20 22  1  0  0  0  0
 20 23  1  0  0  0  0
 17 18  1  0  0  0  0
 17 19  1  0  0  0  0
 17 20  1  0  0  0  0
 13 14  1  0  0  0  0
 13 15  1  0  0  0  0
 13 16  1  0  0  0  0
 11 12  1  0  0  0  0
 11 13  1  0  0  0  0
 11 17  1  0  0  0  0
  9 10  1  0  0  0  0
  9 11  1  0  0  0  0
  9 24  1  0  0  0  0
  7  8  1  0  0  0  0
  7  9  1  0  0  0  0
 28 29  1  0  0  0  0
 28 30  1  0  0  0  0
 28 31  1  0  0  0  0
 26 27  1  0  0  0  0
 26 28  1  0  0  0  0
M  END
$$$$
default_name
  -OEChem-02102213163D

 31 30  0     1  0  0  0  0  0999 V2000
   -3.0760   -3.6390    1.5496 H   0  0  0  0  0  0  0  0  0  0  0  0
   -3.0940   -2.6290    1.1426 C   0  0  0  0  0  0  0  0  0  0  0  0
   -3.7160   -1.9930    1.7706 H   0  0  0  0  0  0  0  0  0  0  0  0
   -3.4880   -2.6500    0.1286 H   0  0  0  0  0  0  0  0  0  0  0  0
   -1.6860   -2.0850    1.1196 C   0  0  0  0  0  0  0  0  0  0  0  0
   -0.7540   -2.7700    1.5226 O   0  0  0  0  0  0  0  0  0  0  0  0
   -1.5320   -0.8490    0.6496 N   0  0  0  0  0  0  0  0  0  0  0  0
   -2.3500   -0.3360    0.3566 H   0  0  0  0  0  0  0  0  0  0  0  0
   -0.2470   -0.1410    0.5576 C   0  0  1  0  0  0  0  0  0  0  0  0
    0.4572   -0.6505    1.2162 H   0  0  0  0  0  0  0  0  0  0  0  0
    0.3091   -0.2220   -0.8868 C   0  0  1  0  0  0  0  0  0  0  0  0
   -0.2118   -1.0410   -1.3866 H   0  0  0  0  0  0  0  0  0  0  0  0
    0.0431    1.0638   -1.6928 C   0  0  0  0  0  0  0  0  0  0  0  0
    0.6052    1.9014   -1.2760 H   0  0  0  0  0  0  0  0  0  0  0  0
    0.3317    0.9245   -2.7334 H   0  0  0  0  0  0  0  0  0  0  0  0
   -1.0195    1.3083   -1.6719 H   0  0  0  0  0  0  0  0  0  0  0  0
    1.8149   -0.5689   -0.8822 C   0  0  0  0  0  0  0  0  0  0  0  0
    1.9510   -1.6327   -0.6827 H   0  0  0  0  0  0  0  0  0  0  0  0
    2.2282   -0.3500   -1.8667 H   0  0  0  0  0  0  0  0  0  0  0  0
    2.6293    0.2300    0.1442 C   0  0  0  0  0  0  0  0  0  0  0  0
    2.3287   -0.0321    1.1585 H   0  0  0  0  0  0  0  0  0  0  0  0
    3.6873   -0.0045    0.0248 H   0  0  0  0  0  0  0  0  0  0  0  0
    2.4834    1.2991   -0.0144 H   0  0  0  0  0  0  0  0  0  0  0  0
   -0.3971    1.3008    1.0689 C   0  0  0  0  0  0  0  0  0  0  0  0
   -1.3643    1.9819    0.7311 O   0  0  0  0  0  0  0  0  0  0  0  0
    0.5522    1.7647    1.8915 N   0  0  0  0  0  0  0  0  0  0  0  0
    1.3093    1.1450    2.1332 H   0  0  0  0  0  0  0  0  0  0  0  0
    0.5577    3.1119    2.4582 C   0  0  0  0  0  0  0  0  0  0  0  0
   -0.3986    3.3098    2.9475 H   0  0  0  0  0  0  0  0  0  0  0  0
    1.3619    3.2123    3.1886 H   0  0  0  0  0  0  0  0  0  0  0  0
    0.6974    3.8450    1.6614 H   0  0  0  0  0  0  0  0  0  0  0  0
  5  6  2  0  0  0  0
  5  7  1  0  0  0  0
  2  3  1  0  0  0  0
  2  4  1  0  0  0  0
  2  5  1  0  0  0  0
  1  2  1  0  0  0  0
 24 25  2  0  0  0  0
 24 26  1  0  0  0  0
 20 21  1  0  0  0  0
 20 22  1  0  0  0  0
 20 23  1  0  0  0  0
 17 18  1  0  0  0  0
 17 19  1  0  0  0  0
 17 20  1  0  0  0  0
 13 14  1  0  0  0  0
 13 15  1  0  0  0  0
 13 16  1  0  0  0  0
 11 12  1  0  0  0  0
 11 13  1  0  0  0  0
 11 17  1  0  0  0  0
  9 10  1  0  0  0  0
  9 11  1  0  0  0  0
  9 24  1  0  0  0  0
  7  8  1  0  0  0  0
  7  9  1  0  0  0  0
 28 29  1  0  0  0  0
 28 30  1  0  0  0  0
 28 31  1  0  0  0  0
 26 27  1  0  0  0  0
 26 28  1  0  0  0  0
M  END
$$$$
default_name
  -OEChem-02102213163D

 31 30  0     1  0  0  0  0  0999 V2000
   -3.0760   -3.6390    1.5496 H   0  0  0  0  0  0  0  0  0  0  0  0
   -3.0940   -2.6290    1.1426 C   0  0  0  0  0  0  0  0  0  0  0  0
   -3.7160   -1.9930    1.7706 H   0  0  0  0  0  0  0  0  0  0  0  0
   -3.4880   -2.6500    0.1286 H   0  0  0  0  0  0  0  0  0  0  0  0
   -1.6860   -2.0850    1.1196 C   0  0  0  0  0  0  0  0  0  0  0  0
   -0.7540   -2.7700    1.5226 O   0  0  0  0  0  0  0  0  0  0  0  0
   -1.5320   -0.8490    0.6496 N   0  0  0  0  0  0  0  0  0  0  0  0
   -2.3500   -0.3360    0.3566 H   0  0  0  0  0  0  0  0  0  0  0  0
   -0.2470   -0.1410    0.5576 C   0  0  1  0  0  0  0  0  0  0  0  0
    0.4572   -0.6505    1.2162 H   0  0  0  0  0  0  0  0  0  0  0  0
    0.3091   -0.2220   -0.8868 C   0  0  1  0  0  0  0  0  0  0  0  0
   -0.2118   -1.0410   -1.3866 H   0  0  0  0  0  0  0  0  0  0  0  0
    0.0431    1.0638   -1.6928 C   0  0  0  0  0  0  0  0  0  0  0  0
    0.6052    1.9014   -1.2760 H   0  0  0  0  0  0  0  0  0  0  0  0
    0.3317    0.9245   -2.7334 H   0  0  0  0  0  0  0  0  0  0  0  0
   -1.0195    1.3083   -1.6719 H   0  0  0  0  0  0  0  0  0  0  0  0
    1.8149   -0.5689   -0.8822 C   0  0  0  0  0  0  0  0  0  0  0  0
    1.9480   -1.6495   -0.9498 H   0  0  0  0  0  0  0  0  0  0  0  0
    2.2828   -0.1115   -1.7538 H   0  0  0  0  0  0  0  0  0  0  0  0
    2.5618   -0.0601    0.3582 C   0  0  0  0  0  0  0  0  0  0  0  0
    2.2050   -0.5676    1.2542 H   0  0  0  0  0  0  0  0  0  0  0  0
    3.6268   -0.2640    0.2452 H   0  0  0  0  0  0  0  0  0  0  0  0
    2.4165    1.0153    0.4661 H   0  0  0  0  0  0  0  0  0  0  0  0
   -0.3971    1.3008    1.0689 C   0  0  0  0  0  0  0  0  0  0  0  0
   -1.3643    1.9819    0.7311 O   0  0  0  0  0  0  0  0  0  0  0  0
    0.5522    1.7647    1.8915 N   0  0  0  0  0  0  0  0  0  0  0  0
    1.3093    1.1450    2.1332 H   0  0  0  0  0  0  0  0  0  0  0  0
    0.5577    3.1119    2.4582 C   0  0  0  0  0  0  0  0  0  0  0  0
   -0.3986    3.3098    2.9475 H   0  0  0  0  0  0  0  0  0  0  0  0
    1.3619    3.2123    3.1886 H   0  0  0  0  0  0  0  0  0  0  0  0
    0.6974    3.8450    1.6614 H   0  0  0  0  0  0  0  0  0  0  0  0
  5  6  2  0  0  0  0
  5  7  1  0  0  0  0
  2  3  1  0  0  0  0
  2  4  1  0  0  0  0
  2  5  1  0  0  0  0
  1  2  1  0  0  0  0
 24 25  2  0  0  0  0
 24 26  1  0  0  0  0
 20 21  1  0  0  0  0
 20 22  1  0  0  0  0
 20 23  1  0  0  0  0
 17 18  1  0  0  0  0
 17 19  1  0  0  0  0
 17 20  1  0  0  0  0
 13 14  1  0  0  0  0
 13 15  1  0  0  0  0
 13 16  1  0  0  0  0
 11 12  1  0  0  0  0
 11 13  1  0  0  0  0
 11 17  1  0  0  0  0
  9 10  1  0  0  0  0
  9 11  1  0  0  0  0
  9 24  1  0  0  0  0
  7  8  1  0  0  0  0
  7  9  1  0  0  0  0
 28 29  1  0  0  0  0
 28 30  1  0  0  0  0
 28 31  1  0  0  0  0
 26 27  1  0  0  0  0
 26 28  1  0  0  0  0
M  END
$$$$
default_name
  -OEChem-02102213163D

 31 30  0     1  0  0  0  0  0999 V2000
   -3.0760   -3.6390    1.5496 H   0  0  0  0  0  0  0  0  0  0  0  0
   -3.0940   -2.6290    1.1426 C   0  0  0  0  0  0  0  0  0  0  0  0
   -3.7160   -1.9930    1.7706 H   0  0  0  0  0  0  0  0  0  0  0  0
   -3.4880   -2.6500    0.1286 H   0  0  0  0  0  0  0  0  0  0  0  0
   -1.6860   -2.0850    1.1196 C   0  0  0  0  0  0  0  0  0  0  0  0
   -0.7540   -2.7700    1.5226 O   0  0  0  0  0  0  0  0  0  0  0  0
   -1.5320   -0.8490    0.6496 N   0  0  0  0  0  0  0  0  0  0  0  0
   -2.3500   -0.3360    0.3566 H   0  0  0  0  0  0  0  0  0  0  0  0
   -0.2470   -0.1410    0.5576 C   0  0  1  0  0  0  0  0  0  0  0  0
    0.4572   -0.6505    1.2162 H   0  0  0  0  0  0  0  0  0  0  0  0
    0.3091   -0.2220   -0.8868 C   0  0  1  0  0  0  0  0  0  0  0  0
   -0.2118   -1.0410   -1.3866 H   0  0  0  0  0  0  0  0  0  0  0  0
    0.0431    1.0638   -1.6928 C   0  0  0  0  0  0  0  0  0  0  0  0
    0.6052    1.9014   -1.2760 H   0  0  0  0  0  0  0  0  0  0  0  0
    0.3317    0.9245   -2.7334 H   0  0  0  0  0  0  0  0  0  0  0  0
   -1.0195    1.3083   -1.6719 H   0  0  0  0  0  0  0  0  0  0  0  0
    1.8149   -0.5689   -0.8822 C   0  0  0  0  0  0  0  0  0  0  0  0
    1.9606   -1.5984   -1.2122 H   0  0  0  0  0  0  0  0  0  0  0  0
    2.3288    0.0904   -1.5815 H   0  0  0  0  0  0  0  0  0  0  0  0
    2.4844   -0.3944    0.4877 C   0  0  0  0  0  0  0  0  0  0  0  0
    2.0803   -1.1091    1.2045 H   0  0  0  0  0  0  0  0  0  0  0  0
    3.5558   -0.5703    0.3892 H   0  0  0  0  0  0  0  0  0  0  0  0
    2.3242    0.6199    0.8547 H   0  0  0  0  0  0  0  0  0  0  0  0
   -0.3971    1.3008    1.0689 C   0  0  0  0  0  0  0  0  0  0  0  0
   -1.3643    1.9819    0.7311 O   0  0  0  0  0  0  0  0  0  0  0  0
    0.5522    1.7647    1.8915 N   0  0  0  0  0  0  0  0  0  0  0  0
    1.3093    1.1450    2.1332 H   0  0  0  0  0  0  0  0  0  0  0  0
    0.5577    3.1119    2.4582 C   0  0  0  0  0  0  0  0  0  0  0  0
   -0.3986    3.3098    2.9475 H   0  0  0  0  0  0  0  0  0  0  0  0
    1.3619    3.2123    3.1886 H   0  0  0  0  0  0  0  0  0  0  0  0
    0.6974    3.8450    1.6614 H   0  0  0  0  0  0  0  0  0  0  0  0
  5  6  2  0  0  0  0
  5  7  1  0  0  0  0
  2  3  1  0  0  0  0
  2  4  1  0  0  0  0
  2  5  1  0  0  0  0
  1  2  1  0  0  0  0
 24 25  2  0  0  0  0
 24 26  1  0  0  0  0
 20 21  1  0  0  0  0
 20 22  1  0  0  0  0
 20 23  1  0  0  0  0
 17 18  1  0  0  0  0
 17 19  1  0  0  0  0
 17 20  1  0  0  0  0
 13 14  1  0  0  0  0
 13 15  1  0  0  0  0
 13 16  1  0  0  0  0
 11 12  1  0  0  0  0
 11 13  1  0  0  0  0
 11 17  1  0  0  0  0
  9 10  1  0  0  0  0
  9 11  1  0  0  0  0
  9 24  1  0  0  0  0
  7  8  1  0  0  0  0
  7  9  1  0  0  0  0
 28 29  1  0  0  0  0
 28 30  1  0  0  0  0
 28 31  1  0  0  0  0
 26 27  1  0  0  0  0
 26 28  1  0  0  0  0
M  END
$$$$
default_name
  -OEChem-02102213163D

 31 30  0     1  0  0  0  0  0999 V2000
   -3.0760   -3.6390    1.5496 H   0  0  0  0  0  0  0  0  0  0  0  0
   -3.0940   -2.6290    1.1426 C   0  0  0  0  0  0  0  0  0  0  0  0
   -3.7160   -1.9930    1.7706 H   0  0  0  0  0  0  0  0  0  0  0  0
   -3.4880   -2.6500    0.1286 H   0  0  0  0  0  0  0  0  0  0  0  0
   -1.6860   -2.0850    1.1196 C   0  0  0  0  0  0  0  0  0  0  0  0
   -0.7540   -2.7700    1.5226 O   0  0  0  0  0  0  0  0  0  0  0  0
   -1.5320   -0.8490    0.6496 N   0  0  0  0  0  0  0  0  0  0  0  0
   -2.3500   -0.3360    0.3566 H   0  0  0  0  0  0  0  0  0  0  0  0
   -0.2470   -0.1410    0.5576 C   0  0  1  0  0  0  0  0  0  0  0  0
    0.4572   -0.6505    1.2162 H   0  0  0  0  0  0  0  0  0  0  0  0
    0.3091   -0.2220   -0.8868 C   0  0  1  0  0  0  0  0  0  0  0  0
   -0.2118   -1.0410   -1.3866 H   0  0  0  0  0  0  0  0  0  0  0  0
    0.0431    1.0638   -1.6928 C   0  0  0  0  0  0  0  0  0  0  0  0
    0.6052    1.9014   -1.2760 H   0  0  0  0  0  0  0  0  0  0  0  0
    0.3317    0.9245   -2.7334 H   0  0  0  0  0  0  0  0  0  0  0  0
   -1.0195    1.3083   -1.6719 H   0  0  0  0  0  0  0  0  0  0  0  0
    1.8149   -0.5689   -0.8822 C   0  0  0  0  0  0  0  0  0  0  0  0
    1.9880   -1.4828   -1.4521 H   0  0  0  0  0  0  0  0  0  0  0  0
    2.3631    0.2421   -1.3615 H   0  0  0  0  0  0  0  0  0  0  0  0
    2.4023   -0.7501    0.5240 C   0  0  0  0  0  0  0  0  0  0  0  0
    1.9633   -1.6197    1.0126 H   0  0  0  0  0  0  0  0  0  0  0  0
    3.4790   -0.9026    0.4469 H   0  0  0  0  0  0  0  0  0  0  0  0
    2.2128    0.1400    1.1250 H   0  0  0  0  0  0  0  0  0  0  0  0
   -0.3971    1.3008    1.0689 C   0  0  0  0  0  0  0  0  0  0  0  0
   -1.3643    1.9819    0.7311 O   0  0  0  0  0  0  0  0  0  0  0  0
    0.5522    1.7647    1.8915 N   0  0  0  0  0  0  0  0  0  0  0  0
    1.3093    1.1450    2.1332 H   0  0  0  0  0  0  0  0  0  0  0  0
    0.5577    3.1119    2.4582 C   0  0  0  0  0  0  0  0  0  0  0  0
   -0.3986    3.3098    2.9475 H   0  0  0  0  0  0  0  0  0  0  0  0
    1.3619    3.2123    3.1886 H   0  0  0  0  0  0  0  0  0  0  0  0
    0.6974    3.8450    1.6614 H   0  0  0  0  0  0  0  0  0  0  0  0
  5  6  2  0  0  0  0
  5  7  1  0  0  0  0
  2  3  1  0  0  0  0
  2  4  1  0  0  0  0
  2  5  1  0  0  0  0
  1  2  1  0  0  0  0
 24 25  2  0  0  0  0
 24 26  1  0  0  0  0
 20 21  1  0  0  0  0
 20 22  1  0  0  0  0
 20 23  1  0  0  0  0
 17 18  1  0  0  0  0
 17 19  1  0  0  0  0
 17 20  1  0  0  0  0
 13 14  1  0  0  0  0
 13 15  1  0  0  0  0
 13 16  1  0  0  0  0
 11 12  1  0  0  0  0
 11 13  1  0  0  0  0
 11 17  1  0  0  0  0
  9 10  1  0  0  0  0
  9 11  1  0  0  0  0
  9 24  1  0  0  0  0
  7  8  1  0  0  0  0
  7  9  1  0  0  0  0
 28 29  1  0  0  0  0
 28 30  1  0  0  0  0
 28 31  1  0  0  0  0
 26 27  1  0  0  0  0
 26 28  1  0  0  0  0
M  END
$$$$
default_name
  -OEChem-02102213163D

 31 30  0     1  0  0  0  0  0999 V2000
   -3.0760   -3.6390    1.5496 H   0  0  0  0  0  0  0  0  0  0  0  0
   -3.0940   -2.6290    1.1426 C   0  0  0  0  0  0  0  0  0  0  0  0
   -3.7160   -1.9930    1.7706 H   0  0  0  0  0  0  0  0  0  0  0  0
   -3.4880   -2.6500    0.1286 H   0  0  0  0  0  0  0  0  0  0  0  0
   -1.6860   -2.0850    1.1196 C   0  0  0  0  0  0  0  0  0  0  0  0
   -0.7540   -2.7700    1.5226 O   0  0  0  0  0  0  0  0  0  0  0  0
   -1.5320   -0.8490    0.6496 N   0  0  0  0  0  0  0  0  0  0  0  0
   -2.3500   -0.3360    0.3566 H   0  0  0  0  0  0  0  0  0  0  0  0
   -0.2470   -0.1410    0.5576 C   0  0  1  0  0  0  0  0  0  0  0  0
    0.4572   -0.6505    1.2162 H   0  0  0  0  0  0  0  0  0  0  0  0
    0.3091   -0.2220   -0.8868 C   0  0  1  0  0  0  0  0  0  0  0  0
   -0.2118   -1.0410   -1.3866 H   0  0  0  0  0  0  0  0  0  0  0  0
    0.0431    1.0638   -1.6928 C   0  0  0  0  0  0  0  0  0  0  0  0
    0.6052    1.9014   -1.2760 H   0  0  0  0  0  0  0  0  0  0  0  0
    0.3317    0.9245   -2.7334 H   0  0  0  0  0  0  0  0  0  0  0  0
   -1.0195    1.3083   -1.6719 H   0  0  0  0  0  0  0  0  0  0  0  0
    1.8149   -0.5689   -0.8822 C   0  0  0  0  0  0  0  0  0  0  0  0
    2.0282   -1.3106   -1.6531 H   0  0  0  0  0  0  0  0  0  0  0  0
    2.3832    0.3331   -1.1087 H   0  0  0  0  0  0  0  0  0  0  0  0
    2.3212   -1.1028    0.4646 C   0  0  0  0  0  0  0  0  0  0  0  0
    1.8617   -2.0647    0.6917 H   0  0  0  0  0  0  0  0  0  0  0  0
    3.4018   -1.2382    0.4143 H   0  0  0  0  0  0  0  0  0  0  0  0
    2.0898   -0.3919    1.2585 H   0  0  0  0  0  0  0  0  0  0  0  0
   -0.3971    1.3008    1.0689 C   0  0  0  0  0  0  0  0  0  0  0  0
   -1.3643    1.9819    0.7311 O   0  0  0  0  0  0  0  0  0  0  0  0
    0.5522    1.7647    1.8915 N   0  0  0  0  0  0  0  0  0  0  0  0
    1.3093    1.1450    2.1332 H   0  0  0  0  0  0  0  0  0  0  0  0
    0.5577    3.1119    2.4582 C   0  0  0  0  0  0  0  0  0  0  0  0
   -0.3986    3.3098    2.9475 H   0  0  0  0  0  0  0  0  0  0  0  0
    1.3619    3.2123    3.1886 H   0  0  0  0  0  0  0  0  0  0  0  0
    0.6974    3.8450    1.6614 H   0  0  0  0  0  0  0  0  0  0  0  0
  5  6  2  0  0  0  0
  5  7  1  0  0  0  0
  2  3  1  0  0  0  0
  2  4  1  0  0  0  0
  2  5  1  0  0  0  0
  1  2  1  0  0  0  0
 24 25  2  0  0  0  0
 24 26  1  0  0  0  0
 20 21  1  0  0  0  0
 20 22  1  0  0  0  0
 20 23  1  0  0  0  0
 17 18  1  0  0  0  0
 17 19  1  0  0  0  0
 17 20  1  0  0  0  0
 13 14  1  0  0  0  0
 13 15  1  0  0  0  0
 13 16  1  0  0  0  0
 11 12  1  0  0  0  0
 11 13  1  0  0  0  0
 11 17  1  0  0  0  0
  9 10  1  0  0  0  0
  9 11  1  0  0  0  0
  9 24  1  0  0  0  0
  7  8  1  0  0  0  0
  7  9  1  0  0  0  0
 28 29  1  0  0  0  0
 28 30  1  0  0  0  0
 28 31  1  0  0  0  0
 26 27  1  0  0  0  0
 26 28  1  0  0  0  0
M  END
$$$$
default_name
  -OEChem-02102213163D

 31 30  0     1  0  0  0  0  0999 V2000
   -3.0760   -3.6390    1.5496 H   0  0  0  0  0  0  0  0  0  0  0  0
   -3.0940   -2.6290    1.1426 C   0  0  0  0  0  0  0  0  0  0  0  0
   -3.7160   -1.9930    1.7706 H   0  0  0  0  0  0  0  0  0  0  0  0
   -3.4880   -2.6500    0.1286 H   0  0  0  0  0  0  0  0  0  0  0  0
   -1.6860   -2.0850    1.1196 C   0  0  0  0  0  0  0  0  0  0  0  0
   -0.7540   -2.7700    1.5226 O   0  0  0  0  0  0  0  0  0  0  0  0
   -1.5320   -0.8490    0.6496 N   0  0  0  0  0  0  0  0  0  0  0  0
   -2.3500   -0.3360    0.3566 H   0  0  0  0  0  0  0  0  0  0  0  0
   -0.2470   -0.1410    0.5576 C   0  0  1  0  0  0  0  0  0  0  0  0
    0.4572   -0.6505    1.2162 H   0  0  0  0  0  0  0  0  0  0  0  0
    0.3091   -0.2220   -0.8868 C   0  0  1  0  0  0  0  0  0  0  0  0
   -0.2118   -1.0410   -1.3866 H   0  0  0  0  0  0  0  0  0  0  0  0
    0.0431    1.0638   -1.6928 C   0  0  0  0  0  0  0  0  0  0  0  0
    0.6052    1.9014   -1.2760 H   0  0  0  0  0  0  0  0  0  0  0  0
    0.3317    0.9245   -2.7334 H   0  0  0  0  0  0  0  0  0  0  0  0
   -1.0195    1.3083   -1.6719 H   0  0  0  0  0  0  0  0  0  0  0  0
    1.8149   -0.5689   -0.8822 C   0  0  0  0  0  0  0  0  0  0  0  0
    2.0787   -1.0936   -1.8014 H   0  0  0  0  0  0  0  0  0  0  0  0
    2.3880    0.3572   -0.8404 H   0  0  0  0  0  0  0  0  0  0  0  0
    2.2466   -1.4286    0.3136 C   0  0  0  0  0  0  0  0  0  0  0  0
    1.7827   -2.4136    0.2636 H   0  0  0  0  0  0  0  0  0  0  0  0
    3.3294   -1.5541    0.2938 H   0  0  0  0  0  0  0  0  0  0  0  0
    1.9637   -0.9394    1.2463 H   0  0  0  0  0  0  0  0  0  0  0  0
   -0.3971    1.3008    1.0689 C   0  0  0  0  0  0  0  0  0  0  0  0
   -1.3643    1.9819    0.7311 O   0  0  0  0  0  0  0  0  0  0  0  0
    0.5522    1.7647    1.8915 N   0  0  0  0  0  0  0  0  0  0  0  0
    1.3093    1.1450    2.1332 H   0  0  0  0  0  0  0  0  0  0  0  0
    0.5577    3.1119    2.4582 C   0  0  0  0  0  0  0  0  0  0  0  0
   -0.3986    3.3098    2.9475 H   0  0  0  0  0  0  0  0  0  0  0  0
    1.3619    3.2123    3.1886 H   0  0  0  0  0  0  0  0  0  0  0  0
    0.6974    3.8450    1.6614 H   0  0  0  0  0  0  0  0  0  0  0  0
  5  6  2  0  0  0  0
  5  7  1  0  0  0  0
  2  3  1  0  0  0  0
  2  4  1  0  0  0  0
  2  5  1  0  0  0  0
  1  2  1  0  0  0  0
 24 25  2  0  0  0  0
 24 26  1  0  0  0  0
 20 21  1  0  0  0  0
 20 22  1  0  0  0  0
 20 23  1  0  0  0  0
 17 18  1  0  0  0  0
 17 19  1  0  0  0  0
 17 20  1  0  0  0  0
 13 14  1  0  0  0  0
 13 15  1  0  0  0  0
 13 16  1  0  0  0  0
 11 12  1  0  0  0  0
 11 13  1  0  0  0  0
 11 17  1  0  0  0  0
  9 10  1  0  0  0  0
  9 11  1  0  0  0  0
  9 24  1  0  0  0  0
  7  8  1  0  0  0  0
  7  9  1  0  0  0  0
 28 29  1  0  0  0  0
 28 30  1  0  0  0  0
 28 31  1  0  0  0  0
 26 27  1  0  0  0  0
 26 28  1  0  0  0  0
M  END
$$$$
default_name
  -OEChem-02102213163D

 31 30  0     1  0  0  0  0  0999 V2000
   -3.0760   -3.6390    1.5496 H   0  0  0  0  0  0  0  0  0  0  0  0
   -3.0940   -2.6290    1.1426 C   0  0  0  0  0  0  0  0  0  0  0  0
   -3.7160   -1.9930    1.7706 H   0  0  0  0  0  0  0  0  0  0  0  0
   -3.4880   -2.6500    0.1286 H   0  0  0  0  0  0  0  0  0  0  0  0
   -1.6860   -2.0850    1.1196 C   0  0  0  0  0  0  0  0  0  0  0  0
   -0.7540   -2.7700    1.5226 O   0  0  0  0  0  0  0  0  0  0  0  0
   -1.5320   -0.8490    0.6496 N   0  0  0  0  0  0  0  0  0  0  0  0
   -2.3500   -0.3360    0.3566 H   0  0  0  0  0  0  0  0  0  0  0  0
   -0.2470   -0.1410    0.5576 C   0  0  1  0  0  0  0  0  0  0  0  0
    0.4572   -0.6505    1.2162 H   0  0  0  0  0  0  0  0  0  0  0  0
    0.3091   -0.2220   -0.8868 C   0  0  1  0  0  0  0  0  0  0  0  0
   -0.2118   -1.0410   -1.3866 H   0  0  0  0  0  0  0  0  0  0  0  0
    0.0431    1.0638   -1.6928 C   0  0  0  0  0  0  0  0  0  0  0  0
    0.6052    1.9014   -1.2760 H   0  0  0  0  0  0  0  0  0  0  0  0
    0.3317    0.9245   -2.7334 H   0  0  0  0  0  0  0  0  0  0  0  0
   -1.0195    1.3083   -1.6719 H   0  0  0  0  0  0  0  0  0  0  0  0
    1.8149   -0.5689   -0.8822 C   0  0  0  0  0  0  0  0  0  0  0  0
    2.1359   -0.8465   -1.8870 H   0  0  0  0  0  0  0  0  0  0  0  0
    2.3769    0.3129   -0.5749 H   0  0  0  0  0  0  0  0  0  0  0  0
    2.1835   -1.7053    0.0811 C   0  0  0  0  0  0  0  0  0  0  0  0
    1.7314   -2.6427   -0.2425 H   0  0  0  0  0  0  0  0  0  0  0  0
    3.2667   -1.8290    0.0934 H   0  0  0  0  0  0  0  0  0  0  0  0
    1.8430   -1.4653    1.0890 H   0  0  0  0  0  0  0  0  0  0  0  0
   -0.3971    1.3008    1.0689 C   0  0  0  0  0  0  0  0  0  0  0  0
   -1.3643    1.9819    0.7311 O   0  0  0  0  0  0  0  0  0  0  0  0
    0.5522    1.7647    1.8915 N   0  0  0  0  0  0  0  0  0  0  0  0
    1.3093    1.1450    2.1332 H   0  0  0  0  0  0  0  0  0  0  0  0
    0.5577    3.1119    2.4582 C   0  0  0  0  0  0  0  0  0  0  0  0
   -0.3986    3.3098    2.9475 H   0  0  0  0  0  0  0  0  0  0  0  0
    1.3619    3.2123    3.1886 H   0  0  0  0  0  0  0  0  0  0  0  0
    0.6974    3.8450    1.6614 H   0  0  0  0  0  0  0  0  0  0  0  0
  5  6  2  0  0  0  0
  5  7  1  0  0  0  0
  2  3  1  0  0  0  0
  2  4  1  0  0  0  0
  2  5  1  0  0  0  0
  1  2  1  0  0  0  0
 24 25  2  0  0  0  0
 24 26  1  0  0  0  0
 20 21  1  0  0  0  0
 20 22  1  0  0  0  0
 20 23  1  0  0  0  0
 17 18  1  0  0  0  0
 17 19  1  0  0  0  0
 17 20  1  0  0  0  0
 13 14  1  0  0  0  0
 13 15  1  0  0  0  0
 13 16  1  0  0  0  0
 11 12  1  0  0  0  0
 11 13  1  0  0  0  0
 11 17  1  0  0  0  0
  9 10  1  0  0  0  0
  9 11  1  0  0  0  0
  9 24  1  0  0  0  0
  7  8  1  0  0  0  0
  7  9  1  0  0  0  0
 28 29  1  0  0  0  0
 28 30  1  0  0  0  0
 28 31  1  0  0  0  0
 26 27  1  0  0  0  0
 26 28  1  0  0  0  0
M  END
$$$$
default_name
  -OEChem-02102213163D

 31 30  0     1  0  0  0  0  0999 V2000
   -3.0760   -3.6390    1.5496 H   0  0  0  0  0  0  0  0  0  0  0  0
   -3.0940   -2.6290    1.1426 C   0  0  0  0  0  0  0  0  0  0  0  0
   -3.7160   -1.9930    1.7706 H   0  0  0  0  0  0  0  0  0  0  0  0
   -3.4880   -2.6500    0.1286 H   0  0  0  0  0  0  0  0  0  0  0  0
   -1.6860   -2.0850    1.1196 C   0  0  0  0  0  0  0  0  0  0  0  0
   -0.7540   -2.7700    1.5226 O   0  0  0  0  0  0  0  0  0  0  0  0
   -1.5320   -0.8490    0.6496 N   0  0  0  0  0  0  0  0  0  0  0  0
   -2.3500   -0.3360    0.3566 H   0  0  0  0  0  0  0  0  0  0  0  0
   -0.2470   -0.1410    0.5576 C   0  0  1  0  0  0  0  0  0  0  0  0
    0.4572   -0.6505    1.2162 H   0  0  0  0  0  0  0  0  0  0  0  0
    0.3091   -0.2220   -0.8868 C   0  0  1  0  0  0  0  0  0  0  0  0
   -0.2118   -1.0410   -1.3866 H   0  0  0  0  0  0  0  0  0  0  0  0
    0.0431    1.0638   -1.6928 C   0  0  0  0  0  0  0  0  0  0  0  0
    0.6052    1.9014   -1.2760 H   0  0  0  0  0  0  0  0  0  0  0  0
    0.3317    0.9245   -2.7334 H   0  0  0  0  0  0  0  0  0  0  0  0
   -1.0195    1.3083   -1.6719 H   0  0  0  0  0  0  0  0  0  0  0  0
    1.8149   -0.5689   -0.8822 C   0  0  0  0  0  0  0  0  0  0  0  0
    2.1959   -0.5862   -1.9041 H   0  0  0  0  0  0  0  0  0  0  0  0
    2.3509    0.2031   -0.3303 H   0  0  0  0  0  0  0  0  0  0  0  0
    2.1364   -1.9140   -0.2168 C   0  0  0  0  0  0  0  0  0  0  0  0
    1.7115   -2.7363   -0.7921 H   0  0  0  0  0  0  0  0  0  0  0  0
    3.2180   -2.0440   -0.1730 H   0  0  0  0  0  0  0  0  0  0  0  0
    1.7359   -1.9337    0.7974 H   0  0  0  0  0  0  0  0  0  0  0  0
   -0.3971    1.3008    1.0689 C   0  0  0  0  0  0  0  0  0  0  0  0
   -1.3643    1.9819    0.7311 O   0  0  0  0  0  0  0  0  0  0  0  0
    0.5522    1.7647    1.8915 N   0  0  0  0  0  0  0  0  0  0  0  0
    1.3093    1.1450    2.1332 H   0  0  0  0  0  0  0  0  0  0  0  0
    0.5577    3.1119    2.4582 C   0  0  0  0  0  0  0  0  0  0  0  0
   -0.3986    3.3098    2.9475 H   0  0  0  0  0  0  0  0  0  0  0  0
    1.3619    3.2123    3.1886 H   0  0  0  0  0  0  0  0  0  0  0  0
    0.6974    3.8450    1.6614 H   0  0  0  0  0  0  0  0  0  0  0  0
  5  6  2  0  0  0  0
  5  7  1  0  0  0  0
  2  3  1  0  0  0  0
  2  4  1  0  0  0  0
  2  5  1  0  0  0  0
  1  2  1  0  0  0  0
 24 25  2  0  0  0  0
 24 26  1  0  0  0  0
 20 21  1  0  0  0  0
 20 22  1  0  0  0  0
 20 23  1  0  0  0  0
 17 18  1  0  0  0  0
 17 19  1  0  0  0  0
 17 20  1  0  0  0  0
 13 14  1  0  0  0  0
 13 15  1  0  0  0  0
 13 16  1  0  0  0  0
 11 12  1  0  0  0  0
 11 13  1  0  0  0  0
 11 17  1  0  0  0  0
  9 10  1  0  0  0  0
  9 11  1  0  0  0  0
  9 24  1  0  0  0  0
  7  8  1  0  0  0  0
  7  9  1  0  0  0  0
 28 29  1  0  0  0  0
 28 30  1  0  0  0  0
 28 31  1  0  0  0  0
 26 27  1  0  0  0  0
 26 28  1  0  0  0  0
M  END
$$$$
default_name
  -OEChem-02102213163D

 31 30  0     1  0  0  0  0  0999 V2000
   -3.0760   -3.6390    1.5496 H   0  0  0  0  0  0  0  0  0  0  0  0
   -3.0940   -2.6290    1.1426 C   0  0  0  0  0  0  0  0  0  0  0  0
   -3.7160   -1.9930    1.7706 H   0  0  0  0  0  0  0  0  0  0  0  0
   -3.4880   -2.6500    0.1286 H   0  0  0  0  0  0  0  0  0  0  0  0
   -1.6860   -2.0850    1.1196 C   0  0  0  0  0  0  0  0  0  0  0  0
   -0.7540   -2.7700    1.5226 O   0  0  0  0  0  0  0  0  0  0  0  0
   -1.5320   -0.8490    0.6496 N   0  0  0  0  0  0  0  0  0  0  0  0
   -2.3500   -0.3360    0.3566 H   0  0  0  0  0  0  0  0  0  0  0  0
   -0.2470   -0.1410    0.5576 C   0  0  1  0  0  0  0  0  0  0  0  0
    0.4572   -0.6505    1.2162 H   0  0  0  0  0  0  0  0  0  0  0  0
    0.3091   -0.2220   -0.8868 C   0  0  1  0  0  0  0  0  0  0  0  0
   -0.2118   -1.0410   -1.3866 H   0  0  0  0  0  0  0  0  0  0  0  0
    0.0431    1.0638   -1.6928 C   0  0  0  0  0  0  0  0  0  0  0  0
    0.6052    1.9014   -1.2760 H   0  0  0  0  0  0  0  0  0  0  0  0
    0.3317    0.9245   -2.7334 H   0  0  0  0  0  0  0  0  0  0  0  0
   -1.0195    1.3083   -1.6719 H   0  0  0  0  0  0  0  0  0  0  0  0
    1.8149   -0.5689   -0.8822 C   0  0  0  0  0  0  0  0  0  0  0  0
    2.2547   -0.3304   -1.8515 H   0  0  0  0  0  0  0  0  0  0  0  0
    2.3116    0.0354   -0.1232 H   0  0  0  0  0  0  0  0  0  0  0  0
    2.1083   -2.0405   -0.5599 C   0  0  0  0  0  0  0  0  0  0  0  0
    1.7243   -2.6882   -1.3478 H   0  0  0  0  0  0  0  0  0  0  0  0
    3.1866   -2.1845   -0.4875 H   0  0  0  0  0  0  0  0  0  0  0  0
    1.6499   -2.3126    0.3914 H   0  0  0  0  0  0  0  0  0  0  0  0
   -0.3971    1.3008    1.0689 C   0  0  0  0  0  0  0  0  0  0  0  0
   -1.3643    1.9819    0.7311 O   0  0  0  0  0  0  0  0  0  0  0  0
    0.5522    1.7647    1.8915 N   0  0  0  0  0  0  0  0  0  0  0  0
    1.3093    1.1450    2.1332 H   0  0  0  0  0  0  0  0  0  0  0  0
    0.5577    3.1119    2.4582 C   0  0  0  0  0  0  0  0  0  0  0  0
   -0.3986    3.3098    2.9475 H   0  0  0  0  0  0  0  0  0  0  0  0
    1.3619    3.2123    3.1886 H   0  0  0  0  0  0  0  0  0  0  0  0
    0.6974    3.8450    1.6614 H   0  0  0  0  0  0  0  0  0  0  0  0
  5  6  2  0  0  0  0
  5  7  1  0  0  0  0
  2  3  1  0  0  0  0
  2  4  1  0  0  0  0
  2  5  1  0  0  0  0
  1  2  1  0  0  0  0
 24 25  2  0  0  0  0
 24 26  1  0  0  0  0
 20 21  1  0  0  0  0
 20 22  1  0  0  0  0
 20 23  1  0  0  0  0
 17 18  1  0  0  0  0
 17 19  1  0  0  0  0
 17 20  1  0  0  0  0
 13 14  1  0  0  0  0
 13 15  1  0  0  0  0
 13 16  1  0  0  0  0
 11 12  1  0  0  0  0
 11 13  1  0  0  0  0
 11 17  1  0  0  0  0
  9 10  1  0  0  0  0
  9 11  1  0  0  0  0
  9 24  1  0  0  0  0
  7  8  1  0  0  0  0
  7  9  1  0  0  0  0
 28 29  1  0  0  0  0
 28 30  1  0  0  0  0
 28 31  1  0  0  0  0
 26 27  1  0  0  0  0
 26 28  1  0  0  0  0
M  END
$$$$
default_name
  -OEChem-02102213163D

 31 30  0     1  0  0  0  0  0999 V2000
   -3.0760   -3.6390    1.5496 H   0  0  0  0  0  0  0  0  0  0  0  0
   -3.0940   -2.6290    1.1426 C   0  0  0  0  0  0  0  0  0  0  0  0
   -3.7160   -1.9930    1.7706 H   0  0  0  0  0  0  0  0  0  0  0  0
   -3.4880   -2.6500    0.1286 H   0  0  0  0  0  0  0  0  0  0  0  0
   -1.6860   -2.0850    1.1196 C   0  0  0  0  0  0  0  0  0  0  0  0
   -0.7540   -2.7700    1.5226 O   0  0  0  0  0  0  0  0  0  0  0  0
   -1.5320   -0.8490    0.6496 N   0  0  0  0  0  0  0  0  0  0  0  0
   -2.3500   -0.3360    0.3566 H   0  0  0  0  0  0  0  0  0  0  0  0
   -0.2470   -0.1410    0.5576 C   0  0  1  0  0  0  0  0  0  0  0  0
    0.4572   -0.6505    1.2162 H   0  0  0  0  0  0  0  0  0  0  0  0
    0.3091   -0.2220   -0.8868 C   0  0  1  0  0  0  0  0  0  0  0  0
   -0.2118   -1.0410   -1.3866 H   0  0  0  0  0  0  0  0  0  0  0  0
    0.0431    1.0638   -1.6928 C   0  0  0  0  0  0  0  0  0  0  0  0
    0.6052    1.9014   -1.2760 H   0  0  0  0  0  0  0  0  0  0  0  0
    0.3317    0.9245   -2.7334 H   0  0  0  0  0  0  0  0  0  0  0  0
   -1.0195    1.3083   -1.6719 H   0  0  0  0  0  0  0  0  0  0  0  0
    1.8149   -0.5689   -0.8822 C   0  0  0  0  0  0  0  0  0  0  0  0
    2.3082   -0.0966   -1.7327 H   0  0  0  0  0  0  0  0  0  0  0  0
    2.2617   -0.1790    0.0323 H   0  0  0  0  0  0  0  0  0  0  0  0
    2.1012   -2.0761   -0.9249 C   0  0  0  0  0  0  0  0  0  0  0  0
    1.7690   -2.5016   -1.8716 H   0  0  0  0  0  0  0  0  0  0  0  0
    3.1746   -2.2409   -0.8285 H   0  0  0  0  0  0  0  0  0  0  0  0
    1.5906   -2.5763   -0.1013 H   0  0  0  0  0  0  0  0  0  0  0  0
   -0.3971    1.3008    1.0689 C   0  0  0  0  0  0  0  0  0  0  0  0
   -1.3643    1.9819    0.7311 O   0  0  0  0  0  0  0  0  0  0  0  0
    0.5522    1.7647    1.8915 N   0  0  0  0  0  0  0  0  0  0  0  0
    1.3093    1.1450    2.1332 H   0  0  0  0  0  0  0  0  0  0  0  0
    0.5577    3.1119    2.4582 C   0  0  0  0  0  0  0  0  0  0  0  0
   -0.3986    3.3098    2.9475 H   0  0  0  0  0  0  0  0  0  0  0  0
    1.3619    3.2123    3.1886 H   0  0  0  0  0  0  0  0  0  0  0  0
    0.6974    3.8450    1.6614 H   0  0  0  0  0  0  0  0  0  0  0  0
  5  6  2  0  0  0  0
  5  7  1  0  0  0  0
  2  3  1  0  0  0  0
  2  4  1  0  0  0  0
  2  5  1  0  0  0  0
  1  2  1  0  0  0  0
 24 25  2  0  0  0  0
 24 26  1  0  0  0  0
 20 21  1  0  0  0  0
 20 22  1  0  0  0  0
 20 23  1  0  0  0  0
 17 18  1  0  0  0  0
 17 19  1  0  0  0  0
 17 20  1  0  0  0  0
 13 14  1  0  0  0  0
 13 15  1  0  0  0  0
 13 16  1  0  0  0  0
 11 12  1  0  0  0  0
 11 13  1  0  0  0  0
 11 17  1  0  0  0  0
  9 10  1  0  0  0  0
  9 11  1  0  0  0  0
  9 24  1  0  0  0  0
  7  8  1  0  0  0  0
  7  9  1  0  0  0  0
 28 29  1  0  0  0  0
 28 30  1  0  0  0  0
 28 31  1  0  0  0  0
 26 27  1  0  0  0  0
 26 28  1  0  0  0  0
M  END
$$$$
default_name
  -OEChem-02102213163D

 31 30  0     1  0  0  0  0  0999 V2000
   -3.0760   -3.6390    1.5496 H   0  0  0  0  0  0  0  0  0  0  0  0
   -3.0940   -2.6290    1.1426 C   0  0  0  0  0  0  0  0  0  0  0  0
   -3.7160   -1.9930    1.7706 H   0  0  0  0  0  0  0  0  0  0  0  0
   -3.4880   -2.6500    0.1286 H   0  0  0  0  0  0  0  0  0  0  0  0
   -1.6860   -2.0850    1.1196 C   0  0  0  0  0  0  0  0  0  0  0  0
   -0.7540   -2.7700    1.5226 O   0  0  0  0  0  0  0  0  0  0  0  0
   -1.5320   -0.8490    0.6496 N   0  0  0  0  0  0  0  0  0  0  0  0
   -2.3500   -0.3360    0.3566 H   0  0  0  0  0  0  0  0  0  0  0  0
   -0.2470   -0.1410    0.5576 C   0  0  1  0  0  0  0  0  0  0  0  0
    0.4572   -0.6505    1.2162 H   0  0  0  0  0  0  0  0  0  0  0  0
    0.3091   -0.2220   -0.8868 C   0  0  1  0  0  0  0  0  0  0  0  0
   -0.2118   -1.0410   -1.3866 H   0  0  0  0  0  0  0  0  0  0  0  0
    0.0431    1.0638   -1.6928 C   0  0  0  0  0  0  0  0  0  0  0  0
    0.6052    1.9014   -1.2760 H   0  0  0  0  0  0  0  0  0  0  0  0
    0.3317    0.9245   -2.7334 H   0  0  0  0  0  0  0  0  0  0  0  0
   -1.0195    1.3083   -1.6719 H   0  0  0  0  0  0  0  0  0  0  0  0
    1.8149   -0.5689   -0.8822 C   0  0  0  0  0  0  0  0  0  0  0  0
    2.3528    0.0993   -1.5559 H   0  0  0  0  0  0  0  0  0  0  0  0
    2.2047   -0.4252    0.1255 H   0  0  0  0  0  0  0  0  0  0  0  0
    2.1156   -2.0184   -1.2869 C   0  0  0  0  0  0  0  0  0  0  0  0
    1.8424   -2.1892   -2.3280 H   0  0  0  0  0  0  0  0  0  0  0  0
    3.1829   -2.2094   -1.1728 H   0  0  0  0  0  0  0  0  0  0  0  0
    1.5622   -2.7068   -0.6472 H   0  0  0  0  0  0  0  0  0  0  0  0
   -0.3971    1.3008    1.0689 C   0  0  0  0  0  0  0  0  0  0  0  0
   -1.3643    1.9819    0.7311 O   0  0  0  0  0  0  0  0  0  0  0  0
    0.5522    1.7647    1.8915 N   0  0  0  0  0  0  0  0  0  0  0  0
    1.3093    1.1450    2.1332 H   0  0  0  0  0  0  0  0  0  0  0  0
    0.5577    3.1119    2.4582 C   0  0  0  0  0  0  0  0  0  0  0  0
   -0.3986    3.3098    2.9475 H   0  0  0  0  0  0  0  0  0  0  0  0
    1.3619    3.2123    3.1886 H   0  0  0  0  0  0  0  0  0  0  0  0
    0.6974    3.8450    1.6614 H   0  0  0  0  0  0  0  0  0  0  0  0
  5  6  2  0  0  0  0
  5  7  1  0  0  0  0
  2  3  1  0  0  0  0
  2  4  1  0  0  0  0
  2  5  1  0  0  0  0
  1  2  1  0  0  0  0
 24 25  2  0  0  0  0
 24 26  1  0  0  0  0
 20 21  1  0  0  0  0
 20 22  1  0  0  0  0
 20 23  1  0  0  0  0
 17 18  1  0  0  0  0
 17 19  1  0  0  0  0
 17 20  1  0  0  0  0
 13 14  1  0  0  0  0
 13 15  1  0  0  0  0
 13 16  1  0  0  0  0
 11 12  1  0  0  0  0
 11 13  1  0  0  0  0
 11 17  1  0  0  0  0
  9 10  1  0  0  0  0
  9 11  1  0  0  0  0
  9 24  1  0  0  0  0
  7  8  1  0  0  0  0
  7  9  1  0  0  0  0
 28 29  1  0  0  0  0
 28 30  1  0  0  0  0
 28 31  1  0  0  0  0
 26 27  1  0  0  0  0
 26 28  1  0  0  0  0
M  END
$$$$
default_name
  -OEChem-02102213163D

 31 30  0     1  0  0  0  0  0999 V2000
   -3.0760   -3.6390    1.5496 H   0  0  0  0  0  0  0  0  0  0  0  0
   -3.0940   -2.6290    1.1426 C   0  0  0  0  0  0  0  0  0  0  0  0
   -3.7160   -1.9930    1.7706 H   0  0  0  0  0  0  0  0  0  0  0  0
   -3.4880   -2.6500    0.1286 H   0  0  0  0  0  0  0  0  0  0  0  0
   -1.6860   -2.0850    1.1196 C   0  0  0  0  0  0  0  0  0  0  0  0
   -0.7540   -2.7700    1.5226 O   0  0  0  0  0  0  0  0  0  0  0  0
   -1.5320   -0.8490    0.6496 N   0  0  0  0  0  0  0  0  0  0  0  0
   -2.3500   -0.3360    0.3566 H   0  0  0  0  0  0  0  0  0  0  0  0
   -0.2470   -0.1410    0.5576 C   0  0  1  0  0  0  0  0  0  0  0  0
    0.4572   -0.6505    1.2162 H   0  0  0  0  0  0  0  0  0  0  0  0
    0.3091   -0.2220   -0.8868 C   0  0  1  0  0  0  0  0  0  0  0  0
   -0.2118   -1.0410   -1.3866 H   0  0  0  0  0  0  0  0  0  0  0  0
    0.0431    1.0638   -1.6928 C   0  0  0  0  0  0  0  0  0  0  0  0
    0.6052    1.9014   -1.2760 H   0  0  0  0  0  0  0  0  0  0  0  0
    0.3317    0.9245   -2.7334 H   0  0  0  0  0  0  0  0  0  0  0  0
   -1.0195    1.3083   -1.6719 H   0  0  0  0  0  0  0  0  0  0  0  0
    1.8149   -0.5689   -0.8822 C   0  0  0  0  0  0  0  0  0  0  0  0
    2.3855    0.2440   -1.3331 H   0  0  0  0  0  0  0  0  0  0  0  0
    2.1444   -0.6866    0.1501 H   0  0  0  0  0  0  0  0  0  0  0  0
    2.1505   -1.8715   -1.6211 C   0  0  0  0  0  0  0  0  0  0  0  0
    1.9395   -1.7723   -2.6857 H   0  0  0  0  0  0  0  0  0  0  0  0
    3.2109   -2.0922   -1.4970 H   0  0  0  0  0  0  0  0  0  0  0  0
    1.5667   -2.6953   -1.2091 H   0  0  0  0  0  0  0  0  0  0  0  0
   -0.3971    1.3008    1.0689 C   0  0  0  0  0  0  0  0  0  0  0  0
   -1.3643    1.9819    0.7311 O   0  0  0  0  0  0  0  0  0  0  0  0
    0.5522    1.7647    1.8915 N   0  0  0  0  0  0  0  0  0  0  0  0
    1.3093    1.1450    2.1332 H   0  0  0  0  0  0  0  0  0  0  0  0
    0.5577    3.1119    2.4582 C   0  0  0  0  0  0  0  0  0  0  0  0
   -0.3986    3.3098    2.9475 H   0  0  0  0  0  0  0  0  0  0  0  0
    1.3619    3.2123    3.1886 H   0  0  0  0  0  0  0  0  0  0  0  0
    0.6974    3.8450    1.6614 H   0  0  0  0  0  0  0  0  0  0  0  0
  5  6  2  0  0  0  0
  5  7  1  0  0  0  0
  2  3  1  0  0  0  0
  2  4  1  0  0  0  0
  2  5  1  0  0  0  0
  1  2  1  0  0  0  0
 24 25  2  0  0  0  0
 24 26  1  0  0  0  0
 20 21  1  0  0  0  0
 20 22  1  0  0  0  0
 20 23  1  0  0  0  0
 17 18  1  0  0  0  0
 17 19  1  0  0  0  0
 17 20  1  0  0  0  0
 13 14  1  0  0  0  0
 13 15  1  0  0  0  0
 13 16  1  0  0  0  0
 11 12  1  0  0  0  0
 11 13  1  0  0  0  0
 11 17  1  0  0  0  0
  9 10  1  0  0  0  0
  9 11  1  0  0  0  0
  9 24  1  0  0  0  0
  7  8  1  0  0  0  0
  7  9  1  0  0  0  0
 28 29  1  0  0  0  0
 28 30  1  0  0  0  0
 28 31  1  0  0  0  0
 26 27  1  0  0  0  0
 26 28  1  0  0  0  0
M  END
$$$$
default_name
  -OEChem-02102213163D

 31 30  0     1  0  0  0  0  0999 V2000
   -3.0760   -3.6390    1.5496 H   0  0  0  0  0  0  0  0  0  0  0  0
   -3.0940   -2.6290    1.1426 C   0  0  0  0  0  0  0  0  0  0  0  0
   -3.7160   -1.9930    1.7706 H   0  0  0  0  0  0  0  0  0  0  0  0
   -3.4880   -2.6500    0.1286 H   0  0  0  0  0  0  0  0  0  0  0  0
   -1.6860   -2.0850    1.1196 C   0  0  0  0  0  0  0  0  0  0  0  0
   -0.7540   -2.7700    1.5226 O   0  0  0  0  0  0  0  0  0  0  0  0
   -1.5320   -0.8490    0.6496 N   0  0  0  0  0  0  0  0  0  0  0  0
   -2.3500   -0.3360    0.3566 H   0  0  0  0  0  0  0  0  0  0  0  0
   -0.2470   -0.1410    0.5576 C   0  0  1  0  0  0  0  0  0  0  0  0
    0.4572   -0.6505    1.2162 H   0  0  0  0  0  0  0  0  0  0  0  0
    0.3091   -0.2220   -0.8868 C   0  0  1  0  0  0  0  0  0  0  0  0
   -0.2118   -1.0410   -1.3866 H   0  0  0  0  0  0  0  0  0  0  0  0
    0.0431    1.0638   -1.6928 C   0  0  0  0  0  0  0  0  0  0  0  0
    0.6052    1.9014   -1.2760 H   0  0  0  0  0  0  0  0  0  0  0  0
    0.3317    0.9245   -2.7334 H   0  0  0  0  0  0  0  0  0  0  0  0
   -1.0195    1.3083   -1.6719 H   0  0  0  0  0  0  0  0  0  0  0  0
    1.8149   -0.5689   -0.8822 C   0  0  0  0  0  0  0  0  0  0  0  0
    2.4040    0.3277   -1.0794 H   0  0  0  0  0  0  0  0  0  0  0  0
    2.0849   -0.9454    0.1044 H   0  0  0  0  0  0  0  0  0  0  0  0
    2.2035   -1.6452   -1.9049 C   0  0  0  0  0  0  0  0  0  0  0  0
    2.0539   -1.2793   -2.9205 H   0  0  0  0  0  0  0  0  0  0  0  0
    3.2568   -1.8971   -1.7789 H   0  0  0  0  0  0  0  0  0  0  0  0
    1.6036   -2.5423   -1.7486 H   0  0  0  0  0  0  0  0  0  0  0  0
   -0.3971    1.3008    1.0689 C   0  0  0  0  0  0  0  0  0  0  0  0
   -1.3643    1.9819    0.7311 O   0  0  0  0  0  0  0  0  0  0  0  0
    0.5522    1.7647    1.8915 N   0  0  0  0  0  0  0  0  0  0  0  0
    1.3093    1.1450    2.1332 H   0  0  0  0  0  0  0  0  0  0  0  0
    0.5577    3.1119    2.4582 C   0  0  0  0  0  0  0  0  0  0  0  0
   -0.3986    3.3098    2.9475 H   0  0  0  0  0  0  0  0  0  0  0  0
    1.3619    3.2123    3.1886 H   0  0  0  0  0  0  0  0  0  0  0  0
    0.6974    3.8450    1.6614 H   0  0  0  0  0  0  0  0  0  0  0  0
  5  6  2  0  0  0  0
  5  7  1  0  0  0  0
  2  3  1  0  0  0  0
  2  4  1  0  0  0  0
  2  5  1  0  0  0  0
  1  2  1  0  0  0  0
 24 25  2  0  0  0  0
 24 26  1  0  0  0  0
 20 21  1  0  0  0  0
 20 22  1  0  0  0  0
 20 23  1  0  0  0  0
 17 18  1  0  0  0  0
 17 19  1  0  0  0  0
 17 20  1  0  0  0  0
 13 14  1  0  0  0  0
 13 15  1  0  0  0  0
 13 16  1  0  0  0  0
 11 12  1  0  0  0  0
 11 13  1  0  0  0  0
 11 17  1  0  0  0  0
  9 10  1  0  0  0  0
  9 11  1  0  0  0  0
  9 24  1  0  0  0  0
  7  8  1  0  0  0  0
  7  9  1  0  0  0  0
 28 29  1  0  0  0  0
 28 30  1  0  0  0  0
 28 31  1  0  0  0  0
 26 27  1  0  0  0  0
 26 28  1  0  0  0  0
M  END
$$$$
default_name
  -OEChem-02102213163D

 31 30  0     1  0  0  0  0  0999 V2000
   -3.0760   -3.6390    1.5496 H   0  0  0  0  0  0  0  0  0  0  0  0
   -3.0940   -2.6290    1.1426 C   0  0  0  0  0  0  0  0  0  0  0  0
   -3.7160   -1.9930    1.7706 H   0  0  0  0  0  0  0  0  0  0  0  0
   -3.4880   -2.6500    0.1286 H   0  0  0  0  0  0  0  0  0  0  0  0
   -1.6860   -2.0850    1.1196 C   0  0  0  0  0  0  0  0  0  0  0  0
   -0.7540   -2.7700    1.5226 O   0  0  0  0  0  0  0  0  0  0  0  0
   -1.5320   -0.8490    0.6496 N   0  0  0  0  0  0  0  0  0  0  0  0
   -2.3500   -0.3360    0.3566 H   0  0  0  0  0  0  0  0  0  0  0  0
   -0.2470   -0.1410    0.5576 C   0  0  1  0  0  0  0  0  0  0  0  0
    0.4572   -0.6505    1.2162 H   0  0  0  0  0  0  0  0  0  0  0  0
    0.3091   -0.2220   -0.8868 C   0  0  1  0  0  0  0  0  0  0  0  0
   -0.2118   -1.0410   -1.3866 H   0  0  0  0  0  0  0  0  0  0  0  0
    0.0431    1.0638   -1.6928 C   0  0  0  0  0  0  0  0  0  0  0  0
    0.6052    1.9014   -1.2760 H   0  0  0  0  0  0  0  0  0  0  0  0
    0.3317    0.9245   -2.7334 H   0  0  0  0  0  0  0  0  0  0  0  0
   -1.0195    1.3083   -1.6719 H   0  0  0  0  0  0  0  0  0  0  0  0
    1.8149   -0.5689   -0.8822 C   0  0  0  0  0  0  0  0  0  0  0  0
    2.4070    0.3445   -0.8123 H   0  0  0  0  0  0  0  0  0  0  0  0
    2.0303   -1.1839   -0.0084 H   0  0  0  0  0  0  0  0  0  0  0  0
    2.2711   -1.3550   -2.1188 C   0  0  0  0  0  0  0  0  0  0  0  0
    2.1776   -0.7438   -3.0163 H   0  0  0  0  0  0  0  0  0  0  0  0
    3.3172   -1.6376   -1.9993 H   0  0  0  0  0  0  0  0  0  0  0  0
    1.6704   -2.2585   -2.2290 H   0  0  0  0  0  0  0  0  0  0  0  0
   -0.3971    1.3008    1.0689 C   0  0  0  0  0  0  0  0  0  0  0  0
   -1.3643    1.9819    0.7311 O   0  0  0  0  0  0  0  0  0  0  0  0
    0.5522    1.7647    1.8915 N   0  0  0  0  0  0  0  0  0  0  0  0
    1.3093    1.1450    2.1332 H   0  0  0  0  0  0  0  0  0  0  0  0
    0.5577    3.1119    2.4582 C   0  0  0  0  0  0  0  0  0  0  0  0
   -0.3986    3.3098    2.9475 H   0  0  0  0  0  0  0  0  0  0  0  0
    1.3619    3.2123    3.1886 H   0  0  0  0  0  0  0  0  0  0  0  0
    0.6974    3.8450    1.6614 H   0  0  0  0  0  0  0  0  0  0  0  0
  5  6  2  0  0  0  0
  5  7  1  0  0  0  0
  2  3  1  0  0  0  0
  2  4  1  0  0  0  0
  2  5  1  0  0  0  0
  1  2  1  0  0  0  0
 24 25  2  0  0  0  0
 24 26  1  0  0  0  0
 20 21  1  0  0  0  0
 20 22  1  0  0  0  0
 20 23  1  0  0  0  0
 17 18  1  0  0  0  0
 17 19  1  0  0  0  0
 17 20  1  0  0  0  0
 13 14  1  0  0  0  0
 13 15  1  0  0  0  0
 13 16  1  0  0  0  0
 11 12  1  0  0  0  0
 11 13  1  0  0  0  0
 11 17  1  0  0  0  0
  9 10  1  0  0  0  0
  9 11  1  0  0  0  0
  9 24  1  0  0  0  0
  7  8  1  0  0  0  0
  7  9  1  0  0  0  0
 28 29  1  0  0  0  0
 28 30  1  0  0  0  0
 28 31  1  0  0  0  0
 26 27  1  0  0  0  0
 26 28  1  0  0  0  0
M  END
$$$$
default_name
  -OEChem-02102213163D

 31 30  0     1  0  0  0  0  0999 V2000
   -3.0760   -3.6390    1.5496 H   0  0  0  0  0  0  0  0  0  0  0  0
   -3.0940   -2.6290    1.1426 C   0  0  0  0  0  0  0  0  0  0  0  0
   -3.7160   -1.9930    1.7706 H   0  0  0  0  0  0  0  0  0  0  0  0
   -3.4880   -2.6500    0.1286 H   0  0  0  0  0  0  0  0  0  0  0  0
   -1.6860   -2.0850    1.1196 C   0  0  0  0  0  0  0  0  0  0  0  0
   -0.7540   -2.7700    1.5226 O   0  0  0  0  0  0  0  0  0  0  0  0
   -1.5320   -0.8490    0.6496 N   0  0  0  0  0  0  0  0  0  0  0  0
   -2.3500   -0.3360    0.3566 H   0  0  0  0  0  0  0  0  0  0  0  0
   -0.2470   -0.1410    0.5576 C   0  0  1  0  0  0  0  0  0  0  0  0
    0.4572   -0.6505    1.2162 H   0  0  0  0  0  0  0  0  0  0  0  0
    0.3091   -0.2220   -0.8868 C   0  0  1  0  0  0  0  0  0  0  0  0
   -0.2118   -1.0410   -1.3866 H   0  0  0  0  0  0  0  0  0  0  0  0
    0.0431    1.0638   -1.6928 C   0  0  0  0  0  0  0  0  0  0  0  0
    0.6052    1.9014   -1.2760 H   0  0  0  0  0  0  0  0  0  0  0  0
    0.3317    0.9245   -2.7334 H   0  0  0  0  0  0  0  0  0  0  0  0
   -1.0195    1.3083   -1.6719 H   0  0  0  0  0  0  0  0  0  0  0  0
    1.8149   -0.5689   -0.8822 C   0  0  0  0  0  0  0  0  0  0  0  0
    2.3944    0.2933   -0.5499 H   0  0  0  0  0  0  0  0  0  0  0  0
    1.9843   -1.3858   -0.1807 H   0  0  0  0  0  0  0  0  0  0  0  0
    2.3485   -1.0207   -2.2483 C   0  0  0  0  0  0  0  0  0  0  0  0
    2.3022   -0.2022   -2.9665 H   0  0  0  0  0  0  0  0  0  0  0  0
    3.3883   -1.3313   -2.1433 H   0  0  0  0  0  0  0  0  0  0  0  0
    1.7627   -1.8632   -2.6176 H   0  0  0  0  0  0  0  0  0  0  0  0
   -0.3971    1.3008    1.0689 C   0  0  0  0  0  0  0  0  0  0  0  0
   -1.3643    1.9819    0.7311 O   0  0  0  0  0  0  0  0  0  0  0  0
    0.5522    1.7647    1.8915 N   0  0  0  0  0  0  0  0  0  0  0  0
    1.3093    1.1450    2.1332 H   0  0  0  0  0  0  0  0  0  0  0  0
    0.5577    3.1119    2.4582 C   0  0  0  0  0  0  0  0  0  0  0  0
   -0.3986    3.3098    2.9475 H   0  0  0  0  0  0  0  0  0  0  0  0
    1.3619    3.2123    3.1886 H   0  0  0  0  0  0  0  0  0  0  0  0
    0.6974    3.8450    1.6614 H   0  0  0  0  0  0  0  0  0  0  0  0
  5  6  2  0  0  0  0
  5  7  1  0  0  0  0
  2  3  1  0  0  0  0
  2  4  1  0  0  0  0
  2  5  1  0  0  0  0
  1  2  1  0  0  0  0
 24 25  2  0  0  0  0
 24 26  1  0  0  0  0
 20 21  1  0  0  0  0
 20 22  1  0  0  0  0
 20 23  1  0  0  0  0
 17 18  1  0  0  0  0
 17 19  1  0  0  0  0
 17 20  1  0  0  0  0
 13 14  1  0  0  0  0
 13 15  1  0  0  0  0
 13 16  1  0  0  0  0
 11 12  1  0  0  0  0
 11 13  1  0  0  0  0
 11 17  1  0  0  0  0
  9 10  1  0  0  0  0
  9 11  1  0  0  0  0
  9 24  1  0  0  0  0
  7  8  1  0  0  0  0
  7  9  1  0  0  0  0
 28 29  1  0  0  0  0
 28 30  1  0  0  0  0
 28 31  1  0  0  0  0
 26 27  1  0  0  0  0
 26 28  1  0  0  0  0
M  END
$$$$
default_name
  -OEChem-02102213163D

 31 30  0     1  0  0  0  0  0999 V2000
   -3.0760   -3.6390    1.5496 H   0  0  0  0  0  0  0  0  0  0  0  0
   -3.0940   -2.6290    1.1426 C   0  0  0  0  0  0  0  0  0  0  0  0
   -3.7160   -1.9930    1.7706 H   0  0  0  0  0  0  0  0  0  0  0  0
   -3.4880   -2.6500    0.1286 H   0  0  0  0  0  0  0  0  0  0  0  0
   -1.6860   -2.0850    1.1196 C   0  0  0  0  0  0  0  0  0  0  0  0
   -0.7540   -2.7700    1.5226 O   0  0  0  0  0  0  0  0  0  0  0  0
   -1.5320   -0.8490    0.6496 N   0  0  0  0  0  0  0  0  0  0  0  0
   -2.3500   -0.3360    0.3566 H   0  0  0  0  0  0  0  0  0  0  0  0
   -0.2470   -0.1410    0.5576 C   0  0  1  0  0  0  0  0  0  0  0  0
    0.4572   -0.6505    1.2162 H   0  0  0  0  0  0  0  0  0  0  0  0
    0.3091   -0.2220   -0.8868 C   0  0  1  0  0  0  0  0  0  0  0  0
   -0.3809   -0.8416   -1.4629 H   0  0  0  0  0  0  0  0  0  0  0  0
    0.3804    1.1580   -1.5682 C   0  0  0  0  0  0  0  0  0  0  0  0
    1.1170    1.7932   -1.0729 H   0  0  0  0  0  0  0  0  0  0  0  0
    0.6529    1.0485   -2.6167 H   0  0  0  0  0  0  0  0  0  0  0  0
   -0.5924    1.6492   -1.5266 H   0  0  0  0  0  0  0  0  0  0  0  0
    1.6866   -0.9217   -0.9118 C   0  0  0  0  0  0  0  0  0  0  0  0
    2.3877   -0.3861   -0.2704 H   0  0  0  0  0  0  0  0  0  0  0  0
    1.5727   -1.9339   -0.5238 H   0  0  0  0  0  0  0  0  0  0  0  0
    2.2958   -1.0355   -2.3157 C   0  0  0  0  0  0  0  0  0  0  0  0
    2.5313   -0.0478   -2.7115 H   0  0  0  0  0  0  0  0  0  0  0  0
    3.2172   -1.6160   -2.2618 H   0  0  0  0  0  0  0  0  0  0  0  0
    1.5982   -1.5397   -2.9854 H   0  0  0  0  0  0  0  0  0  0  0  0
   -0.3971    1.3008    1.0689 C   0  0  0  0  0  0  0  0  0  0  0  0
   -1.3643    1.9819    0.7311 O   0  0  0  0  0  0  0  0  0  0  0  0
    0.5522    1.7647    1.8915 N   0  0  0  0  0  0  0  0  0  0  0  0
    1.3093    1.1450    2.1332 H   0  0  0  0  0  0  0  0  0  0  0  0
    0.5577    3.1119    2.4582 C   0  0  0  0  0  0  0  0  0  0  0  0
   -0.3986    3.3098    2.9475 H   0  0  0  0  0  0  0  0  0  0  0  0
    1.3619    3.2123    3.1886 H   0  0  0  0  0  0  0  0  0  0  0  0
    0.6974    3.8450    1.6614 H   0  0  0  0  0  0  0  0  0  0  0  0
  5  6  2  0  0  0  0
  5  7  1  0  0  0  0
  2  3  1  0  0  0  0
  2  4  1  0  0  0  0
  2  5  1  0  0  0  0
  1  2  1  0  0  0  0
 24 25  2  0  0  0  0
 24 26  1  0  0  0  0
 20 21  1  0  0  0  0
 20 22  1  0  0  0  0
 20 23  1  0  0  0  0
 17 18  1  0  0  0  0
 17 19  1  0  0  0  0
 17 20  1  0  0  0  0
 13 14  1  0  0  0  0
 13 15  1  0  0  0  0
 13 16  1  0  0  0  0
 11 12  1  0  0  0  0
 11 13  1  0  0  0  0
 11 17  1  0  0  0  0
  9 10  1  0  0  0  0
  9 11  1  0  0  0  0
  9 24  1  0  0  0  0
  7  8  1  0  0  0  0
  7  9  1  0  0  0  0
 28 29  1  0  0  0  0
 28 30  1  0  0  0  0
 28 31  1  0  0  0  0
 26 27  1  0  0  0  0
 26 28  1  0  0  0  0
M  END
$$$$
default_name
  -OEChem-02102213163D

 31 30  0     1  0  0  0  0  0999 V2000
   -3.0760   -3.6390    1.5496 H   0  0  0  0  0  0  0  0  0  0  0  0
   -3.0940   -2.6290    1.1426 C   0  0  0  0  0  0  0  0  0  0  0  0
   -3.7160   -1.9930    1.7706 H   0  0  0  0  0  0  0  0  0  0  0  0
   -3.4880   -2.6500    0.1286 H   0  0  0  0  0  0  0  0  0  0  0  0
   -1.6860   -2.0850    1.1196 C   0  0  0  0  0  0  0  0  0  0  0  0
   -0.7540   -2.7700    1.5226 O   0  0  0  0  0  0  0  0  0  0  0  0
   -1.5320   -0.8490    0.6496 N   0  0  0  0  0  0  0  0  0  0  0  0
   -2.3500   -0.3360    0.3566 H   0  0  0  0  0  0  0  0  0  0  0  0
   -0.2470   -0.1410    0.5576 C   0  0  1  0  0  0  0  0  0  0  0  0
    0.4572   -0.6505    1.2162 H   0  0  0  0  0  0  0  0  0  0  0  0
    0.3091   -0.2220   -0.8868 C   0  0  1  0  0  0  0  0  0  0  0  0
   -0.3809   -0.8416   -1.4629 H   0  0  0  0  0  0  0  0  0  0  0  0
    0.3804    1.1580   -1.5682 C   0  0  0  0  0  0  0  0  0  0  0  0
    1.1170    1.7932   -1.0729 H   0  0  0  0  0  0  0  0  0  0  0  0
    0.6529    1.0485   -2.6167 H   0  0  0  0  0  0  0  0  0  0  0  0
   -0.5924    1.6492   -1.5266 H   0  0  0  0  0  0  0  0  0  0  0  0
    1.6866   -0.9217   -0.9118 C   0  0  0  0  0  0  0  0  0  0  0  0
    2.3022   -0.5610   -0.0867 H   0  0  0  0  0  0  0  0  0  0  0  0
    1.5376   -1.9939   -0.7841 H   0  0  0  0  0  0  0  0  0  0  0  0
    2.4579   -0.7198   -2.2231 C   0  0  0  0  0  0  0  0  0  0  0  0
    2.7288    0.3282   -2.3498 H   0  0  0  0  0  0  0  0  0  0  0  0
    3.3720   -1.3135   -2.1975 H   0  0  0  0  0  0  0  0  0  0  0  0
    1.8488   -1.0435   -3.0678 H   0  0  0  0  0  0  0  0  0  0  0  0
   -0.3971    1.3008    1.0689 C   0  0  0  0  0  0  0  0  0  0  0  0
   -1.3643    1.9819    0.7311 O   0  0  0  0  0  0  0  0  0  0  0  0
    0.5522    1.7647    1.8915 N   0  0  0  0  0  0  0  0  0  0  0  0
    1.3093    1.1450    2.1332 H   0  0  0  0  0  0  0  0  0  0  0  0
    0.5577    3.1119    2.4582 C   0  0  0  0  0  0  0  0  0  0  0  0
   -0.3986    3.3098    2.9475 H   0  0  0  0  0  0  0  0  0  0  0  0
    1.3619    3.2123    3.1886 H   0  0  0  0  0  0  0  0  0  0  0  0
    0.6974    3.8450    1.6614 H   0  0  0  0  0  0  0  0  0  0  0  0
  5  6  2  0  0  0  0
  5  7  1  0  0  0  0
  2  3  1  0  0  0  0
  2  4  1  0  0  0  0
  2  5  1  0  0  0  0
  1  2  1  0  0  0  0
 24 25  2  0  0  0  0
 24 26  1  0  0  0  0
 20 21  1  0  0  0  0
 20 22  1  0  0  0  0
 20 23  1  0  0  0  0
 17 18  1  0  0  0  0
 17 19  1  0  0  0  0
 17 20  1  0  0  0  0
 13 14  1  0  0  0  0
 13 15  1  0  0  0  0
 13 16  1  0  0  0  0
 11 12  1  0  0  0  0
 11 13  1  0  0  0  0
 11 17  1  0  0  0  0
  9 10  1  0  0  0  0
  9 11  1  0  0  0  0
  9 24  1  0  0  0  0
  7  8  1  0  0  0  0
  7  9  1  0  0  0  0
 28 29  1  0  0  0  0
 28 30  1  0  0  0  0
 28 31  1  0  0  0  0
 26 27  1  0  0  0  0
 26 28  1  0  0  0  0
M  END
$$$$
default_name
  -OEChem-02102213163D

 31 30  0     1  0  0  0  0  0999 V2000
   -3.0760   -3.6390    1.5496 H   0  0  0  0  0  0  0  0  0  0  0  0
   -3.0940   -2.6290    1.1426 C   0  0  0  0  0  0  0  0  0  0  0  0
   -3.7160   -1.9930    1.7706 H   0  0  0  0  0  0  0  0  0  0  0  0
   -3.4880   -2.6500    0.1286 H   0  0  0  0  0  0  0  0  0  0  0  0
   -1.6860   -2.0850    1.1196 C   0  0  0  0  0  0  0  0  0  0  0  0
   -0.7540   -2.7700    1.5226 O   0  0  0  0  0  0  0  0  0  0  0  0
   -1.5320   -0.8490    0.6496 N   0  0  0  0  0  0  0  0  0  0  0  0
   -2.3500   -0.3360    0.3566 H   0  0  0  0  0  0  0  0  0  0  0  0
   -0.2470   -0.1410    0.5576 C   0  0  1  0  0  0  0  0  0  0  0  0
    0.4572   -0.6505    1.2162 H   0  0  0  0  0  0  0  0  0  0  0  0
    0.3091   -0.2220   -0.8868 C   0  0  1  0  0  0  0  0  0  0  0  0
   -0.3809   -0.8416   -1.4629 H   0  0  0  0  0  0  0  0  0  0  0  0
    0.3804    1.1580   -1.5682 C   0  0  0  0  0  0  0  0  0  0  0  0
    1.1170    1.7932   -1.0729 H   0  0  0  0  0  0  0  0  0  0  0  0
    0.6529    1.0485   -2.6167 H   0  0  0  0  0  0  0  0  0  0  0  0
   -0.5924    1.6492   -1.5266 H   0  0  0  0  0  0  0  0  0  0  0  0
    1.6866   -0.9217   -0.9118 C   0  0  0  0  0  0  0  0  0  0  0  0
    2.1974   -0.7720    0.0403 H   0  0  0  0  0  0  0  0  0  0  0  0
    1.5338   -1.9916   -1.0534 H   0  0  0  0  0  0  0  0  0  0  0  0
    2.6049   -0.4369   -2.0418 C   0  0  0  0  0  0  0  0  0  0  0  0
    2.8788    0.6071   -1.8905 H   0  0  0  0  0  0  0  0  0  0  0  0
    3.5153   -1.0368   -2.0475 H   0  0  0  0  0  0  0  0  0  0  0  0
    2.1026   -0.5462   -3.0036 H   0  0  0  0  0  0  0  0  0  0  0  0
   -0.3971    1.3008    1.0689 C   0  0  0  0  0  0  0  0  0  0  0  0
   -1.3643    1.9819    0.7311 O   0  0  0  0  0  0  0  0  0  0  0  0
    0.5522    1.7647    1.8915 N   0  0  0  0  0  0  0  0  0  0  0  0
    1.3093    1.1450    2.1332 H   0  0  0  0  0  0  0  0  0  0  0  0
    0.5577    3.1119    2.4582 C   0  0  0  0  0  0  0  0  0  0  0  0
   -0.3986    3.3098    2.9475 H   0  0  0  0  0  0  0  0  0  0  0  0
    1.3619    3.2123    3.1886 H   0  0  0  0  0  0  0  0  0  0  0  0
    0.6974    3.8450    1.6614 H   0  0  0  0  0  0  0  0  0  0  0  0
  5  6  2  0  0  0  0
  5  7  1  0  0  0  0
  2  3  1  0  0  0  0
  2  4  1  0  0  0  0
  2  5  1  0  0  0  0
  1  2  1  0  0  0  0
 24 25  2  0  0  0  0
 24 26  1  0  0  0  0
 20 21  1  0  0  0  0
 20 22  1  0  0  0  0
 20 23  1  0  0  0  0
 17 18  1  0  0  0  0
 17 19  1  0  0  0  0
 17 20  1  0  0  0  0
 13 14  1  0  0  0  0
 13 15  1  0  0  0  0
 13 16  1  0  0  0  0
 11 12  1  0  0  0  0
 11 13  1  0  0  0  0
 11 17  1  0  0  0  0
  9 10  1  0  0  0  0
  9 11  1  0  0  0  0
  9 24  1  0  0  0  0
  7  8  1  0  0  0  0
  7  9  1  0  0  0  0
 28 29  1  0  0  0  0
 28 30  1  0  0  0  0
 28 31  1  0  0  0  0
 26 27  1  0  0  0  0
 26 28  1  0  0  0  0
M  END
$$$$
default_name
  -OEChem-02102213163D

 31 30  0     1  0  0  0  0  0999 V2000
   -3.0760   -3.6390    1.5496 H   0  0  0  0  0  0  0  0  0  0  0  0
   -3.0940   -2.6290    1.1426 C   0  0  0  0  0  0  0  0  0  0  0  0
   -3.7160   -1.9930    1.7706 H   0  0  0  0  0  0  0  0  0  0  0  0
   -3.4880   -2.6500    0.1286 H   0  0  0  0  0  0  0  0  0  0  0  0
   -1.6860   -2.0850    1.1196 C   0  0  0  0  0  0  0  0  0  0  0  0
   -0.7540   -2.7700    1.5226 O   0  0  0  0  0  0  0  0  0  0  0  0
   -1.5320   -0.8490    0.6496 N   0  0  0  0  0  0  0  0  0  0  0  0
   -2.3500   -0.3360    0.3566 H   0  0  0  0  0  0  0  0  0  0  0  0
   -0.2470   -0.1410    0.5576 C   0  0  1  0  0  0  0  0  0  0  0  0
    0.4572   -0.6505    1.2162 H   0  0  0  0  0  0  0  0  0  0  0  0
    0.3091   -0.2220   -0.8868 C   0  0  1  0  0  0  0  0  0  0  0  0
   -0.3809   -0.8416   -1.4629 H   0  0  0  0  0  0  0  0  0  0  0  0
    0.3804    1.1580   -1.5682 C   0  0  0  0  0  0  0  0  0  0  0  0
    1.1170    1.7932   -1.0729 H   0  0  0  0  0  0  0  0  0  0  0  0
    0.6529    1.0485   -2.6167 H   0  0  0  0  0  0  0  0  0  0  0  0
   -0.5924    1.6492   -1.5266 H   0  0  0  0  0  0  0  0  0  0  0  0
    1.6866   -0.9217   -0.9118 C   0  0  0  0  0  0  0  0  0  0  0  0
    2.0803   -1.0047    0.1021 H   0  0  0  0  0  0  0  0  0  0  0  0
    1.5618   -1.9272   -1.3136 H   0  0  0  0  0  0  0  0  0  0  0  0
    2.7269   -0.2061   -1.7841 C   0  0  0  0  0  0  0  0  0  0  0  0
    2.9710    0.7698   -1.3649 H   0  0  0  0  0  0  0  0  0  0  0  0
    3.6373   -0.8047   -1.8219 H   0  0  0  0  0  0  0  0  0  0  0  0
    2.3423   -0.0817   -2.7970 H   0  0  0  0  0  0  0  0  0  0  0  0
   -0.3971    1.3008    1.0689 C   0  0  0  0  0  0  0  0  0  0  0  0
   -1.3643    1.9819    0.7311 O   0  0  0  0  0  0  0  0  0  0  0  0
    0.5522    1.7647    1.8915 N   0  0  0  0  0  0  0  0  0  0  0  0
    1.3093    1.1450    2.1332 H   0  0  0  0  0  0  0  0  0  0  0  0
    0.5577    3.1119    2.4582 C   0  0  0  0  0  0  0  0  0  0  0  0
   -0.3986    3.3098    2.9475 H   0  0  0  0  0  0  0  0  0  0  0  0
    1.3619    3.2123    3.1886 H   0  0  0  0  0  0  0  0  0  0  0  0
    0.6974    3.8450    1.6614 H   0  0  0  0  0  0  0  0  0  0  0  0
  5  6  2  0  0  0  0
  5  7  1  0  0  0  0
  2  3  1  0  0  0  0
  2  4  1  0  0  0  0
  2  5  1  0  0  0  0
  1  2  1  0  0  0  0
 24 25  2  0  0  0  0
 24 26  1  0  0  0  0
 20 21  1  0  0  0  0
 20 22  1  0  0  0  0
 20 23  1  0  0  0  0
 17 18  1  0  0  0  0
 17 19  1  0  0  0  0
 17 20  1  0  0  0  0
 13 14  1  0  0  0  0
 13 15  1  0  0  0  0
 13 16  1  0  0  0  0
 11 12  1  0  0  0  0
 11 13  1  0  0  0  0
 11 17  1  0  0  0  0
  9 10  1  0  0  0  0
  9 11  1  0  0  0  0
  9 24  1  0  0  0  0
  7  8  1  0  0  0  0
  7  9  1  0  0  0  0
 28 29  1  0  0  0  0
 28 30  1  0  0  0  0
 28 31  1  0  0  0  0
 26 27  1  0  0  0  0
 26 28  1  0  0  0  0
M  END
$$$$
default_name
  -OEChem-02102213163D

 31 30  0     1  0  0  0  0  0999 V2000
   -3.0760   -3.6390    1.5496 H   0  0  0  0  0  0  0  0  0  0  0  0
   -3.0940   -2.6290    1.1426 C   0  0  0  0  0  0  0  0  0  0  0  0
   -3.7160   -1.9930    1.7706 H   0  0  0  0  0  0  0  0  0  0  0  0
   -3.4880   -2.6500    0.1286 H   0  0  0  0  0  0  0  0  0  0  0  0
   -1.6860   -2.0850    1.1196 C   0  0  0  0  0  0  0  0  0  0  0  0
   -0.7540   -2.7700    1.5226 O   0  0  0  0  0  0  0  0  0  0  0  0
   -1.5320   -0.8490    0.6496 N   0  0  0  0  0  0  0  0  0  0  0  0
   -2.3500   -0.3360    0.3566 H   0  0  0  0  0  0  0  0  0  0  0  0
   -0.2470   -0.1410    0.5576 C   0  0  1  0  0  0  0  0  0  0  0  0
    0.4572   -0.6505    1.2162 H   0  0  0  0  0  0  0  0  0  0  0  0
    0.3091   -0.2220   -0.8868 C   0  0  1  0  0  0  0  0  0  0  0  0
   -0.3809   -0.8416   -1.4629 H   0  0  0  0  0  0  0  0  0  0  0  0
    0.3804    1.1580   -1.5682 C   0  0  0  0  0  0  0  0  0  0  0  0
    1.1170    1.7932   -1.0729 H   0  0  0  0  0  0  0  0  0  0  0  0
    0.6529    1.0485   -2.6167 H   0  0  0  0  0  0  0  0  0  0  0  0
   -0.5924    1.6492   -1.5266 H   0  0  0  0  0  0  0  0  0  0  0  0
    1.6866   -0.9217   -0.9118 C   0  0  0  0  0  0  0  0  0  0  0  0
    1.9590   -1.2432    0.0944 H   0  0  0  0  0  0  0  0  0  0  0  0
    1.6196   -1.8052   -1.5467 H   0  0  0  0  0  0  0  0  0  0  0  0
    2.8154   -0.0431   -1.4677 C   0  0  0  0  0  0  0  0  0  0  0  0
    2.9991    0.8054   -0.8088 H   0  0  0  0  0  0  0  0  0  0  0  0
    3.7296   -0.6331   -1.5362 H   0  0  0  0  0  0  0  0  0  0  0  0
    2.5516    0.3182   -2.4622 H   0  0  0  0  0  0  0  0  0  0  0  0
   -0.3971    1.3008    1.0689 C   0  0  0  0  0  0  0  0  0  0  0  0
   -1.3643    1.9819    0.7311 O   0  0  0  0  0  0  0  0  0  0  0  0
    0.5522    1.7647    1.8915 N   0  0  0  0  0  0  0  0  0  0  0  0
    1.3093    1.1450    2.1332 H   0  0  0  0  0  0  0  0  0  0  0  0
    0.5577    3.1119    2.4582 C   0  0  0  0  0  0  0  0  0  0  0  0
   -0.3986    3.3098    2.9475 H   0  0  0  0  0  0  0  0  0  0  0  0
    1.3619    3.2123    3.1886 H   0  0  0  0  0  0  0  0  0  0  0  0
    0.6974    3.8450    1.6614 H   0  0  0  0  0  0  0  0  0  0  0  0
  5  6  2  0  0  0  0
  5  7  1  0  0  0  0
  2  3  1  0  0  0  0
  2  4  1  0  0  0  0
  2  5  1  0  0  0  0
  1  2  1  0  0  0  0
 24 25  2  0  0  0  0
 24 26  1  0  0  0  0
 20 21  1  0  0  0  0
 20 22  1  0  0  0  0
 20 23  1  0  0  0  0
 17 18  1  0  0  0  0
 17 19  1  0  0  0  0
 17 20  1  0  0  0  0
 13 14  1  0  0  0  0
 13 15  1  0  0  0  0
 13 16  1  0  0  0  0
 11 12  1  0  0  0  0
 11 13  1  0  0  0  0
 11 17  1  0  0  0  0
  9 10  1  0  0  0  0
  9 11  1  0  0  0  0
  9 24  1  0  0  0  0
  7  8  1  0  0  0  0
  7  9  1  0  0  0  0
 28 29  1  0  0  0  0
 28 30  1  0  0  0  0
 28 31  1  0  0  0  0
 26 27  1  0  0  0  0
 26 28  1  0  0  0  0
M  END
$$$$
default_name
  -OEChem-02102213163D

 31 30  0     1  0  0  0  0  0999 V2000
   -3.0760   -3.6390    1.5496 H   0  0  0  0  0  0  0  0  0  0  0  0
   -3.0940   -2.6290    1.1426 C   0  0  0  0  0  0  0  0  0  0  0  0
   -3.7160   -1.9930    1.7706 H   0  0  0  0  0  0  0  0  0  0  0  0
   -3.4880   -2.6500    0.1286 H   0  0  0  0  0  0  0  0  0  0  0  0
   -1.6860   -2.0850    1.1196 C   0  0  0  0  0  0  0  0  0  0  0  0
   -0.7540   -2.7700    1.5226 O   0  0  0  0  0  0  0  0  0  0  0  0
   -1.5320   -0.8490    0.6496 N   0  0  0  0  0  0  0  0  0  0  0  0
   -2.3500   -0.3360    0.3566 H   0  0  0  0  0  0  0  0  0  0  0  0
   -0.2470   -0.1410    0.5576 C   0  0  1  0  0  0  0  0  0  0  0  0
    0.4572   -0.6505    1.2162 H   0  0  0  0  0  0  0  0  0  0  0  0
    0.3091   -0.2220   -0.8868 C   0  0  1  0  0  0  0  0  0  0  0  0
   -0.3809   -0.8416   -1.4629 H   0  0  0  0  0  0  0  0  0  0  0  0
    0.3804    1.1580   -1.5682 C   0  0  0  0  0  0  0  0  0  0  0  0
    1.1170    1.7932   -1.0729 H   0  0  0  0  0  0  0  0  0  0  0  0
    0.6529    1.0485   -2.6167 H   0  0  0  0  0  0  0  0  0  0  0  0
   -0.5924    1.6492   -1.5266 H   0  0  0  0  0  0  0  0  0  0  0  0
    1.6866   -0.9217   -0.9118 C   0  0  0  0  0  0  0  0  0  0  0  0
    1.8417   -1.4712    0.0176 H   0  0  0  0  0  0  0  0  0  0  0  0
    1.7033   -1.6337   -1.7369 H   0  0  0  0  0  0  0  0  0  0  0  0
    2.8645    0.0410   -1.1140 C   0  0  0  0  0  0  0  0  0  0  0  0
    2.9613    0.7113   -0.2602 H   0  0  0  0  0  0  0  0  0  0  0  0
    3.7860   -0.5336   -1.2098 H   0  0  0  0  0  0  0  0  0  0  0  0
    2.7161    0.6265   -2.0221 H   0  0  0  0  0  0  0  0  0  0  0  0
   -0.3971    1.3008    1.0689 C   0  0  0  0  0  0  0  0  0  0  0  0
   -1.3643    1.9819    0.7311 O   0  0  0  0  0  0  0  0  0  0  0  0
    0.5522    1.7647    1.8915 N   0  0  0  0  0  0  0  0  0  0  0  0
    1.3093    1.1450    2.1332 H   0  0  0  0  0  0  0  0  0  0  0  0
    0.5577    3.1119    2.4582 C   0  0  0  0  0  0  0  0  0  0  0  0
   -0.3986    3.3098    2.9475 H   0  0  0  0  0  0  0  0  0  0  0  0
    1.3619    3.2123    3.1886 H   0  0  0  0  0  0  0  0  0  0  0  0
    0.6974    3.8450    1.6614 H   0  0  0  0  0  0  0  0  0  0  0  0
  5  6  2  0  0  0  0
  5  7  1  0  0  0  0
  2  3  1  0  0  0  0
  2  4  1  0  0  0  0
  2  5  1  0  0  0  0
  1  2  1  0  0  0  0
 24 25  2  0  0  0  0
 24 26  1  0  0  0  0
 20 21  1  0  0  0  0
 20 22  1  0  0  0  0
 20 23  1  0  0  0  0
 17 18  1  0  0  0  0
 17 19  1  0  0  0  0
 17 20  1  0  0  0  0
 13 14  1  0  0  0  0
 13 15  1  0  0  0  0
 13 16  1  0  0  0  0
 11 12  1  0  0  0  0
 11 13  1  0  0  0  0
 11 17  1  0  0  0  0
  9 10  1  0  0  0  0
  9 11  1  0  0  0  0
  9 24  1  0  0  0  0
  7  8  1  0  0  0  0
  7  9  1  0  0  0  0
 28 29  1  0  0  0  0
 28 30  1  0  0  0  0
 28 31  1  0  0  0  0
 26 27  1  0  0  0  0
 26 28  1  0  0  0  0
M  END
$$$$
default_name
  -OEChem-02102213163D

 31 30  0     1  0  0  0  0  0999 V2000
   -3.0760   -3.6390    1.5496 H   0  0  0  0  0  0  0  0  0  0  0  0
   -3.0940   -2.6290    1.1426 C   0  0  0  0  0  0  0  0  0  0  0  0
   -3.7160   -1.9930    1.7706 H   0  0  0  0  0  0  0  0  0  0  0  0
   -3.4880   -2.6500    0.1286 H   0  0  0  0  0  0  0  0  0  0  0  0
   -1.6860   -2.0850    1.1196 C   0  0  0  0  0  0  0  0  0  0  0  0
   -0.7540   -2.7700    1.5226 O   0  0  0  0  0  0  0  0  0  0  0  0
   -1.5320   -0.8490    0.6496 N   0  0  0  0  0  0  0  0  0  0  0  0
   -2.3500   -0.3360    0.3566 H   0  0  0  0  0  0  0  0  0  0  0  0
   -0.2470   -0.1410    0.5576 C   0  0  1  0  0  0  0  0  0  0  0  0
    0.4572   -0.6505    1.2162 H   0  0  0  0  0  0  0  0  0  0  0  0
    0.3091   -0.2220   -0.8868 C   0  0  1  0  0  0  0  0  0  0  0  0
   -0.3809   -0.8416   -1.4629 H   0  0  0  0  0  0  0  0  0  0  0  0
    0.3804    1.1580   -1.5682 C   0  0  0  0  0  0  0  0  0  0  0  0
    1.1170    1.7932   -1.0729 H   0  0  0  0  0  0  0  0  0  0  0  0
    0.6529    1.0485   -2.6167 H   0  0  0  0  0  0  0  0  0  0  0  0
   -0.5924    1.6492   -1.5266 H   0  0  0  0  0  0  0  0  0  0  0  0
    1.6866   -0.9217   -0.9118 C   0  0  0  0  0  0  0  0  0  0  0  0
    1.7365   -1.6733   -0.1228 H   0  0  0  0  0  0  0  0  0  0  0  0
    1.8071   -1.4246   -1.8713 H   0  0  0  0  0  0  0  0  0  0  0  0
    2.8709    0.0404   -0.7473 C   0  0  0  0  0  0  0  0  0  0  0  0
    2.8601    0.4941    0.2436 H   0  0  0  0  0  0  0  0  0  0  0  0
    3.8027   -0.5131   -0.8650 H   0  0  0  0  0  0  0  0  0  0  0  0
    2.8248    0.8220   -1.5065 H   0  0  0  0  0  0  0  0  0  0  0  0
   -0.3971    1.3008    1.0689 C   0  0  0  0  0  0  0  0  0  0  0  0
   -1.3643    1.9819    0.7311 O   0  0  0  0  0  0  0  0  0  0  0  0
    0.5522    1.7647    1.8915 N   0  0  0  0  0  0  0  0  0  0  0  0
    1.3093    1.1450    2.1332 H   0  0  0  0  0  0  0  0  0  0  0  0
    0.5577    3.1119    2.4582 C   0  0  0  0  0  0  0  0  0  0  0  0
   -0.3986    3.3098    2.9475 H   0  0  0  0  0  0  0  0  0  0  0  0
    1.3619    3.2123    3.1886 H   0  0  0  0  0  0  0  0  0  0  0  0
    0.6974    3.8450    1.6614 H   0  0  0  0  0  0  0  0  0  0  0  0
  5  6  2  0  0  0  0
  5  7  1  0  0  0  0
  2  3  1  0  0  0  0
  2  4  1  0  0  0  0
  2  5  1  0  0  0  0
  1  2  1  0  0  0  0
 24 25  2  0  0  0  0
 24 26  1  0  0  0  0
 20 21  1  0  0  0  0
 20 22  1  0  0  0  0
 20 23  1  0  0  0  0
 17 18  1  0  0  0  0
 17 19  1  0  0  0  0
 17 20  1  0  0  0  0
 13 14  1  0  0  0  0
 13 15  1  0  0  0  0
 13 16  1  0  0  0  0
 11 12  1  0  0  0  0
 11 13  1  0  0  0  0
 11 17  1  0  0  0  0
  9 10  1  0  0  0  0
  9 11  1  0  0  0  0
  9 24  1  0  0  0  0
  7  8  1  0  0  0  0
  7  9  1  0  0  0  0
 28 29  1  0  0  0  0
 28 30  1  0  0  0  0
 28 31  1  0  0  0  0
 26 27  1  0  0  0  0
 26 28  1  0  0  0  0
M  END
$$$$
default_name
  -OEChem-02102213163D

 31 30  0     1  0  0  0  0  0999 V2000
   -3.0760   -3.6390    1.5496 H   0  0  0  0  0  0  0  0  0  0  0  0
   -3.0940   -2.6290    1.1426 C   0  0  0  0  0  0  0  0  0  0  0  0
   -3.7160   -1.9930    1.7706 H   0  0  0  0  0  0  0  0  0  0  0  0
   -3.4880   -2.6500    0.1286 H   0  0  0  0  0  0  0  0  0  0  0  0
   -1.6860   -2.0850    1.1196 C   0  0  0  0  0  0  0  0  0  0  0  0
   -0.7540   -2.7700    1.5226 O   0  0  0  0  0  0  0  0  0  0  0  0
   -1.5320   -0.8490    0.6496 N   0  0  0  0  0  0  0  0  0  0  0  0
   -2.3500   -0.3360    0.3566 H   0  0  0  0  0  0  0  0  0  0  0  0
   -0.2470   -0.1410    0.5576 C   0  0  1  0  0  0  0  0  0  0  0  0
    0.4572   -0.6505    1.2162 H   0  0  0  0  0  0  0  0  0  0  0  0
    0.3091   -0.2220   -0.8868 C   0  0  1  0  0  0  0  0  0  0  0  0
   -0.3809   -0.8416   -1.4629 H   0  0  0  0  0  0  0  0  0  0  0  0
    0.3804    1.1580   -1.5682 C   0  0  0  0  0  0  0  0  0  0  0  0
    1.1170    1.7932   -1.0729 H   0  0  0  0  0  0  0  0  0  0  0  0
    0.6529    1.0485   -2.6167 H   0  0  0  0  0  0  0  0  0  0  0  0
   -0.5924    1.6492   -1.5266 H   0  0  0  0  0  0  0  0  0  0  0  0
    1.6866   -0.9217   -0.9118 C   0  0  0  0  0  0  0  0  0  0  0  0
    1.6505   -1.8357   -0.3175 H   0  0  0  0  0  0  0  0  0  0  0  0
    1.9240   -1.1920   -1.9407 H   0  0  0  0  0  0  0  0  0  0  0  0
    2.8340   -0.0448   -0.3925 C   0  0  0  0  0  0  0  0  0  0  0  0
    2.7023    0.1684    0.6682 H   0  0  0  0  0  0  0  0  0  0  0  0
    3.7785   -0.5729   -0.5252 H   0  0  0  0  0  0  0  0  0  0  0  0
    2.8701    0.8914   -0.9506 H   0  0  0  0  0  0  0  0  0  0  0  0
   -0.3971    1.3008    1.0689 C   0  0  0  0  0  0  0  0  0  0  0  0
   -1.3643    1.9819    0.7311 O   0  0  0  0  0  0  0  0  0  0  0  0
    0.5522    1.7647    1.8915 N   0  0  0  0  0  0  0  0  0  0  0  0
    1.3093    1.1450    2.1332 H   0  0  0  0  0  0  0  0  0  0  0  0
    0.5577    3.1119    2.4582 C   0  0  0  0  0  0  0  0  0  0  0  0
   -0.3986    3.3098    2.9475 H   0  0  0  0  0  0  0  0  0  0  0  0
    1.3619    3.2123    3.1886 H   0  0  0  0  0  0  0  0  0  0  0  0
    0.6974    3.8450    1.6614 H   0  0  0  0  0  0  0  0  0  0  0  0
  5  6  2  0  0  0  0
  5  7  1  0  0  0  0
  2  3  1  0  0  0  0
  2  4  1  0  0  0  0
  2  5  1  0  0  0  0
  1  2  1  0  0  0  0
 24 25  2  0  0  0  0
 24 26  1  0  0  0  0
 20 21  1  0  0  0  0
 20 22  1  0  0  0  0
 20 23  1  0  0  0  0
 17 18  1  0  0  0  0
 17 19  1  0  0  0  0
 17 20  1  0  0  0  0
 13 14  1  0  0  0  0
 13 15  1  0  0  0  0
 13 16  1  0  0  0  0
 11 12  1  0  0  0  0
 11 13  1  0  0  0  0
 11 17  1  0  0  0  0
  9 10  1  0  0  0  0
  9 11  1  0  0  0  0
  9 24  1  0  0  0  0
  7  8  1  0  0  0  0
  7  9  1  0  0  0  0
 28 29  1  0  0  0  0
 28 30  1  0  0  0  0
 28 31  1  0  0  0  0
 26 27  1  0  0  0  0
 26 28  1  0  0  0  0
M  END
$$$$
default_name
  -OEChem-02102213163D

 31 30  0     1  0  0  0  0  0999 V2000
   -3.0760   -3.6390    1.5496 H   0  0  0  0  0  0  0  0  0  0  0  0
   -3.0940   -2.6290    1.1426 C   0  0  0  0  0  0  0  0  0  0  0  0
   -3.7160   -1.9930    1.7706 H   0  0  0  0  0  0  0  0  0  0  0  0
   -3.4880   -2.6500    0.1286 H   0  0  0  0  0  0  0  0  0  0  0  0
   -1.6860   -2.0850    1.1196 C   0  0  0  0  0  0  0  0  0  0  0  0
   -0.7540   -2.7700    1.5226 O   0  0  0  0  0  0  0  0  0  0  0  0
   -1.5320   -0.8490    0.6496 N   0  0  0  0  0  0  0  0  0  0  0  0
   -2.3500   -0.3360    0.3566 H   0  0  0  0  0  0  0  0  0  0  0  0
   -0.2470   -0.1410    0.5576 C   0  0  1  0  0  0  0  0  0  0  0  0
    0.4572   -0.6505    1.2162 H   0  0  0  0  0  0  0  0  0  0  0  0
    0.3091   -0.2220   -0.8868 C   0  0  1  0  0  0  0  0  0  0  0  0
   -0.3809   -0.8416   -1.4629 H   0  0  0  0  0  0  0  0  0  0  0  0
    0.3804    1.1580   -1.5682 C   0  0  0  0  0  0  0  0  0  0  0  0
    1.1170    1.7932   -1.0729 H   0  0  0  0  0  0  0  0  0  0  0  0
    0.6529    1.0485   -2.6167 H   0  0  0  0  0  0  0  0  0  0  0  0
   -0.5924    1.6492   -1.5266 H   0  0  0  0  0  0  0  0  0  0  0  0
    1.6866   -0.9217   -0.9118 C   0  0  0  0  0  0  0  0  0  0  0  0
    1.5896   -1.9473   -0.5530 H   0  0  0  0  0  0  0  0  0  0  0  0
    2.0460   -0.9518   -1.9403 H   0  0  0  0  0  0  0  0  0  0  0  0
    2.7564   -0.2088   -0.0737 C   0  0  0  0  0  0  0  0  0  0  0  0
    2.4988   -0.2435    0.9847 H   0  0  0  0  0  0  0  0  0  0  0  0
    3.7150   -0.7090   -0.2136 H   0  0  0  0  0  0  0  0  0  0  0  0
    2.8490    0.8300   -0.3924 H   0  0  0  0  0  0  0  0  0  0  0  0
   -0.3971    1.3008    1.0689 C   0  0  0  0  0  0  0  0  0  0  0  0
   -1.3643    1.9819    0.7311 O   0  0  0  0  0  0  0  0  0  0  0  0
    0.5522    1.7647    1.8915 N   0  0  0  0  0  0  0  0  0  0  0  0
    1.3093    1.1450    2.1332 H   0  0  0  0  0  0  0  0  0  0  0  0
    0.5577    3.1119    2.4582 C   0  0  0  0  0  0  0  0  0  0  0  0
   -0.3986    3.3098    2.9475 H   0  0  0  0  0  0  0  0  0  0  0  0
    1.3619    3.2123    3.1886 H   0  0  0  0  0  0  0  0  0  0  0  0
    0.6974    3.8450    1.6614 H   0  0  0  0  0  0  0  0  0  0  0  0
  5  6  2  0  0  0  0
  5  7  1  0  0  0  0
  2  3  1  0  0  0  0
  2  4  1  0  0  0  0
  2  5  1  0  0  0  0
  1  2  1  0  0  0  0
 24 25  2  0  0  0  0
 24 26  1  0  0  0  0
 20 21  1  0  0  0  0
 20 22  1  0  0  0  0
 20 23  1  0  0  0  0
 17 18  1  0  0  0  0
 17 19  1  0  0  0  0
 17 20  1  0  0  0  0
 13 14  1  0  0  0  0
 13 15  1  0  0  0  0
 13 16  1  0  0  0  0
 11 12  1  0  0  0  0
 11 13  1  0  0  0  0
 11 17  1  0  0  0  0
  9 10  1  0  0  0  0
  9 11  1  0  0  0  0
  9 24  1  0  0  0  0
  7  8  1  0  0  0  0
  7  9  1  0  0  0  0
 28 29  1  0  0  0  0
 28 30  1  0  0  0  0
 28 31  1  0  0  0  0
 26 27  1  0  0  0  0
 26 28  1  0  0  0  0
M  END
$$$$
default_name
  -OEChem-02102213163D

 31 30  0     1  0  0  0  0  0999 V2000
   -3.0760   -3.6390    1.5496 H   0  0  0  0  0  0  0  0  0  0  0  0
   -3.0940   -2.6290    1.1426 C   0  0  0  0  0  0  0  0  0  0  0  0
   -3.7160   -1.9930    1.7706 H   0  0  0  0  0  0  0  0  0  0  0  0
   -3.4880   -2.6500    0.1286 H   0  0  0  0  0  0  0  0  0  0  0  0
   -1.6860   -2.0850    1.1196 C   0  0  0  0  0  0  0  0  0  0  0  0
   -0.7540   -2.7700    1.5226 O   0  0  0  0  0  0  0  0  0  0  0  0
   -1.5320   -0.8490    0.6496 N   0  0  0  0  0  0  0  0  0  0  0  0
   -2.3500   -0.3360    0.3566 H   0  0  0  0  0  0  0  0  0  0  0  0
   -0.2470   -0.1410    0.5576 C   0  0  1  0  0  0  0  0  0  0  0  0
    0.4572   -0.6505    1.2162 H   0  0  0  0  0  0  0  0  0  0  0  0
    0.3091   -0.2220   -0.8868 C   0  0  1  0  0  0  0  0  0  0  0  0
   -0.3809   -0.8416   -1.4629 H   0  0  0  0  0  0  0  0  0  0  0  0
    0.3804    1.1580   -1.5682 C   0  0  0  0  0  0  0  0  0  0  0  0
    1.1170    1.7932   -1.0729 H   0  0  0  0  0  0  0  0  0  0  0  0
    0.6529    1.0485   -2.6167 H   0  0  0  0  0  0  0  0  0  0  0  0
   -0.5924    1.6492   -1.5266 H   0  0  0  0  0  0  0  0  0  0  0  0
    1.6866   -0.9217   -0.9118 C   0  0  0  0  0  0  0  0  0  0  0  0
    1.5578   -2.0004   -0.8134 H   0  0  0  0  0  0  0  0  0  0  0  0
    2.1649   -0.7204   -1.8703 H   0  0  0  0  0  0  0  0  0  0  0  0
    2.6435   -0.4405    0.1873 C   0  0  0  0  0  0  0  0  0  0  0  0
    2.2634   -0.7135    1.1716 H   0  0  0  0  0  0  0  0  0  0  0  0
    3.6166   -0.9120    0.0485 H   0  0  0  0  0  0  0  0  0  0  0  0
    2.7630    0.6420    0.1302 H   0  0  0  0  0  0  0  0  0  0  0  0
   -0.3971    1.3008    1.0689 C   0  0  0  0  0  0  0  0  0  0  0  0
   -1.3643    1.9819    0.7311 O   0  0  0  0  0  0  0  0  0  0  0  0
    0.5522    1.7647    1.8915 N   0  0  0  0  0  0  0  0  0  0  0  0
    1.3093    1.1450    2.1332 H   0  0  0  0  0  0  0  0  0  0  0  0
    0.5577    3.1119    2.4582 C   0  0  0  0  0  0  0  0  0  0  0  0
   -0.3986    3.3098    2.9475 H   0  0  0  0  0  0  0  0  0  0  0  0
    1.3619    3.2123    3.1886 H   0  0  0  0  0  0  0  0  0  0  0  0
    0.6974    3.8450    1.6614 H   0  0  0  0  0  0  0  0  0  0  0  0
  5  6  2  0  0  0  0
  5  7  1  0  0  0  0
  2  3  1  0  0  0  0
  2  4  1  0  0  0  0
  2  5  1  0  0  0  0
  1  2  1  0  0  0  0
 24 25  2  0  0  0  0
 24 26  1  0  0  0  0
 20 21  1  0  0  0  0
 20 22  1  0  0  0  0
 20 23  1  0  0  0  0
 17 18  1  0  0  0  0
 17 19  1  0  0  0  0
 17 20  1  0  0  0  0
 13 14  1  0  0  0  0
 13 15  1  0  0  0  0
 13 16  1  0  0  0  0
 11 12  1  0  0  0  0
 11 13  1  0  0  0  0
 11 17  1  0  0  0  0
  9 10  1  0  0  0  0
  9 11  1  0  0  0  0
  9 24  1  0  0  0  0
  7  8  1  0  0  0  0
  7  9  1  0  0  0  0
 28 29  1  0  0  0  0
 28 30  1  0  0  0  0
 28 31  1  0  0  0  0
 26 27  1  0  0  0  0
 26 28  1  0  0  0  0
M  END
$$$$
default_name
  -OEChem-02102213163D

 31 30  0     1  0  0  0  0  0999 V2000
   -3.0760   -3.6390    1.5496 H   0  0  0  0  0  0  0  0  0  0  0  0
   -3.0940   -2.6290    1.1426 C   0  0  0  0  0  0  0  0  0  0  0  0
   -3.7160   -1.9930    1.7706 H   0  0  0  0  0  0  0  0  0  0  0  0
   -3.4880   -2.6500    0.1286 H   0  0  0  0  0  0  0  0  0  0  0  0
   -1.6860   -2.0850    1.1196 C   0  0  0  0  0  0  0  0  0  0  0  0
   -0.7540   -2.7700    1.5226 O   0  0  0  0  0  0  0  0  0  0  0  0
   -1.5320   -0.8490    0.6496 N   0  0  0  0  0  0  0  0  0  0  0  0
   -2.3500   -0.3360    0.3566 H   0  0  0  0  0  0  0  0  0  0  0  0
   -0.2470   -0.1410    0.5576 C   0  0  1  0  0  0  0  0  0  0  0  0
    0.4572   -0.6505    1.2162 H   0  0  0  0  0  0  0  0  0  0  0  0
    0.3091   -0.2220   -0.8868 C   0  0  1  0  0  0  0  0  0  0  0  0
   -0.3809   -0.8416   -1.4629 H   0  0  0  0  0  0  0  0  0  0  0  0
    0.3804    1.1580   -1.5682 C   0  0  0  0  0  0  0  0  0  0  0  0
    1.1170    1.7932   -1.0729 H   0  0  0  0  0  0  0  0  0  0  0  0
    0.6529    1.0485   -2.6167 H   0  0  0  0  0  0  0  0  0  0  0  0
   -0.5924    1.6492   -1.5266 H   0  0  0  0  0  0  0  0  0  0  0  0
    1.6866   -0.9217   -0.9118 C   0  0  0  0  0  0  0  0  0  0  0  0
    1.5575   -1.9916   -1.0810 H   0  0  0  0  0  0  0  0  0  0  0  0
    2.2724   -0.5135   -1.7353 H   0  0  0  0  0  0  0  0  0  0  0  0
    2.5028   -0.7240    0.3727 C   0  0  0  0  0  0  0  0  0  0  0  0
    2.0122   -1.2096    1.2160 H   0  0  0  0  0  0  0  0  0  0  0  0
    3.4900   -1.1682    0.2433 H   0  0  0  0  0  0  0  0  0  0  0  0
    2.6179    0.3402    0.5815 H   0  0  0  0  0  0  0  0  0  0  0  0
   -0.3971    1.3008    1.0689 C   0  0  0  0  0  0  0  0  0  0  0  0
   -1.3643    1.9819    0.7311 O   0  0  0  0  0  0  0  0  0  0  0  0
    0.5522    1.7647    1.8915 N   0  0  0  0  0  0  0  0  0  0  0  0
    1.3093    1.1450    2.1332 H   0  0  0  0  0  0  0  0  0  0  0  0
    0.5577    3.1119    2.4582 C   0  0  0  0  0  0  0  0  0  0  0  0
   -0.3986    3.3098    2.9475 H   0  0  0  0  0  0  0  0  0  0  0  0
    1.3619    3.2123    3.1886 H   0  0  0  0  0  0  0  0  0  0  0  0
    0.6974    3.8450    1.6614 H   0  0  0  0  0  0  0  0  0  0  0  0
  5  6  2  0  0  0  0
  5  7  1  0  0  0  0
  2  3  1  0  0  0  0
  2  4  1  0  0  0  0
  2  5  1  0  0  0  0
  1  2  1  0  0  0  0
 24 25  2  0  0  0  0
 24 26  1  0  0  0  0
 20 21  1  0  0  0  0
 20 22  1  0  0  0  0
 20 23  1  0  0  0  0
 17 18  1  0  0  0  0
 17 19  1  0  0  0  0
 17 20  1  0  0  0  0
 13 14  1  0  0  0  0
 13 15  1  0  0  0  0
 13 16  1  0  0  0  0
 11 12  1  0  0  0  0
 11 13  1  0  0  0  0
 11 17  1  0  0  0  0
  9 10  1  0  0  0  0
  9 11  1  0  0  0  0
  9 24  1  0  0  0  0
  7  8  1  0  0  0  0
  7  9  1  0  0  0  0
 28 29  1  0  0  0  0
 28 30  1  0  0  0  0
 28 31  1  0  0  0  0
 26 27  1  0  0  0  0
 26 28  1  0  0  0  0
M  END
$$$$
default_name
  -OEChem-02102213163D

 31 30  0     1  0  0  0  0  0999 V2000
   -3.0760   -3.6390    1.5496 H   0  0  0  0  0  0  0  0  0  0  0  0
   -3.0940   -2.6290    1.1426 C   0  0  0  0  0  0  0  0  0  0  0  0
   -3.7160   -1.9930    1.7706 H   0  0  0  0  0  0  0  0  0  0  0  0
   -3.4880   -2.6500    0.1286 H   0  0  0  0  0  0  0  0  0  0  0  0
   -1.6860   -2.0850    1.1196 C   0  0  0  0  0  0  0  0  0  0  0  0
   -0.7540   -2.7700    1.5226 O   0  0  0  0  0  0  0  0  0  0  0  0
   -1.5320   -0.8490    0.6496 N   0  0  0  0  0  0  0  0  0  0  0  0
   -2.3500   -0.3360    0.3566 H   0  0  0  0  0  0  0  0  0  0  0  0
   -0.2470   -0.1410    0.5576 C   0  0  1  0  0  0  0  0  0  0  0  0
    0.4572   -0.6505    1.2162 H   0  0  0  0  0  0  0  0  0  0  0  0
    0.3091   -0.2220   -0.8868 C   0  0  1  0  0  0  0  0  0  0  0  0
   -0.3809   -0.8416   -1.4629 H   0  0  0  0  0  0  0  0  0  0  0  0
    0.3804    1.1580   -1.5682 C   0  0  0  0  0  0  0  0  0  0  0  0
    1.1170    1.7932   -1.0729 H   0  0  0  0  0  0  0  0  0  0  0  0
    0.6529    1.0485   -2.6167 H   0  0  0  0  0  0  0  0  0  0  0  0
   -0.5924    1.6492   -1.5266 H   0  0  0  0  0  0  0  0  0  0  0  0
    1.6866   -0.9217   -0.9118 C   0  0  0  0  0  0  0  0  0  0  0  0
    1.5886   -1.9213   -1.3374 H   0  0  0  0  0  0  0  0  0  0  0  0
    2.3613   -0.3452   -1.5446 H   0  0  0  0  0  0  0  0  0  0  0  0
    2.3440   -1.0400    0.4699 C   0  0  0  0  0  0  0  0  0  0  0  0
    1.7622   -1.6981    1.1150 H   0  0  0  0  0  0  0  0  0  0  0  0
    3.3438   -1.4601    0.3575 H   0  0  0  0  0  0  0  0  0  0  0  0
    2.4235   -0.0548    0.9308 H   0  0  0  0  0  0  0  0  0  0  0  0
   -0.3971    1.3008    1.0689 C   0  0  0  0  0  0  0  0  0  0  0  0
   -1.3643    1.9819    0.7311 O   0  0  0  0  0  0  0  0  0  0  0  0
    0.5522    1.7647    1.8915 N   0  0  0  0  0  0  0  0  0  0  0  0
    1.3093    1.1450    2.1332 H   0  0  0  0  0  0  0  0  0  0  0  0
    0.5577    3.1119    2.4582 C   0  0  0  0  0  0  0  0  0  0  0  0
   -0.3986    3.3098    2.9475 H   0  0  0  0  0  0  0  0  0  0  0  0
    1.3619    3.2123    3.1886 H   0  0  0  0  0  0  0  0  0  0  0  0
    0.6974    3.8450    1.6614 H   0  0  0  0  0  0  0  0  0  0  0  0
  5  6  2  0  0  0  0
  5  7  1  0  0  0  0
  2  3  1  0  0  0  0
  2  4  1  0  0  0  0
  2  5  1  0  0  0  0
  1  2  1  0  0  0  0
 24 25  2  0  0  0  0
 24 26  1  0  0  0  0
 20 21  1  0  0  0  0
 20 22  1  0  0  0  0
 20 23  1  0  0  0  0
 17 18  1  0  0  0  0
 17 19  1  0  0  0  0
 17 20  1  0  0  0  0
 13 14  1  0  0  0  0
 13 15  1  0  0  0  0
 13 16  1  0  0  0  0
 11 12  1  0  0  0  0
 11 13  1  0  0  0  0
 11 17  1  0  0  0  0
  9 10  1  0  0  0  0
  9 11  1  0  0  0  0
  9 24  1  0  0  0  0
  7  8  1  0  0  0  0
  7  9  1  0  0  0  0
 28 29  1  0  0  0  0
 28 30  1  0  0  0  0
 28 31  1  0  0  0  0
 26 27  1  0  0  0  0
 26 28  1  0  0  0  0
M  END
$$$$
default_name
  -OEChem-02102213163D

 31 30  0     1  0  0  0  0  0999 V2000
   -3.0760   -3.6390    1.5496 H   0  0  0  0  0  0  0  0  0  0  0  0
   -3.0940   -2.6290    1.1426 C   0  0  0  0  0  0  0  0  0  0  0  0
   -3.7160   -1.9930    1.7706 H   0  0  0  0  0  0  0  0  0  0  0  0
   -3.4880   -2.6500    0.1286 H   0  0  0  0  0  0  0  0  0  0  0  0
   -1.6860   -2.0850    1.1196 C   0  0  0  0  0  0  0  0  0  0  0  0
   -0.7540   -2.7700    1.5226 O   0  0  0  0  0  0  0  0  0  0  0  0
   -1.5320   -0.8490    0.6496 N   0  0  0  0  0  0  0  0  0  0  0  0
   -2.3500   -0.3360    0.3566 H   0  0  0  0  0  0  0  0  0  0  0  0
   -0.2470   -0.1410    0.5576 C   0  0  1  0  0  0  0  0  0  0  0  0
    0.4572   -0.6505    1.2162 H   0  0  0  0  0  0  0  0  0  0  0  0
    0.3091   -0.2220   -0.8868 C   0  0  1  0  0  0  0  0  0  0  0  0
   -0.3809   -0.8416   -1.4629 H   0  0  0  0  0  0  0  0  0  0  0  0
    0.3804    1.1580   -1.5682 C   0  0  0  0  0  0  0  0  0  0  0  0
    1.1170    1.7932   -1.0729 H   0  0  0  0  0  0  0  0  0  0  0  0
    0.6529    1.0485   -2.6167 H   0  0  0  0  0  0  0  0  0  0  0  0
   -0.5924    1.6492   -1.5266 H   0  0  0  0  0  0  0  0  0  0  0  0
    1.6866   -0.9217   -0.9118 C   0  0  0  0  0  0  0  0  0  0  0  0
    1.6489   -1.7944   -1.5652 H   0  0  0  0  0  0  0  0  0  0  0  0
    2.4255   -0.2271   -1.3111 H   0  0  0  0  0  0  0  0  0  0  0  0
    2.1779   -1.3670    0.4722 C   0  0  0  0  0  0  0  0  0  0  0  0
    1.5306   -2.1455    0.8755 H   0  0  0  0  0  0  0  0  0  0  0  0
    3.1880   -1.7677    0.3833 H   0  0  0  0  0  0  0  0  0  0  0  0
    2.1932   -0.5162    1.1543 H   0  0  0  0  0  0  0  0  0  0  0  0
   -0.3971    1.3008    1.0689 C   0  0  0  0  0  0  0  0  0  0  0  0
   -1.3643    1.9819    0.7311 O   0  0  0  0  0  0  0  0  0  0  0  0
    0.5522    1.7647    1.8915 N   0  0  0  0  0  0  0  0  0  0  0  0
    1.3093    1.1450    2.1332 H   0  0  0  0  0  0  0  0  0  0  0  0
    0.5577    3.1119    2.4582 C   0  0  0  0  0  0  0  0  0  0  0  0
   -0.3986    3.3098    2.9475 H   0  0  0  0  0  0  0  0  0  0  0  0
    1.3619    3.2123    3.1886 H   0  0  0  0  0  0  0  0  0  0  0  0
    0.6974    3.8450    1.6614 H   0  0  0  0  0  0  0  0  0  0  0  0
  5  6  2  0  0  0  0
  5  7  1  0  0  0  0
  2  3  1  0  0  0  0
  2  4  1  0  0  0  0
  2  5  1  0  0  0  0
  1  2  1  0  0  0  0
 24 25  2  0  0  0  0
 24 26  1  0  0  0  0
 20 21  1  0  0  0  0
 20 22  1  0  0  0  0
 20 23  1  0  0  0  0
 17 18  1  0  0  0  0
 17 19  1  0  0  0  0
 17 20  1  0  0  0  0
 13 14  1  0  0  0  0
 13 15  1  0  0  0  0
 13 16  1  0  0  0  0
 11 12  1  0  0  0  0
 11 13  1  0  0  0  0
 11 17  1  0  0  0  0
  9 10  1  0  0  0  0
  9 11  1  0  0  0  0
  9 24  1  0  0  0  0
  7  8  1  0  0  0  0
  7  9  1  0  0  0  0
 28 29  1  0  0  0  0
 28 30  1  0  0  0  0
 28 31  1  0  0  0  0
 26 27  1  0  0  0  0
 26 28  1  0  0  0  0
M  END
$$$$
default_name
  -OEChem-02102213163D

 31 30  0     1  0  0  0  0  0999 V2000
   -3.0760   -3.6390    1.5496 H   0  0  0  0  0  0  0  0  0  0  0  0
   -3.0940   -2.6290    1.1426 C   0  0  0  0  0  0  0  0  0  0  0  0
   -3.7160   -1.9930    1.7706 H   0  0  0  0  0  0  0  0  0  0  0  0
   -3.4880   -2.6500    0.1286 H   0  0  0  0  0  0  0  0  0  0  0  0
   -1.6860   -2.0850    1.1196 C   0  0  0  0  0  0  0  0  0  0  0  0
   -0.7540   -2.7700    1.5226 O   0  0  0  0  0  0  0  0  0  0  0  0
   -1.5320   -0.8490    0.6496 N   0  0  0  0  0  0  0  0  0  0  0  0
   -2.3500   -0.3360    0.3566 H   0  0  0  0  0  0  0  0  0  0  0  0
   -0.2470   -0.1410    0.5576 C   0  0  1  0  0  0  0  0  0  0  0  0
    0.4572   -0.6505    1.2162 H   0  0  0  0  0  0  0  0  0  0  0  0
    0.3091   -0.2220   -0.8868 C   0  0  1  0  0  0  0  0  0  0  0  0
   -0.3809   -0.8416   -1.4629 H   0  0  0  0  0  0  0  0  0  0  0  0
    0.3804    1.1580   -1.5682 C   0  0  0  0  0  0  0  0  0  0  0  0
    1.1170    1.7932   -1.0729 H   0  0  0  0  0  0  0  0  0  0  0  0
    0.6529    1.0485   -2.6167 H   0  0  0  0  0  0  0  0  0  0  0  0
   -0.5924    1.6492   -1.5266 H   0  0  0  0  0  0  0  0  0  0  0  0
    1.6866   -0.9217   -0.9118 C   0  0  0  0  0  0  0  0  0  0  0  0
    1.7344   -1.6195   -1.7489 H   0  0  0  0  0  0  0  0  0  0  0  0
    2.4607   -0.1672   -1.0508 H   0  0  0  0  0  0  0  0  0  0  0  0
    2.0159   -1.6828    0.3796 C   0  0  0  0  0  0  0  0  0  0  0  0
    1.3330   -2.5215    0.5137 H   0  0  0  0  0  0  0  0  0  0  0  0
    3.0331   -2.0702    0.3190 H   0  0  0  0  0  0  0  0  0  0  0  0
    1.9426   -1.0124    1.2367 H   0  0  0  0  0  0  0  0  0  0  0  0
   -0.3971    1.3008    1.0689 C   0  0  0  0  0  0  0  0  0  0  0  0
   -1.3643    1.9819    0.7311 O   0  0  0  0  0  0  0  0  0  0  0  0
    0.5522    1.7647    1.8915 N   0  0  0  0  0  0  0  0  0  0  0  0
    1.3093    1.1450    2.1332 H   0  0  0  0  0  0  0  0  0  0  0  0
    0.5577    3.1119    2.4582 C   0  0  0  0  0  0  0  0  0  0  0  0
   -0.3986    3.3098    2.9475 H   0  0  0  0  0  0  0  0  0  0  0  0
    1.3619    3.2123    3.1886 H   0  0  0  0  0  0  0  0  0  0  0  0
    0.6974    3.8450    1.6614 H   0  0  0  0  0  0  0  0  0  0  0  0
  5  6  2  0  0  0  0
  5  7  1  0  0  0  0
  2  3  1  0  0  0  0
  2  4  1  0  0  0  0
  2  5  1  0  0  0  0
  1  2  1  0  0  0  0
 24 25  2  0  0  0  0
 24 26  1  0  0  0  0
 20 21  1  0  0  0  0
 20 22  1  0  0  0  0
 20 23  1  0  0  0  0
 17 18  1  0  0  0  0
 17 19  1  0  0  0  0
 17 20  1  0  0  0  0
 13 14  1  0  0  0  0
 13 15  1  0  0  0  0
 13 16  1  0  0  0  0
 11 12  1  0  0  0  0
 11 13  1  0  0  0  0
 11 17  1  0  0  0  0
  9 10  1  0  0  0  0
  9 11  1  0  0  0  0
  9 24  1  0  0  0  0
  7  8  1  0  0  0  0
  7  9  1  0  0  0  0
 28 29  1  0  0  0  0
 28 30  1  0  0  0  0
 28 31  1  0  0  0  0
 26 27  1  0  0  0  0
 26 28  1  0  0  0  0
M  END
$$$$
default_name
  -OEChem-02102213163D

 31 30  0     1  0  0  0  0  0999 V2000
   -3.0760   -3.6390    1.5496 H   0  0  0  0  0  0  0  0  0  0  0  0
   -3.0940   -2.6290    1.1426 C   0  0  0  0  0  0  0  0  0  0  0  0
   -3.7160   -1.9930    1.7706 H   0  0  0  0  0  0  0  0  0  0  0  0
   -3.4880   -2.6500    0.1286 H   0  0  0  0  0  0  0  0  0  0  0  0
   -1.6860   -2.0850    1.1196 C   0  0  0  0  0  0  0  0  0  0  0  0
   -0.7540   -2.7700    1.5226 O   0  0  0  0  0  0  0  0  0  0  0  0
   -1.5320   -0.8490    0.6496 N   0  0  0  0  0  0  0  0  0  0  0  0
   -2.3500   -0.3360    0.3566 H   0  0  0  0  0  0  0  0  0  0  0  0
   -0.2470   -0.1410    0.5576 C   0  0  1  0  0  0  0  0  0  0  0  0
    0.4572   -0.6505    1.2162 H   0  0  0  0  0  0  0  0  0  0  0  0
    0.3091   -0.2220   -0.8868 C   0  0  1  0  0  0  0  0  0  0  0  0
   -0.3809   -0.8416   -1.4629 H   0  0  0  0  0  0  0  0  0  0  0  0
    0.3804    1.1580   -1.5682 C   0  0  0  0  0  0  0  0  0  0  0  0
    1.1170    1.7932   -1.0729 H   0  0  0  0  0  0  0  0  0  0  0  0
    0.6529    1.0485   -2.6167 H   0  0  0  0  0  0  0  0  0  0  0  0
   -0.5924    1.6492   -1.5266 H   0  0  0  0  0  0  0  0  0  0  0  0
    1.6866   -0.9217   -0.9118 C   0  0  0  0  0  0  0  0  0  0  0  0
    1.8393   -1.4085   -1.8759 H   0  0  0  0  0  0  0  0  0  0  0  0
    2.4644   -0.1694   -0.7815 H   0  0  0  0  0  0  0  0  0  0  0  0
    1.8689   -1.9657    0.1982 C   0  0  0  0  0  0  0  0  0  0  0  0
    1.1830   -2.8004    0.0544 H   0  0  0  0  0  0  0  0  0  0  0  0
    2.8898   -2.3470    0.1690 H   0  0  0  0  0  0  0  0  0  0  0  0
    1.6888   -1.5097    1.1724 H   0  0  0  0  0  0  0  0  0  0  0  0
   -0.3971    1.3008    1.0689 C   0  0  0  0  0  0  0  0  0  0  0  0
   -1.3643    1.9819    0.7311 O   0  0  0  0  0  0  0  0  0  0  0  0
    0.5522    1.7647    1.8915 N   0  0  0  0  0  0  0  0  0  0  0  0
    1.3093    1.1450    2.1332 H   0  0  0  0  0  0  0  0  0  0  0  0
    0.5577    3.1119    2.4582 C   0  0  0  0  0  0  0  0  0  0  0  0
   -0.3986    3.3098    2.9475 H   0  0  0  0  0  0  0  0  0  0  0  0
    1.3619    3.2123    3.1886 H   0  0  0  0  0  0  0  0  0  0  0  0
    0.6974    3.8450    1.6614 H   0  0  0  0  0  0  0  0  0  0  0  0
  5  6  2  0  0  0  0
  5  7  1  0  0  0  0
  2  3  1  0  0  0  0
  2  4  1  0  0  0  0
  2  5  1  0  0  0  0
  1  2  1  0  0  0  0
 24 25  2  0  0  0  0
 24 26  1  0  0  0  0
 20 21  1  0  0  0  0
 20 22  1  0  0  0  0
 20 23  1  0  0  0  0
 17 18  1  0  0  0  0
 17 19  1  0  0  0  0
 17 20  1  0  0  0  0
 13 14  1  0  0  0  0
 13 15  1  0  0  0  0
 13 16  1  0  0  0  0
 11 12  1  0  0  0  0
 11 13  1  0  0  0  0
 11 17  1  0  0  0  0
  9 10  1  0  0  0  0
  9 11  1  0  0  0  0
  9 24  1  0  0  0  0
  7  8  1  0  0  0  0
  7  9  1  0  0  0  0
 28 29  1  0  0  0  0
 28 30  1  0  0  0  0
 28 31  1  0  0  0  0
 26 27  1  0  0  0  0
 26 28  1  0  0  0  0
M  END
$$$$
default_name
  -OEChem-02102213163D

 31 30  0     1  0  0  0  0  0999 V2000
   -3.0760   -3.6390    1.5496 H   0  0  0  0  0  0  0  0  0  0  0  0
   -3.0940   -2.6290    1.1426 C   0  0  0  0  0  0  0  0  0  0  0  0
   -3.7160   -1.9930    1.7706 H   0  0  0  0  0  0  0  0  0  0  0  0
   -3.4880   -2.6500    0.1286 H   0  0  0  0  0  0  0  0  0  0  0  0
   -1.6860   -2.0850    1.1196 C   0  0  0  0  0  0  0  0  0  0  0  0
   -0.7540   -2.7700    1.5226 O   0  0  0  0  0  0  0  0  0  0  0  0
   -1.5320   -0.8490    0.6496 N   0  0  0  0  0  0  0  0  0  0  0  0
   -2.3500   -0.3360    0.3566 H   0  0  0  0  0  0  0  0  0  0  0  0
   -0.2470   -0.1410    0.5576 C   0  0  1  0  0  0  0  0  0  0  0  0
    0.4572   -0.6505    1.2162 H   0  0  0  0  0  0  0  0  0  0  0  0
    0.3091   -0.2220   -0.8868 C   0  0  1  0  0  0  0  0  0  0  0  0
   -0.3809   -0.8416   -1.4629 H   0  0  0  0  0  0  0  0  0  0  0  0
    0.3804    1.1580   -1.5682 C   0  0  0  0  0  0  0  0  0  0  0  0
    1.1170    1.7932   -1.0729 H   0  0  0  0  0  0  0  0  0  0  0  0
    0.6529    1.0485   -2.6167 H   0  0  0  0  0  0  0  0  0  0  0  0
   -0.5924    1.6492   -1.5266 H   0  0  0  0  0  0  0  0  0  0  0  0
    1.6866   -0.9217   -0.9118 C   0  0  0  0  0  0  0  0  0  0  0  0
    1.9564   -1.1759   -1.9377 H   0  0  0  0  0  0  0  0  0  0  0  0
    2.4365   -0.2338   -0.5213 H   0  0  0  0  0  0  0  0  0  0  0  0
    1.7469   -2.1965   -0.0594 C   0  0  0  0  0  0  0  0  0  0  0  0
    1.0908   -2.9631   -0.4712 H   0  0  0  0  0  0  0  0  0  0  0  0
    2.7679   -2.5790   -0.0566 H   0  0  0  0  0  0  0  0  0  0  0  0
    1.4491   -1.9742    0.9659 H   0  0  0  0  0  0  0  0  0  0  0  0
   -0.3971    1.3008    1.0689 C   0  0  0  0  0  0  0  0  0  0  0  0
   -1.3643    1.9819    0.7311 O   0  0  0  0  0  0  0  0  0  0  0  0
    0.5522    1.7647    1.8915 N   0  0  0  0  0  0  0  0  0  0  0  0
    1.3093    1.1450    2.1332 H   0  0  0  0  0  0  0  0  0  0  0  0
    0.5577    3.1119    2.4582 C   0  0  0  0  0  0  0  0  0  0  0  0
   -0.3986    3.3098    2.9475 H   0  0  0  0  0  0  0  0  0  0  0  0
    1.3619    3.2123    3.1886 H   0  0  0  0  0  0  0  0  0  0  0  0
    0.6974    3.8450    1.6614 H   0  0  0  0  0  0  0  0  0  0  0  0
  5  6  2  0  0  0  0
  5  7  1  0  0  0  0
  2  3  1  0  0  0  0
  2  4  1  0  0  0  0
  2  5  1  0  0  0  0
  1  2  1  0  0  0  0
 24 25  2  0  0  0  0
 24 26  1  0  0  0  0
 20 21  1  0  0  0  0
 20 22  1  0  0  0  0
 20 23  1  0  0  0  0
 17 18  1  0  0  0  0
 17 19  1  0  0  0  0
 17 20  1  0  0  0  0
 13 14  1  0  0  0  0
 13 15  1  0  0  0  0
 13 16  1  0  0  0  0
 11 12  1  0  0  0  0
 11 13  1  0  0  0  0
 11 17  1  0  0  0  0
  9 10  1  0  0  0  0
  9 11  1  0  0  0  0
  9 24  1  0  0  0  0
  7  8  1  0  0  0  0
  7  9  1  0  0  0  0
 28 29  1  0  0  0  0
 28 30  1  0  0  0  0
 28 31  1  0  0  0  0
 26 27  1  0  0  0  0
 26 28  1  0  0  0  0
M  END
$$$$
default_name
  -OEChem-02102213163D

 31 30  0     1  0  0  0  0  0999 V2000
   -3.0760   -3.6390    1.5496 H   0  0  0  0  0  0  0  0  0  0  0  0
   -3.0940   -2.6290    1.1426 C   0  0  0  0  0  0  0  0  0  0  0  0
   -3.7160   -1.9930    1.7706 H   0  0  0  0  0  0  0  0  0  0  0  0
   -3.4880   -2.6500    0.1286 H   0  0  0  0  0  0  0  0  0  0  0  0
   -1.6860   -2.0850    1.1196 C   0  0  0  0  0  0  0  0  0  0  0  0
   -0.7540   -2.7700    1.5226 O   0  0  0  0  0  0  0  0  0  0  0  0
   -1.5320   -0.8490    0.6496 N   0  0  0  0  0  0  0  0  0  0  0  0
   -2.3500   -0.3360    0.3566 H   0  0  0  0  0  0  0  0  0  0  0  0
   -0.2470   -0.1410    0.5576 C   0  0  1  0  0  0  0  0  0  0  0  0
    0.4572   -0.6505    1.2162 H   0  0  0  0  0  0  0  0  0  0  0  0
    0.3091   -0.2220   -0.8868 C   0  0  1  0  0  0  0  0  0  0  0  0
   -0.3809   -0.8416   -1.4629 H   0  0  0  0  0  0  0  0  0  0  0  0
    0.3804    1.1580   -1.5682 C   0  0  0  0  0  0  0  0  0  0  0  0
    1.1170    1.7932   -1.0729 H   0  0  0  0  0  0  0  0  0  0  0  0
    0.6529    1.0485   -2.6167 H   0  0  0  0  0  0  0  0  0  0  0  0
   -0.5924    1.6492   -1.5266 H   0  0  0  0  0  0  0  0  0  0  0  0
    1.6866   -0.9217   -0.9118 C   0  0  0  0  0  0  0  0  0  0  0  0
    2.0777   -0.9374   -1.9300 H   0  0  0  0  0  0  0  0  0  0  0  0
    2.3787   -0.3559   -0.2882 H   0  0  0  0  0  0  0  0  0  0  0  0
    1.6584   -2.3595   -0.3758 C   0  0  0  0  0  0  0  0  0  0  0  0
    1.0627   -2.9987   -1.0272 H   0  0  0  0  0  0  0  0  0  0  0  0
    2.6755   -2.7506   -0.3423 H   0  0  0  0  0  0  0  0  0  0  0  0
    1.2398   -2.3742    0.6311 H   0  0  0  0  0  0  0  0  0  0  0  0
   -0.3971    1.3008    1.0689 C   0  0  0  0  0  0  0  0  0  0  0  0
   -1.3643    1.9819    0.7311 O   0  0  0  0  0  0  0  0  0  0  0  0
    0.5522    1.7647    1.8915 N   0  0  0  0  0  0  0  0  0  0  0  0
    1.3093    1.1450    2.1332 H   0  0  0  0  0  0  0  0  0  0  0  0
    0.5577    3.1119    2.4582 C   0  0  0  0  0  0  0  0  0  0  0  0
   -0.3986    3.3098    2.9475 H   0  0  0  0  0  0  0  0  0  0  0  0
    1.3619    3.2123    3.1886 H   0  0  0  0  0  0  0  0  0  0  0  0
    0.6974    3.8450    1.6614 H   0  0  0  0  0  0  0  0  0  0  0  0
  5  6  2  0  0  0  0
  5  7  1  0  0  0  0
  2  3  1  0  0  0  0
  2  4  1  0  0  0  0
  2  5  1  0  0  0  0
  1  2  1  0  0  0  0
 24 25  2  0  0  0  0
 24 26  1  0  0  0  0
 20 21  1  0  0  0  0
 20 22  1  0  0  0  0
 20 23  1  0  0  0  0
 17 18  1  0  0  0  0
 17 19  1  0  0  0  0
 17 20  1  0  0  0  0
 13 14  1  0  0  0  0
 13 15  1  0  0  0  0
 13 16  1  0  0  0  0
 11 12  1  0  0  0  0
 11 13  1  0  0  0  0
 11 17  1  0  0  0  0
  9 10  1  0  0  0  0
  9 11  1  0  0  0  0
  9 24  1  0  0  0  0
  7  8  1  0  0  0  0
  7  9  1  0  0  0  0
 28 29  1  0  0  0  0
 28 30  1  0  0  0  0
 28 31  1  0  0  0  0
 26 27  1  0  0  0  0
 26 28  1  0  0  0  0
M  END
$$$$
default_name
  -OEChem-02102213163D

 31 30  0     1  0  0  0  0  0999 V2000
   -3.0760   -3.6390    1.5496 H   0  0  0  0  0  0  0  0  0  0  0  0
   -3.0940   -2.6290    1.1426 C   0  0  0  0  0  0  0  0  0  0  0  0
   -3.7160   -1.9930    1.7706 H   0  0  0  0  0  0  0  0  0  0  0  0
   -3.4880   -2.6500    0.1286 H   0  0  0  0  0  0  0  0  0  0  0  0
   -1.6860   -2.0850    1.1196 C   0  0  0  0  0  0  0  0  0  0  0  0
   -0.7540   -2.7700    1.5226 O   0  0  0  0  0  0  0  0  0  0  0  0
   -1.5320   -0.8490    0.6496 N   0  0  0  0  0  0  0  0  0  0  0  0
   -2.3500   -0.3360    0.3566 H   0  0  0  0  0  0  0  0  0  0  0  0
   -0.2470   -0.1410    0.5576 C   0  0  1  0  0  0  0  0  0  0  0  0
    0.4572   -0.6505    1.2162 H   0  0  0  0  0  0  0  0  0  0  0  0
    0.3091   -0.2220   -0.8868 C   0  0  1  0  0  0  0  0  0  0  0  0
   -0.3809   -0.8416   -1.4629 H   0  0  0  0  0  0  0  0  0  0  0  0
    0.3804    1.1580   -1.5682 C   0  0  0  0  0  0  0  0  0  0  0  0
    1.1170    1.7932   -1.0729 H   0  0  0  0  0  0  0  0  0  0  0  0
    0.6529    1.0485   -2.6167 H   0  0  0  0  0  0  0  0  0  0  0  0
   -0.5924    1.6492   -1.5266 H   0  0  0  0  0  0  0  0  0  0  0  0
    1.6866   -0.9217   -0.9118 C   0  0  0  0  0  0  0  0  0  0  0  0
    2.1949   -0.7093   -1.8532 H   0  0  0  0  0  0  0  0  0  0  0  0
    2.2950   -0.5273   -0.0980 H   0  0  0  0  0  0  0  0  0  0  0  0
    1.6093   -2.4436   -0.7295 C   0  0  0  0  0  0  0  0  0  0  0  0
    1.1005   -2.9047   -1.5758 H   0  0  0  0  0  0  0  0  0  0  0  0
    2.6191   -2.8501   -0.6687 H   0  0  0  0  0  0  0  0  0  0  0  0
    1.0753   -2.6824    0.1909 H   0  0  0  0  0  0  0  0  0  0  0  0
   -0.3971    1.3008    1.0689 C   0  0  0  0  0  0  0  0  0  0  0  0
   -1.3643    1.9819    0.7311 O   0  0  0  0  0  0  0  0  0  0  0  0
    0.5522    1.7647    1.8915 N   0  0  0  0  0  0  0  0  0  0  0  0
    1.3093    1.1450    2.1332 H   0  0  0  0  0  0  0  0  0  0  0  0
    0.5577    3.1119    2.4582 C   0  0  0  0  0  0  0  0  0  0  0  0
   -0.3986    3.3098    2.9475 H   0  0  0  0  0  0  0  0  0  0  0  0
    1.3619    3.2123    3.1886 H   0  0  0  0  0  0  0  0  0  0  0  0
    0.6974    3.8450    1.6614 H   0  0  0  0  0  0  0  0  0  0  0  0
  5  6  2  0  0  0  0
  5  7  1  0  0  0  0
  2  3  1  0  0  0  0
  2  4  1  0  0  0  0
  2  5  1  0  0  0  0
  1  2  1  0  0  0  0
 24 25  2  0  0  0  0
 24 26  1  0  0  0  0
 20 21  1  0  0  0  0
 20 22  1  0  0  0  0
 20 23  1  0  0  0  0
 17 18  1  0  0  0  0
 17 19  1  0  0  0  0
 17 20  1  0  0  0  0
 13 14  1  0  0  0  0
 13 15  1  0  0  0  0
 13 16  1  0  0  0  0
 11 12  1  0  0  0  0
 11 13  1  0  0  0  0
 11 17  1  0  0  0  0
  9 10  1  0  0  0  0
  9 11  1  0  0  0  0
  9 24  1  0  0  0  0
  7  8  1  0  0  0  0
  7  9  1  0  0  0  0
 28 29  1  0  0  0  0
 28 30  1  0  0  0  0
 28 31  1  0  0  0  0
 26 27  1  0  0  0  0
 26 28  1  0  0  0  0
M  END
$$$$
default_name
  -OEChem-02102213163D

 31 30  0     1  0  0  0  0  0999 V2000
   -3.0760   -3.6390    1.5496 H   0  0  0  0  0  0  0  0  0  0  0  0
   -3.0940   -2.6290    1.1426 C   0  0  0  0  0  0  0  0  0  0  0  0
   -3.7160   -1.9930    1.7706 H   0  0  0  0  0  0  0  0  0  0  0  0
   -3.4880   -2.6500    0.1286 H   0  0  0  0  0  0  0  0  0  0  0  0
   -1.6860   -2.0850    1.1196 C   0  0  0  0  0  0  0  0  0  0  0  0
   -0.7540   -2.7700    1.5226 O   0  0  0  0  0  0  0  0  0  0  0  0
   -1.5320   -0.8490    0.6496 N   0  0  0  0  0  0  0  0  0  0  0  0
   -2.3500   -0.3360    0.3566 H   0  0  0  0  0  0  0  0  0  0  0  0
   -0.2470   -0.1410    0.5576 C   0  0  1  0  0  0  0  0  0  0  0  0
    0.4572   -0.6505    1.2162 H   0  0  0  0  0  0  0  0  0  0  0  0
    0.3091   -0.2220   -0.8868 C   0  0  1  0  0  0  0  0  0  0  0  0
   -0.3809   -0.8416   -1.4629 H   0  0  0  0  0  0  0  0  0  0  0  0
    0.3804    1.1580   -1.5682 C   0  0  0  0  0  0  0  0  0  0  0  0
    1.1170    1.7932   -1.0729 H   0  0  0  0  0  0  0  0  0  0  0  0
    0.6529    1.0485   -2.6167 H   0  0  0  0  0  0  0  0  0  0  0  0
   -0.5924    1.6492   -1.5266 H   0  0  0  0  0  0  0  0  0  0  0  0
    1.6866   -0.9217   -0.9118 C   0  0  0  0  0  0  0  0  0  0  0  0
    2.3001   -0.5072   -1.7128 H   0  0  0  0  0  0  0  0  0  0  0  0
    2.1912   -0.7365    0.0364 H   0  0  0  0  0  0  0  0  0  0  0  0
    1.6029   -2.4430   -1.0962 C   0  0  0  0  0  0  0  0  0  0  0  0
    1.2018   -2.6874   -2.0796 H   0  0  0  0  0  0  0  0  0  0  0  0
    2.6024   -2.8706   -1.0135 H   0  0  0  0  0  0  0  0  0  0  0  0
    0.9666   -2.8779   -0.3247 H   0  0  0  0  0  0  0  0  0  0  0  0
   -0.3971    1.3008    1.0689 C   0  0  0  0  0  0  0  0  0  0  0  0
   -1.3643    1.9819    0.7311 O   0  0  0  0  0  0  0  0  0  0  0  0
    0.5522    1.7647    1.8915 N   0  0  0  0  0  0  0  0  0  0  0  0
    1.3093    1.1450    2.1332 H   0  0  0  0  0  0  0  0  0  0  0  0
    0.5577    3.1119    2.4582 C   0  0  0  0  0  0  0  0  0  0  0  0
   -0.3986    3.3098    2.9475 H   0  0  0  0  0  0  0  0  0  0  0  0
    1.3619    3.2123    3.1886 H   0  0  0  0  0  0  0  0  0  0  0  0
    0.6974    3.8450    1.6614 H   0  0  0  0  0  0  0  0  0  0  0  0
  5  6  2  0  0  0  0
  5  7  1  0  0  0  0
  2  3  1  0  0  0  0
  2  4  1  0  0  0  0
  2  5  1  0  0  0  0
  1  2  1  0  0  0  0
 24 25  2  0  0  0  0
 24 26  1  0  0  0  0
 20 21  1  0  0  0  0
 20 22  1  0  0  0  0
 20 23  1  0  0  0  0
 17 18  1  0  0  0  0
 17 19  1  0  0  0  0
 17 20  1  0  0  0  0
 13 14  1  0  0  0  0
 13 15  1  0  0  0  0
 13 16  1  0  0  0  0
 11 12  1  0  0  0  0
 11 13  1  0  0  0  0
 11 17  1  0  0  0  0
  9 10  1  0  0  0  0
  9 11  1  0  0  0  0
  9 24  1  0  0  0  0
  7  8  1  0  0  0  0
  7  9  1  0  0  0  0
 28 29  1  0  0  0  0
 28 30  1  0  0  0  0
 28 31  1  0  0  0  0
 26 27  1  0  0  0  0
 26 28  1  0  0  0  0
M  END
$$$$
default_name
  -OEChem-02102213163D

 31 30  0     1  0  0  0  0  0999 V2000
   -3.0760   -3.6390    1.5496 H   0  0  0  0  0  0  0  0  0  0  0  0
   -3.0940   -2.6290    1.1426 C   0  0  0  0  0  0  0  0  0  0  0  0
   -3.7160   -1.9930    1.7706 H   0  0  0  0  0  0  0  0  0  0  0  0
   -3.4880   -2.6500    0.1286 H   0  0  0  0  0  0  0  0  0  0  0  0
   -1.6860   -2.0850    1.1196 C   0  0  0  0  0  0  0  0  0  0  0  0
   -0.7540   -2.7700    1.5226 O   0  0  0  0  0  0  0  0  0  0  0  0
   -1.5320   -0.8490    0.6496 N   0  0  0  0  0  0  0  0  0  0  0  0
   -2.3500   -0.3360    0.3566 H   0  0  0  0  0  0  0  0  0  0  0  0
   -0.2470   -0.1410    0.5576 C   0  0  1  0  0  0  0  0  0  0  0  0
    0.4572   -0.6505    1.2162 H   0  0  0  0  0  0  0  0  0  0  0  0
    0.3091   -0.2220   -0.8868 C   0  0  1  0  0  0  0  0  0  0  0  0
   -0.3809   -0.8416   -1.4629 H   0  0  0  0  0  0  0  0  0  0  0  0
    0.3804    1.1580   -1.5682 C   0  0  0  0  0  0  0  0  0  0  0  0
    1.1170    1.7932   -1.0729 H   0  0  0  0  0  0  0  0  0  0  0  0
    0.6529    1.0485   -2.6167 H   0  0  0  0  0  0  0  0  0  0  0  0
   -0.5924    1.6492   -1.5266 H   0  0  0  0  0  0  0  0  0  0  0  0
    1.6866   -0.9217   -0.9118 C   0  0  0  0  0  0  0  0  0  0  0  0
    2.3861   -0.3448   -1.5181 H   0  0  0  0  0  0  0  0  0  0  0  0
    2.0743   -0.9691    0.1058 H   0  0  0  0  0  0  0  0  0  0  0  0
    1.6398   -2.3578   -1.4511 C   0  0  0  0  0  0  0  0  0  0  0  0
    1.3595   -2.3617   -2.5042 H   0  0  0  0  0  0  0  0  0  0  0  0
    2.6266   -2.8108   -1.3533 H   0  0  0  0  0  0  0  0  0  0  0  0
    0.9213   -2.9473   -0.8805 H   0  0  0  0  0  0  0  0  0  0  0  0
   -0.3971    1.3008    1.0689 C   0  0  0  0  0  0  0  0  0  0  0  0
   -1.3643    1.9819    0.7311 O   0  0  0  0  0  0  0  0  0  0  0  0
    0.5522    1.7647    1.8915 N   0  0  0  0  0  0  0  0  0  0  0  0
    1.3093    1.1450    2.1332 H   0  0  0  0  0  0  0  0  0  0  0  0
    0.5577    3.1119    2.4582 C   0  0  0  0  0  0  0  0  0  0  0  0
   -0.3986    3.3098    2.9475 H   0  0  0  0  0  0  0  0  0  0  0  0
    1.3619    3.2123    3.1886 H   0  0  0  0  0  0  0  0  0  0  0  0
    0.6974    3.8450    1.6614 H   0  0  0  0  0  0  0  0  0  0  0  0
  5  6  2  0  0  0  0
  5  7  1  0  0  0  0
  2  3  1  0  0  0  0
  2  4  1  0  0  0  0
  2  5  1  0  0  0  0
  1  2  1  0  0  0  0
 24 25  2  0  0  0  0
 24 26  1  0  0  0  0
 20 21  1  0  0  0  0
 20 22  1  0  0  0  0
 20 23  1  0  0  0  0
 17 18  1  0  0  0  0
 17 19  1  0  0  0  0
 17 20  1  0  0  0  0
 13 14  1  0  0  0  0
 13 15  1  0  0  0  0
 13 16  1  0  0  0  0
 11 12  1  0  0  0  0
 11 13  1  0  0  0  0
 11 17  1  0  0  0  0
  9 10  1  0  0  0  0
  9 11  1  0  0  0  0
  9 24  1  0  0  0  0
  7  8  1  0  0  0  0
  7  9  1  0  0  0  0
 28 29  1  0  0  0  0
 28 30  1  0  0  0  0
 28 31  1  0  0  0  0
 26 27  1  0  0  0  0
 26 28  1  0  0  0  0
M  END
$$$$
default_name
  -OEChem-02102213163D

 31 30  0     1  0  0  0  0  0999 V2000
   -3.0760   -3.6390    1.5496 H   0  0  0  0  0  0  0  0  0  0  0  0
   -3.0940   -2.6290    1.1426 C   0  0  0  0  0  0  0  0  0  0  0  0
   -3.7160   -1.9930    1.7706 H   0  0  0  0  0  0  0  0  0  0  0  0
   -3.4880   -2.6500    0.1286 H   0  0  0  0  0  0  0  0  0  0  0  0
   -1.6860   -2.0850    1.1196 C   0  0  0  0  0  0  0  0  0  0  0  0
   -0.7540   -2.7700    1.5226 O   0  0  0  0  0  0  0  0  0  0  0  0
   -1.5320   -0.8490    0.6496 N   0  0  0  0  0  0  0  0  0  0  0  0
   -2.3500   -0.3360    0.3566 H   0  0  0  0  0  0  0  0  0  0  0  0
   -0.2470   -0.1410    0.5576 C   0  0  1  0  0  0  0  0  0  0  0  0
    0.4572   -0.6505    1.2162 H   0  0  0  0  0  0  0  0  0  0  0  0
    0.3091   -0.2220   -0.8868 C   0  0  1  0  0  0  0  0  0  0  0  0
   -0.3809   -0.8416   -1.4629 H   0  0  0  0  0  0  0  0  0  0  0  0
    0.3804    1.1580   -1.5682 C   0  0  0  0  0  0  0  0  0  0  0  0
    1.1170    1.7932   -1.0729 H   0  0  0  0  0  0  0  0  0  0  0  0
    0.6529    1.0485   -2.6167 H   0  0  0  0  0  0  0  0  0  0  0  0
   -0.5924    1.6492   -1.5266 H   0  0  0  0  0  0  0  0  0  0  0  0
    1.6866   -0.9217   -0.9118 C   0  0  0  0  0  0  0  0  0  0  0  0
    2.4471   -0.2332   -1.2826 H   0  0  0  0  0  0  0  0  0  0  0  0
    1.9523   -1.2093    0.1054 H   0  0  0  0  0  0  0  0  0  0  0  0
    1.7174   -2.1938   -1.7698 C   0  0  0  0  0  0  0  0  0  0  0  0
    1.5630   -1.9498   -2.8208 H   0  0  0  0  0  0  0  0  0  0  0  0
    2.6901   -2.6747   -1.6648 H   0  0  0  0  0  0  0  0  0  0  0  0
    0.9424   -2.8859   -1.4387 H   0  0  0  0  0  0  0  0  0  0  0  0
   -0.3971    1.3008    1.0689 C   0  0  0  0  0  0  0  0  0  0  0  0
   -1.3643    1.9819    0.7311 O   0  0  0  0  0  0  0  0  0  0  0  0
    0.5522    1.7647    1.8915 N   0  0  0  0  0  0  0  0  0  0  0  0
    1.3093    1.1450    2.1332 H   0  0  0  0  0  0  0  0  0  0  0  0
    0.5577    3.1119    2.4582 C   0  0  0  0  0  0  0  0  0  0  0  0
   -0.3986    3.3098    2.9475 H   0  0  0  0  0  0  0  0  0  0  0  0
    1.3619    3.2123    3.1886 H   0  0  0  0  0  0  0  0  0  0  0  0
    0.6974    3.8450    1.6614 H   0  0  0  0  0  0  0  0  0  0  0  0
  5  6  2  0  0  0  0
  5  7  1  0  0  0  0
  2  3  1  0  0  0  0
  2  4  1  0  0  0  0
  2  5  1  0  0  0  0
  1  2  1  0  0  0  0
 24 25  2  0  0  0  0
 24 26  1  0  0  0  0
 20 21  1  0  0  0  0
 20 22  1  0  0  0  0
 20 23  1  0  0  0  0
 17 18  1  0  0  0  0
 17 19  1  0  0  0  0
 17 20  1  0  0  0  0
 13 14  1  0  0  0  0
 13 15  1  0  0  0  0
 13 16  1  0  0  0  0
 11 12  1  0  0  0  0
 11 13  1  0  0  0  0
 11 17  1  0  0  0  0
  9 10  1  0  0  0  0
  9 11  1  0  0  0  0
  9 24  1  0  0  0  0
  7  8  1  0  0  0  0
  7  9  1  0  0  0  0
 28 29  1  0  0  0  0
 28 30  1  0  0  0  0
 28 31  1  0  0  0  0
 26 27  1  0  0  0  0
 26 28  1  0  0  0  0
M  END
$$$$
default_name
  -OEChem-02102213163D

 31 30  0     1  0  0  0  0  0999 V2000
   -3.0760   -3.6390    1.5496 H   0  0  0  0  0  0  0  0  0  0  0  0
   -3.0940   -2.6290    1.1426 C   0  0  0  0  0  0  0  0  0  0  0  0
   -3.7160   -1.9930    1.7706 H   0  0  0  0  0  0  0  0  0  0  0  0
   -3.4880   -2.6500    0.1286 H   0  0  0  0  0  0  0  0  0  0  0  0
   -1.6860   -2.0850    1.1196 C   0  0  0  0  0  0  0  0  0  0  0  0
   -0.7540   -2.7700    1.5226 O   0  0  0  0  0  0  0  0  0  0  0  0
   -1.5320   -0.8490    0.6496 N   0  0  0  0  0  0  0  0  0  0  0  0
   -2.3500   -0.3360    0.3566 H   0  0  0  0  0  0  0  0  0  0  0  0
   -0.2470   -0.1410    0.5576 C   0  0  1  0  0  0  0  0  0  0  0  0
    0.4572   -0.6505    1.2162 H   0  0  0  0  0  0  0  0  0  0  0  0
    0.3091   -0.2220   -0.8868 C   0  0  1  0  0  0  0  0  0  0  0  0
   -0.3809   -0.8416   -1.4629 H   0  0  0  0  0  0  0  0  0  0  0  0
    0.3804    1.1580   -1.5682 C   0  0  0  0  0  0  0  0  0  0  0  0
    1.1170    1.7932   -1.0729 H   0  0  0  0  0  0  0  0  0  0  0  0
    0.6529    1.0485   -2.6167 H   0  0  0  0  0  0  0  0  0  0  0  0
   -0.5924    1.6492   -1.5266 H   0  0  0  0  0  0  0  0  0  0  0  0
    1.6866   -0.9217   -0.9118 C   0  0  0  0  0  0  0  0  0  0  0  0
    2.4788   -0.1801   -1.0222 H   0  0  0  0  0  0  0  0  0  0  0  0
    1.8334   -1.4407    0.0354 H   0  0  0  0  0  0  0  0  0  0  0  0
    1.8303   -1.9621   -2.0308 C   0  0  0  0  0  0  0  0  0  0  0  0
    1.7984   -1.4798   -3.0076 H   0  0  0  0  0  0  0  0  0  0  0  0
    2.7885   -2.4717   -1.9270 H   0  0  0  0  0  0  0  0  0  0  0  0
    1.0284   -2.6979   -1.9613 H   0  0  0  0  0  0  0  0  0  0  0  0
   -0.3971    1.3008    1.0689 C   0  0  0  0  0  0  0  0  0  0  0  0
   -1.3643    1.9819    0.7311 O   0  0  0  0  0  0  0  0  0  0  0  0
    0.5522    1.7647    1.8915 N   0  0  0  0  0  0  0  0  0  0  0  0
    1.3093    1.1450    2.1332 H   0  0  0  0  0  0  0  0  0  0  0  0
    0.5577    3.1119    2.4582 C   0  0  0  0  0  0  0  0  0  0  0  0
   -0.3986    3.3098    2.9475 H   0  0  0  0  0  0  0  0  0  0  0  0
    1.3619    3.2123    3.1886 H   0  0  0  0  0  0  0  0  0  0  0  0
    0.6974    3.8450    1.6614 H   0  0  0  0  0  0  0  0  0  0  0  0
  5  6  2  0  0  0  0
  5  7  1  0  0  0  0
  2  3  1  0  0  0  0
  2  4  1  0  0  0  0
  2  5  1  0  0  0  0
  1  2  1  0  0  0  0
 24 25  2  0  0  0  0
 24 26  1  0  0  0  0
 20 21  1  0  0  0  0
 20 22  1  0  0  0  0
 20 23  1  0  0  0  0
 17 18  1  0  0  0  0
 17 19  1  0  0  0  0
 17 20  1  0  0  0  0
 13 14  1  0  0  0  0
 13 15  1  0  0  0  0
 13 16  1  0  0  0  0
 11 12  1  0  0  0  0
 11 13  1  0  0  0  0
 11 17  1  0  0  0  0
  9 10  1  0  0  0  0
  9 11  1  0  0  0  0
  9 24  1  0  0  0  0
  7  8  1  0  0  0  0
  7  9  1  0  0  0  0
 28 29  1  0  0  0  0
 28 30  1  0  0  0  0
 28 31  1  0  0  0  0
 26 27  1  0  0  0  0
 26 28  1  0  0  0  0
M  END
$$$$
default_name
  -OEChem-02102213163D

 31 30  0     1  0  0  0  0  0999 V2000
   -3.0760   -3.6390    1.5496 H   0  0  0  0  0  0  0  0  0  0  0  0
   -3.0940   -2.6290    1.1426 C   0  0  0  0  0  0  0  0  0  0  0  0
   -3.7160   -1.9930    1.7706 H   0  0  0  0  0  0  0  0  0  0  0  0
   -3.4880   -2.6500    0.1286 H   0  0  0  0  0  0  0  0  0  0  0  0
   -1.6860   -2.0850    1.1196 C   0  0  0  0  0  0  0  0  0  0  0  0
   -0.7540   -2.7700    1.5226 O   0  0  0  0  0  0  0  0  0  0  0  0
   -1.5320   -0.8490    0.6496 N   0  0  0  0  0  0  0  0  0  0  0  0
   -2.3500   -0.3360    0.3566 H   0  0  0  0  0  0  0  0  0  0  0  0
   -0.2470   -0.1410    0.5576 C   0  0  1  0  0  0  0  0  0  0  0  0
    0.4572   -0.6505    1.2162 H   0  0  0  0  0  0  0  0  0  0  0  0
    0.3091   -0.2220   -0.8868 C   0  0  1  0  0  0  0  0  0  0  0  0
   -0.3809   -0.8416   -1.4629 H   0  0  0  0  0  0  0  0  0  0  0  0
    0.3804    1.1580   -1.5682 C   0  0  0  0  0  0  0  0  0  0  0  0
    1.1170    1.7932   -1.0729 H   0  0  0  0  0  0  0  0  0  0  0  0
    0.6529    1.0485   -2.6167 H   0  0  0  0  0  0  0  0  0  0  0  0
   -0.5924    1.6492   -1.5266 H   0  0  0  0  0  0  0  0  0  0  0  0
    1.6866   -0.9217   -0.9118 C   0  0  0  0  0  0  0  0  0  0  0  0
    2.4792   -0.1889   -0.7546 H   0  0  0  0  0  0  0  0  0  0  0  0
    1.7259   -1.6476   -0.0996 H   0  0  0  0  0  0  0  0  0  0  0  0
    1.9710   -1.6786   -2.2162 C   0  0  0  0  0  0  0  0  0  0  0  0
    2.0497   -0.9837   -3.0521 H   0  0  0  0  0  0  0  0  0  0  0  0
    2.9151   -2.2155   -2.1218 H   0  0  0  0  0  0  0  0  0  0  0  0
    1.1736   -2.3961   -2.4126 H   0  0  0  0  0  0  0  0  0  0  0  0
   -0.3971    1.3008    1.0689 C   0  0  0  0  0  0  0  0  0  0  0  0
   -1.3643    1.9819    0.7311 O   0  0  0  0  0  0  0  0  0  0  0  0
    0.5522    1.7647    1.8915 N   0  0  0  0  0  0  0  0  0  0  0  0
    1.3093    1.1450    2.1332 H   0  0  0  0  0  0  0  0  0  0  0  0
    0.5577    3.1119    2.4582 C   0  0  0  0  0  0  0  0  0  0  0  0
   -0.3986    3.3098    2.9475 H   0  0  0  0  0  0  0  0  0  0  0  0
    1.3619    3.2123    3.1886 H   0  0  0  0  0  0  0  0  0  0  0  0
    0.6974    3.8450    1.6614 H   0  0  0  0  0  0  0  0  0  0  0  0
  5  6  2  0  0  0  0
  5  7  1  0  0  0  0
  2  3  1  0  0  0  0
  2  4  1  0  0  0  0
  2  5  1  0  0  0  0
  1  2  1  0  0  0  0
 24 25  2  0  0  0  0
 24 26  1  0  0  0  0
 20 21  1  0  0  0  0
 20 22  1  0  0  0  0
 20 23  1  0  0  0  0
 17 18  1  0  0  0  0
 17 19  1  0  0  0  0
 17 20  1  0  0  0  0
 13 14  1  0  0  0  0
 13 15  1  0  0  0  0
 13 16  1  0  0  0  0
 11 12  1  0  0  0  0
 11 13  1  0  0  0  0
 11 17  1  0  0  0  0
  9 10  1  0  0  0  0
  9 11  1  0  0  0  0
  9 24  1  0  0  0  0
  7  8  1  0  0  0  0
  7  9  1  0  0  0  0
 28 29  1  0  0  0  0
 28 30  1  0  0  0  0
 28 31  1  0  0  0  0
 26 27  1  0  0  0  0
 26 28  1  0  0  0  0
M  END
$$$$
default_name
  -OEChem-02102213163D

 31 30  0     1  0  0  0  0  0999 V2000
   -3.0760   -3.6390    1.5496 H   0  0  0  0  0  0  0  0  0  0  0  0
   -3.0940   -2.6290    1.1426 C   0  0  0  0  0  0  0  0  0  0  0  0
   -3.7160   -1.9930    1.7706 H   0  0  0  0  0  0  0  0  0  0  0  0
   -3.4880   -2.6500    0.1286 H   0  0  0  0  0  0  0  0  0  0  0  0
   -1.6860   -2.0850    1.1196 C   0  0  0  0  0  0  0  0  0  0  0  0
   -0.7540   -2.7700    1.5226 O   0  0  0  0  0  0  0  0  0  0  0  0
   -1.5320   -0.8490    0.6496 N   0  0  0  0  0  0  0  0  0  0  0  0
   -2.3500   -0.3360    0.3566 H   0  0  0  0  0  0  0  0  0  0  0  0
   -0.2470   -0.1410    0.5576 C   0  0  1  0  0  0  0  0  0  0  0  0
    0.4572   -0.6505    1.2162 H   0  0  0  0  0  0  0  0  0  0  0  0
    0.3091   -0.2220   -0.8868 C   0  0  1  0  0  0  0  0  0  0  0  0
   -0.3809   -0.8416   -1.4629 H   0  0  0  0  0  0  0  0  0  0  0  0
    0.3804    1.1580   -1.5682 C   0  0  0  0  0  0  0  0  0  0  0  0
    1.1170    1.7932   -1.0729 H   0  0  0  0  0  0  0  0  0  0  0  0
    0.6529    1.0485   -2.6167 H   0  0  0  0  0  0  0  0  0  0  0  0
   -0.5924    1.6492   -1.5266 H   0  0  0  0  0  0  0  0  0  0  0  0
    1.6866   -0.9217   -0.9118 C   0  0  0  0  0  0  0  0  0  0  0  0
    2.4481   -0.2592   -0.4982 H   0  0  0  0  0  0  0  0  0  0  0  0
    1.6370   -1.8158   -0.2903 H   0  0  0  0  0  0  0  0  0  0  0  0
    2.1298   -1.3626   -2.3134 C   0  0  0  0  0  0  0  0  0  0  0  0
    2.2996   -0.4952   -2.9511 H   0  0  0  0  0  0  0  0  0  0  0  0
    3.0613   -1.9236   -2.2360 H   0  0  0  0  0  0  0  0  0  0  0  0
    1.3679   -2.0011   -2.7619 H   0  0  0  0  0  0  0  0  0  0  0  0
   -0.3971    1.3008    1.0689 C   0  0  0  0  0  0  0  0  0  0  0  0
   -1.3643    1.9819    0.7311 O   0  0  0  0  0  0  0  0  0  0  0  0
    0.5522    1.7647    1.8915 N   0  0  0  0  0  0  0  0  0  0  0  0
    1.3093    1.1450    2.1332 H   0  0  0  0  0  0  0  0  0  0  0  0
    0.5577    3.1119    2.4582 C   0  0  0  0  0  0  0  0  0  0  0  0
   -0.3986    3.3098    2.9475 H   0  0  0  0  0  0  0  0  0  0  0  0
    1.3619    3.2123    3.1886 H   0  0  0  0  0  0  0  0  0  0  0  0
    0.6974    3.8450    1.6614 H   0  0  0  0  0  0  0  0  0  0  0  0
  5  6  2  0  0  0  0
  5  7  1  0  0  0  0
  2  3  1  0  0  0  0
  2  4  1  0  0  0  0
  2  5  1  0  0  0  0
  1  2  1  0  0  0  0
 24 25  2  0  0  0  0
 24 26  1  0  0  0  0
 20 21  1  0  0  0  0
 20 22  1  0  0  0  0
 20 23  1  0  0  0  0
 17 18  1  0  0  0  0
 17 19  1  0  0  0  0
 17 20  1  0  0  0  0
 13 14  1  0  0  0  0
 13 15  1  0  0  0  0
 13 16  1  0  0  0  0
 11 12  1  0  0  0  0
 11 13  1  0  0  0  0
 11 17  1  0  0  0  0
  9 10  1  0  0  0  0
  9 11  1  0  0  0  0
  9 24  1  0  0  0  0
  7  8  1  0  0  0  0
  7  9  1  0  0  0  0
 28 29  1  0  0  0  0
 28 30  1  0  0  0  0
 28 31  1  0  0  0  0
 26 27  1  0  0  0  0
 26 28  1  0  0  0  0
M  END
$$$$
default_name
  -OEChem-02102213163D

 31 30  0     1  0  0  0  0  0999 V2000
   -3.0760   -3.6390    1.5496 H   0  0  0  0  0  0  0  0  0  0  0  0
   -3.0940   -2.6290    1.1426 C   0  0  0  0  0  0  0  0  0  0  0  0
   -3.7160   -1.9930    1.7706 H   0  0  0  0  0  0  0  0  0  0  0  0
   -3.4880   -2.6500    0.1286 H   0  0  0  0  0  0  0  0  0  0  0  0
   -1.6860   -2.0850    1.1196 C   0  0  0  0  0  0  0  0  0  0  0  0
   -0.7540   -2.7700    1.5226 O   0  0  0  0  0  0  0  0  0  0  0  0
   -1.5320   -0.8490    0.6496 N   0  0  0  0  0  0  0  0  0  0  0  0
   -2.3500   -0.3360    0.3566 H   0  0  0  0  0  0  0  0  0  0  0  0
   -0.2470   -0.1410    0.5576 C   0  0  1  0  0  0  0  0  0  0  0  0
    0.4572   -0.6505    1.2162 H   0  0  0  0  0  0  0  0  0  0  0  0
    0.3091   -0.2220   -0.8868 C   0  0  1  0  0  0  0  0  0  0  0  0
   -0.4951   -0.6011   -1.5203 H   0  0  0  0  0  0  0  0  0  0  0  0
    0.7273    1.1560   -1.4345 C   0  0  0  0  0  0  0  0  0  0  0  0
    1.5824    1.5463   -0.8798 H   0  0  0  0  0  0  0  0  0  0  0  0
    0.9914    1.0800   -2.4881 H   0  0  0  0  0  0  0  0  0  0  0  0
   -0.0995    1.8620   -1.3488 H   0  0  0  0  0  0  0  0  0  0  0  0
    1.4780   -1.2288   -0.9749 C   0  0  0  0  0  0  0  0  0  0  0  0
    2.2712   -0.9395   -0.2842 H   0  0  0  0  0  0  0  0  0  0  0  0
    1.1144   -2.2144   -0.6845 H   0  0  0  0  0  0  0  0  0  0  0  0
    2.0768   -1.3580   -2.3820 C   0  0  0  0  0  0  0  0  0  0  0  0
    2.5527   -0.4247   -2.6822 H   0  0  0  0  0  0  0  0  0  0  0  0
    2.8298   -2.1465   -2.3812 H   0  0  0  0  0  0  0  0  0  0  0  0
    1.2953   -1.6153   -3.0978 H   0  0  0  0  0  0  0  0  0  0  0  0
   -0.3971    1.3008    1.0689 C   0  0  0  0  0  0  0  0  0  0  0  0
   -1.3643    1.9819    0.7311 O   0  0  0  0  0  0  0  0  0  0  0  0
    0.5522    1.7647    1.8915 N   0  0  0  0  0  0  0  0  0  0  0  0
    1.3093    1.1450    2.1332 H   0  0  0  0  0  0  0  0  0  0  0  0
    0.5577    3.1119    2.4582 C   0  0  0  0  0  0  0  0  0  0  0  0
   -0.3986    3.3098    2.9475 H   0  0  0  0  0  0  0  0  0  0  0  0
    1.3619    3.2123    3.1886 H   0  0  0  0  0  0  0  0  0  0  0  0
    0.6974    3.8450    1.6614 H   0  0  0  0  0  0  0  0  0  0  0  0
  5  6  2  0  0  0  0
  5  7  1  0  0  0  0
  2  3  1  0  0  0  0
  2  4  1  0  0  0  0
  2  5  1  0  0  0  0
  1  2  1  0  0  0  0
 24 25  2  0  0  0  0
 24 26  1  0  0  0  0
 20 21  1  0  0  0  0
 20 22  1  0  0  0  0
 20 23  1  0  0  0  0
 17 18  1  0  0  0  0
 17 19  1  0  0  0  0
 17 20  1  0  0  0  0
 13 14  1  0  0  0  0
 13 15  1  0  0  0  0
 13 16  1  0  0  0  0
 11 12  1  0  0  0  0
 11 13  1  0  0  0  0
 11 17  1  0  0  0  0
  9 10  1  0  0  0  0
  9 11  1  0  0  0  0
  9 24  1  0  0  0  0
  7  8  1  0  0  0  0
  7  9  1  0  0  0  0
 28 29  1  0  0  0  0
 28 30  1  0  0  0  0
 28 31  1  0  0  0  0
 26 27  1  0  0  0  0
 26 28  1  0  0  0  0
M  END
$$$$
default_name
  -OEChem-02102213163D

 31 30  0     1  0  0  0  0  0999 V2000
   -3.0760   -3.6390    1.5496 H   0  0  0  0  0  0  0  0  0  0  0  0
   -3.0940   -2.6290    1.1426 C   0  0  0  0  0  0  0  0  0  0  0  0
   -3.7160   -1.9930    1.7706 H   0  0  0  0  0  0  0  0  0  0  0  0
   -3.4880   -2.6500    0.1286 H   0  0  0  0  0  0  0  0  0  0  0  0
   -1.6860   -2.0850    1.1196 C   0  0  0  0  0  0  0  0  0  0  0  0
   -0.7540   -2.7700    1.5226 O   0  0  0  0  0  0  0  0  0  0  0  0
   -1.5320   -0.8490    0.6496 N   0  0  0  0  0  0  0  0  0  0  0  0
   -2.3500   -0.3360    0.3566 H   0  0  0  0  0  0  0  0  0  0  0  0
   -0.2470   -0.1410    0.5576 C   0  0  1  0  0  0  0  0  0  0  0  0
    0.4572   -0.6505    1.2162 H   0  0  0  0  0  0  0  0  0  0  0  0
    0.3091   -0.2220   -0.8868 C   0  0  1  0  0  0  0  0  0  0  0  0
   -0.4951   -0.6011   -1.5203 H   0  0  0  0  0  0  0  0  0  0  0  0
    0.7273    1.1560   -1.4345 C   0  0  0  0  0  0  0  0  0  0  0  0
    1.5824    1.5463   -0.8798 H   0  0  0  0  0  0  0  0  0  0  0  0
    0.9914    1.0800   -2.4881 H   0  0  0  0  0  0  0  0  0  0  0  0
   -0.0995    1.8620   -1.3488 H   0  0  0  0  0  0  0  0  0  0  0  0
    1.4780   -1.2288   -0.9749 C   0  0  0  0  0  0  0  0  0  0  0  0
    2.1415   -1.1045   -0.1181 H   0  0  0  0  0  0  0  0  0  0  0  0
    1.0723   -2.2401   -0.9494 H   0  0  0  0  0  0  0  0  0  0  0  0
    2.3077   -1.1007   -2.2596 C   0  0  0  0  0  0  0  0  0  0  0  0
    2.8258   -0.1422   -2.2861 H   0  0  0  0  0  0  0  0  0  0  0  0
    3.0512   -1.8976   -2.2883 H   0  0  0  0  0  0  0  0  0  0  0  0
    1.6599   -1.1890   -3.1324 H   0  0  0  0  0  0  0  0  0  0  0  0
   -0.3971    1.3008    1.0689 C   0  0  0  0  0  0  0  0  0  0  0  0
   -1.3643    1.9819    0.7311 O   0  0  0  0  0  0  0  0  0  0  0  0
    0.5522    1.7647    1.8915 N   0  0  0  0  0  0  0  0  0  0  0  0
    1.3093    1.1450    2.1332 H   0  0  0  0  0  0  0  0  0  0  0  0
    0.5577    3.1119    2.4582 C   0  0  0  0  0  0  0  0  0  0  0  0
   -0.3986    3.3098    2.9475 H   0  0  0  0  0  0  0  0  0  0  0  0
    1.3619    3.2123    3.1886 H   0  0  0  0  0  0  0  0  0  0  0  0
    0.6974    3.8450    1.6614 H   0  0  0  0  0  0  0  0  0  0  0  0
  5  6  2  0  0  0  0
  5  7  1  0  0  0  0
  2  3  1  0  0  0  0
  2  4  1  0  0  0  0
  2  5  1  0  0  0  0
  1  2  1  0  0  0  0
 24 25  2  0  0  0  0
 24 26  1  0  0  0  0
 20 21  1  0  0  0  0
 20 22  1  0  0  0  0
 20 23  1  0  0  0  0
 17 18  1  0  0  0  0
 17 19  1  0  0  0  0
 17 20  1  0  0  0  0
 13 14  1  0  0  0  0
 13 15  1  0  0  0  0
 13 16  1  0  0  0  0
 11 12  1  0  0  0  0
 11 13  1  0  0  0  0
 11 17  1  0  0  0  0
  9 10  1  0  0  0  0
  9 11  1  0  0  0  0
  9 24  1  0  0  0  0
  7  8  1  0  0  0  0
  7  9  1  0  0  0  0
 28 29  1  0  0  0  0
 28 30  1  0  0  0  0
 28 31  1  0  0  0  0
 26 27  1  0  0  0  0
 26 28  1  0  0  0  0
M  END
$$$$
default_name
  -OEChem-02102213163D

 31 30  0     1  0  0  0  0  0999 V2000
   -3.0760   -3.6390    1.5496 H   0  0  0  0  0  0  0  0  0  0  0  0
   -3.0940   -2.6290    1.1426 C   0  0  0  0  0  0  0  0  0  0  0  0
   -3.7160   -1.9930    1.7706 H   0  0  0  0  0  0  0  0  0  0  0  0
   -3.4880   -2.6500    0.1286 H   0  0  0  0  0  0  0  0  0  0  0  0
   -1.6860   -2.0850    1.1196 C   0  0  0  0  0  0  0  0  0  0  0  0
   -0.7540   -2.7700    1.5226 O   0  0  0  0  0  0  0  0  0  0  0  0
   -1.5320   -0.8490    0.6496 N   0  0  0  0  0  0  0  0  0  0  0  0
   -2.3500   -0.3360    0.3566 H   0  0  0  0  0  0  0  0  0  0  0  0
   -0.2470   -0.1410    0.5576 C   0  0  1  0  0  0  0  0  0  0  0  0
    0.4572   -0.6505    1.2162 H   0  0  0  0  0  0  0  0  0  0  0  0
    0.3091   -0.2220   -0.8868 C   0  0  1  0  0  0  0  0  0  0  0  0
   -0.4951   -0.6011   -1.5203 H   0  0  0  0  0  0  0  0  0  0  0  0
    0.7273    1.1560   -1.4345 C   0  0  0  0  0  0  0  0  0  0  0  0
    1.5824    1.5463   -0.8798 H   0  0  0  0  0  0  0  0  0  0  0  0
    0.9914    1.0800   -2.4881 H   0  0  0  0  0  0  0  0  0  0  0  0
   -0.0995    1.8620   -1.3488 H   0  0  0  0  0  0  0  0  0  0  0  0
    1.4780   -1.2288   -0.9749 C   0  0  0  0  0  0  0  0  0  0  0  0
    1.9859   -1.2945   -0.0118 H   0  0  0  0  0  0  0  0  0  0  0  0
    1.0759   -2.2125   -1.2174 H   0  0  0  0  0  0  0  0  0  0  0  0
    2.5139   -0.8795   -2.0520 C   0  0  0  0  0  0  0  0  0  0  0  0
    3.0270    0.0490   -1.8021 H   0  0  0  0  0  0  0  0  0  0  0  0
    3.2530   -1.6786   -2.1125 H   0  0  0  0  0  0  0  0  0  0  0  0
    2.0241   -0.7759   -3.0209 H   0  0  0  0  0  0  0  0  0  0  0  0
   -0.3971    1.3008    1.0689 C   0  0  0  0  0  0  0  0  0  0  0  0
   -1.3643    1.9819    0.7311 O   0  0  0  0  0  0  0  0  0  0  0  0
    0.5522    1.7647    1.8915 N   0  0  0  0  0  0  0  0  0  0  0  0
    1.3093    1.1450    2.1332 H   0  0  0  0  0  0  0  0  0  0  0  0
    0.5577    3.1119    2.4582 C   0  0  0  0  0  0  0  0  0  0  0  0
   -0.3986    3.3098    2.9475 H   0  0  0  0  0  0  0  0  0  0  0  0
    1.3619    3.2123    3.1886 H   0  0  0  0  0  0  0  0  0  0  0  0
    0.6974    3.8450    1.6614 H   0  0  0  0  0  0  0  0  0  0  0  0
  5  6  2  0  0  0  0
  5  7  1  0  0  0  0
  2  3  1  0  0  0  0
  2  4  1  0  0  0  0
  2  5  1  0  0  0  0
  1  2  1  0  0  0  0
 24 25  2  0  0  0  0
 24 26  1  0  0  0  0
 20 21  1  0  0  0  0
 20 22  1  0  0  0  0
 20 23  1  0  0  0  0
 17 18  1  0  0  0  0
 17 19  1  0  0  0  0
 17 20  1  0  0  0  0
 13 14  1  0  0  0  0
 13 15  1  0  0  0  0
 13 16  1  0  0  0  0
 11 12  1  0  0  0  0
 11 13  1  0  0  0  0
 11 17  1  0  0  0  0
  9 10  1  0  0  0  0
  9 11  1  0  0  0  0
  9 24  1  0  0  0  0
  7  8  1  0  0  0  0
  7  9  1  0  0  0  0
 28 29  1  0  0  0  0
 28 30  1  0  0  0  0
 28 31  1  0  0  0  0
 26 27  1  0  0  0  0
 26 28  1  0  0  0  0
M  END
$$$$
default_name
  -OEChem-02102213163D

 31 30  0     1  0  0  0  0  0999 V2000
   -3.0760   -3.6390    1.5496 H   0  0  0  0  0  0  0  0  0  0  0  0
   -3.0940   -2.6290    1.1426 C   0  0  0  0  0  0  0  0  0  0  0  0
   -3.7160   -1.9930    1.7706 H   0  0  0  0  0  0  0  0  0  0  0  0
   -3.4880   -2.6500    0.1286 H   0  0  0  0  0  0  0  0  0  0  0  0
   -1.6860   -2.0850    1.1196 C   0  0  0  0  0  0  0  0  0  0  0  0
   -0.7540   -2.7700    1.5226 O   0  0  0  0  0  0  0  0  0  0  0  0
   -1.5320   -0.8490    0.6496 N   0  0  0  0  0  0  0  0  0  0  0  0
   -2.3500   -0.3360    0.3566 H   0  0  0  0  0  0  0  0  0  0  0  0
   -0.2470   -0.1410    0.5576 C   0  0  1  0  0  0  0  0  0  0  0  0
    0.4572   -0.6505    1.2162 H   0  0  0  0  0  0  0  0  0  0  0  0
    0.3091   -0.2220   -0.8868 C   0  0  1  0  0  0  0  0  0  0  0  0
   -0.4951   -0.6011   -1.5203 H   0  0  0  0  0  0  0  0  0  0  0  0
    0.7273    1.1560   -1.4345 C   0  0  0  0  0  0  0  0  0  0  0  0
    1.5824    1.5463   -0.8798 H   0  0  0  0  0  0  0  0  0  0  0  0
    0.9914    1.0800   -2.4881 H   0  0  0  0  0  0  0  0  0  0  0  0
   -0.0995    1.8620   -1.3488 H   0  0  0  0  0  0  0  0  0  0  0  0
    1.4780   -1.2288   -0.9749 C   0  0  0  0  0  0  0  0  0  0  0  0
    1.8148   -1.4966    0.0275 H   0  0  0  0  0  0  0  0  0  0  0  0
    1.1251   -2.1333   -1.4702 H   0  0  0  0  0  0  0  0  0  0  0  0
    2.6813   -0.7095   -1.7734 C   0  0  0  0  0  0  0  0  0  0  0  0
    3.1425    0.1360   -1.2633 H   0  0  0  0  0  0  0  0  0  0  0  0
    3.4216   -1.5045   -1.8657 H   0  0  0  0  0  0  0  0  0  0  0  0
    2.3633   -0.4040   -2.7709 H   0  0  0  0  0  0  0  0  0  0  0  0
   -0.3971    1.3008    1.0689 C   0  0  0  0  0  0  0  0  0  0  0  0
   -1.3643    1.9819    0.7311 O   0  0  0  0  0  0  0  0  0  0  0  0
    0.5522    1.7647    1.8915 N   0  0  0  0  0  0  0  0  0  0  0  0
    1.3093    1.1450    2.1332 H   0  0  0  0  0  0  0  0  0  0  0  0
    0.5577    3.1119    2.4582 C   0  0  0  0  0  0  0  0  0  0  0  0
   -0.3986    3.3098    2.9475 H   0  0  0  0  0  0  0  0  0  0  0  0
    1.3619    3.2123    3.1886 H   0  0  0  0  0  0  0  0  0  0  0  0
    0.6974    3.8450    1.6614 H   0  0  0  0  0  0  0  0  0  0  0  0
  5  6  2  0  0  0  0
  5  7  1  0  0  0  0
  2  3  1  0  0  0  0
  2  4  1  0  0  0  0
  2  5  1  0  0  0  0
  1  2  1  0  0  0  0
 24 25  2  0  0  0  0
 24 26  1  0  0  0  0
 20 21  1  0  0  0  0
 20 22  1  0  0  0  0
 20 23  1  0  0  0  0
 17 18  1  0  0  0  0
 17 19  1  0  0  0  0
 17 20  1  0  0  0  0
 13 14  1  0  0  0  0
 13 15  1  0  0  0  0
 13 16  1  0  0  0  0
 11 12  1  0  0  0  0
 11 13  1  0  0  0  0
 11 17  1  0  0  0  0
  9 10  1  0  0  0  0
  9 11  1  0  0  0  0
  9 24  1  0  0  0  0
  7  8  1  0  0  0  0
  7  9  1  0  0  0  0
 28 29  1  0  0  0  0
 28 30  1  0  0  0  0
 28 31  1  0  0  0  0
 26 27  1  0  0  0  0
 26 28  1  0  0  0  0
M  END
$$$$
default_name
  -OEChem-02102213163D

 31 30  0     1  0  0  0  0  0999 V2000
   -3.0760   -3.6390    1.5496 H   0  0  0  0  0  0  0  0  0  0  0  0
   -3.0940   -2.6290    1.1426 C   0  0  0  0  0  0  0  0  0  0  0  0
   -3.7160   -1.9930    1.7706 H   0  0  0  0  0  0  0  0  0  0  0  0
   -3.4880   -2.6500    0.1286 H   0  0  0  0  0  0  0  0  0  0  0  0
   -1.6860   -2.0850    1.1196 C   0  0  0  0  0  0  0  0  0  0  0  0
   -0.7540   -2.7700    1.5226 O   0  0  0  0  0  0  0  0  0  0  0  0
   -1.5320   -0.8490    0.6496 N   0  0  0  0  0  0  0  0  0  0  0  0
   -2.3500   -0.3360    0.3566 H   0  0  0  0  0  0  0  0  0  0  0  0
   -0.2470   -0.1410    0.5576 C   0  0  1  0  0  0  0  0  0  0  0  0
    0.4572   -0.6505    1.2162 H   0  0  0  0  0  0  0  0  0  0  0  0
    0.3091   -0.2220   -0.8868 C   0  0  1  0  0  0  0  0  0  0  0  0
   -0.4951   -0.6011   -1.5203 H   0  0  0  0  0  0  0  0  0  0  0  0
    0.7273    1.1560   -1.4345 C   0  0  0  0  0  0  0  0  0  0  0  0
    1.5824    1.5463   -0.8798 H   0  0  0  0  0  0  0  0  0  0  0  0
    0.9914    1.0800   -2.4881 H   0  0  0  0  0  0  0  0  0  0  0  0
   -0.0995    1.8620   -1.3488 H   0  0  0  0  0  0  0  0  0  0  0  0
    1.4780   -1.2288   -0.9749 C   0  0  0  0  0  0  0  0  0  0  0  0
    1.6399   -1.6970   -0.0030 H   0  0  0  0  0  0  0  0  0  0  0  0
    1.2163   -2.0081   -1.6906 H   0  0  0  0  0  0  0  0  0  0  0  0
    2.7985   -0.6023   -1.4428 C   0  0  0  0  0  0  0  0  0  0  0  0
    3.1645    0.1128   -0.7063 H   0  0  0  0  0  0  0  0  0  0  0  0
    3.5454   -1.3871   -1.5649 H   0  0  0  0  0  0  0  0  0  0  0  0
    2.6542   -0.0987   -2.3993 H   0  0  0  0  0  0  0  0  0  0  0  0
   -0.3971    1.3008    1.0689 C   0  0  0  0  0  0  0  0  0  0  0  0
   -1.3643    1.9819    0.7311 O   0  0  0  0  0  0  0  0  0  0  0  0
    0.5522    1.7647    1.8915 N   0  0  0  0  0  0  0  0  0  0  0  0
    1.3093    1.1450    2.1332 H   0  0  0  0  0  0  0  0  0  0  0  0
    0.5577    3.1119    2.4582 C   0  0  0  0  0  0  0  0  0  0  0  0
   -0.3986    3.3098    2.9475 H   0  0  0  0  0  0  0  0  0  0  0  0
    1.3619    3.2123    3.1886 H   0  0  0  0  0  0  0  0  0  0  0  0
    0.6974    3.8450    1.6614 H   0  0  0  0  0  0  0  0  0  0  0  0
  5  6  2  0  0  0  0
  5  7  1  0  0  0  0
  2  3  1  0  0  0  0
  2  4  1  0  0  0  0
  2  5  1  0  0  0  0
  1  2  1  0  0  0  0
 24 25  2  0  0  0  0
 24 26  1  0  0  0  0
 20 21  1  0  0  0  0
 20 22  1  0  0  0  0
 20 23  1  0  0  0  0
 17 18  1  0  0  0  0
 17 19  1  0  0  0  0
 17 20  1  0  0  0  0
 13 14  1  0  0  0  0
 13 15  1  0  0  0  0
 13 16  1  0  0  0  0
 11 12  1  0  0  0  0
 11 13  1  0  0  0  0
 11 17  1  0  0  0  0
  9 10  1  0  0  0  0
  9 11  1  0  0  0  0
  9 24  1  0  0  0  0
  7  8  1  0  0  0  0
  7  9  1  0  0  0  0
 28 29  1  0  0  0  0
 28 30  1  0  0  0  0
 28 31  1  0  0  0  0
 26 27  1  0  0  0  0
 26 28  1  0  0  0  0
M  END
$$$$
default_name
  -OEChem-02102213163D

 31 30  0     1  0  0  0  0  0999 V2000
   -3.0760   -3.6390    1.5496 H   0  0  0  0  0  0  0  0  0  0  0  0
   -3.0940   -2.6290    1.1426 C   0  0  0  0  0  0  0  0  0  0  0  0
   -3.7160   -1.9930    1.7706 H   0  0  0  0  0  0  0  0  0  0  0  0
   -3.4880   -2.6500    0.1286 H   0  0  0  0  0  0  0  0  0  0  0  0
   -1.6860   -2.0850    1.1196 C   0  0  0  0  0  0  0  0  0  0  0  0
   -0.7540   -2.7700    1.5226 O   0  0  0  0  0  0  0  0  0  0  0  0
   -1.5320   -0.8490    0.6496 N   0  0  0  0  0  0  0  0  0  0  0  0
   -2.3500   -0.3360    0.3566 H   0  0  0  0  0  0  0  0  0  0  0  0
   -0.2470   -0.1410    0.5576 C   0  0  1  0  0  0  0  0  0  0  0  0
    0.4572   -0.6505    1.2162 H   0  0  0  0  0  0  0  0  0  0  0  0
    0.3091   -0.2220   -0.8868 C   0  0  1  0  0  0  0  0  0  0  0  0
   -0.4951   -0.6011   -1.5203 H   0  0  0  0  0  0  0  0  0  0  0  0
    0.7273    1.1560   -1.4345 C   0  0  0  0  0  0  0  0  0  0  0  0
    1.5824    1.5463   -0.8798 H   0  0  0  0  0  0  0  0  0  0  0  0
    0.9914    1.0800   -2.4881 H   0  0  0  0  0  0  0  0  0  0  0  0
   -0.0995    1.8620   -1.3488 H   0  0  0  0  0  0  0  0  0  0  0  0
    1.4780   -1.2288   -0.9749 C   0  0  0  0  0  0  0  0  0  0  0  0
    1.4732   -1.8819   -0.1012 H   0  0  0  0  0  0  0  0  0  0  0  0
    1.3435   -1.8454   -1.8636 H   0  0  0  0  0  0  0  0  0  0  0  0
    2.8576   -0.5652   -1.0827 C   0  0  0  0  0  0  0  0  0  0  0  0
    3.0915   -0.0189   -0.1691 H   0  0  0  0  0  0  0  0  0  0  0  0
    3.6159   -1.3344   -1.2304 H   0  0  0  0  0  0  0  0  0  0  0  0
    2.8771    0.1191   -1.9316 H   0  0  0  0  0  0  0  0  0  0  0  0
   -0.3971    1.3008    1.0689 C   0  0  0  0  0  0  0  0  0  0  0  0
   -1.3643    1.9819    0.7311 O   0  0  0  0  0  0  0  0  0  0  0  0
    0.5522    1.7647    1.8915 N   0  0  0  0  0  0  0  0  0  0  0  0
    1.3093    1.1450    2.1332 H   0  0  0  0  0  0  0  0  0  0  0  0
    0.5577    3.1119    2.4582 C   0  0  0  0  0  0  0  0  0  0  0  0
   -0.3986    3.3098    2.9475 H   0  0  0  0  0  0  0  0  0  0  0  0
    1.3619    3.2123    3.1886 H   0  0  0  0  0  0  0  0  0  0  0  0
    0.6974    3.8450    1.6614 H   0  0  0  0  0  0  0  0  0  0  0  0
  5  6  2  0  0  0  0
  5  7  1  0  0  0  0
  2  3  1  0  0  0  0
  2  4  1  0  0  0  0
  2  5  1  0  0  0  0
  1  2  1  0  0  0  0
 24 25  2  0  0  0  0
 24 26  1  0  0  0  0
 20 21  1  0  0  0  0
 20 22  1  0  0  0  0
 20 23  1  0  0  0  0
 17 18  1  0  0  0  0
 17 19  1  0  0  0  0
 17 20  1  0  0  0  0
 13 14  1  0  0  0  0
 13 15  1  0  0  0  0
 13 16  1  0  0  0  0
 11 12  1  0  0  0  0
 11 13  1  0  0  0  0
 11 17  1  0  0  0  0
  9 10  1  0  0  0  0
  9 11  1  0  0  0  0
  9 24  1  0  0  0  0
  7  8  1  0  0  0  0
  7  9  1  0  0  0  0
 28 29  1  0  0  0  0
 28 30  1  0  0  0  0
 28 31  1  0  0  0  0
 26 27  1  0  0  0  0
 26 28  1  0  0  0  0
M  END
$$$$
default_name
  -OEChem-02102213163D

 31 30  0     1  0  0  0  0  0999 V2000
   -3.0760   -3.6390    1.5496 H   0  0  0  0  0  0  0  0  0  0  0  0
   -3.0940   -2.6290    1.1426 C   0  0  0  0  0  0  0  0  0  0  0  0
   -3.7160   -1.9930    1.7706 H   0  0  0  0  0  0  0  0  0  0  0  0
   -3.4880   -2.6500    0.1286 H   0  0  0  0  0  0  0  0  0  0  0  0
   -1.6860   -2.0850    1.1196 C   0  0  0  0  0  0  0  0  0  0  0  0
   -0.7540   -2.7700    1.5226 O   0  0  0  0  0  0  0  0  0  0  0  0
   -1.5320   -0.8490    0.6496 N   0  0  0  0  0  0  0  0  0  0  0  0
   -2.3500   -0.3360    0.3566 H   0  0  0  0  0  0  0  0  0  0  0  0
   -0.2470   -0.1410    0.5576 C   0  0  1  0  0  0  0  0  0  0  0  0
    0.4572   -0.6505    1.2162 H   0  0  0  0  0  0  0  0  0  0  0  0
    0.3091   -0.2220   -0.8868 C   0  0  1  0  0  0  0  0  0  0  0  0
   -0.4951   -0.6011   -1.5203 H   0  0  0  0  0  0  0  0  0  0  0  0
    0.7273    1.1560   -1.4345 C   0  0  0  0  0  0  0  0  0  0  0  0
    1.5824    1.5463   -0.8798 H   0  0  0  0  0  0  0  0  0  0  0  0
    0.9914    1.0800   -2.4881 H   0  0  0  0  0  0  0  0  0  0  0  0
   -0.0995    1.8620   -1.3488 H   0  0  0  0  0  0  0  0  0  0  0  0
    1.4780   -1.2288   -0.9749 C   0  0  0  0  0  0  0  0  0  0  0  0
    1.3260   -2.0389   -0.2604 H   0  0  0  0  0  0  0  0  0  0  0  0
    1.4979   -1.6562   -1.9774 H   0  0  0  0  0  0  0  0  0  0  0  0
    2.8544   -0.6008   -0.7177 C   0  0  0  0  0  0  0  0  0  0  0  0
    2.9284   -0.2503    0.3116 H   0  0  0  0  0  0  0  0  0  0  0  0
    3.6284   -1.3501   -0.8851 H   0  0  0  0  0  0  0  0  0  0  0  0
    3.0167    0.2346   -1.3997 H   0  0  0  0  0  0  0  0  0  0  0  0
   -0.3971    1.3008    1.0689 C   0  0  0  0  0  0  0  0  0  0  0  0
   -1.3643    1.9819    0.7311 O   0  0  0  0  0  0  0  0  0  0  0  0
    0.5522    1.7647    1.8915 N   0  0  0  0  0  0  0  0  0  0  0  0
    1.3093    1.1450    2.1332 H   0  0  0  0  0  0  0  0  0  0  0  0
    0.5577    3.1119    2.4582 C   0  0  0  0  0  0  0  0  0  0  0  0
   -0.3986    3.3098    2.9475 H   0  0  0  0  0  0  0  0  0  0  0  0
    1.3619    3.2123    3.1886 H   0  0  0  0  0  0  0  0  0  0  0  0
    0.6974    3.8450    1.6614 H   0  0  0  0  0  0  0  0  0  0  0  0
  5  6  2  0  0  0  0
  5  7  1  0  0  0  0
  2  3  1  0  0  0  0
  2  4  1  0  0  0  0
  2  5  1  0  0  0  0
  1  2  1  0  0  0  0
 24 25  2  0  0  0  0
 24 26  1  0  0  0  0
 20 21  1  0  0  0  0
 20 22  1  0  0  0  0
 20 23  1  0  0  0  0
 17 18  1  0  0  0  0
 17 19  1  0  0  0  0
 17 20  1  0  0  0  0
 13 14  1  0  0  0  0
 13 15  1  0  0  0  0
 13 16  1  0  0  0  0
 11 12  1  0  0  0  0
 11 13  1  0  0  0  0
 11 17  1  0  0  0  0
  9 10  1  0  0  0  0
  9 11  1  0  0  0  0
  9 24  1  0  0  0  0
  7  8  1  0  0  0  0
  7  9  1  0  0  0  0
 28 29  1  0  0  0  0
 28 30  1  0  0  0  0
 28 31  1  0  0  0  0
 26 27  1  0  0  0  0
 26 28  1  0  0  0  0
M  END
$$$$
default_name
  -OEChem-02102213163D

 31 30  0     1  0  0  0  0  0999 V2000
   -3.0760   -3.6390    1.5496 H   0  0  0  0  0  0  0  0  0  0  0  0
   -3.0940   -2.6290    1.1426 C   0  0  0  0  0  0  0  0  0  0  0  0
   -3.7160   -1.9930    1.7706 H   0  0  0  0  0  0  0  0  0  0  0  0
   -3.4880   -2.6500    0.1286 H   0  0  0  0  0  0  0  0  0  0  0  0
   -1.6860   -2.0850    1.1196 C   0  0  0  0  0  0  0  0  0  0  0  0
   -0.7540   -2.7700    1.5226 O   0  0  0  0  0  0  0  0  0  0  0  0
   -1.5320   -0.8490    0.6496 N   0  0  0  0  0  0  0  0  0  0  0  0
   -2.3500   -0.3360    0.3566 H   0  0  0  0  0  0  0  0  0  0  0  0
   -0.2470   -0.1410    0.5576 C   0  0  1  0  0  0  0  0  0  0  0  0
    0.4572   -0.6505    1.2162 H   0  0  0  0  0  0  0  0  0  0  0  0
    0.3091   -0.2220   -0.8868 C   0  0  1  0  0  0  0  0  0  0  0  0
   -0.4951   -0.6011   -1.5203 H   0  0  0  0  0  0  0  0  0  0  0  0
    0.7273    1.1560   -1.4345 C   0  0  0  0  0  0  0  0  0  0  0  0
    1.5824    1.5463   -0.8798 H   0  0  0  0  0  0  0  0  0  0  0  0
    0.9914    1.0800   -2.4881 H   0  0  0  0  0  0  0  0  0  0  0  0
   -0.0995    1.8620   -1.3488 H   0  0  0  0  0  0  0  0  0  0  0  0
    1.4780   -1.2288   -0.9749 C   0  0  0  0  0  0  0  0  0  0  0  0
    1.2083   -2.1572   -0.4697 H   0  0  0  0  0  0  0  0  0  0  0  0
    1.6690   -1.4534   -2.0242 H   0  0  0  0  0  0  0  0  0  0  0  0
    2.7893   -0.7065   -0.3725 C   0  0  0  0  0  0  0  0  0  0  0  0
    2.6864   -0.5655    0.7032 H   0  0  0  0  0  0  0  0  0  0  0  0
    3.5821   -1.4330   -0.5526 H   0  0  0  0  0  0  0  0  0  0  0  0
    3.0635    0.2400   -0.8396 H   0  0  0  0  0  0  0  0  0  0  0  0
   -0.3971    1.3008    1.0689 C   0  0  0  0  0  0  0  0  0  0  0  0
   -1.3643    1.9819    0.7311 O   0  0  0  0  0  0  0  0  0  0  0  0
    0.5522    1.7647    1.8915 N   0  0  0  0  0  0  0  0  0  0  0  0
    1.3093    1.1450    2.1332 H   0  0  0  0  0  0  0  0  0  0  0  0
    0.5577    3.1119    2.4582 C   0  0  0  0  0  0  0  0  0  0  0  0
   -0.3986    3.3098    2.9475 H   0  0  0  0  0  0  0  0  0  0  0  0
    1.3619    3.2123    3.1886 H   0  0  0  0  0  0  0  0  0  0  0  0
    0.6974    3.8450    1.6614 H   0  0  0  0  0  0  0  0  0  0  0  0
  5  6  2  0  0  0  0
  5  7  1  0  0  0  0
  2  3  1  0  0  0  0
  2  4  1  0  0  0  0
  2  5  1  0  0  0  0
  1  2  1  0  0  0  0
 24 25  2  0  0  0  0
 24 26  1  0  0  0  0
 20 21  1  0  0  0  0
 20 22  1  0  0  0  0
 20 23  1  0  0  0  0
 17 18  1  0  0  0  0
 17 19  1  0  0  0  0
 17 20  1  0  0  0  0
 13 14  1  0  0  0  0
 13 15  1  0  0  0  0
 13 16  1  0  0  0  0
 11 12  1  0  0  0  0
 11 13  1  0  0  0  0
 11 17  1  0  0  0  0
  9 10  1  0  0  0  0
  9 11  1  0  0  0  0
  9 24  1  0  0  0  0
  7  8  1  0  0  0  0
  7  9  1  0  0  0  0
 28 29  1  0  0  0  0
 28 30  1  0  0  0  0
 28 31  1  0  0  0  0
 26 27  1  0  0  0  0
 26 28  1  0  0  0  0
M  END
$$$$
default_name
  -OEChem-02102213163D

 31 30  0     1  0  0  0  0  0999 V2000
   -3.0760   -3.6390    1.5496 H   0  0  0  0  0  0  0  0  0  0  0  0
   -3.0940   -2.6290    1.1426 C   0  0  0  0  0  0  0  0  0  0  0  0
   -3.7160   -1.9930    1.7706 H   0  0  0  0  0  0  0  0  0  0  0  0
   -3.4880   -2.6500    0.1286 H   0  0  0  0  0  0  0  0  0  0  0  0
   -1.6860   -2.0850    1.1196 C   0  0  0  0  0  0  0  0  0  0  0  0
   -0.7540   -2.7700    1.5226 O   0  0  0  0  0  0  0  0  0  0  0  0
   -1.5320   -0.8490    0.6496 N   0  0  0  0  0  0  0  0  0  0  0  0
   -2.3500   -0.3360    0.3566 H   0  0  0  0  0  0  0  0  0  0  0  0
   -0.2470   -0.1410    0.5576 C   0  0  1  0  0  0  0  0  0  0  0  0
    0.4572   -0.6505    1.2162 H   0  0  0  0  0  0  0  0  0  0  0  0
    0.3091   -0.2220   -0.8868 C   0  0  1  0  0  0  0  0  0  0  0  0
   -0.4951   -0.6011   -1.5203 H   0  0  0  0  0  0  0  0  0  0  0  0
    0.7273    1.1560   -1.4345 C   0  0  0  0  0  0  0  0  0  0  0  0
    1.5824    1.5463   -0.8798 H   0  0  0  0  0  0  0  0  0  0  0  0
    0.9914    1.0800   -2.4881 H   0  0  0  0  0  0  0  0  0  0  0  0
   -0.0995    1.8620   -1.3488 H   0  0  0  0  0  0  0  0  0  0  0  0
    1.4780   -1.2288   -0.9749 C   0  0  0  0  0  0  0  0  0  0  0  0
    1.1282   -2.2288   -0.7149 H   0  0  0  0  0  0  0  0  0  0  0  0
    1.8452   -1.2509   -2.0009 H   0  0  0  0  0  0  0  0  0  0  0  0
    2.6667   -0.8753   -0.0709 C   0  0  0  0  0  0  0  0  0  0  0  0
    2.3820   -0.9430    0.9790 H   0  0  0  0  0  0  0  0  0  0  0  0
    3.4800   -1.5775   -0.2554 H   0  0  0  0  0  0  0  0  0  0  0  0
    3.0144    0.1349   -0.2898 H   0  0  0  0  0  0  0  0  0  0  0  0
   -0.3971    1.3008    1.0689 C   0  0  0  0  0  0  0  0  0  0  0  0
   -1.3643    1.9819    0.7311 O   0  0  0  0  0  0  0  0  0  0  0  0
    0.5522    1.7647    1.8915 N   0  0  0  0  0  0  0  0  0  0  0  0
    1.3093    1.1450    2.1332 H   0  0  0  0  0  0  0  0  0  0  0  0
    0.5577    3.1119    2.4582 C   0  0  0  0  0  0  0  0  0  0  0  0
   -0.3986    3.3098    2.9475 H   0  0  0  0  0  0  0  0  0  0  0  0
    1.3619    3.2123    3.1886 H   0  0  0  0  0  0  0  0  0  0  0  0
    0.6974    3.8450    1.6614 H   0  0  0  0  0  0  0  0  0  0  0  0
  5  6  2  0  0  0  0
  5  7  1  0  0  0  0
  2  3  1  0  0  0  0
  2  4  1  0  0  0  0
  2  5  1  0  0  0  0
  1  2  1  0  0  0  0
 24 25  2  0  0  0  0
 24 26  1  0  0  0  0
 20 21  1  0  0  0  0
 20 22  1  0  0  0  0
 20 23  1  0  0  0  0
 17 18  1  0  0  0  0
 17 19  1  0  0  0  0
 17 20  1  0  0  0  0
 13 14  1  0  0  0  0
 13 15  1  0  0  0  0
 13 16  1  0  0  0  0
 11 12  1  0  0  0  0
 11 13  1  0  0  0  0
 11 17  1  0  0  0  0
  9 10  1  0  0  0  0
  9 11  1  0  0  0  0
  9 24  1  0  0  0  0
  7  8  1  0  0  0  0
  7  9  1  0  0  0  0
 28 29  1  0  0  0  0
 28 30  1  0  0  0  0
 28 31  1  0  0  0  0
 26 27  1  0  0  0  0
 26 28  1  0  0  0  0
M  END
$$$$
default_name
  -OEChem-02102213163D

 31 30  0     1  0  0  0  0  0999 V2000
   -3.0760   -3.6390    1.5496 H   0  0  0  0  0  0  0  0  0  0  0  0
   -3.0940   -2.6290    1.1426 C   0  0  0  0  0  0  0  0  0  0  0  0
   -3.7160   -1.9930    1.7706 H   0  0  0  0  0  0  0  0  0  0  0  0
   -3.4880   -2.6500    0.1286 H   0  0  0  0  0  0  0  0  0  0  0  0
   -1.6860   -2.0850    1.1196 C   0  0  0  0  0  0  0  0  0  0  0  0
   -0.7540   -2.7700    1.5226 O   0  0  0  0  0  0  0  0  0  0  0  0
   -1.5320   -0.8490    0.6496 N   0  0  0  0  0  0  0  0  0  0  0  0
   -2.3500   -0.3360    0.3566 H   0  0  0  0  0  0  0  0  0  0  0  0
   -0.2470   -0.1410    0.5576 C   0  0  1  0  0  0  0  0  0  0  0  0
    0.4572   -0.6505    1.2162 H   0  0  0  0  0  0  0  0  0  0  0  0
    0.3091   -0.2220   -0.8868 C   0  0  1  0  0  0  0  0  0  0  0  0
   -0.4951   -0.6011   -1.5203 H   0  0  0  0  0  0  0  0  0  0  0  0
    0.7273    1.1560   -1.4345 C   0  0  0  0  0  0  0  0  0  0  0  0
    1.5824    1.5463   -0.8798 H   0  0  0  0  0  0  0  0  0  0  0  0
    0.9914    1.0800   -2.4881 H   0  0  0  0  0  0  0  0  0  0  0  0
   -0.0995    1.8620   -1.3488 H   0  0  0  0  0  0  0  0  0  0  0  0
    1.4780   -1.2288   -0.9749 C   0  0  0  0  0  0  0  0  0  0  0  0
    1.0911   -2.2487   -0.9792 H   0  0  0  0  0  0  0  0  0  0  0  0
    2.0144   -1.0625   -1.9090 H   0  0  0  0  0  0  0  0  0  0  0  0
    2.4949   -1.0956    0.1668 C   0  0  0  0  0  0  0  0  0  0  0  0
    2.0358   -1.3572    1.1200 H   0  0  0  0  0  0  0  0  0  0  0  0
    3.3291   -1.7738   -0.0139 H   0  0  0  0  0  0  0  0  0  0  0  0
    2.8727   -0.0736    0.2125 H   0  0  0  0  0  0  0  0  0  0  0  0
   -0.3971    1.3008    1.0689 C   0  0  0  0  0  0  0  0  0  0  0  0
   -1.3643    1.9819    0.7311 O   0  0  0  0  0  0  0  0  0  0  0  0
    0.5522    1.7647    1.8915 N   0  0  0  0  0  0  0  0  0  0  0  0
    1.3093    1.1450    2.1332 H   0  0  0  0  0  0  0  0  0  0  0  0
    0.5577    3.1119    2.4582 C   0  0  0  0  0  0  0  0  0  0  0  0
   -0.3986    3.3098    2.9475 H   0  0  0  0  0  0  0  0  0  0  0  0
    1.3619    3.2123    3.1886 H   0  0  0  0  0  0  0  0  0  0  0  0
    0.6974    3.8450    1.6614 H   0  0  0  0  0  0  0  0  0  0  0  0
  5  6  2  0  0  0  0
  5  7  1  0  0  0  0
  2  3  1  0  0  0  0
  2  4  1  0  0  0  0
  2  5  1  0  0  0  0
  1  2  1  0  0  0  0
 24 25  2  0  0  0  0
 24 26  1  0  0  0  0
 20 21  1  0  0  0  0
 20 22  1  0  0  0  0
 20 23  1  0  0  0  0
 17 18  1  0  0  0  0
 17 19  1  0  0  0  0
 17 20  1  0  0  0  0
 13 14  1  0  0  0  0
 13 15  1  0  0  0  0
 13 16  1  0  0  0  0
 11 12  1  0  0  0  0
 11 13  1  0  0  0  0
 11 17  1  0  0  0  0
  9 10  1  0  0  0  0
  9 11  1  0  0  0  0
  9 24  1  0  0  0  0
  7  8  1  0  0  0  0
  7  9  1  0  0  0  0
 28 29  1  0  0  0  0
 28 30  1  0  0  0  0
 28 31  1  0  0  0  0
 26 27  1  0  0  0  0
 26 28  1  0  0  0  0
M  END
$$$$
default_name
  -OEChem-02102213163D

 31 30  0     1  0  0  0  0  0999 V2000
   -3.0760   -3.6390    1.5496 H   0  0  0  0  0  0  0  0  0  0  0  0
   -3.0940   -2.6290    1.1426 C   0  0  0  0  0  0  0  0  0  0  0  0
   -3.7160   -1.9930    1.7706 H   0  0  0  0  0  0  0  0  0  0  0  0
   -3.4880   -2.6500    0.1286 H   0  0  0  0  0  0  0  0  0  0  0  0
   -1.6860   -2.0850    1.1196 C   0  0  0  0  0  0  0  0  0  0  0  0
   -0.7540   -2.7700    1.5226 O   0  0  0  0  0  0  0  0  0  0  0  0
   -1.5320   -0.8490    0.6496 N   0  0  0  0  0  0  0  0  0  0  0  0
   -2.3500   -0.3360    0.3566 H   0  0  0  0  0  0  0  0  0  0  0  0
   -0.2470   -0.1410    0.5576 C   0  0  1  0  0  0  0  0  0  0  0  0
    0.4572   -0.6505    1.2162 H   0  0  0  0  0  0  0  0  0  0  0  0
    0.3091   -0.2220   -0.8868 C   0  0  1  0  0  0  0  0  0  0  0  0
   -0.4951   -0.6011   -1.5203 H   0  0  0  0  0  0  0  0  0  0  0  0
    0.7273    1.1560   -1.4345 C   0  0  0  0  0  0  0  0  0  0  0  0
    1.5824    1.5463   -0.8798 H   0  0  0  0  0  0  0  0  0  0  0  0
    0.9914    1.0800   -2.4881 H   0  0  0  0  0  0  0  0  0  0  0  0
   -0.0995    1.8620   -1.3488 H   0  0  0  0  0  0  0  0  0  0  0  0
    1.4780   -1.2288   -0.9749 C   0  0  0  0  0  0  0  0  0  0  0  0
    1.0996   -2.2156   -1.2447 H   0  0  0  0  0  0  0  0  0  0  0  0
    2.1651   -0.9010   -1.7549 H   0  0  0  0  0  0  0  0  0  0  0  0
    2.2855   -1.3523    0.3243 C   0  0  0  0  0  0  0  0  0  0  0  0
    1.6716   -1.7798    1.1168 H   0  0  0  0  0  0  0  0  0  0  0  0
    3.1398   -2.0084    0.1555 H   0  0  0  0  0  0  0  0  0  0  0  0
    2.6480   -0.3712    0.6330 H   0  0  0  0  0  0  0  0  0  0  0  0
   -0.3971    1.3008    1.0689 C   0  0  0  0  0  0  0  0  0  0  0  0
   -1.3643    1.9819    0.7311 O   0  0  0  0  0  0  0  0  0  0  0  0
    0.5522    1.7647    1.8915 N   0  0  0  0  0  0  0  0  0  0  0  0
    1.3093    1.1450    2.1332 H   0  0  0  0  0  0  0  0  0  0  0  0
    0.5577    3.1119    2.4582 C   0  0  0  0  0  0  0  0  0  0  0  0
   -0.3986    3.3098    2.9475 H   0  0  0  0  0  0  0  0  0  0  0  0
    1.3619    3.2123    3.1886 H   0  0  0  0  0  0  0  0  0  0  0  0
    0.6974    3.8450    1.6614 H   0  0  0  0  0  0  0  0  0  0  0  0
  5  6  2  0  0  0  0
  5  7  1  0  0  0  0
  2  3  1  0  0  0  0
  2  4  1  0  0  0  0
  2  5  1  0  0  0  0
  1  2  1  0  0  0  0
 24 25  2  0  0  0  0
 24 26  1  0  0  0  0
 20 21  1  0  0  0  0
 20 22  1  0  0  0  0
 20 23  1  0  0  0  0
 17 18  1  0  0  0  0
 17 19  1  0  0  0  0
 17 20  1  0  0  0  0
 13 14  1  0  0  0  0
 13 15  1  0  0  0  0
 13 16  1  0  0  0  0
 11 12  1  0  0  0  0
 11 13  1  0  0  0  0
 11 17  1  0  0  0  0
  9 10  1  0  0  0  0
  9 11  1  0  0  0  0
  9 24  1  0  0  0  0
  7  8  1  0  0  0  0
  7  9  1  0  0  0  0
 28 29  1  0  0  0  0
 28 30  1  0  0  0  0
 28 31  1  0  0  0  0
 26 27  1  0  0  0  0
 26 28  1  0  0  0  0
M  END
$$$$
default_name
  -OEChem-02102213163D

 31 30  0     1  0  0  0  0  0999 V2000
   -3.0760   -3.6390    1.5496 H   0  0  0  0  0  0  0  0  0  0  0  0
   -3.0940   -2.6290    1.1426 C   0  0  0  0  0  0  0  0  0  0  0  0
   -3.7160   -1.9930    1.7706 H   0  0  0  0  0  0  0  0  0  0  0  0
   -3.4880   -2.6500    0.1286 H   0  0  0  0  0  0  0  0  0  0  0  0
   -1.6860   -2.0850    1.1196 C   0  0  0  0  0  0  0  0  0  0  0  0
   -0.7540   -2.7700    1.5226 O   0  0  0  0  0  0  0  0  0  0  0  0
   -1.5320   -0.8490    0.6496 N   0  0  0  0  0  0  0  0  0  0  0  0
   -2.3500   -0.3360    0.3566 H   0  0  0  0  0  0  0  0  0  0  0  0
   -0.2470   -0.1410    0.5576 C   0  0  1  0  0  0  0  0  0  0  0  0
    0.4572   -0.6505    1.2162 H   0  0  0  0  0  0  0  0  0  0  0  0
    0.3091   -0.2220   -0.8868 C   0  0  1  0  0  0  0  0  0  0  0  0
   -0.4951   -0.6011   -1.5203 H   0  0  0  0  0  0  0  0  0  0  0  0
    0.7273    1.1560   -1.4345 C   0  0  0  0  0  0  0  0  0  0  0  0
    1.5824    1.5463   -0.8798 H   0  0  0  0  0  0  0  0  0  0  0  0
    0.9914    1.0800   -2.4881 H   0  0  0  0  0  0  0  0  0  0  0  0
   -0.0995    1.8620   -1.3488 H   0  0  0  0  0  0  0  0  0  0  0  0
    1.4780   -1.2288   -0.9749 C   0  0  0  0  0  0  0  0  0  0  0  0
    1.1530   -2.1319   -1.4933 H   0  0  0  0  0  0  0  0  0  0  0  0
    2.2871   -0.7774   -1.5489 H   0  0  0  0  0  0  0  0  0  0  0  0
    2.0530   -1.6281    0.3908 C   0  0  0  0  0  0  0  0  0  0  0  0
    1.3141   -2.1819    0.9696 H   0  0  0  0  0  0  0  0  0  0  0  0
    2.9249   -2.2654    0.2413 H   0  0  0  0  0  0  0  0  0  0  0  0
    2.3556   -0.7377    0.9430 H   0  0  0  0  0  0  0  0  0  0  0  0
   -0.3971    1.3008    1.0689 C   0  0  0  0  0  0  0  0  0  0  0  0
   -1.3643    1.9819    0.7311 O   0  0  0  0  0  0  0  0  0  0  0  0
    0.5522    1.7647    1.8915 N   0  0  0  0  0  0  0  0  0  0  0  0
    1.3093    1.1450    2.1332 H   0  0  0  0  0  0  0  0  0  0  0  0
    0.5577    3.1119    2.4582 C   0  0  0  0  0  0  0  0  0  0  0  0
   -0.3986    3.3098    2.9475 H   0  0  0  0  0  0  0  0  0  0  0  0
    1.3619    3.2123    3.1886 H   0  0  0  0  0  0  0  0  0  0  0  0
    0.6974    3.8450    1.6614 H   0  0  0  0  0  0  0  0  0  0  0  0
  5  6  2  0  0  0  0
  5  7  1  0  0  0  0
  2  3  1  0  0  0  0
  2  4  1  0  0  0  0
  2  5  1  0  0  0  0
  1  2  1  0  0  0  0
 24 25  2  0  0  0  0
 24 26  1  0  0  0  0
 20 21  1  0  0  0  0
 20 22  1  0  0  0  0
 20 23  1  0  0  0  0
 17 18  1  0  0  0  0
 17 19  1  0  0  0  0
 17 20  1  0  0  0  0
 13 14  1  0  0  0  0
 13 15  1  0  0  0  0
 13 16  1  0  0  0  0
 11 12  1  0  0  0  0
 11 13  1  0  0  0  0
 11 17  1  0  0  0  0
  9 10  1  0  0  0  0
  9 11  1  0  0  0  0
  9 24  1  0  0  0  0
  7  8  1  0  0  0  0
  7  9  1  0  0  0  0
 28 29  1  0  0  0  0
 28 30  1  0  0  0  0
 28 31  1  0  0  0  0
 26 27  1  0  0  0  0
 26 28  1  0  0  0  0
M  END
$$$$
default_name
  -OEChem-02102213163D

 31 30  0     1  0  0  0  0  0999 V2000
   -3.0760   -3.6390    1.5496 H   0  0  0  0  0  0  0  0  0  0  0  0
   -3.0940   -2.6290    1.1426 C   0  0  0  0  0  0  0  0  0  0  0  0
   -3.7160   -1.9930    1.7706 H   0  0  0  0  0  0  0  0  0  0  0  0
   -3.4880   -2.6500    0.1286 H   0  0  0  0  0  0  0  0  0  0  0  0
   -1.6860   -2.0850    1.1196 C   0  0  0  0  0  0  0  0  0  0  0  0
   -0.7540   -2.7700    1.5226 O   0  0  0  0  0  0  0  0  0  0  0  0
   -1.5320   -0.8490    0.6496 N   0  0  0  0  0  0  0  0  0  0  0  0
   -2.3500   -0.3360    0.3566 H   0  0  0  0  0  0  0  0  0  0  0  0
   -0.2470   -0.1410    0.5576 C   0  0  1  0  0  0  0  0  0  0  0  0
    0.4572   -0.6505    1.2162 H   0  0  0  0  0  0  0  0  0  0  0  0
    0.3091   -0.2220   -0.8868 C   0  0  1  0  0  0  0  0  0  0  0  0
   -0.4951   -0.6011   -1.5203 H   0  0  0  0  0  0  0  0  0  0  0  0
    0.7273    1.1560   -1.4345 C   0  0  0  0  0  0  0  0  0  0  0  0
    1.5824    1.5463   -0.8798 H   0  0  0  0  0  0  0  0  0  0  0  0
    0.9914    1.0800   -2.4881 H   0  0  0  0  0  0  0  0  0  0  0  0
   -0.0995    1.8620   -1.3488 H   0  0  0  0  0  0  0  0  0  0  0  0
    1.4780   -1.2288   -0.9749 C   0  0  0  0  0  0  0  0  0  0  0  0
    1.2478   -2.0031   -1.7079 H   0  0  0  0  0  0  0  0  0  0  0  0
    2.3721   -0.7001   -1.3052 H   0  0  0  0  0  0  0  0  0  0  0  0
    1.8131   -1.9041    0.3619 C   0  0  0  0  0  0  0  0  0  0  0  0
    0.9876   -2.5363    0.6884 H   0  0  0  0  0  0  0  0  0  0  0  0
    2.6990   -2.5273    0.2377 H   0  0  0  0  0  0  0  0  0  0  0  0
    2.0156   -1.1480    1.1213 H   0  0  0  0  0  0  0  0  0  0  0  0
   -0.3971    1.3008    1.0689 C   0  0  0  0  0  0  0  0  0  0  0  0
   -1.3643    1.9819    0.7311 O   0  0  0  0  0  0  0  0  0  0  0  0
    0.5522    1.7647    1.8915 N   0  0  0  0  0  0  0  0  0  0  0  0
    1.3093    1.1450    2.1332 H   0  0  0  0  0  0  0  0  0  0  0  0
    0.5577    3.1119    2.4582 C   0  0  0  0  0  0  0  0  0  0  0  0
   -0.3986    3.3098    2.9475 H   0  0  0  0  0  0  0  0  0  0  0  0
    1.3619    3.2123    3.1886 H   0  0  0  0  0  0  0  0  0  0  0  0
    0.6974    3.8450    1.6614 H   0  0  0  0  0  0  0  0  0  0  0  0
  5  6  2  0  0  0  0
  5  7  1  0  0  0  0
  2  3  1  0  0  0  0
  2  4  1  0  0  0  0
  2  5  1  0  0  0  0
  1  2  1  0  0  0  0
 24 25  2  0  0  0  0
 24 26  1  0  0  0  0
 20 21  1  0  0  0  0
 20 22  1  0  0  0  0
 20 23  1  0  0  0  0
 17 18  1  0  0  0  0
 17 19  1  0  0  0  0
 17 20  1  0  0  0  0
 13 14  1  0  0  0  0
 13 15  1  0  0  0  0
 13 16  1  0  0  0  0
 11 12  1  0  0  0  0
 11 13  1  0  0  0  0
 11 17  1  0  0  0  0
  9 10  1  0  0  0  0
  9 11  1  0  0  0  0
  9 24  1  0  0  0  0
  7  8  1  0  0  0  0
  7  9  1  0  0  0  0
 28 29  1  0  0  0  0
 28 30  1  0  0  0  0
 28 31  1  0  0  0  0
 26 27  1  0  0  0  0
 26 28  1  0  0  0  0
M  END
$$$$
default_name
  -OEChem-02102213163D

 31 30  0     1  0  0  0  0  0999 V2000
   -3.0760   -3.6390    1.5496 H   0  0  0  0  0  0  0  0  0  0  0  0
   -3.0940   -2.6290    1.1426 C   0  0  0  0  0  0  0  0  0  0  0  0
   -3.7160   -1.9930    1.7706 H   0  0  0  0  0  0  0  0  0  0  0  0
   -3.4880   -2.6500    0.1286 H   0  0  0  0  0  0  0  0  0  0  0  0
   -1.6860   -2.0850    1.1196 C   0  0  0  0  0  0  0  0  0  0  0  0
   -0.7540   -2.7700    1.5226 O   0  0  0  0  0  0  0  0  0  0  0  0
   -1.5320   -0.8490    0.6496 N   0  0  0  0  0  0  0  0  0  0  0  0
   -2.3500   -0.3360    0.3566 H   0  0  0  0  0  0  0  0  0  0  0  0
   -0.2470   -0.1410    0.5576 C   0  0  1  0  0  0  0  0  0  0  0  0
    0.4572   -0.6505    1.2162 H   0  0  0  0  0  0  0  0  0  0  0  0
    0.3091   -0.2220   -0.8868 C   0  0  1  0  0  0  0  0  0  0  0  0
   -0.4951   -0.6011   -1.5203 H   0  0  0  0  0  0  0  0  0  0  0  0
    0.7273    1.1560   -1.4345 C   0  0  0  0  0  0  0  0  0  0  0  0
    1.5824    1.5463   -0.8798 H   0  0  0  0  0  0  0  0  0  0  0  0
    0.9914    1.0800   -2.4881 H   0  0  0  0  0  0  0  0  0  0  0  0
   -0.0995    1.8620   -1.3488 H   0  0  0  0  0  0  0  0  0  0  0  0
    1.4780   -1.2288   -0.9749 C   0  0  0  0  0  0  0  0  0  0  0  0
    1.3774   -1.8381   -1.8741 H   0  0  0  0  0  0  0  0  0  0  0  0
    2.4141   -0.6744   -1.0403 H   0  0  0  0  0  0  0  0  0  0  0  0
    1.5822   -2.1614    0.2395 C   0  0  0  0  0  0  0  0  0  0  0  0
    0.7145   -2.8187    0.2923 H   0  0  0  0  0  0  0  0  0  0  0  0
    2.4776   -2.7762    0.1447 H   0  0  0  0  0  0  0  0  0  0  0  0
    1.6510   -1.5743    1.1559 H   0  0  0  0  0  0  0  0  0  0  0  0
   -0.3971    1.3008    1.0689 C   0  0  0  0  0  0  0  0  0  0  0  0
   -1.3643    1.9819    0.7311 O   0  0  0  0  0  0  0  0  0  0  0  0
    0.5522    1.7647    1.8915 N   0  0  0  0  0  0  0  0  0  0  0  0
    1.3093    1.1450    2.1332 H   0  0  0  0  0  0  0  0  0  0  0  0
    0.5577    3.1119    2.4582 C   0  0  0  0  0  0  0  0  0  0  0  0
   -0.3986    3.3098    2.9475 H   0  0  0  0  0  0  0  0  0  0  0  0
    1.3619    3.2123    3.1886 H   0  0  0  0  0  0  0  0  0  0  0  0
    0.6974    3.8450    1.6614 H   0  0  0  0  0  0  0  0  0  0  0  0
  5  6  2  0  0  0  0
  5  7  1  0  0  0  0
  2  3  1  0  0  0  0
  2  4  1  0  0  0  0
  2  5  1  0  0  0  0
  1  2  1  0  0  0  0
 24 25  2  0  0  0  0
 24 26  1  0  0  0  0
 20 21  1  0  0  0  0
 20 22  1  0  0  0  0
 20 23  1  0  0  0  0
 17 18  1  0  0  0  0
 17 19  1  0  0  0  0
 17 20  1  0  0  0  0
 13 14  1  0  0  0  0
 13 15  1  0  0  0  0
 13 16  1  0  0  0  0
 11 12  1  0  0  0  0
 11 13  1  0  0  0  0
 11 17  1  0  0  0  0
  9 10  1  0  0  0  0
  9 11  1  0  0  0  0
  9 24  1  0  0  0  0
  7  8  1  0  0  0  0
  7  9  1  0  0  0  0
 28 29  1  0  0  0  0
 28 30  1  0  0  0  0
 28 31  1  0  0  0  0
 26 27  1  0  0  0  0
 26 28  1  0  0  0  0
M  END
$$$$
default_name
  -OEChem-02102213163D

 31 30  0     1  0  0  0  0  0999 V2000
   -3.0760   -3.6390    1.5496 H   0  0  0  0  0  0  0  0  0  0  0  0
   -3.0940   -2.6290    1.1426 C   0  0  0  0  0  0  0  0  0  0  0  0
   -3.7160   -1.9930    1.7706 H   0  0  0  0  0  0  0  0  0  0  0  0
   -3.4880   -2.6500    0.1286 H   0  0  0  0  0  0  0  0  0  0  0  0
   -1.6860   -2.0850    1.1196 C   0  0  0  0  0  0  0  0  0  0  0  0
   -0.7540   -2.7700    1.5226 O   0  0  0  0  0  0  0  0  0  0  0  0
   -1.5320   -0.8490    0.6496 N   0  0  0  0  0  0  0  0  0  0  0  0
   -2.3500   -0.3360    0.3566 H   0  0  0  0  0  0  0  0  0  0  0  0
   -0.2470   -0.1410    0.5576 C   0  0  1  0  0  0  0  0  0  0  0  0
    0.4572   -0.6505    1.2162 H   0  0  0  0  0  0  0  0  0  0  0  0
    0.3091   -0.2220   -0.8868 C   0  0  1  0  0  0  0  0  0  0  0  0
   -0.4951   -0.6011   -1.5203 H   0  0  0  0  0  0  0  0  0  0  0  0
    0.7273    1.1560   -1.4345 C   0  0  0  0  0  0  0  0  0  0  0  0
    1.5824    1.5463   -0.8798 H   0  0  0  0  0  0  0  0  0  0  0  0
    0.9914    1.0800   -2.4881 H   0  0  0  0  0  0  0  0  0  0  0  0
   -0.0995    1.8620   -1.3488 H   0  0  0  0  0  0  0  0  0  0  0  0
    1.4780   -1.2288   -0.9749 C   0  0  0  0  0  0  0  0  0  0  0  0
    1.5331   -1.6480   -1.9804 H   0  0  0  0  0  0  0  0  0  0  0  0
    2.4105   -0.7021   -0.7724 H   0  0  0  0  0  0  0  0  0  0  0  0
    1.3761   -2.3826    0.0319 C   0  0  0  0  0  0  0  0  0  0  0  0
    0.5134   -3.0100   -0.1917 H   0  0  0  0  0  0  0  0  0  0  0  0
    2.2757   -2.9952   -0.0311 H   0  0  0  0  0  0  0  0  0  0  0  0
    1.2867   -1.9875    1.0444 H   0  0  0  0  0  0  0  0  0  0  0  0
   -0.3971    1.3008    1.0689 C   0  0  0  0  0  0  0  0  0  0  0  0
   -1.3643    1.9819    0.7311 O   0  0  0  0  0  0  0  0  0  0  0  0
    0.5522    1.7647    1.8915 N   0  0  0  0  0  0  0  0  0  0  0  0
    1.3093    1.1450    2.1332 H   0  0  0  0  0  0  0  0  0  0  0  0
    0.5577    3.1119    2.4582 C   0  0  0  0  0  0  0  0  0  0  0  0
   -0.3986    3.3098    2.9475 H   0  0  0  0  0  0  0  0  0  0  0  0
    1.3619    3.2123    3.1886 H   0  0  0  0  0  0  0  0  0  0  0  0
    0.6974    3.8450    1.6614 H   0  0  0  0  0  0  0  0  0  0  0  0
  5  6  2  0  0  0  0
  5  7  1  0  0  0  0
  2  3  1  0  0  0  0
  2  4  1  0  0  0  0
  2  5  1  0  0  0  0
  1  2  1  0  0  0  0
 24 25  2  0  0  0  0
 24 26  1  0  0  0  0
 20 21  1  0  0  0  0
 20 22  1  0  0  0  0
 20 23  1  0  0  0  0
 17 18  1  0  0  0  0
 17 19  1  0  0  0  0
 17 20  1  0  0  0  0
 13 14  1  0  0  0  0
 13 15  1  0  0  0  0
 13 16  1  0  0  0  0
 11 12  1  0  0  0  0
 11 13  1  0  0  0  0
 11 17  1  0  0  0  0
  9 10  1  0  0  0  0
  9 11  1  0  0  0  0
  9 24  1  0  0  0  0
  7  8  1  0  0  0  0
  7  9  1  0  0  0  0
 28 29  1  0  0  0  0
 28 30  1  0  0  0  0
 28 31  1  0  0  0  0
 26 27  1  0  0  0  0
 26 28  1  0  0  0  0
M  END
$$$$
default_name
  -OEChem-02102213163D

 31 30  0     1  0  0  0  0  0999 V2000
   -3.0760   -3.6390    1.5496 H   0  0  0  0  0  0  0  0  0  0  0  0
   -3.0940   -2.6290    1.1426 C   0  0  0  0  0  0  0  0  0  0  0  0
   -3.7160   -1.9930    1.7706 H   0  0  0  0  0  0  0  0  0  0  0  0
   -3.4880   -2.6500    0.1286 H   0  0  0  0  0  0  0  0  0  0  0  0
   -1.6860   -2.0850    1.1196 C   0  0  0  0  0  0  0  0  0  0  0  0
   -0.7540   -2.7700    1.5226 O   0  0  0  0  0  0  0  0  0  0  0  0
   -1.5320   -0.8490    0.6496 N   0  0  0  0  0  0  0  0  0  0  0  0
   -2.3500   -0.3360    0.3566 H   0  0  0  0  0  0  0  0  0  0  0  0
   -0.2470   -0.1410    0.5576 C   0  0  1  0  0  0  0  0  0  0  0  0
    0.4572   -0.6505    1.2162 H   0  0  0  0  0  0  0  0  0  0  0  0
    0.3091   -0.2220   -0.8868 C   0  0  1  0  0  0  0  0  0  0  0  0
   -0.4951   -0.6011   -1.5203 H   0  0  0  0  0  0  0  0  0  0  0  0
    0.7273    1.1560   -1.4345 C   0  0  0  0  0  0  0  0  0  0  0  0
    1.5824    1.5463   -0.8798 H   0  0  0  0  0  0  0  0  0  0  0  0
    0.9914    1.0800   -2.4881 H   0  0  0  0  0  0  0  0  0  0  0  0
   -0.0995    1.8620   -1.3488 H   0  0  0  0  0  0  0  0  0  0  0  0
    1.4780   -1.2288   -0.9749 C   0  0  0  0  0  0  0  0  0  0  0  0
    1.7042   -1.4460   -2.0197 H   0  0  0  0  0  0  0  0  0  0  0  0
    2.3614   -0.7812   -0.5196 H   0  0  0  0  0  0  0  0  0  0  0  0
    1.2086   -2.5526   -0.2467 C   0  0  0  0  0  0  0  0  0  0  0  0
    0.3978   -3.0970   -0.7305 H   0  0  0  0  0  0  0  0  0  0  0  0
    2.1072   -3.1693   -0.2779 H   0  0  0  0  0  0  0  0  0  0  0  0
    0.9476   -2.3593    0.7943 H   0  0  0  0  0  0  0  0  0  0  0  0
   -0.3971    1.3008    1.0689 C   0  0  0  0  0  0  0  0  0  0  0  0
   -1.3643    1.9819    0.7311 O   0  0  0  0  0  0  0  0  0  0  0  0
    0.5522    1.7647    1.8915 N   0  0  0  0  0  0  0  0  0  0  0  0
    1.3093    1.1450    2.1332 H   0  0  0  0  0  0  0  0  0  0  0  0
    0.5577    3.1119    2.4582 C   0  0  0  0  0  0  0  0  0  0  0  0
   -0.3986    3.3098    2.9475 H   0  0  0  0  0  0  0  0  0  0  0  0
    1.3619    3.2123    3.1886 H   0  0  0  0  0  0  0  0  0  0  0  0
    0.6974    3.8450    1.6614 H   0  0  0  0  0  0  0  0  0  0  0  0
  5  6  2  0  0  0  0
  5  7  1  0  0  0  0
  2  3  1  0  0  0  0
  2  4  1  0  0  0  0
  2  5  1  0  0  0  0
  1  2  1  0  0  0  0
 24 25  2  0  0  0  0
 24 26  1  0  0  0  0
 20 21  1  0  0  0  0
 20 22  1  0  0  0  0
 20 23  1  0  0  0  0
 17 18  1  0  0  0  0
 17 19  1  0  0  0  0
 17 20  1  0  0  0  0
 13 14  1  0  0  0  0
 13 15  1  0  0  0  0
 13 16  1  0  0  0  0
 11 12  1  0  0  0  0
 11 13  1  0  0  0  0
 11 17  1  0  0  0  0
  9 10  1  0  0  0  0
  9 11  1  0  0  0  0
  9 24  1  0  0  0  0
  7  8  1  0  0  0  0
  7  9  1  0  0  0  0
 28 29  1  0  0  0  0
 28 30  1  0  0  0  0
 28 31  1  0  0  0  0
 26 27  1  0  0  0  0
 26 28  1  0  0  0  0
M  END
$$$$
default_name
  -OEChem-02102213163D

 31 30  0     1  0  0  0  0  0999 V2000
   -3.0760   -3.6390    1.5496 H   0  0  0  0  0  0  0  0  0  0  0  0
   -3.0940   -2.6290    1.1426 C   0  0  0  0  0  0  0  0  0  0  0  0
   -3.7160   -1.9930    1.7706 H   0  0  0  0  0  0  0  0  0  0  0  0
   -3.4880   -2.6500    0.1286 H   0  0  0  0  0  0  0  0  0  0  0  0
   -1.6860   -2.0850    1.1196 C   0  0  0  0  0  0  0  0  0  0  0  0
   -0.7540   -2.7700    1.5226 O   0  0  0  0  0  0  0  0  0  0  0  0
   -1.5320   -0.8490    0.6496 N   0  0  0  0  0  0  0  0  0  0  0  0
   -2.3500   -0.3360    0.3566 H   0  0  0  0  0  0  0  0  0  0  0  0
   -0.2470   -0.1410    0.5576 C   0  0  1  0  0  0  0  0  0  0  0  0
    0.4572   -0.6505    1.2162 H   0  0  0  0  0  0  0  0  0  0  0  0
    0.3091   -0.2220   -0.8868 C   0  0  1  0  0  0  0  0  0  0  0  0
   -0.4951   -0.6011   -1.5203 H   0  0  0  0  0  0  0  0  0  0  0  0
    0.7273    1.1560   -1.4345 C   0  0  0  0  0  0  0  0  0  0  0  0
    1.5824    1.5463   -0.8798 H   0  0  0  0  0  0  0  0  0  0  0  0
    0.9914    1.0800   -2.4881 H   0  0  0  0  0  0  0  0  0  0  0  0
   -0.0995    1.8620   -1.3488 H   0  0  0  0  0  0  0  0  0  0  0  0
    1.4780   -1.2288   -0.9749 C   0  0  0  0  0  0  0  0  0  0  0  0
    1.8791   -1.2456   -1.9891 H   0  0  0  0  0  0  0  0  0  0  0  0
    2.2701   -0.9064   -0.2992 H   0  0  0  0  0  0  0  0  0  0  0  0
    1.0914   -2.6598   -0.5773 C   0  0  0  0  0  0  0  0  0  0  0  0
    0.3758   -3.0738   -1.2875 H   0  0  0  0  0  0  0  0  0  0  0  0
    1.9834   -3.2867   -0.5787 H   0  0  0  0  0  0  0  0  0  0  0  0
    0.6566   -2.6646    0.4228 H   0  0  0  0  0  0  0  0  0  0  0  0
   -0.3971    1.3008    1.0689 C   0  0  0  0  0  0  0  0  0  0  0  0
   -1.3643    1.9819    0.7311 O   0  0  0  0  0  0  0  0  0  0  0  0
    0.5522    1.7647    1.8915 N   0  0  0  0  0  0  0  0  0  0  0  0
    1.3093    1.1450    2.1332 H   0  0  0  0  0  0  0  0  0  0  0  0
    0.5577    3.1119    2.4582 C   0  0  0  0  0  0  0  0  0  0  0  0
   -0.3986    3.3098    2.9475 H   0  0  0  0  0  0  0  0  0  0  0  0
    1.3619    3.2123    3.1886 H   0  0  0  0  0  0  0  0  0  0  0  0
    0.6974    3.8450    1.6614 H   0  0  0  0  0  0  0  0  0  0  0  0
  5  6  2  0  0  0  0
  5  7  1  0  0  0  0
  2  3  1  0  0  0  0
  2  4  1  0  0  0  0
  2  5  1  0  0  0  0
  1  2  1  0  0  0  0
 24 25  2  0  0  0  0
 24 26  1  0  0  0  0
 20 21  1  0  0  0  0
 20 22  1  0  0  0  0
 20 23  1  0  0  0  0
 17 18  1  0  0  0  0
 17 19  1  0  0  0  0
 17 20  1  0  0  0  0
 13 14  1  0  0  0  0
 13 15  1  0  0  0  0
 13 16  1  0  0  0  0
 11 12  1  0  0  0  0
 11 13  1  0  0  0  0
 11 17  1  0  0  0  0
  9 10  1  0  0  0  0
  9 11  1  0  0  0  0
  9 24  1  0  0  0  0
  7  8  1  0  0  0  0
  7  9  1  0  0  0  0
 28 29  1  0  0  0  0
 28 30  1  0  0  0  0
 28 31  1  0  0  0  0
 26 27  1  0  0  0  0
 26 28  1  0  0  0  0
M  END
$$$$
default_name
  -OEChem-02102213163D

 31 30  0     1  0  0  0  0  0999 V2000
   -3.0760   -3.6390    1.5496 H   0  0  0  0  0  0  0  0  0  0  0  0
   -3.0940   -2.6290    1.1426 C   0  0  0  0  0  0  0  0  0  0  0  0
   -3.7160   -1.9930    1.7706 H   0  0  0  0  0  0  0  0  0  0  0  0
   -3.4880   -2.6500    0.1286 H   0  0  0  0  0  0  0  0  0  0  0  0
   -1.6860   -2.0850    1.1196 C   0  0  0  0  0  0  0  0  0  0  0  0
   -0.7540   -2.7700    1.5226 O   0  0  0  0  0  0  0  0  0  0  0  0
   -1.5320   -0.8490    0.6496 N   0  0  0  0  0  0  0  0  0  0  0  0
   -2.3500   -0.3360    0.3566 H   0  0  0  0  0  0  0  0  0  0  0  0
   -0.2470   -0.1410    0.5576 C   0  0  1  0  0  0  0  0  0  0  0  0
    0.4572   -0.6505    1.2162 H   0  0  0  0  0  0  0  0  0  0  0  0
    0.3091   -0.2220   -0.8868 C   0  0  1  0  0  0  0  0  0  0  0  0
   -0.4951   -0.6011   -1.5203 H   0  0  0  0  0  0  0  0  0  0  0  0
    0.7273    1.1560   -1.4345 C   0  0  0  0  0  0  0  0  0  0  0  0
    1.5824    1.5463   -0.8798 H   0  0  0  0  0  0  0  0  0  0  0  0
    0.9914    1.0800   -2.4881 H   0  0  0  0  0  0  0  0  0  0  0  0
   -0.0995    1.8620   -1.3488 H   0  0  0  0  0  0  0  0  0  0  0  0
    1.4780   -1.2288   -0.9749 C   0  0  0  0  0  0  0  0  0  0  0  0
    2.0458   -1.0606   -1.8910 H   0  0  0  0  0  0  0  0  0  0  0  0
    2.1429   -1.0692   -0.1262 H   0  0  0  0  0  0  0  0  0  0  0  0
    1.0323   -2.6969   -0.9374 C   0  0  0  0  0  0  0  0  0  0  0  0
    0.4489   -2.9420   -1.8247 H   0  0  0  0  0  0  0  0  0  0  0  0
    1.9128   -3.3393   -0.9132 H   0  0  0  0  0  0  0  0  0  0  0  0
    0.4338   -2.8824   -0.0449 H   0  0  0  0  0  0  0  0  0  0  0  0
   -0.3971    1.3008    1.0689 C   0  0  0  0  0  0  0  0  0  0  0  0
   -1.3643    1.9819    0.7311 O   0  0  0  0  0  0  0  0  0  0  0  0
    0.5522    1.7647    1.8915 N   0  0  0  0  0  0  0  0  0  0  0  0
    1.3093    1.1450    2.1332 H   0  0  0  0  0  0  0  0  0  0  0  0
    0.5577    3.1119    2.4582 C   0  0  0  0  0  0  0  0  0  0  0  0
   -0.3986    3.3098    2.9475 H   0  0  0  0  0  0  0  0  0  0  0  0
    1.3619    3.2123    3.1886 H   0  0  0  0  0  0  0  0  0  0  0  0
    0.6974    3.8450    1.6614 H   0  0  0  0  0  0  0  0  0  0  0  0
  5  6  2  0  0  0  0
  5  7  1  0  0  0  0
  2  3  1  0  0  0  0
  2  4  1  0  0  0  0
  2  5  1  0  0  0  0
  1  2  1  0  0  0  0
 24 25  2  0  0  0  0
 24 26  1  0  0  0  0
 20 21  1  0  0  0  0
 20 22  1  0  0  0  0
 20 23  1  0  0  0  0
 17 18  1  0  0  0  0
 17 19  1  0  0  0  0
 17 20  1  0  0  0  0
 13 14  1  0  0  0  0
 13 15  1  0  0  0  0
 13 16  1  0  0  0  0
 11 12  1  0  0  0  0
 11 13  1  0  0  0  0
 11 17  1  0  0  0  0
  9 10  1  0  0  0  0
  9 11  1  0  0  0  0
  9 24  1  0  0  0  0
  7  8  1  0  0  0  0
  7  9  1  0  0  0  0
 28 29  1  0  0  0  0
 28 30  1  0  0  0  0
 28 31  1  0  0  0  0
 26 27  1  0  0  0  0
 26 28  1  0  0  0  0
M  END
$$$$
default_name
  -OEChem-02102213163D

 31 30  0     1  0  0  0  0  0999 V2000
   -3.0760   -3.6390    1.5496 H   0  0  0  0  0  0  0  0  0  0  0  0
   -3.0940   -2.6290    1.1426 C   0  0  0  0  0  0  0  0  0  0  0  0
   -3.7160   -1.9930    1.7706 H   0  0  0  0  0  0  0  0  0  0  0  0
   -3.4880   -2.6500    0.1286 H   0  0  0  0  0  0  0  0  0  0  0  0
   -1.6860   -2.0850    1.1196 C   0  0  0  0  0  0  0  0  0  0  0  0
   -0.7540   -2.7700    1.5226 O   0  0  0  0  0  0  0  0  0  0  0  0
   -1.5320   -0.8490    0.6496 N   0  0  0  0  0  0  0  0  0  0  0  0
   -2.3500   -0.3360    0.3566 H   0  0  0  0  0  0  0  0  0  0  0  0
   -0.2470   -0.1410    0.5576 C   0  0  1  0  0  0  0  0  0  0  0  0
    0.4572   -0.6505    1.2162 H   0  0  0  0  0  0  0  0  0  0  0  0
    0.3091   -0.2220   -0.8868 C   0  0  1  0  0  0  0  0  0  0  0  0
   -0.4951   -0.6011   -1.5203 H   0  0  0  0  0  0  0  0  0  0  0  0
    0.7273    1.1560   -1.4345 C   0  0  0  0  0  0  0  0  0  0  0  0
    1.5824    1.5463   -0.8798 H   0  0  0  0  0  0  0  0  0  0  0  0
    0.9914    1.0800   -2.4881 H   0  0  0  0  0  0  0  0  0  0  0  0
   -0.0995    1.8620   -1.3488 H   0  0  0  0  0  0  0  0  0  0  0  0
    1.4780   -1.2288   -0.9749 C   0  0  0  0  0  0  0  0  0  0  0  0
    2.1930   -0.9037   -1.7318 H   0  0  0  0  0  0  0  0  0  0  0  0
    1.9886   -1.2584   -0.0124 H   0  0  0  0  0  0  0  0  0  0  0  0
    1.0355   -2.6613   -1.3025 C   0  0  0  0  0  0  0  0  0  0  0  0
    0.6119   -2.7107   -2.3054 H   0  0  0  0  0  0  0  0  0  0  0  0
    1.9003   -3.3237   -1.2584 H   0  0  0  0  0  0  0  0  0  0  0  0
    0.2942   -2.9979   -0.5768 H   0  0  0  0  0  0  0  0  0  0  0  0
   -0.3971    1.3008    1.0689 C   0  0  0  0  0  0  0  0  0  0  0  0
   -1.3643    1.9819    0.7311 O   0  0  0  0  0  0  0  0  0  0  0  0
    0.5522    1.7647    1.8915 N   0  0  0  0  0  0  0  0  0  0  0  0
    1.3093    1.1450    2.1332 H   0  0  0  0  0  0  0  0  0  0  0  0
    0.5577    3.1119    2.4582 C   0  0  0  0  0  0  0  0  0  0  0  0
   -0.3986    3.3098    2.9475 H   0  0  0  0  0  0  0  0  0  0  0  0
    1.3619    3.2123    3.1886 H   0  0  0  0  0  0  0  0  0  0  0  0
    0.6974    3.8450    1.6614 H   0  0  0  0  0  0  0  0  0  0  0  0
  5  6  2  0  0  0  0
  5  7  1  0  0  0  0
  2  3  1  0  0  0  0
  2  4  1  0  0  0  0
  2  5  1  0  0  0  0
  1  2  1  0  0  0  0
 24 25  2  0  0  0  0
 24 26  1  0  0  0  0
 20 21  1  0  0  0  0
 20 22  1  0  0  0  0
 20 23  1  0  0  0  0
 17 18  1  0  0  0  0
 17 19  1  0  0  0  0
 17 20  1  0  0  0  0
 13 14  1  0  0  0  0
 13 15  1  0  0  0  0
 13 16  1  0  0  0  0
 11 12  1  0  0  0  0
 11 13  1  0  0  0  0
 11 17  1  0  0  0  0
  9 10  1  0  0  0  0
  9 11  1  0  0  0  0
  9 24  1  0  0  0  0
  7  8  1  0  0  0  0
  7  9  1  0  0  0  0
 28 29  1  0  0  0  0
 28 30  1  0  0  0  0
 28 31  1  0  0  0  0
 26 27  1  0  0  0  0
 26 28  1  0  0  0  0
M  END
$$$$
default_name
  -OEChem-02102213163D

 31 30  0     1  0  0  0  0  0999 V2000
   -3.0760   -3.6390    1.5496 H   0  0  0  0  0  0  0  0  0  0  0  0
   -3.0940   -2.6290    1.1426 C   0  0  0  0  0  0  0  0  0  0  0  0
   -3.7160   -1.9930    1.7706 H   0  0  0  0  0  0  0  0  0  0  0  0
   -3.4880   -2.6500    0.1286 H   0  0  0  0  0  0  0  0  0  0  0  0
   -1.6860   -2.0850    1.1196 C   0  0  0  0  0  0  0  0  0  0  0  0
   -0.7540   -2.7700    1.5226 O   0  0  0  0  0  0  0  0  0  0  0  0
   -1.5320   -0.8490    0.6496 N   0  0  0  0  0  0  0  0  0  0  0  0
   -2.3500   -0.3360    0.3566 H   0  0  0  0  0  0  0  0  0  0  0  0
   -0.2470   -0.1410    0.5576 C   0  0  1  0  0  0  0  0  0  0  0  0
    0.4572   -0.6505    1.2162 H   0  0  0  0  0  0  0  0  0  0  0  0
    0.3091   -0.2220   -0.8868 C   0  0  1  0  0  0  0  0  0  0  0  0
   -0.4951   -0.6011   -1.5203 H   0  0  0  0  0  0  0  0  0  0  0  0
    0.7273    1.1560   -1.4345 C   0  0  0  0  0  0  0  0  0  0  0  0
    1.5824    1.5463   -0.8798 H   0  0  0  0  0  0  0  0  0  0  0  0
    0.9914    1.0800   -2.4881 H   0  0  0  0  0  0  0  0  0  0  0  0
   -0.0995    1.8620   -1.3488 H   0  0  0  0  0  0  0  0  0  0  0  0
    1.4780   -1.2288   -0.9749 C   0  0  0  0  0  0  0  0  0  0  0  0
    2.3107   -0.7854   -1.5225 H   0  0  0  0  0  0  0  0  0  0  0  0
    1.8174   -1.4611    0.0345 H   0  0  0  0  0  0  0  0  0  0  0  0
    1.1006   -2.5556   -1.6476 C   0  0  0  0  0  0  0  0  0  0  0  0
    0.8539   -2.3955   -2.6970 H   0  0  0  0  0  0  0  0  0  0  0  0
    1.9467   -3.2408   -1.5910 H   0  0  0  0  0  0  0  0  0  0  0  0
    0.2474   -3.0033   -1.1369 H   0  0  0  0  0  0  0  0  0  0  0  0
   -0.3971    1.3008    1.0689 C   0  0  0  0  0  0  0  0  0  0  0  0
   -1.3643    1.9819    0.7311 O   0  0  0  0  0  0  0  0  0  0  0  0
    0.5522    1.7647    1.8915 N   0  0  0  0  0  0  0  0  0  0  0  0
    1.3093    1.1450    2.1332 H   0  0  0  0  0  0  0  0  0  0  0  0
    0.5577    3.1119    2.4582 C   0  0  0  0  0  0  0  0  0  0  0  0
   -0.3986    3.3098    2.9475 H   0  0  0  0  0  0  0  0  0  0  0  0
    1.3619    3.2123    3.1886 H   0  0  0  0  0  0  0  0  0  0  0  0
    0.6974    3.8450    1.6614 H   0  0  0  0  0  0  0  0  0  0  0  0
  5  6  2  0  0  0  0
  5  7  1  0  0  0  0
  2  3  1  0  0  0  0
  2  4  1  0  0  0  0
  2  5  1  0  0  0  0
  1  2  1  0  0  0  0
 24 25  2  0  0  0  0
 24 26  1  0  0  0  0
 20 21  1  0  0  0  0
 20 22  1  0  0  0  0
 20 23  1  0  0  0  0
 17 18  1  0  0  0  0
 17 19  1  0  0  0  0
 17 20  1  0  0  0  0
 13 14  1  0  0  0  0
 13 15  1  0  0  0  0
 13 16  1  0  0  0  0
 11 12  1  0  0  0  0
 11 13  1  0  0  0  0
 11 17  1  0  0  0  0
  9 10  1  0  0  0  0
  9 11  1  0  0  0  0
  9 24  1  0  0  0  0
  7  8  1  0  0  0  0
  7  9  1  0  0  0  0
 28 29  1  0  0  0  0
 28 30  1  0  0  0  0
 28 31  1  0  0  0  0
 26 27  1  0  0  0  0
 26 28  1  0  0  0  0
M  END
$$$$
default_name
  -OEChem-02102213163D

 31 30  0     1  0  0  0  0  0999 V2000
   -3.0760   -3.6390    1.5496 H   0  0  0  0  0  0  0  0  0  0  0  0
   -3.0940   -2.6290    1.1426 C   0  0  0  0  0  0  0  0  0  0  0  0
   -3.7160   -1.9930    1.7706 H   0  0  0  0  0  0  0  0  0  0  0  0
   -3.4880   -2.6500    0.1286 H   0  0  0  0  0  0  0  0  0  0  0  0
   -1.6860   -2.0850    1.1196 C   0  0  0  0  0  0  0  0  0  0  0  0
   -0.7540   -2.7700    1.5226 O   0  0  0  0  0  0  0  0  0  0  0  0
   -1.5320   -0.8490    0.6496 N   0  0  0  0  0  0  0  0  0  0  0  0
   -2.3500   -0.3360    0.3566 H   0  0  0  0  0  0  0  0  0  0  0  0
   -0.2470   -0.1410    0.5576 C   0  0  1  0  0  0  0  0  0  0  0  0
    0.4572   -0.6505    1.2162 H   0  0  0  0  0  0  0  0  0  0  0  0
    0.3091   -0.2220   -0.8868 C   0  0  1  0  0  0  0  0  0  0  0  0
   -0.4951   -0.6011   -1.5203 H   0  0  0  0  0  0  0  0  0  0  0  0
    0.7273    1.1560   -1.4345 C   0  0  0  0  0  0  0  0  0  0  0  0
    1.5824    1.5463   -0.8798 H   0  0  0  0  0  0  0  0  0  0  0  0
    0.9914    1.0800   -2.4881 H   0  0  0  0  0  0  0  0  0  0  0  0
   -0.0995    1.8620   -1.3488 H   0  0  0  0  0  0  0  0  0  0  0  0
    1.4780   -1.2288   -0.9749 C   0  0  0  0  0  0  0  0  0  0  0  0
    2.3908   -0.7138   -1.2773 H   0  0  0  0  0  0  0  0  0  0  0  0
    1.6413   -1.6636    0.0112 H   0  0  0  0  0  0  0  0  0  0  0  0
    1.2232   -2.3868   -1.9493 C   0  0  0  0  0  0  0  0  0  0  0  0
    1.1584   -2.0180   -2.9728 H   0  0  0  0  0  0  0  0  0  0  0  0
    2.0488   -3.0963   -1.8881 H   0  0  0  0  0  0  0  0  0  0  0  0
    0.2965   -2.8982   -1.6867 H   0  0  0  0  0  0  0  0  0  0  0  0
   -0.3971    1.3008    1.0689 C   0  0  0  0  0  0  0  0  0  0  0  0
   -1.3643    1.9819    0.7311 O   0  0  0  0  0  0  0  0  0  0  0  0
    0.5522    1.7647    1.8915 N   0  0  0  0  0  0  0  0  0  0  0  0
    1.3093    1.1450    2.1332 H   0  0  0  0  0  0  0  0  0  0  0  0
    0.5577    3.1119    2.4582 C   0  0  0  0  0  0  0  0  0  0  0  0
   -0.3986    3.3098    2.9475 H   0  0  0  0  0  0  0  0  0  0  0  0
    1.3619    3.2123    3.1886 H   0  0  0  0  0  0  0  0  0  0  0  0
    0.6974    3.8450    1.6614 H   0  0  0  0  0  0  0  0  0  0  0  0
  5  6  2  0  0  0  0
  5  7  1  0  0  0  0
  2  3  1  0  0  0  0
  2  4  1  0  0  0  0
  2  5  1  0  0  0  0
  1  2  1  0  0  0  0
 24 25  2  0  0  0  0
 24 26  1  0  0  0  0
 20 21  1  0  0  0  0
 20 22  1  0  0  0  0
 20 23  1  0  0  0  0
 17 18  1  0  0  0  0
 17 19  1  0  0  0  0
 17 20  1  0  0  0  0
 13 14  1  0  0  0  0
 13 15  1  0  0  0  0
 13 16  1  0  0  0  0
 11 12  1  0  0  0  0
 11 13  1  0  0  0  0
 11 17  1  0  0  0  0
  9 10  1  0  0  0  0
  9 11  1  0  0  0  0
  9 24  1  0  0  0  0
  7  8  1  0  0  0  0
  7  9  1  0  0  0  0
 28 29  1  0  0  0  0
 28 30  1  0  0  0  0
 28 31  1  0  0  0  0
 26 27  1  0  0  0  0
 26 28  1  0  0  0  0
M  END
$$$$
default_name
  -OEChem-02102213163D

 31 30  0     1  0  0  0  0  0999 V2000
   -3.0760   -3.6390    1.5496 H   0  0  0  0  0  0  0  0  0  0  0  0
   -3.0940   -2.6290    1.1426 C   0  0  0  0  0  0  0  0  0  0  0  0
   -3.7160   -1.9930    1.7706 H   0  0  0  0  0  0  0  0  0  0  0  0
   -3.4880   -2.6500    0.1286 H   0  0  0  0  0  0  0  0  0  0  0  0
   -1.6860   -2.0850    1.1196 C   0  0  0  0  0  0  0  0  0  0  0  0
   -0.7540   -2.7700    1.5226 O   0  0  0  0  0  0  0  0  0  0  0  0
   -1.5320   -0.8490    0.6496 N   0  0  0  0  0  0  0  0  0  0  0  0
   -2.3500   -0.3360    0.3566 H   0  0  0  0  0  0  0  0  0  0  0  0
   -0.2470   -0.1410    0.5576 C   0  0  1  0  0  0  0  0  0  0  0  0
    0.4572   -0.6505    1.2162 H   0  0  0  0  0  0  0  0  0  0  0  0
    0.3091   -0.2220   -0.8868 C   0  0  1  0  0  0  0  0  0  0  0  0
   -0.4951   -0.6011   -1.5203 H   0  0  0  0  0  0  0  0  0  0  0  0
    0.7273    1.1560   -1.4345 C   0  0  0  0  0  0  0  0  0  0  0  0
    1.5824    1.5463   -0.8798 H   0  0  0  0  0  0  0  0  0  0  0  0
    0.9914    1.0800   -2.4881 H   0  0  0  0  0  0  0  0  0  0  0  0
   -0.0995    1.8620   -1.3488 H   0  0  0  0  0  0  0  0  0  0  0  0
    1.4780   -1.2288   -0.9749 C   0  0  0  0  0  0  0  0  0  0  0  0
    2.4279   -0.6939   -1.0130 H   0  0  0  0  0  0  0  0  0  0  0  0
    1.4720   -1.8520   -0.0807 H   0  0  0  0  0  0  0  0  0  0  0  0
    1.3951   -2.1665   -2.1869 C   0  0  0  0  0  0  0  0  0  0  0  0
    1.5045   -1.6038   -3.1138 H   0  0  0  0  0  0  0  0  0  0  0  0
    2.1996   -2.9000   -2.1297 H   0  0  0  0  0  0  0  0  0  0  0  0
    0.4382   -2.6897   -2.1890 H   0  0  0  0  0  0  0  0  0  0  0  0
   -0.3971    1.3008    1.0689 C   0  0  0  0  0  0  0  0  0  0  0  0
   -1.3643    1.9819    0.7311 O   0  0  0  0  0  0  0  0  0  0  0  0
    0.5522    1.7647    1.8915 N   0  0  0  0  0  0  0  0  0  0  0  0
    1.3093    1.1450    2.1332 H   0  0  0  0  0  0  0  0  0  0  0  0
    0.5577    3.1119    2.4582 C   0  0  0  0  0  0  0  0  0  0  0  0
   -0.3986    3.3098    2.9475 H   0  0  0  0  0  0  0  0  0  0  0  0
    1.3619    3.2123    3.1886 H   0  0  0  0  0  0  0  0  0  0  0  0
    0.6974    3.8450    1.6614 H   0  0  0  0  0  0  0  0  0  0  0  0
  5  6  2  0  0  0  0
  5  7  1  0  0  0  0
  2  3  1  0  0  0  0
  2  4  1  0  0  0  0
  2  5  1  0  0  0  0
  1  2  1  0  0  0  0
 24 25  2  0  0  0  0
 24 26  1  0  0  0  0
 20 21  1  0  0  0  0
 20 22  1  0  0  0  0
 20 23  1  0  0  0  0
 17 18  1  0  0  0  0
 17 19  1  0  0  0  0
 17 20  1  0  0  0  0
 13 14  1  0  0  0  0
 13 15  1  0  0  0  0
 13 16  1  0  0  0  0
 11 12  1  0  0  0  0
 11 13  1  0  0  0  0
 11 17  1  0  0  0  0
  9 10  1  0  0  0  0
  9 11  1  0  0  0  0
  9 24  1  0  0  0  0
  7  8  1  0  0  0  0
  7  9  1  0  0  0  0
 28 29  1  0  0  0  0
 28 30  1  0  0  0  0
 28 31  1  0  0  0  0
 26 27  1  0  0  0  0
 26 28  1  0  0  0  0
M  END
$$$$
default_name
  -OEChem-02102213163D

 31 30  0     1  0  0  0  0  0999 V2000
   -3.0760   -3.6390    1.5496 H   0  0  0  0  0  0  0  0  0  0  0  0
   -3.0940   -2.6290    1.1426 C   0  0  0  0  0  0  0  0  0  0  0  0
   -3.7160   -1.9930    1.7706 H   0  0  0  0  0  0  0  0  0  0  0  0
   -3.4880   -2.6500    0.1286 H   0  0  0  0  0  0  0  0  0  0  0  0
   -1.6860   -2.0850    1.1196 C   0  0  0  0  0  0  0  0  0  0  0  0
   -0.7540   -2.7700    1.5226 O   0  0  0  0  0  0  0  0  0  0  0  0
   -1.5320   -0.8490    0.6496 N   0  0  0  0  0  0  0  0  0  0  0  0
   -2.3500   -0.3360    0.3566 H   0  0  0  0  0  0  0  0  0  0  0  0
   -0.2470   -0.1410    0.5576 C   0  0  1  0  0  0  0  0  0  0  0  0
    0.4572   -0.6505    1.2162 H   0  0  0  0  0  0  0  0  0  0  0  0
    0.3091   -0.2220   -0.8868 C   0  0  1  0  0  0  0  0  0  0  0  0
   -0.4951   -0.6011   -1.5203 H   0  0  0  0  0  0  0  0  0  0  0  0
    0.7273    1.1560   -1.4345 C   0  0  0  0  0  0  0  0  0  0  0  0
    1.5824    1.5463   -0.8798 H   0  0  0  0  0  0  0  0  0  0  0  0
    0.9914    1.0800   -2.4881 H   0  0  0  0  0  0  0  0  0  0  0  0
   -0.0995    1.8620   -1.3488 H   0  0  0  0  0  0  0  0  0  0  0  0
    1.4780   -1.2288   -0.9749 C   0  0  0  0  0  0  0  0  0  0  0  0
    2.4194   -0.7269   -0.7475 H   0  0  0  0  0  0  0  0  0  0  0  0
    1.3213   -2.0136   -0.2349 H   0  0  0  0  0  0  0  0  0  0  0  0
    1.6044   -1.9098   -2.3444 C   0  0  0  0  0  0  0  0  0  0  0  0
    1.8687   -1.1812   -3.1106 H   0  0  0  0  0  0  0  0  0  0  0  0
    2.3890   -2.6654   -2.2991 H   0  0  0  0  0  0  0  0  0  0  0  0
    0.6629   -2.3921   -2.6095 H   0  0  0  0  0  0  0  0  0  0  0  0
   -0.3971    1.3008    1.0689 C   0  0  0  0  0  0  0  0  0  0  0  0
   -1.3643    1.9819    0.7311 O   0  0  0  0  0  0  0  0  0  0  0  0
    0.5522    1.7647    1.8915 N   0  0  0  0  0  0  0  0  0  0  0  0
    1.3093    1.1450    2.1332 H   0  0  0  0  0  0  0  0  0  0  0  0
    0.5577    3.1119    2.4582 C   0  0  0  0  0  0  0  0  0  0  0  0
   -0.3986    3.3098    2.9475 H   0  0  0  0  0  0  0  0  0  0  0  0
    1.3619    3.2123    3.1886 H   0  0  0  0  0  0  0  0  0  0  0  0
    0.6974    3.8450    1.6614 H   0  0  0  0  0  0  0  0  0  0  0  0
  5  6  2  0  0  0  0
  5  7  1  0  0  0  0
  2  3  1  0  0  0  0
  2  4  1  0  0  0  0
  2  5  1  0  0  0  0
  1  2  1  0  0  0  0
 24 25  2  0  0  0  0
 24 26  1  0  0  0  0
 20 21  1  0  0  0  0
 20 22  1  0  0  0  0
 20 23  1  0  0  0  0
 17 18  1  0  0  0  0
 17 19  1  0  0  0  0
 17 20  1  0  0  0  0
 13 14  1  0  0  0  0
 13 15  1  0  0  0  0
 13 16  1  0  0  0  0
 11 12  1  0  0  0  0
 11 13  1  0  0  0  0
 11 17  1  0  0  0  0
  9 10  1  0  0  0  0
  9 11  1  0  0  0  0
  9 24  1  0  0  0  0
  7  8  1  0  0  0  0
  7  9  1  0  0  0  0
 28 29  1  0  0  0  0
 28 30  1  0  0  0  0
 28 31  1  0  0  0  0
 26 27  1  0  0  0  0
 26 28  1  0  0  0  0
M  END
$$$$
default_name
  -OEChem-02102213163D

 31 30  0     1  0  0  0  0  0999 V2000
   -3.0760   -3.6390    1.5496 H   0  0  0  0  0  0  0  0  0  0  0  0
   -3.0940   -2.6290    1.1426 C   0  0  0  0  0  0  0  0  0  0  0  0
   -3.7160   -1.9930    1.7706 H   0  0  0  0  0  0  0  0  0  0  0  0
   -3.4880   -2.6500    0.1286 H   0  0  0  0  0  0  0  0  0  0  0  0
   -1.6860   -2.0850    1.1196 C   0  0  0  0  0  0  0  0  0  0  0  0
   -0.7540   -2.7700    1.5226 O   0  0  0  0  0  0  0  0  0  0  0  0
   -1.5320   -0.8490    0.6496 N   0  0  0  0  0  0  0  0  0  0  0  0
   -2.3500   -0.3360    0.3566 H   0  0  0  0  0  0  0  0  0  0  0  0
   -0.2470   -0.1410    0.5576 C   0  0  1  0  0  0  0  0  0  0  0  0
    0.4572   -0.6505    1.2162 H   0  0  0  0  0  0  0  0  0  0  0  0
    0.3091   -0.2220   -0.8868 C   0  0  1  0  0  0  0  0  0  0  0  0
   -0.4951   -0.6011   -1.5203 H   0  0  0  0  0  0  0  0  0  0  0  0
    0.7273    1.1560   -1.4345 C   0  0  0  0  0  0  0  0  0  0  0  0
    1.5824    1.5463   -0.8798 H   0  0  0  0  0  0  0  0  0  0  0  0
    0.9914    1.0800   -2.4881 H   0  0  0  0  0  0  0  0  0  0  0  0
   -0.0995    1.8620   -1.3488 H   0  0  0  0  0  0  0  0  0  0  0  0
    1.4780   -1.2288   -0.9749 C   0  0  0  0  0  0  0  0  0  0  0  0
    2.3660   -0.8107   -0.4989 H   0  0  0  0  0  0  0  0  0  0  0  0
    1.1993   -2.1372   -0.4408 H   0  0  0  0  0  0  0  0  0  0  0  0
    1.8369   -1.6340   -2.4109 C   0  0  0  0  0  0  0  0  0  0  0  0
    2.2262   -0.7790   -2.9634 H   0  0  0  0  0  0  0  0  0  0  0  0
    2.6039   -2.4083   -2.3849 H   0  0  0  0  0  0  0  0  0  0  0  0
    0.9552   -2.0257   -2.9195 H   0  0  0  0  0  0  0  0  0  0  0  0
   -0.3971    1.3008    1.0689 C   0  0  0  0  0  0  0  0  0  0  0  0
   -1.3643    1.9819    0.7311 O   0  0  0  0  0  0  0  0  0  0  0  0
    0.5522    1.7647    1.8915 N   0  0  0  0  0  0  0  0  0  0  0  0
    1.3093    1.1450    2.1332 H   0  0  0  0  0  0  0  0  0  0  0  0
    0.5577    3.1119    2.4582 C   0  0  0  0  0  0  0  0  0  0  0  0
   -0.3986    3.3098    2.9475 H   0  0  0  0  0  0  0  0  0  0  0  0
    1.3619    3.2123    3.1886 H   0  0  0  0  0  0  0  0  0  0  0  0
    0.6974    3.8450    1.6614 H   0  0  0  0  0  0  0  0  0  0  0  0
  5  6  2  0  0  0  0
  5  7  1  0  0  0  0
  2  3  1  0  0  0  0
  2  4  1  0  0  0  0
  2  5  1  0  0  0  0
  1  2  1  0  0  0  0
 24 25  2  0  0  0  0
 24 26  1  0  0  0  0
 20 21  1  0  0  0  0
 20 22  1  0  0  0  0
 20 23  1  0  0  0  0
 17 18  1  0  0  0  0
 17 19  1  0  0  0  0
 17 20  1  0  0  0  0
 13 14  1  0  0  0  0
 13 15  1  0  0  0  0
 13 16  1  0  0  0  0
 11 12  1  0  0  0  0
 11 13  1  0  0  0  0
 11 17  1  0  0  0  0
  9 10  1  0  0  0  0
  9 11  1  0  0  0  0
  9 24  1  0  0  0  0
  7  8  1  0  0  0  0
  7  9  1  0  0  0  0
 28 29  1  0  0  0  0
 28 30  1  0  0  0  0
 28 31  1  0  0  0  0
 26 27  1  0  0  0  0
 26 28  1  0  0  0  0
M  END
$$$$
default_name
  -OEChem-02102213163D

 31 30  0     1  0  0  0  0  0999 V2000
   -3.0760   -3.6390    1.5496 H   0  0  0  0  0  0  0  0  0  0  0  0
   -3.0940   -2.6290    1.1426 C   0  0  0  0  0  0  0  0  0  0  0  0
   -3.7160   -1.9930    1.7706 H   0  0  0  0  0  0  0  0  0  0  0  0
   -3.4880   -2.6500    0.1286 H   0  0  0  0  0  0  0  0  0  0  0  0
   -1.6860   -2.0850    1.1196 C   0  0  0  0  0  0  0  0  0  0  0  0
   -0.7540   -2.7700    1.5226 O   0  0  0  0  0  0  0  0  0  0  0  0
   -1.5320   -0.8490    0.6496 N   0  0  0  0  0  0  0  0  0  0  0  0
   -2.3500   -0.3360    0.3566 H   0  0  0  0  0  0  0  0  0  0  0  0
   -0.2470   -0.1410    0.5576 C   0  0  1  0  0  0  0  0  0  0  0  0
    0.4572   -0.6505    1.2162 H   0  0  0  0  0  0  0  0  0  0  0  0
    0.3091   -0.2220   -0.8868 C   0  0  1  0  0  0  0  0  0  0  0  0
   -0.5466   -0.3359   -1.5551 H   0  0  0  0  0  0  0  0  0  0  0  0
    1.0600    1.0580   -1.3009 C   0  0  0  0  0  0  0  0  0  0  0  0
    1.9698    1.1776   -0.7100 H   0  0  0  0  0  0  0  0  0  0  0  0
    1.3243    1.0168   -2.3564 H   0  0  0  0  0  0  0  0  0  0  0  0
    0.4255    1.9322   -1.1506 H   0  0  0  0  0  0  0  0  0  0  0  0
    1.2033   -1.4692   -1.0672 C   0  0  0  0  0  0  0  0  0  0  0  0
    2.0253   -1.4446   -0.3506 H   0  0  0  0  0  0  0  0  0  0  0  0
    0.6061   -2.3599   -0.8721 H   0  0  0  0  0  0  0  0  0  0  0  0
    1.7883   -1.6105   -2.4789 C   0  0  0  0  0  0  0  0  0  0  0  0
    2.4821   -0.7966   -2.6885 H   0  0  0  0  0  0  0  0  0  0  0  0
    2.3292   -2.5543   -2.5511 H   0  0  0  0  0  0  0  0  0  0  0  0
    0.9859   -1.6048   -3.2175 H   0  0  0  0  0  0  0  0  0  0  0  0
   -0.3971    1.3008    1.0689 C   0  0  0  0  0  0  0  0  0  0  0  0
   -1.3643    1.9819    0.7311 O   0  0  0  0  0  0  0  0  0  0  0  0
    0.5522    1.7647    1.8915 N   0  0  0  0  0  0  0  0  0  0  0  0
    1.3093    1.1450    2.1332 H   0  0  0  0  0  0  0  0  0  0  0  0
    0.5577    3.1119    2.4582 C   0  0  0  0  0  0  0  0  0  0  0  0
   -0.3986    3.3098    2.9475 H   0  0  0  0  0  0  0  0  0  0  0  0
    1.3619    3.2123    3.1886 H   0  0  0  0  0  0  0  0  0  0  0  0
    0.6974    3.8450    1.6614 H   0  0  0  0  0  0  0  0  0  0  0  0
  5  6  2  0  0  0  0
  5  7  1  0  0  0  0
  2  3  1  0  0  0  0
  2  4  1  0  0  0  0
  2  5  1  0  0  0  0
  1  2  1  0  0  0  0
 24 25  2  0  0  0  0
 24 26  1  0  0  0  0
 20 21  1  0  0  0  0
 20 22  1  0  0  0  0
 20 23  1  0  0  0  0
 17 18  1  0  0  0  0
 17 19  1  0  0  0  0
 17 20  1  0  0  0  0
 13 14  1  0  0  0  0
 13 15  1  0  0  0  0
 13 16  1  0  0  0  0
 11 12  1  0  0  0  0
 11 13  1  0  0  0  0
 11 17  1  0  0  0  0
  9 10  1  0  0  0  0
  9 11  1  0  0  0  0
  9 24  1  0  0  0  0
  7  8  1  0  0  0  0
  7  9  1  0  0  0  0
 28 29  1  0  0  0  0
 28 30  1  0  0  0  0
 28 31  1  0  0  0  0
 26 27  1  0  0  0  0
 26 28  1  0  0  0  0
M  END
$$$$
default_name
  -OEChem-02102213163D

 31 30  0     1  0  0  0  0  0999 V2000
   -3.0760   -3.6390    1.5496 H   0  0  0  0  0  0  0  0  0  0  0  0
   -3.0940   -2.6290    1.1426 C   0  0  0  0  0  0  0  0  0  0  0  0
   -3.7160   -1.9930    1.7706 H   0  0  0  0  0  0  0  0  0  0  0  0
   -3.4880   -2.6500    0.1286 H   0  0  0  0  0  0  0  0  0  0  0  0
   -1.6860   -2.0850    1.1196 C   0  0  0  0  0  0  0  0  0  0  0  0
   -0.7540   -2.7700    1.5226 O   0  0  0  0  0  0  0  0  0  0  0  0
   -1.5320   -0.8490    0.6496 N   0  0  0  0  0  0  0  0  0  0  0  0
   -2.3500   -0.3360    0.3566 H   0  0  0  0  0  0  0  0  0  0  0  0
   -0.2470   -0.1410    0.5576 C   0  0  1  0  0  0  0  0  0  0  0  0
    0.4572   -0.6505    1.2162 H   0  0  0  0  0  0  0  0  0  0  0  0
    0.3091   -0.2220   -0.8868 C   0  0  1  0  0  0  0  0  0  0  0  0
   -0.5466   -0.3359   -1.5551 H   0  0  0  0  0  0  0  0  0  0  0  0
    1.0600    1.0580   -1.3009 C   0  0  0  0  0  0  0  0  0  0  0  0
    1.9698    1.1776   -0.7100 H   0  0  0  0  0  0  0  0  0  0  0  0
    1.3243    1.0168   -2.3564 H   0  0  0  0  0  0  0  0  0  0  0  0
    0.4255    1.9322   -1.1506 H   0  0  0  0  0  0  0  0  0  0  0  0
    1.2033   -1.4692   -1.0672 C   0  0  0  0  0  0  0  0  0  0  0  0
    1.8557   -1.5878   -0.2011 H   0  0  0  0  0  0  0  0  0  0  0  0
    0.5657   -2.3504   -1.1383 H   0  0  0  0  0  0  0  0  0  0  0  0
    2.0712   -1.4289   -2.3322 C   0  0  0  0  0  0  0  0  0  0  0  0
    2.8051   -0.6260   -2.2669 H   0  0  0  0  0  0  0  0  0  0  0  0
    2.6016   -2.3759   -2.4346 H   0  0  0  0  0  0  0  0  0  0  0  0
    1.4431   -1.2780   -3.2109 H   0  0  0  0  0  0  0  0  0  0  0  0
   -0.3971    1.3008    1.0689 C   0  0  0  0  0  0  0  0  0  0  0  0
   -1.3643    1.9819    0.7311 O   0  0  0  0  0  0  0  0  0  0  0  0
    0.5522    1.7647    1.8915 N   0  0  0  0  0  0  0  0  0  0  0  0
    1.3093    1.1450    2.1332 H   0  0  0  0  0  0  0  0  0  0  0  0
    0.5577    3.1119    2.4582 C   0  0  0  0  0  0  0  0  0  0  0  0
   -0.3986    3.3098    2.9475 H   0  0  0  0  0  0  0  0  0  0  0  0
    1.3619    3.2123    3.1886 H   0  0  0  0  0  0  0  0  0  0  0  0
    0.6974    3.8450    1.6614 H   0  0  0  0  0  0  0  0  0  0  0  0
  5  6  2  0  0  0  0
  5  7  1  0  0  0  0
  2  3  1  0  0  0  0
  2  4  1  0  0  0  0
  2  5  1  0  0  0  0
  1  2  1  0  0  0  0
 24 25  2  0  0  0  0
 24 26  1  0  0  0  0
 20 21  1  0  0  0  0
 20 22  1  0  0  0  0
 20 23  1  0  0  0  0
 17 18  1  0  0  0  0
 17 19  1  0  0  0  0
 17 20  1  0  0  0  0
 13 14  1  0  0  0  0
 13 15  1  0  0  0  0
 13 16  1  0  0  0  0
 11 12  1  0  0  0  0
 11 13  1  0  0  0  0
 11 17  1  0  0  0  0
  9 10  1  0  0  0  0
  9 11  1  0  0  0  0
  9 24  1  0  0  0  0
  7  8  1  0  0  0  0
  7  9  1  0  0  0  0
 28 29  1  0  0  0  0
 28 30  1  0  0  0  0
 28 31  1  0  0  0  0
 26 27  1  0  0  0  0
 26 28  1  0  0  0  0
M  END
$$$$
default_name
  -OEChem-02102213163D

 31 30  0     1  0  0  0  0  0999 V2000
   -3.0760   -3.6390    1.5496 H   0  0  0  0  0  0  0  0  0  0  0  0
   -3.0940   -2.6290    1.1426 C   0  0  0  0  0  0  0  0  0  0  0  0
   -3.7160   -1.9930    1.7706 H   0  0  0  0  0  0  0  0  0  0  0  0
   -3.4880   -2.6500    0.1286 H   0  0  0  0  0  0  0  0  0  0  0  0
   -1.6860   -2.0850    1.1196 C   0  0  0  0  0  0  0  0  0  0  0  0
   -0.7540   -2.7700    1.5226 O   0  0  0  0  0  0  0  0  0  0  0  0
   -1.5320   -0.8490    0.6496 N   0  0  0  0  0  0  0  0  0  0  0  0
   -2.3500   -0.3360    0.3566 H   0  0  0  0  0  0  0  0  0  0  0  0
   -0.2470   -0.1410    0.5576 C   0  0  1  0  0  0  0  0  0  0  0  0
    0.4572   -0.6505    1.2162 H   0  0  0  0  0  0  0  0  0  0  0  0
    0.3091   -0.2220   -0.8868 C   0  0  1  0  0  0  0  0  0  0  0  0
   -0.5466   -0.3359   -1.5551 H   0  0  0  0  0  0  0  0  0  0  0  0
    1.0600    1.0580   -1.3009 C   0  0  0  0  0  0  0  0  0  0  0  0
    1.9698    1.1776   -0.7100 H   0  0  0  0  0  0  0  0  0  0  0  0
    1.3243    1.0168   -2.3564 H   0  0  0  0  0  0  0  0  0  0  0  0
    0.4255    1.9322   -1.1506 H   0  0  0  0  0  0  0  0  0  0  0  0
    1.2033   -1.4692   -1.0672 C   0  0  0  0  0  0  0  0  0  0  0  0
    1.6563   -1.7434   -0.1135 H   0  0  0  0  0  0  0  0  0  0  0  0
    0.5826   -2.3001   -1.4024 H   0  0  0  0  0  0  0  0  0  0  0  0
    2.3193   -1.2840   -2.1042 C   0  0  0  0  0  0  0  0  0  0  0  0
    3.0343   -0.5340   -1.7666 H   0  0  0  0  0  0  0  0  0  0  0  0
    2.8458   -2.2292   -2.2384 H   0  0  0  0  0  0  0  0  0  0  0  0
    1.8932   -0.9771   -3.0600 H   0  0  0  0  0  0  0  0  0  0  0  0
   -0.3971    1.3008    1.0689 C   0  0  0  0  0  0  0  0  0  0  0  0
   -1.3643    1.9819    0.7311 O   0  0  0  0  0  0  0  0  0  0  0  0
    0.5522    1.7647    1.8915 N   0  0  0  0  0  0  0  0  0  0  0  0
    1.3093    1.1450    2.1332 H   0  0  0  0  0  0  0  0  0  0  0  0
    0.5577    3.1119    2.4582 C   0  0  0  0  0  0  0  0  0  0  0  0
   -0.3986    3.3098    2.9475 H   0  0  0  0  0  0  0  0  0  0  0  0
    1.3619    3.2123    3.1886 H   0  0  0  0  0  0  0  0  0  0  0  0
    0.6974    3.8450    1.6614 H   0  0  0  0  0  0  0  0  0  0  0  0
  5  6  2  0  0  0  0
  5  7  1  0  0  0  0
  2  3  1  0  0  0  0
  2  4  1  0  0  0  0
  2  5  1  0  0  0  0
  1  2  1  0  0  0  0
 24 25  2  0  0  0  0
 24 26  1  0  0  0  0
 20 21  1  0  0  0  0
 20 22  1  0  0  0  0
 20 23  1  0  0  0  0
 17 18  1  0  0  0  0
 17 19  1  0  0  0  0
 17 20  1  0  0  0  0
 13 14  1  0  0  0  0
 13 15  1  0  0  0  0
 13 16  1  0  0  0  0
 11 12  1  0  0  0  0
 11 13  1  0  0  0  0
 11 17  1  0  0  0  0
  9 10  1  0  0  0  0
  9 11  1  0  0  0  0
  9 24  1  0  0  0  0
  7  8  1  0  0  0  0
  7  9  1  0  0  0  0
 28 29  1  0  0  0  0
 28 30  1  0  0  0  0
 28 31  1  0  0  0  0
 26 27  1  0  0  0  0
 26 28  1  0  0  0  0
M  END
$$$$
default_name
  -OEChem-02102213163D

 31 30  0     1  0  0  0  0  0999 V2000
   -3.0760   -3.6390    1.5496 H   0  0  0  0  0  0  0  0  0  0  0  0
   -3.0940   -2.6290    1.1426 C   0  0  0  0  0  0  0  0  0  0  0  0
   -3.7160   -1.9930    1.7706 H   0  0  0  0  0  0  0  0  0  0  0  0
   -3.4880   -2.6500    0.1286 H   0  0  0  0  0  0  0  0  0  0  0  0
   -1.6860   -2.0850    1.1196 C   0  0  0  0  0  0  0  0  0  0  0  0
   -0.7540   -2.7700    1.5226 O   0  0  0  0  0  0  0  0  0  0  0  0
   -1.5320   -0.8490    0.6496 N   0  0  0  0  0  0  0  0  0  0  0  0
   -2.3500   -0.3360    0.3566 H   0  0  0  0  0  0  0  0  0  0  0  0
   -0.2470   -0.1410    0.5576 C   0  0  1  0  0  0  0  0  0  0  0  0
    0.4572   -0.6505    1.2162 H   0  0  0  0  0  0  0  0  0  0  0  0
    0.3091   -0.2220   -0.8868 C   0  0  1  0  0  0  0  0  0  0  0  0
   -0.5466   -0.3359   -1.5551 H   0  0  0  0  0  0  0  0  0  0  0  0
    1.0600    1.0580   -1.3009 C   0  0  0  0  0  0  0  0  0  0  0  0
    1.9698    1.1776   -0.7100 H   0  0  0  0  0  0  0  0  0  0  0  0
    1.3243    1.0168   -2.3564 H   0  0  0  0  0  0  0  0  0  0  0  0
    0.4255    1.9322   -1.1506 H   0  0  0  0  0  0  0  0  0  0  0  0
    1.2033   -1.4692   -1.0672 C   0  0  0  0  0  0  0  0  0  0  0  0
    1.4407   -1.9008   -0.0939 H   0  0  0  0  0  0  0  0  0  0  0  0
    0.6556   -2.2125   -1.6465 H   0  0  0  0  0  0  0  0  0  0  0  0
    2.5157   -1.1857   -1.8105 C   0  0  0  0  0  0  0  0  0  0  0  0
    3.1539   -0.5271   -1.2217 H   0  0  0  0  0  0  0  0  0  0  0  0
    3.0451   -2.1243   -1.9759 H   0  0  0  0  0  0  0  0  0  0  0  0
    2.3055   -0.7227   -2.7752 H   0  0  0  0  0  0  0  0  0  0  0  0
   -0.3971    1.3008    1.0689 C   0  0  0  0  0  0  0  0  0  0  0  0
   -1.3643    1.9819    0.7311 O   0  0  0  0  0  0  0  0  0  0  0  0
    0.5522    1.7647    1.8915 N   0  0  0  0  0  0  0  0  0  0  0  0
    1.3093    1.1450    2.1332 H   0  0  0  0  0  0  0  0  0  0  0  0
    0.5577    3.1119    2.4582 C   0  0  0  0  0  0  0  0  0  0  0  0
   -0.3986    3.3098    2.9475 H   0  0  0  0  0  0  0  0  0  0  0  0
    1.3619    3.2123    3.1886 H   0  0  0  0  0  0  0  0  0  0  0  0
    0.6974    3.8450    1.6614 H   0  0  0  0  0  0  0  0  0  0  0  0
  5  6  2  0  0  0  0
  5  7  1  0  0  0  0
  2  3  1  0  0  0  0
  2  4  1  0  0  0  0
  2  5  1  0  0  0  0
  1  2  1  0  0  0  0
 24 25  2  0  0  0  0
 24 26  1  0  0  0  0
 20 21  1  0  0  0  0
 20 22  1  0  0  0  0
 20 23  1  0  0  0  0
 17 18  1  0  0  0  0
 17 19  1  0  0  0  0
 17 20  1  0  0  0  0
 13 14  1  0  0  0  0
 13 15  1  0  0  0  0
 13 16  1  0  0  0  0
 11 12  1  0  0  0  0
 11 13  1  0  0  0  0
 11 17  1  0  0  0  0
  9 10  1  0  0  0  0
  9 11  1  0  0  0  0
  9 24  1  0  0  0  0
  7  8  1  0  0  0  0
  7  9  1  0  0  0  0
 28 29  1  0  0  0  0
 28 30  1  0  0  0  0
 28 31  1  0  0  0  0
 26 27  1  0  0  0  0
 26 28  1  0  0  0  0
M  END
$$$$
default_name
  -OEChem-02102213163D

 31 30  0     1  0  0  0  0  0999 V2000
   -3.0760   -3.6390    1.5496 H   0  0  0  0  0  0  0  0  0  0  0  0
   -3.0940   -2.6290    1.1426 C   0  0  0  0  0  0  0  0  0  0  0  0
   -3.7160   -1.9930    1.7706 H   0  0  0  0  0  0  0  0  0  0  0  0
   -3.4880   -2.6500    0.1286 H   0  0  0  0  0  0  0  0  0  0  0  0
   -1.6860   -2.0850    1.1196 C   0  0  0  0  0  0  0  0  0  0  0  0
   -0.7540   -2.7700    1.5226 O   0  0  0  0  0  0  0  0  0  0  0  0
   -1.5320   -0.8490    0.6496 N   0  0  0  0  0  0  0  0  0  0  0  0
   -2.3500   -0.3360    0.3566 H   0  0  0  0  0  0  0  0  0  0  0  0
   -0.2470   -0.1410    0.5576 C   0  0  1  0  0  0  0  0  0  0  0  0
    0.4572   -0.6505    1.2162 H   0  0  0  0  0  0  0  0  0  0  0  0
    0.3091   -0.2220   -0.8868 C   0  0  1  0  0  0  0  0  0  0  0  0
   -0.5466   -0.3359   -1.5551 H   0  0  0  0  0  0  0  0  0  0  0  0
    1.0600    1.0580   -1.3009 C   0  0  0  0  0  0  0  0  0  0  0  0
    1.9698    1.1776   -0.7100 H   0  0  0  0  0  0  0  0  0  0  0  0
    1.3243    1.0168   -2.3564 H   0  0  0  0  0  0  0  0  0  0  0  0
    0.4255    1.9322   -1.1506 H   0  0  0  0  0  0  0  0  0  0  0  0
    1.2033   -1.4692   -1.0672 C   0  0  0  0  0  0  0  0  0  0  0  0
    1.2235   -2.0493   -0.1436 H   0  0  0  0  0  0  0  0  0  0  0  0
    0.7797   -2.0935   -1.8539 H   0  0  0  0  0  0  0  0  0  0  0  0
    2.6470   -1.1407   -1.4710 C   0  0  0  0  0  0  0  0  0  0  0  0
    3.1558   -0.6056   -0.6694 H   0  0  0  0  0  0  0  0  0  0  0  0
    3.1859   -2.0683   -1.6651 H   0  0  0  0  0  0  0  0  0  0  0  0
    2.6519   -0.5321   -2.3759 H   0  0  0  0  0  0  0  0  0  0  0  0
   -0.3971    1.3008    1.0689 C   0  0  0  0  0  0  0  0  0  0  0  0
   -1.3643    1.9819    0.7311 O   0  0  0  0  0  0  0  0  0  0  0  0
    0.5522    1.7647    1.8915 N   0  0  0  0  0  0  0  0  0  0  0  0
    1.3093    1.1450    2.1332 H   0  0  0  0  0  0  0  0  0  0  0  0
    0.5577    3.1119    2.4582 C   0  0  0  0  0  0  0  0  0  0  0  0
   -0.3986    3.3098    2.9475 H   0  0  0  0  0  0  0  0  0  0  0  0
    1.3619    3.2123    3.1886 H   0  0  0  0  0  0  0  0  0  0  0  0
    0.6974    3.8450    1.6614 H   0  0  0  0  0  0  0  0  0  0  0  0
  5  6  2  0  0  0  0
  5  7  1  0  0  0  0
  2  3  1  0  0  0  0
  2  4  1  0  0  0  0
  2  5  1  0  0  0  0
  1  2  1  0  0  0  0
 24 25  2  0  0  0  0
 24 26  1  0  0  0  0
 20 21  1  0  0  0  0
 20 22  1  0  0  0  0
 20 23  1  0  0  0  0
 17 18  1  0  0  0  0
 17 19  1  0  0  0  0
 17 20  1  0  0  0  0
 13 14  1  0  0  0  0
 13 15  1  0  0  0  0
 13 16  1  0  0  0  0
 11 12  1  0  0  0  0
 11 13  1  0  0  0  0
 11 17  1  0  0  0  0
  9 10  1  0  0  0  0
  9 11  1  0  0  0  0
  9 24  1  0  0  0  0
  7  8  1  0  0  0  0
  7  9  1  0  0  0  0
 28 29  1  0  0  0  0
 28 30  1  0  0  0  0
 28 31  1  0  0  0  0
 26 27  1  0  0  0  0
 26 28  1  0  0  0  0
M  END
$$$$
default_name
  -OEChem-02102213163D

 31 30  0     1  0  0  0  0  0999 V2000
   -3.0760   -3.6390    1.5496 H   0  0  0  0  0  0  0  0  0  0  0  0
   -3.0940   -2.6290    1.1426 C   0  0  0  0  0  0  0  0  0  0  0  0
   -3.7160   -1.9930    1.7706 H   0  0  0  0  0  0  0  0  0  0  0  0
   -3.4880   -2.6500    0.1286 H   0  0  0  0  0  0  0  0  0  0  0  0
   -1.6860   -2.0850    1.1196 C   0  0  0  0  0  0  0  0  0  0  0  0
   -0.7540   -2.7700    1.5226 O   0  0  0  0  0  0  0  0  0  0  0  0
   -1.5320   -0.8490    0.6496 N   0  0  0  0  0  0  0  0  0  0  0  0
   -2.3500   -0.3360    0.3566 H   0  0  0  0  0  0  0  0  0  0  0  0
   -0.2470   -0.1410    0.5576 C   0  0  1  0  0  0  0  0  0  0  0  0
    0.4572   -0.6505    1.2162 H   0  0  0  0  0  0  0  0  0  0  0  0
    0.3091   -0.2220   -0.8868 C   0  0  1  0  0  0  0  0  0  0  0  0
   -0.5466   -0.3359   -1.5551 H   0  0  0  0  0  0  0  0  0  0  0  0
    1.0600    1.0580   -1.3009 C   0  0  0  0  0  0  0  0  0  0  0  0
    1.9698    1.1776   -0.7100 H   0  0  0  0  0  0  0  0  0  0  0  0
    1.3243    1.0168   -2.3564 H   0  0  0  0  0  0  0  0  0  0  0  0
    0.4255    1.9322   -1.1506 H   0  0  0  0  0  0  0  0  0  0  0  0
    1.2033   -1.4692   -1.0672 C   0  0  0  0  0  0  0  0  0  0  0  0
    1.0197   -2.1787   -0.2592 H   0  0  0  0  0  0  0  0  0  0  0  0
    0.9466   -1.9513   -2.0105 H   0  0  0  0  0  0  0  0  0  0  0  0
    2.7042   -1.1520   -1.1088 C   0  0  0  0  0  0  0  0  0  0  0  0
    3.0398   -0.7642   -0.1472 H   0  0  0  0  0  0  0  0  0  0  0  0
    3.2587   -2.0650   -1.3270 H   0  0  0  0  0  0  0  0  0  0  0  0
    2.9089   -0.4183   -1.8892 H   0  0  0  0  0  0  0  0  0  0  0  0
   -0.3971    1.3008    1.0689 C   0  0  0  0  0  0  0  0  0  0  0  0
   -1.3643    1.9819    0.7311 O   0  0  0  0  0  0  0  0  0  0  0  0
    0.5522    1.7647    1.8915 N   0  0  0  0  0  0  0  0  0  0  0  0
    1.3093    1.1450    2.1332 H   0  0  0  0  0  0  0  0  0  0  0  0
    0.5577    3.1119    2.4582 C   0  0  0  0  0  0  0  0  0  0  0  0
   -0.3986    3.3098    2.9475 H   0  0  0  0  0  0  0  0  0  0  0  0
    1.3619    3.2123    3.1886 H   0  0  0  0  0  0  0  0  0  0  0  0
    0.6974    3.8450    1.6614 H   0  0  0  0  0  0  0  0  0  0  0  0
  5  6  2  0  0  0  0
  5  7  1  0  0  0  0
  2  3  1  0  0  0  0
  2  4  1  0  0  0  0
  2  5  1  0  0  0  0
  1  2  1  0  0  0  0
 24 25  2  0  0  0  0
 24 26  1  0  0  0  0
 20 21  1  0  0  0  0
 20 22  1  0  0  0  0
 20 23  1  0  0  0  0
 17 18  1  0  0  0  0
 17 19  1  0  0  0  0
 17 20  1  0  0  0  0
 13 14  1  0  0  0  0
 13 15  1  0  0  0  0
 13 16  1  0  0  0  0
 11 12  1  0  0  0  0
 11 13  1  0  0  0  0
 11 17  1  0  0  0  0
  9 10  1  0  0  0  0
  9 11  1  0  0  0  0
  9 24  1  0  0  0  0
  7  8  1  0  0  0  0
  7  9  1  0  0  0  0
 28 29  1  0  0  0  0
 28 30  1  0  0  0  0
 28 31  1  0  0  0  0
 26 27  1  0  0  0  0
 26 28  1  0  0  0  0
M  END
$$$$
default_name
  -OEChem-02102213163D

 31 30  0     1  0  0  0  0  0999 V2000
   -3.0760   -3.6390    1.5496 H   0  0  0  0  0  0  0  0  0  0  0  0
   -3.0940   -2.6290    1.1426 C   0  0  0  0  0  0  0  0  0  0  0  0
   -3.7160   -1.9930    1.7706 H   0  0  0  0  0  0  0  0  0  0  0  0
   -3.4880   -2.6500    0.1286 H   0  0  0  0  0  0  0  0  0  0  0  0
   -1.6860   -2.0850    1.1196 C   0  0  0  0  0  0  0  0  0  0  0  0
   -0.7540   -2.7700    1.5226 O   0  0  0  0  0  0  0  0  0  0  0  0
   -1.5320   -0.8490    0.6496 N   0  0  0  0  0  0  0  0  0  0  0  0
   -2.3500   -0.3360    0.3566 H   0  0  0  0  0  0  0  0  0  0  0  0
   -0.2470   -0.1410    0.5576 C   0  0  1  0  0  0  0  0  0  0  0  0
    0.4572   -0.6505    1.2162 H   0  0  0  0  0  0  0  0  0  0  0  0
    0.3091   -0.2220   -0.8868 C   0  0  1  0  0  0  0  0  0  0  0  0
   -0.5466   -0.3359   -1.5551 H   0  0  0  0  0  0  0  0  0  0  0  0
    1.0600    1.0580   -1.3009 C   0  0  0  0  0  0  0  0  0  0  0  0
    1.9698    1.1776   -0.7100 H   0  0  0  0  0  0  0  0  0  0  0  0
    1.3243    1.0168   -2.3564 H   0  0  0  0  0  0  0  0  0  0  0  0
    0.4255    1.9322   -1.1506 H   0  0  0  0  0  0  0  0  0  0  0  0
    1.2033   -1.4692   -1.0672 C   0  0  0  0  0  0  0  0  0  0  0  0
    0.8431   -2.2802   -0.4328 H   0  0  0  0  0  0  0  0  0  0  0  0
    1.1447   -1.7954   -2.1055 H   0  0  0  0  0  0  0  0  0  0  0  0
    2.6835   -1.2189   -0.7488 C   0  0  0  0  0  0  0  0  0  0  0  0
    2.8140   -0.9921    0.3092 H   0  0  0  0  0  0  0  0  0  0  0  0
    3.2585   -2.1147   -0.9847 H   0  0  0  0  0  0  0  0  0  0  0  0
    3.0589   -0.3889   -1.3484 H   0  0  0  0  0  0  0  0  0  0  0  0
   -0.3971    1.3008    1.0689 C   0  0  0  0  0  0  0  0  0  0  0  0
   -1.3643    1.9819    0.7311 O   0  0  0  0  0  0  0  0  0  0  0  0
    0.5522    1.7647    1.8915 N   0  0  0  0  0  0  0  0  0  0  0  0
    1.3093    1.1450    2.1332 H   0  0  0  0  0  0  0  0  0  0  0  0
    0.5577    3.1119    2.4582 C   0  0  0  0  0  0  0  0  0  0  0  0
   -0.3986    3.3098    2.9475 H   0  0  0  0  0  0  0  0  0  0  0  0
    1.3619    3.2123    3.1886 H   0  0  0  0  0  0  0  0  0  0  0  0
    0.6974    3.8450    1.6614 H   0  0  0  0  0  0  0  0  0  0  0  0
  5  6  2  0  0  0  0
  5  7  1  0  0  0  0
  2  3  1  0  0  0  0
  2  4  1  0  0  0  0
  2  5  1  0  0  0  0
  1  2  1  0  0  0  0
 24 25  2  0  0  0  0
 24 26  1  0  0  0  0
 20 21  1  0  0  0  0
 20 22  1  0  0  0  0
 20 23  1  0  0  0  0
 17 18  1  0  0  0  0
 17 19  1  0  0  0  0
 17 20  1  0  0  0  0
 13 14  1  0  0  0  0
 13 15  1  0  0  0  0
 13 16  1  0  0  0  0
 11 12  1  0  0  0  0
 11 13  1  0  0  0  0
 11 17  1  0  0  0  0
  9 10  1  0  0  0  0
  9 11  1  0  0  0  0
  9 24  1  0  0  0  0
  7  8  1  0  0  0  0
  7  9  1  0  0  0  0
 28 29  1  0  0  0  0
 28 30  1  0  0  0  0
 28 31  1  0  0  0  0
 26 27  1  0  0  0  0
 26 28  1  0  0  0  0
M  END
$$$$
default_name
  -OEChem-02102213163D

 31 30  0     1  0  0  0  0  0999 V2000
   -3.0760   -3.6390    1.5496 H   0  0  0  0  0  0  0  0  0  0  0  0
   -3.0940   -2.6290    1.1426 C   0  0  0  0  0  0  0  0  0  0  0  0
   -3.7160   -1.9930    1.7706 H   0  0  0  0  0  0  0  0  0  0  0  0
   -3.4880   -2.6500    0.1286 H   0  0  0  0  0  0  0  0  0  0  0  0
   -1.6860   -2.0850    1.1196 C   0  0  0  0  0  0  0  0  0  0  0  0
   -0.7540   -2.7700    1.5226 O   0  0  0  0  0  0  0  0  0  0  0  0
   -1.5320   -0.8490    0.6496 N   0  0  0  0  0  0  0  0  0  0  0  0
   -2.3500   -0.3360    0.3566 H   0  0  0  0  0  0  0  0  0  0  0  0
   -0.2470   -0.1410    0.5576 C   0  0  1  0  0  0  0  0  0  0  0  0
    0.4572   -0.6505    1.2162 H   0  0  0  0  0  0  0  0  0  0  0  0
    0.3091   -0.2220   -0.8868 C   0  0  1  0  0  0  0  0  0  0  0  0
   -0.5466   -0.3359   -1.5551 H   0  0  0  0  0  0  0  0  0  0  0  0
    1.0600    1.0580   -1.3009 C   0  0  0  0  0  0  0  0  0  0  0  0
    1.9698    1.1776   -0.7100 H   0  0  0  0  0  0  0  0  0  0  0  0
    1.3243    1.0168   -2.3564 H   0  0  0  0  0  0  0  0  0  0  0  0
    0.4255    1.9322   -1.1506 H   0  0  0  0  0  0  0  0  0  0  0  0
    1.2033   -1.4692   -1.0672 C   0  0  0  0  0  0  0  0  0  0  0  0
    0.7057   -2.3469   -0.6526 H   0  0  0  0  0  0  0  0  0  0  0  0
    1.3607   -1.6367   -2.1326 H   0  0  0  0  0  0  0  0  0  0  0  0
    2.5863   -1.3368   -0.4154 C   0  0  0  0  0  0  0  0  0  0  0  0
    2.4936   -1.2738    0.6687 H   0  0  0  0  0  0  0  0  0  0  0  0
    3.1852   -2.2139   -0.6616 H   0  0  0  0  0  0  0  0  0  0  0  0
    3.0917   -0.4461   -0.7903 H   0  0  0  0  0  0  0  0  0  0  0  0
   -0.3971    1.3008    1.0689 C   0  0  0  0  0  0  0  0  0  0  0  0
   -1.3643    1.9819    0.7311 O   0  0  0  0  0  0  0  0  0  0  0  0
    0.5522    1.7647    1.8915 N   0  0  0  0  0  0  0  0  0  0  0  0
    1.3093    1.1450    2.1332 H   0  0  0  0  0  0  0  0  0  0  0  0
    0.5577    3.1119    2.4582 C   0  0  0  0  0  0  0  0  0  0  0  0
   -0.3986    3.3098    2.9475 H   0  0  0  0  0  0  0  0  0  0  0  0
    1.3619    3.2123    3.1886 H   0  0  0  0  0  0  0  0  0  0  0  0
    0.6974    3.8450    1.6614 H   0  0  0  0  0  0  0  0  0  0  0  0
  5  6  2  0  0  0  0
  5  7  1  0  0  0  0
  2  3  1  0  0  0  0
  2  4  1  0  0  0  0
  2  5  1  0  0  0  0
  1  2  1  0  0  0  0
 24 25  2  0  0  0  0
 24 26  1  0  0  0  0
 20 21  1  0  0  0  0
 20 22  1  0  0  0  0
 20 23  1  0  0  0  0
 17 18  1  0  0  0  0
 17 19  1  0  0  0  0
 17 20  1  0  0  0  0
 13 14  1  0  0  0  0
 13 15  1  0  0  0  0
 13 16  1  0  0  0  0
 11 12  1  0  0  0  0
 11 13  1  0  0  0  0
 11 17  1  0  0  0  0
  9 10  1  0  0  0  0
  9 11  1  0  0  0  0
  9 24  1  0  0  0  0
  7  8  1  0  0  0  0
  7  9  1  0  0  0  0
 28 29  1  0  0  0  0
 28 30  1  0  0  0  0
 28 31  1  0  0  0  0
 26 27  1  0  0  0  0
 26 28  1  0  0  0  0
M  END
$$$$
default_name
  -OEChem-02102213163D

 31 30  0     1  0  0  0  0  0999 V2000
   -3.0760   -3.6390    1.5496 H   0  0  0  0  0  0  0  0  0  0  0  0
   -3.0940   -2.6290    1.1426 C   0  0  0  0  0  0  0  0  0  0  0  0
   -3.7160   -1.9930    1.7706 H   0  0  0  0  0  0  0  0  0  0  0  0
   -3.4880   -2.6500    0.1286 H   0  0  0  0  0  0  0  0  0  0  0  0
   -1.6860   -2.0850    1.1196 C   0  0  0  0  0  0  0  0  0  0  0  0
   -0.7540   -2.7700    1.5226 O   0  0  0  0  0  0  0  0  0  0  0  0
   -1.5320   -0.8490    0.6496 N   0  0  0  0  0  0  0  0  0  0  0  0
   -2.3500   -0.3360    0.3566 H   0  0  0  0  0  0  0  0  0  0  0  0
   -0.2470   -0.1410    0.5576 C   0  0  1  0  0  0  0  0  0  0  0  0
    0.4572   -0.6505    1.2162 H   0  0  0  0  0  0  0  0  0  0  0  0
    0.3091   -0.2220   -0.8868 C   0  0  1  0  0  0  0  0  0  0  0  0
   -0.5466   -0.3359   -1.5551 H   0  0  0  0  0  0  0  0  0  0  0  0
    1.0600    1.0580   -1.3009 C   0  0  0  0  0  0  0  0  0  0  0  0
    1.9698    1.1776   -0.7100 H   0  0  0  0  0  0  0  0  0  0  0  0
    1.3243    1.0168   -2.3564 H   0  0  0  0  0  0  0  0  0  0  0  0
    0.4255    1.9322   -1.1506 H   0  0  0  0  0  0  0  0  0  0  0  0
    1.2033   -1.4692   -1.0672 C   0  0  0  0  0  0  0  0  0  0  0  0
    0.6168   -2.3743   -0.9036 H   0  0  0  0  0  0  0  0  0  0  0  0
    1.5798   -1.4858   -2.0899 H   0  0  0  0  0  0  0  0  0  0  0  0
    2.4192   -1.4977   -0.1312 C   0  0  0  0  0  0  0  0  0  0  0  0
    2.1005   -1.5900    0.9069 H   0  0  0  0  0  0  0  0  0  0  0  0
    3.0440   -2.3559   -0.3796 H   0  0  0  0  0  0  0  0  0  0  0  0
    3.0050   -0.5859   -0.2529 H   0  0  0  0  0  0  0  0  0  0  0  0
   -0.3971    1.3008    1.0689 C   0  0  0  0  0  0  0  0  0  0  0  0
   -1.3643    1.9819    0.7311 O   0  0  0  0  0  0  0  0  0  0  0  0
    0.5522    1.7647    1.8915 N   0  0  0  0  0  0  0  0  0  0  0  0
    1.3093    1.1450    2.1332 H   0  0  0  0  0  0  0  0  0  0  0  0
    0.5577    3.1119    2.4582 C   0  0  0  0  0  0  0  0  0  0  0  0
   -0.3986    3.3098    2.9475 H   0  0  0  0  0  0  0  0  0  0  0  0
    1.3619    3.2123    3.1886 H   0  0  0  0  0  0  0  0  0  0  0  0
    0.6974    3.8450    1.6614 H   0  0  0  0  0  0  0  0  0  0  0  0
  5  6  2  0  0  0  0
  5  7  1  0  0  0  0
  2  3  1  0  0  0  0
  2  4  1  0  0  0  0
  2  5  1  0  0  0  0
  1  2  1  0  0  0  0
 24 25  2  0  0  0  0
 24 26  1  0  0  0  0
 20 21  1  0  0  0  0
 20 22  1  0  0  0  0
 20 23  1  0  0  0  0
 17 18  1  0  0  0  0
 17 19  1  0  0  0  0
 17 20  1  0  0  0  0
 13 14  1  0  0  0  0
 13 15  1  0  0  0  0
 13 16  1  0  0  0  0
 11 12  1  0  0  0  0
 11 13  1  0  0  0  0
 11 17  1  0  0  0  0
  9 10  1  0  0  0  0
  9 11  1  0  0  0  0
  9 24  1  0  0  0  0
  7  8  1  0  0  0  0
  7  9  1  0  0  0  0
 28 29  1  0  0  0  0
 28 30  1  0  0  0  0
 28 31  1  0  0  0  0
 26 27  1  0  0  0  0
 26 28  1  0  0  0  0
M  END
$$$$
default_name
  -OEChem-02102213163D

 31 30  0     1  0  0  0  0  0999 V2000
   -3.0760   -3.6390    1.5496 H   0  0  0  0  0  0  0  0  0  0  0  0
   -3.0940   -2.6290    1.1426 C   0  0  0  0  0  0  0  0  0  0  0  0
   -3.7160   -1.9930    1.7706 H   0  0  0  0  0  0  0  0  0  0  0  0
   -3.4880   -2.6500    0.1286 H   0  0  0  0  0  0  0  0  0  0  0  0
   -1.6860   -2.0850    1.1196 C   0  0  0  0  0  0  0  0  0  0  0  0
   -0.7540   -2.7700    1.5226 O   0  0  0  0  0  0  0  0  0  0  0  0
   -1.5320   -0.8490    0.6496 N   0  0  0  0  0  0  0  0  0  0  0  0
   -2.3500   -0.3360    0.3566 H   0  0  0  0  0  0  0  0  0  0  0  0
   -0.2470   -0.1410    0.5576 C   0  0  1  0  0  0  0  0  0  0  0  0
    0.4572   -0.6505    1.2162 H   0  0  0  0  0  0  0  0  0  0  0  0
    0.3091   -0.2220   -0.8868 C   0  0  1  0  0  0  0  0  0  0  0  0
   -0.5466   -0.3359   -1.5551 H   0  0  0  0  0  0  0  0  0  0  0  0
    1.0600    1.0580   -1.3009 C   0  0  0  0  0  0  0  0  0  0  0  0
    1.9698    1.1776   -0.7100 H   0  0  0  0  0  0  0  0  0  0  0  0
    1.3243    1.0168   -2.3564 H   0  0  0  0  0  0  0  0  0  0  0  0
    0.4255    1.9322   -1.1506 H   0  0  0  0  0  0  0  0  0  0  0  0
    1.2033   -1.4692   -1.0672 C   0  0  0  0  0  0  0  0  0  0  0  0
    0.5826   -2.3605   -1.1687 H   0  0  0  0  0  0  0  0  0  0  0  0
    1.7870   -1.3531   -1.9803 H   0  0  0  0  0  0  0  0  0  0  0  0
    2.1936   -1.6906    0.0842 C   0  0  0  0  0  0  0  0  0  0  0  0
    1.6615   -1.9193    1.0074 H   0  0  0  0  0  0  0  0  0  0  0  0
    2.8444   -2.5310   -0.1581 H   0  0  0  0  0  0  0  0  0  0  0  0
    2.8049   -0.7989    0.2271 H   0  0  0  0  0  0  0  0  0  0  0  0
   -0.3971    1.3008    1.0689 C   0  0  0  0  0  0  0  0  0  0  0  0
   -1.3643    1.9819    0.7311 O   0  0  0  0  0  0  0  0  0  0  0  0
    0.5522    1.7647    1.8915 N   0  0  0  0  0  0  0  0  0  0  0  0
    1.3093    1.1450    2.1332 H   0  0  0  0  0  0  0  0  0  0  0  0
    0.5577    3.1119    2.4582 C   0  0  0  0  0  0  0  0  0  0  0  0
   -0.3986    3.3098    2.9475 H   0  0  0  0  0  0  0  0  0  0  0  0
    1.3619    3.2123    3.1886 H   0  0  0  0  0  0  0  0  0  0  0  0
    0.6974    3.8450    1.6614 H   0  0  0  0  0  0  0  0  0  0  0  0
  5  6  2  0  0  0  0
  5  7  1  0  0  0  0
  2  3  1  0  0  0  0
  2  4  1  0  0  0  0
  2  5  1  0  0  0  0
  1  2  1  0  0  0  0
 24 25  2  0  0  0  0
 24 26  1  0  0  0  0
 20 21  1  0  0  0  0
 20 22  1  0  0  0  0
 20 23  1  0  0  0  0
 17 18  1  0  0  0  0
 17 19  1  0  0  0  0
 17 20  1  0  0  0  0
 13 14  1  0  0  0  0
 13 15  1  0  0  0  0
 13 16  1  0  0  0  0
 11 12  1  0  0  0  0
 11 13  1  0  0  0  0
 11 17  1  0  0  0  0
  9 10  1  0  0  0  0
  9 11  1  0  0  0  0
  9 24  1  0  0  0  0
  7  8  1  0  0  0  0
  7  9  1  0  0  0  0
 28 29  1  0  0  0  0
 28 30  1  0  0  0  0
 28 31  1  0  0  0  0
 26 27  1  0  0  0  0
 26 28  1  0  0  0  0
M  END
$$$$
default_name
  -OEChem-02102213163D

 31 30  0     1  0  0  0  0  0999 V2000
   -3.0760   -3.6390    1.5496 H   0  0  0  0  0  0  0  0  0  0  0  0
   -3.0940   -2.6290    1.1426 C   0  0  0  0  0  0  0  0  0  0  0  0
   -3.7160   -1.9930    1.7706 H   0  0  0  0  0  0  0  0  0  0  0  0
   -3.4880   -2.6500    0.1286 H   0  0  0  0  0  0  0  0  0  0  0  0
   -1.6860   -2.0850    1.1196 C   0  0  0  0  0  0  0  0  0  0  0  0
   -0.7540   -2.7700    1.5226 O   0  0  0  0  0  0  0  0  0  0  0  0
   -1.5320   -0.8490    0.6496 N   0  0  0  0  0  0  0  0  0  0  0  0
   -2.3500   -0.3360    0.3566 H   0  0  0  0  0  0  0  0  0  0  0  0
   -0.2470   -0.1410    0.5576 C   0  0  1  0  0  0  0  0  0  0  0  0
    0.4572   -0.6505    1.2162 H   0  0  0  0  0  0  0  0  0  0  0  0
    0.3091   -0.2220   -0.8868 C   0  0  1  0  0  0  0  0  0  0  0  0
   -0.5466   -0.3359   -1.5551 H   0  0  0  0  0  0  0  0  0  0  0  0
    1.0600    1.0580   -1.3009 C   0  0  0  0  0  0  0  0  0  0  0  0
    1.9698    1.1776   -0.7100 H   0  0  0  0  0  0  0  0  0  0  0  0
    1.3243    1.0168   -2.3564 H   0  0  0  0  0  0  0  0  0  0  0  0
    0.4255    1.9322   -1.1506 H   0  0  0  0  0  0  0  0  0  0  0  0
    1.2033   -1.4692   -1.0672 C   0  0  0  0  0  0  0  0  0  0  0  0
    0.6054   -2.3064   -1.4299 H   0  0  0  0  0  0  0  0  0  0  0  0
    1.9683   -1.2476   -1.8112 H   0  0  0  0  0  0  0  0  0  0  0  0
    1.9248   -1.9024    0.2162 C   0  0  0  0  0  0  0  0  0  0  0  0
    1.2065   -2.2391    0.9635 H   0  0  0  0  0  0  0  0  0  0  0  0
    2.6000   -2.7273   -0.0120 H   0  0  0  0  0  0  0  0  0  0  0  0
    2.5048   -1.0704    0.6171 H   0  0  0  0  0  0  0  0  0  0  0  0
   -0.3971    1.3008    1.0689 C   0  0  0  0  0  0  0  0  0  0  0  0
   -1.3643    1.9819    0.7311 O   0  0  0  0  0  0  0  0  0  0  0  0
    0.5522    1.7647    1.8915 N   0  0  0  0  0  0  0  0  0  0  0  0
    1.3093    1.1450    2.1332 H   0  0  0  0  0  0  0  0  0  0  0  0
    0.5577    3.1119    2.4582 C   0  0  0  0  0  0  0  0  0  0  0  0
   -0.3986    3.3098    2.9475 H   0  0  0  0  0  0  0  0  0  0  0  0
    1.3619    3.2123    3.1886 H   0  0  0  0  0  0  0  0  0  0  0  0
    0.6974    3.8450    1.6614 H   0  0  0  0  0  0  0  0  0  0  0  0
  5  6  2  0  0  0  0
  5  7  1  0  0  0  0
  2  3  1  0  0  0  0
  2  4  1  0  0  0  0
  2  5  1  0  0  0  0
  1  2  1  0  0  0  0
 24 25  2  0  0  0  0
 24 26  1  0  0  0  0
 20 21  1  0  0  0  0
 20 22  1  0  0  0  0
 20 23  1  0  0  0  0
 17 18  1  0  0  0  0
 17 19  1  0  0  0  0
 17 20  1  0  0  0  0
 13 14  1  0  0  0  0
 13 15  1  0  0  0  0
 13 16  1  0  0  0  0
 11 12  1  0  0  0  0
 11 13  1  0  0  0  0
 11 17  1  0  0  0  0
  9 10  1  0  0  0  0
  9 11  1  0  0  0  0
  9 24  1  0  0  0  0
  7  8  1  0  0  0  0
  7  9  1  0  0  0  0
 28 29  1  0  0  0  0
 28 30  1  0  0  0  0
 28 31  1  0  0  0  0
 26 27  1  0  0  0  0
 26 28  1  0  0  0  0
M  END
$$$$
default_name
  -OEChem-02102213163D

 31 30  0     1  0  0  0  0  0999 V2000
   -3.0760   -3.6390    1.5496 H   0  0  0  0  0  0  0  0  0  0  0  0
   -3.0940   -2.6290    1.1426 C   0  0  0  0  0  0  0  0  0  0  0  0
   -3.7160   -1.9930    1.7706 H   0  0  0  0  0  0  0  0  0  0  0  0
   -3.4880   -2.6500    0.1286 H   0  0  0  0  0  0  0  0  0  0  0  0
   -1.6860   -2.0850    1.1196 C   0  0  0  0  0  0  0  0  0  0  0  0
   -0.7540   -2.7700    1.5226 O   0  0  0  0  0  0  0  0  0  0  0  0
   -1.5320   -0.8490    0.6496 N   0  0  0  0  0  0  0  0  0  0  0  0
   -2.3500   -0.3360    0.3566 H   0  0  0  0  0  0  0  0  0  0  0  0
   -0.2470   -0.1410    0.5576 C   0  0  1  0  0  0  0  0  0  0  0  0
    0.4572   -0.6505    1.2162 H   0  0  0  0  0  0  0  0  0  0  0  0
    0.3091   -0.2220   -0.8868 C   0  0  1  0  0  0  0  0  0  0  0  0
   -0.5466   -0.3359   -1.5551 H   0  0  0  0  0  0  0  0  0  0  0  0
    1.0600    1.0580   -1.3009 C   0  0  0  0  0  0  0  0  0  0  0  0
    1.9698    1.1776   -0.7100 H   0  0  0  0  0  0  0  0  0  0  0  0
    1.3243    1.0168   -2.3564 H   0  0  0  0  0  0  0  0  0  0  0  0
    0.4255    1.9322   -1.1506 H   0  0  0  0  0  0  0  0  0  0  0  0
    1.2033   -1.4692   -1.0672 C   0  0  0  0  0  0  0  0  0  0  0  0
    0.6836   -2.2157   -1.6693 H   0  0  0  0  0  0  0  0  0  0  0  0
    2.1113   -1.1765   -1.5942 H   0  0  0  0  0  0  0  0  0  0  0  0
    1.6311   -2.1186    0.2559 C   0  0  0  0  0  0  0  0  0  0  0  0
    0.7665   -2.5277    0.7782 H   0  0  0  0  0  0  0  0  0  0  0  0
    2.3275   -2.9315    0.0487 H   0  0  0  0  0  0  0  0  0  0  0  0
    2.1252   -1.3820    0.8904 H   0  0  0  0  0  0  0  0  0  0  0  0
   -0.3971    1.3008    1.0689 C   0  0  0  0  0  0  0  0  0  0  0  0
   -1.3643    1.9819    0.7311 O   0  0  0  0  0  0  0  0  0  0  0  0
    0.5522    1.7647    1.8915 N   0  0  0  0  0  0  0  0  0  0  0  0
    1.3093    1.1450    2.1332 H   0  0  0  0  0  0  0  0  0  0  0  0
    0.5577    3.1119    2.4582 C   0  0  0  0  0  0  0  0  0  0  0  0
   -0.3986    3.3098    2.9475 H   0  0  0  0  0  0  0  0  0  0  0  0
    1.3619    3.2123    3.1886 H   0  0  0  0  0  0  0  0  0  0  0  0
    0.6974    3.8450    1.6614 H   0  0  0  0  0  0  0  0  0  0  0  0
  5  6  2  0  0  0  0
  5  7  1  0  0  0  0
  2  3  1  0  0  0  0
  2  4  1  0  0  0  0
  2  5  1  0  0  0  0
  1  2  1  0  0  0  0
 24 25  2  0  0  0  0
 24 26  1  0  0  0  0
 20 21  1  0  0  0  0
 20 22  1  0  0  0  0
 20 23  1  0  0  0  0
 17 18  1  0  0  0  0
 17 19  1  0  0  0  0
 17 20  1  0  0  0  0
 13 14  1  0  0  0  0
 13 15  1  0  0  0  0
 13 16  1  0  0  0  0
 11 12  1  0  0  0  0
 11 13  1  0  0  0  0
 11 17  1  0  0  0  0
  9 10  1  0  0  0  0
  9 11  1  0  0  0  0
  9 24  1  0  0  0  0
  7  8  1  0  0  0  0
  7  9  1  0  0  0  0
 28 29  1  0  0  0  0
 28 30  1  0  0  0  0
 28 31  1  0  0  0  0
 26 27  1  0  0  0  0
 26 28  1  0  0  0  0
M  END
$$$$
default_name
  -OEChem-02102213163D

 31 30  0     1  0  0  0  0  0999 V2000
   -3.0760   -3.6390    1.5496 H   0  0  0  0  0  0  0  0  0  0  0  0
   -3.0940   -2.6290    1.1426 C   0  0  0  0  0  0  0  0  0  0  0  0
   -3.7160   -1.9930    1.7706 H   0  0  0  0  0  0  0  0  0  0  0  0
   -3.4880   -2.6500    0.1286 H   0  0  0  0  0  0  0  0  0  0  0  0
   -1.6860   -2.0850    1.1196 C   0  0  0  0  0  0  0  0  0  0  0  0
   -0.7540   -2.7700    1.5226 O   0  0  0  0  0  0  0  0  0  0  0  0
   -1.5320   -0.8490    0.6496 N   0  0  0  0  0  0  0  0  0  0  0  0
   -2.3500   -0.3360    0.3566 H   0  0  0  0  0  0  0  0  0  0  0  0
   -0.2470   -0.1410    0.5576 C   0  0  1  0  0  0  0  0  0  0  0  0
    0.4572   -0.6505    1.2162 H   0  0  0  0  0  0  0  0  0  0  0  0
    0.3091   -0.2220   -0.8868 C   0  0  1  0  0  0  0  0  0  0  0  0
   -0.5466   -0.3359   -1.5551 H   0  0  0  0  0  0  0  0  0  0  0  0
    1.0600    1.0580   -1.3009 C   0  0  0  0  0  0  0  0  0  0  0  0
    1.9698    1.1776   -0.7100 H   0  0  0  0  0  0  0  0  0  0  0  0
    1.3243    1.0168   -2.3564 H   0  0  0  0  0  0  0  0  0  0  0  0
    0.4255    1.9322   -1.1506 H   0  0  0  0  0  0  0  0  0  0  0  0
    1.2033   -1.4692   -1.0672 C   0  0  0  0  0  0  0  0  0  0  0  0
    0.8119   -2.0947   -1.8706 H   0  0  0  0  0  0  0  0  0  0  0  0
    2.2062   -1.1446   -1.3441 H   0  0  0  0  0  0  0  0  0  0  0  0
    1.3327   -2.3245    0.2005 C   0  0  0  0  0  0  0  0  0  0  0  0
    0.3715   -2.7654    0.4640 H   0  0  0  0  0  0  0  0  0  0  0  0
    2.0454   -3.1295    0.0198 H   0  0  0  0  0  0  0  0  0  0  0  0
    1.6921   -1.7124    1.0284 H   0  0  0  0  0  0  0  0  0  0  0  0
   -0.3971    1.3008    1.0689 C   0  0  0  0  0  0  0  0  0  0  0  0
   -1.3643    1.9819    0.7311 O   0  0  0  0  0  0  0  0  0  0  0  0
    0.5522    1.7647    1.8915 N   0  0  0  0  0  0  0  0  0  0  0  0
    1.3093    1.1450    2.1332 H   0  0  0  0  0  0  0  0  0  0  0  0
    0.5577    3.1119    2.4582 C   0  0  0  0  0  0  0  0  0  0  0  0
   -0.3986    3.3098    2.9475 H   0  0  0  0  0  0  0  0  0  0  0  0
    1.3619    3.2123    3.1886 H   0  0  0  0  0  0  0  0  0  0  0  0
    0.6974    3.8450    1.6614 H   0  0  0  0  0  0  0  0  0  0  0  0
  5  6  2  0  0  0  0
  5  7  1  0  0  0  0
  2  3  1  0  0  0  0
  2  4  1  0  0  0  0
  2  5  1  0  0  0  0
  1  2  1  0  0  0  0
 24 25  2  0  0  0  0
 24 26  1  0  0  0  0
 20 21  1  0  0  0  0
 20 22  1  0  0  0  0
 20 23  1  0  0  0  0
 17 18  1  0  0  0  0
 17 19  1  0  0  0  0
 17 20  1  0  0  0  0
 13 14  1  0  0  0  0
 13 15  1  0  0  0  0
 13 16  1  0  0  0  0
 11 12  1  0  0  0  0
 11 13  1  0  0  0  0
 11 17  1  0  0  0  0
  9 10  1  0  0  0  0
  9 11  1  0  0  0  0
  9 24  1  0  0  0  0
  7  8  1  0  0  0  0
  7  9  1  0  0  0  0
 28 29  1  0  0  0  0
 28 30  1  0  0  0  0
 28 31  1  0  0  0  0
 26 27  1  0  0  0  0
 26 28  1  0  0  0  0
M  END
$$$$
default_name
  -OEChem-02102213163D

 31 30  0     1  0  0  0  0  0999 V2000
   -3.0760   -3.6390    1.5496 H   0  0  0  0  0  0  0  0  0  0  0  0
   -3.0940   -2.6290    1.1426 C   0  0  0  0  0  0  0  0  0  0  0  0
   -3.7160   -1.9930    1.7706 H   0  0  0  0  0  0  0  0  0  0  0  0
   -3.4880   -2.6500    0.1286 H   0  0  0  0  0  0  0  0  0  0  0  0
   -1.6860   -2.0850    1.1196 C   0  0  0  0  0  0  0  0  0  0  0  0
   -0.7540   -2.7700    1.5226 O   0  0  0  0  0  0  0  0  0  0  0  0
   -1.5320   -0.8490    0.6496 N   0  0  0  0  0  0  0  0  0  0  0  0
   -2.3500   -0.3360    0.3566 H   0  0  0  0  0  0  0  0  0  0  0  0
   -0.2470   -0.1410    0.5576 C   0  0  1  0  0  0  0  0  0  0  0  0
    0.4572   -0.6505    1.2162 H   0  0  0  0  0  0  0  0  0  0  0  0
    0.3091   -0.2220   -0.8868 C   0  0  1  0  0  0  0  0  0  0  0  0
   -0.5466   -0.3359   -1.5551 H   0  0  0  0  0  0  0  0  0  0  0  0
    1.0600    1.0580   -1.3009 C   0  0  0  0  0  0  0  0  0  0  0  0
    1.9698    1.1776   -0.7100 H   0  0  0  0  0  0  0  0  0  0  0  0
    1.3243    1.0168   -2.3564 H   0  0  0  0  0  0  0  0  0  0  0  0
    0.4255    1.9322   -1.1506 H   0  0  0  0  0  0  0  0  0  0  0  0
    1.2033   -1.4692   -1.0672 C   0  0  0  0  0  0  0  0  0  0  0  0
    0.9815   -1.9514   -2.0202 H   0  0  0  0  0  0  0  0  0  0  0  0
    2.2466   -1.1541   -1.0779 H   0  0  0  0  0  0  0  0  0  0  0  0
    1.0498   -2.5061    0.0538 C   0  0  0  0  0  0  0  0  0  0  0  0
    0.0484   -2.9361    0.0424 H   0  0  0  0  0  0  0  0  0  0  0  0
    1.7730   -3.3079   -0.0967 H   0  0  0  0  0  0  0  0  0  0  0  0
    1.2349   -2.0392    1.0218 H   0  0  0  0  0  0  0  0  0  0  0  0
   -0.3971    1.3008    1.0689 C   0  0  0  0  0  0  0  0  0  0  0  0
   -1.3643    1.9819    0.7311 O   0  0  0  0  0  0  0  0  0  0  0  0
    0.5522    1.7647    1.8915 N   0  0  0  0  0  0  0  0  0  0  0  0
    1.3093    1.1450    2.1332 H   0  0  0  0  0  0  0  0  0  0  0  0
    0.5577    3.1119    2.4582 C   0  0  0  0  0  0  0  0  0  0  0  0
   -0.3986    3.3098    2.9475 H   0  0  0  0  0  0  0  0  0  0  0  0
    1.3619    3.2123    3.1886 H   0  0  0  0  0  0  0  0  0  0  0  0
    0.6974    3.8450    1.6614 H   0  0  0  0  0  0  0  0  0  0  0  0
  5  6  2  0  0  0  0
  5  7  1  0  0  0  0
  2  3  1  0  0  0  0
  2  4  1  0  0  0  0
  2  5  1  0  0  0  0
  1  2  1  0  0  0  0
 24 25  2  0  0  0  0
 24 26  1  0  0  0  0
 20 21  1  0  0  0  0
 20 22  1  0  0  0  0
 20 23  1  0  0  0  0
 17 18  1  0  0  0  0
 17 19  1  0  0  0  0
 17 20  1  0  0  0  0
 13 14  1  0  0  0  0
 13 15  1  0  0  0  0
 13 16  1  0  0  0  0
 11 12  1  0  0  0  0
 11 13  1  0  0  0  0
 11 17  1  0  0  0  0
  9 10  1  0  0  0  0
  9 11  1  0  0  0  0
  9 24  1  0  0  0  0
  7  8  1  0  0  0  0
  7  9  1  0  0  0  0
 28 29  1  0  0  0  0
 28 30  1  0  0  0  0
 28 31  1  0  0  0  0
 26 27  1  0  0  0  0
 26 28  1  0  0  0  0
M  END
$$$$
default_name
  -OEChem-02102213163D

 31 30  0     1  0  0  0  0  0999 V2000
   -3.0760   -3.6390    1.5496 H   0  0  0  0  0  0  0  0  0  0  0  0
   -3.0940   -2.6290    1.1426 C   0  0  0  0  0  0  0  0  0  0  0  0
   -3.7160   -1.9930    1.7706 H   0  0  0  0  0  0  0  0  0  0  0  0
   -3.4880   -2.6500    0.1286 H   0  0  0  0  0  0  0  0  0  0  0  0
   -1.6860   -2.0850    1.1196 C   0  0  0  0  0  0  0  0  0  0  0  0
   -0.7540   -2.7700    1.5226 O   0  0  0  0  0  0  0  0  0  0  0  0
   -1.5320   -0.8490    0.6496 N   0  0  0  0  0  0  0  0  0  0  0  0
   -2.3500   -0.3360    0.3566 H   0  0  0  0  0  0  0  0  0  0  0  0
   -0.2470   -0.1410    0.5576 C   0  0  1  0  0  0  0  0  0  0  0  0
    0.4572   -0.6505    1.2162 H   0  0  0  0  0  0  0  0  0  0  0  0
    0.3091   -0.2220   -0.8868 C   0  0  1  0  0  0  0  0  0  0  0  0
   -0.5466   -0.3359   -1.5551 H   0  0  0  0  0  0  0  0  0  0  0  0
    1.0600    1.0580   -1.3009 C   0  0  0  0  0  0  0  0  0  0  0  0
    1.9698    1.1776   -0.7100 H   0  0  0  0  0  0  0  0  0  0  0  0
    1.3243    1.0168   -2.3564 H   0  0  0  0  0  0  0  0  0  0  0  0
    0.4255    1.9322   -1.1506 H   0  0  0  0  0  0  0  0  0  0  0  0
    1.2033   -1.4692   -1.0672 C   0  0  0  0  0  0  0  0  0  0  0  0
    1.1810   -1.7958   -2.1077 H   0  0  0  0  0  0  0  0  0  0  0  0
    2.2298   -1.2044   -0.8138 H   0  0  0  0  0  0  0  0  0  0  0  0
    0.8017   -2.6510   -0.1742 C   0  0  0  0  0  0  0  0  0  0  0  0
   -0.1807   -3.0280   -0.4579 H   0  0  0  0  0  0  0  0  0  0  0  0
    1.5289   -3.4546   -0.2929 H   0  0  0  0  0  0  0  0  0  0  0  0
    0.7849   -2.3400    0.8709 H   0  0  0  0  0  0  0  0  0  0  0  0
   -0.3971    1.3008    1.0689 C   0  0  0  0  0  0  0  0  0  0  0  0
   -1.3643    1.9819    0.7311 O   0  0  0  0  0  0  0  0  0  0  0  0
    0.5522    1.7647    1.8915 N   0  0  0  0  0  0  0  0  0  0  0  0
    1.3093    1.1450    2.1332 H   0  0  0  0  0  0  0  0  0  0  0  0
    0.5577    3.1119    2.4582 C   0  0  0  0  0  0  0  0  0  0  0  0
   -0.3986    3.3098    2.9475 H   0  0  0  0  0  0  0  0  0  0  0  0
    1.3619    3.2123    3.1886 H   0  0  0  0  0  0  0  0  0  0  0  0
    0.6974    3.8450    1.6614 H   0  0  0  0  0  0  0  0  0  0  0  0
  5  6  2  0  0  0  0
  5  7  1  0  0  0  0
  2  3  1  0  0  0  0
  2  4  1  0  0  0  0
  2  5  1  0  0  0  0
  1  2  1  0  0  0  0
 24 25  2  0  0  0  0
 24 26  1  0  0  0  0
 20 21  1  0  0  0  0
 20 22  1  0  0  0  0
 20 23  1  0  0  0  0
 17 18  1  0  0  0  0
 17 19  1  0  0  0  0
 17 20  1  0  0  0  0
 13 14  1  0  0  0  0
 13 15  1  0  0  0  0
 13 16  1  0  0  0  0
 11 12  1  0  0  0  0
 11 13  1  0  0  0  0
 11 17  1  0  0  0  0
  9 10  1  0  0  0  0
  9 11  1  0  0  0  0
  9 24  1  0  0  0  0
  7  8  1  0  0  0  0
  7  9  1  0  0  0  0
 28 29  1  0  0  0  0
 28 30  1  0  0  0  0
 28 31  1  0  0  0  0
 26 27  1  0  0  0  0
 26 28  1  0  0  0  0
M  END
$$$$
default_name
  -OEChem-02102213163D

 31 30  0     1  0  0  0  0  0999 V2000
   -3.0760   -3.6390    1.5496 H   0  0  0  0  0  0  0  0  0  0  0  0
   -3.0940   -2.6290    1.1426 C   0  0  0  0  0  0  0  0  0  0  0  0
   -3.7160   -1.9930    1.7706 H   0  0  0  0  0  0  0  0  0  0  0  0
   -3.4880   -2.6500    0.1286 H   0  0  0  0  0  0  0  0  0  0  0  0
   -1.6860   -2.0850    1.1196 C   0  0  0  0  0  0  0  0  0  0  0  0
   -0.7540   -2.7700    1.5226 O   0  0  0  0  0  0  0  0  0  0  0  0
   -1.5320   -0.8490    0.6496 N   0  0  0  0  0  0  0  0  0  0  0  0
   -2.3500   -0.3360    0.3566 H   0  0  0  0  0  0  0  0  0  0  0  0
   -0.2470   -0.1410    0.5576 C   0  0  1  0  0  0  0  0  0  0  0  0
    0.4572   -0.6505    1.2162 H   0  0  0  0  0  0  0  0  0  0  0  0
    0.3091   -0.2220   -0.8868 C   0  0  1  0  0  0  0  0  0  0  0  0
   -0.5466   -0.3359   -1.5551 H   0  0  0  0  0  0  0  0  0  0  0  0
    1.0600    1.0580   -1.3009 C   0  0  0  0  0  0  0  0  0  0  0  0
    1.9698    1.1776   -0.7100 H   0  0  0  0  0  0  0  0  0  0  0  0
    1.3243    1.0168   -2.3564 H   0  0  0  0  0  0  0  0  0  0  0  0
    0.4255    1.9322   -1.1506 H   0  0  0  0  0  0  0  0  0  0  0  0
    1.2033   -1.4692   -1.0672 C   0  0  0  0  0  0  0  0  0  0  0  0
    1.3966   -1.6384   -2.1273 H   0  0  0  0  0  0  0  0  0  0  0  0
    2.1567   -1.2920   -0.5697 H   0  0  0  0  0  0  0  0  0  0  0  0
    0.6053   -2.7493   -0.4680 C   0  0  0  0  0  0  0  0  0  0  0  0
   -0.3003   -3.0350   -1.0028 H   0  0  0  0  0  0  0  0  0  0  0  0
    1.3296   -3.5595   -0.5554 H   0  0  0  0  0  0  0  0  0  0  0  0
    0.3725   -2.5944    0.5861 H   0  0  0  0  0  0  0  0  0  0  0  0
   -0.3971    1.3008    1.0689 C   0  0  0  0  0  0  0  0  0  0  0  0
   -1.3643    1.9819    0.7311 O   0  0  0  0  0  0  0  0  0  0  0  0
    0.5522    1.7647    1.8915 N   0  0  0  0  0  0  0  0  0  0  0  0
    1.3093    1.1450    2.1332 H   0  0  0  0  0  0  0  0  0  0  0  0
    0.5577    3.1119    2.4582 C   0  0  0  0  0  0  0  0  0  0  0  0
   -0.3986    3.3098    2.9475 H   0  0  0  0  0  0  0  0  0  0  0  0
    1.3619    3.2123    3.1886 H   0  0  0  0  0  0  0  0  0  0  0  0
    0.6974    3.8450    1.6614 H   0  0  0  0  0  0  0  0  0  0  0  0
  5  6  2  0  0  0  0
  5  7  1  0  0  0  0
  2  3  1  0  0  0  0
  2  4  1  0  0  0  0
  2  5  1  0  0  0  0
  1  2  1  0  0  0  0
 24 25  2  0  0  0  0
 24 26  1  0  0  0  0
 20 21  1  0  0  0  0
 20 22  1  0  0  0  0
 20 23  1  0  0  0  0
 17 18  1  0  0  0  0
 17 19  1  0  0  0  0
 17 20  1  0  0  0  0
 13 14  1  0  0  0  0
 13 15  1  0  0  0  0
 13 16  1  0  0  0  0
 11 12  1  0  0  0  0
 11 13  1  0  0  0  0
 11 17  1  0  0  0  0
  9 10  1  0  0  0  0
  9 11  1  0  0  0  0
  9 24  1  0  0  0  0
  7  8  1  0  0  0  0
  7  9  1  0  0  0  0
 28 29  1  0  0  0  0
 28 30  1  0  0  0  0
 28 31  1  0  0  0  0
 26 27  1  0  0  0  0
 26 28  1  0  0  0  0
M  END
$$$$
default_name
  -OEChem-02102213163D

 31 30  0     1  0  0  0  0  0999 V2000
   -3.0760   -3.6390    1.5496 H   0  0  0  0  0  0  0  0  0  0  0  0
   -3.0940   -2.6290    1.1426 C   0  0  0  0  0  0  0  0  0  0  0  0
   -3.7160   -1.9930    1.7706 H   0  0  0  0  0  0  0  0  0  0  0  0
   -3.4880   -2.6500    0.1286 H   0  0  0  0  0  0  0  0  0  0  0  0
   -1.6860   -2.0850    1.1196 C   0  0  0  0  0  0  0  0  0  0  0  0
   -0.7540   -2.7700    1.5226 O   0  0  0  0  0  0  0  0  0  0  0  0
   -1.5320   -0.8490    0.6496 N   0  0  0  0  0  0  0  0  0  0  0  0
   -2.3500   -0.3360    0.3566 H   0  0  0  0  0  0  0  0  0  0  0  0
   -0.2470   -0.1410    0.5576 C   0  0  1  0  0  0  0  0  0  0  0  0
    0.4572   -0.6505    1.2162 H   0  0  0  0  0  0  0  0  0  0  0  0
    0.3091   -0.2220   -0.8868 C   0  0  1  0  0  0  0  0  0  0  0  0
   -0.5466   -0.3359   -1.5551 H   0  0  0  0  0  0  0  0  0  0  0  0
    1.0600    1.0580   -1.3009 C   0  0  0  0  0  0  0  0  0  0  0  0
    1.9698    1.1776   -0.7100 H   0  0  0  0  0  0  0  0  0  0  0  0
    1.3243    1.0168   -2.3564 H   0  0  0  0  0  0  0  0  0  0  0  0
    0.4255    1.9322   -1.1506 H   0  0  0  0  0  0  0  0  0  0  0  0
    1.2033   -1.4692   -1.0672 C   0  0  0  0  0  0  0  0  0  0  0  0
    1.6137   -1.4900   -2.0776 H   0  0  0  0  0  0  0  0  0  0  0  0
    2.0326   -1.4110   -0.3623 H   0  0  0  0  0  0  0  0  0  0  0  0
    0.4740   -2.7944   -0.8075 C   0  0  0  0  0  0  0  0  0  0  0  0
   -0.3022   -2.9565   -1.5551 H   0  0  0  0  0  0  0  0  0  0  0  0
    1.1888   -3.6155   -0.8662 H   0  0  0  0  0  0  0  0  0  0  0  0
    0.0261   -2.7851    0.1868 H   0  0  0  0  0  0  0  0  0  0  0  0
   -0.3971    1.3008    1.0689 C   0  0  0  0  0  0  0  0  0  0  0  0
   -1.3643    1.9819    0.7311 O   0  0  0  0  0  0  0  0  0  0  0  0
    0.5522    1.7647    1.8915 N   0  0  0  0  0  0  0  0  0  0  0  0
    1.3093    1.1450    2.1332 H   0  0  0  0  0  0  0  0  0  0  0  0
    0.5577    3.1119    2.4582 C   0  0  0  0  0  0  0  0  0  0  0  0
   -0.3986    3.3098    2.9475 H   0  0  0  0  0  0  0  0  0  0  0  0
    1.3619    3.2123    3.1886 H   0  0  0  0  0  0  0  0  0  0  0  0
    0.6974    3.8450    1.6614 H   0  0  0  0  0  0  0  0  0  0  0  0
  5  6  2  0  0  0  0
  5  7  1  0  0  0  0
  2  3  1  0  0  0  0
  2  4  1  0  0  0  0
  2  5  1  0  0  0  0
  1  2  1  0  0  0  0
 24 25  2  0  0  0  0
 24 26  1  0  0  0  0
 20 21  1  0  0  0  0
 20 22  1  0  0  0  0
 20 23  1  0  0  0  0
 17 18  1  0  0  0  0
 17 19  1  0  0  0  0
 17 20  1  0  0  0  0
 13 14  1  0  0  0  0
 13 15  1  0  0  0  0
 13 16  1  0  0  0  0
 11 12  1  0  0  0  0
 11 13  1  0  0  0  0
 11 17  1  0  0  0  0
  9 10  1  0  0  0  0
  9 11  1  0  0  0  0
  9 24  1  0  0  0  0
  7  8  1  0  0  0  0
  7  9  1  0  0  0  0
 28 29  1  0  0  0  0
 28 30  1  0  0  0  0
 28 31  1  0  0  0  0
 26 27  1  0  0  0  0
 26 28  1  0  0  0  0
M  END
$$$$
default_name
  -OEChem-02102213163D

 31 30  0     1  0  0  0  0  0999 V2000
   -3.0760   -3.6390    1.5496 H   0  0  0  0  0  0  0  0  0  0  0  0
   -3.0940   -2.6290    1.1426 C   0  0  0  0  0  0  0  0  0  0  0  0
   -3.7160   -1.9930    1.7706 H   0  0  0  0  0  0  0  0  0  0  0  0
   -3.4880   -2.6500    0.1286 H   0  0  0  0  0  0  0  0  0  0  0  0
   -1.6860   -2.0850    1.1196 C   0  0  0  0  0  0  0  0  0  0  0  0
   -0.7540   -2.7700    1.5226 O   0  0  0  0  0  0  0  0  0  0  0  0
   -1.5320   -0.8490    0.6496 N   0  0  0  0  0  0  0  0  0  0  0  0
   -2.3500   -0.3360    0.3566 H   0  0  0  0  0  0  0  0  0  0  0  0
   -0.2470   -0.1410    0.5576 C   0  0  1  0  0  0  0  0  0  0  0  0
    0.4572   -0.6505    1.2162 H   0  0  0  0  0  0  0  0  0  0  0  0
    0.3091   -0.2220   -0.8868 C   0  0  1  0  0  0  0  0  0  0  0  0
   -0.5466   -0.3359   -1.5551 H   0  0  0  0  0  0  0  0  0  0  0  0
    1.0600    1.0580   -1.3009 C   0  0  0  0  0  0  0  0  0  0  0  0
    1.9698    1.1776   -0.7100 H   0  0  0  0  0  0  0  0  0  0  0  0
    1.3243    1.0168   -2.3564 H   0  0  0  0  0  0  0  0  0  0  0  0
    0.4255    1.9322   -1.1506 H   0  0  0  0  0  0  0  0  0  0  0  0
    1.2033   -1.4692   -1.0672 C   0  0  0  0  0  0  0  0  0  0  0  0
    1.8175   -1.3605   -1.9620 H   0  0  0  0  0  0  0  0  0  0  0  0
    1.8657   -1.5533   -0.2057 H   0  0  0  0  0  0  0  0  0  0  0  0
    0.4168   -2.7831   -1.1696 C   0  0  0  0  0  0  0  0  0  0  0  0
   -0.1863   -2.7979   -2.0773 H   0  0  0  0  0  0  0  0  0  0  0  0
    1.1160   -3.6188   -1.2043 H   0  0  0  0  0  0  0  0  0  0  0  0
   -0.2309   -2.8989   -0.2999 H   0  0  0  0  0  0  0  0  0  0  0  0
   -0.3971    1.3008    1.0689 C   0  0  0  0  0  0  0  0  0  0  0  0
   -1.3643    1.9819    0.7311 O   0  0  0  0  0  0  0  0  0  0  0  0
    0.5522    1.7647    1.8915 N   0  0  0  0  0  0  0  0  0  0  0  0
    1.3093    1.1450    2.1332 H   0  0  0  0  0  0  0  0  0  0  0  0
    0.5577    3.1119    2.4582 C   0  0  0  0  0  0  0  0  0  0  0  0
   -0.3986    3.3098    2.9475 H   0  0  0  0  0  0  0  0  0  0  0  0
    1.3619    3.2123    3.1886 H   0  0  0  0  0  0  0  0  0  0  0  0
    0.6974    3.8450    1.6614 H   0  0  0  0  0  0  0  0  0  0  0  0
  5  6  2  0  0  0  0
  5  7  1  0  0  0  0
  2  3  1  0  0  0  0
  2  4  1  0  0  0  0
  2  5  1  0  0  0  0
  1  2  1  0  0  0  0
 24 25  2  0  0  0  0
 24 26  1  0  0  0  0
 20 21  1  0  0  0  0
 20 22  1  0  0  0  0
 20 23  1  0  0  0  0
 17 18  1  0  0  0  0
 17 19  1  0  0  0  0
 17 20  1  0  0  0  0
 13 14  1  0  0  0  0
 13 15  1  0  0  0  0
 13 16  1  0  0  0  0
 11 12  1  0  0  0  0
 11 13  1  0  0  0  0
 11 17  1  0  0  0  0
  9 10  1  0  0  0  0
  9 11  1  0  0  0  0
  9 24  1  0  0  0  0
  7  8  1  0  0  0  0
  7  9  1  0  0  0  0
 28 29  1  0  0  0  0
 28 30  1  0  0  0  0
 28 31  1  0  0  0  0
 26 27  1  0  0  0  0
 26 28  1  0  0  0  0
M  END
$$$$
default_name
  -OEChem-02102213163D

 31 30  0     1  0  0  0  0  0999 V2000
   -3.0760   -3.6390    1.5496 H   0  0  0  0  0  0  0  0  0  0  0  0
   -3.0940   -2.6290    1.1426 C   0  0  0  0  0  0  0  0  0  0  0  0
   -3.7160   -1.9930    1.7706 H   0  0  0  0  0  0  0  0  0  0  0  0
   -3.4880   -2.6500    0.1286 H   0  0  0  0  0  0  0  0  0  0  0  0
   -1.6860   -2.0850    1.1196 C   0  0  0  0  0  0  0  0  0  0  0  0
   -0.7540   -2.7700    1.5226 O   0  0  0  0  0  0  0  0  0  0  0  0
   -1.5320   -0.8490    0.6496 N   0  0  0  0  0  0  0  0  0  0  0  0
   -2.3500   -0.3360    0.3566 H   0  0  0  0  0  0  0  0  0  0  0  0
   -0.2470   -0.1410    0.5576 C   0  0  1  0  0  0  0  0  0  0  0  0
    0.4572   -0.6505    1.2162 H   0  0  0  0  0  0  0  0  0  0  0  0
    0.3091   -0.2220   -0.8868 C   0  0  1  0  0  0  0  0  0  0  0  0
   -0.5466   -0.3359   -1.5551 H   0  0  0  0  0  0  0  0  0  0  0  0
    1.0600    1.0580   -1.3009 C   0  0  0  0  0  0  0  0  0  0  0  0
    1.9698    1.1776   -0.7100 H   0  0  0  0  0  0  0  0  0  0  0  0
    1.3243    1.0168   -2.3564 H   0  0  0  0  0  0  0  0  0  0  0  0
    0.4255    1.9322   -1.1506 H   0  0  0  0  0  0  0  0  0  0  0  0
    1.2033   -1.4692   -1.0672 C   0  0  0  0  0  0  0  0  0  0  0  0
    1.9941   -1.2590   -1.7884 H   0  0  0  0  0  0  0  0  0  0  0  0
    1.6676   -1.7091   -0.1107 H   0  0  0  0  0  0  0  0  0  0  0  0
    0.4374   -2.7162   -1.5297 C   0  0  0  0  0  0  0  0  0  0  0  0
    0.0396   -2.5699   -2.5337 H   0  0  0  0  0  0  0  0  0  0  0  0
    1.1162   -3.5692   -1.5466 H   0  0  0  0  0  0  0  0  0  0  0  0
   -0.3809   -2.9283   -0.8407 H   0  0  0  0  0  0  0  0  0  0  0  0
   -0.3971    1.3008    1.0689 C   0  0  0  0  0  0  0  0  0  0  0  0
   -1.3643    1.9819    0.7311 O   0  0  0  0  0  0  0  0  0  0  0  0
    0.5522    1.7647    1.8915 N   0  0  0  0  0  0  0  0  0  0  0  0
    1.3093    1.1450    2.1332 H   0  0  0  0  0  0  0  0  0  0  0  0
    0.5577    3.1119    2.4582 C   0  0  0  0  0  0  0  0  0  0  0  0
   -0.3986    3.3098    2.9475 H   0  0  0  0  0  0  0  0  0  0  0  0
    1.3619    3.2123    3.1886 H   0  0  0  0  0  0  0  0  0  0  0  0
    0.6974    3.8450    1.6614 H   0  0  0  0  0  0  0  0  0  0  0  0
  5  6  2  0  0  0  0
  5  7  1  0  0  0  0
  2  3  1  0  0  0  0
  2  4  1  0  0  0  0
  2  5  1  0  0  0  0
  1  2  1  0  0  0  0
 24 25  2  0  0  0  0
 24 26  1  0  0  0  0
 20 21  1  0  0  0  0
 20 22  1  0  0  0  0
 20 23  1  0  0  0  0
 17 18  1  0  0  0  0
 17 19  1  0  0  0  0
 17 20  1  0  0  0  0
 13 14  1  0  0  0  0
 13 15  1  0  0  0  0
 13 16  1  0  0  0  0
 11 12  1  0  0  0  0
 11 13  1  0  0  0  0
 11 17  1  0  0  0  0
  9 10  1  0  0  0  0
  9 11  1  0  0  0  0
  9 24  1  0  0  0  0
  7  8  1  0  0  0  0
  7  9  1  0  0  0  0
 28 29  1  0  0  0  0
 28 30  1  0  0  0  0
 28 31  1  0  0  0  0
 26 27  1  0  0  0  0
 26 28  1  0  0  0  0
M  END
$$$$
default_name
  -OEChem-02102213163D

 31 30  0     1  0  0  0  0  0999 V2000
   -3.0760   -3.6390    1.5496 H   0  0  0  0  0  0  0  0  0  0  0  0
   -3.0940   -2.6290    1.1426 C   0  0  0  0  0  0  0  0  0  0  0  0
   -3.7160   -1.9930    1.7706 H   0  0  0  0  0  0  0  0  0  0  0  0
   -3.4880   -2.6500    0.1286 H   0  0  0  0  0  0  0  0  0  0  0  0
   -1.6860   -2.0850    1.1196 C   0  0  0  0  0  0  0  0  0  0  0  0
   -0.7540   -2.7700    1.5226 O   0  0  0  0  0  0  0  0  0  0  0  0
   -1.5320   -0.8490    0.6496 N   0  0  0  0  0  0  0  0  0  0  0  0
   -2.3500   -0.3360    0.3566 H   0  0  0  0  0  0  0  0  0  0  0  0
   -0.2470   -0.1410    0.5576 C   0  0  1  0  0  0  0  0  0  0  0  0
    0.4572   -0.6505    1.2162 H   0  0  0  0  0  0  0  0  0  0  0  0
    0.3091   -0.2220   -0.8868 C   0  0  1  0  0  0  0  0  0  0  0  0
   -0.5466   -0.3359   -1.5551 H   0  0  0  0  0  0  0  0  0  0  0  0
    1.0600    1.0580   -1.3009 C   0  0  0  0  0  0  0  0  0  0  0  0
    1.9698    1.1776   -0.7100 H   0  0  0  0  0  0  0  0  0  0  0  0
    1.3243    1.0168   -2.3564 H   0  0  0  0  0  0  0  0  0  0  0  0
    0.4255    1.9322   -1.1506 H   0  0  0  0  0  0  0  0  0  0  0  0
    1.2033   -1.4692   -1.0672 C   0  0  0  0  0  0  0  0  0  0  0  0
    2.1316   -1.1923   -1.5686 H   0  0  0  0  0  0  0  0  0  0  0  0
    1.4516   -1.8678   -0.0836 H   0  0  0  0  0  0  0  0  0  0  0  0
    0.5347   -2.5983   -1.8631 C   0  0  0  0  0  0  0  0  0  0  0  0
    0.3600   -2.2883   -2.8932 H   0  0  0  0  0  0  0  0  0  0  0  0
    1.1894   -3.4700   -1.8697 H   0  0  0  0  0  0  0  0  0  0  0  0
   -0.4137   -2.8711   -1.3988 H   0  0  0  0  0  0  0  0  0  0  0  0
   -0.3971    1.3008    1.0689 C   0  0  0  0  0  0  0  0  0  0  0  0
   -1.3643    1.9819    0.7311 O   0  0  0  0  0  0  0  0  0  0  0  0
    0.5522    1.7647    1.8915 N   0  0  0  0  0  0  0  0  0  0  0  0
    1.3093    1.1450    2.1332 H   0  0  0  0  0  0  0  0  0  0  0  0
    0.5577    3.1119    2.4582 C   0  0  0  0  0  0  0  0  0  0  0  0
   -0.3986    3.3098    2.9475 H   0  0  0  0  0  0  0  0  0  0  0  0
    1.3619    3.2123    3.1886 H   0  0  0  0  0  0  0  0  0  0  0  0
    0.6974    3.8450    1.6614 H   0  0  0  0  0  0  0  0  0  0  0  0
  5  6  2  0  0  0  0
  5  7  1  0  0  0  0
  2  3  1  0  0  0  0
  2  4  1  0  0  0  0
  2  5  1  0  0  0  0
  1  2  1  0  0  0  0
 24 25  2  0  0  0  0
 24 26  1  0  0  0  0
 20 21  1  0  0  0  0
 20 22  1  0  0  0  0
 20 23  1  0  0  0  0
 17 18  1  0  0  0  0
 17 19  1  0  0  0  0
 17 20  1  0  0  0  0
 13 14  1  0  0  0  0
 13 15  1  0  0  0  0
 13 16  1  0  0  0  0
 11 12  1  0  0  0  0
 11 13  1  0  0  0  0
 11 17  1  0  0  0  0
  9 10  1  0  0  0  0
  9 11  1  0  0  0  0
  9 24  1  0  0  0  0
  7  8  1  0  0  0  0
  7  9  1  0  0  0  0
 28 29  1  0  0  0  0
 28 30  1  0  0  0  0
 28 31  1  0  0  0  0
 26 27  1  0  0  0  0
 26 28  1  0  0  0  0
M  END
$$$$
default_name
  -OEChem-02102213163D

 31 30  0     1  0  0  0  0  0999 V2000
   -3.0760   -3.6390    1.5496 H   0  0  0  0  0  0  0  0  0  0  0  0
   -3.0940   -2.6290    1.1426 C   0  0  0  0  0  0  0  0  0  0  0  0
   -3.7160   -1.9930    1.7706 H   0  0  0  0  0  0  0  0  0  0  0  0
   -3.4880   -2.6500    0.1286 H   0  0  0  0  0  0  0  0  0  0  0  0
   -1.6860   -2.0850    1.1196 C   0  0  0  0  0  0  0  0  0  0  0  0
   -0.7540   -2.7700    1.5226 O   0  0  0  0  0  0  0  0  0  0  0  0
   -1.5320   -0.8490    0.6496 N   0  0  0  0  0  0  0  0  0  0  0  0
   -2.3500   -0.3360    0.3566 H   0  0  0  0  0  0  0  0  0  0  0  0
   -0.2470   -0.1410    0.5576 C   0  0  1  0  0  0  0  0  0  0  0  0
    0.4572   -0.6505    1.2162 H   0  0  0  0  0  0  0  0  0  0  0  0
    0.3091   -0.2220   -0.8868 C   0  0  1  0  0  0  0  0  0  0  0  0
   -0.5466   -0.3359   -1.5551 H   0  0  0  0  0  0  0  0  0  0  0  0
    1.0600    1.0580   -1.3009 C   0  0  0  0  0  0  0  0  0  0  0  0
    1.9698    1.1776   -0.7100 H   0  0  0  0  0  0  0  0  0  0  0  0
    1.3243    1.0168   -2.3564 H   0  0  0  0  0  0  0  0  0  0  0  0
    0.4255    1.9322   -1.1506 H   0  0  0  0  0  0  0  0  0  0  0  0
    1.2033   -1.4692   -1.0672 C   0  0  0  0  0  0  0  0  0  0  0  0
    2.2204   -1.1649   -1.3176 H   0  0  0  0  0  0  0  0  0  0  0  0
    1.2325   -2.0187   -0.1263 H   0  0  0  0  0  0  0  0  0  0  0  0
    0.7018   -2.4374   -2.1472 C   0  0  0  0  0  0  0  0  0  0  0  0
    0.7531   -1.9720   -3.1314 H   0  0  0  0  0  0  0  0  0  0  0  0
    1.3306   -3.3280   -2.1517 H   0  0  0  0  0  0  0  0  0  0  0  0
   -0.3270   -2.7313   -1.9362 H   0  0  0  0  0  0  0  0  0  0  0  0
   -0.3971    1.3008    1.0689 C   0  0  0  0  0  0  0  0  0  0  0  0
   -1.3643    1.9819    0.7311 O   0  0  0  0  0  0  0  0  0  0  0  0
    0.5522    1.7647    1.8915 N   0  0  0  0  0  0  0  0  0  0  0  0
    1.3093    1.1450    2.1332 H   0  0  0  0  0  0  0  0  0  0  0  0
    0.5577    3.1119    2.4582 C   0  0  0  0  0  0  0  0  0  0  0  0
   -0.3986    3.3098    2.9475 H   0  0  0  0  0  0  0  0  0  0  0  0
    1.3619    3.2123    3.1886 H   0  0  0  0  0  0  0  0  0  0  0  0
    0.6974    3.8450    1.6614 H   0  0  0  0  0  0  0  0  0  0  0  0
  5  6  2  0  0  0  0
  5  7  1  0  0  0  0
  2  3  1  0  0  0  0
  2  4  1  0  0  0  0
  2  5  1  0  0  0  0
  1  2  1  0  0  0  0
 24 25  2  0  0  0  0
 24 26  1  0  0  0  0
 20 21  1  0  0  0  0
 20 22  1  0  0  0  0
 20 23  1  0  0  0  0
 17 18  1  0  0  0  0
 17 19  1  0  0  0  0
 17 20  1  0  0  0  0
 13 14  1  0  0  0  0
 13 15  1  0  0  0  0
 13 16  1  0  0  0  0
 11 12  1  0  0  0  0
 11 13  1  0  0  0  0
 11 17  1  0  0  0  0
  9 10  1  0  0  0  0
  9 11  1  0  0  0  0
  9 24  1  0  0  0  0
  7  8  1  0  0  0  0
  7  9  1  0  0  0  0
 28 29  1  0  0  0  0
 28 30  1  0  0  0  0
 28 31  1  0  0  0  0
 26 27  1  0  0  0  0
 26 28  1  0  0  0  0
M  END
$$$$
default_name
  -OEChem-02102213163D

 31 30  0     1  0  0  0  0  0999 V2000
   -3.0760   -3.6390    1.5496 H   0  0  0  0  0  0  0  0  0  0  0  0
   -3.0940   -2.6290    1.1426 C   0  0  0  0  0  0  0  0  0  0  0  0
   -3.7160   -1.9930    1.7706 H   0  0  0  0  0  0  0  0  0  0  0  0
   -3.4880   -2.6500    0.1286 H   0  0  0  0  0  0  0  0  0  0  0  0
   -1.6860   -2.0850    1.1196 C   0  0  0  0  0  0  0  0  0  0  0  0
   -0.7540   -2.7700    1.5226 O   0  0  0  0  0  0  0  0  0  0  0  0
   -1.5320   -0.8490    0.6496 N   0  0  0  0  0  0  0  0  0  0  0  0
   -2.3500   -0.3360    0.3566 H   0  0  0  0  0  0  0  0  0  0  0  0
   -0.2470   -0.1410    0.5576 C   0  0  1  0  0  0  0  0  0  0  0  0
    0.4572   -0.6505    1.2162 H   0  0  0  0  0  0  0  0  0  0  0  0
    0.3091   -0.2220   -0.8868 C   0  0  1  0  0  0  0  0  0  0  0  0
   -0.5466   -0.3359   -1.5551 H   0  0  0  0  0  0  0  0  0  0  0  0
    1.0600    1.0580   -1.3009 C   0  0  0  0  0  0  0  0  0  0  0  0
    1.9698    1.1776   -0.7100 H   0  0  0  0  0  0  0  0  0  0  0  0
    1.3243    1.0168   -2.3564 H   0  0  0  0  0  0  0  0  0  0  0  0
    0.4255    1.9322   -1.1506 H   0  0  0  0  0  0  0  0  0  0  0  0
    1.2033   -1.4692   -1.0672 C   0  0  0  0  0  0  0  0  0  0  0  0
    2.2546   -1.1787   -1.0525 H   0  0  0  0  0  0  0  0  0  0  0  0
    1.0253   -2.1514   -0.2359 H   0  0  0  0  0  0  0  0  0  0  0  0
    0.9274   -2.2445   -2.3626 C   0  0  0  0  0  0  0  0  0  0  0  0
    1.1921   -1.6428   -3.2319 H   0  0  0  0  0  0  0  0  0  0  0  0
    1.5302   -3.1528   -2.3732 H   0  0  0  0  0  0  0  0  0  0  0  0
   -0.1268   -2.5183   -2.4162 H   0  0  0  0  0  0  0  0  0  0  0  0
   -0.3971    1.3008    1.0689 C   0  0  0  0  0  0  0  0  0  0  0  0
   -1.3643    1.9819    0.7311 O   0  0  0  0  0  0  0  0  0  0  0  0
    0.5522    1.7647    1.8915 N   0  0  0  0  0  0  0  0  0  0  0  0
    1.3093    1.1450    2.1332 H   0  0  0  0  0  0  0  0  0  0  0  0
    0.5577    3.1119    2.4582 C   0  0  0  0  0  0  0  0  0  0  0  0
   -0.3986    3.3098    2.9475 H   0  0  0  0  0  0  0  0  0  0  0  0
    1.3619    3.2123    3.1886 H   0  0  0  0  0  0  0  0  0  0  0  0
    0.6974    3.8450    1.6614 H   0  0  0  0  0  0  0  0  0  0  0  0
  5  6  2  0  0  0  0
  5  7  1  0  0  0  0
  2  3  1  0  0  0  0
  2  4  1  0  0  0  0
  2  5  1  0  0  0  0
  1  2  1  0  0  0  0
 24 25  2  0  0  0  0
 24 26  1  0  0  0  0
 20 21  1  0  0  0  0
 20 22  1  0  0  0  0
 20 23  1  0  0  0  0
 17 18  1  0  0  0  0
 17 19  1  0  0  0  0
 17 20  1  0  0  0  0
 13 14  1  0  0  0  0
 13 15  1  0  0  0  0
 13 16  1  0  0  0  0
 11 12  1  0  0  0  0
 11 13  1  0  0  0  0
 11 17  1  0  0  0  0
  9 10  1  0  0  0  0
  9 11  1  0  0  0  0
  9 24  1  0  0  0  0
  7  8  1  0  0  0  0
  7  9  1  0  0  0  0
 28 29  1  0  0  0  0
 28 30  1  0  0  0  0
 28 31  1  0  0  0  0
 26 27  1  0  0  0  0
 26 28  1  0  0  0  0
M  END
$$$$
default_name
  -OEChem-02102213163D

 31 30  0     1  0  0  0  0  0999 V2000
   -3.0760   -3.6390    1.5496 H   0  0  0  0  0  0  0  0  0  0  0  0
   -3.0940   -2.6290    1.1426 C   0  0  0  0  0  0  0  0  0  0  0  0
   -3.7160   -1.9930    1.7706 H   0  0  0  0  0  0  0  0  0  0  0  0
   -3.4880   -2.6500    0.1286 H   0  0  0  0  0  0  0  0  0  0  0  0
   -1.6860   -2.0850    1.1196 C   0  0  0  0  0  0  0  0  0  0  0  0
   -0.7540   -2.7700    1.5226 O   0  0  0  0  0  0  0  0  0  0  0  0
   -1.5320   -0.8490    0.6496 N   0  0  0  0  0  0  0  0  0  0  0  0
   -2.3500   -0.3360    0.3566 H   0  0  0  0  0  0  0  0  0  0  0  0
   -0.2470   -0.1410    0.5576 C   0  0  1  0  0  0  0  0  0  0  0  0
    0.4572   -0.6505    1.2162 H   0  0  0  0  0  0  0  0  0  0  0  0
    0.3091   -0.2220   -0.8868 C   0  0  1  0  0  0  0  0  0  0  0  0
   -0.5466   -0.3359   -1.5551 H   0  0  0  0  0  0  0  0  0  0  0  0
    1.0600    1.0580   -1.3009 C   0  0  0  0  0  0  0  0  0  0  0  0
    1.9698    1.1776   -0.7100 H   0  0  0  0  0  0  0  0  0  0  0  0
    1.3243    1.0168   -2.3564 H   0  0  0  0  0  0  0  0  0  0  0  0
    0.4255    1.9322   -1.1506 H   0  0  0  0  0  0  0  0  0  0  0  0
    1.2033   -1.4692   -1.0672 C   0  0  0  0  0  0  0  0  0  0  0  0
    2.2318   -1.2328   -0.7913 H   0  0  0  0  0  0  0  0  0  0  0  0
    0.8440   -2.2569   -0.4050 H   0  0  0  0  0  0  0  0  0  0  0  0
    1.1962   -2.0327   -2.4947 C   0  0  0  0  0  0  0  0  0  0  0  0
    1.6471   -1.3230   -3.1880 H   0  0  0  0  0  0  0  0  0  0  0  0
    1.7746   -2.9565   -2.5193 H   0  0  0  0  0  0  0  0  0  0  0  0
    0.1733   -2.2468   -2.8062 H   0  0  0  0  0  0  0  0  0  0  0  0
   -0.3971    1.3008    1.0689 C   0  0  0  0  0  0  0  0  0  0  0  0
   -1.3643    1.9819    0.7311 O   0  0  0  0  0  0  0  0  0  0  0  0
    0.5522    1.7647    1.8915 N   0  0  0  0  0  0  0  0  0  0  0  0
    1.3093    1.1450    2.1332 H   0  0  0  0  0  0  0  0  0  0  0  0
    0.5577    3.1119    2.4582 C   0  0  0  0  0  0  0  0  0  0  0  0
   -0.3986    3.3098    2.9475 H   0  0  0  0  0  0  0  0  0  0  0  0
    1.3619    3.2123    3.1886 H   0  0  0  0  0  0  0  0  0  0  0  0
    0.6974    3.8450    1.6614 H   0  0  0  0  0  0  0  0  0  0  0  0
  5  6  2  0  0  0  0
  5  7  1  0  0  0  0
  2  3  1  0  0  0  0
  2  4  1  0  0  0  0
  2  5  1  0  0  0  0
  1  2  1  0  0  0  0
 24 25  2  0  0  0  0
 24 26  1  0  0  0  0
 20 21  1  0  0  0  0
 20 22  1  0  0  0  0
 20 23  1  0  0  0  0
 17 18  1  0  0  0  0
 17 19  1  0  0  0  0
 17 20  1  0  0  0  0
 13 14  1  0  0  0  0
 13 15  1  0  0  0  0
 13 16  1  0  0  0  0
 11 12  1  0  0  0  0
 11 13  1  0  0  0  0
 11 17  1  0  0  0  0
  9 10  1  0  0  0  0
  9 11  1  0  0  0  0
  9 24  1  0  0  0  0
  7  8  1  0  0  0  0
  7  9  1  0  0  0  0
 28 29  1  0  0  0  0
 28 30  1  0  0  0  0
 28 31  1  0  0  0  0
 26 27  1  0  0  0  0
 26 28  1  0  0  0  0
M  END
$$$$
default_name
  -OEChem-02102213163D

 31 30  0     1  0  0  0  0  0999 V2000
   -3.0760   -3.6390    1.5496 H   0  0  0  0  0  0  0  0  0  0  0  0
   -3.0940   -2.6290    1.1426 C   0  0  0  0  0  0  0  0  0  0  0  0
   -3.7160   -1.9930    1.7706 H   0  0  0  0  0  0  0  0  0  0  0  0
   -3.4880   -2.6500    0.1286 H   0  0  0  0  0  0  0  0  0  0  0  0
   -1.6860   -2.0850    1.1196 C   0  0  0  0  0  0  0  0  0  0  0  0
   -0.7540   -2.7700    1.5226 O   0  0  0  0  0  0  0  0  0  0  0  0
   -1.5320   -0.8490    0.6496 N   0  0  0  0  0  0  0  0  0  0  0  0
   -2.3500   -0.3360    0.3566 H   0  0  0  0  0  0  0  0  0  0  0  0
   -0.2470   -0.1410    0.5576 C   0  0  1  0  0  0  0  0  0  0  0  0
    0.4572   -0.6505    1.2162 H   0  0  0  0  0  0  0  0  0  0  0  0
    0.3091   -0.2220   -0.8868 C   0  0  1  0  0  0  0  0  0  0  0  0
   -0.5466   -0.3359   -1.5551 H   0  0  0  0  0  0  0  0  0  0  0  0
    1.0600    1.0580   -1.3009 C   0  0  0  0  0  0  0  0  0  0  0  0
    1.9698    1.1776   -0.7100 H   0  0  0  0  0  0  0  0  0  0  0  0
    1.3243    1.0168   -2.3564 H   0  0  0  0  0  0  0  0  0  0  0  0
    0.4255    1.9322   -1.1506 H   0  0  0  0  0  0  0  0  0  0  0  0
    1.2033   -1.4692   -1.0672 C   0  0  0  0  0  0  0  0  0  0  0  0
    2.1536   -1.3235   -0.5519 H   0  0  0  0  0  0  0  0  0  0  0  0
    0.7010   -2.3280   -0.6220 H   0  0  0  0  0  0  0  0  0  0  0  0
    1.4898   -1.8165   -2.5343 C   0  0  0  0  0  0  0  0  0  0  0  0
    2.0871   -1.0343   -3.0027 H   0  0  0  0  0  0  0  0  0  0  0  0
    2.0472   -2.7524   -2.5800 H   0  0  0  0  0  0  0  0  0  0  0  0
    0.5528   -1.9352   -3.0795 H   0  0  0  0  0  0  0  0  0  0  0  0
   -0.3971    1.3008    1.0689 C   0  0  0  0  0  0  0  0  0  0  0  0
   -1.3643    1.9819    0.7311 O   0  0  0  0  0  0  0  0  0  0  0  0
    0.5522    1.7647    1.8915 N   0  0  0  0  0  0  0  0  0  0  0  0
    1.3093    1.1450    2.1332 H   0  0  0  0  0  0  0  0  0  0  0  0
    0.5577    3.1119    2.4582 C   0  0  0  0  0  0  0  0  0  0  0  0
   -0.3986    3.3098    2.9475 H   0  0  0  0  0  0  0  0  0  0  0  0
    1.3619    3.2123    3.1886 H   0  0  0  0  0  0  0  0  0  0  0  0
    0.6974    3.8450    1.6614 H   0  0  0  0  0  0  0  0  0  0  0  0
  5  6  2  0  0  0  0
  5  7  1  0  0  0  0
  2  3  1  0  0  0  0
  2  4  1  0  0  0  0
  2  5  1  0  0  0  0
  1  2  1  0  0  0  0
 24 25  2  0  0  0  0
 24 26  1  0  0  0  0
 20 21  1  0  0  0  0
 20 22  1  0  0  0  0
 20 23  1  0  0  0  0
 17 18  1  0  0  0  0
 17 19  1  0  0  0  0
 17 20  1  0  0  0  0
 13 14  1  0  0  0  0
 13 15  1  0  0  0  0
 13 16  1  0  0  0  0
 11 12  1  0  0  0  0
 11 13  1  0  0  0  0
 11 17  1  0  0  0  0
  9 10  1  0  0  0  0
  9 11  1  0  0  0  0
  9 24  1  0  0  0  0
  7  8  1  0  0  0  0
  7  9  1  0  0  0  0
 28 29  1  0  0  0  0
 28 30  1  0  0  0  0
 28 31  1  0  0  0  0
 26 27  1  0  0  0  0
 26 28  1  0  0  0  0
M  END
$$$$
default_name
  -OEChem-02102213163D

 31 30  0     1  0  0  0  0  0999 V2000
   -3.0760   -3.6390    1.5496 H   0  0  0  0  0  0  0  0  0  0  0  0
   -3.0940   -2.6290    1.1426 C   0  0  0  0  0  0  0  0  0  0  0  0
   -3.7160   -1.9930    1.7706 H   0  0  0  0  0  0  0  0  0  0  0  0
   -3.4880   -2.6500    0.1286 H   0  0  0  0  0  0  0  0  0  0  0  0
   -1.6860   -2.0850    1.1196 C   0  0  0  0  0  0  0  0  0  0  0  0
   -0.7540   -2.7700    1.5226 O   0  0  0  0  0  0  0  0  0  0  0  0
   -1.5320   -0.8490    0.6496 N   0  0  0  0  0  0  0  0  0  0  0  0
   -2.3500   -0.3360    0.3566 H   0  0  0  0  0  0  0  0  0  0  0  0
   -0.2470   -0.1410    0.5576 C   0  0  1  0  0  0  0  0  0  0  0  0
    0.4572   -0.6505    1.2162 H   0  0  0  0  0  0  0  0  0  0  0  0
    0.3091   -0.2220   -0.8868 C   0  0  1  0  0  0  0  0  0  0  0  0
   -0.5320   -0.0642   -1.5647 H   0  0  0  0  0  0  0  0  0  0  0  0
    1.3560    0.8707   -1.1765 C   0  0  0  0  0  0  0  0  0  0  0  0
    2.2528    0.7123   -0.5749 H   0  0  0  0  0  0  0  0  0  0  0  0
    1.6288    0.8633   -2.2305 H   0  0  0  0  0  0  0  0  0  0  0  0
    0.9468    1.8549   -0.9455 H   0  0  0  0  0  0  0  0  0  0  0  0
    0.8812   -1.6266   -1.1824 C   0  0  0  0  0  0  0  0  0  0  0  0
    1.6669   -1.8670   -0.4649 H   0  0  0  0  0  0  0  0  0  0  0  0
    0.0826   -2.3604   -1.0736 H   0  0  0  0  0  0  0  0  0  0  0  0
    1.4500   -1.7759   -2.5999 C   0  0  0  0  0  0  0  0  0  0  0  0
    2.3242   -1.1382   -2.7301 H   0  0  0  0  0  0  0  0  0  0  0  0
    1.7496   -2.8118   -2.7598 H   0  0  0  0  0  0  0  0  0  0  0  0
    0.6913   -1.5089   -3.3364 H   0  0  0  0  0  0  0  0  0  0  0  0
   -0.3971    1.3008    1.0689 C   0  0  0  0  0  0  0  0  0  0  0  0
   -1.3643    1.9819    0.7311 O   0  0  0  0  0  0  0  0  0  0  0  0
    0.5522    1.7647    1.8915 N   0  0  0  0  0  0  0  0  0  0  0  0
    1.3093    1.1450    2.1332 H   0  0  0  0  0  0  0  0  0  0  0  0
    0.5577    3.1119    2.4582 C   0  0  0  0  0  0  0  0  0  0  0  0
   -0.3986    3.3098    2.9475 H   0  0  0  0  0  0  0  0  0  0  0  0
    1.3619    3.2123    3.1886 H   0  0  0  0  0  0  0  0  0  0  0  0
    0.6974    3.8450    1.6614 H   0  0  0  0  0  0  0  0  0  0  0  0
  5  6  2  0  0  0  0
  5  7  1  0  0  0  0
  2  3  1  0  0  0  0
  2  4  1  0  0  0  0
  2  5  1  0  0  0  0
  1  2  1  0  0  0  0
 24 25  2  0  0  0  0
 24 26  1  0  0  0  0
 20 21  1  0  0  0  0
 20 22  1  0  0  0  0
 20 23  1  0  0  0  0
 17 18  1  0  0  0  0
 17 19  1  0  0  0  0
 17 20  1  0  0  0  0
 13 14  1  0  0  0  0
 13 15  1  0  0  0  0
 13 16  1  0  0  0  0
 11 12  1  0  0  0  0
 11 13  1  0  0  0  0
 11 17  1  0  0  0  0
  9 10  1  0  0  0  0
  9 11  1  0  0  0  0
  9 24  1  0  0  0  0
  7  8  1  0  0  0  0
  7  9  1  0  0  0  0
 28 29  1  0  0  0  0
 28 30  1  0  0  0  0
 28 31  1  0  0  0  0
 26 27  1  0  0  0  0
 26 28  1  0  0  0  0
M  END
$$$$
default_name
  -OEChem-02102213163D

 31 30  0     1  0  0  0  0  0999 V2000
   -3.0760   -3.6390    1.5496 H   0  0  0  0  0  0  0  0  0  0  0  0
   -3.0940   -2.6290    1.1426 C   0  0  0  0  0  0  0  0  0  0  0  0
   -3.7160   -1.9930    1.7706 H   0  0  0  0  0  0  0  0  0  0  0  0
   -3.4880   -2.6500    0.1286 H   0  0  0  0  0  0  0  0  0  0  0  0
   -1.6860   -2.0850    1.1196 C   0  0  0  0  0  0  0  0  0  0  0  0
   -0.7540   -2.7700    1.5226 O   0  0  0  0  0  0  0  0  0  0  0  0
   -1.5320   -0.8490    0.6496 N   0  0  0  0  0  0  0  0  0  0  0  0
   -2.3500   -0.3360    0.3566 H   0  0  0  0  0  0  0  0  0  0  0  0
   -0.2470   -0.1410    0.5576 C   0  0  1  0  0  0  0  0  0  0  0  0
    0.4572   -0.6505    1.2162 H   0  0  0  0  0  0  0  0  0  0  0  0
    0.3091   -0.2220   -0.8868 C   0  0  1  0  0  0  0  0  0  0  0  0
   -0.5320   -0.0642   -1.5647 H   0  0  0  0  0  0  0  0  0  0  0  0
    1.3560    0.8707   -1.1765 C   0  0  0  0  0  0  0  0  0  0  0  0
    2.2528    0.7123   -0.5749 H   0  0  0  0  0  0  0  0  0  0  0  0
    1.6288    0.8633   -2.2305 H   0  0  0  0  0  0  0  0  0  0  0  0
    0.9468    1.8549   -0.9455 H   0  0  0  0  0  0  0  0  0  0  0  0
    0.8812   -1.6266   -1.1824 C   0  0  0  0  0  0  0  0  0  0  0  0
    1.4641   -1.9780   -0.3299 H   0  0  0  0  0  0  0  0  0  0  0  0
    0.0523   -2.3172   -1.3378 H   0  0  0  0  0  0  0  0  0  0  0  0
    1.7645   -1.6822   -2.4361 C   0  0  0  0  0  0  0  0  0  0  0  0
    2.6683   -1.0900   -2.2936 H   0  0  0  0  0  0  0  0  0  0  0  0
    2.0540   -2.7160   -2.6264 H   0  0  0  0  0  0  0  0  0  0  0  0
    1.2133   -1.3044   -3.2979 H   0  0  0  0  0  0  0  0  0  0  0  0
   -0.3971    1.3008    1.0689 C   0  0  0  0  0  0  0  0  0  0  0  0
   -1.3643    1.9819    0.7311 O   0  0  0  0  0  0  0  0  0  0  0  0
    0.5522    1.7647    1.8915 N   0  0  0  0  0  0  0  0  0  0  0  0
    1.3093    1.1450    2.1332 H   0  0  0  0  0  0  0  0  0  0  0  0
    0.5577    3.1119    2.4582 C   0  0  0  0  0  0  0  0  0  0  0  0
   -0.3986    3.3098    2.9475 H   0  0  0  0  0  0  0  0  0  0  0  0
    1.3619    3.2123    3.1886 H   0  0  0  0  0  0  0  0  0  0  0  0
    0.6974    3.8450    1.6614 H   0  0  0  0  0  0  0  0  0  0  0  0
  5  6  2  0  0  0  0
  5  7  1  0  0  0  0
  2  3  1  0  0  0  0
  2  4  1  0  0  0  0
  2  5  1  0  0  0  0
  1  2  1  0  0  0  0
 24 25  2  0  0  0  0
 24 26  1  0  0  0  0
 20 21  1  0  0  0  0
 20 22  1  0  0  0  0
 20 23  1  0  0  0  0
 17 18  1  0  0  0  0
 17 19  1  0  0  0  0
 17 20  1  0  0  0  0
 13 14  1  0  0  0  0
 13 15  1  0  0  0  0
 13 16  1  0  0  0  0
 11 12  1  0  0  0  0
 11 13  1  0  0  0  0
 11 17  1  0  0  0  0
  9 10  1  0  0  0  0
  9 11  1  0  0  0  0
  9 24  1  0  0  0  0
  7  8  1  0  0  0  0
  7  9  1  0  0  0  0
 28 29  1  0  0  0  0
 28 30  1  0  0  0  0
 28 31  1  0  0  0  0
 26 27  1  0  0  0  0
 26 28  1  0  0  0  0
M  END
$$$$
default_name
  -OEChem-02102213163D

 31 30  0     1  0  0  0  0  0999 V2000
   -3.0760   -3.6390    1.5496 H   0  0  0  0  0  0  0  0  0  0  0  0
   -3.0940   -2.6290    1.1426 C   0  0  0  0  0  0  0  0  0  0  0  0
   -3.7160   -1.9930    1.7706 H   0  0  0  0  0  0  0  0  0  0  0  0
   -3.4880   -2.6500    0.1286 H   0  0  0  0  0  0  0  0  0  0  0  0
   -1.6860   -2.0850    1.1196 C   0  0  0  0  0  0  0  0  0  0  0  0
   -0.7540   -2.7700    1.5226 O   0  0  0  0  0  0  0  0  0  0  0  0
   -1.5320   -0.8490    0.6496 N   0  0  0  0  0  0  0  0  0  0  0  0
   -2.3500   -0.3360    0.3566 H   0  0  0  0  0  0  0  0  0  0  0  0
   -0.2470   -0.1410    0.5576 C   0  0  1  0  0  0  0  0  0  0  0  0
    0.4572   -0.6505    1.2162 H   0  0  0  0  0  0  0  0  0  0  0  0
    0.3091   -0.2220   -0.8868 C   0  0  1  0  0  0  0  0  0  0  0  0
   -0.5320   -0.0642   -1.5647 H   0  0  0  0  0  0  0  0  0  0  0  0
    1.3560    0.8707   -1.1765 C   0  0  0  0  0  0  0  0  0  0  0  0
    2.2528    0.7123   -0.5749 H   0  0  0  0  0  0  0  0  0  0  0  0
    1.6288    0.8633   -2.2305 H   0  0  0  0  0  0  0  0  0  0  0  0
    0.9468    1.8549   -0.9455 H   0  0  0  0  0  0  0  0  0  0  0  0
    0.8812   -1.6266   -1.1824 C   0  0  0  0  0  0  0  0  0  0  0  0
    1.2310   -2.0880   -0.2579 H   0  0  0  0  0  0  0  0  0  0  0  0
    0.0874   -2.2486   -1.5960 H   0  0  0  0  0  0  0  0  0  0  0  0
    2.0345   -1.6230   -2.1949 C   0  0  0  0  0  0  0  0  0  0  0  0
    2.9002   -1.1022   -1.7863 H   0  0  0  0  0  0  0  0  0  0  0  0
    2.3213   -2.6512   -2.4167 H   0  0  0  0  0  0  0  0  0  0  0  0
    1.7187   -1.1363   -3.1183 H   0  0  0  0  0  0  0  0  0  0  0  0
   -0.3971    1.3008    1.0689 C   0  0  0  0  0  0  0  0  0  0  0  0
   -1.3643    1.9819    0.7311 O   0  0  0  0  0  0  0  0  0  0  0  0
    0.5522    1.7647    1.8915 N   0  0  0  0  0  0  0  0  0  0  0  0
    1.3093    1.1450    2.1332 H   0  0  0  0  0  0  0  0  0  0  0  0
    0.5577    3.1119    2.4582 C   0  0  0  0  0  0  0  0  0  0  0  0
   -0.3986    3.3098    2.9475 H   0  0  0  0  0  0  0  0  0  0  0  0
    1.3619    3.2123    3.1886 H   0  0  0  0  0  0  0  0  0  0  0  0
    0.6974    3.8450    1.6614 H   0  0  0  0  0  0  0  0  0  0  0  0
  5  6  2  0  0  0  0
  5  7  1  0  0  0  0
  2  3  1  0  0  0  0
  2  4  1  0  0  0  0
  2  5  1  0  0  0  0
  1  2  1  0  0  0  0
 24 25  2  0  0  0  0
 24 26  1  0  0  0  0
 20 21  1  0  0  0  0
 20 22  1  0  0  0  0
 20 23  1  0  0  0  0
 17 18  1  0  0  0  0
 17 19  1  0  0  0  0
 17 20  1  0  0  0  0
 13 14  1  0  0  0  0
 13 15  1  0  0  0  0
 13 16  1  0  0  0  0
 11 12  1  0  0  0  0
 11 13  1  0  0  0  0
 11 17  1  0  0  0  0
  9 10  1  0  0  0  0
  9 11  1  0  0  0  0
  9 24  1  0  0  0  0
  7  8  1  0  0  0  0
  7  9  1  0  0  0  0
 28 29  1  0  0  0  0
 28 30  1  0  0  0  0
 28 31  1  0  0  0  0
 26 27  1  0  0  0  0
 26 28  1  0  0  0  0
M  END
$$$$
default_name
  -OEChem-02102213163D

 31 30  0     1  0  0  0  0  0999 V2000
   -3.0760   -3.6390    1.5496 H   0  0  0  0  0  0  0  0  0  0  0  0
   -3.0940   -2.6290    1.1426 C   0  0  0  0  0  0  0  0  0  0  0  0
   -3.7160   -1.9930    1.7706 H   0  0  0  0  0  0  0  0  0  0  0  0
   -3.4880   -2.6500    0.1286 H   0  0  0  0  0  0  0  0  0  0  0  0
   -1.6860   -2.0850    1.1196 C   0  0  0  0  0  0  0  0  0  0  0  0
   -0.7540   -2.7700    1.5226 O   0  0  0  0  0  0  0  0  0  0  0  0
   -1.5320   -0.8490    0.6496 N   0  0  0  0  0  0  0  0  0  0  0  0
   -2.3500   -0.3360    0.3566 H   0  0  0  0  0  0  0  0  0  0  0  0
   -0.2470   -0.1410    0.5576 C   0  0  1  0  0  0  0  0  0  0  0  0
    0.4572   -0.6505    1.2162 H   0  0  0  0  0  0  0  0  0  0  0  0
    0.3091   -0.2220   -0.8868 C   0  0  1  0  0  0  0  0  0  0  0  0
   -0.5320   -0.0642   -1.5647 H   0  0  0  0  0  0  0  0  0  0  0  0
    1.3560    0.8707   -1.1765 C   0  0  0  0  0  0  0  0  0  0  0  0
    2.2528    0.7123   -0.5749 H   0  0  0  0  0  0  0  0  0  0  0  0
    1.6288    0.8633   -2.2305 H   0  0  0  0  0  0  0  0  0  0  0  0
    0.9468    1.8549   -0.9455 H   0  0  0  0  0  0  0  0  0  0  0  0
    0.8812   -1.6266   -1.1824 C   0  0  0  0  0  0  0  0  0  0  0  0
    0.9834   -2.1897   -0.2537 H   0  0  0  0  0  0  0  0  0  0  0  0
    0.1854   -2.1593   -1.8305 H   0  0  0  0  0  0  0  0  0  0  0  0
    2.2413   -1.6024   -1.8927 C   0  0  0  0  0  0  0  0  0  0  0  0
    3.0044   -1.1741   -1.2430 H   0  0  0  0  0  0  0  0  0  0  0  0
    2.5334   -2.6220   -2.1451 H   0  0  0  0  0  0  0  0  0  0  0  0
    2.1728   -1.0163   -2.8098 H   0  0  0  0  0  0  0  0  0  0  0  0
   -0.3971    1.3008    1.0689 C   0  0  0  0  0  0  0  0  0  0  0  0
   -1.3643    1.9819    0.7311 O   0  0  0  0  0  0  0  0  0  0  0  0
    0.5522    1.7647    1.8915 N   0  0  0  0  0  0  0  0  0  0  0  0
    1.3093    1.1450    2.1332 H   0  0  0  0  0  0  0  0  0  0  0  0
    0.5577    3.1119    2.4582 C   0  0  0  0  0  0  0  0  0  0  0  0
   -0.3986    3.3098    2.9475 H   0  0  0  0  0  0  0  0  0  0  0  0
    1.3619    3.2123    3.1886 H   0  0  0  0  0  0  0  0  0  0  0  0
    0.6974    3.8450    1.6614 H   0  0  0  0  0  0  0  0  0  0  0  0
  5  6  2  0  0  0  0
  5  7  1  0  0  0  0
  2  3  1  0  0  0  0
  2  4  1  0  0  0  0
  2  5  1  0  0  0  0
  1  2  1  0  0  0  0
 24 25  2  0  0  0  0
 24 26  1  0  0  0  0
 20 21  1  0  0  0  0
 20 22  1  0  0  0  0
 20 23  1  0  0  0  0
 17 18  1  0  0  0  0
 17 19  1  0  0  0  0
 17 20  1  0  0  0  0
 13 14  1  0  0  0  0
 13 15  1  0  0  0  0
 13 16  1  0  0  0  0
 11 12  1  0  0  0  0
 11 13  1  0  0  0  0
 11 17  1  0  0  0  0
  9 10  1  0  0  0  0
  9 11  1  0  0  0  0
  9 24  1  0  0  0  0
  7  8  1  0  0  0  0
  7  9  1  0  0  0  0
 28 29  1  0  0  0  0
 28 30  1  0  0  0  0
 28 31  1  0  0  0  0
 26 27  1  0  0  0  0
 26 28  1  0  0  0  0
M  END
$$$$
default_name
  -OEChem-02102213163D

 31 30  0     1  0  0  0  0  0999 V2000
   -3.0760   -3.6390    1.5496 H   0  0  0  0  0  0  0  0  0  0  0  0
   -3.0940   -2.6290    1.1426 C   0  0  0  0  0  0  0  0  0  0  0  0
   -3.7160   -1.9930    1.7706 H   0  0  0  0  0  0  0  0  0  0  0  0
   -3.4880   -2.6500    0.1286 H   0  0  0  0  0  0  0  0  0  0  0  0
   -1.6860   -2.0850    1.1196 C   0  0  0  0  0  0  0  0  0  0  0  0
   -0.7540   -2.7700    1.5226 O   0  0  0  0  0  0  0  0  0  0  0  0
   -1.5320   -0.8490    0.6496 N   0  0  0  0  0  0  0  0  0  0  0  0
   -2.3500   -0.3360    0.3566 H   0  0  0  0  0  0  0  0  0  0  0  0
   -0.2470   -0.1410    0.5576 C   0  0  1  0  0  0  0  0  0  0  0  0
    0.4572   -0.6505    1.2162 H   0  0  0  0  0  0  0  0  0  0  0  0
    0.3091   -0.2220   -0.8868 C   0  0  1  0  0  0  0  0  0  0  0  0
   -0.5320   -0.0642   -1.5647 H   0  0  0  0  0  0  0  0  0  0  0  0
    1.3560    0.8707   -1.1765 C   0  0  0  0  0  0  0  0  0  0  0  0
    2.2528    0.7123   -0.5749 H   0  0  0  0  0  0  0  0  0  0  0  0
    1.6288    0.8633   -2.2305 H   0  0  0  0  0  0  0  0  0  0  0  0
    0.9468    1.8549   -0.9455 H   0  0  0  0  0  0  0  0  0  0  0  0
    0.8812   -1.6266   -1.1824 C   0  0  0  0  0  0  0  0  0  0  0  0
    0.7383   -2.2761   -0.3177 H   0  0  0  0  0  0  0  0  0  0  0  0
    0.3396   -2.0555   -2.0255 H   0  0  0  0  0  0  0  0  0  0  0  0
    2.3711   -1.6216   -1.5502 C   0  0  0  0  0  0  0  0  0  0  0  0
    2.9736   -1.3008   -0.7005 H   0  0  0  0  0  0  0  0  0  0  0  0
    2.6757   -2.6303   -1.8300 H   0  0  0  0  0  0  0  0  0  0  0  0
    2.5449   -0.9523   -2.3935 H   0  0  0  0  0  0  0  0  0  0  0  0
   -0.3971    1.3008    1.0689 C   0  0  0  0  0  0  0  0  0  0  0  0
   -1.3643    1.9819    0.7311 O   0  0  0  0  0  0  0  0  0  0  0  0
    0.5522    1.7647    1.8915 N   0  0  0  0  0  0  0  0  0  0  0  0
    1.3093    1.1450    2.1332 H   0  0  0  0  0  0  0  0  0  0  0  0
    0.5577    3.1119    2.4582 C   0  0  0  0  0  0  0  0  0  0  0  0
   -0.3986    3.3098    2.9475 H   0  0  0  0  0  0  0  0  0  0  0  0
    1.3619    3.2123    3.1886 H   0  0  0  0  0  0  0  0  0  0  0  0
    0.6974    3.8450    1.6614 H   0  0  0  0  0  0  0  0  0  0  0  0
  5  6  2  0  0  0  0
  5  7  1  0  0  0  0
  2  3  1  0  0  0  0
  2  4  1  0  0  0  0
  2  5  1  0  0  0  0
  1  2  1  0  0  0  0
 24 25  2  0  0  0  0
 24 26  1  0  0  0  0
 20 21  1  0  0  0  0
 20 22  1  0  0  0  0
 20 23  1  0  0  0  0
 17 18  1  0  0  0  0
 17 19  1  0  0  0  0
 17 20  1  0  0  0  0
 13 14  1  0  0  0  0
 13 15  1  0  0  0  0
 13 16  1  0  0  0  0
 11 12  1  0  0  0  0
 11 13  1  0  0  0  0
 11 17  1  0  0  0  0
  9 10  1  0  0  0  0
  9 11  1  0  0  0  0
  9 24  1  0  0  0  0
  7  8  1  0  0  0  0
  7  9  1  0  0  0  0
 28 29  1  0  0  0  0
 28 30  1  0  0  0  0
 28 31  1  0  0  0  0
 26 27  1  0  0  0  0
 26 28  1  0  0  0  0
M  END
$$$$
default_name
  -OEChem-02102213163D

 31 30  0     1  0  0  0  0  0999 V2000
   -3.0760   -3.6390    1.5496 H   0  0  0  0  0  0  0  0  0  0  0  0
   -3.0940   -2.6290    1.1426 C   0  0  0  0  0  0  0  0  0  0  0  0
   -3.7160   -1.9930    1.7706 H   0  0  0  0  0  0  0  0  0  0  0  0
   -3.4880   -2.6500    0.1286 H   0  0  0  0  0  0  0  0  0  0  0  0
   -1.6860   -2.0850    1.1196 C   0  0  0  0  0  0  0  0  0  0  0  0
   -0.7540   -2.7700    1.5226 O   0  0  0  0  0  0  0  0  0  0  0  0
   -1.5320   -0.8490    0.6496 N   0  0  0  0  0  0  0  0  0  0  0  0
   -2.3500   -0.3360    0.3566 H   0  0  0  0  0  0  0  0  0  0  0  0
   -0.2470   -0.1410    0.5576 C   0  0  1  0  0  0  0  0  0  0  0  0
    0.4572   -0.6505    1.2162 H   0  0  0  0  0  0  0  0  0  0  0  0
    0.3091   -0.2220   -0.8868 C   0  0  1  0  0  0  0  0  0  0  0  0
   -0.5320   -0.0642   -1.5647 H   0  0  0  0  0  0  0  0  0  0  0  0
    1.3560    0.8707   -1.1765 C   0  0  0  0  0  0  0  0  0  0  0  0
    2.2528    0.7123   -0.5749 H   0  0  0  0  0  0  0  0  0  0  0  0
    1.6288    0.8633   -2.2305 H   0  0  0  0  0  0  0  0  0  0  0  0
    0.9468    1.8549   -0.9455 H   0  0  0  0  0  0  0  0  0  0  0  0
    0.8812   -1.6266   -1.1824 C   0  0  0  0  0  0  0  0  0  0  0  0
    0.5123   -2.3413   -0.4455 H   0  0  0  0  0  0  0  0  0  0  0  0
    0.5397   -1.9442   -2.1675 H   0  0  0  0  0  0  0  0  0  0  0  0
    2.4149   -1.6794   -1.1906 C   0  0  0  0  0  0  0  0  0  0  0  0
    2.8099   -1.4736   -0.1959 H   0  0  0  0  0  0  0  0  0  0  0  0
    2.7387   -2.6756   -1.4929 H   0  0  0  0  0  0  0  0  0  0  0  0
    2.8095   -0.9489   -1.8977 H   0  0  0  0  0  0  0  0  0  0  0  0
   -0.3971    1.3008    1.0689 C   0  0  0  0  0  0  0  0  0  0  0  0
   -1.3643    1.9819    0.7311 O   0  0  0  0  0  0  0  0  0  0  0  0
    0.5522    1.7647    1.8915 N   0  0  0  0  0  0  0  0  0  0  0  0
    1.3093    1.1450    2.1332 H   0  0  0  0  0  0  0  0  0  0  0  0
    0.5577    3.1119    2.4582 C   0  0  0  0  0  0  0  0  0  0  0  0
   -0.3986    3.3098    2.9475 H   0  0  0  0  0  0  0  0  0  0  0  0
    1.3619    3.2123    3.1886 H   0  0  0  0  0  0  0  0  0  0  0  0
    0.6974    3.8450    1.6614 H   0  0  0  0  0  0  0  0  0  0  0  0
  5  6  2  0  0  0  0
  5  7  1  0  0  0  0
  2  3  1  0  0  0  0
  2  4  1  0  0  0  0
  2  5  1  0  0  0  0
  1  2  1  0  0  0  0
 24 25  2  0  0  0  0
 24 26  1  0  0  0  0
 20 21  1  0  0  0  0
 20 22  1  0  0  0  0
 20 23  1  0  0  0  0
 17 18  1  0  0  0  0
 17 19  1  0  0  0  0
 17 20  1  0  0  0  0
 13 14  1  0  0  0  0
 13 15  1  0  0  0  0
 13 16  1  0  0  0  0
 11 12  1  0  0  0  0
 11 13  1  0  0  0  0
 11 17  1  0  0  0  0
  9 10  1  0  0  0  0
  9 11  1  0  0  0  0
  9 24  1  0  0  0  0
  7  8  1  0  0  0  0
  7  9  1  0  0  0  0
 28 29  1  0  0  0  0
 28 30  1  0  0  0  0
 28 31  1  0  0  0  0
 26 27  1  0  0  0  0
 26 28  1  0  0  0  0
M  END
$$$$
default_name
  -OEChem-02102213163D

 31 30  0     1  0  0  0  0  0999 V2000
   -3.0760   -3.6390    1.5496 H   0  0  0  0  0  0  0  0  0  0  0  0
   -3.0940   -2.6290    1.1426 C   0  0  0  0  0  0  0  0  0  0  0  0
   -3.7160   -1.9930    1.7706 H   0  0  0  0  0  0  0  0  0  0  0  0
   -3.4880   -2.6500    0.1286 H   0  0  0  0  0  0  0  0  0  0  0  0
   -1.6860   -2.0850    1.1196 C   0  0  0  0  0  0  0  0  0  0  0  0
   -0.7540   -2.7700    1.5226 O   0  0  0  0  0  0  0  0  0  0  0  0
   -1.5320   -0.8490    0.6496 N   0  0  0  0  0  0  0  0  0  0  0  0
   -2.3500   -0.3360    0.3566 H   0  0  0  0  0  0  0  0  0  0  0  0
   -0.2470   -0.1410    0.5576 C   0  0  1  0  0  0  0  0  0  0  0  0
    0.4572   -0.6505    1.2162 H   0  0  0  0  0  0  0  0  0  0  0  0
    0.3091   -0.2220   -0.8868 C   0  0  1  0  0  0  0  0  0  0  0  0
   -0.5320   -0.0642   -1.5647 H   0  0  0  0  0  0  0  0  0  0  0  0
    1.3560    0.8707   -1.1765 C   0  0  0  0  0  0  0  0  0  0  0  0
    2.2528    0.7123   -0.5749 H   0  0  0  0  0  0  0  0  0  0  0  0
    1.6288    0.8633   -2.2305 H   0  0  0  0  0  0  0  0  0  0  0  0
    0.9468    1.8549   -0.9455 H   0  0  0  0  0  0  0  0  0  0  0  0
    0.8812   -1.6266   -1.1824 C   0  0  0  0  0  0  0  0  0  0  0  0
    0.3208   -2.3808   -0.6283 H   0  0  0  0  0  0  0  0  0  0  0  0
    0.7718   -1.8329   -2.2470 H   0  0  0  0  0  0  0  0  0  0  0  0
    2.3698   -1.7718   -0.8386 C   0  0  0  0  0  0  0  0  0  0  0  0
    2.5245   -1.6808    0.2364 H   0  0  0  0  0  0  0  0  0  0  0  0
    2.7180   -2.7547   -1.1569 H   0  0  0  0  0  0  0  0  0  0  0  0
    2.9486   -1.0062   -1.3563 H   0  0  0  0  0  0  0  0  0  0  0  0
   -0.3971    1.3008    1.0689 C   0  0  0  0  0  0  0  0  0  0  0  0
   -1.3643    1.9819    0.7311 O   0  0  0  0  0  0  0  0  0  0  0  0
    0.5522    1.7647    1.8915 N   0  0  0  0  0  0  0  0  0  0  0  0
    1.3093    1.1450    2.1332 H   0  0  0  0  0  0  0  0  0  0  0  0
    0.5577    3.1119    2.4582 C   0  0  0  0  0  0  0  0  0  0  0  0
   -0.3986    3.3098    2.9475 H   0  0  0  0  0  0  0  0  0  0  0  0
    1.3619    3.2123    3.1886 H   0  0  0  0  0  0  0  0  0  0  0  0
    0.6974    3.8450    1.6614 H   0  0  0  0  0  0  0  0  0  0  0  0
  5  6  2  0  0  0  0
  5  7  1  0  0  0  0
  2  3  1  0  0  0  0
  2  4  1  0  0  0  0
  2  5  1  0  0  0  0
  1  2  1  0  0  0  0
 24 25  2  0  0  0  0
 24 26  1  0  0  0  0
 20 21  1  0  0  0  0
 20 22  1  0  0  0  0
 20 23  1  0  0  0  0
 17 18  1  0  0  0  0
 17 19  1  0  0  0  0
 17 20  1  0  0  0  0
 13 14  1  0  0  0  0
 13 15  1  0  0  0  0
 13 16  1  0  0  0  0
 11 12  1  0  0  0  0
 11 13  1  0  0  0  0
 11 17  1  0  0  0  0
  9 10  1  0  0  0  0
  9 11  1  0  0  0  0
  9 24  1  0  0  0  0
  7  8  1  0  0  0  0
  7  9  1  0  0  0  0
 28 29  1  0  0  0  0
 28 30  1  0  0  0  0
 28 31  1  0  0  0  0
 26 27  1  0  0  0  0
 26 28  1  0  0  0  0
M  END
$$$$
default_name
  -OEChem-02102213163D

 31 30  0     1  0  0  0  0  0999 V2000
   -3.0760   -3.6390    1.5496 H   0  0  0  0  0  0  0  0  0  0  0  0
   -3.0940   -2.6290    1.1426 C   0  0  0  0  0  0  0  0  0  0  0  0
   -3.7160   -1.9930    1.7706 H   0  0  0  0  0  0  0  0  0  0  0  0
   -3.4880   -2.6500    0.1286 H   0  0  0  0  0  0  0  0  0  0  0  0
   -1.6860   -2.0850    1.1196 C   0  0  0  0  0  0  0  0  0  0  0  0
   -0.7540   -2.7700    1.5226 O   0  0  0  0  0  0  0  0  0  0  0  0
   -1.5320   -0.8490    0.6496 N   0  0  0  0  0  0  0  0  0  0  0  0
   -2.3500   -0.3360    0.3566 H   0  0  0  0  0  0  0  0  0  0  0  0
   -0.2470   -0.1410    0.5576 C   0  0  1  0  0  0  0  0  0  0  0  0
    0.4572   -0.6505    1.2162 H   0  0  0  0  0  0  0  0  0  0  0  0
    0.3091   -0.2220   -0.8868 C   0  0  1  0  0  0  0  0  0  0  0  0
   -0.5320   -0.0642   -1.5647 H   0  0  0  0  0  0  0  0  0  0  0  0
    1.3560    0.8707   -1.1765 C   0  0  0  0  0  0  0  0  0  0  0  0
    2.2528    0.7123   -0.5749 H   0  0  0  0  0  0  0  0  0  0  0  0
    1.6288    0.8633   -2.2305 H   0  0  0  0  0  0  0  0  0  0  0  0
    0.9468    1.8549   -0.9455 H   0  0  0  0  0  0  0  0  0  0  0  0
    0.8812   -1.6266   -1.1824 C   0  0  0  0  0  0  0  0  0  0  0  0
    0.1769   -2.3920   -0.8537 H   0  0  0  0  0  0  0  0  0  0  0  0
    1.0202   -1.7293   -2.2585 H   0  0  0  0  0  0  0  0  0  0  0  0
    2.2388   -1.8926   -0.5180 C   0  0  0  0  0  0  0  0  0  0  0  0
    2.1369   -1.9082    0.5670 H   0  0  0  0  0  0  0  0  0  0  0  0
    2.6151   -2.8623   -0.8448 H   0  0  0  0  0  0  0  0  0  0  0  0
    2.9528   -1.1202   -0.8060 H   0  0  0  0  0  0  0  0  0  0  0  0
   -0.3971    1.3008    1.0689 C   0  0  0  0  0  0  0  0  0  0  0  0
   -1.3643    1.9819    0.7311 O   0  0  0  0  0  0  0  0  0  0  0  0
    0.5522    1.7647    1.8915 N   0  0  0  0  0  0  0  0  0  0  0  0
    1.3093    1.1450    2.1332 H   0  0  0  0  0  0  0  0  0  0  0  0
    0.5577    3.1119    2.4582 C   0  0  0  0  0  0  0  0  0  0  0  0
   -0.3986    3.3098    2.9475 H   0  0  0  0  0  0  0  0  0  0  0  0
    1.3619    3.2123    3.1886 H   0  0  0  0  0  0  0  0  0  0  0  0
    0.6974    3.8450    1.6614 H   0  0  0  0  0  0  0  0  0  0  0  0
  5  6  2  0  0  0  0
  5  7  1  0  0  0  0
  2  3  1  0  0  0  0
  2  4  1  0  0  0  0
  2  5  1  0  0  0  0
  1  2  1  0  0  0  0
 24 25  2  0  0  0  0
 24 26  1  0  0  0  0
 20 21  1  0  0  0  0
 20 22  1  0  0  0  0
 20 23  1  0  0  0  0
 17 18  1  0  0  0  0
 17 19  1  0  0  0  0
 17 20  1  0  0  0  0
 13 14  1  0  0  0  0
 13 15  1  0  0  0  0
 13 16  1  0  0  0  0
 11 12  1  0  0  0  0
 11 13  1  0  0  0  0
 11 17  1  0  0  0  0
  9 10  1  0  0  0  0
  9 11  1  0  0  0  0
  9 24  1  0  0  0  0
  7  8  1  0  0  0  0
  7  9  1  0  0  0  0
 28 29  1  0  0  0  0
 28 30  1  0  0  0  0
 28 31  1  0  0  0  0
 26 27  1  0  0  0  0
 26 28  1  0  0  0  0
M  END
$$$$
default_name
  -OEChem-02102213163D

 31 30  0     1  0  0  0  0  0999 V2000
   -3.0760   -3.6390    1.5496 H   0  0  0  0  0  0  0  0  0  0  0  0
   -3.0940   -2.6290    1.1426 C   0  0  0  0  0  0  0  0  0  0  0  0
   -3.7160   -1.9930    1.7706 H   0  0  0  0  0  0  0  0  0  0  0  0
   -3.4880   -2.6500    0.1286 H   0  0  0  0  0  0  0  0  0  0  0  0
   -1.6860   -2.0850    1.1196 C   0  0  0  0  0  0  0  0  0  0  0  0
   -0.7540   -2.7700    1.5226 O   0  0  0  0  0  0  0  0  0  0  0  0
   -1.5320   -0.8490    0.6496 N   0  0  0  0  0  0  0  0  0  0  0  0
   -2.3500   -0.3360    0.3566 H   0  0  0  0  0  0  0  0  0  0  0  0
   -0.2470   -0.1410    0.5576 C   0  0  1  0  0  0  0  0  0  0  0  0
    0.4572   -0.6505    1.2162 H   0  0  0  0  0  0  0  0  0  0  0  0
    0.3091   -0.2220   -0.8868 C   0  0  1  0  0  0  0  0  0  0  0  0
   -0.5320   -0.0642   -1.5647 H   0  0  0  0  0  0  0  0  0  0  0  0
    1.3560    0.8707   -1.1765 C   0  0  0  0  0  0  0  0  0  0  0  0
    2.2528    0.7123   -0.5749 H   0  0  0  0  0  0  0  0  0  0  0  0
    1.6288    0.8633   -2.2305 H   0  0  0  0  0  0  0  0  0  0  0  0
    0.9468    1.8549   -0.9455 H   0  0  0  0  0  0  0  0  0  0  0  0
    0.8812   -1.6266   -1.1824 C   0  0  0  0  0  0  0  0  0  0  0  0
    0.0903   -2.3741   -1.1064 H   0  0  0  0  0  0  0  0  0  0  0  0
    1.2680   -1.6404   -2.2013 H   0  0  0  0  0  0  0  0  0  0  0  0
    2.0308   -2.0336   -0.2507 C   0  0  0  0  0  0  0  0  0  0  0  0
    1.6735   -2.1403    0.7733 H   0  0  0  0  0  0  0  0  0  0  0  0
    2.4369   -2.9910   -0.5778 H   0  0  0  0  0  0  0  0  0  0  0  0
    2.8217   -1.2834   -0.2844 H   0  0  0  0  0  0  0  0  0  0  0  0
   -0.3971    1.3008    1.0689 C   0  0  0  0  0  0  0  0  0  0  0  0
   -1.3643    1.9819    0.7311 O   0  0  0  0  0  0  0  0  0  0  0  0
    0.5522    1.7647    1.8915 N   0  0  0  0  0  0  0  0  0  0  0  0
    1.3093    1.1450    2.1332 H   0  0  0  0  0  0  0  0  0  0  0  0
    0.5577    3.1119    2.4582 C   0  0  0  0  0  0  0  0  0  0  0  0
   -0.3986    3.3098    2.9475 H   0  0  0  0  0  0  0  0  0  0  0  0
    1.3619    3.2123    3.1886 H   0  0  0  0  0  0  0  0  0  0  0  0
    0.6974    3.8450    1.6614 H   0  0  0  0  0  0  0  0  0  0  0  0
  5  6  2  0  0  0  0
  5  7  1  0  0  0  0
  2  3  1  0  0  0  0
  2  4  1  0  0  0  0
  2  5  1  0  0  0  0
  1  2  1  0  0  0  0
 24 25  2  0  0  0  0
 24 26  1  0  0  0  0
 20 21  1  0  0  0  0
 20 22  1  0  0  0  0
 20 23  1  0  0  0  0
 17 18  1  0  0  0  0
 17 19  1  0  0  0  0
 17 20  1  0  0  0  0
 13 14  1  0  0  0  0
 13 15  1  0  0  0  0
 13 16  1  0  0  0  0
 11 12  1  0  0  0  0
 11 13  1  0  0  0  0
 11 17  1  0  0  0  0
  9 10  1  0  0  0  0
  9 11  1  0  0  0  0
  9 24  1  0  0  0  0
  7  8  1  0  0  0  0
  7  9  1  0  0  0  0
 28 29  1  0  0  0  0
 28 30  1  0  0  0  0
 28 31  1  0  0  0  0
 26 27  1  0  0  0  0
 26 28  1  0  0  0  0
M  END
$$$$
default_name
  -OEChem-02102213163D

 31 30  0     1  0  0  0  0  0999 V2000
   -3.0760   -3.6390    1.5496 H   0  0  0  0  0  0  0  0  0  0  0  0
   -3.0940   -2.6290    1.1426 C   0  0  0  0  0  0  0  0  0  0  0  0
   -3.7160   -1.9930    1.7706 H   0  0  0  0  0  0  0  0  0  0  0  0
   -3.4880   -2.6500    0.1286 H   0  0  0  0  0  0  0  0  0  0  0  0
   -1.6860   -2.0850    1.1196 C   0  0  0  0  0  0  0  0  0  0  0  0
   -0.7540   -2.7700    1.5226 O   0  0  0  0  0  0  0  0  0  0  0  0
   -1.5320   -0.8490    0.6496 N   0  0  0  0  0  0  0  0  0  0  0  0
   -2.3500   -0.3360    0.3566 H   0  0  0  0  0  0  0  0  0  0  0  0
   -0.2470   -0.1410    0.5576 C   0  0  1  0  0  0  0  0  0  0  0  0
    0.4572   -0.6505    1.2162 H   0  0  0  0  0  0  0  0  0  0  0  0
    0.3091   -0.2220   -0.8868 C   0  0  1  0  0  0  0  0  0  0  0  0
   -0.5320   -0.0642   -1.5647 H   0  0  0  0  0  0  0  0  0  0  0  0
    1.3560    0.8707   -1.1765 C   0  0  0  0  0  0  0  0  0  0  0  0
    2.2528    0.7123   -0.5749 H   0  0  0  0  0  0  0  0  0  0  0  0
    1.6288    0.8633   -2.2305 H   0  0  0  0  0  0  0  0  0  0  0  0
    0.9468    1.8549   -0.9455 H   0  0  0  0  0  0  0  0  0  0  0  0
    0.8812   -1.6266   -1.1824 C   0  0  0  0  0  0  0  0  0  0  0  0
    0.0671   -2.3283   -1.3691 H   0  0  0  0  0  0  0  0  0  0  0  0
    1.4983   -1.5724   -2.0791 H   0  0  0  0  0  0  0  0  0  0  0  0
    1.7601   -2.1850   -0.0550 C   0  0  0  0  0  0  0  0  0  0  0  0
    1.1658   -2.3614    0.8414 H   0  0  0  0  0  0  0  0  0  0  0  0
    2.1955   -3.1322   -0.3742 H   0  0  0  0  0  0  0  0  0  0  0  0
    2.5642   -1.4844    0.1729 H   0  0  0  0  0  0  0  0  0  0  0  0
   -0.3971    1.3008    1.0689 C   0  0  0  0  0  0  0  0  0  0  0  0
   -1.3643    1.9819    0.7311 O   0  0  0  0  0  0  0  0  0  0  0  0
    0.5522    1.7647    1.8915 N   0  0  0  0  0  0  0  0  0  0  0  0
    1.3093    1.1450    2.1332 H   0  0  0  0  0  0  0  0  0  0  0  0
    0.5577    3.1119    2.4582 C   0  0  0  0  0  0  0  0  0  0  0  0
   -0.3986    3.3098    2.9475 H   0  0  0  0  0  0  0  0  0  0  0  0
    1.3619    3.2123    3.1886 H   0  0  0  0  0  0  0  0  0  0  0  0
    0.6974    3.8450    1.6614 H   0  0  0  0  0  0  0  0  0  0  0  0
  5  6  2  0  0  0  0
  5  7  1  0  0  0  0
  2  3  1  0  0  0  0
  2  4  1  0  0  0  0
  2  5  1  0  0  0  0
  1  2  1  0  0  0  0
 24 25  2  0  0  0  0
 24 26  1  0  0  0  0
 20 21  1  0  0  0  0
 20 22  1  0  0  0  0
 20 23  1  0  0  0  0
 17 18  1  0  0  0  0
 17 19  1  0  0  0  0
 17 20  1  0  0  0  0
 13 14  1  0  0  0  0
 13 15  1  0  0  0  0
 13 16  1  0  0  0  0
 11 12  1  0  0  0  0
 11 13  1  0  0  0  0
 11 17  1  0  0  0  0
  9 10  1  0  0  0  0
  9 11  1  0  0  0  0
  9 24  1  0  0  0  0
  7  8  1  0  0  0  0
  7  9  1  0  0  0  0
 28 29  1  0  0  0  0
 28 30  1  0  0  0  0
 28 31  1  0  0  0  0
 26 27  1  0  0  0  0
 26 28  1  0  0  0  0
M  END
$$$$
default_name
  -OEChem-02102213163D

 31 30  0     1  0  0  0  0  0999 V2000
   -3.0760   -3.6390    1.5496 H   0  0  0  0  0  0  0  0  0  0  0  0
   -3.0940   -2.6290    1.1426 C   0  0  0  0  0  0  0  0  0  0  0  0
   -3.7160   -1.9930    1.7706 H   0  0  0  0  0  0  0  0  0  0  0  0
   -3.4880   -2.6500    0.1286 H   0  0  0  0  0  0  0  0  0  0  0  0
   -1.6860   -2.0850    1.1196 C   0  0  0  0  0  0  0  0  0  0  0  0
   -0.7540   -2.7700    1.5226 O   0  0  0  0  0  0  0  0  0  0  0  0
   -1.5320   -0.8490    0.6496 N   0  0  0  0  0  0  0  0  0  0  0  0
   -2.3500   -0.3360    0.3566 H   0  0  0  0  0  0  0  0  0  0  0  0
   -0.2470   -0.1410    0.5576 C   0  0  1  0  0  0  0  0  0  0  0  0
    0.4572   -0.6505    1.2162 H   0  0  0  0  0  0  0  0  0  0  0  0
    0.3091   -0.2220   -0.8868 C   0  0  1  0  0  0  0  0  0  0  0  0
   -0.5320   -0.0642   -1.5647 H   0  0  0  0  0  0  0  0  0  0  0  0
    1.3560    0.8707   -1.1765 C   0  0  0  0  0  0  0  0  0  0  0  0
    2.2528    0.7123   -0.5749 H   0  0  0  0  0  0  0  0  0  0  0  0
    1.6288    0.8633   -2.2305 H   0  0  0  0  0  0  0  0  0  0  0  0
    0.9468    1.8549   -0.9455 H   0  0  0  0  0  0  0  0  0  0  0  0
    0.8812   -1.6266   -1.1824 C   0  0  0  0  0  0  0  0  0  0  0  0
    0.1087   -2.2577   -1.6239 H   0  0  0  0  0  0  0  0  0  0  0  0
    1.6954   -1.5297   -1.9005 H   0  0  0  0  0  0  0  0  0  0  0  0
    1.4451   -2.3366    0.0559 C   0  0  0  0  0  0  0  0  0  0  0  0
    0.6485   -2.5563    0.7665 H   0  0  0  0  0  0  0  0  0  0  0  0
    1.9075   -3.2760   -0.2478 H   0  0  0  0  0  0  0  0  0  0  0  0
    2.1980   -1.7097    0.5348 H   0  0  0  0  0  0  0  0  0  0  0  0
   -0.3971    1.3008    1.0689 C   0  0  0  0  0  0  0  0  0  0  0  0
   -1.3643    1.9819    0.7311 O   0  0  0  0  0  0  0  0  0  0  0  0
    0.5522    1.7647    1.8915 N   0  0  0  0  0  0  0  0  0  0  0  0
    1.3093    1.1450    2.1332 H   0  0  0  0  0  0  0  0  0  0  0  0
    0.5577    3.1119    2.4582 C   0  0  0  0  0  0  0  0  0  0  0  0
   -0.3986    3.3098    2.9475 H   0  0  0  0  0  0  0  0  0  0  0  0
    1.3619    3.2123    3.1886 H   0  0  0  0  0  0  0  0  0  0  0  0
    0.6974    3.8450    1.6614 H   0  0  0  0  0  0  0  0  0  0  0  0
  5  6  2  0  0  0  0
  5  7  1  0  0  0  0
  2  3  1  0  0  0  0
  2  4  1  0  0  0  0
  2  5  1  0  0  0  0
  1  2  1  0  0  0  0
 24 25  2  0  0  0  0
 24 26  1  0  0  0  0
 20 21  1  0  0  0  0
 20 22  1  0  0  0  0
 20 23  1  0  0  0  0
 17 18  1  0  0  0  0
 17 19  1  0  0  0  0
 17 20  1  0  0  0  0
 13 14  1  0  0  0  0
 13 15  1  0  0  0  0
 13 16  1  0  0  0  0
 11 12  1  0  0  0  0
 11 13  1  0  0  0  0
 11 17  1  0  0  0  0
  9 10  1  0  0  0  0
  9 11  1  0  0  0  0
  9 24  1  0  0  0  0
  7  8  1  0  0  0  0
  7  9  1  0  0  0  0
 28 29  1  0  0  0  0
 28 30  1  0  0  0  0
 28 31  1  0  0  0  0
 26 27  1  0  0  0  0
 26 28  1  0  0  0  0
M  END
$$$$
default_name
  -OEChem-02102213163D

 31 30  0     1  0  0  0  0  0999 V2000
   -3.0760   -3.6390    1.5496 H   0  0  0  0  0  0  0  0  0  0  0  0
   -3.0940   -2.6290    1.1426 C   0  0  0  0  0  0  0  0  0  0  0  0
   -3.7160   -1.9930    1.7706 H   0  0  0  0  0  0  0  0  0  0  0  0
   -3.4880   -2.6500    0.1286 H   0  0  0  0  0  0  0  0  0  0  0  0
   -1.6860   -2.0850    1.1196 C   0  0  0  0  0  0  0  0  0  0  0  0
   -0.7540   -2.7700    1.5226 O   0  0  0  0  0  0  0  0  0  0  0  0
   -1.5320   -0.8490    0.6496 N   0  0  0  0  0  0  0  0  0  0  0  0
   -2.3500   -0.3360    0.3566 H   0  0  0  0  0  0  0  0  0  0  0  0
   -0.2470   -0.1410    0.5576 C   0  0  1  0  0  0  0  0  0  0  0  0
    0.4572   -0.6505    1.2162 H   0  0  0  0  0  0  0  0  0  0  0  0
    0.3091   -0.2220   -0.8868 C   0  0  1  0  0  0  0  0  0  0  0  0
   -0.5320   -0.0642   -1.5647 H   0  0  0  0  0  0  0  0  0  0  0  0
    1.3560    0.8707   -1.1765 C   0  0  0  0  0  0  0  0  0  0  0  0
    2.2528    0.7123   -0.5749 H   0  0  0  0  0  0  0  0  0  0  0  0
    1.6288    0.8633   -2.2305 H   0  0  0  0  0  0  0  0  0  0  0  0
    0.9468    1.8549   -0.9455 H   0  0  0  0  0  0  0  0  0  0  0  0
    0.8812   -1.6266   -1.1824 C   0  0  0  0  0  0  0  0  0  0  0  0
    0.2124   -2.1672   -1.8535 H   0  0  0  0  0  0  0  0  0  0  0  0
    1.8458   -1.5153   -1.6774 H   0  0  0  0  0  0  0  0  0  0  0  0
    1.1072   -2.4781    0.0743 C   0  0  0  0  0  0  0  0  0  0  0  0
    0.1567   -2.7118    0.5537 H   0  0  0  0  0  0  0  0  0  0  0  0
    1.5925   -3.4129   -0.2073 H   0  0  0  0  0  0  0  0  0  0  0  0
    1.7480   -1.9439    0.7766 H   0  0  0  0  0  0  0  0  0  0  0  0
   -0.3971    1.3008    1.0689 C   0  0  0  0  0  0  0  0  0  0  0  0
   -1.3643    1.9819    0.7311 O   0  0  0  0  0  0  0  0  0  0  0  0
    0.5522    1.7647    1.8915 N   0  0  0  0  0  0  0  0  0  0  0  0
    1.3093    1.1450    2.1332 H   0  0  0  0  0  0  0  0  0  0  0  0
    0.5577    3.1119    2.4582 C   0  0  0  0  0  0  0  0  0  0  0  0
   -0.3986    3.3098    2.9475 H   0  0  0  0  0  0  0  0  0  0  0  0
    1.3619    3.2123    3.1886 H   0  0  0  0  0  0  0  0  0  0  0  0
    0.6974    3.8450    1.6614 H   0  0  0  0  0  0  0  0  0  0  0  0
  5  6  2  0  0  0  0
  5  7  1  0  0  0  0
  2  3  1  0  0  0  0
  2  4  1  0  0  0  0
  2  5  1  0  0  0  0
  1  2  1  0  0  0  0
 24 25  2  0  0  0  0
 24 26  1  0  0  0  0
 20 21  1  0  0  0  0
 20 22  1  0  0  0  0
 20 23  1  0  0  0  0
 17 18  1  0  0  0  0
 17 19  1  0  0  0  0
 17 20  1  0  0  0  0
 13 14  1  0  0  0  0
 13 15  1  0  0  0  0
 13 16  1  0  0  0  0
 11 12  1  0  0  0  0
 11 13  1  0  0  0  0
 11 17  1  0  0  0  0
  9 10  1  0  0  0  0
  9 11  1  0  0  0  0
  9 24  1  0  0  0  0
  7  8  1  0  0  0  0
  7  9  1  0  0  0  0
 28 29  1  0  0  0  0
 28 30  1  0  0  0  0
 28 31  1  0  0  0  0
 26 27  1  0  0  0  0
 26 28  1  0  0  0  0
M  END
$$$$
default_name
  -OEChem-02102213163D

 31 30  0     1  0  0  0  0  0999 V2000
   -3.0760   -3.6390    1.5496 H   0  0  0  0  0  0  0  0  0  0  0  0
   -3.0940   -2.6290    1.1426 C   0  0  0  0  0  0  0  0  0  0  0  0
   -3.7160   -1.9930    1.7706 H   0  0  0  0  0  0  0  0  0  0  0  0
   -3.4880   -2.6500    0.1286 H   0  0  0  0  0  0  0  0  0  0  0  0
   -1.6860   -2.0850    1.1196 C   0  0  0  0  0  0  0  0  0  0  0  0
   -0.7540   -2.7700    1.5226 O   0  0  0  0  0  0  0  0  0  0  0  0
   -1.5320   -0.8490    0.6496 N   0  0  0  0  0  0  0  0  0  0  0  0
   -2.3500   -0.3360    0.3566 H   0  0  0  0  0  0  0  0  0  0  0  0
   -0.2470   -0.1410    0.5576 C   0  0  1  0  0  0  0  0  0  0  0  0
    0.4572   -0.6505    1.2162 H   0  0  0  0  0  0  0  0  0  0  0  0
    0.3091   -0.2220   -0.8868 C   0  0  1  0  0  0  0  0  0  0  0  0
   -0.5320   -0.0642   -1.5647 H   0  0  0  0  0  0  0  0  0  0  0  0
    1.3560    0.8707   -1.1765 C   0  0  0  0  0  0  0  0  0  0  0  0
    2.2528    0.7123   -0.5749 H   0  0  0  0  0  0  0  0  0  0  0  0
    1.6288    0.8633   -2.2305 H   0  0  0  0  0  0  0  0  0  0  0  0
    0.9468    1.8549   -0.9455 H   0  0  0  0  0  0  0  0  0  0  0  0
    0.8812   -1.6266   -1.1824 C   0  0  0  0  0  0  0  0  0  0  0  0
    0.3710   -2.0629   -2.0422 H   0  0  0  0  0  0  0  0  0  0  0  0
    1.9394   -1.5303   -1.4252 H   0  0  0  0  0  0  0  0  0  0  0  0
    0.7694   -2.5998   -0.0010 C   0  0  0  0  0  0  0  0  0  0  0  0
   -0.2759   -2.8173    0.2176 H   0  0  0  0  0  0  0  0  0  0  0  0
    1.2719   -3.5333   -0.2554 H   0  0  0  0  0  0  0  0  0  0  0  0
    1.2448   -2.1709    0.8819 H   0  0  0  0  0  0  0  0  0  0  0  0
   -0.3971    1.3008    1.0689 C   0  0  0  0  0  0  0  0  0  0  0  0
   -1.3643    1.9819    0.7311 O   0  0  0  0  0  0  0  0  0  0  0  0
    0.5522    1.7647    1.8915 N   0  0  0  0  0  0  0  0  0  0  0  0
    1.3093    1.1450    2.1332 H   0  0  0  0  0  0  0  0  0  0  0  0
    0.5577    3.1119    2.4582 C   0  0  0  0  0  0  0  0  0  0  0  0
   -0.3986    3.3098    2.9475 H   0  0  0  0  0  0  0  0  0  0  0  0
    1.3619    3.2123    3.1886 H   0  0  0  0  0  0  0  0  0  0  0  0
    0.6974    3.8450    1.6614 H   0  0  0  0  0  0  0  0  0  0  0  0
  5  6  2  0  0  0  0
  5  7  1  0  0  0  0
  2  3  1  0  0  0  0
  2  4  1  0  0  0  0
  2  5  1  0  0  0  0
  1  2  1  0  0  0  0
 24 25  2  0  0  0  0
 24 26  1  0  0  0  0
 20 21  1  0  0  0  0
 20 22  1  0  0  0  0
 20 23  1  0  0  0  0
 17 18  1  0  0  0  0
 17 19  1  0  0  0  0
 17 20  1  0  0  0  0
 13 14  1  0  0  0  0
 13 15  1  0  0  0  0
 13 16  1  0  0  0  0
 11 12  1  0  0  0  0
 11 13  1  0  0  0  0
 11 17  1  0  0  0  0
  9 10  1  0  0  0  0
  9 11  1  0  0  0  0
  9 24  1  0  0  0  0
  7  8  1  0  0  0  0
  7  9  1  0  0  0  0
 28 29  1  0  0  0  0
 28 30  1  0  0  0  0
 28 31  1  0  0  0  0
 26 27  1  0  0  0  0
 26 28  1  0  0  0  0
M  END
$$$$
default_name
  -OEChem-02102213163D

 31 30  0     1  0  0  0  0  0999 V2000
   -3.0760   -3.6390    1.5496 H   0  0  0  0  0  0  0  0  0  0  0  0
   -3.0940   -2.6290    1.1426 C   0  0  0  0  0  0  0  0  0  0  0  0
   -3.7160   -1.9930    1.7706 H   0  0  0  0  0  0  0  0  0  0  0  0
   -3.4880   -2.6500    0.1286 H   0  0  0  0  0  0  0  0  0  0  0  0
   -1.6860   -2.0850    1.1196 C   0  0  0  0  0  0  0  0  0  0  0  0
   -0.7540   -2.7700    1.5226 O   0  0  0  0  0  0  0  0  0  0  0  0
   -1.5320   -0.8490    0.6496 N   0  0  0  0  0  0  0  0  0  0  0  0
   -2.3500   -0.3360    0.3566 H   0  0  0  0  0  0  0  0  0  0  0  0
   -0.2470   -0.1410    0.5576 C   0  0  1  0  0  0  0  0  0  0  0  0
    0.4572   -0.6505    1.2162 H   0  0  0  0  0  0  0  0  0  0  0  0
    0.3091   -0.2220   -0.8868 C   0  0  1  0  0  0  0  0  0  0  0  0
   -0.5320   -0.0642   -1.5647 H   0  0  0  0  0  0  0  0  0  0  0  0
    1.3560    0.8707   -1.1765 C   0  0  0  0  0  0  0  0  0  0  0  0
    2.2528    0.7123   -0.5749 H   0  0  0  0  0  0  0  0  0  0  0  0
    1.6288    0.8633   -2.2305 H   0  0  0  0  0  0  0  0  0  0  0  0
    0.9468    1.8549   -0.9455 H   0  0  0  0  0  0  0  0  0  0  0  0
    0.8812   -1.6266   -1.1824 C   0  0  0  0  0  0  0  0  0  0  0  0
    0.5738   -1.9519   -2.1771 H   0  0  0  0  0  0  0  0  0  0  0  0
    1.9696   -1.5736   -1.1610 H   0  0  0  0  0  0  0  0  0  0  0  0
    0.4549   -2.6934   -0.1648 C   0  0  0  0  0  0  0  0  0  0  0  0
   -0.6199   -2.8656   -0.2189 H   0  0  0  0  0  0  0  0  0  0  0  0
    0.9675   -3.6292   -0.3889 H   0  0  0  0  0  0  0  0  0  0  0  0
    0.7227   -2.3754    0.8434 H   0  0  0  0  0  0  0  0  0  0  0  0
   -0.3971    1.3008    1.0689 C   0  0  0  0  0  0  0  0  0  0  0  0
   -1.3643    1.9819    0.7311 O   0  0  0  0  0  0  0  0  0  0  0  0
    0.5522    1.7647    1.8915 N   0  0  0  0  0  0  0  0  0  0  0  0
    1.3093    1.1450    2.1332 H   0  0  0  0  0  0  0  0  0  0  0  0
    0.5577    3.1119    2.4582 C   0  0  0  0  0  0  0  0  0  0  0  0
   -0.3986    3.3098    2.9475 H   0  0  0  0  0  0  0  0  0  0  0  0
    1.3619    3.2123    3.1886 H   0  0  0  0  0  0  0  0  0  0  0  0
    0.6974    3.8450    1.6614 H   0  0  0  0  0  0  0  0  0  0  0  0
  5  6  2  0  0  0  0
  5  7  1  0  0  0  0
  2  3  1  0  0  0  0
  2  4  1  0  0  0  0
  2  5  1  0  0  0  0
  1  2  1  0  0  0  0
 24 25  2  0  0  0  0
 24 26  1  0  0  0  0
 20 21  1  0  0  0  0
 20 22  1  0  0  0  0
 20 23  1  0  0  0  0
 17 18  1  0  0  0  0
 17 19  1  0  0  0  0
 17 20  1  0  0  0  0
 13 14  1  0  0  0  0
 13 15  1  0  0  0  0
 13 16  1  0  0  0  0
 11 12  1  0  0  0  0
 11 13  1  0  0  0  0
 11 17  1  0  0  0  0
  9 10  1  0  0  0  0
  9 11  1  0  0  0  0
  9 24  1  0  0  0  0
  7  8  1  0  0  0  0
  7  9  1  0  0  0  0
 28 29  1  0  0  0  0
 28 30  1  0  0  0  0
 28 31  1  0  0  0  0
 26 27  1  0  0  0  0
 26 28  1  0  0  0  0
M  END
$$$$
default_name
  -OEChem-02102213163D

 31 30  0     1  0  0  0  0  0999 V2000
   -3.0760   -3.6390    1.5496 H   0  0  0  0  0  0  0  0  0  0  0  0
   -3.0940   -2.6290    1.1426 C   0  0  0  0  0  0  0  0  0  0  0  0
   -3.7160   -1.9930    1.7706 H   0  0  0  0  0  0  0  0  0  0  0  0
   -3.4880   -2.6500    0.1286 H   0  0  0  0  0  0  0  0  0  0  0  0
   -1.6860   -2.0850    1.1196 C   0  0  0  0  0  0  0  0  0  0  0  0
   -0.7540   -2.7700    1.5226 O   0  0  0  0  0  0  0  0  0  0  0  0
   -1.5320   -0.8490    0.6496 N   0  0  0  0  0  0  0  0  0  0  0  0
   -2.3500   -0.3360    0.3566 H   0  0  0  0  0  0  0  0  0  0  0  0
   -0.2470   -0.1410    0.5576 C   0  0  1  0  0  0  0  0  0  0  0  0
    0.4572   -0.6505    1.2162 H   0  0  0  0  0  0  0  0  0  0  0  0
    0.3091   -0.2220   -0.8868 C   0  0  1  0  0  0  0  0  0  0  0  0
   -0.5320   -0.0642   -1.5647 H   0  0  0  0  0  0  0  0  0  0  0  0
    1.3560    0.8707   -1.1765 C   0  0  0  0  0  0  0  0  0  0  0  0
    2.2528    0.7123   -0.5749 H   0  0  0  0  0  0  0  0  0  0  0  0
    1.6288    0.8633   -2.2305 H   0  0  0  0  0  0  0  0  0  0  0  0
    0.9468    1.8549   -0.9455 H   0  0  0  0  0  0  0  0  0  0  0  0
    0.8812   -1.6266   -1.1824 C   0  0  0  0  0  0  0  0  0  0  0  0
    0.8069   -1.8418   -2.2492 H   0  0  0  0  0  0  0  0  0  0  0  0
    1.9346   -1.6422   -0.9029 H   0  0  0  0  0  0  0  0  0  0  0  0
    0.1850   -2.7526   -0.4060 C   0  0  0  0  0  0  0  0  0  0  0  0
   -0.8519   -2.8533   -0.7262 H   0  0  0  0  0  0  0  0  0  0  0  0
    0.7002   -3.6939   -0.5985 H   0  0  0  0  0  0  0  0  0  0  0  0
    0.2174   -2.5435    0.6638 H   0  0  0  0  0  0  0  0  0  0  0  0
   -0.3971    1.3008    1.0689 C   0  0  0  0  0  0  0  0  0  0  0  0
   -1.3643    1.9819    0.7311 O   0  0  0  0  0  0  0  0  0  0  0  0
    0.5522    1.7647    1.8915 N   0  0  0  0  0  0  0  0  0  0  0  0
    1.3093    1.1450    2.1332 H   0  0  0  0  0  0  0  0  0  0  0  0
    0.5577    3.1119    2.4582 C   0  0  0  0  0  0  0  0  0  0  0  0
   -0.3986    3.3098    2.9475 H   0  0  0  0  0  0  0  0  0  0  0  0
    1.3619    3.2123    3.1886 H   0  0  0  0  0  0  0  0  0  0  0  0
    0.6974    3.8450    1.6614 H   0  0  0  0  0  0  0  0  0  0  0  0
  5  6  2  0  0  0  0
  5  7  1  0  0  0  0
  2  3  1  0  0  0  0
  2  4  1  0  0  0  0
  2  5  1  0  0  0  0
  1  2  1  0  0  0  0
 24 25  2  0  0  0  0
 24 26  1  0  0  0  0
 20 21  1  0  0  0  0
 20 22  1  0  0  0  0
 20 23  1  0  0  0  0
 17 18  1  0  0  0  0
 17 19  1  0  0  0  0
 17 20  1  0  0  0  0
 13 14  1  0  0  0  0
 13 15  1  0  0  0  0
 13 16  1  0  0  0  0
 11 12  1  0  0  0  0
 11 13  1  0  0  0  0
 11 17  1  0  0  0  0
  9 10  1  0  0  0  0
  9 11  1  0  0  0  0
  9 24  1  0  0  0  0
  7  8  1  0  0  0  0
  7  9  1  0  0  0  0
 28 29  1  0  0  0  0
 28 30  1  0  0  0  0
 28 31  1  0  0  0  0
 26 27  1  0  0  0  0
 26 28  1  0  0  0  0
M  END
$$$$
default_name
  -OEChem-02102213163D

 31 30  0     1  0  0  0  0  0999 V2000
   -3.0760   -3.6390    1.5496 H   0  0  0  0  0  0  0  0  0  0  0  0
   -3.0940   -2.6290    1.1426 C   0  0  0  0  0  0  0  0  0  0  0  0
   -3.7160   -1.9930    1.7706 H   0  0  0  0  0  0  0  0  0  0  0  0
   -3.4880   -2.6500    0.1286 H   0  0  0  0  0  0  0  0  0  0  0  0
   -1.6860   -2.0850    1.1196 C   0  0  0  0  0  0  0  0  0  0  0  0
   -0.7540   -2.7700    1.5226 O   0  0  0  0  0  0  0  0  0  0  0  0
   -1.5320   -0.8490    0.6496 N   0  0  0  0  0  0  0  0  0  0  0  0
   -2.3500   -0.3360    0.3566 H   0  0  0  0  0  0  0  0  0  0  0  0
   -0.2470   -0.1410    0.5576 C   0  0  1  0  0  0  0  0  0  0  0  0
    0.4572   -0.6505    1.2162 H   0  0  0  0  0  0  0  0  0  0  0  0
    0.3091   -0.2220   -0.8868 C   0  0  1  0  0  0  0  0  0  0  0  0
   -0.5320   -0.0642   -1.5647 H   0  0  0  0  0  0  0  0  0  0  0  0
    1.3560    0.8707   -1.1765 C   0  0  0  0  0  0  0  0  0  0  0  0
    2.2528    0.7123   -0.5749 H   0  0  0  0  0  0  0  0  0  0  0  0
    1.6288    0.8633   -2.2305 H   0  0  0  0  0  0  0  0  0  0  0  0
    0.9468    1.8549   -0.9455 H   0  0  0  0  0  0  0  0  0  0  0  0
    0.8812   -1.6266   -1.1824 C   0  0  0  0  0  0  0  0  0  0  0  0
    1.0545   -1.7401   -2.2533 H   0  0  0  0  0  0  0  0  0  0  0  0
    1.8366   -1.7314   -0.6683 H   0  0  0  0  0  0  0  0  0  0  0  0
   -0.0219   -2.7733   -0.7081 C   0  0  0  0  0  0  0  0  0  0  0  0
   -0.9560   -2.7814   -1.2695 H   0  0  0  0  0  0  0  0  0  0  0  0
    0.4881   -3.7231   -0.8702 H   0  0  0  0  0  0  0  0  0  0  0  0
   -0.2368   -2.6635    0.3554 H   0  0  0  0  0  0  0  0  0  0  0  0
   -0.3971    1.3008    1.0689 C   0  0  0  0  0  0  0  0  0  0  0  0
   -1.3643    1.9819    0.7311 O   0  0  0  0  0  0  0  0  0  0  0  0
    0.5522    1.7647    1.8915 N   0  0  0  0  0  0  0  0  0  0  0  0
    1.3093    1.1450    2.1332 H   0  0  0  0  0  0  0  0  0  0  0  0
    0.5577    3.1119    2.4582 C   0  0  0  0  0  0  0  0  0  0  0  0
   -0.3986    3.3098    2.9475 H   0  0  0  0  0  0  0  0  0  0  0  0
    1.3619    3.2123    3.1886 H   0  0  0  0  0  0  0  0  0  0  0  0
    0.6974    3.8450    1.6614 H   0  0  0  0  0  0  0  0  0  0  0  0
  5  6  2  0  0  0  0
  5  7  1  0  0  0  0
  2  3  1  0  0  0  0
  2  4  1  0  0  0  0
  2  5  1  0  0  0  0
  1  2  1  0  0  0  0
 24 25  2  0  0  0  0
 24 26  1  0  0  0  0
 20 21  1  0  0  0  0
 20 22  1  0  0  0  0
 20 23  1  0  0  0  0
 17 18  1  0  0  0  0
 17 19  1  0  0  0  0
 17 20  1  0  0  0  0
 13 14  1  0  0  0  0
 13 15  1  0  0  0  0
 13 16  1  0  0  0  0
 11 12  1  0  0  0  0
 11 13  1  0  0  0  0
 11 17  1  0  0  0  0
  9 10  1  0  0  0  0
  9 11  1  0  0  0  0
  9 24  1  0  0  0  0
  7  8  1  0  0  0  0
  7  9  1  0  0  0  0
 28 29  1  0  0  0  0
 28 30  1  0  0  0  0
 28 31  1  0  0  0  0
 26 27  1  0  0  0  0
 26 28  1  0  0  0  0
M  END
$$$$
default_name
  -OEChem-02102213163D

 31 30  0     1  0  0  0  0  0999 V2000
   -3.0760   -3.6390    1.5496 H   0  0  0  0  0  0  0  0  0  0  0  0
   -3.0940   -2.6290    1.1426 C   0  0  0  0  0  0  0  0  0  0  0  0
   -3.7160   -1.9930    1.7706 H   0  0  0  0  0  0  0  0  0  0  0  0
   -3.4880   -2.6500    0.1286 H   0  0  0  0  0  0  0  0  0  0  0  0
   -1.6860   -2.0850    1.1196 C   0  0  0  0  0  0  0  0  0  0  0  0
   -0.7540   -2.7700    1.5226 O   0  0  0  0  0  0  0  0  0  0  0  0
   -1.5320   -0.8490    0.6496 N   0  0  0  0  0  0  0  0  0  0  0  0
   -2.3500   -0.3360    0.3566 H   0  0  0  0  0  0  0  0  0  0  0  0
   -0.2470   -0.1410    0.5576 C   0  0  1  0  0  0  0  0  0  0  0  0
    0.4572   -0.6505    1.2162 H   0  0  0  0  0  0  0  0  0  0  0  0
    0.3091   -0.2220   -0.8868 C   0  0  1  0  0  0  0  0  0  0  0  0
   -0.5320   -0.0642   -1.5647 H   0  0  0  0  0  0  0  0  0  0  0  0
    1.3560    0.8707   -1.1765 C   0  0  0  0  0  0  0  0  0  0  0  0
    2.2528    0.7123   -0.5749 H   0  0  0  0  0  0  0  0  0  0  0  0
    1.6288    0.8633   -2.2305 H   0  0  0  0  0  0  0  0  0  0  0  0
    0.9468    1.8549   -0.9455 H   0  0  0  0  0  0  0  0  0  0  0  0
    0.8812   -1.6266   -1.1824 C   0  0  0  0  0  0  0  0  0  0  0  0
    1.2996   -1.6537   -2.1894 H   0  0  0  0  0  0  0  0  0  0  0  0
    1.6823   -1.8353   -0.4734 H   0  0  0  0  0  0  0  0  0  0  0  0
   -0.1517   -2.7541   -1.0507 C   0  0  0  0  0  0  0  0  0  0  0  0
   -0.9252   -2.6547   -1.8120 H   0  0  0  0  0  0  0  0  0  0  0  0
    0.3458   -3.7148   -1.1852 H   0  0  0  0  0  0  0  0  0  0  0  0
   -0.6089   -2.7275   -0.0609 H   0  0  0  0  0  0  0  0  0  0  0  0
   -0.3971    1.3008    1.0689 C   0  0  0  0  0  0  0  0  0  0  0  0
   -1.3643    1.9819    0.7311 O   0  0  0  0  0  0  0  0  0  0  0  0
    0.5522    1.7647    1.8915 N   0  0  0  0  0  0  0  0  0  0  0  0
    1.3093    1.1450    2.1332 H   0  0  0  0  0  0  0  0  0  0  0  0
    0.5577    3.1119    2.4582 C   0  0  0  0  0  0  0  0  0  0  0  0
   -0.3986    3.3098    2.9475 H   0  0  0  0  0  0  0  0  0  0  0  0
    1.3619    3.2123    3.1886 H   0  0  0  0  0  0  0  0  0  0  0  0
    0.6974    3.8450    1.6614 H   0  0  0  0  0  0  0  0  0  0  0  0
  5  6  2  0  0  0  0
  5  7  1  0  0  0  0
  2  3  1  0  0  0  0
  2  4  1  0  0  0  0
  2  5  1  0  0  0  0
  1  2  1  0  0  0  0
 24 25  2  0  0  0  0
 24 26  1  0  0  0  0
 20 21  1  0  0  0  0
 20 22  1  0  0  0  0
 20 23  1  0  0  0  0
 17 18  1  0  0  0  0
 17 19  1  0  0  0  0
 17 20  1  0  0  0  0
 13 14  1  0  0  0  0
 13 15  1  0  0  0  0
 13 16  1  0  0  0  0
 11 12  1  0  0  0  0
 11 13  1  0  0  0  0
 11 17  1  0  0  0  0
  9 10  1  0  0  0  0
  9 11  1  0  0  0  0
  9 24  1  0  0  0  0
  7  8  1  0  0  0  0
  7  9  1  0  0  0  0
 28 29  1  0  0  0  0
 28 30  1  0  0  0  0
 28 31  1  0  0  0  0
 26 27  1  0  0  0  0
 26 28  1  0  0  0  0
M  END
$$$$
default_name
  -OEChem-02102213163D

 31 30  0     1  0  0  0  0  0999 V2000
   -3.0760   -3.6390    1.5496 H   0  0  0  0  0  0  0  0  0  0  0  0
   -3.0940   -2.6290    1.1426 C   0  0  0  0  0  0  0  0  0  0  0  0
   -3.7160   -1.9930    1.7706 H   0  0  0  0  0  0  0  0  0  0  0  0
   -3.4880   -2.6500    0.1286 H   0  0  0  0  0  0  0  0  0  0  0  0
   -1.6860   -2.0850    1.1196 C   0  0  0  0  0  0  0  0  0  0  0  0
   -0.7540   -2.7700    1.5226 O   0  0  0  0  0  0  0  0  0  0  0  0
   -1.5320   -0.8490    0.6496 N   0  0  0  0  0  0  0  0  0  0  0  0
   -2.3500   -0.3360    0.3566 H   0  0  0  0  0  0  0  0  0  0  0  0
   -0.2470   -0.1410    0.5576 C   0  0  1  0  0  0  0  0  0  0  0  0
    0.4572   -0.6505    1.2162 H   0  0  0  0  0  0  0  0  0  0  0  0
    0.3091   -0.2220   -0.8868 C   0  0  1  0  0  0  0  0  0  0  0  0
   -0.5320   -0.0642   -1.5647 H   0  0  0  0  0  0  0  0  0  0  0  0
    1.3560    0.8707   -1.1765 C   0  0  0  0  0  0  0  0  0  0  0  0
    2.2528    0.7123   -0.5749 H   0  0  0  0  0  0  0  0  0  0  0  0
    1.6288    0.8633   -2.2305 H   0  0  0  0  0  0  0  0  0  0  0  0
    0.9468    1.8549   -0.9455 H   0  0  0  0  0  0  0  0  0  0  0  0
    0.8812   -1.6266   -1.1824 C   0  0  0  0  0  0  0  0  0  0  0  0
    1.5256   -1.5886   -2.0616 H   0  0  0  0  0  0  0  0  0  0  0  0
    1.4823   -1.9466   -0.3313 H   0  0  0  0  0  0  0  0  0  0  0  0
   -0.1955   -2.6963   -1.4102 C   0  0  0  0  0  0  0  0  0  0  0  0
   -0.7615   -2.4819   -2.3165 H   0  0  0  0  0  0  0  0  0  0  0  0
    0.2828   -3.6696   -1.5223 H   0  0  0  0  0  0  0  0  0  0  0  0
   -0.8735   -2.7309   -0.5567 H   0  0  0  0  0  0  0  0  0  0  0  0
   -0.3971    1.3008    1.0689 C   0  0  0  0  0  0  0  0  0  0  0  0
   -1.3643    1.9819    0.7311 O   0  0  0  0  0  0  0  0  0  0  0  0
    0.5522    1.7647    1.8915 N   0  0  0  0  0  0  0  0  0  0  0  0
    1.3093    1.1450    2.1332 H   0  0  0  0  0  0  0  0  0  0  0  0
    0.5577    3.1119    2.4582 C   0  0  0  0  0  0  0  0  0  0  0  0
   -0.3986    3.3098    2.9475 H   0  0  0  0  0  0  0  0  0  0  0  0
    1.3619    3.2123    3.1886 H   0  0  0  0  0  0  0  0  0  0  0  0
    0.6974    3.8450    1.6614 H   0  0  0  0  0  0  0  0  0  0  0  0
  5  6  2  0  0  0  0
  5  7  1  0  0  0  0
  2  3  1  0  0  0  0
  2  4  1  0  0  0  0
  2  5  1  0  0  0  0
  1  2  1  0  0  0  0
 24 25  2  0  0  0  0
 24 26  1  0  0  0  0
 20 21  1  0  0  0  0
 20 22  1  0  0  0  0
 20 23  1  0  0  0  0
 17 18  1  0  0  0  0
 17 19  1  0  0  0  0
 17 20  1  0  0  0  0
 13 14  1  0  0  0  0
 13 15  1  0  0  0  0
 13 16  1  0  0  0  0
 11 12  1  0  0  0  0
 11 13  1  0  0  0  0
 11 17  1  0  0  0  0
  9 10  1  0  0  0  0
  9 11  1  0  0  0  0
  9 24  1  0  0  0  0
  7  8  1  0  0  0  0
  7  9  1  0  0  0  0
 28 29  1  0  0  0  0
 28 30  1  0  0  0  0
 28 31  1  0  0  0  0
 26 27  1  0  0  0  0
 26 28  1  0  0  0  0
M  END
$$$$
default_name
  -OEChem-02102213163D

 31 30  0     1  0  0  0  0  0999 V2000
   -3.0760   -3.6390    1.5496 H   0  0  0  0  0  0  0  0  0  0  0  0
   -3.0940   -2.6290    1.1426 C   0  0  0  0  0  0  0  0  0  0  0  0
   -3.7160   -1.9930    1.7706 H   0  0  0  0  0  0  0  0  0  0  0  0
   -3.4880   -2.6500    0.1286 H   0  0  0  0  0  0  0  0  0  0  0  0
   -1.6860   -2.0850    1.1196 C   0  0  0  0  0  0  0  0  0  0  0  0
   -0.7540   -2.7700    1.5226 O   0  0  0  0  0  0  0  0  0  0  0  0
   -1.5320   -0.8490    0.6496 N   0  0  0  0  0  0  0  0  0  0  0  0
   -2.3500   -0.3360    0.3566 H   0  0  0  0  0  0  0  0  0  0  0  0
   -0.2470   -0.1410    0.5576 C   0  0  1  0  0  0  0  0  0  0  0  0
    0.4572   -0.6505    1.2162 H   0  0  0  0  0  0  0  0  0  0  0  0
    0.3091   -0.2220   -0.8868 C   0  0  1  0  0  0  0  0  0  0  0  0
   -0.5320   -0.0642   -1.5647 H   0  0  0  0  0  0  0  0  0  0  0  0
    1.3560    0.8707   -1.1765 C   0  0  0  0  0  0  0  0  0  0  0  0
    2.2528    0.7123   -0.5749 H   0  0  0  0  0  0  0  0  0  0  0  0
    1.6288    0.8633   -2.2305 H   0  0  0  0  0  0  0  0  0  0  0  0
    0.9468    1.8549   -0.9455 H   0  0  0  0  0  0  0  0  0  0  0  0
    0.8812   -1.6266   -1.1824 C   0  0  0  0  0  0  0  0  0  0  0  0
    1.7171   -1.5491   -1.8788 H   0  0  0  0  0  0  0  0  0  0  0  0
    1.2502   -2.0579   -0.2518 H   0  0  0  0  0  0  0  0  0  0  0  0
   -0.1504   -2.6038   -1.7623 C   0  0  0  0  0  0  0  0  0  0  0  0
   -0.4762   -2.2748   -2.7489 H   0  0  0  0  0  0  0  0  0  0  0  0
    0.3035   -3.5904   -1.8583 H   0  0  0  0  0  0  0  0  0  0  0  0
   -1.0126   -2.6736   -1.0982 H   0  0  0  0  0  0  0  0  0  0  0  0
   -0.3971    1.3008    1.0689 C   0  0  0  0  0  0  0  0  0  0  0  0
   -1.3643    1.9819    0.7311 O   0  0  0  0  0  0  0  0  0  0  0  0
    0.5522    1.7647    1.8915 N   0  0  0  0  0  0  0  0  0  0  0  0
    1.3093    1.1450    2.1332 H   0  0  0  0  0  0  0  0  0  0  0  0
    0.5577    3.1119    2.4582 C   0  0  0  0  0  0  0  0  0  0  0  0
   -0.3986    3.3098    2.9475 H   0  0  0  0  0  0  0  0  0  0  0  0
    1.3619    3.2123    3.1886 H   0  0  0  0  0  0  0  0  0  0  0  0
    0.6974    3.8450    1.6614 H   0  0  0  0  0  0  0  0  0  0  0  0
  5  6  2  0  0  0  0
  5  7  1  0  0  0  0
  2  3  1  0  0  0  0
  2  4  1  0  0  0  0
  2  5  1  0  0  0  0
  1  2  1  0  0  0  0
 24 25  2  0  0  0  0
 24 26  1  0  0  0  0
 20 21  1  0  0  0  0
 20 22  1  0  0  0  0
 20 23  1  0  0  0  0
 17 18  1  0  0  0  0
 17 19  1  0  0  0  0
 17 20  1  0  0  0  0
 13 14  1  0  0  0  0
 13 15  1  0  0  0  0
 13 16  1  0  0  0  0
 11 12  1  0  0  0  0
 11 13  1  0  0  0  0
 11 17  1  0  0  0  0
  9 10  1  0  0  0  0
  9 11  1  0  0  0  0
  9 24  1  0  0  0  0
  7  8  1  0  0  0  0
  7  9  1  0  0  0  0
 28 29  1  0  0  0  0
 28 30  1  0  0  0  0
 28 31  1  0  0  0  0
 26 27  1  0  0  0  0
 26 28  1  0  0  0  0
M  END
$$$$
default_name
  -OEChem-02102213163D

 31 30  0     1  0  0  0  0  0999 V2000
   -3.0760   -3.6390    1.5496 H   0  0  0  0  0  0  0  0  0  0  0  0
   -3.0940   -2.6290    1.1426 C   0  0  0  0  0  0  0  0  0  0  0  0
   -3.7160   -1.9930    1.7706 H   0  0  0  0  0  0  0  0  0  0  0  0
   -3.4880   -2.6500    0.1286 H   0  0  0  0  0  0  0  0  0  0  0  0
   -1.6860   -2.0850    1.1196 C   0  0  0  0  0  0  0  0  0  0  0  0
   -0.7540   -2.7700    1.5226 O   0  0  0  0  0  0  0  0  0  0  0  0
   -1.5320   -0.8490    0.6496 N   0  0  0  0  0  0  0  0  0  0  0  0
   -2.3500   -0.3360    0.3566 H   0  0  0  0  0  0  0  0  0  0  0  0
   -0.2470   -0.1410    0.5576 C   0  0  1  0  0  0  0  0  0  0  0  0
    0.4572   -0.6505    1.2162 H   0  0  0  0  0  0  0  0  0  0  0  0
    0.3091   -0.2220   -0.8868 C   0  0  1  0  0  0  0  0  0  0  0  0
   -0.5320   -0.0642   -1.5647 H   0  0  0  0  0  0  0  0  0  0  0  0
    1.3560    0.8707   -1.1765 C   0  0  0  0  0  0  0  0  0  0  0  0
    2.2528    0.7123   -0.5749 H   0  0  0  0  0  0  0  0  0  0  0  0
    1.6288    0.8633   -2.2305 H   0  0  0  0  0  0  0  0  0  0  0  0
    0.9468    1.8549   -0.9455 H   0  0  0  0  0  0  0  0  0  0  0  0
    0.8812   -1.6266   -1.1824 C   0  0  0  0  0  0  0  0  0  0  0  0
    1.8610   -1.5379   -1.6534 H   0  0  0  0  0  0  0  0  0  0  0  0
    1.0017   -2.1614   -0.2403 H   0  0  0  0  0  0  0  0  0  0  0  0
   -0.0194   -2.4830   -2.0829 C   0  0  0  0  0  0  0  0  0  0  0  0
   -0.0886   -2.0474   -3.0795 H   0  0  0  0  0  0  0  0  0  0  0  0
    0.4064   -3.4828   -2.1705 H   0  0  0  0  0  0  0  0  0  0  0  0
   -1.0167   -2.5596   -1.6485 H   0  0  0  0  0  0  0  0  0  0  0  0
   -0.3971    1.3008    1.0689 C   0  0  0  0  0  0  0  0  0  0  0  0
   -1.3643    1.9819    0.7311 O   0  0  0  0  0  0  0  0  0  0  0  0
    0.5522    1.7647    1.8915 N   0  0  0  0  0  0  0  0  0  0  0  0
    1.3093    1.1450    2.1332 H   0  0  0  0  0  0  0  0  0  0  0  0
    0.5577    3.1119    2.4582 C   0  0  0  0  0  0  0  0  0  0  0  0
   -0.3986    3.3098    2.9475 H   0  0  0  0  0  0  0  0  0  0  0  0
    1.3619    3.2123    3.1886 H   0  0  0  0  0  0  0  0  0  0  0  0
    0.6974    3.8450    1.6614 H   0  0  0  0  0  0  0  0  0  0  0  0
  5  6  2  0  0  0  0
  5  7  1  0  0  0  0
  2  3  1  0  0  0  0
  2  4  1  0  0  0  0
  2  5  1  0  0  0  0
  1  2  1  0  0  0  0
 24 25  2  0  0  0  0
 24 26  1  0  0  0  0
 20 21  1  0  0  0  0
 20 22  1  0  0  0  0
 20 23  1  0  0  0  0
 17 18  1  0  0  0  0
 17 19  1  0  0  0  0
 17 20  1  0  0  0  0
 13 14  1  0  0  0  0
 13 15  1  0  0  0  0
 13 16  1  0  0  0  0
 11 12  1  0  0  0  0
 11 13  1  0  0  0  0
 11 17  1  0  0  0  0
  9 10  1  0  0  0  0
  9 11  1  0  0  0  0
  9 24  1  0  0  0  0
  7  8  1  0  0  0  0
  7  9  1  0  0  0  0
 28 29  1  0  0  0  0
 28 30  1  0  0  0  0
 28 31  1  0  0  0  0
 26 27  1  0  0  0  0
 26 28  1  0  0  0  0
M  END
$$$$
default_name
  -OEChem-02102213163D

 31 30  0     1  0  0  0  0  0999 V2000
   -3.0760   -3.6390    1.5496 H   0  0  0  0  0  0  0  0  0  0  0  0
   -3.0940   -2.6290    1.1426 C   0  0  0  0  0  0  0  0  0  0  0  0
   -3.7160   -1.9930    1.7706 H   0  0  0  0  0  0  0  0  0  0  0  0
   -3.4880   -2.6500    0.1286 H   0  0  0  0  0  0  0  0  0  0  0  0
   -1.6860   -2.0850    1.1196 C   0  0  0  0  0  0  0  0  0  0  0  0
   -0.7540   -2.7700    1.5226 O   0  0  0  0  0  0  0  0  0  0  0  0
   -1.5320   -0.8490    0.6496 N   0  0  0  0  0  0  0  0  0  0  0  0
   -2.3500   -0.3360    0.3566 H   0  0  0  0  0  0  0  0  0  0  0  0
   -0.2470   -0.1410    0.5576 C   0  0  1  0  0  0  0  0  0  0  0  0
    0.4572   -0.6505    1.2162 H   0  0  0  0  0  0  0  0  0  0  0  0
    0.3091   -0.2220   -0.8868 C   0  0  1  0  0  0  0  0  0  0  0  0
   -0.5320   -0.0642   -1.5647 H   0  0  0  0  0  0  0  0  0  0  0  0
    1.3560    0.8707   -1.1765 C   0  0  0  0  0  0  0  0  0  0  0  0
    2.2528    0.7123   -0.5749 H   0  0  0  0  0  0  0  0  0  0  0  0
    1.6288    0.8633   -2.2305 H   0  0  0  0  0  0  0  0  0  0  0  0
    0.9468    1.8549   -0.9455 H   0  0  0  0  0  0  0  0  0  0  0  0
    0.8812   -1.6266   -1.1824 C   0  0  0  0  0  0  0  0  0  0  0  0
    1.9476   -1.5558   -1.4007 H   0  0  0  0  0  0  0  0  0  0  0  0
    0.7539   -2.2503   -0.2976 H   0  0  0  0  0  0  0  0  0  0  0  0
    0.1886   -2.3421   -2.3501 C   0  0  0  0  0  0  0  0  0  0  0  0
    0.3749   -1.8152   -3.2858 H   0  0  0  0  0  0  0  0  0  0  0  0
    0.5847   -3.3541   -2.4374 H   0  0  0  0  0  0  0  0  0  0  0  0
   -0.8856   -2.3964   -2.1700 H   0  0  0  0  0  0  0  0  0  0  0  0
   -0.3971    1.3008    1.0689 C   0  0  0  0  0  0  0  0  0  0  0  0
   -1.3643    1.9819    0.7311 O   0  0  0  0  0  0  0  0  0  0  0  0
    0.5522    1.7647    1.8915 N   0  0  0  0  0  0  0  0  0  0  0  0
    1.3093    1.1450    2.1332 H   0  0  0  0  0  0  0  0  0  0  0  0
    0.5577    3.1119    2.4582 C   0  0  0  0  0  0  0  0  0  0  0  0
   -0.3986    3.3098    2.9475 H   0  0  0  0  0  0  0  0  0  0  0  0
    1.3619    3.2123    3.1886 H   0  0  0  0  0  0  0  0  0  0  0  0
    0.6974    3.8450    1.6614 H   0  0  0  0  0  0  0  0  0  0  0  0
  5  6  2  0  0  0  0
  5  7  1  0  0  0  0
  2  3  1  0  0  0  0
  2  4  1  0  0  0  0
  2  5  1  0  0  0  0
  1  2  1  0  0  0  0
 24 25  2  0  0  0  0
 24 26  1  0  0  0  0
 20 21  1  0  0  0  0
 20 22  1  0  0  0  0
 20 23  1  0  0  0  0
 17 18  1  0  0  0  0
 17 19  1  0  0  0  0
 17 20  1  0  0  0  0
 13 14  1  0  0  0  0
 13 15  1  0  0  0  0
 13 16  1  0  0  0  0
 11 12  1  0  0  0  0
 11 13  1  0  0  0  0
 11 17  1  0  0  0  0
  9 10  1  0  0  0  0
  9 11  1  0  0  0  0
  9 24  1  0  0  0  0
  7  8  1  0  0  0  0
  7  9  1  0  0  0  0
 28 29  1  0  0  0  0
 28 30  1  0  0  0  0
 28 31  1  0  0  0  0
 26 27  1  0  0  0  0
 26 28  1  0  0  0  0
M  END
$$$$
default_name
  -OEChem-02102213163D

 31 30  0     1  0  0  0  0  0999 V2000
   -3.0760   -3.6390    1.5496 H   0  0  0  0  0  0  0  0  0  0  0  0
   -3.0940   -2.6290    1.1426 C   0  0  0  0  0  0  0  0  0  0  0  0
   -3.7160   -1.9930    1.7706 H   0  0  0  0  0  0  0  0  0  0  0  0
   -3.4880   -2.6500    0.1286 H   0  0  0  0  0  0  0  0  0  0  0  0
   -1.6860   -2.0850    1.1196 C   0  0  0  0  0  0  0  0  0  0  0  0
   -0.7540   -2.7700    1.5226 O   0  0  0  0  0  0  0  0  0  0  0  0
   -1.5320   -0.8490    0.6496 N   0  0  0  0  0  0  0  0  0  0  0  0
   -2.3500   -0.3360    0.3566 H   0  0  0  0  0  0  0  0  0  0  0  0
   -0.2470   -0.1410    0.5576 C   0  0  1  0  0  0  0  0  0  0  0  0
    0.4572   -0.6505    1.2162 H   0  0  0  0  0  0  0  0  0  0  0  0
    0.3091   -0.2220   -0.8868 C   0  0  1  0  0  0  0  0  0  0  0  0
   -0.5320   -0.0642   -1.5647 H   0  0  0  0  0  0  0  0  0  0  0  0
    1.3560    0.8707   -1.1765 C   0  0  0  0  0  0  0  0  0  0  0  0
    2.2528    0.7123   -0.5749 H   0  0  0  0  0  0  0  0  0  0  0  0
    1.6288    0.8633   -2.2305 H   0  0  0  0  0  0  0  0  0  0  0  0
    0.9468    1.8549   -0.9455 H   0  0  0  0  0  0  0  0  0  0  0  0
    0.8812   -1.6266   -1.1824 C   0  0  0  0  0  0  0  0  0  0  0  0
    1.9708   -1.6016   -1.1380 H   0  0  0  0  0  0  0  0  0  0  0  0
    0.5237   -2.3184   -0.4197 H   0  0  0  0  0  0  0  0  0  0  0  0
    0.4593   -2.1907   -2.5459 C   0  0  0  0  0  0  0  0  0  0  0  0
    0.8825   -1.5941   -3.3538 H   0  0  0  0  0  0  0  0  0  0  0  0
    0.8260   -3.2130   -2.6410 H   0  0  0  0  0  0  0  0  0  0  0  0
   -0.6282   -2.1954   -2.6274 H   0  0  0  0  0  0  0  0  0  0  0  0
   -0.3971    1.3008    1.0689 C   0  0  0  0  0  0  0  0  0  0  0  0
   -1.3643    1.9819    0.7311 O   0  0  0  0  0  0  0  0  0  0  0  0
    0.5522    1.7647    1.8915 N   0  0  0  0  0  0  0  0  0  0  0  0
    1.3093    1.1450    2.1332 H   0  0  0  0  0  0  0  0  0  0  0  0
    0.5577    3.1119    2.4582 C   0  0  0  0  0  0  0  0  0  0  0  0
   -0.3986    3.3098    2.9475 H   0  0  0  0  0  0  0  0  0  0  0  0
    1.3619    3.2123    3.1886 H   0  0  0  0  0  0  0  0  0  0  0  0
    0.6974    3.8450    1.6614 H   0  0  0  0  0  0  0  0  0  0  0  0
  5  6  2  0  0  0  0
  5  7  1  0  0  0  0
  2  3  1  0  0  0  0
  2  4  1  0  0  0  0
  2  5  1  0  0  0  0
  1  2  1  0  0  0  0
 24 25  2  0  0  0  0
 24 26  1  0  0  0  0
 20 21  1  0  0  0  0
 20 22  1  0  0  0  0
 20 23  1  0  0  0  0
 17 18  1  0  0  0  0
 17 19  1  0  0  0  0
 17 20  1  0  0  0  0
 13 14  1  0  0  0  0
 13 15  1  0  0  0  0
 13 16  1  0  0  0  0
 11 12  1  0  0  0  0
 11 13  1  0  0  0  0
 11 17  1  0  0  0  0
  9 10  1  0  0  0  0
  9 11  1  0  0  0  0
  9 24  1  0  0  0  0
  7  8  1  0  0  0  0
  7  9  1  0  0  0  0
 28 29  1  0  0  0  0
 28 30  1  0  0  0  0
 28 31  1  0  0  0  0
 26 27  1  0  0  0  0
 26 28  1  0  0  0  0
M  END
$$$$
default_name
  -OEChem-02102213163D

 31 30  0     1  0  0  0  0  0999 V2000
   -3.0760   -3.6390    1.5496 H   0  0  0  0  0  0  0  0  0  0  0  0
   -3.0940   -2.6290    1.1426 C   0  0  0  0  0  0  0  0  0  0  0  0
   -3.7160   -1.9930    1.7706 H   0  0  0  0  0  0  0  0  0  0  0  0
   -3.4880   -2.6500    0.1286 H   0  0  0  0  0  0  0  0  0  0  0  0
   -1.6860   -2.0850    1.1196 C   0  0  0  0  0  0  0  0  0  0  0  0
   -0.7540   -2.7700    1.5226 O   0  0  0  0  0  0  0  0  0  0  0  0
   -1.5320   -0.8490    0.6496 N   0  0  0  0  0  0  0  0  0  0  0  0
   -2.3500   -0.3360    0.3566 H   0  0  0  0  0  0  0  0  0  0  0  0
   -0.2470   -0.1410    0.5576 C   0  0  1  0  0  0  0  0  0  0  0  0
    0.4572   -0.6505    1.2162 H   0  0  0  0  0  0  0  0  0  0  0  0
    0.3091   -0.2220   -0.8868 C   0  0  1  0  0  0  0  0  0  0  0  0
   -0.5320   -0.0642   -1.5647 H   0  0  0  0  0  0  0  0  0  0  0  0
    1.3560    0.8707   -1.1765 C   0  0  0  0  0  0  0  0  0  0  0  0
    2.2528    0.7123   -0.5749 H   0  0  0  0  0  0  0  0  0  0  0  0
    1.6288    0.8633   -2.2305 H   0  0  0  0  0  0  0  0  0  0  0  0
    0.9468    1.8549   -0.9455 H   0  0  0  0  0  0  0  0  0  0  0  0
    0.8812   -1.6266   -1.1824 C   0  0  0  0  0  0  0  0  0  0  0  0
    1.9292   -1.6722   -0.8832 H   0  0  0  0  0  0  0  0  0  0  0  0
    0.3266   -2.3611   -0.5984 H   0  0  0  0  0  0  0  0  0  0  0  0
    0.7744   -2.0390   -2.6567 C   0  0  0  0  0  0  0  0  0  0  0  0
    1.3999   -1.3992   -3.2789 H   0  0  0  0  0  0  0  0  0  0  0  0
    1.1140   -3.0691   -2.7674 H   0  0  0  0  0  0  0  0  0  0  0  0
   -0.2620   -1.9701   -2.9893 H   0  0  0  0  0  0  0  0  0  0  0  0
   -0.3971    1.3008    1.0689 C   0  0  0  0  0  0  0  0  0  0  0  0
   -1.3643    1.9819    0.7311 O   0  0  0  0  0  0  0  0  0  0  0  0
    0.5522    1.7647    1.8915 N   0  0  0  0  0  0  0  0  0  0  0  0
    1.3093    1.1450    2.1332 H   0  0  0  0  0  0  0  0  0  0  0  0
    0.5577    3.1119    2.4582 C   0  0  0  0  0  0  0  0  0  0  0  0
   -0.3986    3.3098    2.9475 H   0  0  0  0  0  0  0  0  0  0  0  0
    1.3619    3.2123    3.1886 H   0  0  0  0  0  0  0  0  0  0  0  0
    0.6974    3.8450    1.6614 H   0  0  0  0  0  0  0  0  0  0  0  0
  5  6  2  0  0  0  0
  5  7  1  0  0  0  0
  2  3  1  0  0  0  0
  2  4  1  0  0  0  0
  2  5  1  0  0  0  0
  1  2  1  0  0  0  0
 24 25  2  0  0  0  0
 24 26  1  0  0  0  0
 20 21  1  0  0  0  0
 20 22  1  0  0  0  0
 20 23  1  0  0  0  0
 17 18  1  0  0  0  0
 17 19  1  0  0  0  0
 17 20  1  0  0  0  0
 13 14  1  0  0  0  0
 13 15  1  0  0  0  0
 13 16  1  0  0  0  0
 11 12  1  0  0  0  0
 11 13  1  0  0  0  0
 11 17  1  0  0  0  0
  9 10  1  0  0  0  0
  9 11  1  0  0  0  0
  9 24  1  0  0  0  0
  7  8  1  0  0  0  0
  7  9  1  0  0  0  0
 28 29  1  0  0  0  0
 28 30  1  0  0  0  0
 28 31  1  0  0  0  0
 26 27  1  0  0  0  0
 26 28  1  0  0  0  0
M  END
$$$$
default_name
  -OEChem-02102213163D

 31 30  0     1  0  0  0  0  0999 V2000
   -3.0760   -3.6390    1.5496 H   0  0  0  0  0  0  0  0  0  0  0  0
   -3.0940   -2.6290    1.1426 C   0  0  0  0  0  0  0  0  0  0  0  0
   -3.7160   -1.9930    1.7706 H   0  0  0  0  0  0  0  0  0  0  0  0
   -3.4880   -2.6500    0.1286 H   0  0  0  0  0  0  0  0  0  0  0  0
   -1.6860   -2.0850    1.1196 C   0  0  0  0  0  0  0  0  0  0  0  0
   -0.7540   -2.7700    1.5226 O   0  0  0  0  0  0  0  0  0  0  0  0
   -1.5320   -0.8490    0.6496 N   0  0  0  0  0  0  0  0  0  0  0  0
   -2.3500   -0.3360    0.3566 H   0  0  0  0  0  0  0  0  0  0  0  0
   -0.2470   -0.1410    0.5576 C   0  0  1  0  0  0  0  0  0  0  0  0
    0.4572   -0.6505    1.2162 H   0  0  0  0  0  0  0  0  0  0  0  0
    0.3091   -0.2220   -0.8868 C   0  0  1  0  0  0  0  0  0  0  0  0
   -0.5320   -0.0642   -1.5647 H   0  0  0  0  0  0  0  0  0  0  0  0
    1.3560    0.8707   -1.1765 C   0  0  0  0  0  0  0  0  0  0  0  0
    2.2528    0.7123   -0.5749 H   0  0  0  0  0  0  0  0  0  0  0  0
    1.6288    0.8633   -2.2305 H   0  0  0  0  0  0  0  0  0  0  0  0
    0.9468    1.8549   -0.9455 H   0  0  0  0  0  0  0  0  0  0  0  0
    0.8812   -1.6266   -1.1824 C   0  0  0  0  0  0  0  0  0  0  0  0
    1.8255   -1.7627   -0.6536 H   0  0  0  0  0  0  0  0  0  0  0  0
    0.1761   -2.3754   -0.8214 H   0  0  0  0  0  0  0  0  0  0  0  0
    1.1123   -1.8976   -2.6752 C   0  0  0  0  0  0  0  0  0  0  0  0
    1.8916   -1.2437   -3.0662 H   0  0  0  0  0  0  0  0  0  0  0  0
    1.4290   -2.9323   -2.8079 H   0  0  0  0  0  0  0  0  0  0  0  0
    0.1881   -1.7359   -3.2311 H   0  0  0  0  0  0  0  0  0  0  0  0
   -0.3971    1.3008    1.0689 C   0  0  0  0  0  0  0  0  0  0  0  0
   -1.3643    1.9819    0.7311 O   0  0  0  0  0  0  0  0  0  0  0  0
    0.5522    1.7647    1.8915 N   0  0  0  0  0  0  0  0  0  0  0  0
    1.3093    1.1450    2.1332 H   0  0  0  0  0  0  0  0  0  0  0  0
    0.5577    3.1119    2.4582 C   0  0  0  0  0  0  0  0  0  0  0  0
   -0.3986    3.3098    2.9475 H   0  0  0  0  0  0  0  0  0  0  0  0
    1.3619    3.2123    3.1886 H   0  0  0  0  0  0  0  0  0  0  0  0
    0.6974    3.8450    1.6614 H   0  0  0  0  0  0  0  0  0  0  0  0
  5  6  2  0  0  0  0
  5  7  1  0  0  0  0
  2  3  1  0  0  0  0
  2  4  1  0  0  0  0
  2  5  1  0  0  0  0
  1  2  1  0  0  0  0
 24 25  2  0  0  0  0
 24 26  1  0  0  0  0
 20 21  1  0  0  0  0
 20 22  1  0  0  0  0
 20 23  1  0  0  0  0
 17 18  1  0  0  0  0
 17 19  1  0  0  0  0
 17 20  1  0  0  0  0
 13 14  1  0  0  0  0
 13 15  1  0  0  0  0
 13 16  1  0  0  0  0
 11 12  1  0  0  0  0
 11 13  1  0  0  0  0
 11 17  1  0  0  0  0
  9 10  1  0  0  0  0
  9 11  1  0  0  0  0
  9 24  1  0  0  0  0
  7  8  1  0  0  0  0
  7  9  1  0  0  0  0
 28 29  1  0  0  0  0
 28 30  1  0  0  0  0
 28 31  1  0  0  0  0
 26 27  1  0  0  0  0
 26 28  1  0  0  0  0
M  END
$$$$
default_name
  -OEChem-02102213163D

 31 30  0     1  0  0  0  0  0999 V2000
   -3.0760   -3.6390    1.5496 H   0  0  0  0  0  0  0  0  0  0  0  0
   -3.0940   -2.6290    1.1426 C   0  0  0  0  0  0  0  0  0  0  0  0
   -3.7160   -1.9930    1.7706 H   0  0  0  0  0  0  0  0  0  0  0  0
   -3.4880   -2.6500    0.1286 H   0  0  0  0  0  0  0  0  0  0  0  0
   -1.6860   -2.0850    1.1196 C   0  0  0  0  0  0  0  0  0  0  0  0
   -0.7540   -2.7700    1.5226 O   0  0  0  0  0  0  0  0  0  0  0  0
   -1.5320   -0.8490    0.6496 N   0  0  0  0  0  0  0  0  0  0  0  0
   -2.3500   -0.3360    0.3566 H   0  0  0  0  0  0  0  0  0  0  0  0
   -0.2470   -0.1410    0.5576 C   0  0  1  0  0  0  0  0  0  0  0  0
    0.4572   -0.6505    1.2162 H   0  0  0  0  0  0  0  0  0  0  0  0
    0.3091   -0.2220   -0.8868 C   0  0  1  0  0  0  0  0  0  0  0  0
   -0.4521    0.1957   -1.5485 H   0  0  0  0  0  0  0  0  0  0  0  0
    1.5950    0.6068   -1.0696 C   0  0  0  0  0  0  0  0  0  0  0  0
    2.4121    0.1821   -0.4838 H   0  0  0  0  0  0  0  0  0  0  0  0
    1.8842    0.6298   -2.1191 H   0  0  0  0  0  0  0  0  0  0  0  0
    1.4289    1.6354   -0.7475 H   0  0  0  0  0  0  0  0  0  0  0  0
    0.5337   -1.6903   -1.3126 C   0  0  0  0  0  0  0  0  0  0  0  0
    1.2203   -2.1779   -0.6194 H   0  0  0  0  0  0  0  0  0  0  0  0
   -0.4204   -2.2160   -1.2754 H   0  0  0  0  0  0  0  0  0  0  0  0
    1.0850   -1.8427   -2.7367 C   0  0  0  0  0  0  0  0  0  0  0  0
    2.0899   -1.4263   -2.8041 H   0  0  0  0  0  0  0  0  0  0  0  0
    1.1305   -2.9014   -2.9932 H   0  0  0  0  0  0  0  0  0  0  0  0
    0.4314   -1.3341   -3.4462 H   0  0  0  0  0  0  0  0  0  0  0  0
   -0.3971    1.3008    1.0689 C   0  0  0  0  0  0  0  0  0  0  0  0
   -1.3643    1.9819    0.7311 O   0  0  0  0  0  0  0  0  0  0  0  0
    0.5522    1.7647    1.8915 N   0  0  0  0  0  0  0  0  0  0  0  0
    1.3093    1.1450    2.1332 H   0  0  0  0  0  0  0  0  0  0  0  0
    0.5577    3.1119    2.4582 C   0  0  0  0  0  0  0  0  0  0  0  0
   -0.3986    3.3098    2.9475 H   0  0  0  0  0  0  0  0  0  0  0  0
    1.3619    3.2123    3.1886 H   0  0  0  0  0  0  0  0  0  0  0  0
    0.6974    3.8450    1.6614 H   0  0  0  0  0  0  0  0  0  0  0  0
  5  6  2  0  0  0  0
  5  7  1  0  0  0  0
  2  3  1  0  0  0  0
  2  4  1  0  0  0  0
  2  5  1  0  0  0  0
  1  2  1  0  0  0  0
 24 25  2  0  0  0  0
 24 26  1  0  0  0  0
 20 21  1  0  0  0  0
 20 22  1  0  0  0  0
 20 23  1  0  0  0  0
 17 18  1  0  0  0  0
 17 19  1  0  0  0  0
 17 20  1  0  0  0  0
 13 14  1  0  0  0  0
 13 15  1  0  0  0  0
 13 16  1  0  0  0  0
 11 12  1  0  0  0  0
 11 13  1  0  0  0  0
 11 17  1  0  0  0  0
  9 10  1  0  0  0  0
  9 11  1  0  0  0  0
  9 24  1  0  0  0  0
  7  8  1  0  0  0  0
  7  9  1  0  0  0  0
 28 29  1  0  0  0  0
 28 30  1  0  0  0  0
 28 31  1  0  0  0  0
 26 27  1  0  0  0  0
 26 28  1  0  0  0  0
M  END
$$$$
default_name
  -OEChem-02102213163D

 31 30  0     1  0  0  0  0  0999 V2000
   -3.0760   -3.6390    1.5496 H   0  0  0  0  0  0  0  0  0  0  0  0
   -3.0940   -2.6290    1.1426 C   0  0  0  0  0  0  0  0  0  0  0  0
   -3.7160   -1.9930    1.7706 H   0  0  0  0  0  0  0  0  0  0  0  0
   -3.4880   -2.6500    0.1286 H   0  0  0  0  0  0  0  0  0  0  0  0
   -1.6860   -2.0850    1.1196 C   0  0  0  0  0  0  0  0  0  0  0  0
   -0.7540   -2.7700    1.5226 O   0  0  0  0  0  0  0  0  0  0  0  0
   -1.5320   -0.8490    0.6496 N   0  0  0  0  0  0  0  0  0  0  0  0
   -2.3500   -0.3360    0.3566 H   0  0  0  0  0  0  0  0  0  0  0  0
   -0.2470   -0.1410    0.5576 C   0  0  1  0  0  0  0  0  0  0  0  0
    0.4572   -0.6505    1.2162 H   0  0  0  0  0  0  0  0  0  0  0  0
    0.3091   -0.2220   -0.8868 C   0  0  1  0  0  0  0  0  0  0  0  0
   -0.4521    0.1957   -1.5485 H   0  0  0  0  0  0  0  0  0  0  0  0
    1.5950    0.6068   -1.0696 C   0  0  0  0  0  0  0  0  0  0  0  0
    2.4121    0.1821   -0.4838 H   0  0  0  0  0  0  0  0  0  0  0  0
    1.8842    0.6298   -2.1191 H   0  0  0  0  0  0  0  0  0  0  0  0
    1.4289    1.6354   -0.7475 H   0  0  0  0  0  0  0  0  0  0  0  0
    0.5337   -1.6903   -1.3126 C   0  0  0  0  0  0  0  0  0  0  0  0
    0.9935   -2.2484   -0.4960 H   0  0  0  0  0  0  0  0  0  0  0  0
   -0.4328   -2.1428   -1.5344 H   0  0  0  0  0  0  0  0  0  0  0  0
    1.4087   -1.8433   -2.5641 C   0  0  0  0  0  0  0  0  0  0  0  0
    2.4245   -1.5027   -2.3643 H   0  0  0  0  0  0  0  0  0  0  0  0
    1.4456   -2.8945   -2.8506 H   0  0  0  0  0  0  0  0  0  0  0  0
    0.9862   -1.2663   -3.3875 H   0  0  0  0  0  0  0  0  0  0  0  0
   -0.3971    1.3008    1.0689 C   0  0  0  0  0  0  0  0  0  0  0  0
   -1.3643    1.9819    0.7311 O   0  0  0  0  0  0  0  0  0  0  0  0
    0.5522    1.7647    1.8915 N   0  0  0  0  0  0  0  0  0  0  0  0
    1.3093    1.1450    2.1332 H   0  0  0  0  0  0  0  0  0  0  0  0
    0.5577    3.1119    2.4582 C   0  0  0  0  0  0  0  0  0  0  0  0
   -0.3986    3.3098    2.9475 H   0  0  0  0  0  0  0  0  0  0  0  0
    1.3619    3.2123    3.1886 H   0  0  0  0  0  0  0  0  0  0  0  0
    0.6974    3.8450    1.6614 H   0  0  0  0  0  0  0  0  0  0  0  0
  5  6  2  0  0  0  0
  5  7  1  0  0  0  0
  2  3  1  0  0  0  0
  2  4  1  0  0  0  0
  2  5  1  0  0  0  0
  1  2  1  0  0  0  0
 24 25  2  0  0  0  0
 24 26  1  0  0  0  0
 20 21  1  0  0  0  0
 20 22  1  0  0  0  0
 20 23  1  0  0  0  0
 17 18  1  0  0  0  0
 17 19  1  0  0  0  0
 17 20  1  0  0  0  0
 13 14  1  0  0  0  0
 13 15  1  0  0  0  0
 13 16  1  0  0  0  0
 11 12  1  0  0  0  0
 11 13  1  0  0  0  0
 11 17  1  0  0  0  0
  9 10  1  0  0  0  0
  9 11  1  0  0  0  0
  9 24  1  0  0  0  0
  7  8  1  0  0  0  0
  7  9  1  0  0  0  0
 28 29  1  0  0  0  0
 28 30  1  0  0  0  0
 28 31  1  0  0  0  0
 26 27  1  0  0  0  0
 26 28  1  0  0  0  0
M  END
$$$$
default_name
  -OEChem-02102213163D

 31 30  0     1  0  0  0  0  0999 V2000
   -3.0760   -3.6390    1.5496 H   0  0  0  0  0  0  0  0  0  0  0  0
   -3.0940   -2.6290    1.1426 C   0  0  0  0  0  0  0  0  0  0  0  0
   -3.7160   -1.9930    1.7706 H   0  0  0  0  0  0  0  0  0  0  0  0
   -3.4880   -2.6500    0.1286 H   0  0  0  0  0  0  0  0  0  0  0  0
   -1.6860   -2.0850    1.1196 C   0  0  0  0  0  0  0  0  0  0  0  0
   -0.7540   -2.7700    1.5226 O   0  0  0  0  0  0  0  0  0  0  0  0
   -1.5320   -0.8490    0.6496 N   0  0  0  0  0  0  0  0  0  0  0  0
   -2.3500   -0.3360    0.3566 H   0  0  0  0  0  0  0  0  0  0  0  0
   -0.2470   -0.1410    0.5576 C   0  0  1  0  0  0  0  0  0  0  0  0
    0.4572   -0.6505    1.2162 H   0  0  0  0  0  0  0  0  0  0  0  0
    0.3091   -0.2220   -0.8868 C   0  0  1  0  0  0  0  0  0  0  0  0
   -0.4521    0.1957   -1.5485 H   0  0  0  0  0  0  0  0  0  0  0  0
    1.5950    0.6068   -1.0696 C   0  0  0  0  0  0  0  0  0  0  0  0
    2.4121    0.1821   -0.4838 H   0  0  0  0  0  0  0  0  0  0  0  0
    1.8842    0.6298   -2.1191 H   0  0  0  0  0  0  0  0  0  0  0  0
    1.4289    1.6354   -0.7475 H   0  0  0  0  0  0  0  0  0  0  0  0
    0.5337   -1.6903   -1.3126 C   0  0  0  0  0  0  0  0  0  0  0  0
    0.7391   -2.3049   -0.4352 H   0  0  0  0  0  0  0  0  0  0  0  0
   -0.3759   -2.0614   -1.7849 H   0  0  0  0  0  0  0  0  0  0  0  0
    1.6788   -1.8734   -2.3178 C   0  0  0  0  0  0  0  0  0  0  0  0
    2.6340   -1.6169   -1.8600 H   0  0  0  0  0  0  0  0  0  0  0  0
    1.7153   -2.9158   -2.6352 H   0  0  0  0  0  0  0  0  0  0  0  0
    1.5125   -1.2426   -3.1917 H   0  0  0  0  0  0  0  0  0  0  0  0
   -0.3971    1.3008    1.0689 C   0  0  0  0  0  0  0  0  0  0  0  0
   -1.3643    1.9819    0.7311 O   0  0  0  0  0  0  0  0  0  0  0  0
    0.5522    1.7647    1.8915 N   0  0  0  0  0  0  0  0  0  0  0  0
    1.3093    1.1450    2.1332 H   0  0  0  0  0  0  0  0  0  0  0  0
    0.5577    3.1119    2.4582 C   0  0  0  0  0  0  0  0  0  0  0  0
   -0.3986    3.3098    2.9475 H   0  0  0  0  0  0  0  0  0  0  0  0
    1.3619    3.2123    3.1886 H   0  0  0  0  0  0  0  0  0  0  0  0
    0.6974    3.8450    1.6614 H   0  0  0  0  0  0  0  0  0  0  0  0
  5  6  2  0  0  0  0
  5  7  1  0  0  0  0
  2  3  1  0  0  0  0
  2  4  1  0  0  0  0
  2  5  1  0  0  0  0
  1  2  1  0  0  0  0
 24 25  2  0  0  0  0
 24 26  1  0  0  0  0
 20 21  1  0  0  0  0
 20 22  1  0  0  0  0
 20 23  1  0  0  0  0
 17 18  1  0  0  0  0
 17 19  1  0  0  0  0
 17 20  1  0  0  0  0
 13 14  1  0  0  0  0
 13 15  1  0  0  0  0
 13 16  1  0  0  0  0
 11 12  1  0  0  0  0
 11 13  1  0  0  0  0
 11 17  1  0  0  0  0
  9 10  1  0  0  0  0
  9 11  1  0  0  0  0
  9 24  1  0  0  0  0
  7  8  1  0  0  0  0
  7  9  1  0  0  0  0
 28 29  1  0  0  0  0
 28 30  1  0  0  0  0
 28 31  1  0  0  0  0
 26 27  1  0  0  0  0
 26 28  1  0  0  0  0
M  END
$$$$
default_name
  -OEChem-02102213163D

 31 30  0     1  0  0  0  0  0999 V2000
   -3.0760   -3.6390    1.5496 H   0  0  0  0  0  0  0  0  0  0  0  0
   -3.0940   -2.6290    1.1426 C   0  0  0  0  0  0  0  0  0  0  0  0
   -3.7160   -1.9930    1.7706 H   0  0  0  0  0  0  0  0  0  0  0  0
   -3.4880   -2.6500    0.1286 H   0  0  0  0  0  0  0  0  0  0  0  0
   -1.6860   -2.0850    1.1196 C   0  0  0  0  0  0  0  0  0  0  0  0
   -0.7540   -2.7700    1.5226 O   0  0  0  0  0  0  0  0  0  0  0  0
   -1.5320   -0.8490    0.6496 N   0  0  0  0  0  0  0  0  0  0  0  0
   -2.3500   -0.3360    0.3566 H   0  0  0  0  0  0  0  0  0  0  0  0
   -0.2470   -0.1410    0.5576 C   0  0  1  0  0  0  0  0  0  0  0  0
    0.4572   -0.6505    1.2162 H   0  0  0  0  0  0  0  0  0  0  0  0
    0.3091   -0.2220   -0.8868 C   0  0  1  0  0  0  0  0  0  0  0  0
   -0.4521    0.1957   -1.5485 H   0  0  0  0  0  0  0  0  0  0  0  0
    1.5950    0.6068   -1.0696 C   0  0  0  0  0  0  0  0  0  0  0  0
    2.4121    0.1821   -0.4838 H   0  0  0  0  0  0  0  0  0  0  0  0
    1.8842    0.6298   -2.1191 H   0  0  0  0  0  0  0  0  0  0  0  0
    1.4289    1.6354   -0.7475 H   0  0  0  0  0  0  0  0  0  0  0  0
    0.5337   -1.6903   -1.3126 C   0  0  0  0  0  0  0  0  0  0  0  0
    0.4743   -2.3437   -0.4412 H   0  0  0  0  0  0  0  0  0  0  0  0
   -0.2535   -1.9775   -2.0097 H   0  0  0  0  0  0  0  0  0  0  0  0
    1.8770   -1.9310   -2.0146 C   0  0  0  0  0  0  0  0  0  0  0  0
    2.7042   -1.7611   -1.3256 H   0  0  0  0  0  0  0  0  0  0  0  0
    1.9213   -2.9636   -2.3615 H   0  0  0  0  0  0  0  0  0  0  0  0
    1.9744   -1.2646   -2.8723 H   0  0  0  0  0  0  0  0  0  0  0  0
   -0.3971    1.3008    1.0689 C   0  0  0  0  0  0  0  0  0  0  0  0
   -1.3643    1.9819    0.7311 O   0  0  0  0  0  0  0  0  0  0  0  0
    0.5522    1.7647    1.8915 N   0  0  0  0  0  0  0  0  0  0  0  0
    1.3093    1.1450    2.1332 H   0  0  0  0  0  0  0  0  0  0  0  0
    0.5577    3.1119    2.4582 C   0  0  0  0  0  0  0  0  0  0  0  0
   -0.3986    3.3098    2.9475 H   0  0  0  0  0  0  0  0  0  0  0  0
    1.3619    3.2123    3.1886 H   0  0  0  0  0  0  0  0  0  0  0  0
    0.6974    3.8450    1.6614 H   0  0  0  0  0  0  0  0  0  0  0  0
  5  6  2  0  0  0  0
  5  7  1  0  0  0  0
  2  3  1  0  0  0  0
  2  4  1  0  0  0  0
  2  5  1  0  0  0  0
  1  2  1  0  0  0  0
 24 25  2  0  0  0  0
 24 26  1  0  0  0  0
 20 21  1  0  0  0  0
 20 22  1  0  0  0  0
 20 23  1  0  0  0  0
 17 18  1  0  0  0  0
 17 19  1  0  0  0  0
 17 20  1  0  0  0  0
 13 14  1  0  0  0  0
 13 15  1  0  0  0  0
 13 16  1  0  0  0  0
 11 12  1  0  0  0  0
 11 13  1  0  0  0  0
 11 17  1  0  0  0  0
  9 10  1  0  0  0  0
  9 11  1  0  0  0  0
  9 24  1  0  0  0  0
  7  8  1  0  0  0  0
  7  9  1  0  0  0  0
 28 29  1  0  0  0  0
 28 30  1  0  0  0  0
 28 31  1  0  0  0  0
 26 27  1  0  0  0  0
 26 28  1  0  0  0  0
M  END
$$$$
default_name
  -OEChem-02102213163D

 31 30  0     1  0  0  0  0  0999 V2000
   -3.0760   -3.6390    1.5496 H   0  0  0  0  0  0  0  0  0  0  0  0
   -3.0940   -2.6290    1.1426 C   0  0  0  0  0  0  0  0  0  0  0  0
   -3.7160   -1.9930    1.7706 H   0  0  0  0  0  0  0  0  0  0  0  0
   -3.4880   -2.6500    0.1286 H   0  0  0  0  0  0  0  0  0  0  0  0
   -1.6860   -2.0850    1.1196 C   0  0  0  0  0  0  0  0  0  0  0  0
   -0.7540   -2.7700    1.5226 O   0  0  0  0  0  0  0  0  0  0  0  0
   -1.5320   -0.8490    0.6496 N   0  0  0  0  0  0  0  0  0  0  0  0
   -2.3500   -0.3360    0.3566 H   0  0  0  0  0  0  0  0  0  0  0  0
   -0.2470   -0.1410    0.5576 C   0  0  1  0  0  0  0  0  0  0  0  0
    0.4572   -0.6505    1.2162 H   0  0  0  0  0  0  0  0  0  0  0  0
    0.3091   -0.2220   -0.8868 C   0  0  1  0  0  0  0  0  0  0  0  0
   -0.4521    0.1957   -1.5485 H   0  0  0  0  0  0  0  0  0  0  0  0
    1.5950    0.6068   -1.0696 C   0  0  0  0  0  0  0  0  0  0  0  0
    2.4121    0.1821   -0.4838 H   0  0  0  0  0  0  0  0  0  0  0  0
    1.8842    0.6298   -2.1191 H   0  0  0  0  0  0  0  0  0  0  0  0
    1.4289    1.6354   -0.7475 H   0  0  0  0  0  0  0  0  0  0  0  0
    0.5337   -1.6903   -1.3126 C   0  0  0  0  0  0  0  0  0  0  0  0
    0.2172   -2.3620   -0.5135 H   0  0  0  0  0  0  0  0  0  0  0  0
   -0.0740   -1.8967   -2.1936 H   0  0  0  0  0  0  0  0  0  0  0  0
    1.9898   -2.0122   -1.6751 C   0  0  0  0  0  0  0  0  0  0  0  0
    2.6303   -1.9255   -0.7977 H   0  0  0  0  0  0  0  0  0  0  0  0
    2.0496   -3.0348   -2.0484 H   0  0  0  0  0  0  0  0  0  0  0  0
    2.3404   -1.3308   -2.4511 H   0  0  0  0  0  0  0  0  0  0  0  0
   -0.3971    1.3008    1.0689 C   0  0  0  0  0  0  0  0  0  0  0  0
   -1.3643    1.9819    0.7311 O   0  0  0  0  0  0  0  0  0  0  0  0
    0.5522    1.7647    1.8915 N   0  0  0  0  0  0  0  0  0  0  0  0
    1.3093    1.1450    2.1332 H   0  0  0  0  0  0  0  0  0  0  0  0
    0.5577    3.1119    2.4582 C   0  0  0  0  0  0  0  0  0  0  0  0
   -0.3986    3.3098    2.9475 H   0  0  0  0  0  0  0  0  0  0  0  0
    1.3619    3.2123    3.1886 H   0  0  0  0  0  0  0  0  0  0  0  0
    0.6974    3.8450    1.6614 H   0  0  0  0  0  0  0  0  0  0  0  0
  5  6  2  0  0  0  0
  5  7  1  0  0  0  0
  2  3  1  0  0  0  0
  2  4  1  0  0  0  0
  2  5  1  0  0  0  0
  1  2  1  0  0  0  0
 24 25  2  0  0  0  0
 24 26  1  0  0  0  0
 20 21  1  0  0  0  0
 20 22  1  0  0  0  0
 20 23  1  0  0  0  0
 17 18  1  0  0  0  0
 17 19  1  0  0  0  0
 17 20  1  0  0  0  0
 13 14  1  0  0  0  0
 13 15  1  0  0  0  0
 13 16  1  0  0  0  0
 11 12  1  0  0  0  0
 11 13  1  0  0  0  0
 11 17  1  0  0  0  0
  9 10  1  0  0  0  0
  9 11  1  0  0  0  0
  9 24  1  0  0  0  0
  7  8  1  0  0  0  0
  7  9  1  0  0  0  0
 28 29  1  0  0  0  0
 28 30  1  0  0  0  0
 28 31  1  0  0  0  0
 26 27  1  0  0  0  0
 26 28  1  0  0  0  0
M  END
$$$$
default_name
  -OEChem-02102213163D

 31 30  0     1  0  0  0  0  0999 V2000
   -3.0760   -3.6390    1.5496 H   0  0  0  0  0  0  0  0  0  0  0  0
   -3.0940   -2.6290    1.1426 C   0  0  0  0  0  0  0  0  0  0  0  0
   -3.7160   -1.9930    1.7706 H   0  0  0  0  0  0  0  0  0  0  0  0
   -3.4880   -2.6500    0.1286 H   0  0  0  0  0  0  0  0  0  0  0  0
   -1.6860   -2.0850    1.1196 C   0  0  0  0  0  0  0  0  0  0  0  0
   -0.7540   -2.7700    1.5226 O   0  0  0  0  0  0  0  0  0  0  0  0
   -1.5320   -0.8490    0.6496 N   0  0  0  0  0  0  0  0  0  0  0  0
   -2.3500   -0.3360    0.3566 H   0  0  0  0  0  0  0  0  0  0  0  0
   -0.2470   -0.1410    0.5576 C   0  0  1  0  0  0  0  0  0  0  0  0
    0.4572   -0.6505    1.2162 H   0  0  0  0  0  0  0  0  0  0  0  0
    0.3091   -0.2220   -0.8868 C   0  0  1  0  0  0  0  0  0  0  0  0
   -0.4521    0.1957   -1.5485 H   0  0  0  0  0  0  0  0  0  0  0  0
    1.5950    0.6068   -1.0696 C   0  0  0  0  0  0  0  0  0  0  0  0
    2.4121    0.1821   -0.4838 H   0  0  0  0  0  0  0  0  0  0  0  0
    1.8842    0.6298   -2.1191 H   0  0  0  0  0  0  0  0  0  0  0  0
    1.4289    1.6354   -0.7475 H   0  0  0  0  0  0  0  0  0  0  0  0
    0.5337   -1.6903   -1.3126 C   0  0  0  0  0  0  0  0  0  0  0  0
   -0.0146   -2.3587   -0.6473 H   0  0  0  0  0  0  0  0  0  0  0  0
    0.1504   -1.8246   -2.3241 H   0  0  0  0  0  0  0  0  0  0  0  0
    2.0094   -2.1114   -1.3226 C   0  0  0  0  0  0  0  0  0  0  0  0
    2.4173   -2.0989   -0.3120 H   0  0  0  0  0  0  0  0  0  0  0  0
    2.0915   -3.1245   -1.7170 H   0  0  0  0  0  0  0  0  0  0  0  0
    2.5856   -1.4367   -1.9566 H   0  0  0  0  0  0  0  0  0  0  0  0
   -0.3971    1.3008    1.0689 C   0  0  0  0  0  0  0  0  0  0  0  0
   -1.3643    1.9819    0.7311 O   0  0  0  0  0  0  0  0  0  0  0  0
    0.5522    1.7647    1.8915 N   0  0  0  0  0  0  0  0  0  0  0  0
    1.3093    1.1450    2.1332 H   0  0  0  0  0  0  0  0  0  0  0  0
    0.5577    3.1119    2.4582 C   0  0  0  0  0  0  0  0  0  0  0  0
   -0.3986    3.3098    2.9475 H   0  0  0  0  0  0  0  0  0  0  0  0
    1.3619    3.2123    3.1886 H   0  0  0  0  0  0  0  0  0  0  0  0
    0.6974    3.8450    1.6614 H   0  0  0  0  0  0  0  0  0  0  0  0
  5  6  2  0  0  0  0
  5  7  1  0  0  0  0
  2  3  1  0  0  0  0
  2  4  1  0  0  0  0
  2  5  1  0  0  0  0
  1  2  1  0  0  0  0
 24 25  2  0  0  0  0
 24 26  1  0  0  0  0
 20 21  1  0  0  0  0
 20 22  1  0  0  0  0
 20 23  1  0  0  0  0
 17 18  1  0  0  0  0
 17 19  1  0  0  0  0
 17 20  1  0  0  0  0
 13 14  1  0  0  0  0
 13 15  1  0  0  0  0
 13 16  1  0  0  0  0
 11 12  1  0  0  0  0
 11 13  1  0  0  0  0
 11 17  1  0  0  0  0
  9 10  1  0  0  0  0
  9 11  1  0  0  0  0
  9 24  1  0  0  0  0
  7  8  1  0  0  0  0
  7  9  1  0  0  0  0
 28 29  1  0  0  0  0
 28 30  1  0  0  0  0
 28 31  1  0  0  0  0
 26 27  1  0  0  0  0
 26 28  1  0  0  0  0
M  END
$$$$
default_name
  -OEChem-02102213163D

 31 30  0     1  0  0  0  0  0999 V2000
   -3.0760   -3.6390    1.5496 H   0  0  0  0  0  0  0  0  0  0  0  0
   -3.0940   -2.6290    1.1426 C   0  0  0  0  0  0  0  0  0  0  0  0
   -3.7160   -1.9930    1.7706 H   0  0  0  0  0  0  0  0  0  0  0  0
   -3.4880   -2.6500    0.1286 H   0  0  0  0  0  0  0  0  0  0  0  0
   -1.6860   -2.0850    1.1196 C   0  0  0  0  0  0  0  0  0  0  0  0
   -0.7540   -2.7700    1.5226 O   0  0  0  0  0  0  0  0  0  0  0  0
   -1.5320   -0.8490    0.6496 N   0  0  0  0  0  0  0  0  0  0  0  0
   -2.3500   -0.3360    0.3566 H   0  0  0  0  0  0  0  0  0  0  0  0
   -0.2470   -0.1410    0.5576 C   0  0  1  0  0  0  0  0  0  0  0  0
    0.4572   -0.6505    1.2162 H   0  0  0  0  0  0  0  0  0  0  0  0
    0.3091   -0.2220   -0.8868 C   0  0  1  0  0  0  0  0  0  0  0  0
   -0.4521    0.1957   -1.5485 H   0  0  0  0  0  0  0  0  0  0  0  0
    1.5950    0.6068   -1.0696 C   0  0  0  0  0  0  0  0  0  0  0  0
    2.4121    0.1821   -0.4838 H   0  0  0  0  0  0  0  0  0  0  0  0
    1.8842    0.6298   -2.1191 H   0  0  0  0  0  0  0  0  0  0  0  0
    1.4289    1.6354   -0.7475 H   0  0  0  0  0  0  0  0  0  0  0  0
    0.5337   -1.6903   -1.3126 C   0  0  0  0  0  0  0  0  0  0  0  0
   -0.2054   -2.3339   -0.8335 H   0  0  0  0  0  0  0  0  0  0  0  0
    0.4044   -1.7660   -2.3922 H   0  0  0  0  0  0  0  0  0  0  0  0
    1.9346   -2.2219   -0.9809 C   0  0  0  0  0  0  0  0  0  0  0  0
    2.0798   -2.2694    0.0982 H   0  0  0  0  0  0  0  0  0  0  0  0
    2.0440   -3.2266   -1.3900 H   0  0  0  0  0  0  0  0  0  0  0  0
    2.6933   -1.5750   -1.4227 H   0  0  0  0  0  0  0  0  0  0  0  0
   -0.3971    1.3008    1.0689 C   0  0  0  0  0  0  0  0  0  0  0  0
   -1.3643    1.9819    0.7311 O   0  0  0  0  0  0  0  0  0  0  0  0
    0.5522    1.7647    1.8915 N   0  0  0  0  0  0  0  0  0  0  0  0
    1.3093    1.1450    2.1332 H   0  0  0  0  0  0  0  0  0  0  0  0
    0.5577    3.1119    2.4582 C   0  0  0  0  0  0  0  0  0  0  0  0
   -0.3986    3.3098    2.9475 H   0  0  0  0  0  0  0  0  0  0  0  0
    1.3619    3.2123    3.1886 H   0  0  0  0  0  0  0  0  0  0  0  0
    0.6974    3.8450    1.6614 H   0  0  0  0  0  0  0  0  0  0  0  0
  5  6  2  0  0  0  0
  5  7  1  0  0  0  0
  2  3  1  0  0  0  0
  2  4  1  0  0  0  0
  2  5  1  0  0  0  0
  1  2  1  0  0  0  0
 24 25  2  0  0  0  0
 24 26  1  0  0  0  0
 20 21  1  0  0  0  0
 20 22  1  0  0  0  0
 20 23  1  0  0  0  0
 17 18  1  0  0  0  0
 17 19  1  0  0  0  0
 17 20  1  0  0  0  0
 13 14  1  0  0  0  0
 13 15  1  0  0  0  0
 13 16  1  0  0  0  0
 11 12  1  0  0  0  0
 11 13  1  0  0  0  0
 11 17  1  0  0  0  0
  9 10  1  0  0  0  0
  9 11  1  0  0  0  0
  9 24  1  0  0  0  0
  7  8  1  0  0  0  0
  7  9  1  0  0  0  0
 28 29  1  0  0  0  0
 28 30  1  0  0  0  0
 28 31  1  0  0  0  0
 26 27  1  0  0  0  0
 26 28  1  0  0  0  0
M  END
$$$$
default_name
  -OEChem-02102213163D

 31 30  0     1  0  0  0  0  0999 V2000
   -3.0760   -3.6390    1.5496 H   0  0  0  0  0  0  0  0  0  0  0  0
   -3.0940   -2.6290    1.1426 C   0  0  0  0  0  0  0  0  0  0  0  0
   -3.7160   -1.9930    1.7706 H   0  0  0  0  0  0  0  0  0  0  0  0
   -3.4880   -2.6500    0.1286 H   0  0  0  0  0  0  0  0  0  0  0  0
   -1.6860   -2.0850    1.1196 C   0  0  0  0  0  0  0  0  0  0  0  0
   -0.7540   -2.7700    1.5226 O   0  0  0  0  0  0  0  0  0  0  0  0
   -1.5320   -0.8490    0.6496 N   0  0  0  0  0  0  0  0  0  0  0  0
   -2.3500   -0.3360    0.3566 H   0  0  0  0  0  0  0  0  0  0  0  0
   -0.2470   -0.1410    0.5576 C   0  0  1  0  0  0  0  0  0  0  0  0
    0.4572   -0.6505    1.2162 H   0  0  0  0  0  0  0  0  0  0  0  0
    0.3091   -0.2220   -0.8868 C   0  0  1  0  0  0  0  0  0  0  0  0
   -0.4521    0.1957   -1.5485 H   0  0  0  0  0  0  0  0  0  0  0  0
    1.5950    0.6068   -1.0696 C   0  0  0  0  0  0  0  0  0  0  0  0
    2.4121    0.1821   -0.4838 H   0  0  0  0  0  0  0  0  0  0  0  0
    1.8842    0.6298   -2.1191 H   0  0  0  0  0  0  0  0  0  0  0  0
    1.4289    1.6354   -0.7475 H   0  0  0  0  0  0  0  0  0  0  0  0
    0.5337   -1.6903   -1.3126 C   0  0  0  0  0  0  0  0  0  0  0  0
   -0.3421   -2.2893   -1.0592 H   0  0  0  0  0  0  0  0  0  0  0  0
    0.6707   -1.7249   -2.3934 H   0  0  0  0  0  0  0  0  0  0  0  0
    1.7704   -2.3362   -0.6735 C   0  0  0  0  0  0  0  0  0  0  0  0
    1.6408   -2.4255    0.4050 H   0  0  0  0  0  0  0  0  0  0  0  0
    1.9104   -3.3341   -1.0896 H   0  0  0  0  0  0  0  0  0  0  0  0
    2.6562   -1.7364   -0.8856 H   0  0  0  0  0  0  0  0  0  0  0  0
   -0.3971    1.3008    1.0689 C   0  0  0  0  0  0  0  0  0  0  0  0
   -1.3643    1.9819    0.7311 O   0  0  0  0  0  0  0  0  0  0  0  0
    0.5522    1.7647    1.8915 N   0  0  0  0  0  0  0  0  0  0  0  0
    1.3093    1.1450    2.1332 H   0  0  0  0  0  0  0  0  0  0  0  0
    0.5577    3.1119    2.4582 C   0  0  0  0  0  0  0  0  0  0  0  0
   -0.3986    3.3098    2.9475 H   0  0  0  0  0  0  0  0  0  0  0  0
    1.3619    3.2123    3.1886 H   0  0  0  0  0  0  0  0  0  0  0  0
    0.6974    3.8450    1.6614 H   0  0  0  0  0  0  0  0  0  0  0  0
  5  6  2  0  0  0  0
  5  7  1  0  0  0  0
  2  3  1  0  0  0  0
  2  4  1  0  0  0  0
  2  5  1  0  0  0  0
  1  2  1  0  0  0  0
 24 25  2  0  0  0  0
 24 26  1  0  0  0  0
 20 21  1  0  0  0  0
 20 22  1  0  0  0  0
 20 23  1  0  0  0  0
 17 18  1  0  0  0  0
 17 19  1  0  0  0  0
 17 20  1  0  0  0  0
 13 14  1  0  0  0  0
 13 15  1  0  0  0  0
 13 16  1  0  0  0  0
 11 12  1  0  0  0  0
 11 13  1  0  0  0  0
 11 17  1  0  0  0  0
  9 10  1  0  0  0  0
  9 11  1  0  0  0  0
  9 24  1  0  0  0  0
  7  8  1  0  0  0  0
  7  9  1  0  0  0  0
 28 29  1  0  0  0  0
 28 30  1  0  0  0  0
 28 31  1  0  0  0  0
 26 27  1  0  0  0  0
 26 28  1  0  0  0  0
M  END
$$$$
default_name
  -OEChem-02102213163D

 31 30  0     1  0  0  0  0  0999 V2000
   -3.0760   -3.6390    1.5496 H   0  0  0  0  0  0  0  0  0  0  0  0
   -3.0940   -2.6290    1.1426 C   0  0  0  0  0  0  0  0  0  0  0  0
   -3.7160   -1.9930    1.7706 H   0  0  0  0  0  0  0  0  0  0  0  0
   -3.4880   -2.6500    0.1286 H   0  0  0  0  0  0  0  0  0  0  0  0
   -1.6860   -2.0850    1.1196 C   0  0  0  0  0  0  0  0  0  0  0  0
   -0.7540   -2.7700    1.5226 O   0  0  0  0  0  0  0  0  0  0  0  0
   -1.5320   -0.8490    0.6496 N   0  0  0  0  0  0  0  0  0  0  0  0
   -2.3500   -0.3360    0.3566 H   0  0  0  0  0  0  0  0  0  0  0  0
   -0.2470   -0.1410    0.5576 C   0  0  1  0  0  0  0  0  0  0  0  0
    0.4572   -0.6505    1.2162 H   0  0  0  0  0  0  0  0  0  0  0  0
    0.3091   -0.2220   -0.8868 C   0  0  1  0  0  0  0  0  0  0  0  0
   -0.4521    0.1957   -1.5485 H   0  0  0  0  0  0  0  0  0  0  0  0
    1.5950    0.6068   -1.0696 C   0  0  0  0  0  0  0  0  0  0  0  0
    2.4121    0.1821   -0.4838 H   0  0  0  0  0  0  0  0  0  0  0  0
    1.8842    0.6298   -2.1191 H   0  0  0  0  0  0  0  0  0  0  0  0
    1.4289    1.6354   -0.7475 H   0  0  0  0  0  0  0  0  0  0  0  0
    0.5337   -1.6903   -1.3126 C   0  0  0  0  0  0  0  0  0  0  0  0
   -0.4154   -2.2280   -1.3093 H   0  0  0  0  0  0  0  0  0  0  0  0
    0.9311   -1.7042   -2.3274 H   0  0  0  0  0  0  0  0  0  0  0  0
    1.5281   -2.4464   -0.4211 C   0  0  0  0  0  0  0  0  0  0  0  0
    1.1301   -2.5565    0.5875 H   0  0  0  0  0  0  0  0  0  0  0  0
    1.6998   -3.4397   -0.8364 H   0  0  0  0  0  0  0  0  0  0  0  0
    2.4767   -1.9099   -0.3821 H   0  0  0  0  0  0  0  0  0  0  0  0
   -0.3971    1.3008    1.0689 C   0  0  0  0  0  0  0  0  0  0  0  0
   -1.3643    1.9819    0.7311 O   0  0  0  0  0  0  0  0  0  0  0  0
    0.5522    1.7647    1.8915 N   0  0  0  0  0  0  0  0  0  0  0  0
    1.3093    1.1450    2.1332 H   0  0  0  0  0  0  0  0  0  0  0  0
    0.5577    3.1119    2.4582 C   0  0  0  0  0  0  0  0  0  0  0  0
   -0.3986    3.3098    2.9475 H   0  0  0  0  0  0  0  0  0  0  0  0
    1.3619    3.2123    3.1886 H   0  0  0  0  0  0  0  0  0  0  0  0
    0.6974    3.8450    1.6614 H   0  0  0  0  0  0  0  0  0  0  0  0
  5  6  2  0  0  0  0
  5  7  1  0  0  0  0
  2  3  1  0  0  0  0
  2  4  1  0  0  0  0
  2  5  1  0  0  0  0
  1  2  1  0  0  0  0
 24 25  2  0  0  0  0
 24 26  1  0  0  0  0
 20 21  1  0  0  0  0
 20 22  1  0  0  0  0
 20 23  1  0  0  0  0
 17 18  1  0  0  0  0
 17 19  1  0  0  0  0
 17 20  1  0  0  0  0
 13 14  1  0  0  0  0
 13 15  1  0  0  0  0
 13 16  1  0  0  0  0
 11 12  1  0  0  0  0
 11 13  1  0  0  0  0
 11 17  1  0  0  0  0
  9 10  1  0  0  0  0
  9 11  1  0  0  0  0
  9 24  1  0  0  0  0
  7  8  1  0  0  0  0
  7  9  1  0  0  0  0
 28 29  1  0  0  0  0
 28 30  1  0  0  0  0
 28 31  1  0  0  0  0
 26 27  1  0  0  0  0
 26 28  1  0  0  0  0
M  END
$$$$
default_name
  -OEChem-02102213163D

 31 30  0     1  0  0  0  0  0999 V2000
   -3.0760   -3.6390    1.5496 H   0  0  0  0  0  0  0  0  0  0  0  0
   -3.0940   -2.6290    1.1426 C   0  0  0  0  0  0  0  0  0  0  0  0
   -3.7160   -1.9930    1.7706 H   0  0  0  0  0  0  0  0  0  0  0  0
   -3.4880   -2.6500    0.1286 H   0  0  0  0  0  0  0  0  0  0  0  0
   -1.6860   -2.0850    1.1196 C   0  0  0  0  0  0  0  0  0  0  0  0
   -0.7540   -2.7700    1.5226 O   0  0  0  0  0  0  0  0  0  0  0  0
   -1.5320   -0.8490    0.6496 N   0  0  0  0  0  0  0  0  0  0  0  0
   -2.3500   -0.3360    0.3566 H   0  0  0  0  0  0  0  0  0  0  0  0
   -0.2470   -0.1410    0.5576 C   0  0  1  0  0  0  0  0  0  0  0  0
    0.4572   -0.6505    1.2162 H   0  0  0  0  0  0  0  0  0  0  0  0
    0.3091   -0.2220   -0.8868 C   0  0  1  0  0  0  0  0  0  0  0  0
   -0.4521    0.1957   -1.5485 H   0  0  0  0  0  0  0  0  0  0  0  0
    1.5950    0.6068   -1.0696 C   0  0  0  0  0  0  0  0  0  0  0  0
    2.4121    0.1821   -0.4838 H   0  0  0  0  0  0  0  0  0  0  0  0
    1.8842    0.6298   -2.1191 H   0  0  0  0  0  0  0  0  0  0  0  0
    1.4289    1.6354   -0.7475 H   0  0  0  0  0  0  0  0  0  0  0  0
    0.5337   -1.6903   -1.3126 C   0  0  0  0  0  0  0  0  0  0  0  0
   -0.4204   -2.1542   -1.5665 H   0  0  0  0  0  0  0  0  0  0  0  0
    1.1679   -1.7053   -2.1989 H   0  0  0  0  0  0  0  0  0  0  0  0
    1.2241   -2.5451   -0.2412 C   0  0  0  0  0  0  0  0  0  0  0  0
    0.5826   -2.6535    0.6332 H   0  0  0  0  0  0  0  0  0  0  0  0
    1.4267   -3.5362   -0.6476 H   0  0  0  0  0  0  0  0  0  0  0  0
    2.1672   -2.0836    0.0536 H   0  0  0  0  0  0  0  0  0  0  0  0
   -0.3971    1.3008    1.0689 C   0  0  0  0  0  0  0  0  0  0  0  0
   -1.3643    1.9819    0.7311 O   0  0  0  0  0  0  0  0  0  0  0  0
    0.5522    1.7647    1.8915 N   0  0  0  0  0  0  0  0  0  0  0  0
    1.3093    1.1450    2.1332 H   0  0  0  0  0  0  0  0  0  0  0  0
    0.5577    3.1119    2.4582 C   0  0  0  0  0  0  0  0  0  0  0  0
   -0.3986    3.3098    2.9475 H   0  0  0  0  0  0  0  0  0  0  0  0
    1.3619    3.2123    3.1886 H   0  0  0  0  0  0  0  0  0  0  0  0
    0.6974    3.8450    1.6614 H   0  0  0  0  0  0  0  0  0  0  0  0
  5  6  2  0  0  0  0
  5  7  1  0  0  0  0
  2  3  1  0  0  0  0
  2  4  1  0  0  0  0
  2  5  1  0  0  0  0
  1  2  1  0  0  0  0
 24 25  2  0  0  0  0
 24 26  1  0  0  0  0
 20 21  1  0  0  0  0
 20 22  1  0  0  0  0
 20 23  1  0  0  0  0
 17 18  1  0  0  0  0
 17 19  1  0  0  0  0
 17 20  1  0  0  0  0
 13 14  1  0  0  0  0
 13 15  1  0  0  0  0
 13 16  1  0  0  0  0
 11 12  1  0  0  0  0
 11 13  1  0  0  0  0
 11 17  1  0  0  0  0
  9 10  1  0  0  0  0
  9 11  1  0  0  0  0
  9 24  1  0  0  0  0
  7  8  1  0  0  0  0
  7  9  1  0  0  0  0
 28 29  1  0  0  0  0
 28 30  1  0  0  0  0
 28 31  1  0  0  0  0
 26 27  1  0  0  0  0
 26 28  1  0  0  0  0
M  END
$$$$
default_name
  -OEChem-02102213163D

 31 30  0     1  0  0  0  0  0999 V2000
   -3.0760   -3.6390    1.5496 H   0  0  0  0  0  0  0  0  0  0  0  0
   -3.0940   -2.6290    1.1426 C   0  0  0  0  0  0  0  0  0  0  0  0
   -3.7160   -1.9930    1.7706 H   0  0  0  0  0  0  0  0  0  0  0  0
   -3.4880   -2.6500    0.1286 H   0  0  0  0  0  0  0  0  0  0  0  0
   -1.6860   -2.0850    1.1196 C   0  0  0  0  0  0  0  0  0  0  0  0
   -0.7540   -2.7700    1.5226 O   0  0  0  0  0  0  0  0  0  0  0  0
   -1.5320   -0.8490    0.6496 N   0  0  0  0  0  0  0  0  0  0  0  0
   -2.3500   -0.3360    0.3566 H   0  0  0  0  0  0  0  0  0  0  0  0
   -0.2470   -0.1410    0.5576 C   0  0  1  0  0  0  0  0  0  0  0  0
    0.4572   -0.6505    1.2162 H   0  0  0  0  0  0  0  0  0  0  0  0
    0.3091   -0.2220   -0.8868 C   0  0  1  0  0  0  0  0  0  0  0  0
   -0.4521    0.1957   -1.5485 H   0  0  0  0  0  0  0  0  0  0  0  0
    1.5950    0.6068   -1.0696 C   0  0  0  0  0  0  0  0  0  0  0  0
    2.4121    0.1821   -0.4838 H   0  0  0  0  0  0  0  0  0  0  0  0
    1.8842    0.6298   -2.1191 H   0  0  0  0  0  0  0  0  0  0  0  0
    1.4289    1.6354   -0.7475 H   0  0  0  0  0  0  0  0  0  0  0  0
    0.5337   -1.6903   -1.3126 C   0  0  0  0  0  0  0  0  0  0  0  0
   -0.3567   -2.0728   -1.8134 H   0  0  0  0  0  0  0  0  0  0  0  0
    1.3649   -1.7280   -2.0166 H   0  0  0  0  0  0  0  0  0  0  0  0
    0.8791   -2.6255   -0.1458 C   0  0  0  0  0  0  0  0  0  0  0  0
    0.0356   -2.7099    0.5391 H   0  0  0  0  0  0  0  0  0  0  0  0
    1.1094   -3.6171   -0.5360 H   0  0  0  0  0  0  0  0  0  0  0  0
    1.7486   -2.2456    0.3918 H   0  0  0  0  0  0  0  0  0  0  0  0
   -0.3971    1.3008    1.0689 C   0  0  0  0  0  0  0  0  0  0  0  0
   -1.3643    1.9819    0.7311 O   0  0  0  0  0  0  0  0  0  0  0  0
    0.5522    1.7647    1.8915 N   0  0  0  0  0  0  0  0  0  0  0  0
    1.3093    1.1450    2.1332 H   0  0  0  0  0  0  0  0  0  0  0  0
    0.5577    3.1119    2.4582 C   0  0  0  0  0  0  0  0  0  0  0  0
   -0.3986    3.3098    2.9475 H   0  0  0  0  0  0  0  0  0  0  0  0
    1.3619    3.2123    3.1886 H   0  0  0  0  0  0  0  0  0  0  0  0
    0.6974    3.8450    1.6614 H   0  0  0  0  0  0  0  0  0  0  0  0
  5  6  2  0  0  0  0
  5  7  1  0  0  0  0
  2  3  1  0  0  0  0
  2  4  1  0  0  0  0
  2  5  1  0  0  0  0
  1  2  1  0  0  0  0
 24 25  2  0  0  0  0
 24 26  1  0  0  0  0
 20 21  1  0  0  0  0
 20 22  1  0  0  0  0
 20 23  1  0  0  0  0
 17 18  1  0  0  0  0
 17 19  1  0  0  0  0
 17 20  1  0  0  0  0
 13 14  1  0  0  0  0
 13 15  1  0  0  0  0
 13 16  1  0  0  0  0
 11 12  1  0  0  0  0
 11 13  1  0  0  0  0
 11 17  1  0  0  0  0
  9 10  1  0  0  0  0
  9 11  1  0  0  0  0
  9 24  1  0  0  0  0
  7  8  1  0  0  0  0
  7  9  1  0  0  0  0
 28 29  1  0  0  0  0
 28 30  1  0  0  0  0
 28 31  1  0  0  0  0
 26 27  1  0  0  0  0
 26 28  1  0  0  0  0
M  END
$$$$
default_name
  -OEChem-02102213163D

 31 30  0     1  0  0  0  0  0999 V2000
   -3.0760   -3.6390    1.5496 H   0  0  0  0  0  0  0  0  0  0  0  0
   -3.0940   -2.6290    1.1426 C   0  0  0  0  0  0  0  0  0  0  0  0
   -3.7160   -1.9930    1.7706 H   0  0  0  0  0  0  0  0  0  0  0  0
   -3.4880   -2.6500    0.1286 H   0  0  0  0  0  0  0  0  0  0  0  0
   -1.6860   -2.0850    1.1196 C   0  0  0  0  0  0  0  0  0  0  0  0
   -0.7540   -2.7700    1.5226 O   0  0  0  0  0  0  0  0  0  0  0  0
   -1.5320   -0.8490    0.6496 N   0  0  0  0  0  0  0  0  0  0  0  0
   -2.3500   -0.3360    0.3566 H   0  0  0  0  0  0  0  0  0  0  0  0
   -0.2470   -0.1410    0.5576 C   0  0  1  0  0  0  0  0  0  0  0  0
    0.4572   -0.6505    1.2162 H   0  0  0  0  0  0  0  0  0  0  0  0
    0.3091   -0.2220   -0.8868 C   0  0  1  0  0  0  0  0  0  0  0  0
   -0.4521    0.1957   -1.5485 H   0  0  0  0  0  0  0  0  0  0  0  0
    1.5950    0.6068   -1.0696 C   0  0  0  0  0  0  0  0  0  0  0  0
    2.4121    0.1821   -0.4838 H   0  0  0  0  0  0  0  0  0  0  0  0
    1.8842    0.6298   -2.1191 H   0  0  0  0  0  0  0  0  0  0  0  0
    1.4289    1.6354   -0.7475 H   0  0  0  0  0  0  0  0  0  0  0  0
    0.5337   -1.6903   -1.3126 C   0  0  0  0  0  0  0  0  0  0  0  0
   -0.2286   -1.9895   -2.0332 H   0  0  0  0  0  0  0  0  0  0  0  0
    1.5088   -1.7709   -1.7929 H   0  0  0  0  0  0  0  0  0  0  0  0
    0.5168   -2.6821   -0.1416 C   0  0  0  0  0  0  0  0  0  0  0  0
   -0.4736   -2.7218    0.3116 H   0  0  0  0  0  0  0  0  0  0  0  0
    0.7698   -3.6768   -0.5093 H   0  0  0  0  0  0  0  0  0  0  0  0
    1.2496   -2.3851    0.6095 H   0  0  0  0  0  0  0  0  0  0  0  0
   -0.3971    1.3008    1.0689 C   0  0  0  0  0  0  0  0  0  0  0  0
   -1.3643    1.9819    0.7311 O   0  0  0  0  0  0  0  0  0  0  0  0
    0.5522    1.7647    1.8915 N   0  0  0  0  0  0  0  0  0  0  0  0
    1.3093    1.1450    2.1332 H   0  0  0  0  0  0  0  0  0  0  0  0
    0.5577    3.1119    2.4582 C   0  0  0  0  0  0  0  0  0  0  0  0
   -0.3986    3.3098    2.9475 H   0  0  0  0  0  0  0  0  0  0  0  0
    1.3619    3.2123    3.1886 H   0  0  0  0  0  0  0  0  0  0  0  0
    0.6974    3.8450    1.6614 H   0  0  0  0  0  0  0  0  0  0  0  0
  5  6  2  0  0  0  0
  5  7  1  0  0  0  0
  2  3  1  0  0  0  0
  2  4  1  0  0  0  0
  2  5  1  0  0  0  0
  1  2  1  0  0  0  0
 24 25  2  0  0  0  0
 24 26  1  0  0  0  0
 20 21  1  0  0  0  0
 20 22  1  0  0  0  0
 20 23  1  0  0  0  0
 17 18  1  0  0  0  0
 17 19  1  0  0  0  0
 17 20  1  0  0  0  0
 13 14  1  0  0  0  0
 13 15  1  0  0  0  0
 13 16  1  0  0  0  0
 11 12  1  0  0  0  0
 11 13  1  0  0  0  0
 11 17  1  0  0  0  0
  9 10  1  0  0  0  0
  9 11  1  0  0  0  0
  9 24  1  0  0  0  0
  7  8  1  0  0  0  0
  7  9  1  0  0  0  0
 28 29  1  0  0  0  0
 28 30  1  0  0  0  0
 28 31  1  0  0  0  0
 26 27  1  0  0  0  0
 26 28  1  0  0  0  0
M  END
$$$$
default_name
  -OEChem-02102213163D

 31 30  0     1  0  0  0  0  0999 V2000
   -3.0760   -3.6390    1.5496 H   0  0  0  0  0  0  0  0  0  0  0  0
   -3.0940   -2.6290    1.1426 C   0  0  0  0  0  0  0  0  0  0  0  0
   -3.7160   -1.9930    1.7706 H   0  0  0  0  0  0  0  0  0  0  0  0
   -3.4880   -2.6500    0.1286 H   0  0  0  0  0  0  0  0  0  0  0  0
   -1.6860   -2.0850    1.1196 C   0  0  0  0  0  0  0  0  0  0  0  0
   -0.7540   -2.7700    1.5226 O   0  0  0  0  0  0  0  0  0  0  0  0
   -1.5320   -0.8490    0.6496 N   0  0  0  0  0  0  0  0  0  0  0  0
   -2.3500   -0.3360    0.3566 H   0  0  0  0  0  0  0  0  0  0  0  0
   -0.2470   -0.1410    0.5576 C   0  0  1  0  0  0  0  0  0  0  0  0
    0.4572   -0.6505    1.2162 H   0  0  0  0  0  0  0  0  0  0  0  0
    0.3091   -0.2220   -0.8868 C   0  0  1  0  0  0  0  0  0  0  0  0
   -0.4521    0.1957   -1.5485 H   0  0  0  0  0  0  0  0  0  0  0  0
    1.5950    0.6068   -1.0696 C   0  0  0  0  0  0  0  0  0  0  0  0
    2.4121    0.1821   -0.4838 H   0  0  0  0  0  0  0  0  0  0  0  0
    1.8842    0.6298   -2.1191 H   0  0  0  0  0  0  0  0  0  0  0  0
    1.4289    1.6354   -0.7475 H   0  0  0  0  0  0  0  0  0  0  0  0
    0.5337   -1.6903   -1.3126 C   0  0  0  0  0  0  0  0  0  0  0  0
   -0.0449   -1.9099   -2.2109 H   0  0  0  0  0  0  0  0  0  0  0  0
    1.5896   -1.8310   -1.5430 H   0  0  0  0  0  0  0  0  0  0  0  0
    0.1617   -2.7111   -0.2287 C   0  0  0  0  0  0  0  0  0  0  0  0
   -0.9104   -2.6884   -0.0339 H   0  0  0  0  0  0  0  0  0  0  0  0
    0.4310   -3.7112   -0.5692 H   0  0  0  0  0  0  0  0  0  0  0  0
    0.7041   -2.4923    0.6917 H   0  0  0  0  0  0  0  0  0  0  0  0
   -0.3971    1.3008    1.0689 C   0  0  0  0  0  0  0  0  0  0  0  0
   -1.3643    1.9819    0.7311 O   0  0  0  0  0  0  0  0  0  0  0  0
    0.5522    1.7647    1.8915 N   0  0  0  0  0  0  0  0  0  0  0  0
    1.3093    1.1450    2.1332 H   0  0  0  0  0  0  0  0  0  0  0  0
    0.5577    3.1119    2.4582 C   0  0  0  0  0  0  0  0  0  0  0  0
   -0.3986    3.3098    2.9475 H   0  0  0  0  0  0  0  0  0  0  0  0
    1.3619    3.2123    3.1886 H   0  0  0  0  0  0  0  0  0  0  0  0
    0.6974    3.8450    1.6614 H   0  0  0  0  0  0  0  0  0  0  0  0
  5  6  2  0  0  0  0
  5  7  1  0  0  0  0
  2  3  1  0  0  0  0
  2  4  1  0  0  0  0
  2  5  1  0  0  0  0
  1  2  1  0  0  0  0
 24 25  2  0  0  0  0
 24 26  1  0  0  0  0
 20 21  1  0  0  0  0
 20 22  1  0  0  0  0
 20 23  1  0  0  0  0
 17 18  1  0  0  0  0
 17 19  1  0  0  0  0
 17 20  1  0  0  0  0
 13 14  1  0  0  0  0
 13 15  1  0  0  0  0
 13 16  1  0  0  0  0
 11 12  1  0  0  0  0
 11 13  1  0  0  0  0
 11 17  1  0  0  0  0
  9 10  1  0  0  0  0
  9 11  1  0  0  0  0
  9 24  1  0  0  0  0
  7  8  1  0  0  0  0
  7  9  1  0  0  0  0
 28 29  1  0  0  0  0
 28 30  1  0  0  0  0
 28 31  1  0  0  0  0
 26 27  1  0  0  0  0
 26 28  1  0  0  0  0
M  END
$$$$
default_name
  -OEChem-02102213163D

 31 30  0     1  0  0  0  0  0999 V2000
   -3.0760   -3.6390    1.5496 H   0  0  0  0  0  0  0  0  0  0  0  0
   -3.0940   -2.6290    1.1426 C   0  0  0  0  0  0  0  0  0  0  0  0
   -3.7160   -1.9930    1.7706 H   0  0  0  0  0  0  0  0  0  0  0  0
   -3.4880   -2.6500    0.1286 H   0  0  0  0  0  0  0  0  0  0  0  0
   -1.6860   -2.0850    1.1196 C   0  0  0  0  0  0  0  0  0  0  0  0
   -0.7540   -2.7700    1.5226 O   0  0  0  0  0  0  0  0  0  0  0  0
   -1.5320   -0.8490    0.6496 N   0  0  0  0  0  0  0  0  0  0  0  0
   -2.3500   -0.3360    0.3566 H   0  0  0  0  0  0  0  0  0  0  0  0
   -0.2470   -0.1410    0.5576 C   0  0  1  0  0  0  0  0  0  0  0  0
    0.4572   -0.6505    1.2162 H   0  0  0  0  0  0  0  0  0  0  0  0
    0.3091   -0.2220   -0.8868 C   0  0  1  0  0  0  0  0  0  0  0  0
   -0.4521    0.1957   -1.5485 H   0  0  0  0  0  0  0  0  0  0  0  0
    1.5950    0.6068   -1.0696 C   0  0  0  0  0  0  0  0  0  0  0  0
    2.4121    0.1821   -0.4838 H   0  0  0  0  0  0  0  0  0  0  0  0
    1.8842    0.6298   -2.1191 H   0  0  0  0  0  0  0  0  0  0  0  0
    1.4289    1.6354   -0.7475 H   0  0  0  0  0  0  0  0  0  0  0  0
    0.5337   -1.6903   -1.3126 C   0  0  0  0  0  0  0  0  0  0  0  0
    0.1819   -1.8394   -2.3343 H   0  0  0  0  0  0  0  0  0  0  0  0
    1.6020   -1.9042   -1.2840 H   0  0  0  0  0  0  0  0  0  0  0  0
   -0.1620   -2.7106   -0.4013 C   0  0  0  0  0  0  0  0  0  0  0  0
   -1.2449   -2.6120   -0.4738 H   0  0  0  0  0  0  0  0  0  0  0  0
    0.1159   -3.7180   -0.7118 H   0  0  0  0  0  0  0  0  0  0  0  0
    0.1493   -2.5601    0.6330 H   0  0  0  0  0  0  0  0  0  0  0  0
   -0.3971    1.3008    1.0689 C   0  0  0  0  0  0  0  0  0  0  0  0
   -1.3643    1.9819    0.7311 O   0  0  0  0  0  0  0  0  0  0  0  0
    0.5522    1.7647    1.8915 N   0  0  0  0  0  0  0  0  0  0  0  0
    1.3093    1.1450    2.1332 H   0  0  0  0  0  0  0  0  0  0  0  0
    0.5577    3.1119    2.4582 C   0  0  0  0  0  0  0  0  0  0  0  0
   -0.3986    3.3098    2.9475 H   0  0  0  0  0  0  0  0  0  0  0  0
    1.3619    3.2123    3.1886 H   0  0  0  0  0  0  0  0  0  0  0  0
    0.6974    3.8450    1.6614 H   0  0  0  0  0  0  0  0  0  0  0  0
  5  6  2  0  0  0  0
  5  7  1  0  0  0  0
  2  3  1  0  0  0  0
  2  4  1  0  0  0  0
  2  5  1  0  0  0  0
  1  2  1  0  0  0  0
 24 25  2  0  0  0  0
 24 26  1  0  0  0  0
 20 21  1  0  0  0  0
 20 22  1  0  0  0  0
 20 23  1  0  0  0  0
 17 18  1  0  0  0  0
 17 19  1  0  0  0  0
 17 20  1  0  0  0  0
 13 14  1  0  0  0  0
 13 15  1  0  0  0  0
 13 16  1  0  0  0  0
 11 12  1  0  0  0  0
 11 13  1  0  0  0  0
 11 17  1  0  0  0  0
  9 10  1  0  0  0  0
  9 11  1  0  0  0  0
  9 24  1  0  0  0  0
  7  8  1  0  0  0  0
  7  9  1  0  0  0  0
 28 29  1  0  0  0  0
 28 30  1  0  0  0  0
 28 31  1  0  0  0  0
 26 27  1  0  0  0  0
 26 28  1  0  0  0  0
M  END
$$$$
default_name
  -OEChem-02102213163D

 31 30  0     1  0  0  0  0  0999 V2000
   -3.0760   -3.6390    1.5496 H   0  0  0  0  0  0  0  0  0  0  0  0
   -3.0940   -2.6290    1.1426 C   0  0  0  0  0  0  0  0  0  0  0  0
   -3.7160   -1.9930    1.7706 H   0  0  0  0  0  0  0  0  0  0  0  0
   -3.4880   -2.6500    0.1286 H   0  0  0  0  0  0  0  0  0  0  0  0
   -1.6860   -2.0850    1.1196 C   0  0  0  0  0  0  0  0  0  0  0  0
   -0.7540   -2.7700    1.5226 O   0  0  0  0  0  0  0  0  0  0  0  0
   -1.5320   -0.8490    0.6496 N   0  0  0  0  0  0  0  0  0  0  0  0
   -2.3500   -0.3360    0.3566 H   0  0  0  0  0  0  0  0  0  0  0  0
   -0.2470   -0.1410    0.5576 C   0  0  1  0  0  0  0  0  0  0  0  0
    0.4572   -0.6505    1.2162 H   0  0  0  0  0  0  0  0  0  0  0  0
    0.3091   -0.2220   -0.8868 C   0  0  1  0  0  0  0  0  0  0  0  0
   -0.4521    0.1957   -1.5485 H   0  0  0  0  0  0  0  0  0  0  0  0
    1.5950    0.6068   -1.0696 C   0  0  0  0  0  0  0  0  0  0  0  0
    2.4121    0.1821   -0.4838 H   0  0  0  0  0  0  0  0  0  0  0  0
    1.8842    0.6298   -2.1191 H   0  0  0  0  0  0  0  0  0  0  0  0
    1.4289    1.6354   -0.7475 H   0  0  0  0  0  0  0  0  0  0  0  0
    0.5337   -1.6903   -1.3126 C   0  0  0  0  0  0  0  0  0  0  0  0
    0.4364   -1.7829   -2.3951 H   0  0  0  0  0  0  0  0  0  0  0  0
    1.5451   -1.9855   -1.0336 H   0  0  0  0  0  0  0  0  0  0  0  0
   -0.4321   -2.6804   -0.6476 C   0  0  0  0  0  0  0  0  0  0  0  0
   -1.4544   -2.4978   -0.9781 H   0  0  0  0  0  0  0  0  0  0  0  0
   -0.1538   -3.6968   -0.9272 H   0  0  0  0  0  0  0  0  0  0  0  0
   -0.3770   -2.5838    0.4372 H   0  0  0  0  0  0  0  0  0  0  0  0
   -0.3971    1.3008    1.0689 C   0  0  0  0  0  0  0  0  0  0  0  0
   -1.3643    1.9819    0.7311 O   0  0  0  0  0  0  0  0  0  0  0  0
    0.5522    1.7647    1.8915 N   0  0  0  0  0  0  0  0  0  0  0  0
    1.3093    1.1450    2.1332 H   0  0  0  0  0  0  0  0  0  0  0  0
    0.5577    3.1119    2.4582 C   0  0  0  0  0  0  0  0  0  0  0  0
   -0.3986    3.3098    2.9475 H   0  0  0  0  0  0  0  0  0  0  0  0
    1.3619    3.2123    3.1886 H   0  0  0  0  0  0  0  0  0  0  0  0
    0.6974    3.8450    1.6614 H   0  0  0  0  0  0  0  0  0  0  0  0
  5  6  2  0  0  0  0
  5  7  1  0  0  0  0
  2  3  1  0  0  0  0
  2  4  1  0  0  0  0
  2  5  1  0  0  0  0
  1  2  1  0  0  0  0
 24 25  2  0  0  0  0
 24 26  1  0  0  0  0
 20 21  1  0  0  0  0
 20 22  1  0  0  0  0
 20 23  1  0  0  0  0
 17 18  1  0  0  0  0
 17 19  1  0  0  0  0
 17 20  1  0  0  0  0
 13 14  1  0  0  0  0
 13 15  1  0  0  0  0
 13 16  1  0  0  0  0
 11 12  1  0  0  0  0
 11 13  1  0  0  0  0
 11 17  1  0  0  0  0
  9 10  1  0  0  0  0
  9 11  1  0  0  0  0
  9 24  1  0  0  0  0
  7  8  1  0  0  0  0
  7  9  1  0  0  0  0
 28 29  1  0  0  0  0
 28 30  1  0  0  0  0
 28 31  1  0  0  0  0
 26 27  1  0  0  0  0
 26 28  1  0  0  0  0
M  END
$$$$
default_name
  -OEChem-02102213163D

 31 30  0     1  0  0  0  0  0999 V2000
   -3.0760   -3.6390    1.5496 H   0  0  0  0  0  0  0  0  0  0  0  0
   -3.0940   -2.6290    1.1426 C   0  0  0  0  0  0  0  0  0  0  0  0
   -3.7160   -1.9930    1.7706 H   0  0  0  0  0  0  0  0  0  0  0  0
   -3.4880   -2.6500    0.1286 H   0  0  0  0  0  0  0  0  0  0  0  0
   -1.6860   -2.0850    1.1196 C   0  0  0  0  0  0  0  0  0  0  0  0
   -0.7540   -2.7700    1.5226 O   0  0  0  0  0  0  0  0  0  0  0  0
   -1.5320   -0.8490    0.6496 N   0  0  0  0  0  0  0  0  0  0  0  0
   -2.3500   -0.3360    0.3566 H   0  0  0  0  0  0  0  0  0  0  0  0
   -0.2470   -0.1410    0.5576 C   0  0  1  0  0  0  0  0  0  0  0  0
    0.4572   -0.6505    1.2162 H   0  0  0  0  0  0  0  0  0  0  0  0
    0.3091   -0.2220   -0.8868 C   0  0  1  0  0  0  0  0  0  0  0  0
   -0.4521    0.1957   -1.5485 H   0  0  0  0  0  0  0  0  0  0  0  0
    1.5950    0.6068   -1.0696 C   0  0  0  0  0  0  0  0  0  0  0  0
    2.4121    0.1821   -0.4838 H   0  0  0  0  0  0  0  0  0  0  0  0
    1.8842    0.6298   -2.1191 H   0  0  0  0  0  0  0  0  0  0  0  0
    1.4289    1.6354   -0.7475 H   0  0  0  0  0  0  0  0  0  0  0  0
    0.5337   -1.6903   -1.3126 C   0  0  0  0  0  0  0  0  0  0  0  0
    0.7012   -1.7441   -2.3891 H   0  0  0  0  0  0  0  0  0  0  0  0
    1.4227   -2.0695   -0.8087 H   0  0  0  0  0  0  0  0  0  0  0  0
   -0.6303   -2.6228   -0.9508 C   0  0  0  0  0  0  0  0  0  0  0  0
   -1.5246   -2.3536   -1.5124 H   0  0  0  0  0  0  0  0  0  0  0  0
   -0.3598   -3.6490   -1.2008 H   0  0  0  0  0  0  0  0  0  0  0  0
   -0.8389   -2.5618    0.1179 H   0  0  0  0  0  0  0  0  0  0  0  0
   -0.3971    1.3008    1.0689 C   0  0  0  0  0  0  0  0  0  0  0  0
   -1.3643    1.9819    0.7311 O   0  0  0  0  0  0  0  0  0  0  0  0
    0.5522    1.7647    1.8915 N   0  0  0  0  0  0  0  0  0  0  0  0
    1.3093    1.1450    2.1332 H   0  0  0  0  0  0  0  0  0  0  0  0
    0.5577    3.1119    2.4582 C   0  0  0  0  0  0  0  0  0  0  0  0
   -0.3986    3.3098    2.9475 H   0  0  0  0  0  0  0  0  0  0  0  0
    1.3619    3.2123    3.1886 H   0  0  0  0  0  0  0  0  0  0  0  0
    0.6974    3.8450    1.6614 H   0  0  0  0  0  0  0  0  0  0  0  0
  5  6  2  0  0  0  0
  5  7  1  0  0  0  0
  2  3  1  0  0  0  0
  2  4  1  0  0  0  0
  2  5  1  0  0  0  0
  1  2  1  0  0  0  0
 24 25  2  0  0  0  0
 24 26  1  0  0  0  0
 20 21  1  0  0  0  0
 20 22  1  0  0  0  0
 20 23  1  0  0  0  0
 17 18  1  0  0  0  0
 17 19  1  0  0  0  0
 17 20  1  0  0  0  0
 13 14  1  0  0  0  0
 13 15  1  0  0  0  0
 13 16  1  0  0  0  0
 11 12  1  0  0  0  0
 11 13  1  0  0  0  0
 11 17  1  0  0  0  0
  9 10  1  0  0  0  0
  9 11  1  0  0  0  0
  9 24  1  0  0  0  0
  7  8  1  0  0  0  0
  7  9  1  0  0  0  0
 28 29  1  0  0  0  0
 28 30  1  0  0  0  0
 28 31  1  0  0  0  0
 26 27  1  0  0  0  0
 26 28  1  0  0  0  0
M  END
$$$$
default_name
  -OEChem-02102213163D

 31 30  0     1  0  0  0  0  0999 V2000
   -3.0760   -3.6390    1.5496 H   0  0  0  0  0  0  0  0  0  0  0  0
   -3.0940   -2.6290    1.1426 C   0  0  0  0  0  0  0  0  0  0  0  0
   -3.7160   -1.9930    1.7706 H   0  0  0  0  0  0  0  0  0  0  0  0
   -3.4880   -2.6500    0.1286 H   0  0  0  0  0  0  0  0  0  0  0  0
   -1.6860   -2.0850    1.1196 C   0  0  0  0  0  0  0  0  0  0  0  0
   -0.7540   -2.7700    1.5226 O   0  0  0  0  0  0  0  0  0  0  0  0
   -1.5320   -0.8490    0.6496 N   0  0  0  0  0  0  0  0  0  0  0  0
   -2.3500   -0.3360    0.3566 H   0  0  0  0  0  0  0  0  0  0  0  0
   -0.2470   -0.1410    0.5576 C   0  0  1  0  0  0  0  0  0  0  0  0
    0.4572   -0.6505    1.2162 H   0  0  0  0  0  0  0  0  0  0  0  0
    0.3091   -0.2220   -0.8868 C   0  0  1  0  0  0  0  0  0  0  0  0
   -0.4521    0.1957   -1.5485 H   0  0  0  0  0  0  0  0  0  0  0  0
    1.5950    0.6068   -1.0696 C   0  0  0  0  0  0  0  0  0  0  0  0
    2.4121    0.1821   -0.4838 H   0  0  0  0  0  0  0  0  0  0  0  0
    1.8842    0.6298   -2.1191 H   0  0  0  0  0  0  0  0  0  0  0  0
    1.4289    1.6354   -0.7475 H   0  0  0  0  0  0  0  0  0  0  0  0
    0.5337   -1.6903   -1.3126 C   0  0  0  0  0  0  0  0  0  0  0  0
    0.9582   -1.7258   -2.3168 H   0  0  0  0  0  0  0  0  0  0  0  0
    1.2432   -2.1502   -0.6248 H   0  0  0  0  0  0  0  0  0  0  0  0
   -0.7430   -2.5416   -1.2903 C   0  0  0  0  0  0  0  0  0  0  0  0
   -1.4507   -2.1892   -2.0404 H   0  0  0  0  0  0  0  0  0  0  0  0
   -0.4881   -3.5778   -1.5140 H   0  0  0  0  0  0  0  0  0  0  0  0
   -1.2049   -2.4956   -0.3034 H   0  0  0  0  0  0  0  0  0  0  0  0
   -0.3971    1.3008    1.0689 C   0  0  0  0  0  0  0  0  0  0  0  0
   -1.3643    1.9819    0.7311 O   0  0  0  0  0  0  0  0  0  0  0  0
    0.5522    1.7647    1.8915 N   0  0  0  0  0  0  0  0  0  0  0  0
    1.3093    1.1450    2.1332 H   0  0  0  0  0  0  0  0  0  0  0  0
    0.5577    3.1119    2.4582 C   0  0  0  0  0  0  0  0  0  0  0  0
   -0.3986    3.3098    2.9475 H   0  0  0  0  0  0  0  0  0  0  0  0
    1.3619    3.2123    3.1886 H   0  0  0  0  0  0  0  0  0  0  0  0
    0.6974    3.8450    1.6614 H   0  0  0  0  0  0  0  0  0  0  0  0
  5  6  2  0  0  0  0
  5  7  1  0  0  0  0
  2  3  1  0  0  0  0
  2  4  1  0  0  0  0
  2  5  1  0  0  0  0
  1  2  1  0  0  0  0
 24 25  2  0  0  0  0
 24 26  1  0  0  0  0
 20 21  1  0  0  0  0
 20 22  1  0  0  0  0
 20 23  1  0  0  0  0
 17 18  1  0  0  0  0
 17 19  1  0  0  0  0
 17 20  1  0  0  0  0
 13 14  1  0  0  0  0
 13 15  1  0  0  0  0
 13 16  1  0  0  0  0
 11 12  1  0  0  0  0
 11 13  1  0  0  0  0
 11 17  1  0  0  0  0
  9 10  1  0  0  0  0
  9 11  1  0  0  0  0
  9 24  1  0  0  0  0
  7  8  1  0  0  0  0
  7  9  1  0  0  0  0
 28 29  1  0  0  0  0
 28 30  1  0  0  0  0
 28 31  1  0  0  0  0
 26 27  1  0  0  0  0
 26 28  1  0  0  0  0
M  END
$$$$
default_name
  -OEChem-02102213163D

 31 30  0     1  0  0  0  0  0999 V2000
   -3.0760   -3.6390    1.5496 H   0  0  0  0  0  0  0  0  0  0  0  0
   -3.0940   -2.6290    1.1426 C   0  0  0  0  0  0  0  0  0  0  0  0
   -3.7160   -1.9930    1.7706 H   0  0  0  0  0  0  0  0  0  0  0  0
   -3.4880   -2.6500    0.1286 H   0  0  0  0  0  0  0  0  0  0  0  0
   -1.6860   -2.0850    1.1196 C   0  0  0  0  0  0  0  0  0  0  0  0
   -0.7540   -2.7700    1.5226 O   0  0  0  0  0  0  0  0  0  0  0  0
   -1.5320   -0.8490    0.6496 N   0  0  0  0  0  0  0  0  0  0  0  0
   -2.3500   -0.3360    0.3566 H   0  0  0  0  0  0  0  0  0  0  0  0
   -0.2470   -0.1410    0.5576 C   0  0  1  0  0  0  0  0  0  0  0  0
    0.4572   -0.6505    1.2162 H   0  0  0  0  0  0  0  0  0  0  0  0
    0.3091   -0.2220   -0.8868 C   0  0  1  0  0  0  0  0  0  0  0  0
   -0.4521    0.1957   -1.5485 H   0  0  0  0  0  0  0  0  0  0  0  0
    1.5950    0.6068   -1.0696 C   0  0  0  0  0  0  0  0  0  0  0  0
    2.4121    0.1821   -0.4838 H   0  0  0  0  0  0  0  0  0  0  0  0
    1.8842    0.6298   -2.1191 H   0  0  0  0  0  0  0  0  0  0  0  0
    1.4289    1.6354   -0.7475 H   0  0  0  0  0  0  0  0  0  0  0  0
    0.5337   -1.6903   -1.3126 C   0  0  0  0  0  0  0  0  0  0  0  0
    1.1900   -1.7292   -2.1830 H   0  0  0  0  0  0  0  0  0  0  0  0
    1.0188   -2.2224   -0.4943 H   0  0  0  0  0  0  0  0  0  0  0  0
   -0.7627   -2.4424   -1.6428 C   0  0  0  0  0  0  0  0  0  0  0  0
   -1.2378   -2.0158   -2.5260 H   0  0  0  0  0  0  0  0  0  0  0  0
   -0.5300   -3.4881   -1.8454 H   0  0  0  0  0  0  0  0  0  0  0  0
   -1.4501   -2.3898   -0.7979 H   0  0  0  0  0  0  0  0  0  0  0  0
   -0.3971    1.3008    1.0689 C   0  0  0  0  0  0  0  0  0  0  0  0
   -1.3643    1.9819    0.7311 O   0  0  0  0  0  0  0  0  0  0  0  0
    0.5522    1.7647    1.8915 N   0  0  0  0  0  0  0  0  0  0  0  0
    1.3093    1.1450    2.1332 H   0  0  0  0  0  0  0  0  0  0  0  0
    0.5577    3.1119    2.4582 C   0  0  0  0  0  0  0  0  0  0  0  0
   -0.3986    3.3098    2.9475 H   0  0  0  0  0  0  0  0  0  0  0  0
    1.3619    3.2123    3.1886 H   0  0  0  0  0  0  0  0  0  0  0  0
    0.6974    3.8450    1.6614 H   0  0  0  0  0  0  0  0  0  0  0  0
  5  6  2  0  0  0  0
  5  7  1  0  0  0  0
  2  3  1  0  0  0  0
  2  4  1  0  0  0  0
  2  5  1  0  0  0  0
  1  2  1  0  0  0  0
 24 25  2  0  0  0  0
 24 26  1  0  0  0  0
 20 21  1  0  0  0  0
 20 22  1  0  0  0  0
 20 23  1  0  0  0  0
 17 18  1  0  0  0  0
 17 19  1  0  0  0  0
 17 20  1  0  0  0  0
 13 14  1  0  0  0  0
 13 15  1  0  0  0  0
 13 16  1  0  0  0  0
 11 12  1  0  0  0  0
 11 13  1  0  0  0  0
 11 17  1  0  0  0  0
  9 10  1  0  0  0  0
  9 11  1  0  0  0  0
  9 24  1  0  0  0  0
  7  8  1  0  0  0  0
  7  9  1  0  0  0  0
 28 29  1  0  0  0  0
 28 30  1  0  0  0  0
 28 31  1  0  0  0  0
 26 27  1  0  0  0  0
 26 28  1  0  0  0  0
M  END
$$$$
default_name
  -OEChem-02102213163D

 31 30  0     1  0  0  0  0  0999 V2000
   -3.0760   -3.6390    1.5496 H   0  0  0  0  0  0  0  0  0  0  0  0
   -3.0940   -2.6290    1.1426 C   0  0  0  0  0  0  0  0  0  0  0  0
   -3.7160   -1.9930    1.7706 H   0  0  0  0  0  0  0  0  0  0  0  0
   -3.4880   -2.6500    0.1286 H   0  0  0  0  0  0  0  0  0  0  0  0
   -1.6860   -2.0850    1.1196 C   0  0  0  0  0  0  0  0  0  0  0  0
   -0.7540   -2.7700    1.5226 O   0  0  0  0  0  0  0  0  0  0  0  0
   -1.5320   -0.8490    0.6496 N   0  0  0  0  0  0  0  0  0  0  0  0
   -2.3500   -0.3360    0.3566 H   0  0  0  0  0  0  0  0  0  0  0  0
   -0.2470   -0.1410    0.5576 C   0  0  1  0  0  0  0  0  0  0  0  0
    0.4572   -0.6505    1.2162 H   0  0  0  0  0  0  0  0  0  0  0  0
    0.3091   -0.2220   -0.8868 C   0  0  1  0  0  0  0  0  0  0  0  0
   -0.4521    0.1957   -1.5485 H   0  0  0  0  0  0  0  0  0  0  0  0
    1.5950    0.6068   -1.0696 C   0  0  0  0  0  0  0  0  0  0  0  0
    2.4121    0.1821   -0.4838 H   0  0  0  0  0  0  0  0  0  0  0  0
    1.8842    0.6298   -2.1191 H   0  0  0  0  0  0  0  0  0  0  0  0
    1.4289    1.6354   -0.7475 H   0  0  0  0  0  0  0  0  0  0  0  0
    0.5337   -1.6903   -1.3126 C   0  0  0  0  0  0  0  0  0  0  0  0
    1.3808   -1.7540   -1.9968 H   0  0  0  0  0  0  0  0  0  0  0  0
    0.7648   -2.2810   -0.4262 H   0  0  0  0  0  0  0  0  0  0  0  0
   -0.6879   -2.3319   -1.9845 C   0  0  0  0  0  0  0  0  0  0  0  0
   -0.9003   -1.8452   -2.9362 H   0  0  0  0  0  0  0  0  0  0  0  0
   -0.4825   -3.3860   -2.1724 H   0  0  0  0  0  0  0  0  0  0  0  0
   -1.5579   -2.2514   -1.3318 H   0  0  0  0  0  0  0  0  0  0  0  0
   -0.3971    1.3008    1.0689 C   0  0  0  0  0  0  0  0  0  0  0  0
   -1.3643    1.9819    0.7311 O   0  0  0  0  0  0  0  0  0  0  0  0
    0.5522    1.7647    1.8915 N   0  0  0  0  0  0  0  0  0  0  0  0
    1.3093    1.1450    2.1332 H   0  0  0  0  0  0  0  0  0  0  0  0
    0.5577    3.1119    2.4582 C   0  0  0  0  0  0  0  0  0  0  0  0
   -0.3986    3.3098    2.9475 H   0  0  0  0  0  0  0  0  0  0  0  0
    1.3619    3.2123    3.1886 H   0  0  0  0  0  0  0  0  0  0  0  0
    0.6974    3.8450    1.6614 H   0  0  0  0  0  0  0  0  0  0  0  0
  5  6  2  0  0  0  0
  5  7  1  0  0  0  0
  2  3  1  0  0  0  0
  2  4  1  0  0  0  0
  2  5  1  0  0  0  0
  1  2  1  0  0  0  0
 24 25  2  0  0  0  0
 24 26  1  0  0  0  0
 20 21  1  0  0  0  0
 20 22  1  0  0  0  0
 20 23  1  0  0  0  0
 17 18  1  0  0  0  0
 17 19  1  0  0  0  0
 17 20  1  0  0  0  0
 13 14  1  0  0  0  0
 13 15  1  0  0  0  0
 13 16  1  0  0  0  0
 11 12  1  0  0  0  0
 11 13  1  0  0  0  0
 11 17  1  0  0  0  0
  9 10  1  0  0  0  0
  9 11  1  0  0  0  0
  9 24  1  0  0  0  0
  7  8  1  0  0  0  0
  7  9  1  0  0  0  0
 28 29  1  0  0  0  0
 28 30  1  0  0  0  0
 28 31  1  0  0  0  0
 26 27  1  0  0  0  0
 26 28  1  0  0  0  0
M  END
$$$$
default_name
  -OEChem-02102213163D

 31 30  0     1  0  0  0  0  0999 V2000
   -3.0760   -3.6390    1.5496 H   0  0  0  0  0  0  0  0  0  0  0  0
   -3.0940   -2.6290    1.1426 C   0  0  0  0  0  0  0  0  0  0  0  0
   -3.7160   -1.9930    1.7706 H   0  0  0  0  0  0  0  0  0  0  0  0
   -3.4880   -2.6500    0.1286 H   0  0  0  0  0  0  0  0  0  0  0  0
   -1.6860   -2.0850    1.1196 C   0  0  0  0  0  0  0  0  0  0  0  0
   -0.7540   -2.7700    1.5226 O   0  0  0  0  0  0  0  0  0  0  0  0
   -1.5320   -0.8490    0.6496 N   0  0  0  0  0  0  0  0  0  0  0  0
   -2.3500   -0.3360    0.3566 H   0  0  0  0  0  0  0  0  0  0  0  0
   -0.2470   -0.1410    0.5576 C   0  0  1  0  0  0  0  0  0  0  0  0
    0.4572   -0.6505    1.2162 H   0  0  0  0  0  0  0  0  0  0  0  0
    0.3091   -0.2220   -0.8868 C   0  0  1  0  0  0  0  0  0  0  0  0
   -0.4521    0.1957   -1.5485 H   0  0  0  0  0  0  0  0  0  0  0  0
    1.5950    0.6068   -1.0696 C   0  0  0  0  0  0  0  0  0  0  0  0
    2.4121    0.1821   -0.4838 H   0  0  0  0  0  0  0  0  0  0  0  0
    1.8842    0.6298   -2.1191 H   0  0  0  0  0  0  0  0  0  0  0  0
    1.4289    1.6354   -0.7475 H   0  0  0  0  0  0  0  0  0  0  0  0
    0.5337   -1.6903   -1.3126 C   0  0  0  0  0  0  0  0  0  0  0  0
    1.5175   -1.7986   -1.7710 H   0  0  0  0  0  0  0  0  0  0  0  0
    0.4985   -2.3220   -0.4251 H   0  0  0  0  0  0  0  0  0  0  0  0
   -0.5237   -2.2176   -2.2920 C   0  0  0  0  0  0  0  0  0  0  0  0
   -0.4612   -1.6891   -3.2430 H   0  0  0  0  0  0  0  0  0  0  0  0
   -0.3489   -3.2785   -2.4728 H   0  0  0  0  0  0  0  0  0  0  0  0
   -1.5207   -2.0900   -1.8689 H   0  0  0  0  0  0  0  0  0  0  0  0
   -0.3971    1.3008    1.0689 C   0  0  0  0  0  0  0  0  0  0  0  0
   -1.3643    1.9819    0.7311 O   0  0  0  0  0  0  0  0  0  0  0  0
    0.5522    1.7647    1.8915 N   0  0  0  0  0  0  0  0  0  0  0  0
    1.3093    1.1450    2.1332 H   0  0  0  0  0  0  0  0  0  0  0  0
    0.5577    3.1119    2.4582 C   0  0  0  0  0  0  0  0  0  0  0  0
   -0.3986    3.3098    2.9475 H   0  0  0  0  0  0  0  0  0  0  0  0
    1.3619    3.2123    3.1886 H   0  0  0  0  0  0  0  0  0  0  0  0
    0.6974    3.8450    1.6614 H   0  0  0  0  0  0  0  0  0  0  0  0
  5  6  2  0  0  0  0
  5  7  1  0  0  0  0
  2  3  1  0  0  0  0
  2  4  1  0  0  0  0
  2  5  1  0  0  0  0
  1  2  1  0  0  0  0
 24 25  2  0  0  0  0
 24 26  1  0  0  0  0
 20 21  1  0  0  0  0
 20 22  1  0  0  0  0
 20 23  1  0  0  0  0
 17 18  1  0  0  0  0
 17 19  1  0  0  0  0
 17 20  1  0  0  0  0
 13 14  1  0  0  0  0
 13 15  1  0  0  0  0
 13 16  1  0  0  0  0
 11 12  1  0  0  0  0
 11 13  1  0  0  0  0
 11 17  1  0  0  0  0
  9 10  1  0  0  0  0
  9 11  1  0  0  0  0
  9 24  1  0  0  0  0
  7  8  1  0  0  0  0
  7  9  1  0  0  0  0
 28 29  1  0  0  0  0
 28 30  1  0  0  0  0
 28 31  1  0  0  0  0
 26 27  1  0  0  0  0
 26 28  1  0  0  0  0
M  END
$$$$
default_name
  -OEChem-02102213163D

 31 30  0     1  0  0  0  0  0999 V2000
   -3.0760   -3.6390    1.5496 H   0  0  0  0  0  0  0  0  0  0  0  0
   -3.0940   -2.6290    1.1426 C   0  0  0  0  0  0  0  0  0  0  0  0
   -3.7160   -1.9930    1.7706 H   0  0  0  0  0  0  0  0  0  0  0  0
   -3.4880   -2.6500    0.1286 H   0  0  0  0  0  0  0  0  0  0  0  0
   -1.6860   -2.0850    1.1196 C   0  0  0  0  0  0  0  0  0  0  0  0
   -0.7540   -2.7700    1.5226 O   0  0  0  0  0  0  0  0  0  0  0  0
   -1.5320   -0.8490    0.6496 N   0  0  0  0  0  0  0  0  0  0  0  0
   -2.3500   -0.3360    0.3566 H   0  0  0  0  0  0  0  0  0  0  0  0
   -0.2470   -0.1410    0.5576 C   0  0  1  0  0  0  0  0  0  0  0  0
    0.4572   -0.6505    1.2162 H   0  0  0  0  0  0  0  0  0  0  0  0
    0.3091   -0.2220   -0.8868 C   0  0  1  0  0  0  0  0  0  0  0  0
   -0.4521    0.1957   -1.5485 H   0  0  0  0  0  0  0  0  0  0  0  0
    1.5950    0.6068   -1.0696 C   0  0  0  0  0  0  0  0  0  0  0  0
    2.4121    0.1821   -0.4838 H   0  0  0  0  0  0  0  0  0  0  0  0
    1.8842    0.6298   -2.1191 H   0  0  0  0  0  0  0  0  0  0  0  0
    1.4289    1.6354   -0.7475 H   0  0  0  0  0  0  0  0  0  0  0  0
    0.5337   -1.6903   -1.3126 C   0  0  0  0  0  0  0  0  0  0  0  0
    1.5909   -1.8598   -1.5210 H   0  0  0  0  0  0  0  0  0  0  0  0
    0.2381   -2.3427   -0.4910 H   0  0  0  0  0  0  0  0  0  0  0  0
   -0.2814   -2.1074   -2.5443 C   0  0  0  0  0  0  0  0  0  0  0  0
    0.0494   -1.5581   -3.4255 H   0  0  0  0  0  0  0  0  0  0  0  0
   -0.1384   -3.1729   -2.7260 H   0  0  0  0  0  0  0  0  0  0  0  0
   -1.3412   -1.9165   -2.3724 H   0  0  0  0  0  0  0  0  0  0  0  0
   -0.3971    1.3008    1.0689 C   0  0  0  0  0  0  0  0  0  0  0  0
   -1.3643    1.9819    0.7311 O   0  0  0  0  0  0  0  0  0  0  0  0
    0.5522    1.7647    1.8915 N   0  0  0  0  0  0  0  0  0  0  0  0
    1.3093    1.1450    2.1332 H   0  0  0  0  0  0  0  0  0  0  0  0
    0.5577    3.1119    2.4582 C   0  0  0  0  0  0  0  0  0  0  0  0
   -0.3986    3.3098    2.9475 H   0  0  0  0  0  0  0  0  0  0  0  0
    1.3619    3.2123    3.1886 H   0  0  0  0  0  0  0  0  0  0  0  0
    0.6974    3.8450    1.6614 H   0  0  0  0  0  0  0  0  0  0  0  0
  5  6  2  0  0  0  0
  5  7  1  0  0  0  0
  2  3  1  0  0  0  0
  2  4  1  0  0  0  0
  2  5  1  0  0  0  0
  1  2  1  0  0  0  0
 24 25  2  0  0  0  0
 24 26  1  0  0  0  0
 20 21  1  0  0  0  0
 20 22  1  0  0  0  0
 20 23  1  0  0  0  0
 17 18  1  0  0  0  0
 17 19  1  0  0  0  0
 17 20  1  0  0  0  0
 13 14  1  0  0  0  0
 13 15  1  0  0  0  0
 13 16  1  0  0  0  0
 11 12  1  0  0  0  0
 11 13  1  0  0  0  0
 11 17  1  0  0  0  0
  9 10  1  0  0  0  0
  9 11  1  0  0  0  0
  9 24  1  0  0  0  0
  7  8  1  0  0  0  0
  7  9  1  0  0  0  0
 28 29  1  0  0  0  0
 28 30  1  0  0  0  0
 28 31  1  0  0  0  0
 26 27  1  0  0  0  0
 26 28  1  0  0  0  0
M  END
$$$$
default_name
  -OEChem-02102213163D

 31 30  0     1  0  0  0  0  0999 V2000
   -3.0760   -3.6390    1.5496 H   0  0  0  0  0  0  0  0  0  0  0  0
   -3.0940   -2.6290    1.1426 C   0  0  0  0  0  0  0  0  0  0  0  0
   -3.7160   -1.9930    1.7706 H   0  0  0  0  0  0  0  0  0  0  0  0
   -3.4880   -2.6500    0.1286 H   0  0  0  0  0  0  0  0  0  0  0  0
   -1.6860   -2.0850    1.1196 C   0  0  0  0  0  0  0  0  0  0  0  0
   -0.7540   -2.7700    1.5226 O   0  0  0  0  0  0  0  0  0  0  0  0
   -1.5320   -0.8490    0.6496 N   0  0  0  0  0  0  0  0  0  0  0  0
   -2.3500   -0.3360    0.3566 H   0  0  0  0  0  0  0  0  0  0  0  0
   -0.2470   -0.1410    0.5576 C   0  0  1  0  0  0  0  0  0  0  0  0
    0.4572   -0.6505    1.2162 H   0  0  0  0  0  0  0  0  0  0  0  0
    0.3091   -0.2220   -0.8868 C   0  0  1  0  0  0  0  0  0  0  0  0
   -0.4521    0.1957   -1.5485 H   0  0  0  0  0  0  0  0  0  0  0  0
    1.5950    0.6068   -1.0696 C   0  0  0  0  0  0  0  0  0  0  0  0
    2.4121    0.1821   -0.4838 H   0  0  0  0  0  0  0  0  0  0  0  0
    1.8842    0.6298   -2.1191 H   0  0  0  0  0  0  0  0  0  0  0  0
    1.4289    1.6354   -0.7475 H   0  0  0  0  0  0  0  0  0  0  0  0
    0.5337   -1.6903   -1.3126 C   0  0  0  0  0  0  0  0  0  0  0  0
    1.5958   -1.9337   -1.2638 H   0  0  0  0  0  0  0  0  0  0  0  0
    0.0013   -2.3417   -0.6195 H   0  0  0  0  0  0  0  0  0  0  0  0
    0.0226   -2.0088   -2.7242 C   0  0  0  0  0  0  0  0  0  0  0  0
    0.5969   -1.4612   -3.4713 H   0  0  0  0  0  0  0  0  0  0  0  0
    0.1348   -3.0763   -2.9148 H   0  0  0  0  0  0  0  0  0  0  0  0
   -1.0317   -1.7429   -2.8081 H   0  0  0  0  0  0  0  0  0  0  0  0
   -0.3971    1.3008    1.0689 C   0  0  0  0  0  0  0  0  0  0  0  0
   -1.3643    1.9819    0.7311 O   0  0  0  0  0  0  0  0  0  0  0  0
    0.5522    1.7647    1.8915 N   0  0  0  0  0  0  0  0  0  0  0  0
    1.3093    1.1450    2.1332 H   0  0  0  0  0  0  0  0  0  0  0  0
    0.5577    3.1119    2.4582 C   0  0  0  0  0  0  0  0  0  0  0  0
   -0.3986    3.3098    2.9475 H   0  0  0  0  0  0  0  0  0  0  0  0
    1.3619    3.2123    3.1886 H   0  0  0  0  0  0  0  0  0  0  0  0
    0.6974    3.8450    1.6614 H   0  0  0  0  0  0  0  0  0  0  0  0
  5  6  2  0  0  0  0
  5  7  1  0  0  0  0
  2  3  1  0  0  0  0
  2  4  1  0  0  0  0
  2  5  1  0  0  0  0
  1  2  1  0  0  0  0
 24 25  2  0  0  0  0
 24 26  1  0  0  0  0
 20 21  1  0  0  0  0
 20 22  1  0  0  0  0
 20 23  1  0  0  0  0
 17 18  1  0  0  0  0
 17 19  1  0  0  0  0
 17 20  1  0  0  0  0
 13 14  1  0  0  0  0
 13 15  1  0  0  0  0
 13 16  1  0  0  0  0
 11 12  1  0  0  0  0
 11 13  1  0  0  0  0
 11 17  1  0  0  0  0
  9 10  1  0  0  0  0
  9 11  1  0  0  0  0
  9 24  1  0  0  0  0
  7  8  1  0  0  0  0
  7  9  1  0  0  0  0
 28 29  1  0  0  0  0
 28 30  1  0  0  0  0
 28 31  1  0  0  0  0
 26 27  1  0  0  0  0
 26 28  1  0  0  0  0
M  END
$$$$
default_name
  -OEChem-02102213163D

 31 30  0     1  0  0  0  0  0999 V2000
   -3.0760   -3.6390    1.5496 H   0  0  0  0  0  0  0  0  0  0  0  0
   -3.0940   -2.6290    1.1426 C   0  0  0  0  0  0  0  0  0  0  0  0
   -3.7160   -1.9930    1.7706 H   0  0  0  0  0  0  0  0  0  0  0  0
   -3.4880   -2.6500    0.1286 H   0  0  0  0  0  0  0  0  0  0  0  0
   -1.6860   -2.0850    1.1196 C   0  0  0  0  0  0  0  0  0  0  0  0
   -0.7540   -2.7700    1.5226 O   0  0  0  0  0  0  0  0  0  0  0  0
   -1.5320   -0.8490    0.6496 N   0  0  0  0  0  0  0  0  0  0  0  0
   -2.3500   -0.3360    0.3566 H   0  0  0  0  0  0  0  0  0  0  0  0
   -0.2470   -0.1410    0.5576 C   0  0  1  0  0  0  0  0  0  0  0  0
    0.4572   -0.6505    1.2162 H   0  0  0  0  0  0  0  0  0  0  0  0
    0.3091   -0.2220   -0.8868 C   0  0  1  0  0  0  0  0  0  0  0  0
   -0.4521    0.1957   -1.5485 H   0  0  0  0  0  0  0  0  0  0  0  0
    1.5950    0.6068   -1.0696 C   0  0  0  0  0  0  0  0  0  0  0  0
    2.4121    0.1821   -0.4838 H   0  0  0  0  0  0  0  0  0  0  0  0
    1.8842    0.6298   -2.1191 H   0  0  0  0  0  0  0  0  0  0  0  0
    1.4289    1.6354   -0.7475 H   0  0  0  0  0  0  0  0  0  0  0  0
    0.5337   -1.6903   -1.3126 C   0  0  0  0  0  0  0  0  0  0  0  0
    1.5321   -2.0150   -1.0168 H   0  0  0  0  0  0  0  0  0  0  0  0
   -0.1957   -2.3189   -0.8018 H   0  0  0  0  0  0  0  0  0  0  0  0
    0.3676   -1.9284   -2.8196 C   0  0  0  0  0  0  0  0  0  0  0  0
    1.1439   -1.4048   -3.3772 H   0  0  0  0  0  0  0  0  0  0  0  0
    0.4521   -2.9955   -3.0264 H   0  0  0  0  0  0  0  0  0  0  0  0
   -0.6131   -1.5808   -3.1463 H   0  0  0  0  0  0  0  0  0  0  0  0
   -0.3971    1.3008    1.0689 C   0  0  0  0  0  0  0  0  0  0  0  0
   -1.3643    1.9819    0.7311 O   0  0  0  0  0  0  0  0  0  0  0  0
    0.5522    1.7647    1.8915 N   0  0  0  0  0  0  0  0  0  0  0  0
    1.3093    1.1450    2.1332 H   0  0  0  0  0  0  0  0  0  0  0  0
    0.5577    3.1119    2.4582 C   0  0  0  0  0  0  0  0  0  0  0  0
   -0.3986    3.3098    2.9475 H   0  0  0  0  0  0  0  0  0  0  0  0
    1.3619    3.2123    3.1886 H   0  0  0  0  0  0  0  0  0  0  0  0
    0.6974    3.8450    1.6614 H   0  0  0  0  0  0  0  0  0  0  0  0
  5  6  2  0  0  0  0
  5  7  1  0  0  0  0
  2  3  1  0  0  0  0
  2  4  1  0  0  0  0
  2  5  1  0  0  0  0
  1  2  1  0  0  0  0
 24 25  2  0  0  0  0
 24 26  1  0  0  0  0
 20 21  1  0  0  0  0
 20 22  1  0  0  0  0
 20 23  1  0  0  0  0
 17 18  1  0  0  0  0
 17 19  1  0  0  0  0
 17 20  1  0  0  0  0
 13 14  1  0  0  0  0
 13 15  1  0  0  0  0
 13 16  1  0  0  0  0
 11 12  1  0  0  0  0
 11 13  1  0  0  0  0
 11 17  1  0  0  0  0
  9 10  1  0  0  0  0
  9 11  1  0  0  0  0
  9 24  1  0  0  0  0
  7  8  1  0  0  0  0
  7  9  1  0  0  0  0
 28 29  1  0  0  0  0
 28 30  1  0  0  0  0
 28 31  1  0  0  0  0
 26 27  1  0  0  0  0
 26 28  1  0  0  0  0
M  END
$$$$
default_name
  -OEChem-02102213163D

 31 30  0     1  0  0  0  0  0999 V2000
   -3.0760   -3.6390    1.5496 H   0  0  0  0  0  0  0  0  0  0  0  0
   -3.0940   -2.6290    1.1426 C   0  0  0  0  0  0  0  0  0  0  0  0
   -3.7160   -1.9930    1.7706 H   0  0  0  0  0  0  0  0  0  0  0  0
   -3.4880   -2.6500    0.1286 H   0  0  0  0  0  0  0  0  0  0  0  0
   -1.6860   -2.0850    1.1196 C   0  0  0  0  0  0  0  0  0  0  0  0
   -0.7540   -2.7700    1.5226 O   0  0  0  0  0  0  0  0  0  0  0  0
   -1.5320   -0.8490    0.6496 N   0  0  0  0  0  0  0  0  0  0  0  0
   -2.3500   -0.3360    0.3566 H   0  0  0  0  0  0  0  0  0  0  0  0
   -0.2470   -0.1410    0.5576 C   0  0  1  0  0  0  0  0  0  0  0  0
    0.4572   -0.6505    1.2162 H   0  0  0  0  0  0  0  0  0  0  0  0
    0.3091   -0.2220   -0.8868 C   0  0  1  0  0  0  0  0  0  0  0  0
   -0.4521    0.1957   -1.5485 H   0  0  0  0  0  0  0  0  0  0  0  0
    1.5950    0.6068   -1.0696 C   0  0  0  0  0  0  0  0  0  0  0  0
    2.4121    0.1821   -0.4838 H   0  0  0  0  0  0  0  0  0  0  0  0
    1.8842    0.6298   -2.1191 H   0  0  0  0  0  0  0  0  0  0  0  0
    1.4289    1.6354   -0.7475 H   0  0  0  0  0  0  0  0  0  0  0  0
    0.5337   -1.6903   -1.3126 C   0  0  0  0  0  0  0  0  0  0  0  0
    1.4041   -2.0983   -0.7971 H   0  0  0  0  0  0  0  0  0  0  0  0
   -0.3396   -2.2760   -1.0256 H   0  0  0  0  0  0  0  0  0  0  0  0
    0.7299   -1.8717   -2.8238 C   0  0  0  0  0  0  0  0  0  0  0  0
    1.6532   -1.3929   -3.1496 H   0  0  0  0  0  0  0  0  0  0  0  0
    0.7917   -2.9358   -3.0531 H   0  0  0  0  0  0  0  0  0  0  0  0
   -0.1141   -1.4414   -3.3640 H   0  0  0  0  0  0  0  0  0  0  0  0
   -0.3971    1.3008    1.0689 C   0  0  0  0  0  0  0  0  0  0  0  0
   -1.3643    1.9819    0.7311 O   0  0  0  0  0  0  0  0  0  0  0  0
    0.5522    1.7647    1.8915 N   0  0  0  0  0  0  0  0  0  0  0  0
    1.3093    1.1450    2.1332 H   0  0  0  0  0  0  0  0  0  0  0  0
    0.5577    3.1119    2.4582 C   0  0  0  0  0  0  0  0  0  0  0  0
   -0.3986    3.3098    2.9475 H   0  0  0  0  0  0  0  0  0  0  0  0
    1.3619    3.2123    3.1886 H   0  0  0  0  0  0  0  0  0  0  0  0
    0.6974    3.8450    1.6614 H   0  0  0  0  0  0  0  0  0  0  0  0
  5  6  2  0  0  0  0
  5  7  1  0  0  0  0
  2  3  1  0  0  0  0
  2  4  1  0  0  0  0
  2  5  1  0  0  0  0
  1  2  1  0  0  0  0
 24 25  2  0  0  0  0
 24 26  1  0  0  0  0
 20 21  1  0  0  0  0
 20 22  1  0  0  0  0
 20 23  1  0  0  0  0
 17 18  1  0  0  0  0
 17 19  1  0  0  0  0
 17 20  1  0  0  0  0
 13 14  1  0  0  0  0
 13 15  1  0  0  0  0
 13 16  1  0  0  0  0
 11 12  1  0  0  0  0
 11 13  1  0  0  0  0
 11 17  1  0  0  0  0
  9 10  1  0  0  0  0
  9 11  1  0  0  0  0
  9 24  1  0  0  0  0
  7  8  1  0  0  0  0
  7  9  1  0  0  0  0
 28 29  1  0  0  0  0
 28 30  1  0  0  0  0
 28 31  1  0  0  0  0
 26 27  1  0  0  0  0
 26 28  1  0  0  0  0
M  END
$$$$
default_name
  -OEChem-02102213163D

 31 30  0     1  0  0  0  0  0999 V2000
   -3.0760   -3.6390    1.5496 H   0  0  0  0  0  0  0  0  0  0  0  0
   -3.0940   -2.6290    1.1426 C   0  0  0  0  0  0  0  0  0  0  0  0
   -3.7160   -1.9930    1.7706 H   0  0  0  0  0  0  0  0  0  0  0  0
   -3.4880   -2.6500    0.1286 H   0  0  0  0  0  0  0  0  0  0  0  0
   -1.6860   -2.0850    1.1196 C   0  0  0  0  0  0  0  0  0  0  0  0
   -0.7540   -2.7700    1.5226 O   0  0  0  0  0  0  0  0  0  0  0  0
   -1.5320   -0.8490    0.6496 N   0  0  0  0  0  0  0  0  0  0  0  0
   -2.3500   -0.3360    0.3566 H   0  0  0  0  0  0  0  0  0  0  0  0
   -0.2470   -0.1410    0.5576 C   0  0  1  0  0  0  0  0  0  0  0  0
    0.4572   -0.6505    1.2162 H   0  0  0  0  0  0  0  0  0  0  0  0
    0.3091   -0.2220   -0.8868 C   0  0  1  0  0  0  0  0  0  0  0  0
   -0.3126    0.4260   -1.5077 H   0  0  0  0  0  0  0  0  0  0  0  0
    1.7607    0.2844   -0.9877 C   0  0  0  0  0  0  0  0  0  0  0  0
    2.4368   -0.3770   -0.4429 H   0  0  0  0  0  0  0  0  0  0  0  0
    2.0730    0.3323   -2.0297 H   0  0  0  0  0  0  0  0  0  0  0  0
    1.8391    1.2888   -0.5702 H   0  0  0  0  0  0  0  0  0  0  0  0
    0.1844   -1.6559   -1.4490 C   0  0  0  0  0  0  0  0  0  0  0  0
    0.7161   -2.3562   -0.8036 H   0  0  0  0  0  0  0  0  0  0  0  0
   -0.8688   -1.9363   -1.4637 H   0  0  0  0  0  0  0  0  0  0  0  0
    0.7182   -1.8065   -2.8800 C   0  0  0  0  0  0  0  0  0  0  0  0
    1.7951   -1.6412   -2.9056 H   0  0  0  0  0  0  0  0  0  0  0  0
    0.5141   -2.8168   -3.2353 H   0  0  0  0  0  0  0  0  0  0  0  0
    0.2240   -1.0925   -3.5396 H   0  0  0  0  0  0  0  0  0  0  0  0
   -0.3971    1.3008    1.0689 C   0  0  0  0  0  0  0  0  0  0  0  0
   -1.3643    1.9819    0.7311 O   0  0  0  0  0  0  0  0  0  0  0  0
    0.5522    1.7647    1.8915 N   0  0  0  0  0  0  0  0  0  0  0  0
    1.3093    1.1450    2.1332 H   0  0  0  0  0  0  0  0  0  0  0  0
    0.5577    3.1119    2.4582 C   0  0  0  0  0  0  0  0  0  0  0  0
   -0.3986    3.3098    2.9475 H   0  0  0  0  0  0  0  0  0  0  0  0
    1.3619    3.2123    3.1886 H   0  0  0  0  0  0  0  0  0  0  0  0
    0.6974    3.8450    1.6614 H   0  0  0  0  0  0  0  0  0  0  0  0
  5  6  2  0  0  0  0
  5  7  1  0  0  0  0
  2  3  1  0  0  0  0
  2  4  1  0  0  0  0
  2  5  1  0  0  0  0
  1  2  1  0  0  0  0
 24 25  2  0  0  0  0
 24 26  1  0  0  0  0
 20 21  1  0  0  0  0
 20 22  1  0  0  0  0
 20 23  1  0  0  0  0
 17 18  1  0  0  0  0
 17 19  1  0  0  0  0
 17 20  1  0  0  0  0
 13 14  1  0  0  0  0
 13 15  1  0  0  0  0
 13 16  1  0  0  0  0
 11 12  1  0  0  0  0
 11 13  1  0  0  0  0
 11 17  1  0  0  0  0
  9 10  1  0  0  0  0
  9 11  1  0  0  0  0
  9 24  1  0  0  0  0
  7  8  1  0  0  0  0
  7  9  1  0  0  0  0
 28 29  1  0  0  0  0
 28 30  1  0  0  0  0
 28 31  1  0  0  0  0
 26 27  1  0  0  0  0
 26 28  1  0  0  0  0
M  END
$$$$
default_name
  -OEChem-02102213163D

 31 30  0     1  0  0  0  0  0999 V2000
   -3.0760   -3.6390    1.5496 H   0  0  0  0  0  0  0  0  0  0  0  0
   -3.0940   -2.6290    1.1426 C   0  0  0  0  0  0  0  0  0  0  0  0
   -3.7160   -1.9930    1.7706 H   0  0  0  0  0  0  0  0  0  0  0  0
   -3.4880   -2.6500    0.1286 H   0  0  0  0  0  0  0  0  0  0  0  0
   -1.6860   -2.0850    1.1196 C   0  0  0  0  0  0  0  0  0  0  0  0
   -0.7540   -2.7700    1.5226 O   0  0  0  0  0  0  0  0  0  0  0  0
   -1.5320   -0.8490    0.6496 N   0  0  0  0  0  0  0  0  0  0  0  0
   -2.3500   -0.3360    0.3566 H   0  0  0  0  0  0  0  0  0  0  0  0
   -0.2470   -0.1410    0.5576 C   0  0  1  0  0  0  0  0  0  0  0  0
    0.4572   -0.6505    1.2162 H   0  0  0  0  0  0  0  0  0  0  0  0
    0.3091   -0.2220   -0.8868 C   0  0  1  0  0  0  0  0  0  0  0  0
   -0.3126    0.4260   -1.5077 H   0  0  0  0  0  0  0  0  0  0  0  0
    1.7607    0.2844   -0.9877 C   0  0  0  0  0  0  0  0  0  0  0  0
    2.4368   -0.3770   -0.4429 H   0  0  0  0  0  0  0  0  0  0  0  0
    2.0730    0.3323   -2.0297 H   0  0  0  0  0  0  0  0  0  0  0  0
    1.8391    1.2888   -0.5702 H   0  0  0  0  0  0  0  0  0  0  0  0
    0.1844   -1.6559   -1.4490 C   0  0  0  0  0  0  0  0  0  0  0  0
    0.4760   -2.3807   -0.6878 H   0  0  0  0  0  0  0  0  0  0  0  0
   -0.8567   -1.8390   -1.7147 H   0  0  0  0  0  0  0  0  0  0  0  0
    1.0278   -1.9011   -2.7075 C   0  0  0  0  0  0  0  0  0  0  0  0
    2.0904   -1.8360   -2.4742 H   0  0  0  0  0  0  0  0  0  0  0  0
    0.8179   -2.8994   -3.0920 H   0  0  0  0  0  0  0  0  0  0  0  0
    0.7772   -1.1665   -3.4735 H   0  0  0  0  0  0  0  0  0  0  0  0
   -0.3971    1.3008    1.0689 C   0  0  0  0  0  0  0  0  0  0  0  0
   -1.3643    1.9819    0.7311 O   0  0  0  0  0  0  0  0  0  0  0  0
    0.5522    1.7647    1.8915 N   0  0  0  0  0  0  0  0  0  0  0  0
    1.3093    1.1450    2.1332 H   0  0  0  0  0  0  0  0  0  0  0  0
    0.5577    3.1119    2.4582 C   0  0  0  0  0  0  0  0  0  0  0  0
   -0.3986    3.3098    2.9475 H   0  0  0  0  0  0  0  0  0  0  0  0
    1.3619    3.2123    3.1886 H   0  0  0  0  0  0  0  0  0  0  0  0
    0.6974    3.8450    1.6614 H   0  0  0  0  0  0  0  0  0  0  0  0
  5  6  2  0  0  0  0
  5  7  1  0  0  0  0
  2  3  1  0  0  0  0
  2  4  1  0  0  0  0
  2  5  1  0  0  0  0
  1  2  1  0  0  0  0
 24 25  2  0  0  0  0
 24 26  1  0  0  0  0
 20 21  1  0  0  0  0
 20 22  1  0  0  0  0
 20 23  1  0  0  0  0
 17 18  1  0  0  0  0
 17 19  1  0  0  0  0
 17 20  1  0  0  0  0
 13 14  1  0  0  0  0
 13 15  1  0  0  0  0
 13 16  1  0  0  0  0
 11 12  1  0  0  0  0
 11 13  1  0  0  0  0
 11 17  1  0  0  0  0
  9 10  1  0  0  0  0
  9 11  1  0  0  0  0
  9 24  1  0  0  0  0
  7  8  1  0  0  0  0
  7  9  1  0  0  0  0
 28 29  1  0  0  0  0
 28 30  1  0  0  0  0
 28 31  1  0  0  0  0
 26 27  1  0  0  0  0
 26 28  1  0  0  0  0
M  END
$$$$
default_name
  -OEChem-02102213163D

 31 30  0     1  0  0  0  0  0999 V2000
   -3.0760   -3.6390    1.5496 H   0  0  0  0  0  0  0  0  0  0  0  0
   -3.0940   -2.6290    1.1426 C   0  0  0  0  0  0  0  0  0  0  0  0
   -3.7160   -1.9930    1.7706 H   0  0  0  0  0  0  0  0  0  0  0  0
   -3.4880   -2.6500    0.1286 H   0  0  0  0  0  0  0  0  0  0  0  0
   -1.6860   -2.0850    1.1196 C   0  0  0  0  0  0  0  0  0  0  0  0
   -0.7540   -2.7700    1.5226 O   0  0  0  0  0  0  0  0  0  0  0  0
   -1.5320   -0.8490    0.6496 N   0  0  0  0  0  0  0  0  0  0  0  0
   -2.3500   -0.3360    0.3566 H   0  0  0  0  0  0  0  0  0  0  0  0
   -0.2470   -0.1410    0.5576 C   0  0  1  0  0  0  0  0  0  0  0  0
    0.4572   -0.6505    1.2162 H   0  0  0  0  0  0  0  0  0  0  0  0
    0.3091   -0.2220   -0.8868 C   0  0  1  0  0  0  0  0  0  0  0  0
   -0.3126    0.4260   -1.5077 H   0  0  0  0  0  0  0  0  0  0  0  0
    1.7607    0.2844   -0.9877 C   0  0  0  0  0  0  0  0  0  0  0  0
    2.4368   -0.3770   -0.4429 H   0  0  0  0  0  0  0  0  0  0  0  0
    2.0730    0.3323   -2.0297 H   0  0  0  0  0  0  0  0  0  0  0  0
    1.8391    1.2888   -0.5702 H   0  0  0  0  0  0  0  0  0  0  0  0
    0.1844   -1.6559   -1.4490 C   0  0  0  0  0  0  0  0  0  0  0  0
    0.2139   -2.3793   -0.6332 H   0  0  0  0  0  0  0  0  0  0  0  0
   -0.7757   -1.7513   -1.9562 H   0  0  0  0  0  0  0  0  0  0  0  0
    1.2765   -2.0180   -2.4646 C   0  0  0  0  0  0  0  0  0  0  0  0
    2.2537   -2.0430   -1.9825 H   0  0  0  0  0  0  0  0  0  0  0  0
    1.0691   -3.0048   -2.8790 H   0  0  0  0  0  0  0  0  0  0  0  0
    1.2887   -1.2887   -3.2753 H   0  0  0  0  0  0  0  0  0  0  0  0
   -0.3971    1.3008    1.0689 C   0  0  0  0  0  0  0  0  0  0  0  0
   -1.3643    1.9819    0.7311 O   0  0  0  0  0  0  0  0  0  0  0  0
    0.5522    1.7647    1.8915 N   0  0  0  0  0  0  0  0  0  0  0  0
    1.3093    1.1450    2.1332 H   0  0  0  0  0  0  0  0  0  0  0  0
    0.5577    3.1119    2.4582 C   0  0  0  0  0  0  0  0  0  0  0  0
   -0.3986    3.3098    2.9475 H   0  0  0  0  0  0  0  0  0  0  0  0
    1.3619    3.2123    3.1886 H   0  0  0  0  0  0  0  0  0  0  0  0
    0.6974    3.8450    1.6614 H   0  0  0  0  0  0  0  0  0  0  0  0
  5  6  2  0  0  0  0
  5  7  1  0  0  0  0
  2  3  1  0  0  0  0
  2  4  1  0  0  0  0
  2  5  1  0  0  0  0
  1  2  1  0  0  0  0
 24 25  2  0  0  0  0
 24 26  1  0  0  0  0
 20 21  1  0  0  0  0
 20 22  1  0  0  0  0
 20 23  1  0  0  0  0
 17 18  1  0  0  0  0
 17 19  1  0  0  0  0
 17 20  1  0  0  0  0
 13 14  1  0  0  0  0
 13 15  1  0  0  0  0
 13 16  1  0  0  0  0
 11 12  1  0  0  0  0
 11 13  1  0  0  0  0
 11 17  1  0  0  0  0
  9 10  1  0  0  0  0
  9 11  1  0  0  0  0
  9 24  1  0  0  0  0
  7  8  1  0  0  0  0
  7  9  1  0  0  0  0
 28 29  1  0  0  0  0
 28 30  1  0  0  0  0
 28 31  1  0  0  0  0
 26 27  1  0  0  0  0
 26 28  1  0  0  0  0
M  END
$$$$
default_name
  -OEChem-02102213163D

 31 30  0     1  0  0  0  0  0999 V2000
   -3.0760   -3.6390    1.5496 H   0  0  0  0  0  0  0  0  0  0  0  0
   -3.0940   -2.6290    1.1426 C   0  0  0  0  0  0  0  0  0  0  0  0
   -3.7160   -1.9930    1.7706 H   0  0  0  0  0  0  0  0  0  0  0  0
   -3.4880   -2.6500    0.1286 H   0  0  0  0  0  0  0  0  0  0  0  0
   -1.6860   -2.0850    1.1196 C   0  0  0  0  0  0  0  0  0  0  0  0
   -0.7540   -2.7700    1.5226 O   0  0  0  0  0  0  0  0  0  0  0  0
   -1.5320   -0.8490    0.6496 N   0  0  0  0  0  0  0  0  0  0  0  0
   -2.3500   -0.3360    0.3566 H   0  0  0  0  0  0  0  0  0  0  0  0
   -0.2470   -0.1410    0.5576 C   0  0  1  0  0  0  0  0  0  0  0  0
    0.4572   -0.6505    1.2162 H   0  0  0  0  0  0  0  0  0  0  0  0
    0.3091   -0.2220   -0.8868 C   0  0  1  0  0  0  0  0  0  0  0  0
   -0.3126    0.4260   -1.5077 H   0  0  0  0  0  0  0  0  0  0  0  0
    1.7607    0.2844   -0.9877 C   0  0  0  0  0  0  0  0  0  0  0  0
    2.4368   -0.3770   -0.4429 H   0  0  0  0  0  0  0  0  0  0  0  0
    2.0730    0.3323   -2.0297 H   0  0  0  0  0  0  0  0  0  0  0  0
    1.8391    1.2888   -0.5702 H   0  0  0  0  0  0  0  0  0  0  0  0
    0.1844   -1.6559   -1.4490 C   0  0  0  0  0  0  0  0  0  0  0  0
   -0.0522   -2.3522   -0.6434 H   0  0  0  0  0  0  0  0  0  0  0  0
   -0.6311   -1.6794   -2.1718 H   0  0  0  0  0  0  0  0  0  0  0  0
    1.4474   -2.1492   -2.1677 C   0  0  0  0  0  0  0  0  0  0  0  0
    2.2738   -2.2480   -1.4641 H   0  0  0  0  0  0  0  0  0  0  0  0
    1.2507   -3.1258   -2.6107 H   0  0  0  0  0  0  0  0  0  0  0  0
    1.7236   -1.4508   -2.9585 H   0  0  0  0  0  0  0  0  0  0  0  0
   -0.3971    1.3008    1.0689 C   0  0  0  0  0  0  0  0  0  0  0  0
   -1.3643    1.9819    0.7311 O   0  0  0  0  0  0  0  0  0  0  0  0
    0.5522    1.7647    1.8915 N   0  0  0  0  0  0  0  0  0  0  0  0
    1.3093    1.1450    2.1332 H   0  0  0  0  0  0  0  0  0  0  0  0
    0.5577    3.1119    2.4582 C   0  0  0  0  0  0  0  0  0  0  0  0
   -0.3986    3.3098    2.9475 H   0  0  0  0  0  0  0  0  0  0  0  0
    1.3619    3.2123    3.1886 H   0  0  0  0  0  0  0  0  0  0  0  0
    0.6974    3.8450    1.6614 H   0  0  0  0  0  0  0  0  0  0  0  0
  5  6  2  0  0  0  0
  5  7  1  0  0  0  0
  2  3  1  0  0  0  0
  2  4  1  0  0  0  0
  2  5  1  0  0  0  0
  1  2  1  0  0  0  0
 24 25  2  0  0  0  0
 24 26  1  0  0  0  0
 20 21  1  0  0  0  0
 20 22  1  0  0  0  0
 20 23  1  0  0  0  0
 17 18  1  0  0  0  0
 17 19  1  0  0  0  0
 17 20  1  0  0  0  0
 13 14  1  0  0  0  0
 13 15  1  0  0  0  0
 13 16  1  0  0  0  0
 11 12  1  0  0  0  0
 11 13  1  0  0  0  0
 11 17  1  0  0  0  0
  9 10  1  0  0  0  0
  9 11  1  0  0  0  0
  9 24  1  0  0  0  0
  7  8  1  0  0  0  0
  7  9  1  0  0  0  0
 28 29  1  0  0  0  0
 28 30  1  0  0  0  0
 28 31  1  0  0  0  0
 26 27  1  0  0  0  0
 26 28  1  0  0  0  0
M  END
$$$$
default_name
  -OEChem-02102213163D

 31 30  0     1  0  0  0  0  0999 V2000
   -3.0760   -3.6390    1.5496 H   0  0  0  0  0  0  0  0  0  0  0  0
   -3.0940   -2.6290    1.1426 C   0  0  0  0  0  0  0  0  0  0  0  0
   -3.7160   -1.9930    1.7706 H   0  0  0  0  0  0  0  0  0  0  0  0
   -3.4880   -2.6500    0.1286 H   0  0  0  0  0  0  0  0  0  0  0  0
   -1.6860   -2.0850    1.1196 C   0  0  0  0  0  0  0  0  0  0  0  0
   -0.7540   -2.7700    1.5226 O   0  0  0  0  0  0  0  0  0  0  0  0
   -1.5320   -0.8490    0.6496 N   0  0  0  0  0  0  0  0  0  0  0  0
   -2.3500   -0.3360    0.3566 H   0  0  0  0  0  0  0  0  0  0  0  0
   -0.2470   -0.1410    0.5576 C   0  0  1  0  0  0  0  0  0  0  0  0
    0.4572   -0.6505    1.2162 H   0  0  0  0  0  0  0  0  0  0  0  0
    0.3091   -0.2220   -0.8868 C   0  0  1  0  0  0  0  0  0  0  0  0
   -0.3126    0.4260   -1.5077 H   0  0  0  0  0  0  0  0  0  0  0  0
    1.7607    0.2844   -0.9877 C   0  0  0  0  0  0  0  0  0  0  0  0
    2.4368   -0.3770   -0.4429 H   0  0  0  0  0  0  0  0  0  0  0  0
    2.0730    0.3323   -2.0297 H   0  0  0  0  0  0  0  0  0  0  0  0
    1.8391    1.2888   -0.5702 H   0  0  0  0  0  0  0  0  0  0  0  0
    0.1844   -1.6559   -1.4490 C   0  0  0  0  0  0  0  0  0  0  0  0
   -0.3042   -2.3011   -0.7177 H   0  0  0  0  0  0  0  0  0  0  0  0
   -0.4329   -1.6280   -2.3469 H   0  0  0  0  0  0  0  0  0  0  0  0
    1.5289   -2.2859   -1.8372 C   0  0  0  0  0  0  0  0  0  0  0  0
    2.1494   -2.4371   -0.9541 H   0  0  0  0  0  0  0  0  0  0  0  0
    1.3503   -3.2542   -2.3054 H   0  0  0  0  0  0  0  0  0  0  0  0
    2.0523   -1.6417   -2.5445 H   0  0  0  0  0  0  0  0  0  0  0  0
   -0.3971    1.3008    1.0689 C   0  0  0  0  0  0  0  0  0  0  0  0
   -1.3643    1.9819    0.7311 O   0  0  0  0  0  0  0  0  0  0  0  0
    0.5522    1.7647    1.8915 N   0  0  0  0  0  0  0  0  0  0  0  0
    1.3093    1.1450    2.1332 H   0  0  0  0  0  0  0  0  0  0  0  0
    0.5577    3.1119    2.4582 C   0  0  0  0  0  0  0  0  0  0  0  0
   -0.3986    3.3098    2.9475 H   0  0  0  0  0  0  0  0  0  0  0  0
    1.3619    3.2123    3.1886 H   0  0  0  0  0  0  0  0  0  0  0  0
    0.6974    3.8450    1.6614 H   0  0  0  0  0  0  0  0  0  0  0  0
  5  6  2  0  0  0  0
  5  7  1  0  0  0  0
  2  3  1  0  0  0  0
  2  4  1  0  0  0  0
  2  5  1  0  0  0  0
  1  2  1  0  0  0  0
 24 25  2  0  0  0  0
 24 26  1  0  0  0  0
 20 21  1  0  0  0  0
 20 22  1  0  0  0  0
 20 23  1  0  0  0  0
 17 18  1  0  0  0  0
 17 19  1  0  0  0  0
 17 20  1  0  0  0  0
 13 14  1  0  0  0  0
 13 15  1  0  0  0  0
 13 16  1  0  0  0  0
 11 12  1  0  0  0  0
 11 13  1  0  0  0  0
 11 17  1  0  0  0  0
  9 10  1  0  0  0  0
  9 11  1  0  0  0  0
  9 24  1  0  0  0  0
  7  8  1  0  0  0  0
  7  9  1  0  0  0  0
 28 29  1  0  0  0  0
 28 30  1  0  0  0  0
 28 31  1  0  0  0  0
 26 27  1  0  0  0  0
 26 28  1  0  0  0  0
M  END
$$$$
default_name
  -OEChem-02102213163D

 31 30  0     1  0  0  0  0  0999 V2000
   -3.0760   -3.6390    1.5496 H   0  0  0  0  0  0  0  0  0  0  0  0
   -3.0940   -2.6290    1.1426 C   0  0  0  0  0  0  0  0  0  0  0  0
   -3.7160   -1.9930    1.7706 H   0  0  0  0  0  0  0  0  0  0  0  0
   -3.4880   -2.6500    0.1286 H   0  0  0  0  0  0  0  0  0  0  0  0
   -1.6860   -2.0850    1.1196 C   0  0  0  0  0  0  0  0  0  0  0  0
   -0.7540   -2.7700    1.5226 O   0  0  0  0  0  0  0  0  0  0  0  0
   -1.5320   -0.8490    0.6496 N   0  0  0  0  0  0  0  0  0  0  0  0
   -2.3500   -0.3360    0.3566 H   0  0  0  0  0  0  0  0  0  0  0  0
   -0.2470   -0.1410    0.5576 C   0  0  1  0  0  0  0  0  0  0  0  0
    0.4572   -0.6505    1.2162 H   0  0  0  0  0  0  0  0  0  0  0  0
    0.3091   -0.2220   -0.8868 C   0  0  1  0  0  0  0  0  0  0  0  0
   -0.3126    0.4260   -1.5077 H   0  0  0  0  0  0  0  0  0  0  0  0
    1.7607    0.2844   -0.9877 C   0  0  0  0  0  0  0  0  0  0  0  0
    2.4368   -0.3770   -0.4429 H   0  0  0  0  0  0  0  0  0  0  0  0
    2.0730    0.3323   -2.0297 H   0  0  0  0  0  0  0  0  0  0  0  0
    1.8391    1.2888   -0.5702 H   0  0  0  0  0  0  0  0  0  0  0  0
    0.1844   -1.6559   -1.4490 C   0  0  0  0  0  0  0  0  0  0  0  0
   -0.5250   -2.2296   -0.8511 H   0  0  0  0  0  0  0  0  0  0  0  0
   -0.1945   -1.6006   -2.4695 H   0  0  0  0  0  0  0  0  0  0  0  0
    1.5153   -2.4187   -1.4956 C   0  0  0  0  0  0  0  0  0  0  0  0
    1.8889   -2.5974   -0.4875 H   0  0  0  0  0  0  0  0  0  0  0  0
    1.3610   -3.3812   -1.9838 H   0  0  0  0  0  0  0  0  0  0  0  0
    2.2525   -1.8484   -2.0618 H   0  0  0  0  0  0  0  0  0  0  0  0
   -0.3971    1.3008    1.0689 C   0  0  0  0  0  0  0  0  0  0  0  0
   -1.3643    1.9819    0.7311 O   0  0  0  0  0  0  0  0  0  0  0  0
    0.5522    1.7647    1.8915 N   0  0  0  0  0  0  0  0  0  0  0  0
    1.3093    1.1450    2.1332 H   0  0  0  0  0  0  0  0  0  0  0  0
    0.5577    3.1119    2.4582 C   0  0  0  0  0  0  0  0  0  0  0  0
   -0.3986    3.3098    2.9475 H   0  0  0  0  0  0  0  0  0  0  0  0
    1.3619    3.2123    3.1886 H   0  0  0  0  0  0  0  0  0  0  0  0
    0.6974    3.8450    1.6614 H   0  0  0  0  0  0  0  0  0  0  0  0
  5  6  2  0  0  0  0
  5  7  1  0  0  0  0
  2  3  1  0  0  0  0
  2  4  1  0  0  0  0
  2  5  1  0  0  0  0
  1  2  1  0  0  0  0
 24 25  2  0  0  0  0
 24 26  1  0  0  0  0
 20 21  1  0  0  0  0
 20 22  1  0  0  0  0
 20 23  1  0  0  0  0
 17 18  1  0  0  0  0
 17 19  1  0  0  0  0
 17 20  1  0  0  0  0
 13 14  1  0  0  0  0
 13 15  1  0  0  0  0
 13 16  1  0  0  0  0
 11 12  1  0  0  0  0
 11 13  1  0  0  0  0
 11 17  1  0  0  0  0
  9 10  1  0  0  0  0
  9 11  1  0  0  0  0
  9 24  1  0  0  0  0
  7  8  1  0  0  0  0
  7  9  1  0  0  0  0
 28 29  1  0  0  0  0
 28 30  1  0  0  0  0
 28 31  1  0  0  0  0
 26 27  1  0  0  0  0
 26 28  1  0  0  0  0
M  END
$$$$
default_name
  -OEChem-02102213163D

 31 30  0     1  0  0  0  0  0999 V2000
   -3.0760   -3.6390    1.5496 H   0  0  0  0  0  0  0  0  0  0  0  0
   -3.0940   -2.6290    1.1426 C   0  0  0  0  0  0  0  0  0  0  0  0
   -3.7160   -1.9930    1.7706 H   0  0  0  0  0  0  0  0  0  0  0  0
   -3.4880   -2.6500    0.1286 H   0  0  0  0  0  0  0  0  0  0  0  0
   -1.6860   -2.0850    1.1196 C   0  0  0  0  0  0  0  0  0  0  0  0
   -0.7540   -2.7700    1.5226 O   0  0  0  0  0  0  0  0  0  0  0  0
   -1.5320   -0.8490    0.6496 N   0  0  0  0  0  0  0  0  0  0  0  0
   -2.3500   -0.3360    0.3566 H   0  0  0  0  0  0  0  0  0  0  0  0
   -0.2470   -0.1410    0.5576 C   0  0  1  0  0  0  0  0  0  0  0  0
    0.4572   -0.6505    1.2162 H   0  0  0  0  0  0  0  0  0  0  0  0
    0.3091   -0.2220   -0.8868 C   0  0  1  0  0  0  0  0  0  0  0  0
   -0.3126    0.4260   -1.5077 H   0  0  0  0  0  0  0  0  0  0  0  0
    1.7607    0.2844   -0.9877 C   0  0  0  0  0  0  0  0  0  0  0  0
    2.4368   -0.3770   -0.4429 H   0  0  0  0  0  0  0  0  0  0  0  0
    2.0730    0.3323   -2.0297 H   0  0  0  0  0  0  0  0  0  0  0  0
    1.8391    1.2888   -0.5702 H   0  0  0  0  0  0  0  0  0  0  0  0
    0.1844   -1.6559   -1.4490 C   0  0  0  0  0  0  0  0  0  0  0  0
   -0.6995   -2.1425   -1.0345 H   0  0  0  0  0  0  0  0  0  0  0  0
    0.0677   -1.5993   -2.5312 H   0  0  0  0  0  0  0  0  0  0  0  0
    1.4076   -2.5385   -1.1661 C   0  0  0  0  0  0  0  0  0  0  0  0
    1.5102   -2.7179   -0.0960 H   0  0  0  0  0  0  0  0  0  0  0  0
    1.2822   -3.4981   -1.6680 H   0  0  0  0  0  0  0  0  0  0  0  0
    2.3104   -2.0568   -1.5431 H   0  0  0  0  0  0  0  0  0  0  0  0
   -0.3971    1.3008    1.0689 C   0  0  0  0  0  0  0  0  0  0  0  0
   -1.3643    1.9819    0.7311 O   0  0  0  0  0  0  0  0  0  0  0  0
    0.5522    1.7647    1.8915 N   0  0  0  0  0  0  0  0  0  0  0  0
    1.3093    1.1450    2.1332 H   0  0  0  0  0  0  0  0  0  0  0  0
    0.5577    3.1119    2.4582 C   0  0  0  0  0  0  0  0  0  0  0  0
   -0.3986    3.3098    2.9475 H   0  0  0  0  0  0  0  0  0  0  0  0
    1.3619    3.2123    3.1886 H   0  0  0  0  0  0  0  0  0  0  0  0
    0.6974    3.8450    1.6614 H   0  0  0  0  0  0  0  0  0  0  0  0
  5  6  2  0  0  0  0
  5  7  1  0  0  0  0
  2  3  1  0  0  0  0
  2  4  1  0  0  0  0
  2  5  1  0  0  0  0
  1  2  1  0  0  0  0
 24 25  2  0  0  0  0
 24 26  1  0  0  0  0
 20 21  1  0  0  0  0
 20 22  1  0  0  0  0
 20 23  1  0  0  0  0
 17 18  1  0  0  0  0
 17 19  1  0  0  0  0
 17 20  1  0  0  0  0
 13 14  1  0  0  0  0
 13 15  1  0  0  0  0
 13 16  1  0  0  0  0
 11 12  1  0  0  0  0
 11 13  1  0  0  0  0
 11 17  1  0  0  0  0
  9 10  1  0  0  0  0
  9 11  1  0  0  0  0
  9 24  1  0  0  0  0
  7  8  1  0  0  0  0
  7  9  1  0  0  0  0
 28 29  1  0  0  0  0
 28 30  1  0  0  0  0
 28 31  1  0  0  0  0
 26 27  1  0  0  0  0
 26 28  1  0  0  0  0
M  END
$$$$
default_name
  -OEChem-02102213163D

 31 30  0     1  0  0  0  0  0999 V2000
   -3.0760   -3.6390    1.5496 H   0  0  0  0  0  0  0  0  0  0  0  0
   -3.0940   -2.6290    1.1426 C   0  0  0  0  0  0  0  0  0  0  0  0
   -3.7160   -1.9930    1.7706 H   0  0  0  0  0  0  0  0  0  0  0  0
   -3.4880   -2.6500    0.1286 H   0  0  0  0  0  0  0  0  0  0  0  0
   -1.6860   -2.0850    1.1196 C   0  0  0  0  0  0  0  0  0  0  0  0
   -0.7540   -2.7700    1.5226 O   0  0  0  0  0  0  0  0  0  0  0  0
   -1.5320   -0.8490    0.6496 N   0  0  0  0  0  0  0  0  0  0  0  0
   -2.3500   -0.3360    0.3566 H   0  0  0  0  0  0  0  0  0  0  0  0
   -0.2470   -0.1410    0.5576 C   0  0  1  0  0  0  0  0  0  0  0  0
    0.4572   -0.6505    1.2162 H   0  0  0  0  0  0  0  0  0  0  0  0
    0.3091   -0.2220   -0.8868 C   0  0  1  0  0  0  0  0  0  0  0  0
   -0.3126    0.4260   -1.5077 H   0  0  0  0  0  0  0  0  0  0  0  0
    1.7607    0.2844   -0.9877 C   0  0  0  0  0  0  0  0  0  0  0  0
    2.4368   -0.3770   -0.4429 H   0  0  0  0  0  0  0  0  0  0  0  0
    2.0730    0.3323   -2.0297 H   0  0  0  0  0  0  0  0  0  0  0  0
    1.8391    1.2888   -0.5702 H   0  0  0  0  0  0  0  0  0  0  0  0
    0.1844   -1.6559   -1.4490 C   0  0  0  0  0  0  0  0  0  0  0  0
   -0.8158   -2.0458   -1.2553 H   0  0  0  0  0  0  0  0  0  0  0  0
    0.3360   -1.6239   -2.5279 H   0  0  0  0  0  0  0  0  0  0  0  0
    1.2131   -2.6372   -0.8712 C   0  0  0  0  0  0  0  0  0  0  0  0
    1.0390   -2.7905    0.1937 H   0  0  0  0  0  0  0  0  0  0  0  0
    1.1193   -3.5971   -1.3795 H   0  0  0  0  0  0  0  0  0  0  0  0
    2.2222   -2.2527   -1.0238 H   0  0  0  0  0  0  0  0  0  0  0  0
   -0.3971    1.3008    1.0689 C   0  0  0  0  0  0  0  0  0  0  0  0
   -1.3643    1.9819    0.7311 O   0  0  0  0  0  0  0  0  0  0  0  0
    0.5522    1.7647    1.8915 N   0  0  0  0  0  0  0  0  0  0  0  0
    1.3093    1.1450    2.1332 H   0  0  0  0  0  0  0  0  0  0  0  0
    0.5577    3.1119    2.4582 C   0  0  0  0  0  0  0  0  0  0  0  0
   -0.3986    3.3098    2.9475 H   0  0  0  0  0  0  0  0  0  0  0  0
    1.3619    3.2123    3.1886 H   0  0  0  0  0  0  0  0  0  0  0  0
    0.6974    3.8450    1.6614 H   0  0  0  0  0  0  0  0  0  0  0  0
  5  6  2  0  0  0  0
  5  7  1  0  0  0  0
  2  3  1  0  0  0  0
  2  4  1  0  0  0  0
  2  5  1  0  0  0  0
  1  2  1  0  0  0  0
 24 25  2  0  0  0  0
 24 26  1  0  0  0  0
 20 21  1  0  0  0  0
 20 22  1  0  0  0  0
 20 23  1  0  0  0  0
 17 18  1  0  0  0  0
 17 19  1  0  0  0  0
 17 20  1  0  0  0  0
 13 14  1  0  0  0  0
 13 15  1  0  0  0  0
 13 16  1  0  0  0  0
 11 12  1  0  0  0  0
 11 13  1  0  0  0  0
 11 17  1  0  0  0  0
  9 10  1  0  0  0  0
  9 11  1  0  0  0  0
  9 24  1  0  0  0  0
  7  8  1  0  0  0  0
  7  9  1  0  0  0  0
 28 29  1  0  0  0  0
 28 30  1  0  0  0  0
 28 31  1  0  0  0  0
 26 27  1  0  0  0  0
 26 28  1  0  0  0  0
M  END
$$$$
default_name
  -OEChem-02102213163D

 31 30  0     1  0  0  0  0  0999 V2000
   -3.0760   -3.6390    1.5496 H   0  0  0  0  0  0  0  0  0  0  0  0
   -3.0940   -2.6290    1.1426 C   0  0  0  0  0  0  0  0  0  0  0  0
   -3.7160   -1.9930    1.7706 H   0  0  0  0  0  0  0  0  0  0  0  0
   -3.4880   -2.6500    0.1286 H   0  0  0  0  0  0  0  0  0  0  0  0
   -1.6860   -2.0850    1.1196 C   0  0  0  0  0  0  0  0  0  0  0  0
   -0.7540   -2.7700    1.5226 O   0  0  0  0  0  0  0  0  0  0  0  0
   -1.5320   -0.8490    0.6496 N   0  0  0  0  0  0  0  0  0  0  0  0
   -2.3500   -0.3360    0.3566 H   0  0  0  0  0  0  0  0  0  0  0  0
   -0.2470   -0.1410    0.5576 C   0  0  1  0  0  0  0  0  0  0  0  0
    0.4572   -0.6505    1.2162 H   0  0  0  0  0  0  0  0  0  0  0  0
    0.3091   -0.2220   -0.8868 C   0  0  1  0  0  0  0  0  0  0  0  0
   -0.3126    0.4260   -1.5077 H   0  0  0  0  0  0  0  0  0  0  0  0
    1.7607    0.2844   -0.9877 C   0  0  0  0  0  0  0  0  0  0  0  0
    2.4368   -0.3770   -0.4429 H   0  0  0  0  0  0  0  0  0  0  0  0
    2.0730    0.3323   -2.0297 H   0  0  0  0  0  0  0  0  0  0  0  0
    1.8391    1.2888   -0.5702 H   0  0  0  0  0  0  0  0  0  0  0  0
    0.1844   -1.6559   -1.4490 C   0  0  0  0  0  0  0  0  0  0  0  0
   -0.8659   -1.9461   -1.4986 H   0  0  0  0  0  0  0  0  0  0  0  0
    0.5920   -1.6729   -2.4598 H   0  0  0  0  0  0  0  0  0  0  0  0
    0.9452   -2.7081   -0.6309 C   0  0  0  0  0  0  0  0  0  0  0  0
    0.5074   -2.8102    0.3619 H   0  0  0  0  0  0  0  0  0  0  0  0
    0.8832   -3.6713   -1.1378 H   0  0  0  0  0  0  0  0  0  0  0  0
    1.9938   -2.4228   -0.5393 H   0  0  0  0  0  0  0  0  0  0  0  0
   -0.3971    1.3008    1.0689 C   0  0  0  0  0  0  0  0  0  0  0  0
   -1.3643    1.9819    0.7311 O   0  0  0  0  0  0  0  0  0  0  0  0
    0.5522    1.7647    1.8915 N   0  0  0  0  0  0  0  0  0  0  0  0
    1.3093    1.1450    2.1332 H   0  0  0  0  0  0  0  0  0  0  0  0
    0.5577    3.1119    2.4582 C   0  0  0  0  0  0  0  0  0  0  0  0
   -0.3986    3.3098    2.9475 H   0  0  0  0  0  0  0  0  0  0  0  0
    1.3619    3.2123    3.1886 H   0  0  0  0  0  0  0  0  0  0  0  0
    0.6974    3.8450    1.6614 H   0  0  0  0  0  0  0  0  0  0  0  0
  5  6  2  0  0  0  0
  5  7  1  0  0  0  0
  2  3  1  0  0  0  0
  2  4  1  0  0  0  0
  2  5  1  0  0  0  0
  1  2  1  0  0  0  0
 24 25  2  0  0  0  0
 24 26  1  0  0  0  0
 20 21  1  0  0  0  0
 20 22  1  0  0  0  0
 20 23  1  0  0  0  0
 17 18  1  0  0  0  0
 17 19  1  0  0  0  0
 17 20  1  0  0  0  0
 13 14  1  0  0  0  0
 13 15  1  0  0  0  0
 13 16  1  0  0  0  0
 11 12  1  0  0  0  0
 11 13  1  0  0  0  0
 11 17  1  0  0  0  0
  9 10  1  0  0  0  0
  9 11  1  0  0  0  0
  9 24  1  0  0  0  0
  7  8  1  0  0  0  0
  7  9  1  0  0  0  0
 28 29  1  0  0  0  0
 28 30  1  0  0  0  0
 28 31  1  0  0  0  0
 26 27  1  0  0  0  0
 26 28  1  0  0  0  0
M  END
$$$$
default_name
  -OEChem-02102213163D

 31 30  0     1  0  0  0  0  0999 V2000
   -3.0760   -3.6390    1.5496 H   0  0  0  0  0  0  0  0  0  0  0  0
   -3.0940   -2.6290    1.1426 C   0  0  0  0  0  0  0  0  0  0  0  0
   -3.7160   -1.9930    1.7706 H   0  0  0  0  0  0  0  0  0  0  0  0
   -3.4880   -2.6500    0.1286 H   0  0  0  0  0  0  0  0  0  0  0  0
   -1.6860   -2.0850    1.1196 C   0  0  0  0  0  0  0  0  0  0  0  0
   -0.7540   -2.7700    1.5226 O   0  0  0  0  0  0  0  0  0  0  0  0
   -1.5320   -0.8490    0.6496 N   0  0  0  0  0  0  0  0  0  0  0  0
   -2.3500   -0.3360    0.3566 H   0  0  0  0  0  0  0  0  0  0  0  0
   -0.2470   -0.1410    0.5576 C   0  0  1  0  0  0  0  0  0  0  0  0
    0.4572   -0.6505    1.2162 H   0  0  0  0  0  0  0  0  0  0  0  0
    0.3091   -0.2220   -0.8868 C   0  0  1  0  0  0  0  0  0  0  0  0
   -0.3126    0.4260   -1.5077 H   0  0  0  0  0  0  0  0  0  0  0  0
    1.7607    0.2844   -0.9877 C   0  0  0  0  0  0  0  0  0  0  0  0
    2.4368   -0.3770   -0.4429 H   0  0  0  0  0  0  0  0  0  0  0  0
    2.0730    0.3323   -2.0297 H   0  0  0  0  0  0  0  0  0  0  0  0
    1.8391    1.2888   -0.5702 H   0  0  0  0  0  0  0  0  0  0  0  0
    0.1844   -1.6559   -1.4490 C   0  0  0  0  0  0  0  0  0  0  0  0
   -0.8466   -1.8501   -1.7477 H   0  0  0  0  0  0  0  0  0  0  0  0
    0.8183   -1.7429   -2.3314 H   0  0  0  0  0  0  0  0  0  0  0  0
    0.6220   -2.7463   -0.4617 C   0  0  0  0  0  0  0  0  0  0  0  0
   -0.0483   -2.7757    0.3971 H   0  0  0  0  0  0  0  0  0  0  0  0
    0.5902   -3.7157   -0.9596 H   0  0  0  0  0  0  0  0  0  0  0  0
    1.6407   -2.5554   -0.1226 H   0  0  0  0  0  0  0  0  0  0  0  0
   -0.3971    1.3008    1.0689 C   0  0  0  0  0  0  0  0  0  0  0  0
   -1.3643    1.9819    0.7311 O   0  0  0  0  0  0  0  0  0  0  0  0
    0.5522    1.7647    1.8915 N   0  0  0  0  0  0  0  0  0  0  0  0
    1.3093    1.1450    2.1332 H   0  0  0  0  0  0  0  0  0  0  0  0
    0.5577    3.1119    2.4582 C   0  0  0  0  0  0  0  0  0  0  0  0
   -0.3986    3.3098    2.9475 H   0  0  0  0  0  0  0  0  0  0  0  0
    1.3619    3.2123    3.1886 H   0  0  0  0  0  0  0  0  0  0  0  0
    0.6974    3.8450    1.6614 H   0  0  0  0  0  0  0  0  0  0  0  0
  5  6  2  0  0  0  0
  5  7  1  0  0  0  0
  2  3  1  0  0  0  0
  2  4  1  0  0  0  0
  2  5  1  0  0  0  0
  1  2  1  0  0  0  0
 24 25  2  0  0  0  0
 24 26  1  0  0  0  0
 20 21  1  0  0  0  0
 20 22  1  0  0  0  0
 20 23  1  0  0  0  0
 17 18  1  0  0  0  0
 17 19  1  0  0  0  0
 17 20  1  0  0  0  0
 13 14  1  0  0  0  0
 13 15  1  0  0  0  0
 13 16  1  0  0  0  0
 11 12  1  0  0  0  0
 11 13  1  0  0  0  0
 11 17  1  0  0  0  0
  9 10  1  0  0  0  0
  9 11  1  0  0  0  0
  9 24  1  0  0  0  0
  7  8  1  0  0  0  0
  7  9  1  0  0  0  0
 28 29  1  0  0  0  0
 28 30  1  0  0  0  0
 28 31  1  0  0  0  0
 26 27  1  0  0  0  0
 26 28  1  0  0  0  0
M  END
$$$$
default_name
  -OEChem-02102213163D

 31 30  0     1  0  0  0  0  0999 V2000
   -3.0760   -3.6390    1.5496 H   0  0  0  0  0  0  0  0  0  0  0  0
   -3.0940   -2.6290    1.1426 C   0  0  0  0  0  0  0  0  0  0  0  0
   -3.7160   -1.9930    1.7706 H   0  0  0  0  0  0  0  0  0  0  0  0
   -3.4880   -2.6500    0.1286 H   0  0  0  0  0  0  0  0  0  0  0  0
   -1.6860   -2.0850    1.1196 C   0  0  0  0  0  0  0  0  0  0  0  0
   -0.7540   -2.7700    1.5226 O   0  0  0  0  0  0  0  0  0  0  0  0
   -1.5320   -0.8490    0.6496 N   0  0  0  0  0  0  0  0  0  0  0  0
   -2.3500   -0.3360    0.3566 H   0  0  0  0  0  0  0  0  0  0  0  0
   -0.2470   -0.1410    0.5576 C   0  0  1  0  0  0  0  0  0  0  0  0
    0.4572   -0.6505    1.2162 H   0  0  0  0  0  0  0  0  0  0  0  0
    0.3091   -0.2220   -0.8868 C   0  0  1  0  0  0  0  0  0  0  0  0
   -0.3126    0.4260   -1.5077 H   0  0  0  0  0  0  0  0  0  0  0  0
    1.7607    0.2844   -0.9877 C   0  0  0  0  0  0  0  0  0  0  0  0
    2.4368   -0.3770   -0.4429 H   0  0  0  0  0  0  0  0  0  0  0  0
    2.0730    0.3323   -2.0297 H   0  0  0  0  0  0  0  0  0  0  0  0
    1.8391    1.2888   -0.5702 H   0  0  0  0  0  0  0  0  0  0  0  0
    0.1844   -1.6559   -1.4490 C   0  0  0  0  0  0  0  0  0  0  0  0
   -0.7591   -1.7644   -1.9857 H   0  0  0  0  0  0  0  0  0  0  0  0
    0.9994   -1.8292   -2.1516 H   0  0  0  0  0  0  0  0  0  0  0  0
    0.2656   -2.7492   -0.3751 C   0  0  0  0  0  0  0  0  0  0  0  0
   -0.5903   -2.6893    0.2969 H   0  0  0  0  0  0  0  0  0  0  0  0
    0.2602   -3.7273   -0.8568 H   0  0  0  0  0  0  0  0  0  0  0  0
    1.1872   -2.6416    0.1979 H   0  0  0  0  0  0  0  0  0  0  0  0
   -0.3971    1.3008    1.0689 C   0  0  0  0  0  0  0  0  0  0  0  0
   -1.3643    1.9819    0.7311 O   0  0  0  0  0  0  0  0  0  0  0  0
    0.5522    1.7647    1.8915 N   0  0  0  0  0  0  0  0  0  0  0  0
    1.3093    1.1450    2.1332 H   0  0  0  0  0  0  0  0  0  0  0  0
    0.5577    3.1119    2.4582 C   0  0  0  0  0  0  0  0  0  0  0  0
   -0.3986    3.3098    2.9475 H   0  0  0  0  0  0  0  0  0  0  0  0
    1.3619    3.2123    3.1886 H   0  0  0  0  0  0  0  0  0  0  0  0
    0.6974    3.8450    1.6614 H   0  0  0  0  0  0  0  0  0  0  0  0
  5  6  2  0  0  0  0
  5  7  1  0  0  0  0
  2  3  1  0  0  0  0
  2  4  1  0  0  0  0
  2  5  1  0  0  0  0
  1  2  1  0  0  0  0
 24 25  2  0  0  0  0
 24 26  1  0  0  0  0
 20 21  1  0  0  0  0
 20 22  1  0  0  0  0
 20 23  1  0  0  0  0
 17 18  1  0  0  0  0
 17 19  1  0  0  0  0
 17 20  1  0  0  0  0
 13 14  1  0  0  0  0
 13 15  1  0  0  0  0
 13 16  1  0  0  0  0
 11 12  1  0  0  0  0
 11 13  1  0  0  0  0
 11 17  1  0  0  0  0
  9 10  1  0  0  0  0
  9 11  1  0  0  0  0
  9 24  1  0  0  0  0
  7  8  1  0  0  0  0
  7  9  1  0  0  0  0
 28 29  1  0  0  0  0
 28 30  1  0  0  0  0
 28 31  1  0  0  0  0
 26 27  1  0  0  0  0
 26 28  1  0  0  0  0
M  END
$$$$
default_name
  -OEChem-02102213163D

 31 30  0     1  0  0  0  0  0999 V2000
   -3.0760   -3.6390    1.5496 H   0  0  0  0  0  0  0  0  0  0  0  0
   -3.0940   -2.6290    1.1426 C   0  0  0  0  0  0  0  0  0  0  0  0
   -3.7160   -1.9930    1.7706 H   0  0  0  0  0  0  0  0  0  0  0  0
   -3.4880   -2.6500    0.1286 H   0  0  0  0  0  0  0  0  0  0  0  0
   -1.6860   -2.0850    1.1196 C   0  0  0  0  0  0  0  0  0  0  0  0
   -0.7540   -2.7700    1.5226 O   0  0  0  0  0  0  0  0  0  0  0  0
   -1.5320   -0.8490    0.6496 N   0  0  0  0  0  0  0  0  0  0  0  0
   -2.3500   -0.3360    0.3566 H   0  0  0  0  0  0  0  0  0  0  0  0
   -0.2470   -0.1410    0.5576 C   0  0  1  0  0  0  0  0  0  0  0  0
    0.4572   -0.6505    1.2162 H   0  0  0  0  0  0  0  0  0  0  0  0
    0.3091   -0.2220   -0.8868 C   0  0  1  0  0  0  0  0  0  0  0  0
   -0.3126    0.4260   -1.5077 H   0  0  0  0  0  0  0  0  0  0  0  0
    1.7607    0.2844   -0.9877 C   0  0  0  0  0  0  0  0  0  0  0  0
    2.4368   -0.3770   -0.4429 H   0  0  0  0  0  0  0  0  0  0  0  0
    2.0730    0.3323   -2.0297 H   0  0  0  0  0  0  0  0  0  0  0  0
    1.8391    1.2888   -0.5702 H   0  0  0  0  0  0  0  0  0  0  0  0
    0.1844   -1.6559   -1.4490 C   0  0  0  0  0  0  0  0  0  0  0  0
   -0.6093   -1.6948   -2.1963 H   0  0  0  0  0  0  0  0  0  0  0  0
    1.1231   -1.9258   -1.9327 H   0  0  0  0  0  0  0  0  0  0  0  0
   -0.0998   -2.7167   -0.3770 C   0  0  0  0  0  0  0  0  0  0  0  0
   -1.0816   -2.5568    0.0682 H   0  0  0  0  0  0  0  0  0  0  0  0
   -0.0844   -3.7052   -0.8366 H   0  0  0  0  0  0  0  0  0  0  0  0
    0.6640   -2.6755    0.4003 H   0  0  0  0  0  0  0  0  0  0  0  0
   -0.3971    1.3008    1.0689 C   0  0  0  0  0  0  0  0  0  0  0  0
   -1.3643    1.9819    0.7311 O   0  0  0  0  0  0  0  0  0  0  0  0
    0.5522    1.7647    1.8915 N   0  0  0  0  0  0  0  0  0  0  0  0
    1.3093    1.1450    2.1332 H   0  0  0  0  0  0  0  0  0  0  0  0
    0.5577    3.1119    2.4582 C   0  0  0  0  0  0  0  0  0  0  0  0
   -0.3986    3.3098    2.9475 H   0  0  0  0  0  0  0  0  0  0  0  0
    1.3619    3.2123    3.1886 H   0  0  0  0  0  0  0  0  0  0  0  0
    0.6974    3.8450    1.6614 H   0  0  0  0  0  0  0  0  0  0  0  0
  5  6  2  0  0  0  0
  5  7  1  0  0  0  0
  2  3  1  0  0  0  0
  2  4  1  0  0  0  0
  2  5  1  0  0  0  0
  1  2  1  0  0  0  0
 24 25  2  0  0  0  0
 24 26  1  0  0  0  0
 20 21  1  0  0  0  0
 20 22  1  0  0  0  0
 20 23  1  0  0  0  0
 17 18  1  0  0  0  0
 17 19  1  0  0  0  0
 17 20  1  0  0  0  0
 13 14  1  0  0  0  0
 13 15  1  0  0  0  0
 13 16  1  0  0  0  0
 11 12  1  0  0  0  0
 11 13  1  0  0  0  0
 11 17  1  0  0  0  0
  9 10  1  0  0  0  0
  9 11  1  0  0  0  0
  9 24  1  0  0  0  0
  7  8  1  0  0  0  0
  7  9  1  0  0  0  0
 28 29  1  0  0  0  0
 28 30  1  0  0  0  0
 28 31  1  0  0  0  0
 26 27  1  0  0  0  0
 26 28  1  0  0  0  0
M  END
$$$$
default_name
  -OEChem-02102213163D

 31 30  0     1  0  0  0  0  0999 V2000
   -3.0760   -3.6390    1.5496 H   0  0  0  0  0  0  0  0  0  0  0  0
   -3.0940   -2.6290    1.1426 C   0  0  0  0  0  0  0  0  0  0  0  0
   -3.7160   -1.9930    1.7706 H   0  0  0  0  0  0  0  0  0  0  0  0
   -3.4880   -2.6500    0.1286 H   0  0  0  0  0  0  0  0  0  0  0  0
   -1.6860   -2.0850    1.1196 C   0  0  0  0  0  0  0  0  0  0  0  0
   -0.7540   -2.7700    1.5226 O   0  0  0  0  0  0  0  0  0  0  0  0
   -1.5320   -0.8490    0.6496 N   0  0  0  0  0  0  0  0  0  0  0  0
   -2.3500   -0.3360    0.3566 H   0  0  0  0  0  0  0  0  0  0  0  0
   -0.2470   -0.1410    0.5576 C   0  0  1  0  0  0  0  0  0  0  0  0
    0.4572   -0.6505    1.2162 H   0  0  0  0  0  0  0  0  0  0  0  0
    0.3091   -0.2220   -0.8868 C   0  0  1  0  0  0  0  0  0  0  0  0
   -0.3126    0.4260   -1.5077 H   0  0  0  0  0  0  0  0  0  0  0  0
    1.7607    0.2844   -0.9877 C   0  0  0  0  0  0  0  0  0  0  0  0
    2.4368   -0.3770   -0.4429 H   0  0  0  0  0  0  0  0  0  0  0  0
    2.0730    0.3323   -2.0297 H   0  0  0  0  0  0  0  0  0  0  0  0
    1.8391    1.2888   -0.5702 H   0  0  0  0  0  0  0  0  0  0  0  0
    0.1844   -1.6559   -1.4490 C   0  0  0  0  0  0  0  0  0  0  0  0
   -0.4074   -1.6462   -2.3653 H   0  0  0  0  0  0  0  0  0  0  0  0
    1.1809   -2.0262   -1.6894 H   0  0  0  0  0  0  0  0  0  0  0  0
   -0.4491   -2.6509   -0.4673 C   0  0  0  0  0  0  0  0  0  0  0  0
   -1.4888   -2.3874   -0.2735 H   0  0  0  0  0  0  0  0  0  0  0  0
   -0.4200   -3.6511   -0.9002 H   0  0  0  0  0  0  0  0  0  0  0  0
    0.1069   -2.6547    0.4709 H   0  0  0  0  0  0  0  0  0  0  0  0
   -0.3971    1.3008    1.0689 C   0  0  0  0  0  0  0  0  0  0  0  0
   -1.3643    1.9819    0.7311 O   0  0  0  0  0  0  0  0  0  0  0  0
    0.5522    1.7647    1.8915 N   0  0  0  0  0  0  0  0  0  0  0  0
    1.3093    1.1450    2.1332 H   0  0  0  0  0  0  0  0  0  0  0  0
    0.5577    3.1119    2.4582 C   0  0  0  0  0  0  0  0  0  0  0  0
   -0.3986    3.3098    2.9475 H   0  0  0  0  0  0  0  0  0  0  0  0
    1.3619    3.2123    3.1886 H   0  0  0  0  0  0  0  0  0  0  0  0
    0.6974    3.8450    1.6614 H   0  0  0  0  0  0  0  0  0  0  0  0
  5  6  2  0  0  0  0
  5  7  1  0  0  0  0
  2  3  1  0  0  0  0
  2  4  1  0  0  0  0
  2  5  1  0  0  0  0
  1  2  1  0  0  0  0
 24 25  2  0  0  0  0
 24 26  1  0  0  0  0
 20 21  1  0  0  0  0
 20 22  1  0  0  0  0
 20 23  1  0  0  0  0
 17 18  1  0  0  0  0
 17 19  1  0  0  0  0
 17 20  1  0  0  0  0
 13 14  1  0  0  0  0
 13 15  1  0  0  0  0
 13 16  1  0  0  0  0
 11 12  1  0  0  0  0
 11 13  1  0  0  0  0
 11 17  1  0  0  0  0
  9 10  1  0  0  0  0
  9 11  1  0  0  0  0
  9 24  1  0  0  0  0
  7  8  1  0  0  0  0
  7  9  1  0  0  0  0
 28 29  1  0  0  0  0
 28 30  1  0  0  0  0
 28 31  1  0  0  0  0
 26 27  1  0  0  0  0
 26 28  1  0  0  0  0
M  END
$$$$
default_name
  -OEChem-02102213163D

 31 30  0     1  0  0  0  0  0999 V2000
   -3.0760   -3.6390    1.5496 H   0  0  0  0  0  0  0  0  0  0  0  0
   -3.0940   -2.6290    1.1426 C   0  0  0  0  0  0  0  0  0  0  0  0
   -3.7160   -1.9930    1.7706 H   0  0  0  0  0  0  0  0  0  0  0  0
   -3.4880   -2.6500    0.1286 H   0  0  0  0  0  0  0  0  0  0  0  0
   -1.6860   -2.0850    1.1196 C   0  0  0  0  0  0  0  0  0  0  0  0
   -0.7540   -2.7700    1.5226 O   0  0  0  0  0  0  0  0  0  0  0  0
   -1.5320   -0.8490    0.6496 N   0  0  0  0  0  0  0  0  0  0  0  0
   -2.3500   -0.3360    0.3566 H   0  0  0  0  0  0  0  0  0  0  0  0
   -0.2470   -0.1410    0.5576 C   0  0  1  0  0  0  0  0  0  0  0  0
    0.4572   -0.6505    1.2162 H   0  0  0  0  0  0  0  0  0  0  0  0
    0.3091   -0.2220   -0.8868 C   0  0  1  0  0  0  0  0  0  0  0  0
   -0.3126    0.4260   -1.5077 H   0  0  0  0  0  0  0  0  0  0  0  0
    1.7607    0.2844   -0.9877 C   0  0  0  0  0  0  0  0  0  0  0  0
    2.4368   -0.3770   -0.4429 H   0  0  0  0  0  0  0  0  0  0  0  0
    2.0730    0.3323   -2.0297 H   0  0  0  0  0  0  0  0  0  0  0  0
    1.8391    1.2888   -0.5702 H   0  0  0  0  0  0  0  0  0  0  0  0
    0.1844   -1.6559   -1.4490 C   0  0  0  0  0  0  0  0  0  0  0  0
   -0.1673   -1.6217   -2.4810 H   0  0  0  0  0  0  0  0  0  0  0  0
    1.1689   -2.1235   -1.4385 H   0  0  0  0  0  0  0  0  0  0  0  0
   -0.7587   -2.5564   -0.6398 C   0  0  0  0  0  0  0  0  0  0  0  0
   -1.7840   -2.1926   -0.7049 H   0  0  0  0  0  0  0  0  0  0  0  0
   -0.7237   -3.5685   -1.0435 H   0  0  0  0  0  0  0  0  0  0  0  0
   -0.4463   -2.5806    0.4048 H   0  0  0  0  0  0  0  0  0  0  0  0
   -0.3971    1.3008    1.0689 C   0  0  0  0  0  0  0  0  0  0  0  0
   -1.3643    1.9819    0.7311 O   0  0  0  0  0  0  0  0  0  0  0  0
    0.5522    1.7647    1.8915 N   0  0  0  0  0  0  0  0  0  0  0  0
    1.3093    1.1450    2.1332 H   0  0  0  0  0  0  0  0  0  0  0  0
    0.5577    3.1119    2.4582 C   0  0  0  0  0  0  0  0  0  0  0  0
   -0.3986    3.3098    2.9475 H   0  0  0  0  0  0  0  0  0  0  0  0
    1.3619    3.2123    3.1886 H   0  0  0  0  0  0  0  0  0  0  0  0
    0.6974    3.8450    1.6614 H   0  0  0  0  0  0  0  0  0  0  0  0
  5  6  2  0  0  0  0
  5  7  1  0  0  0  0
  2  3  1  0  0  0  0
  2  4  1  0  0  0  0
  2  5  1  0  0  0  0
  1  2  1  0  0  0  0
 24 25  2  0  0  0  0
 24 26  1  0  0  0  0
 20 21  1  0  0  0  0
 20 22  1  0  0  0  0
 20 23  1  0  0  0  0
 17 18  1  0  0  0  0
 17 19  1  0  0  0  0
 17 20  1  0  0  0  0
 13 14  1  0  0  0  0
 13 15  1  0  0  0  0
 13 16  1  0  0  0  0
 11 12  1  0  0  0  0
 11 13  1  0  0  0  0
 11 17  1  0  0  0  0
  9 10  1  0  0  0  0
  9 11  1  0  0  0  0
  9 24  1  0  0  0  0
  7  8  1  0  0  0  0
  7  9  1  0  0  0  0
 28 29  1  0  0  0  0
 28 30  1  0  0  0  0
 28 31  1  0  0  0  0
 26 27  1  0  0  0  0
 26 28  1  0  0  0  0
M  END
$$$$
default_name
  -OEChem-02102213163D

 31 30  0     1  0  0  0  0  0999 V2000
   -3.0760   -3.6390    1.5496 H   0  0  0  0  0  0  0  0  0  0  0  0
   -3.0940   -2.6290    1.1426 C   0  0  0  0  0  0  0  0  0  0  0  0
   -3.7160   -1.9930    1.7706 H   0  0  0  0  0  0  0  0  0  0  0  0
   -3.4880   -2.6500    0.1286 H   0  0  0  0  0  0  0  0  0  0  0  0
   -1.6860   -2.0850    1.1196 C   0  0  0  0  0  0  0  0  0  0  0  0
   -0.7540   -2.7700    1.5226 O   0  0  0  0  0  0  0  0  0  0  0  0
   -1.5320   -0.8490    0.6496 N   0  0  0  0  0  0  0  0  0  0  0  0
   -2.3500   -0.3360    0.3566 H   0  0  0  0  0  0  0  0  0  0  0  0
   -0.2470   -0.1410    0.5576 C   0  0  1  0  0  0  0  0  0  0  0  0
    0.4572   -0.6505    1.2162 H   0  0  0  0  0  0  0  0  0  0  0  0
    0.3091   -0.2220   -0.8868 C   0  0  1  0  0  0  0  0  0  0  0  0
   -0.3126    0.4260   -1.5077 H   0  0  0  0  0  0  0  0  0  0  0  0
    1.7607    0.2844   -0.9877 C   0  0  0  0  0  0  0  0  0  0  0  0
    2.4368   -0.3770   -0.4429 H   0  0  0  0  0  0  0  0  0  0  0  0
    2.0730    0.3323   -2.0297 H   0  0  0  0  0  0  0  0  0  0  0  0
    1.8391    1.2888   -0.5702 H   0  0  0  0  0  0  0  0  0  0  0  0
    0.1844   -1.6559   -1.4490 C   0  0  0  0  0  0  0  0  0  0  0  0
    0.0947   -1.6231   -2.5356 H   0  0  0  0  0  0  0  0  0  0  0  0
    1.0878   -2.2111   -1.1970 H   0  0  0  0  0  0  0  0  0  0  0  0
   -1.0075   -2.4395   -0.8827 C   0  0  0  0  0  0  0  0  0  0  0  0
   -1.9473   -1.9856   -1.1966 H   0  0  0  0  0  0  0  0  0  0  0  0
   -0.9750   -3.4631   -1.2565 H   0  0  0  0  0  0  0  0  0  0  0  0
   -0.9578   -2.4584    0.2066 H   0  0  0  0  0  0  0  0  0  0  0  0
   -0.3971    1.3008    1.0689 C   0  0  0  0  0  0  0  0  0  0  0  0
   -1.3643    1.9819    0.7311 O   0  0  0  0  0  0  0  0  0  0  0  0
    0.5522    1.7647    1.8915 N   0  0  0  0  0  0  0  0  0  0  0  0
    1.3093    1.1450    2.1332 H   0  0  0  0  0  0  0  0  0  0  0  0
    0.5577    3.1119    2.4582 C   0  0  0  0  0  0  0  0  0  0  0  0
   -0.3986    3.3098    2.9475 H   0  0  0  0  0  0  0  0  0  0  0  0
    1.3619    3.2123    3.1886 H   0  0  0  0  0  0  0  0  0  0  0  0
    0.6974    3.8450    1.6614 H   0  0  0  0  0  0  0  0  0  0  0  0
  5  6  2  0  0  0  0
  5  7  1  0  0  0  0
  2  3  1  0  0  0  0
  2  4  1  0  0  0  0
  2  5  1  0  0  0  0
  1  2  1  0  0  0  0
 24 25  2  0  0  0  0
 24 26  1  0  0  0  0
 20 21  1  0  0  0  0
 20 22  1  0  0  0  0
 20 23  1  0  0  0  0
 17 18  1  0  0  0  0
 17 19  1  0  0  0  0
 17 20  1  0  0  0  0
 13 14  1  0  0  0  0
 13 15  1  0  0  0  0
 13 16  1  0  0  0  0
 11 12  1  0  0  0  0
 11 13  1  0  0  0  0
 11 17  1  0  0  0  0
  9 10  1  0  0  0  0
  9 11  1  0  0  0  0
  9 24  1  0  0  0  0
  7  8  1  0  0  0  0
  7  9  1  0  0  0  0
 28 29  1  0  0  0  0
 28 30  1  0  0  0  0
 28 31  1  0  0  0  0
 26 27  1  0  0  0  0
 26 28  1  0  0  0  0
M  END
$$$$
default_name
  -OEChem-02102213163D

 31 30  0     1  0  0  0  0  0999 V2000
   -3.0760   -3.6390    1.5496 H   0  0  0  0  0  0  0  0  0  0  0  0
   -3.0940   -2.6290    1.1426 C   0  0  0  0  0  0  0  0  0  0  0  0
   -3.7160   -1.9930    1.7706 H   0  0  0  0  0  0  0  0  0  0  0  0
   -3.4880   -2.6500    0.1286 H   0  0  0  0  0  0  0  0  0  0  0  0
   -1.6860   -2.0850    1.1196 C   0  0  0  0  0  0  0  0  0  0  0  0
   -0.7540   -2.7700    1.5226 O   0  0  0  0  0  0  0  0  0  0  0  0
   -1.5320   -0.8490    0.6496 N   0  0  0  0  0  0  0  0  0  0  0  0
   -2.3500   -0.3360    0.3566 H   0  0  0  0  0  0  0  0  0  0  0  0
   -0.2470   -0.1410    0.5576 C   0  0  1  0  0  0  0  0  0  0  0  0
    0.4572   -0.6505    1.2162 H   0  0  0  0  0  0  0  0  0  0  0  0
    0.3091   -0.2220   -0.8868 C   0  0  1  0  0  0  0  0  0  0  0  0
   -0.3126    0.4260   -1.5077 H   0  0  0  0  0  0  0  0  0  0  0  0
    1.7607    0.2844   -0.9877 C   0  0  0  0  0  0  0  0  0  0  0  0
    2.4368   -0.3770   -0.4429 H   0  0  0  0  0  0  0  0  0  0  0  0
    2.0730    0.3323   -2.0297 H   0  0  0  0  0  0  0  0  0  0  0  0
    1.8391    1.2888   -0.5702 H   0  0  0  0  0  0  0  0  0  0  0  0
    0.1844   -1.6559   -1.4490 C   0  0  0  0  0  0  0  0  0  0  0  0
    0.3608   -1.6502   -2.5255 H   0  0  0  0  0  0  0  0  0  0  0  0
    0.9432   -2.2831   -0.9814 H   0  0  0  0  0  0  0  0  0  0  0  0
   -1.1784   -2.3082   -1.1795 C   0  0  0  0  0  0  0  0  0  0  0  0
   -1.9674   -1.7806   -1.7151 H   0  0  0  0  0  0  0  0  0  0  0  0
   -1.1566   -3.3421   -1.5248 H   0  0  0  0  0  0  0  0  0  0  0  0
   -1.3927   -2.2963   -0.1103 H   0  0  0  0  0  0  0  0  0  0  0  0
   -0.3971    1.3008    1.0689 C   0  0  0  0  0  0  0  0  0  0  0  0
   -1.3643    1.9819    0.7311 O   0  0  0  0  0  0  0  0  0  0  0  0
    0.5522    1.7647    1.8915 N   0  0  0  0  0  0  0  0  0  0  0  0
    1.3093    1.1450    2.1332 H   0  0  0  0  0  0  0  0  0  0  0  0
    0.5577    3.1119    2.4582 C   0  0  0  0  0  0  0  0  0  0  0  0
   -0.3986    3.3098    2.9475 H   0  0  0  0  0  0  0  0  0  0  0  0
    1.3619    3.2123    3.1886 H   0  0  0  0  0  0  0  0  0  0  0  0
    0.6974    3.8450    1.6614 H   0  0  0  0  0  0  0  0  0  0  0  0
  5  6  2  0  0  0  0
  5  7  1  0  0  0  0
  2  3  1  0  0  0  0
  2  4  1  0  0  0  0
  2  5  1  0  0  0  0
  1  2  1  0  0  0  0
 24 25  2  0  0  0  0
 24 26  1  0  0  0  0
 20 21  1  0  0  0  0
 20 22  1  0  0  0  0
 20 23  1  0  0  0  0
 17 18  1  0  0  0  0
 17 19  1  0  0  0  0
 17 20  1  0  0  0  0
 13 14  1  0  0  0  0
 13 15  1  0  0  0  0
 13 16  1  0  0  0  0
 11 12  1  0  0  0  0
 11 13  1  0  0  0  0
 11 17  1  0  0  0  0
  9 10  1  0  0  0  0
  9 11  1  0  0  0  0
  9 24  1  0  0  0  0
  7  8  1  0  0  0  0
  7  9  1  0  0  0  0
 28 29  1  0  0  0  0
 28 30  1  0  0  0  0
 28 31  1  0  0  0  0
 26 27  1  0  0  0  0
 26 28  1  0  0  0  0
M  END
$$$$
default_name
  -OEChem-02102213163D

 31 30  0     1  0  0  0  0  0999 V2000
   -3.0760   -3.6390    1.5496 H   0  0  0  0  0  0  0  0  0  0  0  0
   -3.0940   -2.6290    1.1426 C   0  0  0  0  0  0  0  0  0  0  0  0
   -3.7160   -1.9930    1.7706 H   0  0  0  0  0  0  0  0  0  0  0  0
   -3.4880   -2.6500    0.1286 H   0  0  0  0  0  0  0  0  0  0  0  0
   -1.6860   -2.0850    1.1196 C   0  0  0  0  0  0  0  0  0  0  0  0
   -0.7540   -2.7700    1.5226 O   0  0  0  0  0  0  0  0  0  0  0  0
   -1.5320   -0.8490    0.6496 N   0  0  0  0  0  0  0  0  0  0  0  0
   -2.3500   -0.3360    0.3566 H   0  0  0  0  0  0  0  0  0  0  0  0
   -0.2470   -0.1410    0.5576 C   0  0  1  0  0  0  0  0  0  0  0  0
    0.4572   -0.6505    1.2162 H   0  0  0  0  0  0  0  0  0  0  0  0
    0.3091   -0.2220   -0.8868 C   0  0  1  0  0  0  0  0  0  0  0  0
   -0.3126    0.4260   -1.5077 H   0  0  0  0  0  0  0  0  0  0  0  0
    1.7607    0.2844   -0.9877 C   0  0  0  0  0  0  0  0  0  0  0  0
    2.4368   -0.3770   -0.4429 H   0  0  0  0  0  0  0  0  0  0  0  0
    2.0730    0.3323   -2.0297 H   0  0  0  0  0  0  0  0  0  0  0  0
    1.8391    1.2888   -0.5702 H   0  0  0  0  0  0  0  0  0  0  0  0
    0.1844   -1.6559   -1.4490 C   0  0  0  0  0  0  0  0  0  0  0  0
    0.6128   -1.7013   -2.4511 H   0  0  0  0  0  0  0  0  0  0  0  0
    0.7450   -2.3345   -0.8063 H   0  0  0  0  0  0  0  0  0  0  0  0
   -1.2598   -2.1716   -1.5100 C   0  0  0  0  0  0  0  0  0  0  0  0
   -1.8430   -1.5915   -2.2250 H   0  0  0  0  0  0  0  0  0  0  0  0
   -1.2561   -3.2137   -1.8301 H   0  0  0  0  0  0  0  0  0  0  0  0
   -1.7215   -2.1054   -0.5242 H   0  0  0  0  0  0  0  0  0  0  0  0
   -0.3971    1.3008    1.0689 C   0  0  0  0  0  0  0  0  0  0  0  0
   -1.3643    1.9819    0.7311 O   0  0  0  0  0  0  0  0  0  0  0  0
    0.5522    1.7647    1.8915 N   0  0  0  0  0  0  0  0  0  0  0  0
    1.3093    1.1450    2.1332 H   0  0  0  0  0  0  0  0  0  0  0  0
    0.5577    3.1119    2.4582 C   0  0  0  0  0  0  0  0  0  0  0  0
   -0.3986    3.3098    2.9475 H   0  0  0  0  0  0  0  0  0  0  0  0
    1.3619    3.2123    3.1886 H   0  0  0  0  0  0  0  0  0  0  0  0
    0.6974    3.8450    1.6614 H   0  0  0  0  0  0  0  0  0  0  0  0
  5  6  2  0  0  0  0
  5  7  1  0  0  0  0
  2  3  1  0  0  0  0
  2  4  1  0  0  0  0
  2  5  1  0  0  0  0
  1  2  1  0  0  0  0
 24 25  2  0  0  0  0
 24 26  1  0  0  0  0
 20 21  1  0  0  0  0
 20 22  1  0  0  0  0
 20 23  1  0  0  0  0
 17 18  1  0  0  0  0
 17 19  1  0  0  0  0
 17 20  1  0  0  0  0
 13 14  1  0  0  0  0
 13 15  1  0  0  0  0
 13 16  1  0  0  0  0
 11 12  1  0  0  0  0
 11 13  1  0  0  0  0
 11 17  1  0  0  0  0
  9 10  1  0  0  0  0
  9 11  1  0  0  0  0
  9 24  1  0  0  0  0
  7  8  1  0  0  0  0
  7  9  1  0  0  0  0
 28 29  1  0  0  0  0
 28 30  1  0  0  0  0
 28 31  1  0  0  0  0
 26 27  1  0  0  0  0
 26 28  1  0  0  0  0
M  END
$$$$
default_name
  -OEChem-02102213163D

 31 30  0     1  0  0  0  0  0999 V2000
   -3.0760   -3.6390    1.5496 H   0  0  0  0  0  0  0  0  0  0  0  0
   -3.0940   -2.6290    1.1426 C   0  0  0  0  0  0  0  0  0  0  0  0
   -3.7160   -1.9930    1.7706 H   0  0  0  0  0  0  0  0  0  0  0  0
   -3.4880   -2.6500    0.1286 H   0  0  0  0  0  0  0  0  0  0  0  0
   -1.6860   -2.0850    1.1196 C   0  0  0  0  0  0  0  0  0  0  0  0
   -0.7540   -2.7700    1.5226 O   0  0  0  0  0  0  0  0  0  0  0  0
   -1.5320   -0.8490    0.6496 N   0  0  0  0  0  0  0  0  0  0  0  0
   -2.3500   -0.3360    0.3566 H   0  0  0  0  0  0  0  0  0  0  0  0
   -0.2470   -0.1410    0.5576 C   0  0  1  0  0  0  0  0  0  0  0  0
    0.4572   -0.6505    1.2162 H   0  0  0  0  0  0  0  0  0  0  0  0
    0.3091   -0.2220   -0.8868 C   0  0  1  0  0  0  0  0  0  0  0  0
   -0.3126    0.4260   -1.5077 H   0  0  0  0  0  0  0  0  0  0  0  0
    1.7607    0.2844   -0.9877 C   0  0  0  0  0  0  0  0  0  0  0  0
    2.4368   -0.3770   -0.4429 H   0  0  0  0  0  0  0  0  0  0  0  0
    2.0730    0.3323   -2.0297 H   0  0  0  0  0  0  0  0  0  0  0  0
    1.8391    1.2888   -0.5702 H   0  0  0  0  0  0  0  0  0  0  0  0
    0.1844   -1.6559   -1.4490 C   0  0  0  0  0  0  0  0  0  0  0  0
    0.8336   -1.7728   -2.3177 H   0  0  0  0  0  0  0  0  0  0  0  0
    0.5067   -2.3618   -0.6837 H   0  0  0  0  0  0  0  0  0  0  0  0
   -1.2462   -2.0388   -1.8517 C   0  0  0  0  0  0  0  0  0  0  0  0
   -1.5825   -1.4312   -2.6916 H   0  0  0  0  0  0  0  0  0  0  0  0
   -1.2669   -3.0867   -2.1517 H   0  0  0  0  0  0  0  0  0  0  0  0
   -1.9216   -1.8987   -1.0070 H   0  0  0  0  0  0  0  0  0  0  0  0
   -0.3971    1.3008    1.0689 C   0  0  0  0  0  0  0  0  0  0  0  0
   -1.3643    1.9819    0.7311 O   0  0  0  0  0  0  0  0  0  0  0  0
    0.5522    1.7647    1.8915 N   0  0  0  0  0  0  0  0  0  0  0  0
    1.3093    1.1450    2.1332 H   0  0  0  0  0  0  0  0  0  0  0  0
    0.5577    3.1119    2.4582 C   0  0  0  0  0  0  0  0  0  0  0  0
   -0.3986    3.3098    2.9475 H   0  0  0  0  0  0  0  0  0  0  0  0
    1.3619    3.2123    3.1886 H   0  0  0  0  0  0  0  0  0  0  0  0
    0.6974    3.8450    1.6614 H   0  0  0  0  0  0  0  0  0  0  0  0
  5  6  2  0  0  0  0
  5  7  1  0  0  0  0
  2  3  1  0  0  0  0
  2  4  1  0  0  0  0
  2  5  1  0  0  0  0
  1  2  1  0  0  0  0
 24 25  2  0  0  0  0
 24 26  1  0  0  0  0
 20 21  1  0  0  0  0
 20 22  1  0  0  0  0
 20 23  1  0  0  0  0
 17 18  1  0  0  0  0
 17 19  1  0  0  0  0
 17 20  1  0  0  0  0
 13 14  1  0  0  0  0
 13 15  1  0  0  0  0
 13 16  1  0  0  0  0
 11 12  1  0  0  0  0
 11 13  1  0  0  0  0
 11 17  1  0  0  0  0
  9 10  1  0  0  0  0
  9 11  1  0  0  0  0
  9 24  1  0  0  0  0
  7  8  1  0  0  0  0
  7  9  1  0  0  0  0
 28 29  1  0  0  0  0
 28 30  1  0  0  0  0
 28 31  1  0  0  0  0
 26 27  1  0  0  0  0
 26 28  1  0  0  0  0
M  END
$$$$
default_name
  -OEChem-02102213163D

 31 30  0     1  0  0  0  0  0999 V2000
   -3.0760   -3.6390    1.5496 H   0  0  0  0  0  0  0  0  0  0  0  0
   -3.0940   -2.6290    1.1426 C   0  0  0  0  0  0  0  0  0  0  0  0
   -3.7160   -1.9930    1.7706 H   0  0  0  0  0  0  0  0  0  0  0  0
   -3.4880   -2.6500    0.1286 H   0  0  0  0  0  0  0  0  0  0  0  0
   -1.6860   -2.0850    1.1196 C   0  0  0  0  0  0  0  0  0  0  0  0
   -0.7540   -2.7700    1.5226 O   0  0  0  0  0  0  0  0  0  0  0  0
   -1.5320   -0.8490    0.6496 N   0  0  0  0  0  0  0  0  0  0  0  0
   -2.3500   -0.3360    0.3566 H   0  0  0  0  0  0  0  0  0  0  0  0
   -0.2470   -0.1410    0.5576 C   0  0  1  0  0  0  0  0  0  0  0  0
    0.4572   -0.6505    1.2162 H   0  0  0  0  0  0  0  0  0  0  0  0
    0.3091   -0.2220   -0.8868 C   0  0  1  0  0  0  0  0  0  0  0  0
   -0.3126    0.4260   -1.5077 H   0  0  0  0  0  0  0  0  0  0  0  0
    1.7607    0.2844   -0.9877 C   0  0  0  0  0  0  0  0  0  0  0  0
    2.4368   -0.3770   -0.4429 H   0  0  0  0  0  0  0  0  0  0  0  0
    2.0730    0.3323   -2.0297 H   0  0  0  0  0  0  0  0  0  0  0  0
    1.8391    1.2888   -0.5702 H   0  0  0  0  0  0  0  0  0  0  0  0
    0.1844   -1.6559   -1.4490 C   0  0  0  0  0  0  0  0  0  0  0  0
    1.0081   -1.8599   -2.1344 H   0  0  0  0  0  0  0  0  0  0  0  0
    0.2444   -2.3632   -0.6219 H   0  0  0  0  0  0  0  0  0  0  0  0
   -1.1385   -1.9190   -2.1812 C   0  0  0  0  0  0  0  0  0  0  0  0
   -1.2038   -1.3107   -3.0831 H   0  0  0  0  0  0  0  0  0  0  0  0
   -1.1881   -2.9698   -2.4674 H   0  0  0  0  0  0  0  0  0  0  0  0
   -1.9795   -1.6903   -1.5257 H   0  0  0  0  0  0  0  0  0  0  0  0
   -0.3971    1.3008    1.0689 C   0  0  0  0  0  0  0  0  0  0  0  0
   -1.3643    1.9819    0.7311 O   0  0  0  0  0  0  0  0  0  0  0  0
    0.5522    1.7647    1.8915 N   0  0  0  0  0  0  0  0  0  0  0  0
    1.3093    1.1450    2.1332 H   0  0  0  0  0  0  0  0  0  0  0  0
    0.5577    3.1119    2.4582 C   0  0  0  0  0  0  0  0  0  0  0  0
   -0.3986    3.3098    2.9475 H   0  0  0  0  0  0  0  0  0  0  0  0
    1.3619    3.2123    3.1886 H   0  0  0  0  0  0  0  0  0  0  0  0
    0.6974    3.8450    1.6614 H   0  0  0  0  0  0  0  0  0  0  0  0
  5  6  2  0  0  0  0
  5  7  1  0  0  0  0
  2  3  1  0  0  0  0
  2  4  1  0  0  0  0
  2  5  1  0  0  0  0
  1  2  1  0  0  0  0
 24 25  2  0  0  0  0
 24 26  1  0  0  0  0
 20 21  1  0  0  0  0
 20 22  1  0  0  0  0
 20 23  1  0  0  0  0
 17 18  1  0  0  0  0
 17 19  1  0  0  0  0
 17 20  1  0  0  0  0
 13 14  1  0  0  0  0
 13 15  1  0  0  0  0
 13 16  1  0  0  0  0
 11 12  1  0  0  0  0
 11 13  1  0  0  0  0
 11 17  1  0  0  0  0
  9 10  1  0  0  0  0
  9 11  1  0  0  0  0
  9 24  1  0  0  0  0
  7  8  1  0  0  0  0
  7  9  1  0  0  0  0
 28 29  1  0  0  0  0
 28 30  1  0  0  0  0
 28 31  1  0  0  0  0
 26 27  1  0  0  0  0
 26 28  1  0  0  0  0
M  END
$$$$
default_name
  -OEChem-02102213163D

 31 30  0     1  0  0  0  0  0999 V2000
   -3.0760   -3.6390    1.5496 H   0  0  0  0  0  0  0  0  0  0  0  0
   -3.0940   -2.6290    1.1426 C   0  0  0  0  0  0  0  0  0  0  0  0
   -3.7160   -1.9930    1.7706 H   0  0  0  0  0  0  0  0  0  0  0  0
   -3.4880   -2.6500    0.1286 H   0  0  0  0  0  0  0  0  0  0  0  0
   -1.6860   -2.0850    1.1196 C   0  0  0  0  0  0  0  0  0  0  0  0
   -0.7540   -2.7700    1.5226 O   0  0  0  0  0  0  0  0  0  0  0  0
   -1.5320   -0.8490    0.6496 N   0  0  0  0  0  0  0  0  0  0  0  0
   -2.3500   -0.3360    0.3566 H   0  0  0  0  0  0  0  0  0  0  0  0
   -0.2470   -0.1410    0.5576 C   0  0  1  0  0  0  0  0  0  0  0  0
    0.4572   -0.6505    1.2162 H   0  0  0  0  0  0  0  0  0  0  0  0
    0.3091   -0.2220   -0.8868 C   0  0  1  0  0  0  0  0  0  0  0  0
   -0.3126    0.4260   -1.5077 H   0  0  0  0  0  0  0  0  0  0  0  0
    1.7607    0.2844   -0.9877 C   0  0  0  0  0  0  0  0  0  0  0  0
    2.4368   -0.3770   -0.4429 H   0  0  0  0  0  0  0  0  0  0  0  0
    2.0730    0.3323   -2.0297 H   0  0  0  0  0  0  0  0  0  0  0  0
    1.8391    1.2888   -0.5702 H   0  0  0  0  0  0  0  0  0  0  0  0
    0.1844   -1.6559   -1.4490 C   0  0  0  0  0  0  0  0  0  0  0  0
    1.1244   -1.9566   -1.9135 H   0  0  0  0  0  0  0  0  0  0  0  0
   -0.0238   -2.3386   -0.6253 H   0  0  0  0  0  0  0  0  0  0  0  0
   -0.9441   -1.8203   -2.4761 C   0  0  0  0  0  0  0  0  0  0  0  0
   -0.7326   -1.2381   -3.3728 H   0  0  0  0  0  0  0  0  0  0  0  0
   -1.0251   -2.8708   -2.7560 H   0  0  0  0  0  0  0  0  0  0  0  0
   -1.8913   -1.4944   -2.0450 H   0  0  0  0  0  0  0  0  0  0  0  0
   -0.3971    1.3008    1.0689 C   0  0  0  0  0  0  0  0  0  0  0  0
   -1.3643    1.9819    0.7311 O   0  0  0  0  0  0  0  0  0  0  0  0
    0.5522    1.7647    1.8915 N   0  0  0  0  0  0  0  0  0  0  0  0
    1.3093    1.1450    2.1332 H   0  0  0  0  0  0  0  0  0  0  0  0
    0.5577    3.1119    2.4582 C   0  0  0  0  0  0  0  0  0  0  0  0
   -0.3986    3.3098    2.9475 H   0  0  0  0  0  0  0  0  0  0  0  0
    1.3619    3.2123    3.1886 H   0  0  0  0  0  0  0  0  0  0  0  0
    0.6974    3.8450    1.6614 H   0  0  0  0  0  0  0  0  0  0  0  0
  5  6  2  0  0  0  0
  5  7  1  0  0  0  0
  2  3  1  0  0  0  0
  2  4  1  0  0  0  0
  2  5  1  0  0  0  0
  1  2  1  0  0  0  0
 24 25  2  0  0  0  0
 24 26  1  0  0  0  0
 20 21  1  0  0  0  0
 20 22  1  0  0  0  0
 20 23  1  0  0  0  0
 17 18  1  0  0  0  0
 17 19  1  0  0  0  0
 17 20  1  0  0  0  0
 13 14  1  0  0  0  0
 13 15  1  0  0  0  0
 13 16  1  0  0  0  0
 11 12  1  0  0  0  0
 11 13  1  0  0  0  0
 11 17  1  0  0  0  0
  9 10  1  0  0  0  0
  9 11  1  0  0  0  0
  9 24  1  0  0  0  0
  7  8  1  0  0  0  0
  7  9  1  0  0  0  0
 28 29  1  0  0  0  0
 28 30  1  0  0  0  0
 28 31  1  0  0  0  0
 26 27  1  0  0  0  0
 26 28  1  0  0  0  0
M  END
$$$$
default_name
  -OEChem-02102213163D

 31 30  0     1  0  0  0  0  0999 V2000
   -3.0760   -3.6390    1.5496 H   0  0  0  0  0  0  0  0  0  0  0  0
   -3.0940   -2.6290    1.1426 C   0  0  0  0  0  0  0  0  0  0  0  0
   -3.7160   -1.9930    1.7706 H   0  0  0  0  0  0  0  0  0  0  0  0
   -3.4880   -2.6500    0.1286 H   0  0  0  0  0  0  0  0  0  0  0  0
   -1.6860   -2.0850    1.1196 C   0  0  0  0  0  0  0  0  0  0  0  0
   -0.7540   -2.7700    1.5226 O   0  0  0  0  0  0  0  0  0  0  0  0
   -1.5320   -0.8490    0.6496 N   0  0  0  0  0  0  0  0  0  0  0  0
   -2.3500   -0.3360    0.3566 H   0  0  0  0  0  0  0  0  0  0  0  0
   -0.2470   -0.1410    0.5576 C   0  0  1  0  0  0  0  0  0  0  0  0
    0.4572   -0.6505    1.2162 H   0  0  0  0  0  0  0  0  0  0  0  0
    0.3091   -0.2220   -0.8868 C   0  0  1  0  0  0  0  0  0  0  0  0
   -0.3126    0.4260   -1.5077 H   0  0  0  0  0  0  0  0  0  0  0  0
    1.7607    0.2844   -0.9877 C   0  0  0  0  0  0  0  0  0  0  0  0
    2.4368   -0.3770   -0.4429 H   0  0  0  0  0  0  0  0  0  0  0  0
    2.0730    0.3323   -2.0297 H   0  0  0  0  0  0  0  0  0  0  0  0
    1.8391    1.2888   -0.5702 H   0  0  0  0  0  0  0  0  0  0  0  0
    0.1844   -1.6559   -1.4490 C   0  0  0  0  0  0  0  0  0  0  0  0
    1.1746   -2.0563   -1.6703 H   0  0  0  0  0  0  0  0  0  0  0  0
   -0.2798   -2.2896   -0.6934 H   0  0  0  0  0  0  0  0  0  0  0  0
   -0.6761   -1.7494   -2.7163 C   0  0  0  0  0  0  0  0  0  0  0  0
   -0.2010   -1.2184   -3.5410 H   0  0  0  0  0  0  0  0  0  0  0  0
   -0.7891   -2.7966   -2.9977 H   0  0  0  0  0  0  0  0  0  0  0  0
   -1.6629   -1.3243   -2.5295 H   0  0  0  0  0  0  0  0  0  0  0  0
   -0.3971    1.3008    1.0689 C   0  0  0  0  0  0  0  0  0  0  0  0
   -1.3643    1.9819    0.7311 O   0  0  0  0  0  0  0  0  0  0  0  0
    0.5522    1.7647    1.8915 N   0  0  0  0  0  0  0  0  0  0  0  0
    1.3093    1.1450    2.1332 H   0  0  0  0  0  0  0  0  0  0  0  0
    0.5577    3.1119    2.4582 C   0  0  0  0  0  0  0  0  0  0  0  0
   -0.3986    3.3098    2.9475 H   0  0  0  0  0  0  0  0  0  0  0  0
    1.3619    3.2123    3.1886 H   0  0  0  0  0  0  0  0  0  0  0  0
    0.6974    3.8450    1.6614 H   0  0  0  0  0  0  0  0  0  0  0  0
  5  6  2  0  0  0  0
  5  7  1  0  0  0  0
  2  3  1  0  0  0  0
  2  4  1  0  0  0  0
  2  5  1  0  0  0  0
  1  2  1  0  0  0  0
 24 25  2  0  0  0  0
 24 26  1  0  0  0  0
 20 21  1  0  0  0  0
 20 22  1  0  0  0  0
 20 23  1  0  0  0  0
 17 18  1  0  0  0  0
 17 19  1  0  0  0  0
 17 20  1  0  0  0  0
 13 14  1  0  0  0  0
 13 15  1  0  0  0  0
 13 16  1  0  0  0  0
 11 12  1  0  0  0  0
 11 13  1  0  0  0  0
 11 17  1  0  0  0  0
  9 10  1  0  0  0  0
  9 11  1  0  0  0  0
  9 24  1  0  0  0  0
  7  8  1  0  0  0  0
  7  9  1  0  0  0  0
 28 29  1  0  0  0  0
 28 30  1  0  0  0  0
 28 31  1  0  0  0  0
 26 27  1  0  0  0  0
 26 28  1  0  0  0  0
M  END
$$$$
default_name
  -OEChem-02102213163D

 31 30  0     1  0  0  0  0  0999 V2000
   -3.0760   -3.6390    1.5496 H   0  0  0  0  0  0  0  0  0  0  0  0
   -3.0940   -2.6290    1.1426 C   0  0  0  0  0  0  0  0  0  0  0  0
   -3.7160   -1.9930    1.7706 H   0  0  0  0  0  0  0  0  0  0  0  0
   -3.4880   -2.6500    0.1286 H   0  0  0  0  0  0  0  0  0  0  0  0
   -1.6860   -2.0850    1.1196 C   0  0  0  0  0  0  0  0  0  0  0  0
   -0.7540   -2.7700    1.5226 O   0  0  0  0  0  0  0  0  0  0  0  0
   -1.5320   -0.8490    0.6496 N   0  0  0  0  0  0  0  0  0  0  0  0
   -2.3500   -0.3360    0.3566 H   0  0  0  0  0  0  0  0  0  0  0  0
   -0.2470   -0.1410    0.5576 C   0  0  1  0  0  0  0  0  0  0  0  0
    0.4572   -0.6505    1.2162 H   0  0  0  0  0  0  0  0  0  0  0  0
    0.3091   -0.2220   -0.8868 C   0  0  1  0  0  0  0  0  0  0  0  0
   -0.3126    0.4260   -1.5077 H   0  0  0  0  0  0  0  0  0  0  0  0
    1.7607    0.2844   -0.9877 C   0  0  0  0  0  0  0  0  0  0  0  0
    2.4368   -0.3770   -0.4429 H   0  0  0  0  0  0  0  0  0  0  0  0
    2.0730    0.3323   -2.0297 H   0  0  0  0  0  0  0  0  0  0  0  0
    1.8391    1.2888   -0.5702 H   0  0  0  0  0  0  0  0  0  0  0  0
    0.1844   -1.6559   -1.4490 C   0  0  0  0  0  0  0  0  0  0  0  0
    1.1553   -2.1523   -1.4211 H   0  0  0  0  0  0  0  0  0  0  0  0
   -0.5061   -2.2196   -0.8218 H   0  0  0  0  0  0  0  0  0  0  0  0
   -0.3529   -1.7112   -2.8855 C   0  0  0  0  0  0  0  0  0  0  0  0
    0.3547   -1.2529   -3.5762 H   0  0  0  0  0  0  0  0  0  0  0  0
   -0.4961   -2.7522   -3.1759 H   0  0  0  0  0  0  0  0  0  0  0  0
   -1.3099   -1.1917   -2.9461 H   0  0  0  0  0  0  0  0  0  0  0  0
   -0.3971    1.3008    1.0689 C   0  0  0  0  0  0  0  0  0  0  0  0
   -1.3643    1.9819    0.7311 O   0  0  0  0  0  0  0  0  0  0  0  0
    0.5522    1.7647    1.8915 N   0  0  0  0  0  0  0  0  0  0  0  0
    1.3093    1.1450    2.1332 H   0  0  0  0  0  0  0  0  0  0  0  0
    0.5577    3.1119    2.4582 C   0  0  0  0  0  0  0  0  0  0  0  0
   -0.3986    3.3098    2.9475 H   0  0  0  0  0  0  0  0  0  0  0  0
    1.3619    3.2123    3.1886 H   0  0  0  0  0  0  0  0  0  0  0  0
    0.6974    3.8450    1.6614 H   0  0  0  0  0  0  0  0  0  0  0  0
  5  6  2  0  0  0  0
  5  7  1  0  0  0  0
  2  3  1  0  0  0  0
  2  4  1  0  0  0  0
  2  5  1  0  0  0  0
  1  2  1  0  0  0  0
 24 25  2  0  0  0  0
 24 26  1  0  0  0  0
 20 21  1  0  0  0  0
 20 22  1  0  0  0  0
 20 23  1  0  0  0  0
 17 18  1  0  0  0  0
 17 19  1  0  0  0  0
 17 20  1  0  0  0  0
 13 14  1  0  0  0  0
 13 15  1  0  0  0  0
 13 16  1  0  0  0  0
 11 12  1  0  0  0  0
 11 13  1  0  0  0  0
 11 17  1  0  0  0  0
  9 10  1  0  0  0  0
  9 11  1  0  0  0  0
  9 24  1  0  0  0  0
  7  8  1  0  0  0  0
  7  9  1  0  0  0  0
 28 29  1  0  0  0  0
 28 30  1  0  0  0  0
 28 31  1  0  0  0  0
 26 27  1  0  0  0  0
 26 28  1  0  0  0  0
M  END
$$$$
default_name
  -OEChem-02102213163D

 31 30  0     1  0  0  0  0  0999 V2000
   -3.0760   -3.6390    1.5496 H   0  0  0  0  0  0  0  0  0  0  0  0
   -3.0940   -2.6290    1.1426 C   0  0  0  0  0  0  0  0  0  0  0  0
   -3.7160   -1.9930    1.7706 H   0  0  0  0  0  0  0  0  0  0  0  0
   -3.4880   -2.6500    0.1286 H   0  0  0  0  0  0  0  0  0  0  0  0
   -1.6860   -2.0850    1.1196 C   0  0  0  0  0  0  0  0  0  0  0  0
   -0.7540   -2.7700    1.5226 O   0  0  0  0  0  0  0  0  0  0  0  0
   -1.5320   -0.8490    0.6496 N   0  0  0  0  0  0  0  0  0  0  0  0
   -2.3500   -0.3360    0.3566 H   0  0  0  0  0  0  0  0  0  0  0  0
   -0.2470   -0.1410    0.5576 C   0  0  1  0  0  0  0  0  0  0  0  0
    0.4572   -0.6505    1.2162 H   0  0  0  0  0  0  0  0  0  0  0  0
    0.3091   -0.2220   -0.8868 C   0  0  1  0  0  0  0  0  0  0  0  0
   -0.3126    0.4260   -1.5077 H   0  0  0  0  0  0  0  0  0  0  0  0
    1.7607    0.2844   -0.9877 C   0  0  0  0  0  0  0  0  0  0  0  0
    2.4368   -0.3770   -0.4429 H   0  0  0  0  0  0  0  0  0  0  0  0
    2.0730    0.3323   -2.0297 H   0  0  0  0  0  0  0  0  0  0  0  0
    1.8391    1.2888   -0.5702 H   0  0  0  0  0  0  0  0  0  0  0  0
    0.1844   -1.6559   -1.4490 C   0  0  0  0  0  0  0  0  0  0  0  0
    1.0677   -2.2380   -1.1832 H   0  0  0  0  0  0  0  0  0  0  0  0
   -0.6873   -2.1333   -1.0015 H   0  0  0  0  0  0  0  0  0  0  0  0
    0.0035   -1.7082   -2.9721 C   0  0  0  0  0  0  0  0  0  0  0  0
    0.8967   -1.3393   -3.4761 H   0  0  0  0  0  0  0  0  0  0  0  0
   -0.1661   -2.7406   -3.2787 H   0  0  0  0  0  0  0  0  0  0  0  0
   -0.8563   -1.1055   -3.2666 H   0  0  0  0  0  0  0  0  0  0  0  0
   -0.3971    1.3008    1.0689 C   0  0  0  0  0  0  0  0  0  0  0  0
   -1.3643    1.9819    0.7311 O   0  0  0  0  0  0  0  0  0  0  0  0
    0.5522    1.7647    1.8915 N   0  0  0  0  0  0  0  0  0  0  0  0
    1.3093    1.1450    2.1332 H   0  0  0  0  0  0  0  0  0  0  0  0
    0.5577    3.1119    2.4582 C   0  0  0  0  0  0  0  0  0  0  0  0
   -0.3986    3.3098    2.9475 H   0  0  0  0  0  0  0  0  0  0  0  0
    1.3619    3.2123    3.1886 H   0  0  0  0  0  0  0  0  0  0  0  0
    0.6974    3.8450    1.6614 H   0  0  0  0  0  0  0  0  0  0  0  0
  5  6  2  0  0  0  0
  5  7  1  0  0  0  0
  2  3  1  0  0  0  0
  2  4  1  0  0  0  0
  2  5  1  0  0  0  0
  1  2  1  0  0  0  0
 24 25  2  0  0  0  0
 24 26  1  0  0  0  0
 20 21  1  0  0  0  0
 20 22  1  0  0  0  0
 20 23  1  0  0  0  0
 17 18  1  0  0  0  0
 17 19  1  0  0  0  0
 17 20  1  0  0  0  0
 13 14  1  0  0  0  0
 13 15  1  0  0  0  0
 13 16  1  0  0  0  0
 11 12  1  0  0  0  0
 11 13  1  0  0  0  0
 11 17  1  0  0  0  0
  9 10  1  0  0  0  0
  9 11  1  0  0  0  0
  9 24  1  0  0  0  0
  7  8  1  0  0  0  0
  7  9  1  0  0  0  0
 28 29  1  0  0  0  0
 28 30  1  0  0  0  0
 28 31  1  0  0  0  0
 26 27  1  0  0  0  0
 26 28  1  0  0  0  0
M  END
$$$$
default_name
  -OEChem-02102213163D

 31 30  0     1  0  0  0  0  0999 V2000
   -3.0760   -3.6390    1.5496 H   0  0  0  0  0  0  0  0  0  0  0  0
   -3.0940   -2.6290    1.1426 C   0  0  0  0  0  0  0  0  0  0  0  0
   -3.7160   -1.9930    1.7706 H   0  0  0  0  0  0  0  0  0  0  0  0
   -3.4880   -2.6500    0.1286 H   0  0  0  0  0  0  0  0  0  0  0  0
   -1.6860   -2.0850    1.1196 C   0  0  0  0  0  0  0  0  0  0  0  0
   -0.7540   -2.7700    1.5226 O   0  0  0  0  0  0  0  0  0  0  0  0
   -1.5320   -0.8490    0.6496 N   0  0  0  0  0  0  0  0  0  0  0  0
   -2.3500   -0.3360    0.3566 H   0  0  0  0  0  0  0  0  0  0  0  0
   -0.2470   -0.1410    0.5576 C   0  0  1  0  0  0  0  0  0  0  0  0
    0.4572   -0.6505    1.2162 H   0  0  0  0  0  0  0  0  0  0  0  0
    0.3091   -0.2220   -0.8868 C   0  0  1  0  0  0  0  0  0  0  0  0
   -0.3126    0.4260   -1.5077 H   0  0  0  0  0  0  0  0  0  0  0  0
    1.7607    0.2844   -0.9877 C   0  0  0  0  0  0  0  0  0  0  0  0
    2.4368   -0.3770   -0.4429 H   0  0  0  0  0  0  0  0  0  0  0  0
    2.0730    0.3323   -2.0297 H   0  0  0  0  0  0  0  0  0  0  0  0
    1.8391    1.2888   -0.5702 H   0  0  0  0  0  0  0  0  0  0  0  0
    0.1844   -1.6559   -1.4490 C   0  0  0  0  0  0  0  0  0  0  0  0
    0.9179   -2.3076   -0.9725 H   0  0  0  0  0  0  0  0  0  0  0  0
   -0.8110   -2.0367   -1.2205 H   0  0  0  0  0  0  0  0  0  0  0  0
    0.3688   -1.7408   -2.9702 C   0  0  0  0  0  0  0  0  0  0  0  0
    1.3880   -1.4718   -3.2473 H   0  0  0  0  0  0  0  0  0  0  0  0
    0.1785   -2.7627   -3.2989 H   0  0  0  0  0  0  0  0  0  0  0  0
   -0.3331   -1.0716   -3.4690 H   0  0  0  0  0  0  0  0  0  0  0  0
   -0.3971    1.3008    1.0689 C   0  0  0  0  0  0  0  0  0  0  0  0
   -1.3643    1.9819    0.7311 O   0  0  0  0  0  0  0  0  0  0  0  0
    0.5522    1.7647    1.8915 N   0  0  0  0  0  0  0  0  0  0  0  0
    1.3093    1.1450    2.1332 H   0  0  0  0  0  0  0  0  0  0  0  0
    0.5577    3.1119    2.4582 C   0  0  0  0  0  0  0  0  0  0  0  0
   -0.3986    3.3098    2.9475 H   0  0  0  0  0  0  0  0  0  0  0  0
    1.3619    3.2123    3.1886 H   0  0  0  0  0  0  0  0  0  0  0  0
    0.6974    3.8450    1.6614 H   0  0  0  0  0  0  0  0  0  0  0  0
  5  6  2  0  0  0  0
  5  7  1  0  0  0  0
  2  3  1  0  0  0  0
  2  4  1  0  0  0  0
  2  5  1  0  0  0  0
  1  2  1  0  0  0  0
 24 25  2  0  0  0  0
 24 26  1  0  0  0  0
 20 21  1  0  0  0  0
 20 22  1  0  0  0  0
 20 23  1  0  0  0  0
 17 18  1  0  0  0  0
 17 19  1  0  0  0  0
 17 20  1  0  0  0  0
 13 14  1  0  0  0  0
 13 15  1  0  0  0  0
 13 16  1  0  0  0  0
 11 12  1  0  0  0  0
 11 13  1  0  0  0  0
 11 17  1  0  0  0  0
  9 10  1  0  0  0  0
  9 11  1  0  0  0  0
  9 24  1  0  0  0  0
  7  8  1  0  0  0  0
  7  9  1  0  0  0  0
 28 29  1  0  0  0  0
 28 30  1  0  0  0  0
 28 31  1  0  0  0  0
 26 27  1  0  0  0  0
 26 28  1  0  0  0  0
M  END
$$$$
default_name
  -OEChem-02102213163D

 31 30  0     1  0  0  0  0  0999 V2000
   -3.0760   -3.6390    1.5496 H   0  0  0  0  0  0  0  0  0  0  0  0
   -3.0940   -2.6290    1.1426 C   0  0  0  0  0  0  0  0  0  0  0  0
   -3.7160   -1.9930    1.7706 H   0  0  0  0  0  0  0  0  0  0  0  0
   -3.4880   -2.6500    0.1286 H   0  0  0  0  0  0  0  0  0  0  0  0
   -1.6860   -2.0850    1.1196 C   0  0  0  0  0  0  0  0  0  0  0  0
   -0.7540   -2.7700    1.5226 O   0  0  0  0  0  0  0  0  0  0  0  0
   -1.5320   -0.8490    0.6496 N   0  0  0  0  0  0  0  0  0  0  0  0
   -2.3500   -0.3360    0.3566 H   0  0  0  0  0  0  0  0  0  0  0  0
   -0.2470   -0.1410    0.5576 C   0  0  1  0  0  0  0  0  0  0  0  0
    0.4572   -0.6505    1.2162 H   0  0  0  0  0  0  0  0  0  0  0  0
    0.3091   -0.2220   -0.8868 C   0  0  1  0  0  0  0  0  0  0  0  0
   -0.1228    0.6109   -1.4450 H   0  0  0  0  0  0  0  0  0  0  0  0
    1.8419   -0.0747   -0.9363 C   0  0  0  0  0  0  0  0  0  0  0  0
    2.3253   -0.9268   -0.4551 H   0  0  0  0  0  0  0  0  0  0  0  0
    2.1825   -0.0088   -1.9684 H   0  0  0  0  0  0  0  0  0  0  0  0
    2.1492    0.8386   -0.4255 H   0  0  0  0  0  0  0  0  0  0  0  0
   -0.1428   -1.5257   -1.5823 C   0  0  0  0  0  0  0  0  0  0  0  0
    0.1885   -2.3897   -1.0048 H   0  0  0  0  0  0  0  0  0  0  0  0
   -1.2318   -1.5406   -1.6257 H   0  0  0  0  0  0  0  0  0  0  0  0
    0.3746   -1.6698   -3.0199 C   0  0  0  0  0  0  0  0  0  0  0  0
    1.4599   -1.7682   -3.0275 H   0  0  0  0  0  0  0  0  0  0  0  0
   -0.0577   -2.5640   -3.4696 H   0  0  0  0  0  0  0  0  0  0  0  0
    0.0833   -0.8003   -3.6102 H   0  0  0  0  0  0  0  0  0  0  0  0
   -0.3971    1.3008    1.0689 C   0  0  0  0  0  0  0  0  0  0  0  0
   -1.3643    1.9819    0.7311 O   0  0  0  0  0  0  0  0  0  0  0  0
    0.5522    1.7647    1.8915 N   0  0  0  0  0  0  0  0  0  0  0  0
    1.3093    1.1450    2.1332 H   0  0  0  0  0  0  0  0  0  0  0  0
    0.5577    3.1119    2.4582 C   0  0  0  0  0  0  0  0  0  0  0  0
   -0.3986    3.3098    2.9475 H   0  0  0  0  0  0  0  0  0  0  0  0
    1.3619    3.2123    3.1886 H   0  0  0  0  0  0  0  0  0  0  0  0
    0.6974    3.8450    1.6614 H   0  0  0  0  0  0  0  0  0  0  0  0
  5  6  2  0  0  0  0
  5  7  1  0  0  0  0
  2  3  1  0  0  0  0
  2  4  1  0  0  0  0
  2  5  1  0  0  0  0
  1  2  1  0  0  0  0
 24 25  2  0  0  0  0
 24 26  1  0  0  0  0
 20 21  1  0  0  0  0
 20 22  1  0  0  0  0
 20 23  1  0  0  0  0
 17 18  1  0  0  0  0
 17 19  1  0  0  0  0
 17 20  1  0  0  0  0
 13 14  1  0  0  0  0
 13 15  1  0  0  0  0
 13 16  1  0  0  0  0
 11 12  1  0  0  0  0
 11 13  1  0  0  0  0
 11 17  1  0  0  0  0
  9 10  1  0  0  0  0
  9 11  1  0  0  0  0
  9 24  1  0  0  0  0
  7  8  1  0  0  0  0
  7  9  1  0  0  0  0
 28 29  1  0  0  0  0
 28 30  1  0  0  0  0
 28 31  1  0  0  0  0
 26 27  1  0  0  0  0
 26 28  1  0  0  0  0
M  END
$$$$
default_name
  -OEChem-02102213163D

 31 30  0     1  0  0  0  0  0999 V2000
   -3.0760   -3.6390    1.5496 H   0  0  0  0  0  0  0  0  0  0  0  0
   -3.0940   -2.6290    1.1426 C   0  0  0  0  0  0  0  0  0  0  0  0
   -3.7160   -1.9930    1.7706 H   0  0  0  0  0  0  0  0  0  0  0  0
   -3.4880   -2.6500    0.1286 H   0  0  0  0  0  0  0  0  0  0  0  0
   -1.6860   -2.0850    1.1196 C   0  0  0  0  0  0  0  0  0  0  0  0
   -0.7540   -2.7700    1.5226 O   0  0  0  0  0  0  0  0  0  0  0  0
   -1.5320   -0.8490    0.6496 N   0  0  0  0  0  0  0  0  0  0  0  0
   -2.3500   -0.3360    0.3566 H   0  0  0  0  0  0  0  0  0  0  0  0
   -0.2470   -0.1410    0.5576 C   0  0  1  0  0  0  0  0  0  0  0  0
    0.4572   -0.6505    1.2162 H   0  0  0  0  0  0  0  0  0  0  0  0
    0.3091   -0.2220   -0.8868 C   0  0  1  0  0  0  0  0  0  0  0  0
   -0.1228    0.6109   -1.4450 H   0  0  0  0  0  0  0  0  0  0  0  0
    1.8419   -0.0747   -0.9363 C   0  0  0  0  0  0  0  0  0  0  0  0
    2.3253   -0.9268   -0.4551 H   0  0  0  0  0  0  0  0  0  0  0  0
    2.1825   -0.0088   -1.9684 H   0  0  0  0  0  0  0  0  0  0  0  0
    2.1492    0.8386   -0.4255 H   0  0  0  0  0  0  0  0  0  0  0  0
   -0.1428   -1.5257   -1.5823 C   0  0  0  0  0  0  0  0  0  0  0  0
   -0.0532   -2.3659   -0.8924 H   0  0  0  0  0  0  0  0  0  0  0  0
   -1.1905   -1.4266   -1.8663 H   0  0  0  0  0  0  0  0  0  0  0  0
    0.6479   -1.8518   -2.8565 C   0  0  0  0  0  0  0  0  0  0  0  0
    1.6888   -2.0672   -2.6159 H   0  0  0  0  0  0  0  0  0  0  0  0
    0.2136   -2.7303   -3.3342 H   0  0  0  0  0  0  0  0  0  0  0  0
    0.6006   -1.0116   -3.5502 H   0  0  0  0  0  0  0  0  0  0  0  0
   -0.3971    1.3008    1.0689 C   0  0  0  0  0  0  0  0  0  0  0  0
   -1.3643    1.9819    0.7311 O   0  0  0  0  0  0  0  0  0  0  0  0
    0.5522    1.7647    1.8915 N   0  0  0  0  0  0  0  0  0  0  0  0
    1.3093    1.1450    2.1332 H   0  0  0  0  0  0  0  0  0  0  0  0
    0.5577    3.1119    2.4582 C   0  0  0  0  0  0  0  0  0  0  0  0
   -0.3986    3.3098    2.9475 H   0  0  0  0  0  0  0  0  0  0  0  0
    1.3619    3.2123    3.1886 H   0  0  0  0  0  0  0  0  0  0  0  0
    0.6974    3.8450    1.6614 H   0  0  0  0  0  0  0  0  0  0  0  0
  5  6  2  0  0  0  0
  5  7  1  0  0  0  0
  2  3  1  0  0  0  0
  2  4  1  0  0  0  0
  2  5  1  0  0  0  0
  1  2  1  0  0  0  0
 24 25  2  0  0  0  0
 24 26  1  0  0  0  0
 20 21  1  0  0  0  0
 20 22  1  0  0  0  0
 20 23  1  0  0  0  0
 17 18  1  0  0  0  0
 17 19  1  0  0  0  0
 17 20  1  0  0  0  0
 13 14  1  0  0  0  0
 13 15  1  0  0  0  0
 13 16  1  0  0  0  0
 11 12  1  0  0  0  0
 11 13  1  0  0  0  0
 11 17  1  0  0  0  0
  9 10  1  0  0  0  0
  9 11  1  0  0  0  0
  9 24  1  0  0  0  0
  7  8  1  0  0  0  0
  7  9  1  0  0  0  0
 28 29  1  0  0  0  0
 28 30  1  0  0  0  0
 28 31  1  0  0  0  0
 26 27  1  0  0  0  0
 26 28  1  0  0  0  0
M  END
$$$$
default_name
  -OEChem-02102213163D

 31 30  0     1  0  0  0  0  0999 V2000
   -3.0760   -3.6390    1.5496 H   0  0  0  0  0  0  0  0  0  0  0  0
   -3.0940   -2.6290    1.1426 C   0  0  0  0  0  0  0  0  0  0  0  0
   -3.7160   -1.9930    1.7706 H   0  0  0  0  0  0  0  0  0  0  0  0
   -3.4880   -2.6500    0.1286 H   0  0  0  0  0  0  0  0  0  0  0  0
   -1.6860   -2.0850    1.1196 C   0  0  0  0  0  0  0  0  0  0  0  0
   -0.7540   -2.7700    1.5226 O   0  0  0  0  0  0  0  0  0  0  0  0
   -1.5320   -0.8490    0.6496 N   0  0  0  0  0  0  0  0  0  0  0  0
   -2.3500   -0.3360    0.3566 H   0  0  0  0  0  0  0  0  0  0  0  0
   -0.2470   -0.1410    0.5576 C   0  0  1  0  0  0  0  0  0  0  0  0
    0.4572   -0.6505    1.2162 H   0  0  0  0  0  0  0  0  0  0  0  0
    0.3091   -0.2220   -0.8868 C   0  0  1  0  0  0  0  0  0  0  0  0
   -0.1228    0.6109   -1.4450 H   0  0  0  0  0  0  0  0  0  0  0  0
    1.8419   -0.0747   -0.9363 C   0  0  0  0  0  0  0  0  0  0  0  0
    2.3253   -0.9268   -0.4551 H   0  0  0  0  0  0  0  0  0  0  0  0
    2.1825   -0.0088   -1.9684 H   0  0  0  0  0  0  0  0  0  0  0  0
    2.1492    0.8386   -0.4255 H   0  0  0  0  0  0  0  0  0  0  0  0
   -0.1428   -1.5257   -1.5823 C   0  0  0  0  0  0  0  0  0  0  0  0
   -0.3085   -2.3061   -0.8385 H   0  0  0  0  0  0  0  0  0  0  0  0
   -1.0847   -1.3395   -2.0983 H   0  0  0  0  0  0  0  0  0  0  0  0
    0.8551   -2.0470   -2.6252 C   0  0  0  0  0  0  0  0  0  0  0  0
    1.7852   -2.3514   -2.1456 H   0  0  0  0  0  0  0  0  0  0  0  0
    0.4267   -2.9123   -3.1315 H   0  0  0  0  0  0  0  0  0  0  0  0
    1.0625   -1.2715   -3.3634 H   0  0  0  0  0  0  0  0  0  0  0  0
   -0.3971    1.3008    1.0689 C   0  0  0  0  0  0  0  0  0  0  0  0
   -1.3643    1.9819    0.7311 O   0  0  0  0  0  0  0  0  0  0  0  0
    0.5522    1.7647    1.8915 N   0  0  0  0  0  0  0  0  0  0  0  0
    1.3093    1.1450    2.1332 H   0  0  0  0  0  0  0  0  0  0  0  0
    0.5577    3.1119    2.4582 C   0  0  0  0  0  0  0  0  0  0  0  0
   -0.3986    3.3098    2.9475 H   0  0  0  0  0  0  0  0  0  0  0  0
    1.3619    3.2123    3.1886 H   0  0  0  0  0  0  0  0  0  0  0  0
    0.6974    3.8450    1.6614 H   0  0  0  0  0  0  0  0  0  0  0  0
  5  6  2  0  0  0  0
  5  7  1  0  0  0  0
  2  3  1  0  0  0  0
  2  4  1  0  0  0  0
  2  5  1  0  0  0  0
  1  2  1  0  0  0  0
 24 25  2  0  0  0  0
 24 26  1  0  0  0  0
 20 21  1  0  0  0  0
 20 22  1  0  0  0  0
 20 23  1  0  0  0  0
 17 18  1  0  0  0  0
 17 19  1  0  0  0  0
 17 20  1  0  0  0  0
 13 14  1  0  0  0  0
 13 15  1  0  0  0  0
 13 16  1  0  0  0  0
 11 12  1  0  0  0  0
 11 13  1  0  0  0  0
 11 17  1  0  0  0  0
  9 10  1  0  0  0  0
  9 11  1  0  0  0  0
  9 24  1  0  0  0  0
  7  8  1  0  0  0  0
  7  9  1  0  0  0  0
 28 29  1  0  0  0  0
 28 30  1  0  0  0  0
 28 31  1  0  0  0  0
 26 27  1  0  0  0  0
 26 28  1  0  0  0  0
M  END
$$$$
default_name
  -OEChem-02102213163D

 31 30  0     1  0  0  0  0  0999 V2000
   -3.0760   -3.6390    1.5496 H   0  0  0  0  0  0  0  0  0  0  0  0
   -3.0940   -2.6290    1.1426 C   0  0  0  0  0  0  0  0  0  0  0  0
   -3.7160   -1.9930    1.7706 H   0  0  0  0  0  0  0  0  0  0  0  0
   -3.4880   -2.6500    0.1286 H   0  0  0  0  0  0  0  0  0  0  0  0
   -1.6860   -2.0850    1.1196 C   0  0  0  0  0  0  0  0  0  0  0  0
   -0.7540   -2.7700    1.5226 O   0  0  0  0  0  0  0  0  0  0  0  0
   -1.5320   -0.8490    0.6496 N   0  0  0  0  0  0  0  0  0  0  0  0
   -2.3500   -0.3360    0.3566 H   0  0  0  0  0  0  0  0  0  0  0  0
   -0.2470   -0.1410    0.5576 C   0  0  1  0  0  0  0  0  0  0  0  0
    0.4572   -0.6505    1.2162 H   0  0  0  0  0  0  0  0  0  0  0  0
    0.3091   -0.2220   -0.8868 C   0  0  1  0  0  0  0  0  0  0  0  0
   -0.1228    0.6109   -1.4450 H   0  0  0  0  0  0  0  0  0  0  0  0
    1.8419   -0.0747   -0.9363 C   0  0  0  0  0  0  0  0  0  0  0  0
    2.3253   -0.9268   -0.4551 H   0  0  0  0  0  0  0  0  0  0  0  0
    2.1825   -0.0088   -1.9684 H   0  0  0  0  0  0  0  0  0  0  0  0
    2.1492    0.8386   -0.4255 H   0  0  0  0  0  0  0  0  0  0  0  0
   -0.1428   -1.5257   -1.5823 C   0  0  0  0  0  0  0  0  0  0  0  0
   -0.5599   -2.2146   -0.8466 H   0  0  0  0  0  0  0  0  0  0  0  0
   -0.9218   -1.2852   -2.3058 H   0  0  0  0  0  0  0  0  0  0  0  0
    0.9819   -2.2422   -2.3418 C   0  0  0  0  0  0  0  0  0  0  0  0
    1.7424   -2.6016   -1.6488 H   0  0  0  0  0  0  0  0  0  0  0  0
    0.5672   -3.0976   -2.8754 H   0  0  0  0  0  0  0  0  0  0  0  0
    1.4376   -1.5621   -3.0623 H   0  0  0  0  0  0  0  0  0  0  0  0
   -0.3971    1.3008    1.0689 C   0  0  0  0  0  0  0  0  0  0  0  0
   -1.3643    1.9819    0.7311 O   0  0  0  0  0  0  0  0  0  0  0  0
    0.5522    1.7647    1.8915 N   0  0  0  0  0  0  0  0  0  0  0  0
    1.3093    1.1450    2.1332 H   0  0  0  0  0  0  0  0  0  0  0  0
    0.5577    3.1119    2.4582 C   0  0  0  0  0  0  0  0  0  0  0  0
   -0.3986    3.3098    2.9475 H   0  0  0  0  0  0  0  0  0  0  0  0
    1.3619    3.2123    3.1886 H   0  0  0  0  0  0  0  0  0  0  0  0
    0.6974    3.8450    1.6614 H   0  0  0  0  0  0  0  0  0  0  0  0
  5  6  2  0  0  0  0
  5  7  1  0  0  0  0
  2  3  1  0  0  0  0
  2  4  1  0  0  0  0
  2  5  1  0  0  0  0
  1  2  1  0  0  0  0
 24 25  2  0  0  0  0
 24 26  1  0  0  0  0
 20 21  1  0  0  0  0
 20 22  1  0  0  0  0
 20 23  1  0  0  0  0
 17 18  1  0  0  0  0
 17 19  1  0  0  0  0
 17 20  1  0  0  0  0
 13 14  1  0  0  0  0
 13 15  1  0  0  0  0
 13 16  1  0  0  0  0
 11 12  1  0  0  0  0
 11 13  1  0  0  0  0
 11 17  1  0  0  0  0
  9 10  1  0  0  0  0
  9 11  1  0  0  0  0
  9 24  1  0  0  0  0
  7  8  1  0  0  0  0
  7  9  1  0  0  0  0
 28 29  1  0  0  0  0
 28 30  1  0  0  0  0
 28 31  1  0  0  0  0
 26 27  1  0  0  0  0
 26 28  1  0  0  0  0
M  END
$$$$
default_name
  -OEChem-02102213163D

 31 30  0     1  0  0  0  0  0999 V2000
   -3.0760   -3.6390    1.5496 H   0  0  0  0  0  0  0  0  0  0  0  0
   -3.0940   -2.6290    1.1426 C   0  0  0  0  0  0  0  0  0  0  0  0
   -3.7160   -1.9930    1.7706 H   0  0  0  0  0  0  0  0  0  0  0  0
   -3.4880   -2.6500    0.1286 H   0  0  0  0  0  0  0  0  0  0  0  0
   -1.6860   -2.0850    1.1196 C   0  0  0  0  0  0  0  0  0  0  0  0
   -0.7540   -2.7700    1.5226 O   0  0  0  0  0  0  0  0  0  0  0  0
   -1.5320   -0.8490    0.6496 N   0  0  0  0  0  0  0  0  0  0  0  0
   -2.3500   -0.3360    0.3566 H   0  0  0  0  0  0  0  0  0  0  0  0
   -0.2470   -0.1410    0.5576 C   0  0  1  0  0  0  0  0  0  0  0  0
    0.4572   -0.6505    1.2162 H   0  0  0  0  0  0  0  0  0  0  0  0
    0.3091   -0.2220   -0.8868 C   0  0  1  0  0  0  0  0  0  0  0  0
   -0.1228    0.6109   -1.4450 H   0  0  0  0  0  0  0  0  0  0  0  0
    1.8419   -0.0747   -0.9363 C   0  0  0  0  0  0  0  0  0  0  0  0
    2.3253   -0.9268   -0.4551 H   0  0  0  0  0  0  0  0  0  0  0  0
    2.1825   -0.0088   -1.9684 H   0  0  0  0  0  0  0  0  0  0  0  0
    2.1492    0.8386   -0.4255 H   0  0  0  0  0  0  0  0  0  0  0  0
   -0.1428   -1.5257   -1.5823 C   0  0  0  0  0  0  0  0  0  0  0  0
   -0.7904   -2.0976   -0.9163 H   0  0  0  0  0  0  0  0  0  0  0  0
   -0.7127   -1.2676   -2.4749 H   0  0  0  0  0  0  0  0  0  0  0  0
    1.0198   -2.4240   -2.0255 C   0  0  0  0  0  0  0  0  0  0  0  0
    1.5635   -2.8007   -1.1593 H   0  0  0  0  0  0  0  0  0  0  0  0
    0.6253   -3.2735   -2.5834 H   0  0  0  0  0  0  0  0  0  0  0  0
    1.7004   -1.8638   -2.6676 H   0  0  0  0  0  0  0  0  0  0  0  0
   -0.3971    1.3008    1.0689 C   0  0  0  0  0  0  0  0  0  0  0  0
   -1.3643    1.9819    0.7311 O   0  0  0  0  0  0  0  0  0  0  0  0
    0.5522    1.7647    1.8915 N   0  0  0  0  0  0  0  0  0  0  0  0
    1.3093    1.1450    2.1332 H   0  0  0  0  0  0  0  0  0  0  0  0
    0.5577    3.1119    2.4582 C   0  0  0  0  0  0  0  0  0  0  0  0
   -0.3986    3.3098    2.9475 H   0  0  0  0  0  0  0  0  0  0  0  0
    1.3619    3.2123    3.1886 H   0  0  0  0  0  0  0  0  0  0  0  0
    0.6974    3.8450    1.6614 H   0  0  0  0  0  0  0  0  0  0  0  0
  5  6  2  0  0  0  0
  5  7  1  0  0  0  0
  2  3  1  0  0  0  0
  2  4  1  0  0  0  0
  2  5  1  0  0  0  0
  1  2  1  0  0  0  0
 24 25  2  0  0  0  0
 24 26  1  0  0  0  0
 20 21  1  0  0  0  0
 20 22  1  0  0  0  0
 20 23  1  0  0  0  0
 17 18  1  0  0  0  0
 17 19  1  0  0  0  0
 17 20  1  0  0  0  0
 13 14  1  0  0  0  0
 13 15  1  0  0  0  0
 13 16  1  0  0  0  0
 11 12  1  0  0  0  0
 11 13  1  0  0  0  0
 11 17  1  0  0  0  0
  9 10  1  0  0  0  0
  9 11  1  0  0  0  0
  9 24  1  0  0  0  0
  7  8  1  0  0  0  0
  7  9  1  0  0  0  0
 28 29  1  0  0  0  0
 28 30  1  0  0  0  0
 28 31  1  0  0  0  0
 26 27  1  0  0  0  0
 26 28  1  0  0  0  0
M  END
$$$$
default_name
  -OEChem-02102213163D

 31 30  0     1  0  0  0  0  0999 V2000
   -3.0760   -3.6390    1.5496 H   0  0  0  0  0  0  0  0  0  0  0  0
   -3.0940   -2.6290    1.1426 C   0  0  0  0  0  0  0  0  0  0  0  0
   -3.7160   -1.9930    1.7706 H   0  0  0  0  0  0  0  0  0  0  0  0
   -3.4880   -2.6500    0.1286 H   0  0  0  0  0  0  0  0  0  0  0  0
   -1.6860   -2.0850    1.1196 C   0  0  0  0  0  0  0  0  0  0  0  0
   -0.7540   -2.7700    1.5226 O   0  0  0  0  0  0  0  0  0  0  0  0
   -1.5320   -0.8490    0.6496 N   0  0  0  0  0  0  0  0  0  0  0  0
   -2.3500   -0.3360    0.3566 H   0  0  0  0  0  0  0  0  0  0  0  0
   -0.2470   -0.1410    0.5576 C   0  0  1  0  0  0  0  0  0  0  0  0
    0.4572   -0.6505    1.2162 H   0  0  0  0  0  0  0  0  0  0  0  0
    0.3091   -0.2220   -0.8868 C   0  0  1  0  0  0  0  0  0  0  0  0
   -0.1228    0.6109   -1.4450 H   0  0  0  0  0  0  0  0  0  0  0  0
    1.8419   -0.0747   -0.9363 C   0  0  0  0  0  0  0  0  0  0  0  0
    2.3253   -0.9268   -0.4551 H   0  0  0  0  0  0  0  0  0  0  0  0
    2.1825   -0.0088   -1.9684 H   0  0  0  0  0  0  0  0  0  0  0  0
    2.1492    0.8386   -0.4255 H   0  0  0  0  0  0  0  0  0  0  0  0
   -0.1428   -1.5257   -1.5823 C   0  0  0  0  0  0  0  0  0  0  0  0
   -0.9841   -1.9629   -1.0428 H   0  0  0  0  0  0  0  0  0  0  0  0
   -0.4718   -1.2876   -2.5938 H   0  0  0  0  0  0  0  0  0  0  0  0
    0.9662   -2.5802   -1.6980 C   0  0  0  0  0  0  0  0  0  0  0  0
    1.2606   -2.9352   -0.7105 H   0  0  0  0  0  0  0  0  0  0  0  0
    0.5971   -3.4282   -2.2753 H   0  0  0  0  0  0  0  0  0  0  0  0
    1.8328   -2.1559   -2.2061 H   0  0  0  0  0  0  0  0  0  0  0  0
   -0.3971    1.3008    1.0689 C   0  0  0  0  0  0  0  0  0  0  0  0
   -1.3643    1.9819    0.7311 O   0  0  0  0  0  0  0  0  0  0  0  0
    0.5522    1.7647    1.8915 N   0  0  0  0  0  0  0  0  0  0  0  0
    1.3093    1.1450    2.1332 H   0  0  0  0  0  0  0  0  0  0  0  0
    0.5577    3.1119    2.4582 C   0  0  0  0  0  0  0  0  0  0  0  0
   -0.3986    3.3098    2.9475 H   0  0  0  0  0  0  0  0  0  0  0  0
    1.3619    3.2123    3.1886 H   0  0  0  0  0  0  0  0  0  0  0  0
    0.6974    3.8450    1.6614 H   0  0  0  0  0  0  0  0  0  0  0  0
  5  6  2  0  0  0  0
  5  7  1  0  0  0  0
  2  3  1  0  0  0  0
  2  4  1  0  0  0  0
  2  5  1  0  0  0  0
  1  2  1  0  0  0  0
 24 25  2  0  0  0  0
 24 26  1  0  0  0  0
 20 21  1  0  0  0  0
 20 22  1  0  0  0  0
 20 23  1  0  0  0  0
 17 18  1  0  0  0  0
 17 19  1  0  0  0  0
 17 20  1  0  0  0  0
 13 14  1  0  0  0  0
 13 15  1  0  0  0  0
 13 16  1  0  0  0  0
 11 12  1  0  0  0  0
 11 13  1  0  0  0  0
 11 17  1  0  0  0  0
  9 10  1  0  0  0  0
  9 11  1  0  0  0  0
  9 24  1  0  0  0  0
  7  8  1  0  0  0  0
  7  9  1  0  0  0  0
 28 29  1  0  0  0  0
 28 30  1  0  0  0  0
 28 31  1  0  0  0  0
 26 27  1  0  0  0  0
 26 28  1  0  0  0  0
M  END
$$$$
default_name
  -OEChem-02102213163D

 31 30  0     1  0  0  0  0  0999 V2000
   -3.0760   -3.6390    1.5496 H   0  0  0  0  0  0  0  0  0  0  0  0
   -3.0940   -2.6290    1.1426 C   0  0  0  0  0  0  0  0  0  0  0  0
   -3.7160   -1.9930    1.7706 H   0  0  0  0  0  0  0  0  0  0  0  0
   -3.4880   -2.6500    0.1286 H   0  0  0  0  0  0  0  0  0  0  0  0
   -1.6860   -2.0850    1.1196 C   0  0  0  0  0  0  0  0  0  0  0  0
   -0.7540   -2.7700    1.5226 O   0  0  0  0  0  0  0  0  0  0  0  0
   -1.5320   -0.8490    0.6496 N   0  0  0  0  0  0  0  0  0  0  0  0
   -2.3500   -0.3360    0.3566 H   0  0  0  0  0  0  0  0  0  0  0  0
   -0.2470   -0.1410    0.5576 C   0  0  1  0  0  0  0  0  0  0  0  0
    0.4572   -0.6505    1.2162 H   0  0  0  0  0  0  0  0  0  0  0  0
    0.3091   -0.2220   -0.8868 C   0  0  1  0  0  0  0  0  0  0  0  0
   -0.1228    0.6109   -1.4450 H   0  0  0  0  0  0  0  0  0  0  0  0
    1.8419   -0.0747   -0.9363 C   0  0  0  0  0  0  0  0  0  0  0  0
    2.3253   -0.9268   -0.4551 H   0  0  0  0  0  0  0  0  0  0  0  0
    2.1825   -0.0088   -1.9684 H   0  0  0  0  0  0  0  0  0  0  0  0
    2.1492    0.8386   -0.4255 H   0  0  0  0  0  0  0  0  0  0  0  0
   -0.1428   -1.5257   -1.5823 C   0  0  0  0  0  0  0  0  0  0  0  0
   -1.1278   -1.8199   -1.2175 H   0  0  0  0  0  0  0  0  0  0  0  0
   -0.2155   -1.3441   -2.6546 H   0  0  0  0  0  0  0  0  0  0  0  0
    0.8247   -2.6999   -1.3815 C   0  0  0  0  0  0  0  0  0  0  0  0
    0.8544   -2.9957   -0.3330 H   0  0  0  0  0  0  0  0  0  0  0  0
    0.4847   -3.5509   -1.9722 H   0  0  0  0  0  0  0  0  0  0  0  0
    1.8260   -2.4186   -1.7093 H   0  0  0  0  0  0  0  0  0  0  0  0
   -0.3971    1.3008    1.0689 C   0  0  0  0  0  0  0  0  0  0  0  0
   -1.3643    1.9819    0.7311 O   0  0  0  0  0  0  0  0  0  0  0  0
    0.5522    1.7647    1.8915 N   0  0  0  0  0  0  0  0  0  0  0  0
    1.3093    1.1450    2.1332 H   0  0  0  0  0  0  0  0  0  0  0  0
    0.5577    3.1119    2.4582 C   0  0  0  0  0  0  0  0  0  0  0  0
   -0.3986    3.3098    2.9475 H   0  0  0  0  0  0  0  0  0  0  0  0
    1.3619    3.2123    3.1886 H   0  0  0  0  0  0  0  0  0  0  0  0
    0.6974    3.8450    1.6614 H   0  0  0  0  0  0  0  0  0  0  0  0
  5  6  2  0  0  0  0
  5  7  1  0  0  0  0
  2  3  1  0  0  0  0
  2  4  1  0  0  0  0
  2  5  1  0  0  0  0
  1  2  1  0  0  0  0
 24 25  2  0  0  0  0
 24 26  1  0  0  0  0
 20 21  1  0  0  0  0
 20 22  1  0  0  0  0
 20 23  1  0  0  0  0
 17 18  1  0  0  0  0
 17 19  1  0  0  0  0
 17 20  1  0  0  0  0
 13 14  1  0  0  0  0
 13 15  1  0  0  0  0
 13 16  1  0  0  0  0
 11 12  1  0  0  0  0
 11 13  1  0  0  0  0
 11 17  1  0  0  0  0
  9 10  1  0  0  0  0
  9 11  1  0  0  0  0
  9 24  1  0  0  0  0
  7  8  1  0  0  0  0
  7  9  1  0  0  0  0
 28 29  1  0  0  0  0
 28 30  1  0  0  0  0
 28 31  1  0  0  0  0
 26 27  1  0  0  0  0
 26 28  1  0  0  0  0
M  END
$$$$
default_name
  -OEChem-02102213163D

 31 30  0     1  0  0  0  0  0999 V2000
   -3.0760   -3.6390    1.5496 H   0  0  0  0  0  0  0  0  0  0  0  0
   -3.0940   -2.6290    1.1426 C   0  0  0  0  0  0  0  0  0  0  0  0
   -3.7160   -1.9930    1.7706 H   0  0  0  0  0  0  0  0  0  0  0  0
   -3.4880   -2.6500    0.1286 H   0  0  0  0  0  0  0  0  0  0  0  0
   -1.6860   -2.0850    1.1196 C   0  0  0  0  0  0  0  0  0  0  0  0
   -0.7540   -2.7700    1.5226 O   0  0  0  0  0  0  0  0  0  0  0  0
   -1.5320   -0.8490    0.6496 N   0  0  0  0  0  0  0  0  0  0  0  0
   -2.3500   -0.3360    0.3566 H   0  0  0  0  0  0  0  0  0  0  0  0
   -0.2470   -0.1410    0.5576 C   0  0  1  0  0  0  0  0  0  0  0  0
    0.4572   -0.6505    1.2162 H   0  0  0  0  0  0  0  0  0  0  0  0
    0.3091   -0.2220   -0.8868 C   0  0  1  0  0  0  0  0  0  0  0  0
   -0.1228    0.6109   -1.4450 H   0  0  0  0  0  0  0  0  0  0  0  0
    1.8419   -0.0747   -0.9363 C   0  0  0  0  0  0  0  0  0  0  0  0
    2.3253   -0.9268   -0.4551 H   0  0  0  0  0  0  0  0  0  0  0  0
    2.1825   -0.0088   -1.9684 H   0  0  0  0  0  0  0  0  0  0  0  0
    2.1492    0.8386   -0.4255 H   0  0  0  0  0  0  0  0  0  0  0  0
   -0.1428   -1.5257   -1.5823 C   0  0  0  0  0  0  0  0  0  0  0  0
   -1.2119   -1.6782   -1.4285 H   0  0  0  0  0  0  0  0  0  0  0  0
    0.0388   -1.4331   -2.6530 H   0  0  0  0  0  0  0  0  0  0  0  0
    0.6049   -2.7752   -1.0976 C   0  0  0  0  0  0  0  0  0  0  0  0
    0.3725   -2.9783   -0.0524 H   0  0  0  0  0  0  0  0  0  0  0  0
    0.2956   -3.6334   -1.6946 H   0  0  0  0  0  0  0  0  0  0  0  0
    1.6803   -2.6339   -1.2111 H   0  0  0  0  0  0  0  0  0  0  0  0
   -0.3971    1.3008    1.0689 C   0  0  0  0  0  0  0  0  0  0  0  0
   -1.3643    1.9819    0.7311 O   0  0  0  0  0  0  0  0  0  0  0  0
    0.5522    1.7647    1.8915 N   0  0  0  0  0  0  0  0  0  0  0  0
    1.3093    1.1450    2.1332 H   0  0  0  0  0  0  0  0  0  0  0  0
    0.5577    3.1119    2.4582 C   0  0  0  0  0  0  0  0  0  0  0  0
   -0.3986    3.3098    2.9475 H   0  0  0  0  0  0  0  0  0  0  0  0
    1.3619    3.2123    3.1886 H   0  0  0  0  0  0  0  0  0  0  0  0
    0.6974    3.8450    1.6614 H   0  0  0  0  0  0  0  0  0  0  0  0
  5  6  2  0  0  0  0
  5  7  1  0  0  0  0
  2  3  1  0  0  0  0
  2  4  1  0  0  0  0
  2  5  1  0  0  0  0
  1  2  1  0  0  0  0
 24 25  2  0  0  0  0
 24 26  1  0  0  0  0
 20 21  1  0  0  0  0
 20 22  1  0  0  0  0
 20 23  1  0  0  0  0
 17 18  1  0  0  0  0
 17 19  1  0  0  0  0
 17 20  1  0  0  0  0
 13 14  1  0  0  0  0
 13 15  1  0  0  0  0
 13 16  1  0  0  0  0
 11 12  1  0  0  0  0
 11 13  1  0  0  0  0
 11 17  1  0  0  0  0
  9 10  1  0  0  0  0
  9 11  1  0  0  0  0
  9 24  1  0  0  0  0
  7  8  1  0  0  0  0
  7  9  1  0  0  0  0
 28 29  1  0  0  0  0
 28 30  1  0  0  0  0
 28 31  1  0  0  0  0
 26 27  1  0  0  0  0
 26 28  1  0  0  0  0
M  END
$$$$
default_name
  -OEChem-02102213163D

 31 30  0     1  0  0  0  0  0999 V2000
   -3.0760   -3.6390    1.5496 H   0  0  0  0  0  0  0  0  0  0  0  0
   -3.0940   -2.6290    1.1426 C   0  0  0  0  0  0  0  0  0  0  0  0
   -3.7160   -1.9930    1.7706 H   0  0  0  0  0  0  0  0  0  0  0  0
   -3.4880   -2.6500    0.1286 H   0  0  0  0  0  0  0  0  0  0  0  0
   -1.6860   -2.0850    1.1196 C   0  0  0  0  0  0  0  0  0  0  0  0
   -0.7540   -2.7700    1.5226 O   0  0  0  0  0  0  0  0  0  0  0  0
   -1.5320   -0.8490    0.6496 N   0  0  0  0  0  0  0  0  0  0  0  0
   -2.3500   -0.3360    0.3566 H   0  0  0  0  0  0  0  0  0  0  0  0
   -0.2470   -0.1410    0.5576 C   0  0  1  0  0  0  0  0  0  0  0  0
    0.4572   -0.6505    1.2162 H   0  0  0  0  0  0  0  0  0  0  0  0
    0.3091   -0.2220   -0.8868 C   0  0  1  0  0  0  0  0  0  0  0  0
   -0.1228    0.6109   -1.4450 H   0  0  0  0  0  0  0  0  0  0  0  0
    1.8419   -0.0747   -0.9363 C   0  0  0  0  0  0  0  0  0  0  0  0
    2.3253   -0.9268   -0.4551 H   0  0  0  0  0  0  0  0  0  0  0  0
    2.1825   -0.0088   -1.9684 H   0  0  0  0  0  0  0  0  0  0  0  0
    2.1492    0.8386   -0.4255 H   0  0  0  0  0  0  0  0  0  0  0  0
   -0.1428   -1.5257   -1.5823 C   0  0  0  0  0  0  0  0  0  0  0  0
   -1.2306   -1.5475   -1.6613 H   0  0  0  0  0  0  0  0  0  0  0  0
    0.2737   -1.5485   -2.5893 H   0  0  0  0  0  0  0  0  0  0  0  0
    0.3218   -2.8008   -0.8657 C   0  0  0  0  0  0  0  0  0  0  0  0
   -0.1522   -2.8841    0.1121 H   0  0  0  0  0  0  0  0  0  0  0  0
    0.0427   -3.6700   -1.4616 H   0  0  0  0  0  0  0  0  0  0  0  0
    1.4056   -2.7871   -0.7453 H   0  0  0  0  0  0  0  0  0  0  0  0
   -0.3971    1.3008    1.0689 C   0  0  0  0  0  0  0  0  0  0  0  0
   -1.3643    1.9819    0.7311 O   0  0  0  0  0  0  0  0  0  0  0  0
    0.5522    1.7647    1.8915 N   0  0  0  0  0  0  0  0  0  0  0  0
    1.3093    1.1450    2.1332 H   0  0  0  0  0  0  0  0  0  0  0  0
    0.5577    3.1119    2.4582 C   0  0  0  0  0  0  0  0  0  0  0  0
   -0.3986    3.3098    2.9475 H   0  0  0  0  0  0  0  0  0  0  0  0
    1.3619    3.2123    3.1886 H   0  0  0  0  0  0  0  0  0  0  0  0
    0.6974    3.8450    1.6614 H   0  0  0  0  0  0  0  0  0  0  0  0
  5  6  2  0  0  0  0
  5  7  1  0  0  0  0
  2  3  1  0  0  0  0
  2  4  1  0  0  0  0
  2  5  1  0  0  0  0
  1  2  1  0  0  0  0
 24 25  2  0  0  0  0
 24 26  1  0  0  0  0
 20 21  1  0  0  0  0
 20 22  1  0  0  0  0
 20 23  1  0  0  0  0
 17 18  1  0  0  0  0
 17 19  1  0  0  0  0
 17 20  1  0  0  0  0
 13 14  1  0  0  0  0
 13 15  1  0  0  0  0
 13 16  1  0  0  0  0
 11 12  1  0  0  0  0
 11 13  1  0  0  0  0
 11 17  1  0  0  0  0
  9 10  1  0  0  0  0
  9 11  1  0  0  0  0
  9 24  1  0  0  0  0
  7  8  1  0  0  0  0
  7  9  1  0  0  0  0
 28 29  1  0  0  0  0
 28 30  1  0  0  0  0
 28 31  1  0  0  0  0
 26 27  1  0  0  0  0
 26 28  1  0  0  0  0
M  END
$$$$
default_name
  -OEChem-02102213163D

 31 30  0     1  0  0  0  0  0999 V2000
   -3.0760   -3.6390    1.5496 H   0  0  0  0  0  0  0  0  0  0  0  0
   -3.0940   -2.6290    1.1426 C   0  0  0  0  0  0  0  0  0  0  0  0
   -3.7160   -1.9930    1.7706 H   0  0  0  0  0  0  0  0  0  0  0  0
   -3.4880   -2.6500    0.1286 H   0  0  0  0  0  0  0  0  0  0  0  0
   -1.6860   -2.0850    1.1196 C   0  0  0  0  0  0  0  0  0  0  0  0
   -0.7540   -2.7700    1.5226 O   0  0  0  0  0  0  0  0  0  0  0  0
   -1.5320   -0.8490    0.6496 N   0  0  0  0  0  0  0  0  0  0  0  0
   -2.3500   -0.3360    0.3566 H   0  0  0  0  0  0  0  0  0  0  0  0
   -0.2470   -0.1410    0.5576 C   0  0  1  0  0  0  0  0  0  0  0  0
    0.4572   -0.6505    1.2162 H   0  0  0  0  0  0  0  0  0  0  0  0
    0.3091   -0.2220   -0.8868 C   0  0  1  0  0  0  0  0  0  0  0  0
   -0.1228    0.6109   -1.4450 H   0  0  0  0  0  0  0  0  0  0  0  0
    1.8419   -0.0747   -0.9363 C   0  0  0  0  0  0  0  0  0  0  0  0
    2.3253   -0.9268   -0.4551 H   0  0  0  0  0  0  0  0  0  0  0  0
    2.1825   -0.0088   -1.9684 H   0  0  0  0  0  0  0  0  0  0  0  0
    2.1492    0.8386   -0.4255 H   0  0  0  0  0  0  0  0  0  0  0  0
   -0.1428   -1.5257   -1.5823 C   0  0  0  0  0  0  0  0  0  0  0  0
   -1.1825   -1.4367   -1.9002 H   0  0  0  0  0  0  0  0  0  0  0  0
    0.4733   -1.6826   -2.4676 H   0  0  0  0  0  0  0  0  0  0  0  0
   -0.0052   -2.7749   -0.7016 C   0  0  0  0  0  0  0  0  0  0  0  0
   -0.6840   -2.7196    0.1492 H   0  0  0  0  0  0  0  0  0  0  0  0
   -0.2568   -3.6583   -1.2889 H   0  0  0  0  0  0  0  0  0  0  0  0
    1.0208   -2.8679   -0.3438 H   0  0  0  0  0  0  0  0  0  0  0  0
   -0.3971    1.3008    1.0689 C   0  0  0  0  0  0  0  0  0  0  0  0
   -1.3643    1.9819    0.7311 O   0  0  0  0  0  0  0  0  0  0  0  0
    0.5522    1.7647    1.8915 N   0  0  0  0  0  0  0  0  0  0  0  0
    1.3093    1.1450    2.1332 H   0  0  0  0  0  0  0  0  0  0  0  0
    0.5577    3.1119    2.4582 C   0  0  0  0  0  0  0  0  0  0  0  0
   -0.3986    3.3098    2.9475 H   0  0  0  0  0  0  0  0  0  0  0  0
    1.3619    3.2123    3.1886 H   0  0  0  0  0  0  0  0  0  0  0  0
    0.6974    3.8450    1.6614 H   0  0  0  0  0  0  0  0  0  0  0  0
  5  6  2  0  0  0  0
  5  7  1  0  0  0  0
  2  3  1  0  0  0  0
  2  4  1  0  0  0  0
  2  5  1  0  0  0  0
  1  2  1  0  0  0  0
 24 25  2  0  0  0  0
 24 26  1  0  0  0  0
 20 21  1  0  0  0  0
 20 22  1  0  0  0  0
 20 23  1  0  0  0  0
 17 18  1  0  0  0  0
 17 19  1  0  0  0  0
 17 20  1  0  0  0  0
 13 14  1  0  0  0  0
 13 15  1  0  0  0  0
 13 16  1  0  0  0  0
 11 12  1  0  0  0  0
 11 13  1  0  0  0  0
 11 17  1  0  0  0  0
  9 10  1  0  0  0  0
  9 11  1  0  0  0  0
  9 24  1  0  0  0  0
  7  8  1  0  0  0  0
  7  9  1  0  0  0  0
 28 29  1  0  0  0  0
 28 30  1  0  0  0  0
 28 31  1  0  0  0  0
 26 27  1  0  0  0  0
 26 28  1  0  0  0  0
M  END
$$$$
default_name
  -OEChem-02102213163D

 31 30  0     1  0  0  0  0  0999 V2000
   -3.0760   -3.6390    1.5496 H   0  0  0  0  0  0  0  0  0  0  0  0
   -3.0940   -2.6290    1.1426 C   0  0  0  0  0  0  0  0  0  0  0  0
   -3.7160   -1.9930    1.7706 H   0  0  0  0  0  0  0  0  0  0  0  0
   -3.4880   -2.6500    0.1286 H   0  0  0  0  0  0  0  0  0  0  0  0
   -1.6860   -2.0850    1.1196 C   0  0  0  0  0  0  0  0  0  0  0  0
   -0.7540   -2.7700    1.5226 O   0  0  0  0  0  0  0  0  0  0  0  0
   -1.5320   -0.8490    0.6496 N   0  0  0  0  0  0  0  0  0  0  0  0
   -2.3500   -0.3360    0.3566 H   0  0  0  0  0  0  0  0  0  0  0  0
   -0.2470   -0.1410    0.5576 C   0  0  1  0  0  0  0  0  0  0  0  0
    0.4572   -0.6505    1.2162 H   0  0  0  0  0  0  0  0  0  0  0  0
    0.3091   -0.2220   -0.8868 C   0  0  1  0  0  0  0  0  0  0  0  0
   -0.1228    0.6109   -1.4450 H   0  0  0  0  0  0  0  0  0  0  0  0
    1.8419   -0.0747   -0.9363 C   0  0  0  0  0  0  0  0  0  0  0  0
    2.3253   -0.9268   -0.4551 H   0  0  0  0  0  0  0  0  0  0  0  0
    2.1825   -0.0088   -1.9684 H   0  0  0  0  0  0  0  0  0  0  0  0
    2.1492    0.8386   -0.4255 H   0  0  0  0  0  0  0  0  0  0  0  0
   -0.1428   -1.5257   -1.5823 C   0  0  0  0  0  0  0  0  0  0  0  0
   -1.0710   -1.3534   -2.1288 H   0  0  0  0  0  0  0  0  0  0  0  0
    0.6238   -1.8261   -2.2964 H   0  0  0  0  0  0  0  0  0  0  0  0
   -0.3539   -2.6995   -0.6164 C   0  0  0  0  0  0  0  0  0  0  0  0
   -1.1866   -2.4959    0.0565 H   0  0  0  0  0  0  0  0  0  0  0  0
   -0.5823   -3.5991   -1.1884 H   0  0  0  0  0  0  0  0  0  0  0  0
    0.5520   -2.8707   -0.0338 H   0  0  0  0  0  0  0  0  0  0  0  0
   -0.3971    1.3008    1.0689 C   0  0  0  0  0  0  0  0  0  0  0  0
   -1.3643    1.9819    0.7311 O   0  0  0  0  0  0  0  0  0  0  0  0
    0.5522    1.7647    1.8915 N   0  0  0  0  0  0  0  0  0  0  0  0
    1.3093    1.1450    2.1332 H   0  0  0  0  0  0  0  0  0  0  0  0
    0.5577    3.1119    2.4582 C   0  0  0  0  0  0  0  0  0  0  0  0
   -0.3986    3.3098    2.9475 H   0  0  0  0  0  0  0  0  0  0  0  0
    1.3619    3.2123    3.1886 H   0  0  0  0  0  0  0  0  0  0  0  0
    0.6974    3.8450    1.6614 H   0  0  0  0  0  0  0  0  0  0  0  0
  5  6  2  0  0  0  0
  5  7  1  0  0  0  0
  2  3  1  0  0  0  0
  2  4  1  0  0  0  0
  2  5  1  0  0  0  0
  1  2  1  0  0  0  0
 24 25  2  0  0  0  0
 24 26  1  0  0  0  0
 20 21  1  0  0  0  0
 20 22  1  0  0  0  0
 20 23  1  0  0  0  0
 17 18  1  0  0  0  0
 17 19  1  0  0  0  0
 17 20  1  0  0  0  0
 13 14  1  0  0  0  0
 13 15  1  0  0  0  0
 13 16  1  0  0  0  0
 11 12  1  0  0  0  0
 11 13  1  0  0  0  0
 11 17  1  0  0  0  0
  9 10  1  0  0  0  0
  9 11  1  0  0  0  0
  9 24  1  0  0  0  0
  7  8  1  0  0  0  0
  7  9  1  0  0  0  0
 28 29  1  0  0  0  0
 28 30  1  0  0  0  0
 28 31  1  0  0  0  0
 26 27  1  0  0  0  0
 26 28  1  0  0  0  0
M  END
$$$$
default_name
  -OEChem-02102213163D

 31 30  0     1  0  0  0  0  0999 V2000
   -3.0760   -3.6390    1.5496 H   0  0  0  0  0  0  0  0  0  0  0  0
   -3.0940   -2.6290    1.1426 C   0  0  0  0  0  0  0  0  0  0  0  0
   -3.7160   -1.9930    1.7706 H   0  0  0  0  0  0  0  0  0  0  0  0
   -3.4880   -2.6500    0.1286 H   0  0  0  0  0  0  0  0  0  0  0  0
   -1.6860   -2.0850    1.1196 C   0  0  0  0  0  0  0  0  0  0  0  0
   -0.7540   -2.7700    1.5226 O   0  0  0  0  0  0  0  0  0  0  0  0
   -1.5320   -0.8490    0.6496 N   0  0  0  0  0  0  0  0  0  0  0  0
   -2.3500   -0.3360    0.3566 H   0  0  0  0  0  0  0  0  0  0  0  0
   -0.2470   -0.1410    0.5576 C   0  0  1  0  0  0  0  0  0  0  0  0
    0.4572   -0.6505    1.2162 H   0  0  0  0  0  0  0  0  0  0  0  0
    0.3091   -0.2220   -0.8868 C   0  0  1  0  0  0  0  0  0  0  0  0
   -0.1228    0.6109   -1.4450 H   0  0  0  0  0  0  0  0  0  0  0  0
    1.8419   -0.0747   -0.9363 C   0  0  0  0  0  0  0  0  0  0  0  0
    2.3253   -0.9268   -0.4551 H   0  0  0  0  0  0  0  0  0  0  0  0
    2.1825   -0.0088   -1.9684 H   0  0  0  0  0  0  0  0  0  0  0  0
    2.1492    0.8386   -0.4255 H   0  0  0  0  0  0  0  0  0  0  0  0
   -0.1428   -1.5257   -1.5823 C   0  0  0  0  0  0  0  0  0  0  0  0
   -0.9037   -1.3032   -2.3317 H   0  0  0  0  0  0  0  0  0  0  0  0
    0.7152   -1.9693   -2.0873 H   0  0  0  0  0  0  0  0  0  0  0  0
   -0.7005   -2.5795   -0.6160 C   0  0  0  0  0  0  0  0  0  0  0  0
   -1.6258   -2.2283   -0.1598 H   0  0  0  0  0  0  0  0  0  0  0  0
   -0.9119   -3.4963   -1.1669 H   0  0  0  0  0  0  0  0  0  0  0  0
    0.0312   -2.7953    0.1634 H   0  0  0  0  0  0  0  0  0  0  0  0
   -0.3971    1.3008    1.0689 C   0  0  0  0  0  0  0  0  0  0  0  0
   -1.3643    1.9819    0.7311 O   0  0  0  0  0  0  0  0  0  0  0  0
    0.5522    1.7647    1.8915 N   0  0  0  0  0  0  0  0  0  0  0  0
    1.3093    1.1450    2.1332 H   0  0  0  0  0  0  0  0  0  0  0  0
    0.5577    3.1119    2.4582 C   0  0  0  0  0  0  0  0  0  0  0  0
   -0.3986    3.3098    2.9475 H   0  0  0  0  0  0  0  0  0  0  0  0
    1.3619    3.2123    3.1886 H   0  0  0  0  0  0  0  0  0  0  0  0
    0.6974    3.8450    1.6614 H   0  0  0  0  0  0  0  0  0  0  0  0
  5  6  2  0  0  0  0
  5  7  1  0  0  0  0
  2  3  1  0  0  0  0
  2  4  1  0  0  0  0
  2  5  1  0  0  0  0
  1  2  1  0  0  0  0
 24 25  2  0  0  0  0
 24 26  1  0  0  0  0
 20 21  1  0  0  0  0
 20 22  1  0  0  0  0
 20 23  1  0  0  0  0
 17 18  1  0  0  0  0
 17 19  1  0  0  0  0
 17 20  1  0  0  0  0
 13 14  1  0  0  0  0
 13 15  1  0  0  0  0
 13 16  1  0  0  0  0
 11 12  1  0  0  0  0
 11 13  1  0  0  0  0
 11 17  1  0  0  0  0
  9 10  1  0  0  0  0
  9 11  1  0  0  0  0
  9 24  1  0  0  0  0
  7  8  1  0  0  0  0
  7  9  1  0  0  0  0
 28 29  1  0  0  0  0
 28 30  1  0  0  0  0
 28 31  1  0  0  0  0
 26 27  1  0  0  0  0
 26 28  1  0  0  0  0
M  END
$$$$
default_name
  -OEChem-02102213163D

 31 30  0     1  0  0  0  0  0999 V2000
   -3.0760   -3.6390    1.5496 H   0  0  0  0  0  0  0  0  0  0  0  0
   -3.0940   -2.6290    1.1426 C   0  0  0  0  0  0  0  0  0  0  0  0
   -3.7160   -1.9930    1.7706 H   0  0  0  0  0  0  0  0  0  0  0  0
   -3.4880   -2.6500    0.1286 H   0  0  0  0  0  0  0  0  0  0  0  0
   -1.6860   -2.0850    1.1196 C   0  0  0  0  0  0  0  0  0  0  0  0
   -0.7540   -2.7700    1.5226 O   0  0  0  0  0  0  0  0  0  0  0  0
   -1.5320   -0.8490    0.6496 N   0  0  0  0  0  0  0  0  0  0  0  0
   -2.3500   -0.3360    0.3566 H   0  0  0  0  0  0  0  0  0  0  0  0
   -0.2470   -0.1410    0.5576 C   0  0  1  0  0  0  0  0  0  0  0  0
    0.4572   -0.6505    1.2162 H   0  0  0  0  0  0  0  0  0  0  0  0
    0.3091   -0.2220   -0.8868 C   0  0  1  0  0  0  0  0  0  0  0  0
   -0.1228    0.6109   -1.4450 H   0  0  0  0  0  0  0  0  0  0  0  0
    1.8419   -0.0747   -0.9363 C   0  0  0  0  0  0  0  0  0  0  0  0
    2.3253   -0.9268   -0.4551 H   0  0  0  0  0  0  0  0  0  0  0  0
    2.1825   -0.0088   -1.9684 H   0  0  0  0  0  0  0  0  0  0  0  0
    2.1492    0.8386   -0.4255 H   0  0  0  0  0  0  0  0  0  0  0  0
   -0.1428   -1.5257   -1.5823 C   0  0  0  0  0  0  0  0  0  0  0  0
   -0.6919   -1.2896   -2.4948 H   0  0  0  0  0  0  0  0  0  0  0  0
    0.7410   -2.1025   -1.8545 H   0  0  0  0  0  0  0  0  0  0  0  0
   -1.0214   -2.4233   -0.7004 C   0  0  0  0  0  0  0  0  0  0  0  0
   -1.9716   -1.9350   -0.4848 H   0  0  0  0  0  0  0  0  0  0  0  0
   -1.2229   -3.3570   -1.2259 H   0  0  0  0  0  0  0  0  0  0  0  0
   -0.5062   -2.6469    0.2344 H   0  0  0  0  0  0  0  0  0  0  0  0
   -0.3971    1.3008    1.0689 C   0  0  0  0  0  0  0  0  0  0  0  0
   -1.3643    1.9819    0.7311 O   0  0  0  0  0  0  0  0  0  0  0  0
    0.5522    1.7647    1.8915 N   0  0  0  0  0  0  0  0  0  0  0  0
    1.3093    1.1450    2.1332 H   0  0  0  0  0  0  0  0  0  0  0  0
    0.5577    3.1119    2.4582 C   0  0  0  0  0  0  0  0  0  0  0  0
   -0.3986    3.3098    2.9475 H   0  0  0  0  0  0  0  0  0  0  0  0
    1.3619    3.2123    3.1886 H   0  0  0  0  0  0  0  0  0  0  0  0
    0.6974    3.8450    1.6614 H   0  0  0  0  0  0  0  0  0  0  0  0
  5  6  2  0  0  0  0
  5  7  1  0  0  0  0
  2  3  1  0  0  0  0
  2  4  1  0  0  0  0
  2  5  1  0  0  0  0
  1  2  1  0  0  0  0
 24 25  2  0  0  0  0
 24 26  1  0  0  0  0
 20 21  1  0  0  0  0
 20 22  1  0  0  0  0
 20 23  1  0  0  0  0
 17 18  1  0  0  0  0
 17 19  1  0  0  0  0
 17 20  1  0  0  0  0
 13 14  1  0  0  0  0
 13 15  1  0  0  0  0
 13 16  1  0  0  0  0
 11 12  1  0  0  0  0
 11 13  1  0  0  0  0
 11 17  1  0  0  0  0
  9 10  1  0  0  0  0
  9 11  1  0  0  0  0
  9 24  1  0  0  0  0
  7  8  1  0  0  0  0
  7  9  1  0  0  0  0
 28 29  1  0  0  0  0
 28 30  1  0  0  0  0
 28 31  1  0  0  0  0
 26 27  1  0  0  0  0
 26 28  1  0  0  0  0
M  END
$$$$
default_name
  -OEChem-02102213163D

 31 30  0     1  0  0  0  0  0999 V2000
   -3.0760   -3.6390    1.5496 H   0  0  0  0  0  0  0  0  0  0  0  0
   -3.0940   -2.6290    1.1426 C   0  0  0  0  0  0  0  0  0  0  0  0
   -3.7160   -1.9930    1.7706 H   0  0  0  0  0  0  0  0  0  0  0  0
   -3.4880   -2.6500    0.1286 H   0  0  0  0  0  0  0  0  0  0  0  0
   -1.6860   -2.0850    1.1196 C   0  0  0  0  0  0  0  0  0  0  0  0
   -0.7540   -2.7700    1.5226 O   0  0  0  0  0  0  0  0  0  0  0  0
   -1.5320   -0.8490    0.6496 N   0  0  0  0  0  0  0  0  0  0  0  0
   -2.3500   -0.3360    0.3566 H   0  0  0  0  0  0  0  0  0  0  0  0
   -0.2470   -0.1410    0.5576 C   0  0  1  0  0  0  0  0  0  0  0  0
    0.4572   -0.6505    1.2162 H   0  0  0  0  0  0  0  0  0  0  0  0
    0.3091   -0.2220   -0.8868 C   0  0  1  0  0  0  0  0  0  0  0  0
   -0.1228    0.6109   -1.4450 H   0  0  0  0  0  0  0  0  0  0  0  0
    1.8419   -0.0747   -0.9363 C   0  0  0  0  0  0  0  0  0  0  0  0
    2.3253   -0.9268   -0.4551 H   0  0  0  0  0  0  0  0  0  0  0  0
    2.1825   -0.0088   -1.9684 H   0  0  0  0  0  0  0  0  0  0  0  0
    2.1492    0.8386   -0.4255 H   0  0  0  0  0  0  0  0  0  0  0  0
   -0.1428   -1.5257   -1.5823 C   0  0  0  0  0  0  0  0  0  0  0  0
   -0.4502   -1.3135   -2.6072 H   0  0  0  0  0  0  0  0  0  0  0  0
    0.6997   -2.2165   -1.6140 H   0  0  0  0  0  0  0  0  0  0  0  0
   -1.2948   -2.2413   -0.8638 C   0  0  0  0  0  0  0  0  0  0  0  0
   -2.2005   -1.6360   -0.8965 H   0  0  0  0  0  0  0  0  0  0  0  0
   -1.4942   -3.1907   -1.3613 H   0  0  0  0  0  0  0  0  0  0  0  0
   -1.0235   -2.4356    0.1744 H   0  0  0  0  0  0  0  0  0  0  0  0
   -0.3971    1.3008    1.0689 C   0  0  0  0  0  0  0  0  0  0  0  0
   -1.3643    1.9819    0.7311 O   0  0  0  0  0  0  0  0  0  0  0  0
    0.5522    1.7647    1.8915 N   0  0  0  0  0  0  0  0  0  0  0  0
    1.3093    1.1450    2.1332 H   0  0  0  0  0  0  0  0  0  0  0  0
    0.5577    3.1119    2.4582 C   0  0  0  0  0  0  0  0  0  0  0  0
   -0.3986    3.3098    2.9475 H   0  0  0  0  0  0  0  0  0  0  0  0
    1.3619    3.2123    3.1886 H   0  0  0  0  0  0  0  0  0  0  0  0
    0.6974    3.8450    1.6614 H   0  0  0  0  0  0  0  0  0  0  0  0
  5  6  2  0  0  0  0
  5  7  1  0  0  0  0
  2  3  1  0  0  0  0
  2  4  1  0  0  0  0
  2  5  1  0  0  0  0
  1  2  1  0  0  0  0
 24 25  2  0  0  0  0
 24 26  1  0  0  0  0
 20 21  1  0  0  0  0
 20 22  1  0  0  0  0
 20 23  1  0  0  0  0
 17 18  1  0  0  0  0
 17 19  1  0  0  0  0
 17 20  1  0  0  0  0
 13 14  1  0  0  0  0
 13 15  1  0  0  0  0
 13 16  1  0  0  0  0
 11 12  1  0  0  0  0
 11 13  1  0  0  0  0
 11 17  1  0  0  0  0
  9 10  1  0  0  0  0
  9 11  1  0  0  0  0
  9 24  1  0  0  0  0
  7  8  1  0  0  0  0
  7  9  1  0  0  0  0
 28 29  1  0  0  0  0
 28 30  1  0  0  0  0
 28 31  1  0  0  0  0
 26 27  1  0  0  0  0
 26 28  1  0  0  0  0
M  END
$$$$
default_name
  -OEChem-02102213163D

 31 30  0     1  0  0  0  0  0999 V2000
   -3.0760   -3.6390    1.5496 H   0  0  0  0  0  0  0  0  0  0  0  0
   -3.0940   -2.6290    1.1426 C   0  0  0  0  0  0  0  0  0  0  0  0
   -3.7160   -1.9930    1.7706 H   0  0  0  0  0  0  0  0  0  0  0  0
   -3.4880   -2.6500    0.1286 H   0  0  0  0  0  0  0  0  0  0  0  0
   -1.6860   -2.0850    1.1196 C   0  0  0  0  0  0  0  0  0  0  0  0
   -0.7540   -2.7700    1.5226 O   0  0  0  0  0  0  0  0  0  0  0  0
   -1.5320   -0.8490    0.6496 N   0  0  0  0  0  0  0  0  0  0  0  0
   -2.3500   -0.3360    0.3566 H   0  0  0  0  0  0  0  0  0  0  0  0
   -0.2470   -0.1410    0.5576 C   0  0  1  0  0  0  0  0  0  0  0  0
    0.4572   -0.6505    1.2162 H   0  0  0  0  0  0  0  0  0  0  0  0
    0.3091   -0.2220   -0.8868 C   0  0  1  0  0  0  0  0  0  0  0  0
   -0.1228    0.6109   -1.4450 H   0  0  0  0  0  0  0  0  0  0  0  0
    1.8419   -0.0747   -0.9363 C   0  0  0  0  0  0  0  0  0  0  0  0
    2.3253   -0.9268   -0.4551 H   0  0  0  0  0  0  0  0  0  0  0  0
    2.1825   -0.0088   -1.9684 H   0  0  0  0  0  0  0  0  0  0  0  0
    2.1492    0.8386   -0.4255 H   0  0  0  0  0  0  0  0  0  0  0  0
   -0.1428   -1.5257   -1.5823 C   0  0  0  0  0  0  0  0  0  0  0  0
   -0.1949   -1.3732   -2.6612 H   0  0  0  0  0  0  0  0  0  0  0  0
    0.5939   -2.3036   -1.3820 H   0  0  0  0  0  0  0  0  0  0  0  0
   -1.5019   -2.0461   -1.0951 C   0  0  0  0  0  0  0  0  0  0  0  0
   -2.2968   -1.3517   -1.3667 H   0  0  0  0  0  0  0  0  0  0  0  0
   -1.7073   -3.0087   -1.5640 H   0  0  0  0  0  0  0  0  0  0  0  0
   -1.4854   -2.1757   -0.0124 H   0  0  0  0  0  0  0  0  0  0  0  0
   -0.3971    1.3008    1.0689 C   0  0  0  0  0  0  0  0  0  0  0  0
   -1.3643    1.9819    0.7311 O   0  0  0  0  0  0  0  0  0  0  0  0
    0.5522    1.7647    1.8915 N   0  0  0  0  0  0  0  0  0  0  0  0
    1.3093    1.1450    2.1332 H   0  0  0  0  0  0  0  0  0  0  0  0
    0.5577    3.1119    2.4582 C   0  0  0  0  0  0  0  0  0  0  0  0
   -0.3986    3.3098    2.9475 H   0  0  0  0  0  0  0  0  0  0  0  0
    1.3619    3.2123    3.1886 H   0  0  0  0  0  0  0  0  0  0  0  0
    0.6974    3.8450    1.6614 H   0  0  0  0  0  0  0  0  0  0  0  0
  5  6  2  0  0  0  0
  5  7  1  0  0  0  0
  2  3  1  0  0  0  0
  2  4  1  0  0  0  0
  2  5  1  0  0  0  0
  1  2  1  0  0  0  0
 24 25  2  0  0  0  0
 24 26  1  0  0  0  0
 20 21  1  0  0  0  0
 20 22  1  0  0  0  0
 20 23  1  0  0  0  0
 17 18  1  0  0  0  0
 17 19  1  0  0  0  0
 17 20  1  0  0  0  0
 13 14  1  0  0  0  0
 13 15  1  0  0  0  0
 13 16  1  0  0  0  0
 11 12  1  0  0  0  0
 11 13  1  0  0  0  0
 11 17  1  0  0  0  0
  9 10  1  0  0  0  0
  9 11  1  0  0  0  0
  9 24  1  0  0  0  0
  7  8  1  0  0  0  0
  7  9  1  0  0  0  0
 28 29  1  0  0  0  0
 28 30  1  0  0  0  0
 28 31  1  0  0  0  0
 26 27  1  0  0  0  0
 26 28  1  0  0  0  0
M  END
$$$$
default_name
  -OEChem-02102213163D

 31 30  0     1  0  0  0  0  0999 V2000
   -3.0760   -3.6390    1.5496 H   0  0  0  0  0  0  0  0  0  0  0  0
   -3.0940   -2.6290    1.1426 C   0  0  0  0  0  0  0  0  0  0  0  0
   -3.7160   -1.9930    1.7706 H   0  0  0  0  0  0  0  0  0  0  0  0
   -3.4880   -2.6500    0.1286 H   0  0  0  0  0  0  0  0  0  0  0  0
   -1.6860   -2.0850    1.1196 C   0  0  0  0  0  0  0  0  0  0  0  0
   -0.7540   -2.7700    1.5226 O   0  0  0  0  0  0  0  0  0  0  0  0
   -1.5320   -0.8490    0.6496 N   0  0  0  0  0  0  0  0  0  0  0  0
   -2.3500   -0.3360    0.3566 H   0  0  0  0  0  0  0  0  0  0  0  0
   -0.2470   -0.1410    0.5576 C   0  0  1  0  0  0  0  0  0  0  0  0
    0.4572   -0.6505    1.2162 H   0  0  0  0  0  0  0  0  0  0  0  0
    0.3091   -0.2220   -0.8868 C   0  0  1  0  0  0  0  0  0  0  0  0
   -0.1228    0.6109   -1.4450 H   0  0  0  0  0  0  0  0  0  0  0  0
    1.8419   -0.0747   -0.9363 C   0  0  0  0  0  0  0  0  0  0  0  0
    2.3253   -0.9268   -0.4551 H   0  0  0  0  0  0  0  0  0  0  0  0
    2.1825   -0.0088   -1.9684 H   0  0  0  0  0  0  0  0  0  0  0  0
    2.1492    0.8386   -0.4255 H   0  0  0  0  0  0  0  0  0  0  0  0
   -0.1428   -1.5257   -1.5823 C   0  0  0  0  0  0  0  0  0  0  0  0
    0.0565   -1.4647   -2.6530 H   0  0  0  0  0  0  0  0  0  0  0  0
    0.4309   -2.3578   -1.1744 H   0  0  0  0  0  0  0  0  0  0  0  0
   -1.6288   -1.8509   -1.3786 C   0  0  0  0  0  0  0  0  0  0  0  0
   -2.2541   -1.1015   -1.8635 H   0  0  0  0  0  0  0  0  0  0  0  0
   -1.8477   -2.8234   -1.8200 H   0  0  0  0  0  0  0  0  0  0  0  0
   -1.8606   -1.8851   -0.3135 H   0  0  0  0  0  0  0  0  0  0  0  0
   -0.3971    1.3008    1.0689 C   0  0  0  0  0  0  0  0  0  0  0  0
   -1.3643    1.9819    0.7311 O   0  0  0  0  0  0  0  0  0  0  0  0
    0.5522    1.7647    1.8915 N   0  0  0  0  0  0  0  0  0  0  0  0
    1.3093    1.1450    2.1332 H   0  0  0  0  0  0  0  0  0  0  0  0
    0.5577    3.1119    2.4582 C   0  0  0  0  0  0  0  0  0  0  0  0
   -0.3986    3.3098    2.9475 H   0  0  0  0  0  0  0  0  0  0  0  0
    1.3619    3.2123    3.1886 H   0  0  0  0  0  0  0  0  0  0  0  0
    0.6974    3.8450    1.6614 H   0  0  0  0  0  0  0  0  0  0  0  0
  5  6  2  0  0  0  0
  5  7  1  0  0  0  0
  2  3  1  0  0  0  0
  2  4  1  0  0  0  0
  2  5  1  0  0  0  0
  1  2  1  0  0  0  0
 24 25  2  0  0  0  0
 24 26  1  0  0  0  0
 20 21  1  0  0  0  0
 20 22  1  0  0  0  0
 20 23  1  0  0  0  0
 17 18  1  0  0  0  0
 17 19  1  0  0  0  0
 17 20  1  0  0  0  0
 13 14  1  0  0  0  0
 13 15  1  0  0  0  0
 13 16  1  0  0  0  0
 11 12  1  0  0  0  0
 11 13  1  0  0  0  0
 11 17  1  0  0  0  0
  9 10  1  0  0  0  0
  9 11  1  0  0  0  0
  9 24  1  0  0  0  0
  7  8  1  0  0  0  0
  7  9  1  0  0  0  0
 28 29  1  0  0  0  0
 28 30  1  0  0  0  0
 28 31  1  0  0  0  0
 26 27  1  0  0  0  0
 26 28  1  0  0  0  0
M  END
$$$$
default_name
  -OEChem-02102213163D

 31 30  0     1  0  0  0  0  0999 V2000
   -3.0760   -3.6390    1.5496 H   0  0  0  0  0  0  0  0  0  0  0  0
   -3.0940   -2.6290    1.1426 C   0  0  0  0  0  0  0  0  0  0  0  0
   -3.7160   -1.9930    1.7706 H   0  0  0  0  0  0  0  0  0  0  0  0
   -3.4880   -2.6500    0.1286 H   0  0  0  0  0  0  0  0  0  0  0  0
   -1.6860   -2.0850    1.1196 C   0  0  0  0  0  0  0  0  0  0  0  0
   -0.7540   -2.7700    1.5226 O   0  0  0  0  0  0  0  0  0  0  0  0
   -1.5320   -0.8490    0.6496 N   0  0  0  0  0  0  0  0  0  0  0  0
   -2.3500   -0.3360    0.3566 H   0  0  0  0  0  0  0  0  0  0  0  0
   -0.2470   -0.1410    0.5576 C   0  0  1  0  0  0  0  0  0  0  0  0
    0.4572   -0.6505    1.2162 H   0  0  0  0  0  0  0  0  0  0  0  0
    0.3091   -0.2220   -0.8868 C   0  0  1  0  0  0  0  0  0  0  0  0
   -0.1228    0.6109   -1.4450 H   0  0  0  0  0  0  0  0  0  0  0  0
    1.8419   -0.0747   -0.9363 C   0  0  0  0  0  0  0  0  0  0  0  0
    2.3253   -0.9268   -0.4551 H   0  0  0  0  0  0  0  0  0  0  0  0
    2.1825   -0.0088   -1.9684 H   0  0  0  0  0  0  0  0  0  0  0  0
    2.1492    0.8386   -0.4255 H   0  0  0  0  0  0  0  0  0  0  0  0
   -0.1428   -1.5257   -1.5823 C   0  0  0  0  0  0  0  0  0  0  0  0
    0.2870   -1.5818   -2.5833 H   0  0  0  0  0  0  0  0  0  0  0  0
    0.2219   -2.3755   -1.0054 H   0  0  0  0  0  0  0  0  0  0  0  0
   -1.6667   -1.6690   -1.6949 C   0  0  0  0  0  0  0  0  0  0  0  0
   -2.0752   -0.9024   -2.3530 H   0  0  0  0  0  0  0  0  0  0  0  0
   -1.9058   -2.6475   -2.1121 H   0  0  0  0  0  0  0  0  0  0  0  0
   -2.1233   -1.5834   -0.7082 H   0  0  0  0  0  0  0  0  0  0  0  0
   -0.3971    1.3008    1.0689 C   0  0  0  0  0  0  0  0  0  0  0  0
   -1.3643    1.9819    0.7311 O   0  0  0  0  0  0  0  0  0  0  0  0
    0.5522    1.7647    1.8915 N   0  0  0  0  0  0  0  0  0  0  0  0
    1.3093    1.1450    2.1332 H   0  0  0  0  0  0  0  0  0  0  0  0
    0.5577    3.1119    2.4582 C   0  0  0  0  0  0  0  0  0  0  0  0
   -0.3986    3.3098    2.9475 H   0  0  0  0  0  0  0  0  0  0  0  0
    1.3619    3.2123    3.1886 H   0  0  0  0  0  0  0  0  0  0  0  0
    0.6974    3.8450    1.6614 H   0  0  0  0  0  0  0  0  0  0  0  0
  5  6  2  0  0  0  0
  5  7  1  0  0  0  0
  2  3  1  0  0  0  0
  2  4  1  0  0  0  0
  2  5  1  0  0  0  0
  1  2  1  0  0  0  0
 24 25  2  0  0  0  0
 24 26  1  0  0  0  0
 20 21  1  0  0  0  0
 20 22  1  0  0  0  0
 20 23  1  0  0  0  0
 17 18  1  0  0  0  0
 17 19  1  0  0  0  0
 17 20  1  0  0  0  0
 13 14  1  0  0  0  0
 13 15  1  0  0  0  0
 13 16  1  0  0  0  0
 11 12  1  0  0  0  0
 11 13  1  0  0  0  0
 11 17  1  0  0  0  0
  9 10  1  0  0  0  0
  9 11  1  0  0  0  0
  9 24  1  0  0  0  0
  7  8  1  0  0  0  0
  7  9  1  0  0  0  0
 28 29  1  0  0  0  0
 28 30  1  0  0  0  0
 28 31  1  0  0  0  0
 26 27  1  0  0  0  0
 26 28  1  0  0  0  0
M  END
$$$$
default_name
  -OEChem-02102213163D

 31 30  0     1  0  0  0  0  0999 V2000
   -3.0760   -3.6390    1.5496 H   0  0  0  0  0  0  0  0  0  0  0  0
   -3.0940   -2.6290    1.1426 C   0  0  0  0  0  0  0  0  0  0  0  0
   -3.7160   -1.9930    1.7706 H   0  0  0  0  0  0  0  0  0  0  0  0
   -3.4880   -2.6500    0.1286 H   0  0  0  0  0  0  0  0  0  0  0  0
   -1.6860   -2.0850    1.1196 C   0  0  0  0  0  0  0  0  0  0  0  0
   -0.7540   -2.7700    1.5226 O   0  0  0  0  0  0  0  0  0  0  0  0
   -1.5320   -0.8490    0.6496 N   0  0  0  0  0  0  0  0  0  0  0  0
   -2.3500   -0.3360    0.3566 H   0  0  0  0  0  0  0  0  0  0  0  0
   -0.2470   -0.1410    0.5576 C   0  0  1  0  0  0  0  0  0  0  0  0
    0.4572   -0.6505    1.2162 H   0  0  0  0  0  0  0  0  0  0  0  0
    0.3091   -0.2220   -0.8868 C   0  0  1  0  0  0  0  0  0  0  0  0
   -0.1228    0.6109   -1.4450 H   0  0  0  0  0  0  0  0  0  0  0  0
    1.8419   -0.0747   -0.9363 C   0  0  0  0  0  0  0  0  0  0  0  0
    2.3253   -0.9268   -0.4551 H   0  0  0  0  0  0  0  0  0  0  0  0
    2.1825   -0.0088   -1.9684 H   0  0  0  0  0  0  0  0  0  0  0  0
    2.1492    0.8386   -0.4255 H   0  0  0  0  0  0  0  0  0  0  0  0
   -0.1428   -1.5257   -1.5823 C   0  0  0  0  0  0  0  0  0  0  0  0
    0.4807   -1.7164   -2.4568 H   0  0  0  0  0  0  0  0  0  0  0  0
   -0.0190   -2.3554   -0.8865 H   0  0  0  0  0  0  0  0  0  0  0  0
   -1.6130   -1.5129   -2.0224 C   0  0  0  0  0  0  0  0  0  0  0  0
   -1.7723   -0.7680   -2.8018 H   0  0  0  0  0  0  0  0  0  0  0  0
   -1.8777   -2.4929   -2.4202 H   0  0  0  0  0  0  0  0  0  0  0  0
   -2.2558   -1.2913   -1.1697 H   0  0  0  0  0  0  0  0  0  0  0  0
   -0.3971    1.3008    1.0689 C   0  0  0  0  0  0  0  0  0  0  0  0
   -1.3643    1.9819    0.7311 O   0  0  0  0  0  0  0  0  0  0  0  0
    0.5522    1.7647    1.8915 N   0  0  0  0  0  0  0  0  0  0  0  0
    1.3093    1.1450    2.1332 H   0  0  0  0  0  0  0  0  0  0  0  0
    0.5577    3.1119    2.4582 C   0  0  0  0  0  0  0  0  0  0  0  0
   -0.3986    3.3098    2.9475 H   0  0  0  0  0  0  0  0  0  0  0  0
    1.3619    3.2123    3.1886 H   0  0  0  0  0  0  0  0  0  0  0  0
    0.6974    3.8450    1.6614 H   0  0  0  0  0  0  0  0  0  0  0  0
  5  6  2  0  0  0  0
  5  7  1  0  0  0  0
  2  3  1  0  0  0  0
  2  4  1  0  0  0  0
  2  5  1  0  0  0  0
  1  2  1  0  0  0  0
 24 25  2  0  0  0  0
 24 26  1  0  0  0  0
 20 21  1  0  0  0  0
 20 22  1  0  0  0  0
 20 23  1  0  0  0  0
 17 18  1  0  0  0  0
 17 19  1  0  0  0  0
 17 20  1  0  0  0  0
 13 14  1  0  0  0  0
 13 15  1  0  0  0  0
 13 16  1  0  0  0  0
 11 12  1  0  0  0  0
 11 13  1  0  0  0  0
 11 17  1  0  0  0  0
  9 10  1  0  0  0  0
  9 11  1  0  0  0  0
  9 24  1  0  0  0  0
  7  8  1  0  0  0  0
  7  9  1  0  0  0  0
 28 29  1  0  0  0  0
 28 30  1  0  0  0  0
 28 31  1  0  0  0  0
 26 27  1  0  0  0  0
 26 28  1  0  0  0  0
M  END
$$$$
default_name
  -OEChem-02102213163D

 31 30  0     1  0  0  0  0  0999 V2000
   -3.0760   -3.6390    1.5496 H   0  0  0  0  0  0  0  0  0  0  0  0
   -3.0940   -2.6290    1.1426 C   0  0  0  0  0  0  0  0  0  0  0  0
   -3.7160   -1.9930    1.7706 H   0  0  0  0  0  0  0  0  0  0  0  0
   -3.4880   -2.6500    0.1286 H   0  0  0  0  0  0  0  0  0  0  0  0
   -1.6860   -2.0850    1.1196 C   0  0  0  0  0  0  0  0  0  0  0  0
   -0.7540   -2.7700    1.5226 O   0  0  0  0  0  0  0  0  0  0  0  0
   -1.5320   -0.8490    0.6496 N   0  0  0  0  0  0  0  0  0  0  0  0
   -2.3500   -0.3360    0.3566 H   0  0  0  0  0  0  0  0  0  0  0  0
   -0.2470   -0.1410    0.5576 C   0  0  1  0  0  0  0  0  0  0  0  0
    0.4572   -0.6505    1.2162 H   0  0  0  0  0  0  0  0  0  0  0  0
    0.3091   -0.2220   -0.8868 C   0  0  1  0  0  0  0  0  0  0  0  0
   -0.1228    0.6109   -1.4450 H   0  0  0  0  0  0  0  0  0  0  0  0
    1.8419   -0.0747   -0.9363 C   0  0  0  0  0  0  0  0  0  0  0  0
    2.3253   -0.9268   -0.4551 H   0  0  0  0  0  0  0  0  0  0  0  0
    2.1825   -0.0088   -1.9684 H   0  0  0  0  0  0  0  0  0  0  0  0
    2.1492    0.8386   -0.4255 H   0  0  0  0  0  0  0  0  0  0  0  0
   -0.1428   -1.5257   -1.5823 C   0  0  0  0  0  0  0  0  0  0  0  0
    0.6244   -1.8595   -2.2821 H   0  0  0  0  0  0  0  0  0  0  0  0
   -0.2753   -2.2990   -0.8257 H   0  0  0  0  0  0  0  0  0  0  0  0
   -1.4715   -1.3931   -2.3389 C   0  0  0  0  0  0  0  0  0  0  0  0
   -1.3660   -0.7074   -3.1794 H   0  0  0  0  0  0  0  0  0  0  0  0
   -1.7653   -2.3701   -2.7233 H   0  0  0  0  0  0  0  0  0  0  0  0
   -2.2489   -1.0287   -1.6665 H   0  0  0  0  0  0  0  0  0  0  0  0
   -0.3971    1.3008    1.0689 C   0  0  0  0  0  0  0  0  0  0  0  0
   -1.3643    1.9819    0.7311 O   0  0  0  0  0  0  0  0  0  0  0  0
    0.5522    1.7647    1.8915 N   0  0  0  0  0  0  0  0  0  0  0  0
    1.3093    1.1450    2.1332 H   0  0  0  0  0  0  0  0  0  0  0  0
    0.5577    3.1119    2.4582 C   0  0  0  0  0  0  0  0  0  0  0  0
   -0.3986    3.3098    2.9475 H   0  0  0  0  0  0  0  0  0  0  0  0
    1.3619    3.2123    3.1886 H   0  0  0  0  0  0  0  0  0  0  0  0
    0.6974    3.8450    1.6614 H   0  0  0  0  0  0  0  0  0  0  0  0
  5  6  2  0  0  0  0
  5  7  1  0  0  0  0
  2  3  1  0  0  0  0
  2  4  1  0  0  0  0
  2  5  1  0  0  0  0
  1  2  1  0  0  0  0
 24 25  2  0  0  0  0
 24 26  1  0  0  0  0
 20 21  1  0  0  0  0
 20 22  1  0  0  0  0
 20 23  1  0  0  0  0
 17 18  1  0  0  0  0
 17 19  1  0  0  0  0
 17 20  1  0  0  0  0
 13 14  1  0  0  0  0
 13 15  1  0  0  0  0
 13 16  1  0  0  0  0
 11 12  1  0  0  0  0
 11 13  1  0  0  0  0
 11 17  1  0  0  0  0
  9 10  1  0  0  0  0
  9 11  1  0  0  0  0
  9 24  1  0  0  0  0
  7  8  1  0  0  0  0
  7  9  1  0  0  0  0
 28 29  1  0  0  0  0
 28 30  1  0  0  0  0
 28 31  1  0  0  0  0
 26 27  1  0  0  0  0
 26 28  1  0  0  0  0
M  END
$$$$
default_name
  -OEChem-02102213163D

 31 30  0     1  0  0  0  0  0999 V2000
   -3.0760   -3.6390    1.5496 H   0  0  0  0  0  0  0  0  0  0  0  0
   -3.0940   -2.6290    1.1426 C   0  0  0  0  0  0  0  0  0  0  0  0
   -3.7160   -1.9930    1.7706 H   0  0  0  0  0  0  0  0  0  0  0  0
   -3.4880   -2.6500    0.1286 H   0  0  0  0  0  0  0  0  0  0  0  0
   -1.6860   -2.0850    1.1196 C   0  0  0  0  0  0  0  0  0  0  0  0
   -0.7540   -2.7700    1.5226 O   0  0  0  0  0  0  0  0  0  0  0  0
   -1.5320   -0.8490    0.6496 N   0  0  0  0  0  0  0  0  0  0  0  0
   -2.3500   -0.3360    0.3566 H   0  0  0  0  0  0  0  0  0  0  0  0
   -0.2470   -0.1410    0.5576 C   0  0  1  0  0  0  0  0  0  0  0  0
    0.4572   -0.6505    1.2162 H   0  0  0  0  0  0  0  0  0  0  0  0
    0.3091   -0.2220   -0.8868 C   0  0  1  0  0  0  0  0  0  0  0  0
   -0.1228    0.6109   -1.4450 H   0  0  0  0  0  0  0  0  0  0  0  0
    1.8419   -0.0747   -0.9363 C   0  0  0  0  0  0  0  0  0  0  0  0
    2.3253   -0.9268   -0.4551 H   0  0  0  0  0  0  0  0  0  0  0  0
    2.1825   -0.0088   -1.9684 H   0  0  0  0  0  0  0  0  0  0  0  0
    2.1492    0.8386   -0.4255 H   0  0  0  0  0  0  0  0  0  0  0  0
   -0.1428   -1.5257   -1.5823 C   0  0  0  0  0  0  0  0  0  0  0  0
    0.7085   -2.0011   -2.0712 H   0  0  0  0  0  0  0  0  0  0  0  0
   -0.5296   -2.2100   -0.8272 H   0  0  0  0  0  0  0  0  0  0  0  0
   -1.2517   -1.3179   -2.6227 C   0  0  0  0  0  0  0  0  0  0  0  0
   -0.8841   -0.7248   -3.4600 H   0  0  0  0  0  0  0  0  0  0  0  0
   -1.5761   -2.2876   -3.0009 H   0  0  0  0  0  0  0  0  0  0  0  0
   -2.1032   -0.8134   -2.1648 H   0  0  0  0  0  0  0  0  0  0  0  0
   -0.3971    1.3008    1.0689 C   0  0  0  0  0  0  0  0  0  0  0  0
   -1.3643    1.9819    0.7311 O   0  0  0  0  0  0  0  0  0  0  0  0
    0.5522    1.7647    1.8915 N   0  0  0  0  0  0  0  0  0  0  0  0
    1.3093    1.1450    2.1332 H   0  0  0  0  0  0  0  0  0  0  0  0
    0.5577    3.1119    2.4582 C   0  0  0  0  0  0  0  0  0  0  0  0
   -0.3986    3.3098    2.9475 H   0  0  0  0  0  0  0  0  0  0  0  0
    1.3619    3.2123    3.1886 H   0  0  0  0  0  0  0  0  0  0  0  0
    0.6974    3.8450    1.6614 H   0  0  0  0  0  0  0  0  0  0  0  0
  5  6  2  0  0  0  0
  5  7  1  0  0  0  0
  2  3  1  0  0  0  0
  2  4  1  0  0  0  0
  2  5  1  0  0  0  0
  1  2  1  0  0  0  0
 24 25  2  0  0  0  0
 24 26  1  0  0  0  0
 20 21  1  0  0  0  0
 20 22  1  0  0  0  0
 20 23  1  0  0  0  0
 17 18  1  0  0  0  0
 17 19  1  0  0  0  0
 17 20  1  0  0  0  0
 13 14  1  0  0  0  0
 13 15  1  0  0  0  0
 13 16  1  0  0  0  0
 11 12  1  0  0  0  0
 11 13  1  0  0  0  0
 11 17  1  0  0  0  0
  9 10  1  0  0  0  0
  9 11  1  0  0  0  0
  9 24  1  0  0  0  0
  7  8  1  0  0  0  0
  7  9  1  0  0  0  0
 28 29  1  0  0  0  0
 28 30  1  0  0  0  0
 28 31  1  0  0  0  0
 26 27  1  0  0  0  0
 26 28  1  0  0  0  0
M  END
$$$$
default_name
  -OEChem-02102213163D

 31 30  0     1  0  0  0  0  0999 V2000
   -3.0760   -3.6390    1.5496 H   0  0  0  0  0  0  0  0  0  0  0  0
   -3.0940   -2.6290    1.1426 C   0  0  0  0  0  0  0  0  0  0  0  0
   -3.7160   -1.9930    1.7706 H   0  0  0  0  0  0  0  0  0  0  0  0
   -3.4880   -2.6500    0.1286 H   0  0  0  0  0  0  0  0  0  0  0  0
   -1.6860   -2.0850    1.1196 C   0  0  0  0  0  0  0  0  0  0  0  0
   -0.7540   -2.7700    1.5226 O   0  0  0  0  0  0  0  0  0  0  0  0
   -1.5320   -0.8490    0.6496 N   0  0  0  0  0  0  0  0  0  0  0  0
   -2.3500   -0.3360    0.3566 H   0  0  0  0  0  0  0  0  0  0  0  0
   -0.2470   -0.1410    0.5576 C   0  0  1  0  0  0  0  0  0  0  0  0
    0.4572   -0.6505    1.2162 H   0  0  0  0  0  0  0  0  0  0  0  0
    0.3091   -0.2220   -0.8868 C   0  0  1  0  0  0  0  0  0  0  0  0
   -0.1228    0.6109   -1.4450 H   0  0  0  0  0  0  0  0  0  0  0  0
    1.8419   -0.0747   -0.9363 C   0  0  0  0  0  0  0  0  0  0  0  0
    2.3253   -0.9268   -0.4551 H   0  0  0  0  0  0  0  0  0  0  0  0
    2.1825   -0.0088   -1.9684 H   0  0  0  0  0  0  0  0  0  0  0  0
    2.1492    0.8386   -0.4255 H   0  0  0  0  0  0  0  0  0  0  0  0
   -0.1428   -1.5257   -1.5823 C   0  0  0  0  0  0  0  0  0  0  0  0
    0.7272   -2.1318   -1.8383 H   0  0  0  0  0  0  0  0  0  0  0  0
   -0.7645   -2.0945   -0.8910 H   0  0  0  0  0  0  0  0  0  0  0  0
   -0.9687   -1.2923   -2.8546 C   0  0  0  0  0  0  0  0  0  0  0  0
   -0.3594   -0.8190   -3.6244 H   0  0  0  0  0  0  0  0  0  0  0  0
   -1.3232   -2.2510   -3.2339 H   0  0  0  0  0  0  0  0  0  0  0  0
   -1.8286   -0.6601   -2.6305 H   0  0  0  0  0  0  0  0  0  0  0  0
   -0.3971    1.3008    1.0689 C   0  0  0  0  0  0  0  0  0  0  0  0
   -1.3643    1.9819    0.7311 O   0  0  0  0  0  0  0  0  0  0  0  0
    0.5522    1.7647    1.8915 N   0  0  0  0  0  0  0  0  0  0  0  0
    1.3093    1.1450    2.1332 H   0  0  0  0  0  0  0  0  0  0  0  0
    0.5577    3.1119    2.4582 C   0  0  0  0  0  0  0  0  0  0  0  0
   -0.3986    3.3098    2.9475 H   0  0  0  0  0  0  0  0  0  0  0  0
    1.3619    3.2123    3.1886 H   0  0  0  0  0  0  0  0  0  0  0  0
    0.6974    3.8450    1.6614 H   0  0  0  0  0  0  0  0  0  0  0  0
  5  6  2  0  0  0  0
  5  7  1  0  0  0  0
  2  3  1  0  0  0  0
  2  4  1  0  0  0  0
  2  5  1  0  0  0  0
  1  2  1  0  0  0  0
 24 25  2  0  0  0  0
 24 26  1  0  0  0  0
 20 21  1  0  0  0  0
 20 22  1  0  0  0  0
 20 23  1  0  0  0  0
 17 18  1  0  0  0  0
 17 19  1  0  0  0  0
 17 20  1  0  0  0  0
 13 14  1  0  0  0  0
 13 15  1  0  0  0  0
 13 16  1  0  0  0  0
 11 12  1  0  0  0  0
 11 13  1  0  0  0  0
 11 17  1  0  0  0  0
  9 10  1  0  0  0  0
  9 11  1  0  0  0  0
  9 24  1  0  0  0  0
  7  8  1  0  0  0  0
  7  9  1  0  0  0  0
 28 29  1  0  0  0  0
 28 30  1  0  0  0  0
 28 31  1  0  0  0  0
 26 27  1  0  0  0  0
 26 28  1  0  0  0  0
M  END
$$$$
default_name
  -OEChem-02102213163D

 31 30  0     1  0  0  0  0  0999 V2000
   -3.0760   -3.6390    1.5496 H   0  0  0  0  0  0  0  0  0  0  0  0
   -3.0940   -2.6290    1.1426 C   0  0  0  0  0  0  0  0  0  0  0  0
   -3.7160   -1.9930    1.7706 H   0  0  0  0  0  0  0  0  0  0  0  0
   -3.4880   -2.6500    0.1286 H   0  0  0  0  0  0  0  0  0  0  0  0
   -1.6860   -2.0850    1.1196 C   0  0  0  0  0  0  0  0  0  0  0  0
   -0.7540   -2.7700    1.5226 O   0  0  0  0  0  0  0  0  0  0  0  0
   -1.5320   -0.8490    0.6496 N   0  0  0  0  0  0  0  0  0  0  0  0
   -2.3500   -0.3360    0.3566 H   0  0  0  0  0  0  0  0  0  0  0  0
   -0.2470   -0.1410    0.5576 C   0  0  1  0  0  0  0  0  0  0  0  0
    0.4572   -0.6505    1.2162 H   0  0  0  0  0  0  0  0  0  0  0  0
    0.3091   -0.2220   -0.8868 C   0  0  1  0  0  0  0  0  0  0  0  0
   -0.1228    0.6109   -1.4450 H   0  0  0  0  0  0  0  0  0  0  0  0
    1.8419   -0.0747   -0.9363 C   0  0  0  0  0  0  0  0  0  0  0  0
    2.3253   -0.9268   -0.4551 H   0  0  0  0  0  0  0  0  0  0  0  0
    2.1825   -0.0088   -1.9684 H   0  0  0  0  0  0  0  0  0  0  0  0
    2.1492    0.8386   -0.4255 H   0  0  0  0  0  0  0  0  0  0  0  0
   -0.1428   -1.5257   -1.5823 C   0  0  0  0  0  0  0  0  0  0  0  0
    0.6791   -2.2426   -1.5994 H   0  0  0  0  0  0  0  0  0  0  0  0
   -0.9641   -1.9605   -1.0126 H   0  0  0  0  0  0  0  0  0  0  0  0
   -0.6417   -1.3181   -3.0188 C   0  0  0  0  0  0  0  0  0  0  0  0
    0.1724   -0.9836   -3.6615 H   0  0  0  0  0  0  0  0  0  0  0  0
   -1.0238   -2.2627   -3.4066 H   0  0  0  0  0  0  0  0  0  0  0  0
   -1.4437   -0.5793   -3.0320 H   0  0  0  0  0  0  0  0  0  0  0  0
   -0.3971    1.3008    1.0689 C   0  0  0  0  0  0  0  0  0  0  0  0
   -1.3643    1.9819    0.7311 O   0  0  0  0  0  0  0  0  0  0  0  0
    0.5522    1.7647    1.8915 N   0  0  0  0  0  0  0  0  0  0  0  0
    1.3093    1.1450    2.1332 H   0  0  0  0  0  0  0  0  0  0  0  0
    0.5577    3.1119    2.4582 C   0  0  0  0  0  0  0  0  0  0  0  0
   -0.3986    3.3098    2.9475 H   0  0  0  0  0  0  0  0  0  0  0  0
    1.3619    3.2123    3.1886 H   0  0  0  0  0  0  0  0  0  0  0  0
    0.6974    3.8450    1.6614 H   0  0  0  0  0  0  0  0  0  0  0  0
  5  6  2  0  0  0  0
  5  7  1  0  0  0  0
  2  3  1  0  0  0  0
  2  4  1  0  0  0  0
  2  5  1  0  0  0  0
  1  2  1  0  0  0  0
 24 25  2  0  0  0  0
 24 26  1  0  0  0  0
 20 21  1  0  0  0  0
 20 22  1  0  0  0  0
 20 23  1  0  0  0  0
 17 18  1  0  0  0  0
 17 19  1  0  0  0  0
 17 20  1  0  0  0  0
 13 14  1  0  0  0  0
 13 15  1  0  0  0  0
 13 16  1  0  0  0  0
 11 12  1  0  0  0  0
 11 13  1  0  0  0  0
 11 17  1  0  0  0  0
  9 10  1  0  0  0  0
  9 11  1  0  0  0  0
  9 24  1  0  0  0  0
  7  8  1  0  0  0  0
  7  9  1  0  0  0  0
 28 29  1  0  0  0  0
 28 30  1  0  0  0  0
 28 31  1  0  0  0  0
 26 27  1  0  0  0  0
 26 28  1  0  0  0  0
M  END
$$$$
default_name
  -OEChem-02102213163D

 31 30  0     1  0  0  0  0  0999 V2000
   -3.0760   -3.6390    1.5496 H   0  0  0  0  0  0  0  0  0  0  0  0
   -3.0940   -2.6290    1.1426 C   0  0  0  0  0  0  0  0  0  0  0  0
   -3.7160   -1.9930    1.7706 H   0  0  0  0  0  0  0  0  0  0  0  0
   -3.4880   -2.6500    0.1286 H   0  0  0  0  0  0  0  0  0  0  0  0
   -1.6860   -2.0850    1.1196 C   0  0  0  0  0  0  0  0  0  0  0  0
   -0.7540   -2.7700    1.5226 O   0  0  0  0  0  0  0  0  0  0  0  0
   -1.5320   -0.8490    0.6496 N   0  0  0  0  0  0  0  0  0  0  0  0
   -2.3500   -0.3360    0.3566 H   0  0  0  0  0  0  0  0  0  0  0  0
   -0.2470   -0.1410    0.5576 C   0  0  1  0  0  0  0  0  0  0  0  0
    0.4572   -0.6505    1.2162 H   0  0  0  0  0  0  0  0  0  0  0  0
    0.3091   -0.2220   -0.8868 C   0  0  1  0  0  0  0  0  0  0  0  0
   -0.1228    0.6109   -1.4450 H   0  0  0  0  0  0  0  0  0  0  0  0
    1.8419   -0.0747   -0.9363 C   0  0  0  0  0  0  0  0  0  0  0  0
    2.3253   -0.9268   -0.4551 H   0  0  0  0  0  0  0  0  0  0  0  0
    2.1825   -0.0088   -1.9684 H   0  0  0  0  0  0  0  0  0  0  0  0
    2.1492    0.8386   -0.4255 H   0  0  0  0  0  0  0  0  0  0  0  0
   -0.1428   -1.5257   -1.5823 C   0  0  0  0  0  0  0  0  0  0  0  0
    0.5676   -2.3259   -1.3708 H   0  0  0  0  0  0  0  0  0  0  0  0
   -1.1146   -1.8169   -1.1838 H   0  0  0  0  0  0  0  0  0  0  0  0
   -0.2930   -1.3936   -3.1039 C   0  0  0  0  0  0  0  0  0  0  0  0
    0.6750   -1.2073   -3.5688 H   0  0  0  0  0  0  0  0  0  0  0  0
   -0.6982   -2.3220   -3.5071 H   0  0  0  0  0  0  0  0  0  0  0  0
   -0.9749   -0.5765   -3.3420 H   0  0  0  0  0  0  0  0  0  0  0  0
   -0.3971    1.3008    1.0689 C   0  0  0  0  0  0  0  0  0  0  0  0
   -1.3643    1.9819    0.7311 O   0  0  0  0  0  0  0  0  0  0  0  0
    0.5522    1.7647    1.8915 N   0  0  0  0  0  0  0  0  0  0  0  0
    1.3093    1.1450    2.1332 H   0  0  0  0  0  0  0  0  0  0  0  0
    0.5577    3.1119    2.4582 C   0  0  0  0  0  0  0  0  0  0  0  0
   -0.3986    3.3098    2.9475 H   0  0  0  0  0  0  0  0  0  0  0  0
    1.3619    3.2123    3.1886 H   0  0  0  0  0  0  0  0  0  0  0  0
    0.6974    3.8450    1.6614 H   0  0  0  0  0  0  0  0  0  0  0  0
  5  6  2  0  0  0  0
  5  7  1  0  0  0  0
  2  3  1  0  0  0  0
  2  4  1  0  0  0  0
  2  5  1  0  0  0  0
  1  2  1  0  0  0  0
 24 25  2  0  0  0  0
 24 26  1  0  0  0  0
 20 21  1  0  0  0  0
 20 22  1  0  0  0  0
 20 23  1  0  0  0  0
 17 18  1  0  0  0  0
 17 19  1  0  0  0  0
 17 20  1  0  0  0  0
 13 14  1  0  0  0  0
 13 15  1  0  0  0  0
 13 16  1  0  0  0  0
 11 12  1  0  0  0  0
 11 13  1  0  0  0  0
 11 17  1  0  0  0  0
  9 10  1  0  0  0  0
  9 11  1  0  0  0  0
  9 24  1  0  0  0  0
  7  8  1  0  0  0  0
  7  9  1  0  0  0  0
 28 29  1  0  0  0  0
 28 30  1  0  0  0  0
 28 31  1  0  0  0  0
 26 27  1  0  0  0  0
 26 28  1  0  0  0  0
M  END
$$$$
default_name
  -OEChem-02102213163D

 31 30  0     1  0  0  0  0  0999 V2000
   -3.0760   -3.6390    1.5496 H   0  0  0  0  0  0  0  0  0  0  0  0
   -3.0940   -2.6290    1.1426 C   0  0  0  0  0  0  0  0  0  0  0  0
   -3.7160   -1.9930    1.7706 H   0  0  0  0  0  0  0  0  0  0  0  0
   -3.4880   -2.6500    0.1286 H   0  0  0  0  0  0  0  0  0  0  0  0
   -1.6860   -2.0850    1.1196 C   0  0  0  0  0  0  0  0  0  0  0  0
   -0.7540   -2.7700    1.5226 O   0  0  0  0  0  0  0  0  0  0  0  0
   -1.5320   -0.8490    0.6496 N   0  0  0  0  0  0  0  0  0  0  0  0
   -2.3500   -0.3360    0.3566 H   0  0  0  0  0  0  0  0  0  0  0  0
   -0.2470   -0.1410    0.5576 C   0  0  1  0  0  0  0  0  0  0  0  0
    0.4572   -0.6505    1.2162 H   0  0  0  0  0  0  0  0  0  0  0  0
    0.3091   -0.2220   -0.8868 C   0  0  1  0  0  0  0  0  0  0  0  0
   -0.1228    0.6109   -1.4450 H   0  0  0  0  0  0  0  0  0  0  0  0
    1.8419   -0.0747   -0.9363 C   0  0  0  0  0  0  0  0  0  0  0  0
    2.3253   -0.9268   -0.4551 H   0  0  0  0  0  0  0  0  0  0  0  0
    2.1825   -0.0088   -1.9684 H   0  0  0  0  0  0  0  0  0  0  0  0
    2.1492    0.8386   -0.4255 H   0  0  0  0  0  0  0  0  0  0  0  0
   -0.1428   -1.5257   -1.5823 C   0  0  0  0  0  0  0  0  0  0  0  0
    0.4003   -2.3761   -1.1680 H   0  0  0  0  0  0  0  0  0  0  0  0
   -1.2060   -1.6737   -1.3929 H   0  0  0  0  0  0  0  0  0  0  0  0
    0.0536   -1.5136   -3.1043 C   0  0  0  0  0  0  0  0  0  0  0  0
    1.1141   -1.4749   -3.3526 H   0  0  0  0  0  0  0  0  0  0  0  0
   -0.3687   -2.4247   -3.5286 H   0  0  0  0  0  0  0  0  0  0  0  0
   -0.4541   -0.6519   -3.5392 H   0  0  0  0  0  0  0  0  0  0  0  0
   -0.3971    1.3008    1.0689 C   0  0  0  0  0  0  0  0  0  0  0  0
   -1.3643    1.9819    0.7311 O   0  0  0  0  0  0  0  0  0  0  0  0
    0.5522    1.7647    1.8915 N   0  0  0  0  0  0  0  0  0  0  0  0
    1.3093    1.1450    2.1332 H   0  0  0  0  0  0  0  0  0  0  0  0
    0.5577    3.1119    2.4582 C   0  0  0  0  0  0  0  0  0  0  0  0
   -0.3986    3.3098    2.9475 H   0  0  0  0  0  0  0  0  0  0  0  0
    1.3619    3.2123    3.1886 H   0  0  0  0  0  0  0  0  0  0  0  0
    0.6974    3.8450    1.6614 H   0  0  0  0  0  0  0  0  0  0  0  0
  5  6  2  0  0  0  0
  5  7  1  0  0  0  0
  2  3  1  0  0  0  0
  2  4  1  0  0  0  0
  2  5  1  0  0  0  0
  1  2  1  0  0  0  0
 24 25  2  0  0  0  0
 24 26  1  0  0  0  0
 20 21  1  0  0  0  0
 20 22  1  0  0  0  0
 20 23  1  0  0  0  0
 17 18  1  0  0  0  0
 17 19  1  0  0  0  0
 17 20  1  0  0  0  0
 13 14  1  0  0  0  0
 13 15  1  0  0  0  0
 13 16  1  0  0  0  0
 11 12  1  0  0  0  0
 11 13  1  0  0  0  0
 11 17  1  0  0  0  0
  9 10  1  0  0  0  0
  9 11  1  0  0  0  0
  9 24  1  0  0  0  0
  7  8  1  0  0  0  0
  7  9  1  0  0  0  0
 28 29  1  0  0  0  0
 28 30  1  0  0  0  0
 28 31  1  0  0  0  0
 26 27  1  0  0  0  0
 26 28  1  0  0  0  0
M  END
$$$$
default_name
  -OEChem-02102213163D

 31 30  0     1  0  0  0  0  0999 V2000
   -3.0760   -3.6390    1.5496 H   0  0  0  0  0  0  0  0  0  0  0  0
   -3.0940   -2.6290    1.1426 C   0  0  0  0  0  0  0  0  0  0  0  0
   -3.7160   -1.9930    1.7706 H   0  0  0  0  0  0  0  0  0  0  0  0
   -3.4880   -2.6500    0.1286 H   0  0  0  0  0  0  0  0  0  0  0  0
   -1.6860   -2.0850    1.1196 C   0  0  0  0  0  0  0  0  0  0  0  0
   -0.7540   -2.7700    1.5226 O   0  0  0  0  0  0  0  0  0  0  0  0
   -1.5320   -0.8490    0.6496 N   0  0  0  0  0  0  0  0  0  0  0  0
   -2.3500   -0.3360    0.3566 H   0  0  0  0  0  0  0  0  0  0  0  0
   -0.2470   -0.1410    0.5576 C   0  0  1  0  0  0  0  0  0  0  0  0
    0.4572   -0.6505    1.2162 H   0  0  0  0  0  0  0  0  0  0  0  0
    0.3091   -0.2220   -0.8868 C   0  0  1  0  0  0  0  0  0  0  0  0
    0.1044    0.7380   -1.3647 H   0  0  0  0  0  0  0  0  0  0  0  0
    1.8331   -0.4459   -0.9189 C   0  0  0  0  0  0  0  0  0  0  0  0
    2.0851   -1.4298   -0.5193 H   0  0  0  0  0  0  0  0  0  0  0  0
    2.2051   -0.3705   -1.9394 H   0  0  0  0  0  0  0  0  0  0  0  0
    2.3382    0.3155   -0.3234 H   0  0  0  0  0  0  0  0  0  0  0  0
   -0.4257   -1.3086   -1.7034 C   0  0  0  0  0  0  0  0  0  0  0  0
   -0.3264   -2.2761   -1.2095 H   0  0  0  0  0  0  0  0  0  0  0  0
   -1.4849   -1.0557   -1.7504 H   0  0  0  0  0  0  0  0  0  0  0  0
    0.0775   -1.4419   -3.1471 C   0  0  0  0  0  0  0  0  0  0  0  0
    1.1072   -1.7987   -3.1617 H   0  0  0  0  0  0  0  0  0  0  0  0
   -0.5458   -2.1601   -3.6802 H   0  0  0  0  0  0  0  0  0  0  0  0
    0.0187   -0.4776   -3.6532 H   0  0  0  0  0  0  0  0  0  0  0  0
   -0.3971    1.3008    1.0689 C   0  0  0  0  0  0  0  0  0  0  0  0
   -1.3643    1.9819    0.7311 O   0  0  0  0  0  0  0  0  0  0  0  0
    0.5522    1.7647    1.8915 N   0  0  0  0  0  0  0  0  0  0  0  0
    1.3093    1.1450    2.1332 H   0  0  0  0  0  0  0  0  0  0  0  0
    0.5577    3.1119    2.4582 C   0  0  0  0  0  0  0  0  0  0  0  0
   -0.3986    3.3098    2.9475 H   0  0  0  0  0  0  0  0  0  0  0  0
    1.3619    3.2123    3.1886 H   0  0  0  0  0  0  0  0  0  0  0  0
    0.6974    3.8450    1.6614 H   0  0  0  0  0  0  0  0  0  0  0  0
  5  6  2  0  0  0  0
  5  7  1  0  0  0  0
  2  3  1  0  0  0  0
  2  4  1  0  0  0  0
  2  5  1  0  0  0  0
  1  2  1  0  0  0  0
 24 25  2  0  0  0  0
 24 26  1  0  0  0  0
 20 21  1  0  0  0  0
 20 22  1  0  0  0  0
 20 23  1  0  0  0  0
 17 18  1  0  0  0  0
 17 19  1  0  0  0  0
 17 20  1  0  0  0  0
 13 14  1  0  0  0  0
 13 15  1  0  0  0  0
 13 16  1  0  0  0  0
 11 12  1  0  0  0  0
 11 13  1  0  0  0  0
 11 17  1  0  0  0  0
  9 10  1  0  0  0  0
  9 11  1  0  0  0  0
  9 24  1  0  0  0  0
  7  8  1  0  0  0  0
  7  9  1  0  0  0  0
 28 29  1  0  0  0  0
 28 30  1  0  0  0  0
 28 31  1  0  0  0  0
 26 27  1  0  0  0  0
 26 28  1  0  0  0  0
M  END
$$$$
default_name
  -OEChem-02102213163D

 31 30  0     1  0  0  0  0  0999 V2000
   -3.0760   -3.6390    1.5496 H   0  0  0  0  0  0  0  0  0  0  0  0
   -3.0940   -2.6290    1.1426 C   0  0  0  0  0  0  0  0  0  0  0  0
   -3.7160   -1.9930    1.7706 H   0  0  0  0  0  0  0  0  0  0  0  0
   -3.4880   -2.6500    0.1286 H   0  0  0  0  0  0  0  0  0  0  0  0
   -1.6860   -2.0850    1.1196 C   0  0  0  0  0  0  0  0  0  0  0  0
   -0.7540   -2.7700    1.5226 O   0  0  0  0  0  0  0  0  0  0  0  0
   -1.5320   -0.8490    0.6496 N   0  0  0  0  0  0  0  0  0  0  0  0
   -2.3500   -0.3360    0.3566 H   0  0  0  0  0  0  0  0  0  0  0  0
   -0.2470   -0.1410    0.5576 C   0  0  1  0  0  0  0  0  0  0  0  0
    0.4572   -0.6505    1.2162 H   0  0  0  0  0  0  0  0  0  0  0  0
    0.3091   -0.2220   -0.8868 C   0  0  1  0  0  0  0  0  0  0  0  0
    0.1044    0.7380   -1.3647 H   0  0  0  0  0  0  0  0  0  0  0  0
    1.8331   -0.4459   -0.9189 C   0  0  0  0  0  0  0  0  0  0  0  0
    2.0851   -1.4298   -0.5193 H   0  0  0  0  0  0  0  0  0  0  0  0
    2.2051   -0.3705   -1.9394 H   0  0  0  0  0  0  0  0  0  0  0  0
    2.3382    0.3155   -0.3234 H   0  0  0  0  0  0  0  0  0  0  0  0
   -0.4257   -1.3086   -1.7034 C   0  0  0  0  0  0  0  0  0  0  0  0
   -0.5581   -2.2049   -1.0958 H   0  0  0  0  0  0  0  0  0  0  0  0
   -1.4113   -0.9336   -1.9790 H   0  0  0  0  0  0  0  0  0  0  0  0
    0.2949   -1.6987   -3.0011 C   0  0  0  0  0  0  0  0  0  0  0  0
    1.2471   -2.1804   -2.7796 H   0  0  0  0  0  0  0  0  0  0  0  0
   -0.3260   -2.3988   -3.5605 H   0  0  0  0  0  0  0  0  0  0  0  0
    0.4683   -0.8123   -3.6123 H   0  0  0  0  0  0  0  0  0  0  0  0
   -0.3971    1.3008    1.0689 C   0  0  0  0  0  0  0  0  0  0  0  0
   -1.3643    1.9819    0.7311 O   0  0  0  0  0  0  0  0  0  0  0  0
    0.5522    1.7647    1.8915 N   0  0  0  0  0  0  0  0  0  0  0  0
    1.3093    1.1450    2.1332 H   0  0  0  0  0  0  0  0  0  0  0  0
    0.5577    3.1119    2.4582 C   0  0  0  0  0  0  0  0  0  0  0  0
   -0.3986    3.3098    2.9475 H   0  0  0  0  0  0  0  0  0  0  0  0
    1.3619    3.2123    3.1886 H   0  0  0  0  0  0  0  0  0  0  0  0
    0.6974    3.8450    1.6614 H   0  0  0  0  0  0  0  0  0  0  0  0
  5  6  2  0  0  0  0
  5  7  1  0  0  0  0
  2  3  1  0  0  0  0
  2  4  1  0  0  0  0
  2  5  1  0  0  0  0
  1  2  1  0  0  0  0
 24 25  2  0  0  0  0
 24 26  1  0  0  0  0
 20 21  1  0  0  0  0
 20 22  1  0  0  0  0
 20 23  1  0  0  0  0
 17 18  1  0  0  0  0
 17 19  1  0  0  0  0
 17 20  1  0  0  0  0
 13 14  1  0  0  0  0
 13 15  1  0  0  0  0
 13 16  1  0  0  0  0
 11 12  1  0  0  0  0
 11 13  1  0  0  0  0
 11 17  1  0  0  0  0
  9 10  1  0  0  0  0
  9 11  1  0  0  0  0
  9 24  1  0  0  0  0
  7  8  1  0  0  0  0
  7  9  1  0  0  0  0
 28 29  1  0  0  0  0
 28 30  1  0  0  0  0
 28 31  1  0  0  0  0
 26 27  1  0  0  0  0
 26 28  1  0  0  0  0
M  END
$$$$
default_name
  -OEChem-02102213163D

 31 30  0     1  0  0  0  0  0999 V2000
   -3.0760   -3.6390    1.5496 H   0  0  0  0  0  0  0  0  0  0  0  0
   -3.0940   -2.6290    1.1426 C   0  0  0  0  0  0  0  0  0  0  0  0
   -3.7160   -1.9930    1.7706 H   0  0  0  0  0  0  0  0  0  0  0  0
   -3.4880   -2.6500    0.1286 H   0  0  0  0  0  0  0  0  0  0  0  0
   -1.6860   -2.0850    1.1196 C   0  0  0  0  0  0  0  0  0  0  0  0
   -0.7540   -2.7700    1.5226 O   0  0  0  0  0  0  0  0  0  0  0  0
   -1.5320   -0.8490    0.6496 N   0  0  0  0  0  0  0  0  0  0  0  0
   -2.3500   -0.3360    0.3566 H   0  0  0  0  0  0  0  0  0  0  0  0
   -0.2470   -0.1410    0.5576 C   0  0  1  0  0  0  0  0  0  0  0  0
    0.4572   -0.6505    1.2162 H   0  0  0  0  0  0  0  0  0  0  0  0
    0.3091   -0.2220   -0.8868 C   0  0  1  0  0  0  0  0  0  0  0  0
    0.1044    0.7380   -1.3647 H   0  0  0  0  0  0  0  0  0  0  0  0
    1.8331   -0.4459   -0.9189 C   0  0  0  0  0  0  0  0  0  0  0  0
    2.0851   -1.4298   -0.5193 H   0  0  0  0  0  0  0  0  0  0  0  0
    2.2051   -0.3705   -1.9394 H   0  0  0  0  0  0  0  0  0  0  0  0
    2.3382    0.3155   -0.3234 H   0  0  0  0  0  0  0  0  0  0  0  0
   -0.4257   -1.3086   -1.7034 C   0  0  0  0  0  0  0  0  0  0  0  0
   -0.7928   -2.0904   -1.0370 H   0  0  0  0  0  0  0  0  0  0  0  0
   -1.2820   -0.8539   -2.2015 H   0  0  0  0  0  0  0  0  0  0  0  0
    0.4432   -1.9585   -2.7888 C   0  0  0  0  0  0  0  0  0  0  0  0
    1.2605   -2.5212   -2.3381 H   0  0  0  0  0  0  0  0  0  0  0  0
   -0.1680   -2.6446   -3.3755 H   0  0  0  0  0  0  0  0  0  0  0  0
    0.8494   -1.1921   -3.4499 H   0  0  0  0  0  0  0  0  0  0  0  0
   -0.3971    1.3008    1.0689 C   0  0  0  0  0  0  0  0  0  0  0  0
   -1.3643    1.9819    0.7311 O   0  0  0  0  0  0  0  0  0  0  0  0
    0.5522    1.7647    1.8915 N   0  0  0  0  0  0  0  0  0  0  0  0
    1.3093    1.1450    2.1332 H   0  0  0  0  0  0  0  0  0  0  0  0
    0.5577    3.1119    2.4582 C   0  0  0  0  0  0  0  0  0  0  0  0
   -0.3986    3.3098    2.9475 H   0  0  0  0  0  0  0  0  0  0  0  0
    1.3619    3.2123    3.1886 H   0  0  0  0  0  0  0  0  0  0  0  0
    0.6974    3.8450    1.6614 H   0  0  0  0  0  0  0  0  0  0  0  0
  5  6  2  0  0  0  0
  5  7  1  0  0  0  0
  2  3  1  0  0  0  0
  2  4  1  0  0  0  0
  2  5  1  0  0  0  0
  1  2  1  0  0  0  0
 24 25  2  0  0  0  0
 24 26  1  0  0  0  0
 20 21  1  0  0  0  0
 20 22  1  0  0  0  0
 20 23  1  0  0  0  0
 17 18  1  0  0  0  0
 17 19  1  0  0  0  0
 17 20  1  0  0  0  0
 13 14  1  0  0  0  0
 13 15  1  0  0  0  0
 13 16  1  0  0  0  0
 11 12  1  0  0  0  0
 11 13  1  0  0  0  0
 11 17  1  0  0  0  0
  9 10  1  0  0  0  0
  9 11  1  0  0  0  0
  9 24  1  0  0  0  0
  7  8  1  0  0  0  0
  7  9  1  0  0  0  0
 28 29  1  0  0  0  0
 28 30  1  0  0  0  0
 28 31  1  0  0  0  0
 26 27  1  0  0  0  0
 26 28  1  0  0  0  0
M  END
$$$$
default_name
  -OEChem-02102213163D

 31 30  0     1  0  0  0  0  0999 V2000
   -3.0760   -3.6390    1.5496 H   0  0  0  0  0  0  0  0  0  0  0  0
   -3.0940   -2.6290    1.1426 C   0  0  0  0  0  0  0  0  0  0  0  0
   -3.7160   -1.9930    1.7706 H   0  0  0  0  0  0  0  0  0  0  0  0
   -3.4880   -2.6500    0.1286 H   0  0  0  0  0  0  0  0  0  0  0  0
   -1.6860   -2.0850    1.1196 C   0  0  0  0  0  0  0  0  0  0  0  0
   -0.7540   -2.7700    1.5226 O   0  0  0  0  0  0  0  0  0  0  0  0
   -1.5320   -0.8490    0.6496 N   0  0  0  0  0  0  0  0  0  0  0  0
   -2.3500   -0.3360    0.3566 H   0  0  0  0  0  0  0  0  0  0  0  0
   -0.2470   -0.1410    0.5576 C   0  0  1  0  0  0  0  0  0  0  0  0
    0.4572   -0.6505    1.2162 H   0  0  0  0  0  0  0  0  0  0  0  0
    0.3091   -0.2220   -0.8868 C   0  0  1  0  0  0  0  0  0  0  0  0
    0.1044    0.7380   -1.3647 H   0  0  0  0  0  0  0  0  0  0  0  0
    1.8331   -0.4459   -0.9189 C   0  0  0  0  0  0  0  0  0  0  0  0
    2.0851   -1.4298   -0.5193 H   0  0  0  0  0  0  0  0  0  0  0  0
    2.2051   -0.3705   -1.9394 H   0  0  0  0  0  0  0  0  0  0  0  0
    2.3382    0.3155   -0.3234 H   0  0  0  0  0  0  0  0  0  0  0  0
   -0.4257   -1.3086   -1.7034 C   0  0  0  0  0  0  0  0  0  0  0  0
   -1.0145   -1.9404   -1.0370 H   0  0  0  0  0  0  0  0  0  0  0  0
   -1.1056   -0.8220   -2.4026 H   0  0  0  0  0  0  0  0  0  0  0  0
    0.5122   -2.2035   -2.5248 C   0  0  0  0  0  0  0  0  0  0  0  0
    1.1464   -2.7979   -1.8673 H   0  0  0  0  0  0  0  0  0  0  0  0
   -0.0827   -2.8809   -3.1378 H   0  0  0  0  0  0  0  0  0  0  0  0
    1.1360   -1.5911   -3.1768 H   0  0  0  0  0  0  0  0  0  0  0  0
   -0.3971    1.3008    1.0689 C   0  0  0  0  0  0  0  0  0  0  0  0
   -1.3643    1.9819    0.7311 O   0  0  0  0  0  0  0  0  0  0  0  0
    0.5522    1.7647    1.8915 N   0  0  0  0  0  0  0  0  0  0  0  0
    1.3093    1.1450    2.1332 H   0  0  0  0  0  0  0  0  0  0  0  0
    0.5577    3.1119    2.4582 C   0  0  0  0  0  0  0  0  0  0  0  0
   -0.3986    3.3098    2.9475 H   0  0  0  0  0  0  0  0  0  0  0  0
    1.3619    3.2123    3.1886 H   0  0  0  0  0  0  0  0  0  0  0  0
    0.6974    3.8450    1.6614 H   0  0  0  0  0  0  0  0  0  0  0  0
  5  6  2  0  0  0  0
  5  7  1  0  0  0  0
  2  3  1  0  0  0  0
  2  4  1  0  0  0  0
  2  5  1  0  0  0  0
  1  2  1  0  0  0  0
 24 25  2  0  0  0  0
 24 26  1  0  0  0  0
 20 21  1  0  0  0  0
 20 22  1  0  0  0  0
 20 23  1  0  0  0  0
 17 18  1  0  0  0  0
 17 19  1  0  0  0  0
 17 20  1  0  0  0  0
 13 14  1  0  0  0  0
 13 15  1  0  0  0  0
 13 16  1  0  0  0  0
 11 12  1  0  0  0  0
 11 13  1  0  0  0  0
 11 17  1  0  0  0  0
  9 10  1  0  0  0  0
  9 11  1  0  0  0  0
  9 24  1  0  0  0  0
  7  8  1  0  0  0  0
  7  9  1  0  0  0  0
 28 29  1  0  0  0  0
 28 30  1  0  0  0  0
 28 31  1  0  0  0  0
 26 27  1  0  0  0  0
 26 28  1  0  0  0  0
M  END
$$$$
default_name
  -OEChem-02102213163D

 31 30  0     1  0  0  0  0  0999 V2000
   -3.0760   -3.6390    1.5496 H   0  0  0  0  0  0  0  0  0  0  0  0
   -3.0940   -2.6290    1.1426 C   0  0  0  0  0  0  0  0  0  0  0  0
   -3.7160   -1.9930    1.7706 H   0  0  0  0  0  0  0  0  0  0  0  0
   -3.4880   -2.6500    0.1286 H   0  0  0  0  0  0  0  0  0  0  0  0
   -1.6860   -2.0850    1.1196 C   0  0  0  0  0  0  0  0  0  0  0  0
   -0.7540   -2.7700    1.5226 O   0  0  0  0  0  0  0  0  0  0  0  0
   -1.5320   -0.8490    0.6496 N   0  0  0  0  0  0  0  0  0  0  0  0
   -2.3500   -0.3360    0.3566 H   0  0  0  0  0  0  0  0  0  0  0  0
   -0.2470   -0.1410    0.5576 C   0  0  1  0  0  0  0  0  0  0  0  0
    0.4572   -0.6505    1.2162 H   0  0  0  0  0  0  0  0  0  0  0  0
    0.3091   -0.2220   -0.8868 C   0  0  1  0  0  0  0  0  0  0  0  0
    0.1044    0.7380   -1.3647 H   0  0  0  0  0  0  0  0  0  0  0  0
    1.8331   -0.4459   -0.9189 C   0  0  0  0  0  0  0  0  0  0  0  0
    2.0851   -1.4298   -0.5193 H   0  0  0  0  0  0  0  0  0  0  0  0
    2.2051   -0.3705   -1.9394 H   0  0  0  0  0  0  0  0  0  0  0  0
    2.3382    0.3155   -0.3234 H   0  0  0  0  0  0  0  0  0  0  0  0
   -0.4257   -1.3086   -1.7034 C   0  0  0  0  0  0  0  0  0  0  0  0
   -1.2082   -1.7652   -1.0958 H   0  0  0  0  0  0  0  0  0  0  0  0
   -0.8943   -0.8401   -2.5688 H   0  0  0  0  0  0  0  0  0  0  0  0
    0.4974   -2.4172   -2.2270 C   0  0  0  0  0  0  0  0  0  0  0  0
    0.9127   -2.9916   -1.3992 H   0  0  0  0  0  0  0  0  0  0  0  0
   -0.0759   -3.0916   -2.8636 H   0  0  0  0  0  0  0  0  0  0  0  0
    1.3085   -1.9821   -2.8119 H   0  0  0  0  0  0  0  0  0  0  0  0
   -0.3971    1.3008    1.0689 C   0  0  0  0  0  0  0  0  0  0  0  0
   -1.3643    1.9819    0.7311 O   0  0  0  0  0  0  0  0  0  0  0  0
    0.5522    1.7647    1.8915 N   0  0  0  0  0  0  0  0  0  0  0  0
    1.3093    1.1450    2.1332 H   0  0  0  0  0  0  0  0  0  0  0  0
    0.5577    3.1119    2.4582 C   0  0  0  0  0  0  0  0  0  0  0  0
   -0.3986    3.3098    2.9475 H   0  0  0  0  0  0  0  0  0  0  0  0
    1.3619    3.2123    3.1886 H   0  0  0  0  0  0  0  0  0  0  0  0
    0.6974    3.8450    1.6614 H   0  0  0  0  0  0  0  0  0  0  0  0
  5  6  2  0  0  0  0
  5  7  1  0  0  0  0
  2  3  1  0  0  0  0
  2  4  1  0  0  0  0
  2  5  1  0  0  0  0
  1  2  1  0  0  0  0
 24 25  2  0  0  0  0
 24 26  1  0  0  0  0
 20 21  1  0  0  0  0
 20 22  1  0  0  0  0
 20 23  1  0  0  0  0
 17 18  1  0  0  0  0
 17 19  1  0  0  0  0
 17 20  1  0  0  0  0
 13 14  1  0  0  0  0
 13 15  1  0  0  0  0
 13 16  1  0  0  0  0
 11 12  1  0  0  0  0
 11 13  1  0  0  0  0
 11 17  1  0  0  0  0
  9 10  1  0  0  0  0
  9 11  1  0  0  0  0
  9 24  1  0  0  0  0
  7  8  1  0  0  0  0
  7  9  1  0  0  0  0
 28 29  1  0  0  0  0
 28 30  1  0  0  0  0
 28 31  1  0  0  0  0
 26 27  1  0  0  0  0
 26 28  1  0  0  0  0
M  END
$$$$
default_name
  -OEChem-02102213163D

 31 30  0     1  0  0  0  0  0999 V2000
   -3.0760   -3.6390    1.5496 H   0  0  0  0  0  0  0  0  0  0  0  0
   -3.0940   -2.6290    1.1426 C   0  0  0  0  0  0  0  0  0  0  0  0
   -3.7160   -1.9930    1.7706 H   0  0  0  0  0  0  0  0  0  0  0  0
   -3.4880   -2.6500    0.1286 H   0  0  0  0  0  0  0  0  0  0  0  0
   -1.6860   -2.0850    1.1196 C   0  0  0  0  0  0  0  0  0  0  0  0
   -0.7540   -2.7700    1.5226 O   0  0  0  0  0  0  0  0  0  0  0  0
   -1.5320   -0.8490    0.6496 N   0  0  0  0  0  0  0  0  0  0  0  0
   -2.3500   -0.3360    0.3566 H   0  0  0  0  0  0  0  0  0  0  0  0
   -0.2470   -0.1410    0.5576 C   0  0  1  0  0  0  0  0  0  0  0  0
    0.4572   -0.6505    1.2162 H   0  0  0  0  0  0  0  0  0  0  0  0
    0.3091   -0.2220   -0.8868 C   0  0  1  0  0  0  0  0  0  0  0  0
    0.1044    0.7380   -1.3647 H   0  0  0  0  0  0  0  0  0  0  0  0
    1.8331   -0.4459   -0.9189 C   0  0  0  0  0  0  0  0  0  0  0  0
    2.0851   -1.4298   -0.5193 H   0  0  0  0  0  0  0  0  0  0  0  0
    2.2051   -0.3705   -1.9394 H   0  0  0  0  0  0  0  0  0  0  0  0
    2.3382    0.3155   -0.3234 H   0  0  0  0  0  0  0  0  0  0  0  0
   -0.4257   -1.3086   -1.7034 C   0  0  0  0  0  0  0  0  0  0  0  0
   -1.3606   -1.5768   -1.2095 H   0  0  0  0  0  0  0  0  0  0  0  0
   -0.6624   -0.9068   -2.6886 H   0  0  0  0  0  0  0  0  0  0  0  0
    0.3996   -2.5850   -1.9158 C   0  0  0  0  0  0  0  0  0  0  0  0
    0.5753   -3.0892   -0.9657 H   0  0  0  0  0  0  0  0  0  0  0  0
   -0.1481   -3.2622   -2.5716 H   0  0  0  0  0  0  0  0  0  0  0  0
    1.3552   -2.3384   -2.3798 H   0  0  0  0  0  0  0  0  0  0  0  0
   -0.3971    1.3008    1.0689 C   0  0  0  0  0  0  0  0  0  0  0  0
   -1.3643    1.9819    0.7311 O   0  0  0  0  0  0  0  0  0  0  0  0
    0.5522    1.7647    1.8915 N   0  0  0  0  0  0  0  0  0  0  0  0
    1.3093    1.1450    2.1332 H   0  0  0  0  0  0  0  0  0  0  0  0
    0.5577    3.1119    2.4582 C   0  0  0  0  0  0  0  0  0  0  0  0
   -0.3986    3.3098    2.9475 H   0  0  0  0  0  0  0  0  0  0  0  0
    1.3619    3.2123    3.1886 H   0  0  0  0  0  0  0  0  0  0  0  0
    0.6974    3.8450    1.6614 H   0  0  0  0  0  0  0  0  0  0  0  0
  5  6  2  0  0  0  0
  5  7  1  0  0  0  0
  2  3  1  0  0  0  0
  2  4  1  0  0  0  0
  2  5  1  0  0  0  0
  1  2  1  0  0  0  0
 24 25  2  0  0  0  0
 24 26  1  0  0  0  0
 20 21  1  0  0  0  0
 20 22  1  0  0  0  0
 20 23  1  0  0  0  0
 17 18  1  0  0  0  0
 17 19  1  0  0  0  0
 17 20  1  0  0  0  0
 13 14  1  0  0  0  0
 13 15  1  0  0  0  0
 13 16  1  0  0  0  0
 11 12  1  0  0  0  0
 11 13  1  0  0  0  0
 11 17  1  0  0  0  0
  9 10  1  0  0  0  0
  9 11  1  0  0  0  0
  9 24  1  0  0  0  0
  7  8  1  0  0  0  0
  7  9  1  0  0  0  0
 28 29  1  0  0  0  0
 28 30  1  0  0  0  0
 28 31  1  0  0  0  0
 26 27  1  0  0  0  0
 26 28  1  0  0  0  0
M  END
$$$$
default_name
  -OEChem-02102213163D

 31 30  0     1  0  0  0  0  0999 V2000
   -3.0760   -3.6390    1.5496 H   0  0  0  0  0  0  0  0  0  0  0  0
   -3.0940   -2.6290    1.1426 C   0  0  0  0  0  0  0  0  0  0  0  0
   -3.7160   -1.9930    1.7706 H   0  0  0  0  0  0  0  0  0  0  0  0
   -3.4880   -2.6500    0.1286 H   0  0  0  0  0  0  0  0  0  0  0  0
   -1.6860   -2.0850    1.1196 C   0  0  0  0  0  0  0  0  0  0  0  0
   -0.7540   -2.7700    1.5226 O   0  0  0  0  0  0  0  0  0  0  0  0
   -1.5320   -0.8490    0.6496 N   0  0  0  0  0  0  0  0  0  0  0  0
   -2.3500   -0.3360    0.3566 H   0  0  0  0  0  0  0  0  0  0  0  0
   -0.2470   -0.1410    0.5576 C   0  0  1  0  0  0  0  0  0  0  0  0
    0.4572   -0.6505    1.2162 H   0  0  0  0  0  0  0  0  0  0  0  0
    0.3091   -0.2220   -0.8868 C   0  0  1  0  0  0  0  0  0  0  0  0
    0.1044    0.7380   -1.3647 H   0  0  0  0  0  0  0  0  0  0  0  0
    1.8331   -0.4459   -0.9189 C   0  0  0  0  0  0  0  0  0  0  0  0
    2.0851   -1.4298   -0.5193 H   0  0  0  0  0  0  0  0  0  0  0  0
    2.2051   -0.3705   -1.9394 H   0  0  0  0  0  0  0  0  0  0  0  0
    2.3382    0.3155   -0.3234 H   0  0  0  0  0  0  0  0  0  0  0  0
   -0.4257   -1.3086   -1.7034 C   0  0  0  0  0  0  0  0  0  0  0  0
   -1.4613   -1.3879   -1.3701 H   0  0  0  0  0  0  0  0  0  0  0  0
   -0.4258   -1.0178   -2.7539 H   0  0  0  0  0  0  0  0  0  0  0  0
    0.2256   -2.6953   -1.6124 C   0  0  0  0  0  0  0  0  0  0  0  0
    0.1571   -3.0839   -0.5965 H   0  0  0  0  0  0  0  0  0  0  0  0
   -0.2943   -3.3812   -2.2816 H   0  0  0  0  0  0  0  0  0  0  0  0
    1.2730   -2.6357   -1.9100 H   0  0  0  0  0  0  0  0  0  0  0  0
   -0.3971    1.3008    1.0689 C   0  0  0  0  0  0  0  0  0  0  0  0
   -1.3643    1.9819    0.7311 O   0  0  0  0  0  0  0  0  0  0  0  0
    0.5522    1.7647    1.8915 N   0  0  0  0  0  0  0  0  0  0  0  0
    1.3093    1.1450    2.1332 H   0  0  0  0  0  0  0  0  0  0  0  0
    0.5577    3.1119    2.4582 C   0  0  0  0  0  0  0  0  0  0  0  0
   -0.3986    3.3098    2.9475 H   0  0  0  0  0  0  0  0  0  0  0  0
    1.3619    3.2123    3.1886 H   0  0  0  0  0  0  0  0  0  0  0  0
    0.6974    3.8450    1.6614 H   0  0  0  0  0  0  0  0  0  0  0  0
  5  6  2  0  0  0  0
  5  7  1  0  0  0  0
  2  3  1  0  0  0  0
  2  4  1  0  0  0  0
  2  5  1  0  0  0  0
  1  2  1  0  0  0  0
 24 25  2  0  0  0  0
 24 26  1  0  0  0  0
 20 21  1  0  0  0  0
 20 22  1  0  0  0  0
 20 23  1  0  0  0  0
 17 18  1  0  0  0  0
 17 19  1  0  0  0  0
 17 20  1  0  0  0  0
 13 14  1  0  0  0  0
 13 15  1  0  0  0  0
 13 16  1  0  0  0  0
 11 12  1  0  0  0  0
 11 13  1  0  0  0  0
 11 17  1  0  0  0  0
  9 10  1  0  0  0  0
  9 11  1  0  0  0  0
  9 24  1  0  0  0  0
  7  8  1  0  0  0  0
  7  9  1  0  0  0  0
 28 29  1  0  0  0  0
 28 30  1  0  0  0  0
 28 31  1  0  0  0  0
 26 27  1  0  0  0  0
 26 28  1  0  0  0  0
M  END
$$$$
default_name
  -OEChem-02102213163D

 31 30  0     1  0  0  0  0  0999 V2000
   -3.0760   -3.6390    1.5496 H   0  0  0  0  0  0  0  0  0  0  0  0
   -3.0940   -2.6290    1.1426 C   0  0  0  0  0  0  0  0  0  0  0  0
   -3.7160   -1.9930    1.7706 H   0  0  0  0  0  0  0  0  0  0  0  0
   -3.4880   -2.6500    0.1286 H   0  0  0  0  0  0  0  0  0  0  0  0
   -1.6860   -2.0850    1.1196 C   0  0  0  0  0  0  0  0  0  0  0  0
   -0.7540   -2.7700    1.5226 O   0  0  0  0  0  0  0  0  0  0  0  0
   -1.5320   -0.8490    0.6496 N   0  0  0  0  0  0  0  0  0  0  0  0
   -2.3500   -0.3360    0.3566 H   0  0  0  0  0  0  0  0  0  0  0  0
   -0.2470   -0.1410    0.5576 C   0  0  1  0  0  0  0  0  0  0  0  0
    0.4572   -0.6505    1.2162 H   0  0  0  0  0  0  0  0  0  0  0  0
    0.3091   -0.2220   -0.8868 C   0  0  1  0  0  0  0  0  0  0  0  0
    0.1044    0.7380   -1.3647 H   0  0  0  0  0  0  0  0  0  0  0  0
    1.8331   -0.4459   -0.9189 C   0  0  0  0  0  0  0  0  0  0  0  0
    2.0851   -1.4298   -0.5193 H   0  0  0  0  0  0  0  0  0  0  0  0
    2.2051   -0.3705   -1.9394 H   0  0  0  0  0  0  0  0  0  0  0  0
    2.3382    0.3155   -0.3234 H   0  0  0  0  0  0  0  0  0  0  0  0
   -0.4257   -1.3086   -1.7034 C   0  0  0  0  0  0  0  0  0  0  0  0
   -1.5036   -1.2115   -1.5669 H   0  0  0  0  0  0  0  0  0  0  0  0
   -0.2005   -1.1654   -2.7602 H   0  0  0  0  0  0  0  0  0  0  0  0
   -0.0129   -2.7407   -1.3374 C   0  0  0  0  0  0  0  0  0  0  0  0
   -0.3133   -2.9761   -0.3166 H   0  0  0  0  0  0  0  0  0  0  0  0
   -0.5046   -3.4405   -2.0135 H   0  0  0  0  0  0  0  0  0  0  0  0
    1.0674   -2.8539   -1.4347 H   0  0  0  0  0  0  0  0  0  0  0  0
   -0.3971    1.3008    1.0689 C   0  0  0  0  0  0  0  0  0  0  0  0
   -1.3643    1.9819    0.7311 O   0  0  0  0  0  0  0  0  0  0  0  0
    0.5522    1.7647    1.8915 N   0  0  0  0  0  0  0  0  0  0  0  0
    1.3093    1.1450    2.1332 H   0  0  0  0  0  0  0  0  0  0  0  0
    0.5577    3.1119    2.4582 C   0  0  0  0  0  0  0  0  0  0  0  0
   -0.3986    3.3098    2.9475 H   0  0  0  0  0  0  0  0  0  0  0  0
    1.3619    3.2123    3.1886 H   0  0  0  0  0  0  0  0  0  0  0  0
    0.6974    3.8450    1.6614 H   0  0  0  0  0  0  0  0  0  0  0  0
  5  6  2  0  0  0  0
  5  7  1  0  0  0  0
  2  3  1  0  0  0  0
  2  4  1  0  0  0  0
  2  5  1  0  0  0  0
  1  2  1  0  0  0  0
 24 25  2  0  0  0  0
 24 26  1  0  0  0  0
 20 21  1  0  0  0  0
 20 22  1  0  0  0  0
 20 23  1  0  0  0  0
 17 18  1  0  0  0  0
 17 19  1  0  0  0  0
 17 20  1  0  0  0  0
 13 14  1  0  0  0  0
 13 15  1  0  0  0  0
 13 16  1  0  0  0  0
 11 12  1  0  0  0  0
 11 13  1  0  0  0  0
 11 17  1  0  0  0  0
  9 10  1  0  0  0  0
  9 11  1  0  0  0  0
  9 24  1  0  0  0  0
  7  8  1  0  0  0  0
  7  9  1  0  0  0  0
 28 29  1  0  0  0  0
 28 30  1  0  0  0  0
 28 31  1  0  0  0  0
 26 27  1  0  0  0  0
 26 28  1  0  0  0  0
M  END
$$$$
default_name
  -OEChem-02102213163D

 31 30  0     1  0  0  0  0  0999 V2000
   -3.0760   -3.6390    1.5496 H   0  0  0  0  0  0  0  0  0  0  0  0
   -3.0940   -2.6290    1.1426 C   0  0  0  0  0  0  0  0  0  0  0  0
   -3.7160   -1.9930    1.7706 H   0  0  0  0  0  0  0  0  0  0  0  0
   -3.4880   -2.6500    0.1286 H   0  0  0  0  0  0  0  0  0  0  0  0
   -1.6860   -2.0850    1.1196 C   0  0  0  0  0  0  0  0  0  0  0  0
   -0.7540   -2.7700    1.5226 O   0  0  0  0  0  0  0  0  0  0  0  0
   -1.5320   -0.8490    0.6496 N   0  0  0  0  0  0  0  0  0  0  0  0
   -2.3500   -0.3360    0.3566 H   0  0  0  0  0  0  0  0  0  0  0  0
   -0.2470   -0.1410    0.5576 C   0  0  1  0  0  0  0  0  0  0  0  0
    0.4572   -0.6505    1.2162 H   0  0  0  0  0  0  0  0  0  0  0  0
    0.3091   -0.2220   -0.8868 C   0  0  1  0  0  0  0  0  0  0  0  0
    0.1044    0.7380   -1.3647 H   0  0  0  0  0  0  0  0  0  0  0  0
    1.8331   -0.4459   -0.9189 C   0  0  0  0  0  0  0  0  0  0  0  0
    2.0851   -1.4298   -0.5193 H   0  0  0  0  0  0  0  0  0  0  0  0
    2.2051   -0.3705   -1.9394 H   0  0  0  0  0  0  0  0  0  0  0  0
    2.3382    0.3155   -0.3234 H   0  0  0  0  0  0  0  0  0  0  0  0
   -0.4257   -1.3086   -1.7034 C   0  0  0  0  0  0  0  0  0  0  0  0
   -1.4844   -1.0595   -1.7864 H   0  0  0  0  0  0  0  0  0  0  0  0
   -0.0019   -1.3396   -2.7071 H   0  0  0  0  0  0  0  0  0  0  0  0
   -0.2994   -2.7181   -1.1096 C   0  0  0  0  0  0  0  0  0  0  0  0
   -0.8039   -2.7732   -0.1451 H   0  0  0  0  0  0  0  0  0  0  0  0
   -0.7646   -3.4360   -1.7855 H   0  0  0  0  0  0  0  0  0  0  0  0
    0.7525   -2.9780   -0.9861 H   0  0  0  0  0  0  0  0  0  0  0  0
   -0.3971    1.3008    1.0689 C   0  0  0  0  0  0  0  0  0  0  0  0
   -1.3643    1.9819    0.7311 O   0  0  0  0  0  0  0  0  0  0  0  0
    0.5522    1.7647    1.8915 N   0  0  0  0  0  0  0  0  0  0  0  0
    1.3093    1.1450    2.1332 H   0  0  0  0  0  0  0  0  0  0  0  0
    0.5577    3.1119    2.4582 C   0  0  0  0  0  0  0  0  0  0  0  0
   -0.3986    3.3098    2.9475 H   0  0  0  0  0  0  0  0  0  0  0  0
    1.3619    3.2123    3.1886 H   0  0  0  0  0  0  0  0  0  0  0  0
    0.6974    3.8450    1.6614 H   0  0  0  0  0  0  0  0  0  0  0  0
  5  6  2  0  0  0  0
  5  7  1  0  0  0  0
  2  3  1  0  0  0  0
  2  4  1  0  0  0  0
  2  5  1  0  0  0  0
  1  2  1  0  0  0  0
 24 25  2  0  0  0  0
 24 26  1  0  0  0  0
 20 21  1  0  0  0  0
 20 22  1  0  0  0  0
 20 23  1  0  0  0  0
 17 18  1  0  0  0  0
 17 19  1  0  0  0  0
 17 20  1  0  0  0  0
 13 14  1  0  0  0  0
 13 15  1  0  0  0  0
 13 16  1  0  0  0  0
 11 12  1  0  0  0  0
 11 13  1  0  0  0  0
 11 17  1  0  0  0  0
  9 10  1  0  0  0  0
  9 11  1  0  0  0  0
  9 24  1  0  0  0  0
  7  8  1  0  0  0  0
  7  9  1  0  0  0  0
 28 29  1  0  0  0  0
 28 30  1  0  0  0  0
 28 31  1  0  0  0  0
 26 27  1  0  0  0  0
 26 28  1  0  0  0  0
M  END
$$$$
default_name
  -OEChem-02102213163D

 31 30  0     1  0  0  0  0  0999 V2000
   -3.0760   -3.6390    1.5496 H   0  0  0  0  0  0  0  0  0  0  0  0
   -3.0940   -2.6290    1.1426 C   0  0  0  0  0  0  0  0  0  0  0  0
   -3.7160   -1.9930    1.7706 H   0  0  0  0  0  0  0  0  0  0  0  0
   -3.4880   -2.6500    0.1286 H   0  0  0  0  0  0  0  0  0  0  0  0
   -1.6860   -2.0850    1.1196 C   0  0  0  0  0  0  0  0  0  0  0  0
   -0.7540   -2.7700    1.5226 O   0  0  0  0  0  0  0  0  0  0  0  0
   -1.5320   -0.8490    0.6496 N   0  0  0  0  0  0  0  0  0  0  0  0
   -2.3500   -0.3360    0.3566 H   0  0  0  0  0  0  0  0  0  0  0  0
   -0.2470   -0.1410    0.5576 C   0  0  1  0  0  0  0  0  0  0  0  0
    0.4572   -0.6505    1.2162 H   0  0  0  0  0  0  0  0  0  0  0  0
    0.3091   -0.2220   -0.8868 C   0  0  1  0  0  0  0  0  0  0  0  0
    0.1044    0.7380   -1.3647 H   0  0  0  0  0  0  0  0  0  0  0  0
    1.8331   -0.4459   -0.9189 C   0  0  0  0  0  0  0  0  0  0  0  0
    2.0851   -1.4298   -0.5193 H   0  0  0  0  0  0  0  0  0  0  0  0
    2.2051   -0.3705   -1.9394 H   0  0  0  0  0  0  0  0  0  0  0  0
    2.3382    0.3155   -0.3234 H   0  0  0  0  0  0  0  0  0  0  0  0
   -0.4257   -1.3086   -1.7034 C   0  0  0  0  0  0  0  0  0  0  0  0
   -1.4052   -0.9423   -2.0137 H   0  0  0  0  0  0  0  0  0  0  0  0
    0.1564   -1.5284   -2.5983 H   0  0  0  0  0  0  0  0  0  0  0  0
   -0.6146   -2.6291   -0.9444 C   0  0  0  0  0  0  0  0  0  0  0  0
   -1.2812   -2.4890   -0.0937 H   0  0  0  0  0  0  0  0  0  0  0  0
   -1.0566   -3.3680   -1.6132 H   0  0  0  0  0  0  0  0  0  0  0  0
    0.3496   -2.9996   -0.5948 H   0  0  0  0  0  0  0  0  0  0  0  0
   -0.3971    1.3008    1.0689 C   0  0  0  0  0  0  0  0  0  0  0  0
   -1.3643    1.9819    0.7311 O   0  0  0  0  0  0  0  0  0  0  0  0
    0.5522    1.7647    1.8915 N   0  0  0  0  0  0  0  0  0  0  0  0
    1.3093    1.1450    2.1332 H   0  0  0  0  0  0  0  0  0  0  0  0
    0.5577    3.1119    2.4582 C   0  0  0  0  0  0  0  0  0  0  0  0
   -0.3986    3.3098    2.9475 H   0  0  0  0  0  0  0  0  0  0  0  0
    1.3619    3.2123    3.1886 H   0  0  0  0  0  0  0  0  0  0  0  0
    0.6974    3.8450    1.6614 H   0  0  0  0  0  0  0  0  0  0  0  0
  5  6  2  0  0  0  0
  5  7  1  0  0  0  0
  2  3  1  0  0  0  0
  2  4  1  0  0  0  0
  2  5  1  0  0  0  0
  1  2  1  0  0  0  0
 24 25  2  0  0  0  0
 24 26  1  0  0  0  0
 20 21  1  0  0  0  0
 20 22  1  0  0  0  0
 20 23  1  0  0  0  0
 17 18  1  0  0  0  0
 17 19  1  0  0  0  0
 17 20  1  0  0  0  0
 13 14  1  0  0  0  0
 13 15  1  0  0  0  0
 13 16  1  0  0  0  0
 11 12  1  0  0  0  0
 11 13  1  0  0  0  0
 11 17  1  0  0  0  0
  9 10  1  0  0  0  0
  9 11  1  0  0  0  0
  9 24  1  0  0  0  0
  7  8  1  0  0  0  0
  7  9  1  0  0  0  0
 28 29  1  0  0  0  0
 28 30  1  0  0  0  0
 28 31  1  0  0  0  0
 26 27  1  0  0  0  0
 26 28  1  0  0  0  0
M  END
$$$$
default_name
  -OEChem-02102213163D

 31 30  0     1  0  0  0  0  0999 V2000
   -3.0760   -3.6390    1.5496 H   0  0  0  0  0  0  0  0  0  0  0  0
   -3.0940   -2.6290    1.1426 C   0  0  0  0  0  0  0  0  0  0  0  0
   -3.7160   -1.9930    1.7706 H   0  0  0  0  0  0  0  0  0  0  0  0
   -3.4880   -2.6500    0.1286 H   0  0  0  0  0  0  0  0  0  0  0  0
   -1.6860   -2.0850    1.1196 C   0  0  0  0  0  0  0  0  0  0  0  0
   -0.7540   -2.7700    1.5226 O   0  0  0  0  0  0  0  0  0  0  0  0
   -1.5320   -0.8490    0.6496 N   0  0  0  0  0  0  0  0  0  0  0  0
   -2.3500   -0.3360    0.3566 H   0  0  0  0  0  0  0  0  0  0  0  0
   -0.2470   -0.1410    0.5576 C   0  0  1  0  0  0  0  0  0  0  0  0
    0.4572   -0.6505    1.2162 H   0  0  0  0  0  0  0  0  0  0  0  0
    0.3091   -0.2220   -0.8868 C   0  0  1  0  0  0  0  0  0  0  0  0
    0.1044    0.7380   -1.3647 H   0  0  0  0  0  0  0  0  0  0  0  0
    1.8331   -0.4459   -0.9189 C   0  0  0  0  0  0  0  0  0  0  0  0
    2.0851   -1.4298   -0.5193 H   0  0  0  0  0  0  0  0  0  0  0  0
    2.2051   -0.3705   -1.9394 H   0  0  0  0  0  0  0  0  0  0  0  0
    2.3382    0.3155   -0.3234 H   0  0  0  0  0  0  0  0  0  0  0  0
   -0.4257   -1.3086   -1.7034 C   0  0  0  0  0  0  0  0  0  0  0  0
   -1.2713   -0.8679   -2.2332 H   0  0  0  0  0  0  0  0  0  0  0  0
    0.2637   -1.7191   -2.4411 H   0  0  0  0  0  0  0  0  0  0  0  0
   -0.9369   -2.4796   -0.8533 C   0  0  0  0  0  0  0  0  0  0  0  0
   -1.7127   -2.1429   -0.1659 H   0  0  0  0  0  0  0  0  0  0  0  0
   -1.3608   -3.2412   -1.5082 H   0  0  0  0  0  0  0  0  0  0  0  0
   -0.1136   -2.9172   -0.2875 H   0  0  0  0  0  0  0  0  0  0  0  0
   -0.3971    1.3008    1.0689 C   0  0  0  0  0  0  0  0  0  0  0  0
   -1.3643    1.9819    0.7311 O   0  0  0  0  0  0  0  0  0  0  0  0
    0.5522    1.7647    1.8915 N   0  0  0  0  0  0  0  0  0  0  0  0
    1.3093    1.1450    2.1332 H   0  0  0  0  0  0  0  0  0  0  0  0
    0.5577    3.1119    2.4582 C   0  0  0  0  0  0  0  0  0  0  0  0
   -0.3986    3.3098    2.9475 H   0  0  0  0  0  0  0  0  0  0  0  0
    1.3619    3.2123    3.1886 H   0  0  0  0  0  0  0  0  0  0  0  0
    0.6974    3.8450    1.6614 H   0  0  0  0  0  0  0  0  0  0  0  0
  5  6  2  0  0  0  0
  5  7  1  0  0  0  0
  2  3  1  0  0  0  0
  2  4  1  0  0  0  0
  2  5  1  0  0  0  0
  1  2  1  0  0  0  0
 24 25  2  0  0  0  0
 24 26  1  0  0  0  0
 20 21  1  0  0  0  0
 20 22  1  0  0  0  0
 20 23  1  0  0  0  0
 17 18  1  0  0  0  0
 17 19  1  0  0  0  0
 17 20  1  0  0  0  0
 13 14  1  0  0  0  0
 13 15  1  0  0  0  0
 13 16  1  0  0  0  0
 11 12  1  0  0  0  0
 11 13  1  0  0  0  0
 11 17  1  0  0  0  0
  9 10  1  0  0  0  0
  9 11  1  0  0  0  0
  9 24  1  0  0  0  0
  7  8  1  0  0  0  0
  7  9  1  0  0  0  0
 28 29  1  0  0  0  0
 28 30  1  0  0  0  0
 28 31  1  0  0  0  0
 26 27  1  0  0  0  0
 26 28  1  0  0  0  0
M  END
$$$$
default_name
  -OEChem-02102213163D

 31 30  0     1  0  0  0  0  0999 V2000
   -3.0760   -3.6390    1.5496 H   0  0  0  0  0  0  0  0  0  0  0  0
   -3.0940   -2.6290    1.1426 C   0  0  0  0  0  0  0  0  0  0  0  0
   -3.7160   -1.9930    1.7706 H   0  0  0  0  0  0  0  0  0  0  0  0
   -3.4880   -2.6500    0.1286 H   0  0  0  0  0  0  0  0  0  0  0  0
   -1.6860   -2.0850    1.1196 C   0  0  0  0  0  0  0  0  0  0  0  0
   -0.7540   -2.7700    1.5226 O   0  0  0  0  0  0  0  0  0  0  0  0
   -1.5320   -0.8490    0.6496 N   0  0  0  0  0  0  0  0  0  0  0  0
   -2.3500   -0.3360    0.3566 H   0  0  0  0  0  0  0  0  0  0  0  0
   -0.2470   -0.1410    0.5576 C   0  0  1  0  0  0  0  0  0  0  0  0
    0.4572   -0.6505    1.2162 H   0  0  0  0  0  0  0  0  0  0  0  0
    0.3091   -0.2220   -0.8868 C   0  0  1  0  0  0  0  0  0  0  0  0
    0.1044    0.7380   -1.3647 H   0  0  0  0  0  0  0  0  0  0  0  0
    1.8331   -0.4459   -0.9189 C   0  0  0  0  0  0  0  0  0  0  0  0
    2.0851   -1.4298   -0.5193 H   0  0  0  0  0  0  0  0  0  0  0  0
    2.2051   -0.3705   -1.9394 H   0  0  0  0  0  0  0  0  0  0  0  0
    2.3382    0.3155   -0.3234 H   0  0  0  0  0  0  0  0  0  0  0  0
   -0.4257   -1.3086   -1.7034 C   0  0  0  0  0  0  0  0  0  0  0  0
   -1.0918   -0.8414   -2.4300 H   0  0  0  0  0  0  0  0  0  0  0  0
    0.3127   -1.8986   -2.2463 H   0  0  0  0  0  0  0  0  0  0  0  0
   -1.2444   -2.2800   -0.8423 C   0  0  0  0  0  0  0  0  0  0  0  0
   -2.0691   -1.7585   -0.3568 H   0  0  0  0  0  0  0  0  0  0  0  0
   -1.6563   -3.0642   -1.4778 H   0  0  0  0  0  0  0  0  0  0  0  0
   -0.6058   -2.7364   -0.0852 H   0  0  0  0  0  0  0  0  0  0  0  0
   -0.3971    1.3008    1.0689 C   0  0  0  0  0  0  0  0  0  0  0  0
   -1.3643    1.9819    0.7311 O   0  0  0  0  0  0  0  0  0  0  0  0
    0.5522    1.7647    1.8915 N   0  0  0  0  0  0  0  0  0  0  0  0
    1.3093    1.1450    2.1332 H   0  0  0  0  0  0  0  0  0  0  0  0
    0.5577    3.1119    2.4582 C   0  0  0  0  0  0  0  0  0  0  0  0
   -0.3986    3.3098    2.9475 H   0  0  0  0  0  0  0  0  0  0  0  0
    1.3619    3.2123    3.1886 H   0  0  0  0  0  0  0  0  0  0  0  0
    0.6974    3.8450    1.6614 H   0  0  0  0  0  0  0  0  0  0  0  0
  5  6  2  0  0  0  0
  5  7  1  0  0  0  0
  2  3  1  0  0  0  0
  2  4  1  0  0  0  0
  2  5  1  0  0  0  0
  1  2  1  0  0  0  0
 24 25  2  0  0  0  0
 24 26  1  0  0  0  0
 20 21  1  0  0  0  0
 20 22  1  0  0  0  0
 20 23  1  0  0  0  0
 17 18  1  0  0  0  0
 17 19  1  0  0  0  0
 17 20  1  0  0  0  0
 13 14  1  0  0  0  0
 13 15  1  0  0  0  0
 13 16  1  0  0  0  0
 11 12  1  0  0  0  0
 11 13  1  0  0  0  0
 11 17  1  0  0  0  0
  9 10  1  0  0  0  0
  9 11  1  0  0  0  0
  9 24  1  0  0  0  0
  7  8  1  0  0  0  0
  7  9  1  0  0  0  0
 28 29  1  0  0  0  0
 28 30  1  0  0  0  0
 28 31  1  0  0  0  0
 26 27  1  0  0  0  0
 26 28  1  0  0  0  0
M  END
$$$$
default_name
  -OEChem-02102213163D

 31 30  0     1  0  0  0  0  0999 V2000
   -3.0760   -3.6390    1.5496 H   0  0  0  0  0  0  0  0  0  0  0  0
   -3.0940   -2.6290    1.1426 C   0  0  0  0  0  0  0  0  0  0  0  0
   -3.7160   -1.9930    1.7706 H   0  0  0  0  0  0  0  0  0  0  0  0
   -3.4880   -2.6500    0.1286 H   0  0  0  0  0  0  0  0  0  0  0  0
   -1.6860   -2.0850    1.1196 C   0  0  0  0  0  0  0  0  0  0  0  0
   -0.7540   -2.7700    1.5226 O   0  0  0  0  0  0  0  0  0  0  0  0
   -1.5320   -0.8490    0.6496 N   0  0  0  0  0  0  0  0  0  0  0  0
   -2.3500   -0.3360    0.3566 H   0  0  0  0  0  0  0  0  0  0  0  0
   -0.2470   -0.1410    0.5576 C   0  0  1  0  0  0  0  0  0  0  0  0
    0.4572   -0.6505    1.2162 H   0  0  0  0  0  0  0  0  0  0  0  0
    0.3091   -0.2220   -0.8868 C   0  0  1  0  0  0  0  0  0  0  0  0
    0.1044    0.7380   -1.3647 H   0  0  0  0  0  0  0  0  0  0  0  0
    1.8331   -0.4459   -0.9189 C   0  0  0  0  0  0  0  0  0  0  0  0
    2.0851   -1.4298   -0.5193 H   0  0  0  0  0  0  0  0  0  0  0  0
    2.2051   -0.3705   -1.9394 H   0  0  0  0  0  0  0  0  0  0  0  0
    2.3382    0.3155   -0.3234 H   0  0  0  0  0  0  0  0  0  0  0  0
   -0.4257   -1.3086   -1.7034 C   0  0  0  0  0  0  0  0  0  0  0  0
   -0.8790   -0.8646   -2.5907 H   0  0  0  0  0  0  0  0  0  0  0  0
    0.2999   -2.0548   -2.0270 H   0  0  0  0  0  0  0  0  0  0  0  0
   -1.5161   -2.0437   -0.9122 C   0  0  0  0  0  0  0  0  0  0  0  0
   -2.3260   -1.3619   -0.6534 H   0  0  0  0  0  0  0  0  0  0  0  0
   -1.9231   -2.8490   -1.5240 H   0  0  0  0  0  0  0  0  0  0  0  0
   -1.0933   -2.4696   -0.0016 H   0  0  0  0  0  0  0  0  0  0  0  0
   -0.3971    1.3008    1.0689 C   0  0  0  0  0  0  0  0  0  0  0  0
   -1.3643    1.9819    0.7311 O   0  0  0  0  0  0  0  0  0  0  0  0
    0.5522    1.7647    1.8915 N   0  0  0  0  0  0  0  0  0  0  0  0
    1.3093    1.1450    2.1332 H   0  0  0  0  0  0  0  0  0  0  0  0
    0.5577    3.1119    2.4582 C   0  0  0  0  0  0  0  0  0  0  0  0
   -0.3986    3.3098    2.9475 H   0  0  0  0  0  0  0  0  0  0  0  0
    1.3619    3.2123    3.1886 H   0  0  0  0  0  0  0  0  0  0  0  0
    0.6974    3.8450    1.6614 H   0  0  0  0  0  0  0  0  0  0  0  0
  5  6  2  0  0  0  0
  5  7  1  0  0  0  0
  2  3  1  0  0  0  0
  2  4  1  0  0  0  0
  2  5  1  0  0  0  0
  1  2  1  0  0  0  0
 24 25  2  0  0  0  0
 24 26  1  0  0  0  0
 20 21  1  0  0  0  0
 20 22  1  0  0  0  0
 20 23  1  0  0  0  0
 17 18  1  0  0  0  0
 17 19  1  0  0  0  0
 17 20  1  0  0  0  0
 13 14  1  0  0  0  0
 13 15  1  0  0  0  0
 13 16  1  0  0  0  0
 11 12  1  0  0  0  0
 11 13  1  0  0  0  0
 11 17  1  0  0  0  0
  9 10  1  0  0  0  0
  9 11  1  0  0  0  0
  9 24  1  0  0  0  0
  7  8  1  0  0  0  0
  7  9  1  0  0  0  0
 28 29  1  0  0  0  0
 28 30  1  0  0  0  0
 28 31  1  0  0  0  0
 26 27  1  0  0  0  0
 26 28  1  0  0  0  0
M  END
$$$$
default_name
  -OEChem-02102213163D

 31 30  0     1  0  0  0  0  0999 V2000
   -3.0760   -3.6390    1.5496 H   0  0  0  0  0  0  0  0  0  0  0  0
   -3.0940   -2.6290    1.1426 C   0  0  0  0  0  0  0  0  0  0  0  0
   -3.7160   -1.9930    1.7706 H   0  0  0  0  0  0  0  0  0  0  0  0
   -3.4880   -2.6500    0.1286 H   0  0  0  0  0  0  0  0  0  0  0  0
   -1.6860   -2.0850    1.1196 C   0  0  0  0  0  0  0  0  0  0  0  0
   -0.7540   -2.7700    1.5226 O   0  0  0  0  0  0  0  0  0  0  0  0
   -1.5320   -0.8490    0.6496 N   0  0  0  0  0  0  0  0  0  0  0  0
   -2.3500   -0.3360    0.3566 H   0  0  0  0  0  0  0  0  0  0  0  0
   -0.2470   -0.1410    0.5576 C   0  0  1  0  0  0  0  0  0  0  0  0
    0.4572   -0.6505    1.2162 H   0  0  0  0  0  0  0  0  0  0  0  0
    0.3091   -0.2220   -0.8868 C   0  0  1  0  0  0  0  0  0  0  0  0
    0.1044    0.7380   -1.3647 H   0  0  0  0  0  0  0  0  0  0  0  0
    1.8331   -0.4459   -0.9189 C   0  0  0  0  0  0  0  0  0  0  0  0
    2.0851   -1.4298   -0.5193 H   0  0  0  0  0  0  0  0  0  0  0  0
    2.2051   -0.3705   -1.9394 H   0  0  0  0  0  0  0  0  0  0  0  0
    2.3382    0.3155   -0.3234 H   0  0  0  0  0  0  0  0  0  0  0  0
   -0.4257   -1.3086   -1.7034 C   0  0  0  0  0  0  0  0  0  0  0  0
   -0.6473   -0.9358   -2.7043 H   0  0  0  0  0  0  0  0  0  0  0  0
    0.2264   -2.1768   -1.7984 H   0  0  0  0  0  0  0  0  0  0  0  0
   -1.7335   -1.7869   -1.0582 C   0  0  0  0  0  0  0  0  0  0  0  0
   -2.4659   -0.9801   -1.0355 H   0  0  0  0  0  0  0  0  0  0  0  0
   -2.1430   -2.6104   -1.6437 H   0  0  0  0  0  0  0  0  0  0  0  0
   -1.5429   -2.1349   -0.0424 H   0  0  0  0  0  0  0  0  0  0  0  0
   -0.3971    1.3008    1.0689 C   0  0  0  0  0  0  0  0  0  0  0  0
   -1.3643    1.9819    0.7311 O   0  0  0  0  0  0  0  0  0  0  0  0
    0.5522    1.7647    1.8915 N   0  0  0  0  0  0  0  0  0  0  0  0
    1.3093    1.1450    2.1332 H   0  0  0  0  0  0  0  0  0  0  0  0
    0.5577    3.1119    2.4582 C   0  0  0  0  0  0  0  0  0  0  0  0
   -0.3986    3.3098    2.9475 H   0  0  0  0  0  0  0  0  0  0  0  0
    1.3619    3.2123    3.1886 H   0  0  0  0  0  0  0  0  0  0  0  0
    0.6974    3.8450    1.6614 H   0  0  0  0  0  0  0  0  0  0  0  0
  5  6  2  0  0  0  0
  5  7  1  0  0  0  0
  2  3  1  0  0  0  0
  2  4  1  0  0  0  0
  2  5  1  0  0  0  0
  1  2  1  0  0  0  0
 24 25  2  0  0  0  0
 24 26  1  0  0  0  0
 20 21  1  0  0  0  0
 20 22  1  0  0  0  0
 20 23  1  0  0  0  0
 17 18  1  0  0  0  0
 17 19  1  0  0  0  0
 17 20  1  0  0  0  0
 13 14  1  0  0  0  0
 13 15  1  0  0  0  0
 13 16  1  0  0  0  0
 11 12  1  0  0  0  0
 11 13  1  0  0  0  0
 11 17  1  0  0  0  0
  9 10  1  0  0  0  0
  9 11  1  0  0  0  0
  9 24  1  0  0  0  0
  7  8  1  0  0  0  0
  7  9  1  0  0  0  0
 28 29  1  0  0  0  0
 28 30  1  0  0  0  0
 28 31  1  0  0  0  0
 26 27  1  0  0  0  0
 26 28  1  0  0  0  0
M  END
$$$$
default_name
  -OEChem-02102213163D

 31 30  0     1  0  0  0  0  0999 V2000
   -3.0760   -3.6390    1.5496 H   0  0  0  0  0  0  0  0  0  0  0  0
   -3.0940   -2.6290    1.1426 C   0  0  0  0  0  0  0  0  0  0  0  0
   -3.7160   -1.9930    1.7706 H   0  0  0  0  0  0  0  0  0  0  0  0
   -3.4880   -2.6500    0.1286 H   0  0  0  0  0  0  0  0  0  0  0  0
   -1.6860   -2.0850    1.1196 C   0  0  0  0  0  0  0  0  0  0  0  0
   -0.7540   -2.7700    1.5226 O   0  0  0  0  0  0  0  0  0  0  0  0
   -1.5320   -0.8490    0.6496 N   0  0  0  0  0  0  0  0  0  0  0  0
   -2.3500   -0.3360    0.3566 H   0  0  0  0  0  0  0  0  0  0  0  0
   -0.2470   -0.1410    0.5576 C   0  0  1  0  0  0  0  0  0  0  0  0
    0.4572   -0.6505    1.2162 H   0  0  0  0  0  0  0  0  0  0  0  0
    0.3091   -0.2220   -0.8868 C   0  0  1  0  0  0  0  0  0  0  0  0
    0.1044    0.7380   -1.3647 H   0  0  0  0  0  0  0  0  0  0  0  0
    1.8331   -0.4459   -0.9189 C   0  0  0  0  0  0  0  0  0  0  0  0
    2.0851   -1.4298   -0.5193 H   0  0  0  0  0  0  0  0  0  0  0  0
    2.2051   -0.3705   -1.9394 H   0  0  0  0  0  0  0  0  0  0  0  0
    2.3382    0.3155   -0.3234 H   0  0  0  0  0  0  0  0  0  0  0  0
   -0.4257   -1.3086   -1.7034 C   0  0  0  0  0  0  0  0  0  0  0  0
   -0.4126   -1.0503   -2.7631 H   0  0  0  0  0  0  0  0  0  0  0  0
    0.0970   -2.2565   -1.5759 H   0  0  0  0  0  0  0  0  0  0  0  0
   -1.8818   -1.5271   -1.2705 C   0  0  0  0  0  0  0  0  0  0  0  0
   -2.4793   -0.6393   -1.4769 H   0  0  0  0  0  0  0  0  0  0  0  0
   -2.3010   -2.3646   -1.8287 H   0  0  0  0  0  0  0  0  0  0  0  0
   -1.9240   -1.7551   -0.2049 H   0  0  0  0  0  0  0  0  0  0  0  0
   -0.3971    1.3008    1.0689 C   0  0  0  0  0  0  0  0  0  0  0  0
   -1.3643    1.9819    0.7311 O   0  0  0  0  0  0  0  0  0  0  0  0
    0.5522    1.7647    1.8915 N   0  0  0  0  0  0  0  0  0  0  0  0
    1.3093    1.1450    2.1332 H   0  0  0  0  0  0  0  0  0  0  0  0
    0.5577    3.1119    2.4582 C   0  0  0  0  0  0  0  0  0  0  0  0
   -0.3986    3.3098    2.9475 H   0  0  0  0  0  0  0  0  0  0  0  0
    1.3619    3.2123    3.1886 H   0  0  0  0  0  0  0  0  0  0  0  0
    0.6974    3.8450    1.6614 H   0  0  0  0  0  0  0  0  0  0  0  0
  5  6  2  0  0  0  0
  5  7  1  0  0  0  0
  2  3  1  0  0  0  0
  2  4  1  0  0  0  0
  2  5  1  0  0  0  0
  1  2  1  0  0  0  0
 24 25  2  0  0  0  0
 24 26  1  0  0  0  0
 20 21  1  0  0  0  0
 20 22  1  0  0  0  0
 20 23  1  0  0  0  0
 17 18  1  0  0  0  0
 17 19  1  0  0  0  0
 17 20  1  0  0  0  0
 13 14  1  0  0  0  0
 13 15  1  0  0  0  0
 13 16  1  0  0  0  0
 11 12  1  0  0  0  0
 11 13  1  0  0  0  0
 11 17  1  0  0  0  0
  9 10  1  0  0  0  0
  9 11  1  0  0  0  0
  9 24  1  0  0  0  0
  7  8  1  0  0  0  0
  7  9  1  0  0  0  0
 28 29  1  0  0  0  0
 28 30  1  0  0  0  0
 28 31  1  0  0  0  0
 26 27  1  0  0  0  0
 26 28  1  0  0  0  0
M  END
$$$$
default_name
  -OEChem-02102213163D

 31 30  0     1  0  0  0  0  0999 V2000
   -3.0760   -3.6390    1.5496 H   0  0  0  0  0  0  0  0  0  0  0  0
   -3.0940   -2.6290    1.1426 C   0  0  0  0  0  0  0  0  0  0  0  0
   -3.7160   -1.9930    1.7706 H   0  0  0  0  0  0  0  0  0  0  0  0
   -3.4880   -2.6500    0.1286 H   0  0  0  0  0  0  0  0  0  0  0  0
   -1.6860   -2.0850    1.1196 C   0  0  0  0  0  0  0  0  0  0  0  0
   -0.7540   -2.7700    1.5226 O   0  0  0  0  0  0  0  0  0  0  0  0
   -1.5320   -0.8490    0.6496 N   0  0  0  0  0  0  0  0  0  0  0  0
   -2.3500   -0.3360    0.3566 H   0  0  0  0  0  0  0  0  0  0  0  0
   -0.2470   -0.1410    0.5576 C   0  0  1  0  0  0  0  0  0  0  0  0
    0.4572   -0.6505    1.2162 H   0  0  0  0  0  0  0  0  0  0  0  0
    0.3091   -0.2220   -0.8868 C   0  0  1  0  0  0  0  0  0  0  0  0
    0.1044    0.7380   -1.3647 H   0  0  0  0  0  0  0  0  0  0  0  0
    1.8331   -0.4459   -0.9189 C   0  0  0  0  0  0  0  0  0  0  0  0
    2.0851   -1.4298   -0.5193 H   0  0  0  0  0  0  0  0  0  0  0  0
    2.2051   -0.3705   -1.9394 H   0  0  0  0  0  0  0  0  0  0  0  0
    2.3382    0.3155   -0.3234 H   0  0  0  0  0  0  0  0  0  0  0  0
   -0.4257   -1.3086   -1.7034 C   0  0  0  0  0  0  0  0  0  0  0  0
   -0.1909   -1.2003   -2.7631 H   0  0  0  0  0  0  0  0  0  0  0  0
   -0.0793   -2.2884   -1.3748 H   0  0  0  0  0  0  0  0  0  0  0  0
   -1.9508   -1.2820   -1.5345 C   0  0  0  0  0  0  0  0  0  0  0  0
   -2.3652   -0.3626   -1.9478 H   0  0  0  0  0  0  0  0  0  0  0  0
   -2.3862   -2.1283   -2.0664 H   0  0  0  0  0  0  0  0  0  0  0  0
   -2.2105   -1.3561   -0.4779 H   0  0  0  0  0  0  0  0  0  0  0  0
   -0.3971    1.3008    1.0689 C   0  0  0  0  0  0  0  0  0  0  0  0
   -1.3643    1.9819    0.7311 O   0  0  0  0  0  0  0  0  0  0  0  0
    0.5522    1.7647    1.8915 N   0  0  0  0  0  0  0  0  0  0  0  0
    1.3093    1.1450    2.1332 H   0  0  0  0  0  0  0  0  0  0  0  0
    0.5577    3.1119    2.4582 C   0  0  0  0  0  0  0  0  0  0  0  0
   -0.3986    3.3098    2.9475 H   0  0  0  0  0  0  0  0  0  0  0  0
    1.3619    3.2123    3.1886 H   0  0  0  0  0  0  0  0  0  0  0  0
    0.6974    3.8450    1.6614 H   0  0  0  0  0  0  0  0  0  0  0  0
  5  6  2  0  0  0  0
  5  7  1  0  0  0  0
  2  3  1  0  0  0  0
  2  4  1  0  0  0  0
  2  5  1  0  0  0  0
  1  2  1  0  0  0  0
 24 25  2  0  0  0  0
 24 26  1  0  0  0  0
 20 21  1  0  0  0  0
 20 22  1  0  0  0  0
 20 23  1  0  0  0  0
 17 18  1  0  0  0  0
 17 19  1  0  0  0  0
 17 20  1  0  0  0  0
 13 14  1  0  0  0  0
 13 15  1  0  0  0  0
 13 16  1  0  0  0  0
 11 12  1  0  0  0  0
 11 13  1  0  0  0  0
 11 17  1  0  0  0  0
  9 10  1  0  0  0  0
  9 11  1  0  0  0  0
  9 24  1  0  0  0  0
  7  8  1  0  0  0  0
  7  9  1  0  0  0  0
 28 29  1  0  0  0  0
 28 30  1  0  0  0  0
 28 31  1  0  0  0  0
 26 27  1  0  0  0  0
 26 28  1  0  0  0  0
M  END
$$$$
default_name
  -OEChem-02102213163D

 31 30  0     1  0  0  0  0  0999 V2000
   -3.0760   -3.6390    1.5496 H   0  0  0  0  0  0  0  0  0  0  0  0
   -3.0940   -2.6290    1.1426 C   0  0  0  0  0  0  0  0  0  0  0  0
   -3.7160   -1.9930    1.7706 H   0  0  0  0  0  0  0  0  0  0  0  0
   -3.4880   -2.6500    0.1286 H   0  0  0  0  0  0  0  0  0  0  0  0
   -1.6860   -2.0850    1.1196 C   0  0  0  0  0  0  0  0  0  0  0  0
   -0.7540   -2.7700    1.5226 O   0  0  0  0  0  0  0  0  0  0  0  0
   -1.5320   -0.8490    0.6496 N   0  0  0  0  0  0  0  0  0  0  0  0
   -2.3500   -0.3360    0.3566 H   0  0  0  0  0  0  0  0  0  0  0  0
   -0.2470   -0.1410    0.5576 C   0  0  1  0  0  0  0  0  0  0  0  0
    0.4572   -0.6505    1.2162 H   0  0  0  0  0  0  0  0  0  0  0  0
    0.3091   -0.2220   -0.8868 C   0  0  1  0  0  0  0  0  0  0  0  0
    0.1044    0.7380   -1.3647 H   0  0  0  0  0  0  0  0  0  0  0  0
    1.8331   -0.4459   -0.9189 C   0  0  0  0  0  0  0  0  0  0  0  0
    2.0851   -1.4298   -0.5193 H   0  0  0  0  0  0  0  0  0  0  0  0
    2.2051   -0.3705   -1.9394 H   0  0  0  0  0  0  0  0  0  0  0  0
    2.3382    0.3155   -0.3234 H   0  0  0  0  0  0  0  0  0  0  0  0
   -0.4257   -1.3086   -1.7034 C   0  0  0  0  0  0  0  0  0  0  0  0
    0.0028   -1.3755   -2.7043 H   0  0  0  0  0  0  0  0  0  0  0  0
   -0.2906   -2.2704   -1.2086 H   0  0  0  0  0  0  0  0  0  0  0  0
   -1.9360   -1.0683   -1.8322 C   0  0  0  0  0  0  0  0  0  0  0  0
   -2.1315   -0.1689   -2.4159 H   0  0  0  0  0  0  0  0  0  0  0  0
   -2.3930   -1.9176   -2.3406 H   0  0  0  0  0  0  0  0  0  0  0  0
   -2.3831   -0.9652   -0.8429 H   0  0  0  0  0  0  0  0  0  0  0  0
   -0.3971    1.3008    1.0689 C   0  0  0  0  0  0  0  0  0  0  0  0
   -1.3643    1.9819    0.7311 O   0  0  0  0  0  0  0  0  0  0  0  0
    0.5522    1.7647    1.8915 N   0  0  0  0  0  0  0  0  0  0  0  0
    1.3093    1.1450    2.1332 H   0  0  0  0  0  0  0  0  0  0  0  0
    0.5577    3.1119    2.4582 C   0  0  0  0  0  0  0  0  0  0  0  0
   -0.3986    3.3098    2.9475 H   0  0  0  0  0  0  0  0  0  0  0  0
    1.3619    3.2123    3.1886 H   0  0  0  0  0  0  0  0  0  0  0  0
    0.6974    3.8450    1.6614 H   0  0  0  0  0  0  0  0  0  0  0  0
  5  6  2  0  0  0  0
  5  7  1  0  0  0  0
  2  3  1  0  0  0  0
  2  4  1  0  0  0  0
  2  5  1  0  0  0  0
  1  2  1  0  0  0  0
 24 25  2  0  0  0  0
 24 26  1  0  0  0  0
 20 21  1  0  0  0  0
 20 22  1  0  0  0  0
 20 23  1  0  0  0  0
 17 18  1  0  0  0  0
 17 19  1  0  0  0  0
 17 20  1  0  0  0  0
 13 14  1  0  0  0  0
 13 15  1  0  0  0  0
 13 16  1  0  0  0  0
 11 12  1  0  0  0  0
 11 13  1  0  0  0  0
 11 17  1  0  0  0  0
  9 10  1  0  0  0  0
  9 11  1  0  0  0  0
  9 24  1  0  0  0  0
  7  8  1  0  0  0  0
  7  9  1  0  0  0  0
 28 29  1  0  0  0  0
 28 30  1  0  0  0  0
 28 31  1  0  0  0  0
 26 27  1  0  0  0  0
 26 28  1  0  0  0  0
M  END
$$$$
default_name
  -OEChem-02102213163D

 31 30  0     1  0  0  0  0  0999 V2000
   -3.0760   -3.6390    1.5496 H   0  0  0  0  0  0  0  0  0  0  0  0
   -3.0940   -2.6290    1.1426 C   0  0  0  0  0  0  0  0  0  0  0  0
   -3.7160   -1.9930    1.7706 H   0  0  0  0  0  0  0  0  0  0  0  0
   -3.4880   -2.6500    0.1286 H   0  0  0  0  0  0  0  0  0  0  0  0
   -1.6860   -2.0850    1.1196 C   0  0  0  0  0  0  0  0  0  0  0  0
   -0.7540   -2.7700    1.5226 O   0  0  0  0  0  0  0  0  0  0  0  0
   -1.5320   -0.8490    0.6496 N   0  0  0  0  0  0  0  0  0  0  0  0
   -2.3500   -0.3360    0.3566 H   0  0  0  0  0  0  0  0  0  0  0  0
   -0.2470   -0.1410    0.5576 C   0  0  1  0  0  0  0  0  0  0  0  0
    0.4572   -0.6505    1.2162 H   0  0  0  0  0  0  0  0  0  0  0  0
    0.3091   -0.2220   -0.8868 C   0  0  1  0  0  0  0  0  0  0  0  0
    0.1044    0.7380   -1.3647 H   0  0  0  0  0  0  0  0  0  0  0  0
    1.8331   -0.4459   -0.9189 C   0  0  0  0  0  0  0  0  0  0  0  0
    2.0851   -1.4298   -0.5193 H   0  0  0  0  0  0  0  0  0  0  0  0
    2.2051   -0.3705   -1.9394 H   0  0  0  0  0  0  0  0  0  0  0  0
    2.3382    0.3155   -0.3234 H   0  0  0  0  0  0  0  0  0  0  0  0
   -0.4257   -1.3086   -1.7034 C   0  0  0  0  0  0  0  0  0  0  0  0
    0.1552   -1.5639   -2.5907 H   0  0  0  0  0  0  0  0  0  0  0  0
   -0.5225   -2.2036   -1.0888 H   0  0  0  0  0  0  0  0  0  0  0  0
   -1.8382   -0.9006   -2.1434 C   0  0  0  0  0  0  0  0  0  0  0  0
   -1.7941   -0.0714   -2.8493 H   0  0  0  0  0  0  0  0  0  0  0  0
   -2.3209   -1.7470   -2.6326 H   0  0  0  0  0  0  0  0  0  0  0  0
   -2.4298   -0.6089   -1.2750 H   0  0  0  0  0  0  0  0  0  0  0  0
   -0.3971    1.3008    1.0689 C   0  0  0  0  0  0  0  0  0  0  0  0
   -1.3643    1.9819    0.7311 O   0  0  0  0  0  0  0  0  0  0  0  0
    0.5522    1.7647    1.8915 N   0  0  0  0  0  0  0  0  0  0  0  0
    1.3093    1.1450    2.1332 H   0  0  0  0  0  0  0  0  0  0  0  0
    0.5577    3.1119    2.4582 C   0  0  0  0  0  0  0  0  0  0  0  0
   -0.3986    3.3098    2.9475 H   0  0  0  0  0  0  0  0  0  0  0  0
    1.3619    3.2123    3.1886 H   0  0  0  0  0  0  0  0  0  0  0  0
    0.6974    3.8450    1.6614 H   0  0  0  0  0  0  0  0  0  0  0  0
  5  6  2  0  0  0  0
  5  7  1  0  0  0  0
  2  3  1  0  0  0  0
  2  4  1  0  0  0  0
  2  5  1  0  0  0  0
  1  2  1  0  0  0  0
 24 25  2  0  0  0  0
 24 26  1  0  0  0  0
 20 21  1  0  0  0  0
 20 22  1  0  0  0  0
 20 23  1  0  0  0  0
 17 18  1  0  0  0  0
 17 19  1  0  0  0  0
 17 20  1  0  0  0  0
 13 14  1  0  0  0  0
 13 15  1  0  0  0  0
 13 16  1  0  0  0  0
 11 12  1  0  0  0  0
 11 13  1  0  0  0  0
 11 17  1  0  0  0  0
  9 10  1  0  0  0  0
  9 11  1  0  0  0  0
  9 24  1  0  0  0  0
  7  8  1  0  0  0  0
  7  9  1  0  0  0  0
 28 29  1  0  0  0  0
 28 30  1  0  0  0  0
 28 31  1  0  0  0  0
 26 27  1  0  0  0  0
 26 28  1  0  0  0  0
M  END
$$$$
default_name
  -OEChem-02102213163D

 31 30  0     1  0  0  0  0  0999 V2000
   -3.0760   -3.6390    1.5496 H   0  0  0  0  0  0  0  0  0  0  0  0
   -3.0940   -2.6290    1.1426 C   0  0  0  0  0  0  0  0  0  0  0  0
   -3.7160   -1.9930    1.7706 H   0  0  0  0  0  0  0  0  0  0  0  0
   -3.4880   -2.6500    0.1286 H   0  0  0  0  0  0  0  0  0  0  0  0
   -1.6860   -2.0850    1.1196 C   0  0  0  0  0  0  0  0  0  0  0  0
   -0.7540   -2.7700    1.5226 O   0  0  0  0  0  0  0  0  0  0  0  0
   -1.5320   -0.8490    0.6496 N   0  0  0  0  0  0  0  0  0  0  0  0
   -2.3500   -0.3360    0.3566 H   0  0  0  0  0  0  0  0  0  0  0  0
   -0.2470   -0.1410    0.5576 C   0  0  1  0  0  0  0  0  0  0  0  0
    0.4572   -0.6505    1.2162 H   0  0  0  0  0  0  0  0  0  0  0  0
    0.3091   -0.2220   -0.8868 C   0  0  1  0  0  0  0  0  0  0  0  0
    0.1044    0.7380   -1.3647 H   0  0  0  0  0  0  0  0  0  0  0  0
    1.8331   -0.4459   -0.9189 C   0  0  0  0  0  0  0  0  0  0  0  0
    2.0851   -1.4298   -0.5193 H   0  0  0  0  0  0  0  0  0  0  0  0
    2.2051   -0.3705   -1.9394 H   0  0  0  0  0  0  0  0  0  0  0  0
    2.3382    0.3155   -0.3234 H   0  0  0  0  0  0  0  0  0  0  0  0
   -0.4257   -1.3086   -1.7034 C   0  0  0  0  0  0  0  0  0  0  0  0
    0.2559   -1.7528   -2.4300 H   0  0  0  0  0  0  0  0  0  0  0  0
   -0.7592   -2.0926   -1.0235 H   0  0  0  0  0  0  0  0  0  0  0  0
   -1.6642   -0.7903   -2.4469 C   0  0  0  0  0  0  0  0  0  0  0  0
   -1.3760   -0.0767   -3.2186 H   0  0  0  0  0  0  0  0  0  0  0  0
   -2.1747   -1.6279   -2.9226 H   0  0  0  0  0  0  0  0  0  0  0  0
   -2.3476   -0.3115   -1.7447 H   0  0  0  0  0  0  0  0  0  0  0  0
   -0.3971    1.3008    1.0689 C   0  0  0  0  0  0  0  0  0  0  0  0
   -1.3643    1.9819    0.7311 O   0  0  0  0  0  0  0  0  0  0  0  0
    0.5522    1.7647    1.8915 N   0  0  0  0  0  0  0  0  0  0  0  0
    1.3093    1.1450    2.1332 H   0  0  0  0  0  0  0  0  0  0  0  0
    0.5577    3.1119    2.4582 C   0  0  0  0  0  0  0  0  0  0  0  0
   -0.3986    3.3098    2.9475 H   0  0  0  0  0  0  0  0  0  0  0  0
    1.3619    3.2123    3.1886 H   0  0  0  0  0  0  0  0  0  0  0  0
    0.6974    3.8450    1.6614 H   0  0  0  0  0  0  0  0  0  0  0  0
  5  6  2  0  0  0  0
  5  7  1  0  0  0  0
  2  3  1  0  0  0  0
  2  4  1  0  0  0  0
  2  5  1  0  0  0  0
  1  2  1  0  0  0  0
 24 25  2  0  0  0  0
 24 26  1  0  0  0  0
 20 21  1  0  0  0  0
 20 22  1  0  0  0  0
 20 23  1  0  0  0  0
 17 18  1  0  0  0  0
 17 19  1  0  0  0  0
 17 20  1  0  0  0  0
 13 14  1  0  0  0  0
 13 15  1  0  0  0  0
 13 16  1  0  0  0  0
 11 12  1  0  0  0  0
 11 13  1  0  0  0  0
 11 17  1  0  0  0  0
  9 10  1  0  0  0  0
  9 11  1  0  0  0  0
  9 24  1  0  0  0  0
  7  8  1  0  0  0  0
  7  9  1  0  0  0  0
 28 29  1  0  0  0  0
 28 30  1  0  0  0  0
 28 31  1  0  0  0  0
 26 27  1  0  0  0  0
 26 28  1  0  0  0  0
M  END
$$$$
default_name
  -OEChem-02102213163D

 31 30  0     1  0  0  0  0  0999 V2000
   -3.0760   -3.6390    1.5496 H   0  0  0  0  0  0  0  0  0  0  0  0
   -3.0940   -2.6290    1.1426 C   0  0  0  0  0  0  0  0  0  0  0  0
   -3.7160   -1.9930    1.7706 H   0  0  0  0  0  0  0  0  0  0  0  0
   -3.4880   -2.6500    0.1286 H   0  0  0  0  0  0  0  0  0  0  0  0
   -1.6860   -2.0850    1.1196 C   0  0  0  0  0  0  0  0  0  0  0  0
   -0.7540   -2.7700    1.5226 O   0  0  0  0  0  0  0  0  0  0  0  0
   -1.5320   -0.8490    0.6496 N   0  0  0  0  0  0  0  0  0  0  0  0
   -2.3500   -0.3360    0.3566 H   0  0  0  0  0  0  0  0  0  0  0  0
   -0.2470   -0.1410    0.5576 C   0  0  1  0  0  0  0  0  0  0  0  0
    0.4572   -0.6505    1.2162 H   0  0  0  0  0  0  0  0  0  0  0  0
    0.3091   -0.2220   -0.8868 C   0  0  1  0  0  0  0  0  0  0  0  0
    0.1044    0.7380   -1.3647 H   0  0  0  0  0  0  0  0  0  0  0  0
    1.8331   -0.4459   -0.9189 C   0  0  0  0  0  0  0  0  0  0  0  0
    2.0851   -1.4298   -0.5193 H   0  0  0  0  0  0  0  0  0  0  0  0
    2.2051   -0.3705   -1.9394 H   0  0  0  0  0  0  0  0  0  0  0  0
    2.3382    0.3155   -0.3234 H   0  0  0  0  0  0  0  0  0  0  0  0
   -0.4257   -1.3086   -1.7034 C   0  0  0  0  0  0  0  0  0  0  0  0
    0.2982   -1.9292   -2.2332 H   0  0  0  0  0  0  0  0  0  0  0  0
   -0.9845   -1.9450   -1.0172 H   0  0  0  0  0  0  0  0  0  0  0  0
   -1.4258   -0.7448   -2.7219 C   0  0  0  0  0  0  0  0  0  0  0  0
   -0.9056   -0.1845   -3.4985 H   0  0  0  0  0  0  0  0  0  0  0  0
   -1.9644   -1.5687   -3.1907 H   0  0  0  0  0  0  0  0  0  0  0  0
   -2.1420   -0.0933   -2.2201 H   0  0  0  0  0  0  0  0  0  0  0  0
   -0.3971    1.3008    1.0689 C   0  0  0  0  0  0  0  0  0  0  0  0
   -1.3643    1.9819    0.7311 O   0  0  0  0  0  0  0  0  0  0  0  0
    0.5522    1.7647    1.8915 N   0  0  0  0  0  0  0  0  0  0  0  0
    1.3093    1.1450    2.1332 H   0  0  0  0  0  0  0  0  0  0  0  0
    0.5577    3.1119    2.4582 C   0  0  0  0  0  0  0  0  0  0  0  0
   -0.3986    3.3098    2.9475 H   0  0  0  0  0  0  0  0  0  0  0  0
    1.3619    3.2123    3.1886 H   0  0  0  0  0  0  0  0  0  0  0  0
    0.6974    3.8450    1.6614 H   0  0  0  0  0  0  0  0  0  0  0  0
  5  6  2  0  0  0  0
  5  7  1  0  0  0  0
  2  3  1  0  0  0  0
  2  4  1  0  0  0  0
  2  5  1  0  0  0  0
  1  2  1  0  0  0  0
 24 25  2  0  0  0  0
 24 26  1  0  0  0  0
 20 21  1  0  0  0  0
 20 22  1  0  0  0  0
 20 23  1  0  0  0  0
 17 18  1  0  0  0  0
 17 19  1  0  0  0  0
 17 20  1  0  0  0  0
 13 14  1  0  0  0  0
 13 15  1  0  0  0  0
 13 16  1  0  0  0  0
 11 12  1  0  0  0  0
 11 13  1  0  0  0  0
 11 17  1  0  0  0  0
  9 10  1  0  0  0  0
  9 11  1  0  0  0  0
  9 24  1  0  0  0  0
  7  8  1  0  0  0  0
  7  9  1  0  0  0  0
 28 29  1  0  0  0  0
 28 30  1  0  0  0  0
 28 31  1  0  0  0  0
 26 27  1  0  0  0  0
 26 28  1  0  0  0  0
M  END
$$$$
default_name
  -OEChem-02102213163D

 31 30  0     1  0  0  0  0  0999 V2000
   -3.0760   -3.6390    1.5496 H   0  0  0  0  0  0  0  0  0  0  0  0
   -3.0940   -2.6290    1.1426 C   0  0  0  0  0  0  0  0  0  0  0  0
   -3.7160   -1.9930    1.7706 H   0  0  0  0  0  0  0  0  0  0  0  0
   -3.4880   -2.6500    0.1286 H   0  0  0  0  0  0  0  0  0  0  0  0
   -1.6860   -2.0850    1.1196 C   0  0  0  0  0  0  0  0  0  0  0  0
   -0.7540   -2.7700    1.5226 O   0  0  0  0  0  0  0  0  0  0  0  0
   -1.5320   -0.8490    0.6496 N   0  0  0  0  0  0  0  0  0  0  0  0
   -2.3500   -0.3360    0.3566 H   0  0  0  0  0  0  0  0  0  0  0  0
   -0.2470   -0.1410    0.5576 C   0  0  1  0  0  0  0  0  0  0  0  0
    0.4572   -0.6505    1.2162 H   0  0  0  0  0  0  0  0  0  0  0  0
    0.3091   -0.2220   -0.8868 C   0  0  1  0  0  0  0  0  0  0  0  0
    0.1044    0.7380   -1.3647 H   0  0  0  0  0  0  0  0  0  0  0  0
    1.8331   -0.4459   -0.9189 C   0  0  0  0  0  0  0  0  0  0  0  0
    2.0851   -1.4298   -0.5193 H   0  0  0  0  0  0  0  0  0  0  0  0
    2.2051   -0.3705   -1.9394 H   0  0  0  0  0  0  0  0  0  0  0  0
    2.3382    0.3155   -0.3234 H   0  0  0  0  0  0  0  0  0  0  0  0
   -0.4257   -1.3086   -1.7034 C   0  0  0  0  0  0  0  0  0  0  0  0
    0.2790   -2.0812   -2.0137 H   0  0  0  0  0  0  0  0  0  0  0  0
   -1.1830   -1.7709   -1.0703 H   0  0  0  0  0  0  0  0  0  0  0  0
   -1.1392   -0.7674   -2.9497 C   0  0  0  0  0  0  0  0  0  0  0  0
   -0.4150   -0.3874   -3.6700 H   0  0  0  0  0  0  0  0  0  0  0  0
   -1.7044   -1.5732   -3.4187 H   0  0  0  0  0  0  0  0  0  0  0  0
   -1.8271    0.0308   -2.6687 H   0  0  0  0  0  0  0  0  0  0  0  0
   -0.3971    1.3008    1.0689 C   0  0  0  0  0  0  0  0  0  0  0  0
   -1.3643    1.9819    0.7311 O   0  0  0  0  0  0  0  0  0  0  0  0
    0.5522    1.7647    1.8915 N   0  0  0  0  0  0  0  0  0  0  0  0
    1.3093    1.1450    2.1332 H   0  0  0  0  0  0  0  0  0  0  0  0
    0.5577    3.1119    2.4582 C   0  0  0  0  0  0  0  0  0  0  0  0
   -0.3986    3.3098    2.9475 H   0  0  0  0  0  0  0  0  0  0  0  0
    1.3619    3.2123    3.1886 H   0  0  0  0  0  0  0  0  0  0  0  0
    0.6974    3.8450    1.6614 H   0  0  0  0  0  0  0  0  0  0  0  0
  5  6  2  0  0  0  0
  5  7  1  0  0  0  0
  2  3  1  0  0  0  0
  2  4  1  0  0  0  0
  2  5  1  0  0  0  0
  1  2  1  0  0  0  0
 24 25  2  0  0  0  0
 24 26  1  0  0  0  0
 20 21  1  0  0  0  0
 20 22  1  0  0  0  0
 20 23  1  0  0  0  0
 17 18  1  0  0  0  0
 17 19  1  0  0  0  0
 17 20  1  0  0  0  0
 13 14  1  0  0  0  0
 13 15  1  0  0  0  0
 13 16  1  0  0  0  0
 11 12  1  0  0  0  0
 11 13  1  0  0  0  0
 11 17  1  0  0  0  0
  9 10  1  0  0  0  0
  9 11  1  0  0  0  0
  9 24  1  0  0  0  0
  7  8  1  0  0  0  0
  7  9  1  0  0  0  0
 28 29  1  0  0  0  0
 28 30  1  0  0  0  0
 28 31  1  0  0  0  0
 26 27  1  0  0  0  0
 26 28  1  0  0  0  0
M  END
$$$$
default_name
  -OEChem-02102213163D

 31 30  0     1  0  0  0  0  0999 V2000
   -3.0760   -3.6390    1.5496 H   0  0  0  0  0  0  0  0  0  0  0  0
   -3.0940   -2.6290    1.1426 C   0  0  0  0  0  0  0  0  0  0  0  0
   -3.7160   -1.9930    1.7706 H   0  0  0  0  0  0  0  0  0  0  0  0
   -3.4880   -2.6500    0.1286 H   0  0  0  0  0  0  0  0  0  0  0  0
   -1.6860   -2.0850    1.1196 C   0  0  0  0  0  0  0  0  0  0  0  0
   -0.7540   -2.7700    1.5226 O   0  0  0  0  0  0  0  0  0  0  0  0
   -1.5320   -0.8490    0.6496 N   0  0  0  0  0  0  0  0  0  0  0  0
   -2.3500   -0.3360    0.3566 H   0  0  0  0  0  0  0  0  0  0  0  0
   -0.2470   -0.1410    0.5576 C   0  0  1  0  0  0  0  0  0  0  0  0
    0.4572   -0.6505    1.2162 H   0  0  0  0  0  0  0  0  0  0  0  0
    0.3091   -0.2220   -0.8868 C   0  0  1  0  0  0  0  0  0  0  0  0
    0.1044    0.7380   -1.3647 H   0  0  0  0  0  0  0  0  0  0  0  0
    1.8331   -0.4459   -0.9189 C   0  0  0  0  0  0  0  0  0  0  0  0
    2.0851   -1.4298   -0.5193 H   0  0  0  0  0  0  0  0  0  0  0  0
    2.2051   -0.3705   -1.9394 H   0  0  0  0  0  0  0  0  0  0  0  0
    2.3382    0.3155   -0.3234 H   0  0  0  0  0  0  0  0  0  0  0  0
   -0.4257   -1.3086   -1.7034 C   0  0  0  0  0  0  0  0  0  0  0  0
    0.1998   -2.1984   -1.7865 H   0  0  0  0  0  0  0  0  0  0  0  0
   -1.3414   -1.5820   -1.1791 H   0  0  0  0  0  0  0  0  0  0  0  0
   -0.8240   -0.8565   -3.1149 C   0  0  0  0  0  0  0  0  0  0  0  0
    0.0624   -0.6715   -3.7214 H   0  0  0  0  0  0  0  0  0  0  0  0
   -1.4124   -1.6411   -3.5911 H   0  0  0  0  0  0  0  0  0  0  0  0
   -1.4242    0.0524   -3.0600 H   0  0  0  0  0  0  0  0  0  0  0  0
   -0.3971    1.3008    1.0689 C   0  0  0  0  0  0  0  0  0  0  0  0
   -1.3643    1.9819    0.7311 O   0  0  0  0  0  0  0  0  0  0  0  0
    0.5522    1.7647    1.8915 N   0  0  0  0  0  0  0  0  0  0  0  0
    1.3093    1.1450    2.1332 H   0  0  0  0  0  0  0  0  0  0  0  0
    0.5577    3.1119    2.4582 C   0  0  0  0  0  0  0  0  0  0  0  0
   -0.3986    3.3098    2.9475 H   0  0  0  0  0  0  0  0  0  0  0  0
    1.3619    3.2123    3.1886 H   0  0  0  0  0  0  0  0  0  0  0  0
    0.6974    3.8450    1.6614 H   0  0  0  0  0  0  0  0  0  0  0  0
  5  6  2  0  0  0  0
  5  7  1  0  0  0  0
  2  3  1  0  0  0  0
  2  4  1  0  0  0  0
  2  5  1  0  0  0  0
  1  2  1  0  0  0  0
 24 25  2  0  0  0  0
 24 26  1  0  0  0  0
 20 21  1  0  0  0  0
 20 22  1  0  0  0  0
 20 23  1  0  0  0  0
 17 18  1  0  0  0  0
 17 19  1  0  0  0  0
 17 20  1  0  0  0  0
 13 14  1  0  0  0  0
 13 15  1  0  0  0  0
 13 16  1  0  0  0  0
 11 12  1  0  0  0  0
 11 13  1  0  0  0  0
 11 17  1  0  0  0  0
  9 10  1  0  0  0  0
  9 11  1  0  0  0  0
  9 24  1  0  0  0  0
  7  8  1  0  0  0  0
  7  9  1  0  0  0  0
 28 29  1  0  0  0  0
 28 30  1  0  0  0  0
 28 31  1  0  0  0  0
 26 27  1  0  0  0  0
 26 28  1  0  0  0  0
M  END
$$$$
default_name
  -OEChem-02102213163D

 31 30  0     1  0  0  0  0  0999 V2000
   -3.0760   -3.6390    1.5496 H   0  0  0  0  0  0  0  0  0  0  0  0
   -3.0940   -2.6290    1.1426 C   0  0  0  0  0  0  0  0  0  0  0  0
   -3.7160   -1.9930    1.7706 H   0  0  0  0  0  0  0  0  0  0  0  0
   -3.4880   -2.6500    0.1286 H   0  0  0  0  0  0  0  0  0  0  0  0
   -1.6860   -2.0850    1.1196 C   0  0  0  0  0  0  0  0  0  0  0  0
   -0.7540   -2.7700    1.5226 O   0  0  0  0  0  0  0  0  0  0  0  0
   -1.5320   -0.8490    0.6496 N   0  0  0  0  0  0  0  0  0  0  0  0
   -2.3500   -0.3360    0.3566 H   0  0  0  0  0  0  0  0  0  0  0  0
   -0.2470   -0.1410    0.5576 C   0  0  1  0  0  0  0  0  0  0  0  0
    0.4572   -0.6505    1.2162 H   0  0  0  0  0  0  0  0  0  0  0  0
    0.3091   -0.2220   -0.8868 C   0  0  1  0  0  0  0  0  0  0  0  0
    0.1044    0.7380   -1.3647 H   0  0  0  0  0  0  0  0  0  0  0  0
    1.8331   -0.4459   -0.9189 C   0  0  0  0  0  0  0  0  0  0  0  0
    2.0851   -1.4298   -0.5193 H   0  0  0  0  0  0  0  0  0  0  0  0
    2.2051   -0.3705   -1.9394 H   0  0  0  0  0  0  0  0  0  0  0  0
    2.3382    0.3155   -0.3234 H   0  0  0  0  0  0  0  0  0  0  0  0
   -0.4257   -1.3086   -1.7034 C   0  0  0  0  0  0  0  0  0  0  0  0
    0.0659   -2.2728   -1.5670 H   0  0  0  0  0  0  0  0  0  0  0  0
   -1.4487   -1.3913   -1.3363 H   0  0  0  0  0  0  0  0  0  0  0  0
   -0.5017   -1.0059   -3.2060 C   0  0  0  0  0  0  0  0  0  0  0  0
    0.4939   -1.0176   -3.6492 H   0  0  0  0  0  0  0  0  0  0  0  0
   -1.1082   -1.7680   -3.6960 H   0  0  0  0  0  0  0  0  0  0  0  0
   -0.9609   -0.0300   -3.3672 H   0  0  0  0  0  0  0  0  0  0  0  0
   -0.3971    1.3008    1.0689 C   0  0  0  0  0  0  0  0  0  0  0  0
   -1.3643    1.9819    0.7311 O   0  0  0  0  0  0  0  0  0  0  0  0
    0.5522    1.7647    1.8915 N   0  0  0  0  0  0  0  0  0  0  0  0
    1.3093    1.1450    2.1332 H   0  0  0  0  0  0  0  0  0  0  0  0
    0.5577    3.1119    2.4582 C   0  0  0  0  0  0  0  0  0  0  0  0
   -0.3986    3.3098    2.9475 H   0  0  0  0  0  0  0  0  0  0  0  0
    1.3619    3.2123    3.1886 H   0  0  0  0  0  0  0  0  0  0  0  0
    0.6974    3.8450    1.6614 H   0  0  0  0  0  0  0  0  0  0  0  0
  5  6  2  0  0  0  0
  5  7  1  0  0  0  0
  2  3  1  0  0  0  0
  2  4  1  0  0  0  0
  2  5  1  0  0  0  0
  1  2  1  0  0  0  0
 24 25  2  0  0  0  0
 24 26  1  0  0  0  0
 20 21  1  0  0  0  0
 20 22  1  0  0  0  0
 20 23  1  0  0  0  0
 17 18  1  0  0  0  0
 17 19  1  0  0  0  0
 17 20  1  0  0  0  0
 13 14  1  0  0  0  0
 13 15  1  0  0  0  0
 13 16  1  0  0  0  0
 11 12  1  0  0  0  0
 11 13  1  0  0  0  0
 11 17  1  0  0  0  0
  9 10  1  0  0  0  0
  9 11  1  0  0  0  0
  9 24  1  0  0  0  0
  7  8  1  0  0  0  0
  7  9  1  0  0  0  0
 28 29  1  0  0  0  0
 28 30  1  0  0  0  0
 28 31  1  0  0  0  0
 26 27  1  0  0  0  0
 26 28  1  0  0  0  0
M  END
$$$$
default_name
  -OEChem-02102213163D

 31 30  0     1  0  0  0  0  0999 V2000
   -3.0760   -3.6390    1.5496 H   0  0  0  0  0  0  0  0  0  0  0  0
   -3.0940   -2.6290    1.1426 C   0  0  0  0  0  0  0  0  0  0  0  0
   -3.7160   -1.9930    1.7706 H   0  0  0  0  0  0  0  0  0  0  0  0
   -3.4880   -2.6500    0.1286 H   0  0  0  0  0  0  0  0  0  0  0  0
   -1.6860   -2.0850    1.1196 C   0  0  0  0  0  0  0  0  0  0  0  0
   -0.7540   -2.7700    1.5226 O   0  0  0  0  0  0  0  0  0  0  0  0
   -1.5320   -0.8490    0.6496 N   0  0  0  0  0  0  0  0  0  0  0  0
   -2.3500   -0.3360    0.3566 H   0  0  0  0  0  0  0  0  0  0  0  0
   -0.2470   -0.1410    0.5576 C   0  0  1  0  0  0  0  0  0  0  0  0
    0.4572   -0.6505    1.2162 H   0  0  0  0  0  0  0  0  0  0  0  0
    0.3091   -0.2220   -0.8868 C   0  0  1  0  0  0  0  0  0  0  0  0
    0.1044    0.7380   -1.3647 H   0  0  0  0  0  0  0  0  0  0  0  0
    1.8331   -0.4459   -0.9189 C   0  0  0  0  0  0  0  0  0  0  0  0
    2.0851   -1.4298   -0.5193 H   0  0  0  0  0  0  0  0  0  0  0  0
    2.2051   -0.3705   -1.9394 H   0  0  0  0  0  0  0  0  0  0  0  0
    2.3382    0.3155   -0.3234 H   0  0  0  0  0  0  0  0  0  0  0  0
   -0.4257   -1.3086   -1.7034 C   0  0  0  0  0  0  0  0  0  0  0  0
   -0.1136   -2.2993   -1.3702 H   0  0  0  0  0  0  0  0  0  0  0  0
   -1.4976   -1.2118   -1.5311 H   0  0  0  0  0  0  0  0  0  0  0  0
   -0.1942   -1.2056   -3.2170 C   0  0  0  0  0  0  0  0  0  0  0  0
    0.8503   -1.4021   -3.4583 H   0  0  0  0  0  0  0  0  0  0  0  0
   -0.8126   -1.9450   -3.7264 H   0  0  0  0  0  0  0  0  0  0  0  0
   -0.4688   -0.2108   -3.5696 H   0  0  0  0  0  0  0  0  0  0  0  0
   -0.3971    1.3008    1.0689 C   0  0  0  0  0  0  0  0  0  0  0  0
   -1.3643    1.9819    0.7311 O   0  0  0  0  0  0  0  0  0  0  0  0
    0.5522    1.7647    1.8915 N   0  0  0  0  0  0  0  0  0  0  0  0
    1.3093    1.1450    2.1332 H   0  0  0  0  0  0  0  0  0  0  0  0
    0.5577    3.1119    2.4582 C   0  0  0  0  0  0  0  0  0  0  0  0
   -0.3986    3.3098    2.9475 H   0  0  0  0  0  0  0  0  0  0  0  0
    1.3619    3.2123    3.1886 H   0  0  0  0  0  0  0  0  0  0  0  0
    0.6974    3.8450    1.6614 H   0  0  0  0  0  0  0  0  0  0  0  0
  5  6  2  0  0  0  0
  5  7  1  0  0  0  0
  2  3  1  0  0  0  0
  2  4  1  0  0  0  0
  2  5  1  0  0  0  0
  1  2  1  0  0  0  0
 24 25  2  0  0  0  0
 24 26  1  0  0  0  0
 20 21  1  0  0  0  0
 20 22  1  0  0  0  0
 20 23  1  0  0  0  0
 17 18  1  0  0  0  0
 17 19  1  0  0  0  0
 17 20  1  0  0  0  0
 13 14  1  0  0  0  0
 13 15  1  0  0  0  0
 13 16  1  0  0  0  0
 11 12  1  0  0  0  0
 11 13  1  0  0  0  0
 11 17  1  0  0  0  0
  9 10  1  0  0  0  0
  9 11  1  0  0  0  0
  9 24  1  0  0  0  0
  7  8  1  0  0  0  0
  7  9  1  0  0  0  0
 28 29  1  0  0  0  0
 28 30  1  0  0  0  0
 28 31  1  0  0  0  0
 26 27  1  0  0  0  0
 26 28  1  0  0  0  0
M  END
$$$$
default_name
  -OEChem-02102213163D

 31 30  0     1  0  0  0  0  0999 V2000
   -3.0760   -3.6390    1.5496 H   0  0  0  0  0  0  0  0  0  0  0  0
   -3.0940   -2.6290    1.1426 C   0  0  0  0  0  0  0  0  0  0  0  0
   -3.7160   -1.9930    1.7706 H   0  0  0  0  0  0  0  0  0  0  0  0
   -3.4880   -2.6500    0.1286 H   0  0  0  0  0  0  0  0  0  0  0  0
   -1.6860   -2.0850    1.1196 C   0  0  0  0  0  0  0  0  0  0  0  0
   -0.7540   -2.7700    1.5226 O   0  0  0  0  0  0  0  0  0  0  0  0
   -1.5320   -0.8490    0.6496 N   0  0  0  0  0  0  0  0  0  0  0  0
   -2.3500   -0.3360    0.3566 H   0  0  0  0  0  0  0  0  0  0  0  0
   -0.2470   -0.1410    0.5576 C   0  0  1  0  0  0  0  0  0  0  0  0
    0.4572   -0.6505    1.2162 H   0  0  0  0  0  0  0  0  0  0  0  0
    0.3091   -0.2220   -0.8868 C   0  0  1  0  0  0  0  0  0  0  0  0
    0.3533    0.7985   -1.2722 H   0  0  0  0  0  0  0  0  0  0  0  0
    1.7348   -0.8039   -0.9367 C   0  0  0  0  0  0  0  0  0  0  0  0
    1.7327   -1.8518   -0.6313 H   0  0  0  0  0  0  0  0  0  0  0  0
    2.1394   -0.7280   -1.9447 H   0  0  0  0  0  0  0  0  0  0  0  0
    2.3932   -0.2449   -0.2708 H   0  0  0  0  0  0  0  0  0  0  0  0
   -0.6450   -1.0195   -1.8040 C   0  0  0  0  0  0  0  0  0  0  0  0
   -0.7937   -2.0232   -1.4036 H   0  0  0  0  0  0  0  0  0  0  0  0
   -1.6107   -0.5147   -1.8291 H   0  0  0  0  0  0  0  0  0  0  0  0
   -0.1528   -1.1382   -3.2528 C   0  0  0  0  0  0  0  0  0  0  0  0
    0.7609   -1.7306   -3.2988 H   0  0  0  0  0  0  0  0  0  0  0  0
   -0.9171   -1.6327   -3.8527 H   0  0  0  0  0  0  0  0  0  0  0  0
    0.0348   -0.1464   -3.6655 H   0  0  0  0  0  0  0  0  0  0  0  0
   -0.3971    1.3008    1.0689 C   0  0  0  0  0  0  0  0  0  0  0  0
   -1.3643    1.9819    0.7311 O   0  0  0  0  0  0  0  0  0  0  0  0
    0.5522    1.7647    1.8915 N   0  0  0  0  0  0  0  0  0  0  0  0
    1.3093    1.1450    2.1332 H   0  0  0  0  0  0  0  0  0  0  0  0
    0.5577    3.1119    2.4582 C   0  0  0  0  0  0  0  0  0  0  0  0
   -0.3986    3.3098    2.9475 H   0  0  0  0  0  0  0  0  0  0  0  0
    1.3619    3.2123    3.1886 H   0  0  0  0  0  0  0  0  0  0  0  0
    0.6974    3.8450    1.6614 H   0  0  0  0  0  0  0  0  0  0  0  0
  5  6  2  0  0  0  0
  5  7  1  0  0  0  0
  2  3  1  0  0  0  0
  2  4  1  0  0  0  0
  2  5  1  0  0  0  0
  1  2  1  0  0  0  0
 24 25  2  0  0  0  0
 24 26  1  0  0  0  0
 20 21  1  0  0  0  0
 20 22  1  0  0  0  0
 20 23  1  0  0  0  0
 17 18  1  0  0  0  0
 17 19  1  0  0  0  0
 17 20  1  0  0  0  0
 13 14  1  0  0  0  0
 13 15  1  0  0  0  0
 13 16  1  0  0  0  0
 11 12  1  0  0  0  0
 11 13  1  0  0  0  0
 11 17  1  0  0  0  0
  9 10  1  0  0  0  0
  9 11  1  0  0  0  0
  9 24  1  0  0  0  0
  7  8  1  0  0  0  0
  7  9  1  0  0  0  0
 28 29  1  0  0  0  0
 28 30  1  0  0  0  0
 28 31  1  0  0  0  0
 26 27  1  0  0  0  0
 26 28  1  0  0  0  0
M  END
$$$$
default_name
  -OEChem-02102213163D

 31 30  0     1  0  0  0  0  0999 V2000
   -3.0760   -3.6390    1.5496 H   0  0  0  0  0  0  0  0  0  0  0  0
   -3.0940   -2.6290    1.1426 C   0  0  0  0  0  0  0  0  0  0  0  0
   -3.7160   -1.9930    1.7706 H   0  0  0  0  0  0  0  0  0  0  0  0
   -3.4880   -2.6500    0.1286 H   0  0  0  0  0  0  0  0  0  0  0  0
   -1.6860   -2.0850    1.1196 C   0  0  0  0  0  0  0  0  0  0  0  0
   -0.7540   -2.7700    1.5226 O   0  0  0  0  0  0  0  0  0  0  0  0
   -1.5320   -0.8490    0.6496 N   0  0  0  0  0  0  0  0  0  0  0  0
   -2.3500   -0.3360    0.3566 H   0  0  0  0  0  0  0  0  0  0  0  0
   -0.2470   -0.1410    0.5576 C   0  0  1  0  0  0  0  0  0  0  0  0
    0.4572   -0.6505    1.2162 H   0  0  0  0  0  0  0  0  0  0  0  0
    0.3091   -0.2220   -0.8868 C   0  0  1  0  0  0  0  0  0  0  0  0
    0.3533    0.7985   -1.2722 H   0  0  0  0  0  0  0  0  0  0  0  0
    1.7348   -0.8039   -0.9367 C   0  0  0  0  0  0  0  0  0  0  0  0
    1.7327   -1.8518   -0.6313 H   0  0  0  0  0  0  0  0  0  0  0  0
    2.1394   -0.7280   -1.9447 H   0  0  0  0  0  0  0  0  0  0  0  0
    2.3932   -0.2449   -0.2708 H   0  0  0  0  0  0  0  0  0  0  0  0
   -0.6450   -1.0195   -1.8040 C   0  0  0  0  0  0  0  0  0  0  0  0
   -1.0041   -1.9087   -1.2842 H   0  0  0  0  0  0  0  0  0  0  0  0
   -1.5042   -0.3937   -2.0450 H   0  0  0  0  0  0  0  0  0  0  0  0
   -0.0072   -1.4522   -3.1312 C   0  0  0  0  0  0  0  0  0  0  0  0
    0.7953   -2.1680   -2.9543 H   0  0  0  0  0  0  0  0  0  0  0  0
   -0.7641   -1.9273   -3.7557 H   0  0  0  0  0  0  0  0  0  0  0  0
    0.3895   -0.5822   -3.6556 H   0  0  0  0  0  0  0  0  0  0  0  0
   -0.3971    1.3008    1.0689 C   0  0  0  0  0  0  0  0  0  0  0  0
   -1.3643    1.9819    0.7311 O   0  0  0  0  0  0  0  0  0  0  0  0
    0.5522    1.7647    1.8915 N   0  0  0  0  0  0  0  0  0  0  0  0
    1.3093    1.1450    2.1332 H   0  0  0  0  0  0  0  0  0  0  0  0
    0.5577    3.1119    2.4582 C   0  0  0  0  0  0  0  0  0  0  0  0
   -0.3986    3.3098    2.9475 H   0  0  0  0  0  0  0  0  0  0  0  0
    1.3619    3.2123    3.1886 H   0  0  0  0  0  0  0  0  0  0  0  0
    0.6974    3.8450    1.6614 H   0  0  0  0  0  0  0  0  0  0  0  0
  5  6  2  0  0  0  0
  5  7  1  0  0  0  0
  2  3  1  0  0  0  0
  2  4  1  0  0  0  0
  2  5  1  0  0  0  0
  1  2  1  0  0  0  0
 24 25  2  0  0  0  0
 24 26  1  0  0  0  0
 20 21  1  0  0  0  0
 20 22  1  0  0  0  0
 20 23  1  0  0  0  0
 17 18  1  0  0  0  0
 17 19  1  0  0  0  0
 17 20  1  0  0  0  0
 13 14  1  0  0  0  0
 13 15  1  0  0  0  0
 13 16  1  0  0  0  0
 11 12  1  0  0  0  0
 11 13  1  0  0  0  0
 11 17  1  0  0  0  0
  9 10  1  0  0  0  0
  9 11  1  0  0  0  0
  9 24  1  0  0  0  0
  7  8  1  0  0  0  0
  7  9  1  0  0  0  0
 28 29  1  0  0  0  0
 28 30  1  0  0  0  0
 28 31  1  0  0  0  0
 26 27  1  0  0  0  0
 26 28  1  0  0  0  0
M  END
$$$$
default_name
  -OEChem-02102213163D

 31 30  0     1  0  0  0  0  0999 V2000
   -3.0760   -3.6390    1.5496 H   0  0  0  0  0  0  0  0  0  0  0  0
   -3.0940   -2.6290    1.1426 C   0  0  0  0  0  0  0  0  0  0  0  0
   -3.7160   -1.9930    1.7706 H   0  0  0  0  0  0  0  0  0  0  0  0
   -3.4880   -2.6500    0.1286 H   0  0  0  0  0  0  0  0  0  0  0  0
   -1.6860   -2.0850    1.1196 C   0  0  0  0  0  0  0  0  0  0  0  0
   -0.7540   -2.7700    1.5226 O   0  0  0  0  0  0  0  0  0  0  0  0
   -1.5320   -0.8490    0.6496 N   0  0  0  0  0  0  0  0  0  0  0  0
   -2.3500   -0.3360    0.3566 H   0  0  0  0  0  0  0  0  0  0  0  0
   -0.2470   -0.1410    0.5576 C   0  0  1  0  0  0  0  0  0  0  0  0
    0.4572   -0.6505    1.2162 H   0  0  0  0  0  0  0  0  0  0  0  0
    0.3091   -0.2220   -0.8868 C   0  0  1  0  0  0  0  0  0  0  0  0
    0.3533    0.7985   -1.2722 H   0  0  0  0  0  0  0  0  0  0  0  0
    1.7348   -0.8039   -0.9367 C   0  0  0  0  0  0  0  0  0  0  0  0
    1.7327   -1.8518   -0.6313 H   0  0  0  0  0  0  0  0  0  0  0  0
    2.1394   -0.7280   -1.9447 H   0  0  0  0  0  0  0  0  0  0  0  0
    2.3932   -0.2449   -0.2708 H   0  0  0  0  0  0  0  0  0  0  0  0
   -0.6450   -1.0195   -1.8040 C   0  0  0  0  0  0  0  0  0  0  0  0
   -1.2058   -1.7467   -1.2153 H   0  0  0  0  0  0  0  0  0  0  0  0
   -1.3540   -0.3277   -2.2587 H   0  0  0  0  0  0  0  0  0  0  0  0
    0.0689   -1.7584   -2.9441 C   0  0  0  0  0  0  0  0  0  0  0  0
    0.7153   -2.5408   -2.5469 H   0  0  0  0  0  0  0  0  0  0  0  0
   -0.6746   -2.2199   -3.5944 H   0  0  0  0  0  0  0  0  0  0  0  0
    0.6638   -1.0560   -3.5290 H   0  0  0  0  0  0  0  0  0  0  0  0
   -0.3971    1.3008    1.0689 C   0  0  0  0  0  0  0  0  0  0  0  0
   -1.3643    1.9819    0.7311 O   0  0  0  0  0  0  0  0  0  0  0  0
    0.5522    1.7647    1.8915 N   0  0  0  0  0  0  0  0  0  0  0  0
    1.3093    1.1450    2.1332 H   0  0  0  0  0  0  0  0  0  0  0  0
    0.5577    3.1119    2.4582 C   0  0  0  0  0  0  0  0  0  0  0  0
   -0.3986    3.3098    2.9475 H   0  0  0  0  0  0  0  0  0  0  0  0
    1.3619    3.2123    3.1886 H   0  0  0  0  0  0  0  0  0  0  0  0
    0.6974    3.8450    1.6614 H   0  0  0  0  0  0  0  0  0  0  0  0
  5  6  2  0  0  0  0
  5  7  1  0  0  0  0
  2  3  1  0  0  0  0
  2  4  1  0  0  0  0
  2  5  1  0  0  0  0
  1  2  1  0  0  0  0
 24 25  2  0  0  0  0
 24 26  1  0  0  0  0
 20 21  1  0  0  0  0
 20 22  1  0  0  0  0
 20 23  1  0  0  0  0
 17 18  1  0  0  0  0
 17 19  1  0  0  0  0
 17 20  1  0  0  0  0
 13 14  1  0  0  0  0
 13 15  1  0  0  0  0
 13 16  1  0  0  0  0
 11 12  1  0  0  0  0
 11 13  1  0  0  0  0
 11 17  1  0  0  0  0
  9 10  1  0  0  0  0
  9 11  1  0  0  0  0
  9 24  1  0  0  0  0
  7  8  1  0  0  0  0
  7  9  1  0  0  0  0
 28 29  1  0  0  0  0
 28 30  1  0  0  0  0
 28 31  1  0  0  0  0
 26 27  1  0  0  0  0
 26 28  1  0  0  0  0
M  END
$$$$
default_name
  -OEChem-02102213163D

 31 30  0     1  0  0  0  0  0999 V2000
   -3.0760   -3.6390    1.5496 H   0  0  0  0  0  0  0  0  0  0  0  0
   -3.0940   -2.6290    1.1426 C   0  0  0  0  0  0  0  0  0  0  0  0
   -3.7160   -1.9930    1.7706 H   0  0  0  0  0  0  0  0  0  0  0  0
   -3.4880   -2.6500    0.1286 H   0  0  0  0  0  0  0  0  0  0  0  0
   -1.6860   -2.0850    1.1196 C   0  0  0  0  0  0  0  0  0  0  0  0
   -0.7540   -2.7700    1.5226 O   0  0  0  0  0  0  0  0  0  0  0  0
   -1.5320   -0.8490    0.6496 N   0  0  0  0  0  0  0  0  0  0  0  0
   -2.3500   -0.3360    0.3566 H   0  0  0  0  0  0  0  0  0  0  0  0
   -0.2470   -0.1410    0.5576 C   0  0  1  0  0  0  0  0  0  0  0  0
    0.4572   -0.6505    1.2162 H   0  0  0  0  0  0  0  0  0  0  0  0
    0.3091   -0.2220   -0.8868 C   0  0  1  0  0  0  0  0  0  0  0  0
    0.3533    0.7985   -1.2722 H   0  0  0  0  0  0  0  0  0  0  0  0
    1.7348   -0.8039   -0.9367 C   0  0  0  0  0  0  0  0  0  0  0  0
    1.7327   -1.8518   -0.6313 H   0  0  0  0  0  0  0  0  0  0  0  0
    2.1394   -0.7280   -1.9447 H   0  0  0  0  0  0  0  0  0  0  0  0
    2.3932   -0.2449   -0.2708 H   0  0  0  0  0  0  0  0  0  0  0  0
   -0.6450   -1.0195   -1.8040 C   0  0  0  0  0  0  0  0  0  0  0  0
   -1.3849   -1.5482   -1.2016 H   0  0  0  0  0  0  0  0  0  0  0  0
   -1.1702   -0.3212   -2.4556 H   0  0  0  0  0  0  0  0  0  0  0  0
    0.0703   -2.0359   -2.7043 C   0  0  0  0  0  0  0  0  0  0  0  0
    0.5263   -2.8234   -2.1046 H   0  0  0  0  0  0  0  0  0  0  0  0
   -0.6546   -2.4905   -3.3799 H   0  0  0  0  0  0  0  0  0  0  0  0
    0.8391   -1.5356   -3.2942 H   0  0  0  0  0  0  0  0  0  0  0  0
   -0.3971    1.3008    1.0689 C   0  0  0  0  0  0  0  0  0  0  0  0
   -1.3643    1.9819    0.7311 O   0  0  0  0  0  0  0  0  0  0  0  0
    0.5522    1.7647    1.8915 N   0  0  0  0  0  0  0  0  0  0  0  0
    1.3093    1.1450    2.1332 H   0  0  0  0  0  0  0  0  0  0  0  0
    0.5577    3.1119    2.4582 C   0  0  0  0  0  0  0  0  0  0  0  0
   -0.3986    3.3098    2.9475 H   0  0  0  0  0  0  0  0  0  0  0  0
    1.3619    3.2123    3.1886 H   0  0  0  0  0  0  0  0  0  0  0  0
    0.6974    3.8450    1.6614 H   0  0  0  0  0  0  0  0  0  0  0  0
  5  6  2  0  0  0  0
  5  7  1  0  0  0  0
  2  3  1  0  0  0  0
  2  4  1  0  0  0  0
  2  5  1  0  0  0  0
  1  2  1  0  0  0  0
 24 25  2  0  0  0  0
 24 26  1  0  0  0  0
 20 21  1  0  0  0  0
 20 22  1  0  0  0  0
 20 23  1  0  0  0  0
 17 18  1  0  0  0  0
 17 19  1  0  0  0  0
 17 20  1  0  0  0  0
 13 14  1  0  0  0  0
 13 15  1  0  0  0  0
 13 16  1  0  0  0  0
 11 12  1  0  0  0  0
 11 13  1  0  0  0  0
 11 17  1  0  0  0  0
  9 10  1  0  0  0  0
  9 11  1  0  0  0  0
  9 24  1  0  0  0  0
  7  8  1  0  0  0  0
  7  9  1  0  0  0  0
 28 29  1  0  0  0  0
 28 30  1  0  0  0  0
 28 31  1  0  0  0  0
 26 27  1  0  0  0  0
 26 28  1  0  0  0  0
M  END
$$$$
default_name
  -OEChem-02102213163D

 31 30  0     1  0  0  0  0  0999 V2000
   -3.0760   -3.6390    1.5496 H   0  0  0  0  0  0  0  0  0  0  0  0
   -3.0940   -2.6290    1.1426 C   0  0  0  0  0  0  0  0  0  0  0  0
   -3.7160   -1.9930    1.7706 H   0  0  0  0  0  0  0  0  0  0  0  0
   -3.4880   -2.6500    0.1286 H   0  0  0  0  0  0  0  0  0  0  0  0
   -1.6860   -2.0850    1.1196 C   0  0  0  0  0  0  0  0  0  0  0  0
   -0.7540   -2.7700    1.5226 O   0  0  0  0  0  0  0  0  0  0  0  0
   -1.5320   -0.8490    0.6496 N   0  0  0  0  0  0  0  0  0  0  0  0
   -2.3500   -0.3360    0.3566 H   0  0  0  0  0  0  0  0  0  0  0  0
   -0.2470   -0.1410    0.5576 C   0  0  1  0  0  0  0  0  0  0  0  0
    0.4572   -0.6505    1.2162 H   0  0  0  0  0  0  0  0  0  0  0  0
    0.3091   -0.2220   -0.8868 C   0  0  1  0  0  0  0  0  0  0  0  0
    0.3533    0.7985   -1.2722 H   0  0  0  0  0  0  0  0  0  0  0  0
    1.7348   -0.8039   -0.9367 C   0  0  0  0  0  0  0  0  0  0  0  0
    1.7327   -1.8518   -0.6313 H   0  0  0  0  0  0  0  0  0  0  0  0
    2.1394   -0.7280   -1.9447 H   0  0  0  0  0  0  0  0  0  0  0  0
    2.3932   -0.2449   -0.2708 H   0  0  0  0  0  0  0  0  0  0  0  0
   -0.6450   -1.0195   -1.8040 C   0  0  0  0  0  0  0  0  0  0  0  0
   -1.5292   -1.3268   -1.2440 H   0  0  0  0  0  0  0  0  0  0  0  0
   -0.9654   -0.3746   -2.6222 H   0  0  0  0  0  0  0  0  0  0  0  0
   -0.0029   -2.2659   -2.4282 C   0  0  0  0  0  0  0  0  0  0  0  0
    0.2413   -2.9967   -1.6574 H   0  0  0  0  0  0  0  0  0  0  0  0
   -0.7055   -2.7206   -3.1268 H   0  0  0  0  0  0  0  0  0  0  0  0
    0.9034   -1.9883   -2.9675 H   0  0  0  0  0  0  0  0  0  0  0  0
   -0.3971    1.3008    1.0689 C   0  0  0  0  0  0  0  0  0  0  0  0
   -1.3643    1.9819    0.7311 O   0  0  0  0  0  0  0  0  0  0  0  0
    0.5522    1.7647    1.8915 N   0  0  0  0  0  0  0  0  0  0  0  0
    1.3093    1.1450    2.1332 H   0  0  0  0  0  0  0  0  0  0  0  0
    0.5577    3.1119    2.4582 C   0  0  0  0  0  0  0  0  0  0  0  0
   -0.3986    3.3098    2.9475 H   0  0  0  0  0  0  0  0  0  0  0  0
    1.3619    3.2123    3.1886 H   0  0  0  0  0  0  0  0  0  0  0  0
    0.6974    3.8450    1.6614 H   0  0  0  0  0  0  0  0  0  0  0  0
  5  6  2  0  0  0  0
  5  7  1  0  0  0  0
  2  3  1  0  0  0  0
  2  4  1  0  0  0  0
  2  5  1  0  0  0  0
  1  2  1  0  0  0  0
 24 25  2  0  0  0  0
 24 26  1  0  0  0  0
 20 21  1  0  0  0  0
 20 22  1  0  0  0  0
 20 23  1  0  0  0  0
 17 18  1  0  0  0  0
 17 19  1  0  0  0  0
 17 20  1  0  0  0  0
 13 14  1  0  0  0  0
 13 15  1  0  0  0  0
 13 16  1  0  0  0  0
 11 12  1  0  0  0  0
 11 13  1  0  0  0  0
 11 17  1  0  0  0  0
  9 10  1  0  0  0  0
  9 11  1  0  0  0  0
  9 24  1  0  0  0  0
  7  8  1  0  0  0  0
  7  9  1  0  0  0  0
 28 29  1  0  0  0  0
 28 30  1  0  0  0  0
 28 31  1  0  0  0  0
 26 27  1  0  0  0  0
 26 28  1  0  0  0  0
M  END
$$$$
default_name
  -OEChem-02102213163D

 31 30  0     1  0  0  0  0  0999 V2000
   -3.0760   -3.6390    1.5496 H   0  0  0  0  0  0  0  0  0  0  0  0
   -3.0940   -2.6290    1.1426 C   0  0  0  0  0  0  0  0  0  0  0  0
   -3.7160   -1.9930    1.7706 H   0  0  0  0  0  0  0  0  0  0  0  0
   -3.4880   -2.6500    0.1286 H   0  0  0  0  0  0  0  0  0  0  0  0
   -1.6860   -2.0850    1.1196 C   0  0  0  0  0  0  0  0  0  0  0  0
   -0.7540   -2.7700    1.5226 O   0  0  0  0  0  0  0  0  0  0  0  0
   -1.5320   -0.8490    0.6496 N   0  0  0  0  0  0  0  0  0  0  0  0
   -2.3500   -0.3360    0.3566 H   0  0  0  0  0  0  0  0  0  0  0  0
   -0.2470   -0.1410    0.5576 C   0  0  1  0  0  0  0  0  0  0  0  0
    0.4572   -0.6505    1.2162 H   0  0  0  0  0  0  0  0  0  0  0  0
    0.3091   -0.2220   -0.8868 C   0  0  1  0  0  0  0  0  0  0  0  0
    0.3533    0.7985   -1.2722 H   0  0  0  0  0  0  0  0  0  0  0  0
    1.7348   -0.8039   -0.9367 C   0  0  0  0  0  0  0  0  0  0  0  0
    1.7327   -1.8518   -0.6313 H   0  0  0  0  0  0  0  0  0  0  0  0
    2.1394   -0.7280   -1.9447 H   0  0  0  0  0  0  0  0  0  0  0  0
    2.3932   -0.2449   -0.2708 H   0  0  0  0  0  0  0  0  0  0  0  0
   -0.6450   -1.0195   -1.8040 C   0  0  0  0  0  0  0  0  0  0  0  0
   -1.6289   -1.0975   -1.3396 H   0  0  0  0  0  0  0  0  0  0  0  0
   -0.7534   -0.4843   -2.7473 H   0  0  0  0  0  0  0  0  0  0  0  0
   -0.1459   -2.4327   -2.1344 C   0  0  0  0  0  0  0  0  0  0  0  0
   -0.1204   -3.0489   -1.2359 H   0  0  0  0  0  0  0  0  0  0  0  0
   -0.8239   -2.8946   -2.8524 H   0  0  0  0  0  0  0  0  0  0  0  0
    0.8523   -2.3833   -2.5709 H   0  0  0  0  0  0  0  0  0  0  0  0
   -0.3971    1.3008    1.0689 C   0  0  0  0  0  0  0  0  0  0  0  0
   -1.3643    1.9819    0.7311 O   0  0  0  0  0  0  0  0  0  0  0  0
    0.5522    1.7647    1.8915 N   0  0  0  0  0  0  0  0  0  0  0  0
    1.3093    1.1450    2.1332 H   0  0  0  0  0  0  0  0  0  0  0  0
    0.5577    3.1119    2.4582 C   0  0  0  0  0  0  0  0  0  0  0  0
   -0.3986    3.3098    2.9475 H   0  0  0  0  0  0  0  0  0  0  0  0
    1.3619    3.2123    3.1886 H   0  0  0  0  0  0  0  0  0  0  0  0
    0.6974    3.8450    1.6614 H   0  0  0  0  0  0  0  0  0  0  0  0
  5  6  2  0  0  0  0
  5  7  1  0  0  0  0
  2  3  1  0  0  0  0
  2  4  1  0  0  0  0
  2  5  1  0  0  0  0
  1  2  1  0  0  0  0
 24 25  2  0  0  0  0
 24 26  1  0  0  0  0
 20 21  1  0  0  0  0
 20 22  1  0  0  0  0
 20 23  1  0  0  0  0
 17 18  1  0  0  0  0
 17 19  1  0  0  0  0
 17 20  1  0  0  0  0
 13 14  1  0  0  0  0
 13 15  1  0  0  0  0
 13 16  1  0  0  0  0
 11 12  1  0  0  0  0
 11 13  1  0  0  0  0
 11 17  1  0  0  0  0
  9 10  1  0  0  0  0
  9 11  1  0  0  0  0
  9 24  1  0  0  0  0
  7  8  1  0  0  0  0
  7  9  1  0  0  0  0
 28 29  1  0  0  0  0
 28 30  1  0  0  0  0
 28 31  1  0  0  0  0
 26 27  1  0  0  0  0
 26 28  1  0  0  0  0
M  END
$$$$
default_name
  -OEChem-02102213163D

 31 30  0     1  0  0  0  0  0999 V2000
   -3.0760   -3.6390    1.5496 H   0  0  0  0  0  0  0  0  0  0  0  0
   -3.0940   -2.6290    1.1426 C   0  0  0  0  0  0  0  0  0  0  0  0
   -3.7160   -1.9930    1.7706 H   0  0  0  0  0  0  0  0  0  0  0  0
   -3.4880   -2.6500    0.1286 H   0  0  0  0  0  0  0  0  0  0  0  0
   -1.6860   -2.0850    1.1196 C   0  0  0  0  0  0  0  0  0  0  0  0
   -0.7540   -2.7700    1.5226 O   0  0  0  0  0  0  0  0  0  0  0  0
   -1.5320   -0.8490    0.6496 N   0  0  0  0  0  0  0  0  0  0  0  0
   -2.3500   -0.3360    0.3566 H   0  0  0  0  0  0  0  0  0  0  0  0
   -0.2470   -0.1410    0.5576 C   0  0  1  0  0  0  0  0  0  0  0  0
    0.4572   -0.6505    1.2162 H   0  0  0  0  0  0  0  0  0  0  0  0
    0.3091   -0.2220   -0.8868 C   0  0  1  0  0  0  0  0  0  0  0  0
    0.3533    0.7985   -1.2722 H   0  0  0  0  0  0  0  0  0  0  0  0
    1.7348   -0.8039   -0.9367 C   0  0  0  0  0  0  0  0  0  0  0  0
    1.7327   -1.8518   -0.6313 H   0  0  0  0  0  0  0  0  0  0  0  0
    2.1394   -0.7280   -1.9447 H   0  0  0  0  0  0  0  0  0  0  0  0
    2.3932   -0.2449   -0.2708 H   0  0  0  0  0  0  0  0  0  0  0  0
   -0.6450   -1.0195   -1.8040 C   0  0  0  0  0  0  0  0  0  0  0  0
   -1.6772   -0.8760   -1.4820 H   0  0  0  0  0  0  0  0  0  0  0  0
   -0.5489   -0.6427   -2.8223 H   0  0  0  0  0  0  0  0  0  0  0  0
   -0.3489   -2.5249   -1.8431 C   0  0  0  0  0  0  0  0  0  0  0  0
   -0.5341   -2.9763   -0.8686 H   0  0  0  0  0  0  0  0  0  0  0  0
   -1.0016   -3.0007   -2.5753 H   0  0  0  0  0  0  0  0  0  0  0  0
    0.6893   -2.6935   -2.1316 H   0  0  0  0  0  0  0  0  0  0  0  0
   -0.3971    1.3008    1.0689 C   0  0  0  0  0  0  0  0  0  0  0  0
   -1.3643    1.9819    0.7311 O   0  0  0  0  0  0  0  0  0  0  0  0
    0.5522    1.7647    1.8915 N   0  0  0  0  0  0  0  0  0  0  0  0
    1.3093    1.1450    2.1332 H   0  0  0  0  0  0  0  0  0  0  0  0
    0.5577    3.1119    2.4582 C   0  0  0  0  0  0  0  0  0  0  0  0
   -0.3986    3.3098    2.9475 H   0  0  0  0  0  0  0  0  0  0  0  0
    1.3619    3.2123    3.1886 H   0  0  0  0  0  0  0  0  0  0  0  0
    0.6974    3.8450    1.6614 H   0  0  0  0  0  0  0  0  0  0  0  0
  5  6  2  0  0  0  0
  5  7  1  0  0  0  0
  2  3  1  0  0  0  0
  2  4  1  0  0  0  0
  2  5  1  0  0  0  0
  1  2  1  0  0  0  0
 24 25  2  0  0  0  0
 24 26  1  0  0  0  0
 20 21  1  0  0  0  0
 20 22  1  0  0  0  0
 20 23  1  0  0  0  0
 17 18  1  0  0  0  0
 17 19  1  0  0  0  0
 17 20  1  0  0  0  0
 13 14  1  0  0  0  0
 13 15  1  0  0  0  0
 13 16  1  0  0  0  0
 11 12  1  0  0  0  0
 11 13  1  0  0  0  0
 11 17  1  0  0  0  0
  9 10  1  0  0  0  0
  9 11  1  0  0  0  0
  9 24  1  0  0  0  0
  7  8  1  0  0  0  0
  7  9  1  0  0  0  0
 28 29  1  0  0  0  0
 28 30  1  0  0  0  0
 28 31  1  0  0  0  0
 26 27  1  0  0  0  0
 26 28  1  0  0  0  0
M  END
$$$$
default_name
  -OEChem-02102213163D

 31 30  0     1  0  0  0  0  0999 V2000
   -3.0760   -3.6390    1.5496 H   0  0  0  0  0  0  0  0  0  0  0  0
   -3.0940   -2.6290    1.1426 C   0  0  0  0  0  0  0  0  0  0  0  0
   -3.7160   -1.9930    1.7706 H   0  0  0  0  0  0  0  0  0  0  0  0
   -3.4880   -2.6500    0.1286 H   0  0  0  0  0  0  0  0  0  0  0  0
   -1.6860   -2.0850    1.1196 C   0  0  0  0  0  0  0  0  0  0  0  0
   -0.7540   -2.7700    1.5226 O   0  0  0  0  0  0  0  0  0  0  0  0
   -1.5320   -0.8490    0.6496 N   0  0  0  0  0  0  0  0  0  0  0  0
   -2.3500   -0.3360    0.3566 H   0  0  0  0  0  0  0  0  0  0  0  0
   -0.2470   -0.1410    0.5576 C   0  0  1  0  0  0  0  0  0  0  0  0
    0.4572   -0.6505    1.2162 H   0  0  0  0  0  0  0  0  0  0  0  0
    0.3091   -0.2220   -0.8868 C   0  0  1  0  0  0  0  0  0  0  0  0
    0.3533    0.7985   -1.2722 H   0  0  0  0  0  0  0  0  0  0  0  0
    1.7348   -0.8039   -0.9367 C   0  0  0  0  0  0  0  0  0  0  0  0
    1.7327   -1.8518   -0.6313 H   0  0  0  0  0  0  0  0  0  0  0  0
    2.1394   -0.7280   -1.9447 H   0  0  0  0  0  0  0  0  0  0  0  0
    2.3932   -0.2449   -0.2708 H   0  0  0  0  0  0  0  0  0  0  0  0
   -0.6450   -1.0195   -1.8040 C   0  0  0  0  0  0  0  0  0  0  0  0
   -1.6708   -0.6774   -1.6613 H   0  0  0  0  0  0  0  0  0  0  0  0
   -0.3656   -0.8392   -2.8421 H   0  0  0  0  0  0  0  0  0  0  0  0
   -0.5980   -2.5362   -1.5742 C   0  0  0  0  0  0  0  0  0  0  0  0
   -0.9715   -2.7840   -0.5808 H   0  0  0  0  0  0  0  0  0  0  0  0
   -1.2266   -3.0316   -2.3145 H   0  0  0  0  0  0  0  0  0  0  0  0
    0.4254   -2.8979   -1.6794 H   0  0  0  0  0  0  0  0  0  0  0  0
   -0.3971    1.3008    1.0689 C   0  0  0  0  0  0  0  0  0  0  0  0
   -1.3643    1.9819    0.7311 O   0  0  0  0  0  0  0  0  0  0  0  0
    0.5522    1.7647    1.8915 N   0  0  0  0  0  0  0  0  0  0  0  0
    1.3093    1.1450    2.1332 H   0  0  0  0  0  0  0  0  0  0  0  0
    0.5577    3.1119    2.4582 C   0  0  0  0  0  0  0  0  0  0  0  0
   -0.3986    3.3098    2.9475 H   0  0  0  0  0  0  0  0  0  0  0  0
    1.3619    3.2123    3.1886 H   0  0  0  0  0  0  0  0  0  0  0  0
    0.6974    3.8450    1.6614 H   0  0  0  0  0  0  0  0  0  0  0  0
  5  6  2  0  0  0  0
  5  7  1  0  0  0  0
  2  3  1  0  0  0  0
  2  4  1  0  0  0  0
  2  5  1  0  0  0  0
  1  2  1  0  0  0  0
 24 25  2  0  0  0  0
 24 26  1  0  0  0  0
 20 21  1  0  0  0  0
 20 22  1  0  0  0  0
 20 23  1  0  0  0  0
 17 18  1  0  0  0  0
 17 19  1  0  0  0  0
 17 20  1  0  0  0  0
 13 14  1  0  0  0  0
 13 15  1  0  0  0  0
 13 16  1  0  0  0  0
 11 12  1  0  0  0  0
 11 13  1  0  0  0  0
 11 17  1  0  0  0  0
  9 10  1  0  0  0  0
  9 11  1  0  0  0  0
  9 24  1  0  0  0  0
  7  8  1  0  0  0  0
  7  9  1  0  0  0  0
 28 29  1  0  0  0  0
 28 30  1  0  0  0  0
 28 31  1  0  0  0  0
 26 27  1  0  0  0  0
 26 28  1  0  0  0  0
M  END
$$$$
default_name
  -OEChem-02102213163D

 31 30  0     1  0  0  0  0  0999 V2000
   -3.0760   -3.6390    1.5496 H   0  0  0  0  0  0  0  0  0  0  0  0
   -3.0940   -2.6290    1.1426 C   0  0  0  0  0  0  0  0  0  0  0  0
   -3.7160   -1.9930    1.7706 H   0  0  0  0  0  0  0  0  0  0  0  0
   -3.4880   -2.6500    0.1286 H   0  0  0  0  0  0  0  0  0  0  0  0
   -1.6860   -2.0850    1.1196 C   0  0  0  0  0  0  0  0  0  0  0  0
   -0.7540   -2.7700    1.5226 O   0  0  0  0  0  0  0  0  0  0  0  0
   -1.5320   -0.8490    0.6496 N   0  0  0  0  0  0  0  0  0  0  0  0
   -2.3500   -0.3360    0.3566 H   0  0  0  0  0  0  0  0  0  0  0  0
   -0.2470   -0.1410    0.5576 C   0  0  1  0  0  0  0  0  0  0  0  0
    0.4572   -0.6505    1.2162 H   0  0  0  0  0  0  0  0  0  0  0  0
    0.3091   -0.2220   -0.8868 C   0  0  1  0  0  0  0  0  0  0  0  0
    0.3533    0.7985   -1.2722 H   0  0  0  0  0  0  0  0  0  0  0  0
    1.7348   -0.8039   -0.9367 C   0  0  0  0  0  0  0  0  0  0  0  0
    1.7327   -1.8518   -0.6313 H   0  0  0  0  0  0  0  0  0  0  0  0
    2.1394   -0.7280   -1.9447 H   0  0  0  0  0  0  0  0  0  0  0  0
    2.3932   -0.2449   -0.2708 H   0  0  0  0  0  0  0  0  0  0  0  0
   -0.6450   -1.0195   -1.8040 C   0  0  0  0  0  0  0  0  0  0  0  0
   -1.6102   -0.5152   -1.8654 H   0  0  0  0  0  0  0  0  0  0  0  0
   -0.2162   -1.0604   -2.8053 H   0  0  0  0  0  0  0  0  0  0  0  0
   -0.8763   -2.4658   -1.3458 C   0  0  0  0  0  0  0  0  0  0  0  0
   -1.4030   -2.4850   -0.3919 H   0  0  0  0  0  0  0  0  0  0  0  0
   -1.4835   -2.9851   -2.0876 H   0  0  0  0  0  0  0  0  0  0  0  0
    0.0788   -2.9826   -1.2452 H   0  0  0  0  0  0  0  0  0  0  0  0
   -0.3971    1.3008    1.0689 C   0  0  0  0  0  0  0  0  0  0  0  0
   -1.3643    1.9819    0.7311 O   0  0  0  0  0  0  0  0  0  0  0  0
    0.5522    1.7647    1.8915 N   0  0  0  0  0  0  0  0  0  0  0  0
    1.3093    1.1450    2.1332 H   0  0  0  0  0  0  0  0  0  0  0  0
    0.5577    3.1119    2.4582 C   0  0  0  0  0  0  0  0  0  0  0  0
   -0.3986    3.3098    2.9475 H   0  0  0  0  0  0  0  0  0  0  0  0
    1.3619    3.2123    3.1886 H   0  0  0  0  0  0  0  0  0  0  0  0
    0.6974    3.8450    1.6614 H   0  0  0  0  0  0  0  0  0  0  0  0
  5  6  2  0  0  0  0
  5  7  1  0  0  0  0
  2  3  1  0  0  0  0
  2  4  1  0  0  0  0
  2  5  1  0  0  0  0
  1  2  1  0  0  0  0
 24 25  2  0  0  0  0
 24 26  1  0  0  0  0
 20 21  1  0  0  0  0
 20 22  1  0  0  0  0
 20 23  1  0  0  0  0
 17 18  1  0  0  0  0
 17 19  1  0  0  0  0
 17 20  1  0  0  0  0
 13 14  1  0  0  0  0
 13 15  1  0  0  0  0
 13 16  1  0  0  0  0
 11 12  1  0  0  0  0
 11 13  1  0  0  0  0
 11 17  1  0  0  0  0
  9 10  1  0  0  0  0
  9 11  1  0  0  0  0
  9 24  1  0  0  0  0
  7  8  1  0  0  0  0
  7  9  1  0  0  0  0
 28 29  1  0  0  0  0
 28 30  1  0  0  0  0
 28 31  1  0  0  0  0
 26 27  1  0  0  0  0
 26 28  1  0  0  0  0
M  END
$$$$
default_name
  -OEChem-02102213163D

 31 30  0     1  0  0  0  0  0999 V2000
   -3.0760   -3.6390    1.5496 H   0  0  0  0  0  0  0  0  0  0  0  0
   -3.0940   -2.6290    1.1426 C   0  0  0  0  0  0  0  0  0  0  0  0
   -3.7160   -1.9930    1.7706 H   0  0  0  0  0  0  0  0  0  0  0  0
   -3.4880   -2.6500    0.1286 H   0  0  0  0  0  0  0  0  0  0  0  0
   -1.6860   -2.0850    1.1196 C   0  0  0  0  0  0  0  0  0  0  0  0
   -0.7540   -2.7700    1.5226 O   0  0  0  0  0  0  0  0  0  0  0  0
   -1.5320   -0.8490    0.6496 N   0  0  0  0  0  0  0  0  0  0  0  0
   -2.3500   -0.3360    0.3566 H   0  0  0  0  0  0  0  0  0  0  0  0
   -0.2470   -0.1410    0.5576 C   0  0  1  0  0  0  0  0  0  0  0  0
    0.4572   -0.6505    1.2162 H   0  0  0  0  0  0  0  0  0  0  0  0
    0.3091   -0.2220   -0.8868 C   0  0  1  0  0  0  0  0  0  0  0  0
    0.3533    0.7985   -1.2722 H   0  0  0  0  0  0  0  0  0  0  0  0
    1.7348   -0.8039   -0.9367 C   0  0  0  0  0  0  0  0  0  0  0  0
    1.7327   -1.8518   -0.6313 H   0  0  0  0  0  0  0  0  0  0  0  0
    2.1394   -0.7280   -1.9447 H   0  0  0  0  0  0  0  0  0  0  0  0
    2.3932   -0.2449   -0.2708 H   0  0  0  0  0  0  0  0  0  0  0  0
   -0.6450   -1.0195   -1.8040 C   0  0  0  0  0  0  0  0  0  0  0  0
   -1.4995   -0.4004   -2.0804 H   0  0  0  0  0  0  0  0  0  0  0  0
   -0.1107   -1.2910   -2.7144 H   0  0  0  0  0  0  0  0  0  0  0  0
   -1.1648   -2.3186   -1.1737 C   0  0  0  0  0  0  0  0  0  0  0  0
   -1.7991   -2.0997   -0.3149 H   0  0  0  0  0  0  0  0  0  0  0  0
   -1.7548   -2.8646   -1.9102 H   0  0  0  0  0  0  0  0  0  0  0  0
   -0.3270   -2.9417   -0.8586 H   0  0  0  0  0  0  0  0  0  0  0  0
   -0.3971    1.3008    1.0689 C   0  0  0  0  0  0  0  0  0  0  0  0
   -1.3643    1.9819    0.7311 O   0  0  0  0  0  0  0  0  0  0  0  0
    0.5522    1.7647    1.8915 N   0  0  0  0  0  0  0  0  0  0  0  0
    1.3093    1.1450    2.1332 H   0  0  0  0  0  0  0  0  0  0  0  0
    0.5577    3.1119    2.4582 C   0  0  0  0  0  0  0  0  0  0  0  0
   -0.3986    3.3098    2.9475 H   0  0  0  0  0  0  0  0  0  0  0  0
    1.3619    3.2123    3.1886 H   0  0  0  0  0  0  0  0  0  0  0  0
    0.6974    3.8450    1.6614 H   0  0  0  0  0  0  0  0  0  0  0  0
  5  6  2  0  0  0  0
  5  7  1  0  0  0  0
  2  3  1  0  0  0  0
  2  4  1  0  0  0  0
  2  5  1  0  0  0  0
  1  2  1  0  0  0  0
 24 25  2  0  0  0  0
 24 26  1  0  0  0  0
 20 21  1  0  0  0  0
 20 22  1  0  0  0  0
 20 23  1  0  0  0  0
 17 18  1  0  0  0  0
 17 19  1  0  0  0  0
 17 20  1  0  0  0  0
 13 14  1  0  0  0  0
 13 15  1  0  0  0  0
 13 16  1  0  0  0  0
 11 12  1  0  0  0  0
 11 13  1  0  0  0  0
 11 17  1  0  0  0  0
  9 10  1  0  0  0  0
  9 11  1  0  0  0  0
  9 24  1  0  0  0  0
  7  8  1  0  0  0  0
  7  9  1  0  0  0  0
 28 29  1  0  0  0  0
 28 30  1  0  0  0  0
 28 31  1  0  0  0  0
 26 27  1  0  0  0  0
 26 28  1  0  0  0  0
M  END
$$$$
default_name
  -OEChem-02102213163D

 31 30  0     1  0  0  0  0  0999 V2000
   -3.0760   -3.6390    1.5496 H   0  0  0  0  0  0  0  0  0  0  0  0
   -3.0940   -2.6290    1.1426 C   0  0  0  0  0  0  0  0  0  0  0  0
   -3.7160   -1.9930    1.7706 H   0  0  0  0  0  0  0  0  0  0  0  0
   -3.4880   -2.6500    0.1286 H   0  0  0  0  0  0  0  0  0  0  0  0
   -1.6860   -2.0850    1.1196 C   0  0  0  0  0  0  0  0  0  0  0  0
   -0.7540   -2.7700    1.5226 O   0  0  0  0  0  0  0  0  0  0  0  0
   -1.5320   -0.8490    0.6496 N   0  0  0  0  0  0  0  0  0  0  0  0
   -2.3500   -0.3360    0.3566 H   0  0  0  0  0  0  0  0  0  0  0  0
   -0.2470   -0.1410    0.5576 C   0  0  1  0  0  0  0  0  0  0  0  0
    0.4572   -0.6505    1.2162 H   0  0  0  0  0  0  0  0  0  0  0  0
    0.3091   -0.2220   -0.8868 C   0  0  1  0  0  0  0  0  0  0  0  0
    0.3533    0.7985   -1.2722 H   0  0  0  0  0  0  0  0  0  0  0  0
    1.7348   -0.8039   -0.9367 C   0  0  0  0  0  0  0  0  0  0  0  0
    1.7327   -1.8518   -0.6313 H   0  0  0  0  0  0  0  0  0  0  0  0
    2.1394   -0.7280   -1.9447 H   0  0  0  0  0  0  0  0  0  0  0  0
    2.3932   -0.2449   -0.2708 H   0  0  0  0  0  0  0  0  0  0  0  0
   -0.6450   -1.0195   -1.8040 C   0  0  0  0  0  0  0  0  0  0  0  0
   -1.3462   -0.3409   -2.2916 H   0  0  0  0  0  0  0  0  0  0  0  0
   -0.0563   -1.5155   -2.5758 H   0  0  0  0  0  0  0  0  0  0  0  0
   -1.4439   -2.1046   -1.0695 C   0  0  0  0  0  0  0  0  0  0  0  0
   -2.1328   -1.6544   -0.3550 H   0  0  0  0  0  0  0  0  0  0  0  0
   -2.0220   -2.6781   -1.7944 H   0  0  0  0  0  0  0  0  0  0  0  0
   -0.7644   -2.7781   -0.5459 H   0  0  0  0  0  0  0  0  0  0  0  0
   -0.3971    1.3008    1.0689 C   0  0  0  0  0  0  0  0  0  0  0  0
   -1.3643    1.9819    0.7311 O   0  0  0  0  0  0  0  0  0  0  0  0
    0.5522    1.7647    1.8915 N   0  0  0  0  0  0  0  0  0  0  0  0
    1.3093    1.1450    2.1332 H   0  0  0  0  0  0  0  0  0  0  0  0
    0.5577    3.1119    2.4582 C   0  0  0  0  0  0  0  0  0  0  0  0
   -0.3986    3.3098    2.9475 H   0  0  0  0  0  0  0  0  0  0  0  0
    1.3619    3.2123    3.1886 H   0  0  0  0  0  0  0  0  0  0  0  0
    0.6974    3.8450    1.6614 H   0  0  0  0  0  0  0  0  0  0  0  0
  5  6  2  0  0  0  0
  5  7  1  0  0  0  0
  2  3  1  0  0  0  0
  2  4  1  0  0  0  0
  2  5  1  0  0  0  0
  1  2  1  0  0  0  0
 24 25  2  0  0  0  0
 24 26  1  0  0  0  0
 20 21  1  0  0  0  0
 20 22  1  0  0  0  0
 20 23  1  0  0  0  0
 17 18  1  0  0  0  0
 17 19  1  0  0  0  0
 17 20  1  0  0  0  0
 13 14  1  0  0  0  0
 13 15  1  0  0  0  0
 13 16  1  0  0  0  0
 11 12  1  0  0  0  0
 11 13  1  0  0  0  0
 11 17  1  0  0  0  0
  9 10  1  0  0  0  0
  9 11  1  0  0  0  0
  9 24  1  0  0  0  0
  7  8  1  0  0  0  0
  7  9  1  0  0  0  0
 28 29  1  0  0  0  0
 28 30  1  0  0  0  0
 28 31  1  0  0  0  0
 26 27  1  0  0  0  0
 26 28  1  0  0  0  0
M  END
$$$$
default_name
  -OEChem-02102213163D

 31 30  0     1  0  0  0  0  0999 V2000
   -3.0760   -3.6390    1.5496 H   0  0  0  0  0  0  0  0  0  0  0  0
   -3.0940   -2.6290    1.1426 C   0  0  0  0  0  0  0  0  0  0  0  0
   -3.7160   -1.9930    1.7706 H   0  0  0  0  0  0  0  0  0  0  0  0
   -3.4880   -2.6500    0.1286 H   0  0  0  0  0  0  0  0  0  0  0  0
   -1.6860   -2.0850    1.1196 C   0  0  0  0  0  0  0  0  0  0  0  0
   -0.7540   -2.7700    1.5226 O   0  0  0  0  0  0  0  0  0  0  0  0
   -1.5320   -0.8490    0.6496 N   0  0  0  0  0  0  0  0  0  0  0  0
   -2.3500   -0.3360    0.3566 H   0  0  0  0  0  0  0  0  0  0  0  0
   -0.2470   -0.1410    0.5576 C   0  0  1  0  0  0  0  0  0  0  0  0
    0.4572   -0.6505    1.2162 H   0  0  0  0  0  0  0  0  0  0  0  0
    0.3091   -0.2220   -0.8868 C   0  0  1  0  0  0  0  0  0  0  0  0
    0.3533    0.7985   -1.2722 H   0  0  0  0  0  0  0  0  0  0  0  0
    1.7348   -0.8039   -0.9367 C   0  0  0  0  0  0  0  0  0  0  0  0
    1.7327   -1.8518   -0.6313 H   0  0  0  0  0  0  0  0  0  0  0  0
    2.1394   -0.7280   -1.9447 H   0  0  0  0  0  0  0  0  0  0  0  0
    2.3932   -0.2449   -0.2708 H   0  0  0  0  0  0  0  0  0  0  0  0
   -0.6450   -1.0195   -1.8040 C   0  0  0  0  0  0  0  0  0  0  0  0
   -1.1607   -0.3408   -2.4846 H   0  0  0  0  0  0  0  0  0  0  0  0
   -0.0569   -1.7185   -2.3987 H   0  0  0  0  0  0  0  0  0  0  0  0
   -1.6945   -1.8384   -1.0403 C   0  0  0  0  0  0  0  0  0  0  0  0
   -2.3813   -1.1794   -0.5095 H   0  0  0  0  0  0  0  0  0  0  0  0
   -2.2670   -2.4384   -1.7480 H   0  0  0  0  0  0  0  0  0  0  0  0
   -1.2035   -2.5028   -0.3285 H   0  0  0  0  0  0  0  0  0  0  0  0
   -0.3971    1.3008    1.0689 C   0  0  0  0  0  0  0  0  0  0  0  0
   -1.3643    1.9819    0.7311 O   0  0  0  0  0  0  0  0  0  0  0  0
    0.5522    1.7647    1.8915 N   0  0  0  0  0  0  0  0  0  0  0  0
    1.3093    1.1450    2.1332 H   0  0  0  0  0  0  0  0  0  0  0  0
    0.5577    3.1119    2.4582 C   0  0  0  0  0  0  0  0  0  0  0  0
   -0.3986    3.3098    2.9475 H   0  0  0  0  0  0  0  0  0  0  0  0
    1.3619    3.2123    3.1886 H   0  0  0  0  0  0  0  0  0  0  0  0
    0.6974    3.8450    1.6614 H   0  0  0  0  0  0  0  0  0  0  0  0
  5  6  2  0  0  0  0
  5  7  1  0  0  0  0
  2  3  1  0  0  0  0
  2  4  1  0  0  0  0
  2  5  1  0  0  0  0
  1  2  1  0  0  0  0
 24 25  2  0  0  0  0
 24 26  1  0  0  0  0
 20 21  1  0  0  0  0
 20 22  1  0  0  0  0
 20 23  1  0  0  0  0
 17 18  1  0  0  0  0
 17 19  1  0  0  0  0
 17 20  1  0  0  0  0
 13 14  1  0  0  0  0
 13 15  1  0  0  0  0
 13 16  1  0  0  0  0
 11 12  1  0  0  0  0
 11 13  1  0  0  0  0
 11 17  1  0  0  0  0
  9 10  1  0  0  0  0
  9 11  1  0  0  0  0
  9 24  1  0  0  0  0
  7  8  1  0  0  0  0
  7  9  1  0  0  0  0
 28 29  1  0  0  0  0
 28 30  1  0  0  0  0
 28 31  1  0  0  0  0
 26 27  1  0  0  0  0
 26 28  1  0  0  0  0
M  END
$$$$
default_name
  -OEChem-02102213163D

 31 30  0     1  0  0  0  0  0999 V2000
   -3.0760   -3.6390    1.5496 H   0  0  0  0  0  0  0  0  0  0  0  0
   -3.0940   -2.6290    1.1426 C   0  0  0  0  0  0  0  0  0  0  0  0
   -3.7160   -1.9930    1.7706 H   0  0  0  0  0  0  0  0  0  0  0  0
   -3.4880   -2.6500    0.1286 H   0  0  0  0  0  0  0  0  0  0  0  0
   -1.6860   -2.0850    1.1196 C   0  0  0  0  0  0  0  0  0  0  0  0
   -0.7540   -2.7700    1.5226 O   0  0  0  0  0  0  0  0  0  0  0  0
   -1.5320   -0.8490    0.6496 N   0  0  0  0  0  0  0  0  0  0  0  0
   -2.3500   -0.3360    0.3566 H   0  0  0  0  0  0  0  0  0  0  0  0
   -0.2470   -0.1410    0.5576 C   0  0  1  0  0  0  0  0  0  0  0  0
    0.4572   -0.6505    1.2162 H   0  0  0  0  0  0  0  0  0  0  0  0
    0.3091   -0.2220   -0.8868 C   0  0  1  0  0  0  0  0  0  0  0  0
    0.3533    0.7985   -1.2722 H   0  0  0  0  0  0  0  0  0  0  0  0
    1.7348   -0.8039   -0.9367 C   0  0  0  0  0  0  0  0  0  0  0  0
    1.7327   -1.8518   -0.6313 H   0  0  0  0  0  0  0  0  0  0  0  0
    2.1394   -0.7280   -1.9447 H   0  0  0  0  0  0  0  0  0  0  0  0
    2.3932   -0.2449   -0.2708 H   0  0  0  0  0  0  0  0  0  0  0  0
   -0.6450   -1.0195   -1.8040 C   0  0  0  0  0  0  0  0  0  0  0  0
   -0.9558   -0.4000   -2.6463 H   0  0  0  0  0  0  0  0  0  0  0  0
   -0.1123   -1.8862   -2.1952 H   0  0  0  0  0  0  0  0  0  0  0  0
   -1.8995   -1.5380   -1.0882 C   0  0  0  0  0  0  0  0  0  0  0  0
   -2.5278   -0.7071   -0.7678 H   0  0  0  0  0  0  0  0  0  0  0  0
   -2.4729   -2.1618   -1.7743 H   0  0  0  0  0  0  0  0  0  0  0  0
   -1.6144   -2.1348   -0.2210 H   0  0  0  0  0  0  0  0  0  0  0  0
   -0.3971    1.3008    1.0689 C   0  0  0  0  0  0  0  0  0  0  0  0
   -1.3643    1.9819    0.7311 O   0  0  0  0  0  0  0  0  0  0  0  0
    0.5522    1.7647    1.8915 N   0  0  0  0  0  0  0  0  0  0  0  0
    1.3093    1.1450    2.1332 H   0  0  0  0  0  0  0  0  0  0  0  0
    0.5577    3.1119    2.4582 C   0  0  0  0  0  0  0  0  0  0  0  0
   -0.3986    3.3098    2.9475 H   0  0  0  0  0  0  0  0  0  0  0  0
    1.3619    3.2123    3.1886 H   0  0  0  0  0  0  0  0  0  0  0  0
    0.6974    3.8450    1.6614 H   0  0  0  0  0  0  0  0  0  0  0  0
  5  6  2  0  0  0  0
  5  7  1  0  0  0  0
  2  3  1  0  0  0  0
  2  4  1  0  0  0  0
  2  5  1  0  0  0  0
  1  2  1  0  0  0  0
 24 25  2  0  0  0  0
 24 26  1  0  0  0  0
 20 21  1  0  0  0  0
 20 22  1  0  0  0  0
 20 23  1  0  0  0  0
 17 18  1  0  0  0  0
 17 19  1  0  0  0  0
 17 20  1  0  0  0  0
 13 14  1  0  0  0  0
 13 15  1  0  0  0  0
 13 16  1  0  0  0  0
 11 12  1  0  0  0  0
 11 13  1  0  0  0  0
 11 17  1  0  0  0  0
  9 10  1  0  0  0  0
  9 11  1  0  0  0  0
  9 24  1  0  0  0  0
  7  8  1  0  0  0  0
  7  9  1  0  0  0  0
 28 29  1  0  0  0  0
 28 30  1  0  0  0  0
 28 31  1  0  0  0  0
 26 27  1  0  0  0  0
 26 28  1  0  0  0  0
M  END
$$$$
default_name
  -OEChem-02102213163D

 31 30  0     1  0  0  0  0  0999 V2000
   -3.0760   -3.6390    1.5496 H   0  0  0  0  0  0  0  0  0  0  0  0
   -3.0940   -2.6290    1.1426 C   0  0  0  0  0  0  0  0  0  0  0  0
   -3.7160   -1.9930    1.7706 H   0  0  0  0  0  0  0  0  0  0  0  0
   -3.4880   -2.6500    0.1286 H   0  0  0  0  0  0  0  0  0  0  0  0
   -1.6860   -2.0850    1.1196 C   0  0  0  0  0  0  0  0  0  0  0  0
   -0.7540   -2.7700    1.5226 O   0  0  0  0  0  0  0  0  0  0  0  0
   -1.5320   -0.8490    0.6496 N   0  0  0  0  0  0  0  0  0  0  0  0
   -2.3500   -0.3360    0.3566 H   0  0  0  0  0  0  0  0  0  0  0  0
   -0.2470   -0.1410    0.5576 C   0  0  1  0  0  0  0  0  0  0  0  0
    0.4572   -0.6505    1.2162 H   0  0  0  0  0  0  0  0  0  0  0  0
    0.3091   -0.2220   -0.8868 C   0  0  1  0  0  0  0  0  0  0  0  0
    0.3533    0.7985   -1.2722 H   0  0  0  0  0  0  0  0  0  0  0  0
    1.7348   -0.8039   -0.9367 C   0  0  0  0  0  0  0  0  0  0  0  0
    1.7327   -1.8518   -0.6313 H   0  0  0  0  0  0  0  0  0  0  0  0
    2.1394   -0.7280   -1.9447 H   0  0  0  0  0  0  0  0  0  0  0  0
    2.3932   -0.2449   -0.2708 H   0  0  0  0  0  0  0  0  0  0  0  0
   -0.6450   -1.0195   -1.8040 C   0  0  0  0  0  0  0  0  0  0  0  0
   -0.7453   -0.5145   -2.7657 H   0  0  0  0  0  0  0  0  0  0  0  0
   -0.2187   -2.0072   -1.9793 H   0  0  0  0  0  0  0  0  0  0  0  0
   -2.0450   -1.2241   -1.2098 C   0  0  0  0  0  0  0  0  0  0  0  0
   -2.5622   -0.2697   -1.1124 H   0  0  0  0  0  0  0  0  0  0  0  0
   -2.6259   -1.8672   -1.8713 H   0  0  0  0  0  0  0  0  0  0  0  0
   -1.9691   -1.6990   -0.2310 H   0  0  0  0  0  0  0  0  0  0  0  0
   -0.3971    1.3008    1.0689 C   0  0  0  0  0  0  0  0  0  0  0  0
   -1.3643    1.9819    0.7311 O   0  0  0  0  0  0  0  0  0  0  0  0
    0.5522    1.7647    1.8915 N   0  0  0  0  0  0  0  0  0  0  0  0
    1.3093    1.1450    2.1332 H   0  0  0  0  0  0  0  0  0  0  0  0
    0.5577    3.1119    2.4582 C   0  0  0  0  0  0  0  0  0  0  0  0
   -0.3986    3.3098    2.9475 H   0  0  0  0  0  0  0  0  0  0  0  0
    1.3619    3.2123    3.1886 H   0  0  0  0  0  0  0  0  0  0  0  0
    0.6974    3.8450    1.6614 H   0  0  0  0  0  0  0  0  0  0  0  0
  5  6  2  0  0  0  0
  5  7  1  0  0  0  0
  2  3  1  0  0  0  0
  2  4  1  0  0  0  0
  2  5  1  0  0  0  0
  1  2  1  0  0  0  0
 24 25  2  0  0  0  0
 24 26  1  0  0  0  0
 20 21  1  0  0  0  0
 20 22  1  0  0  0  0
 20 23  1  0  0  0  0
 17 18  1  0  0  0  0
 17 19  1  0  0  0  0
 17 20  1  0  0  0  0
 13 14  1  0  0  0  0
 13 15  1  0  0  0  0
 13 16  1  0  0  0  0
 11 12  1  0  0  0  0
 11 13  1  0  0  0  0
 11 17  1  0  0  0  0
  9 10  1  0  0  0  0
  9 11  1  0  0  0  0
  9 24  1  0  0  0  0
  7  8  1  0  0  0  0
  7  9  1  0  0  0  0
 28 29  1  0  0  0  0
 28 30  1  0  0  0  0
 28 31  1  0  0  0  0
 26 27  1  0  0  0  0
 26 28  1  0  0  0  0
M  END
$$$$
default_name
  -OEChem-02102213163D

 31 30  0     1  0  0  0  0  0999 V2000
   -3.0760   -3.6390    1.5496 H   0  0  0  0  0  0  0  0  0  0  0  0
   -3.0940   -2.6290    1.1426 C   0  0  0  0  0  0  0  0  0  0  0  0
   -3.7160   -1.9930    1.7706 H   0  0  0  0  0  0  0  0  0  0  0  0
   -3.4880   -2.6500    0.1286 H   0  0  0  0  0  0  0  0  0  0  0  0
   -1.6860   -2.0850    1.1196 C   0  0  0  0  0  0  0  0  0  0  0  0
   -0.7540   -2.7700    1.5226 O   0  0  0  0  0  0  0  0  0  0  0  0
   -1.5320   -0.8490    0.6496 N   0  0  0  0  0  0  0  0  0  0  0  0
   -2.3500   -0.3360    0.3566 H   0  0  0  0  0  0  0  0  0  0  0  0
   -0.2470   -0.1410    0.5576 C   0  0  1  0  0  0  0  0  0  0  0  0
    0.4572   -0.6505    1.2162 H   0  0  0  0  0  0  0  0  0  0  0  0
    0.3091   -0.2220   -0.8868 C   0  0  1  0  0  0  0  0  0  0  0  0
    0.3533    0.7985   -1.2722 H   0  0  0  0  0  0  0  0  0  0  0  0
    1.7348   -0.8039   -0.9367 C   0  0  0  0  0  0  0  0  0  0  0  0
    1.7327   -1.8518   -0.6313 H   0  0  0  0  0  0  0  0  0  0  0  0
    2.1394   -0.7280   -1.9447 H   0  0  0  0  0  0  0  0  0  0  0  0
    2.3932   -0.2449   -0.2708 H   0  0  0  0  0  0  0  0  0  0  0  0
   -0.6450   -1.0195   -1.8040 C   0  0  0  0  0  0  0  0  0  0  0  0
   -0.5437   -0.6765   -2.8346 H   0  0  0  0  0  0  0  0  0  0  0  0
   -0.3689   -2.0732   -1.7656 H   0  0  0  0  0  0  0  0  0  0  0  0
   -2.1211   -0.9179   -1.3968 C   0  0  0  0  0  0  0  0  0  0  0  0
   -2.4822    0.1030   -1.5197 H   0  0  0  0  0  0  0  0  0  0  0  0
   -2.7154   -1.5746   -2.0326 H   0  0  0  0  0  0  0  0  0  0  0  0
   -2.2435   -1.2252   -0.3576 H   0  0  0  0  0  0  0  0  0  0  0  0
   -0.3971    1.3008    1.0689 C   0  0  0  0  0  0  0  0  0  0  0  0
   -1.3643    1.9819    0.7311 O   0  0  0  0  0  0  0  0  0  0  0  0
    0.5522    1.7647    1.8915 N   0  0  0  0  0  0  0  0  0  0  0  0
    1.3093    1.1450    2.1332 H   0  0  0  0  0  0  0  0  0  0  0  0
    0.5577    3.1119    2.4582 C   0  0  0  0  0  0  0  0  0  0  0  0
   -0.3986    3.3098    2.9475 H   0  0  0  0  0  0  0  0  0  0  0  0
    1.3619    3.2123    3.1886 H   0  0  0  0  0  0  0  0  0  0  0  0
    0.6974    3.8450    1.6614 H   0  0  0  0  0  0  0  0  0  0  0  0
  5  6  2  0  0  0  0
  5  7  1  0  0  0  0
  2  3  1  0  0  0  0
  2  4  1  0  0  0  0
  2  5  1  0  0  0  0
  1  2  1  0  0  0  0
 24 25  2  0  0  0  0
 24 26  1  0  0  0  0
 20 21  1  0  0  0  0
 20 22  1  0  0  0  0
 20 23  1  0  0  0  0
 17 18  1  0  0  0  0
 17 19  1  0  0  0  0
 17 20  1  0  0  0  0
 13 14  1  0  0  0  0
 13 15  1  0  0  0  0
 13 16  1  0  0  0  0
 11 12  1  0  0  0  0
 11 13  1  0  0  0  0
 11 17  1  0  0  0  0
  9 10  1  0  0  0  0
  9 11  1  0  0  0  0
  9 24  1  0  0  0  0
  7  8  1  0  0  0  0
  7  9  1  0  0  0  0
 28 29  1  0  0  0  0
 28 30  1  0  0  0  0
 28 31  1  0  0  0  0
 26 27  1  0  0  0  0
 26 28  1  0  0  0  0
M  END
$$$$
default_name
  -OEChem-02102213163D

 31 30  0     1  0  0  0  0  0999 V2000
   -3.0760   -3.6390    1.5496 H   0  0  0  0  0  0  0  0  0  0  0  0
   -3.0940   -2.6290    1.1426 C   0  0  0  0  0  0  0  0  0  0  0  0
   -3.7160   -1.9930    1.7706 H   0  0  0  0  0  0  0  0  0  0  0  0
   -3.4880   -2.6500    0.1286 H   0  0  0  0  0  0  0  0  0  0  0  0
   -1.6860   -2.0850    1.1196 C   0  0  0  0  0  0  0  0  0  0  0  0
   -0.7540   -2.7700    1.5226 O   0  0  0  0  0  0  0  0  0  0  0  0
   -1.5320   -0.8490    0.6496 N   0  0  0  0  0  0  0  0  0  0  0  0
   -2.3500   -0.3360    0.3566 H   0  0  0  0  0  0  0  0  0  0  0  0
   -0.2470   -0.1410    0.5576 C   0  0  1  0  0  0  0  0  0  0  0  0
    0.4572   -0.6505    1.2162 H   0  0  0  0  0  0  0  0  0  0  0  0
    0.3091   -0.2220   -0.8868 C   0  0  1  0  0  0  0  0  0  0  0  0
    0.3533    0.7985   -1.2722 H   0  0  0  0  0  0  0  0  0  0  0  0
    1.7348   -0.8039   -0.9367 C   0  0  0  0  0  0  0  0  0  0  0  0
    1.7327   -1.8518   -0.6313 H   0  0  0  0  0  0  0  0  0  0  0  0
    2.1394   -0.7280   -1.9447 H   0  0  0  0  0  0  0  0  0  0  0  0
    2.3932   -0.2449   -0.2708 H   0  0  0  0  0  0  0  0  0  0  0  0
   -0.6450   -1.0195   -1.8040 C   0  0  0  0  0  0  0  0  0  0  0  0
   -0.3646   -0.8750   -2.8483 H   0  0  0  0  0  0  0  0  0  0  0  0
   -0.5527   -2.0798   -1.5688 H   0  0  0  0  0  0  0  0  0  0  0  0
   -2.1226   -0.6404   -1.6366 C   0  0  0  0  0  0  0  0  0  0  0  0
   -2.2932    0.3857   -1.9620 H   0  0  0  0  0  0  0  0  0  0  0  0
   -2.7354   -1.3040   -2.2471 H   0  0  0  0  0  0  0  0  0  0  0  0
   -2.4187   -0.7455   -0.5923 H   0  0  0  0  0  0  0  0  0  0  0  0
   -0.3971    1.3008    1.0689 C   0  0  0  0  0  0  0  0  0  0  0  0
   -1.3643    1.9819    0.7311 O   0  0  0  0  0  0  0  0  0  0  0  0
    0.5522    1.7647    1.8915 N   0  0  0  0  0  0  0  0  0  0  0  0
    1.3093    1.1450    2.1332 H   0  0  0  0  0  0  0  0  0  0  0  0
    0.5577    3.1119    2.4582 C   0  0  0  0  0  0  0  0  0  0  0  0
   -0.3986    3.3098    2.9475 H   0  0  0  0  0  0  0  0  0  0  0  0
    1.3619    3.2123    3.1886 H   0  0  0  0  0  0  0  0  0  0  0  0
    0.6974    3.8450    1.6614 H   0  0  0  0  0  0  0  0  0  0  0  0
  5  6  2  0  0  0  0
  5  7  1  0  0  0  0
  2  3  1  0  0  0  0
  2  4  1  0  0  0  0
  2  5  1  0  0  0  0
  1  2  1  0  0  0  0
 24 25  2  0  0  0  0
 24 26  1  0  0  0  0
 20 21  1  0  0  0  0
 20 22  1  0  0  0  0
 20 23  1  0  0  0  0
 17 18  1  0  0  0  0
 17 19  1  0  0  0  0
 17 20  1  0  0  0  0
 13 14  1  0  0  0  0
 13 15  1  0  0  0  0
 13 16  1  0  0  0  0
 11 12  1  0  0  0  0
 11 13  1  0  0  0  0
 11 17  1  0  0  0  0
  9 10  1  0  0  0  0
  9 11  1  0  0  0  0
  9 24  1  0  0  0  0
  7  8  1  0  0  0  0
  7  9  1  0  0  0  0
 28 29  1  0  0  0  0
 28 30  1  0  0  0  0
 28 31  1  0  0  0  0
 26 27  1  0  0  0  0
 26 28  1  0  0  0  0
M  END
$$$$
default_name
  -OEChem-02102213163D

 31 30  0     1  0  0  0  0  0999 V2000
   -3.0760   -3.6390    1.5496 H   0  0  0  0  0  0  0  0  0  0  0  0
   -3.0940   -2.6290    1.1426 C   0  0  0  0  0  0  0  0  0  0  0  0
   -3.7160   -1.9930    1.7706 H   0  0  0  0  0  0  0  0  0  0  0  0
   -3.4880   -2.6500    0.1286 H   0  0  0  0  0  0  0  0  0  0  0  0
   -1.6860   -2.0850    1.1196 C   0  0  0  0  0  0  0  0  0  0  0  0
   -0.7540   -2.7700    1.5226 O   0  0  0  0  0  0  0  0  0  0  0  0
   -1.5320   -0.8490    0.6496 N   0  0  0  0  0  0  0  0  0  0  0  0
   -2.3500   -0.3360    0.3566 H   0  0  0  0  0  0  0  0  0  0  0  0
   -0.2470   -0.1410    0.5576 C   0  0  1  0  0  0  0  0  0  0  0  0
    0.4572   -0.6505    1.2162 H   0  0  0  0  0  0  0  0  0  0  0  0
    0.3091   -0.2220   -0.8868 C   0  0  1  0  0  0  0  0  0  0  0  0
    0.3533    0.7985   -1.2722 H   0  0  0  0  0  0  0  0  0  0  0  0
    1.7348   -0.8039   -0.9367 C   0  0  0  0  0  0  0  0  0  0  0  0
    1.7327   -1.8518   -0.6313 H   0  0  0  0  0  0  0  0  0  0  0  0
    2.1394   -0.7280   -1.9447 H   0  0  0  0  0  0  0  0  0  0  0  0
    2.3932   -0.2449   -0.2708 H   0  0  0  0  0  0  0  0  0  0  0  0
   -0.6450   -1.0195   -1.8040 C   0  0  0  0  0  0  0  0  0  0  0  0
   -0.2203   -1.0964   -2.8059 H   0  0  0  0  0  0  0  0  0  0  0  0
   -0.7576   -2.0264   -1.4021 H   0  0  0  0  0  0  0  0  0  0  0  0
   -2.0494   -0.4104   -1.9128 C   0  0  0  0  0  0  0  0  0  0  0  0
   -2.0082    0.5590   -2.4092 H   0  0  0  0  0  0  0  0  0  0  0  0
   -2.6845   -1.0739   -2.5001 H   0  0  0  0  0  0  0  0  0  0  0  0
   -2.4830   -0.2928   -0.9191 H   0  0  0  0  0  0  0  0  0  0  0  0
   -0.3971    1.3008    1.0689 C   0  0  0  0  0  0  0  0  0  0  0  0
   -1.3643    1.9819    0.7311 O   0  0  0  0  0  0  0  0  0  0  0  0
    0.5522    1.7647    1.8915 N   0  0  0  0  0  0  0  0  0  0  0  0
    1.3093    1.1450    2.1332 H   0  0  0  0  0  0  0  0  0  0  0  0
    0.5577    3.1119    2.4582 C   0  0  0  0  0  0  0  0  0  0  0  0
   -0.3986    3.3098    2.9475 H   0  0  0  0  0  0  0  0  0  0  0  0
    1.3619    3.2123    3.1886 H   0  0  0  0  0  0  0  0  0  0  0  0
    0.6974    3.8450    1.6614 H   0  0  0  0  0  0  0  0  0  0  0  0
  5  6  2  0  0  0  0
  5  7  1  0  0  0  0
  2  3  1  0  0  0  0
  2  4  1  0  0  0  0
  2  5  1  0  0  0  0
  1  2  1  0  0  0  0
 24 25  2  0  0  0  0
 24 26  1  0  0  0  0
 20 21  1  0  0  0  0
 20 22  1  0  0  0  0
 20 23  1  0  0  0  0
 17 18  1  0  0  0  0
 17 19  1  0  0  0  0
 17 20  1  0  0  0  0
 13 14  1  0  0  0  0
 13 15  1  0  0  0  0
 13 16  1  0  0  0  0
 11 12  1  0  0  0  0
 11 13  1  0  0  0  0
 11 17  1  0  0  0  0
  9 10  1  0  0  0  0
  9 11  1  0  0  0  0
  9 24  1  0  0  0  0
  7  8  1  0  0  0  0
  7  9  1  0  0  0  0
 28 29  1  0  0  0  0
 28 30  1  0  0  0  0
 28 31  1  0  0  0  0
 26 27  1  0  0  0  0
 26 28  1  0  0  0  0
M  END
$$$$
default_name
  -OEChem-02102213163D

 31 30  0     1  0  0  0  0  0999 V2000
   -3.0760   -3.6390    1.5496 H   0  0  0  0  0  0  0  0  0  0  0  0
   -3.0940   -2.6290    1.1426 C   0  0  0  0  0  0  0  0  0  0  0  0
   -3.7160   -1.9930    1.7706 H   0  0  0  0  0  0  0  0  0  0  0  0
   -3.4880   -2.6500    0.1286 H   0  0  0  0  0  0  0  0  0  0  0  0
   -1.6860   -2.0850    1.1196 C   0  0  0  0  0  0  0  0  0  0  0  0
   -0.7540   -2.7700    1.5226 O   0  0  0  0  0  0  0  0  0  0  0  0
   -1.5320   -0.8490    0.6496 N   0  0  0  0  0  0  0  0  0  0  0  0
   -2.3500   -0.3360    0.3566 H   0  0  0  0  0  0  0  0  0  0  0  0
   -0.2470   -0.1410    0.5576 C   0  0  1  0  0  0  0  0  0  0  0  0
    0.4572   -0.6505    1.2162 H   0  0  0  0  0  0  0  0  0  0  0  0
    0.3091   -0.2220   -0.8868 C   0  0  1  0  0  0  0  0  0  0  0  0
    0.3533    0.7985   -1.2722 H   0  0  0  0  0  0  0  0  0  0  0  0
    1.7348   -0.8039   -0.9367 C   0  0  0  0  0  0  0  0  0  0  0  0
    1.7327   -1.8518   -0.6313 H   0  0  0  0  0  0  0  0  0  0  0  0
    2.1394   -0.7280   -1.9447 H   0  0  0  0  0  0  0  0  0  0  0  0
    2.3932   -0.2449   -0.2708 H   0  0  0  0  0  0  0  0  0  0  0  0
   -0.6450   -1.0195   -1.8040 C   0  0  0  0  0  0  0  0  0  0  0  0
   -0.1206   -1.3257   -2.7102 H   0  0  0  0  0  0  0  0  0  0  0  0
   -0.9695   -1.9167   -1.2770 H   0  0  0  0  0  0  0  0  0  0  0  0
   -1.9064   -0.2436   -2.2065 C   0  0  0  0  0  0  0  0  0  0  0  0
   -1.6465    0.6111   -2.8308 H   0  0  0  0  0  0  0  0  0  0  0  0
   -2.5661   -0.8999   -2.7746 H   0  0  0  0  0  0  0  0  0  0  0  0
   -2.4319    0.1021   -1.3157 H   0  0  0  0  0  0  0  0  0  0  0  0
   -0.3971    1.3008    1.0689 C   0  0  0  0  0  0  0  0  0  0  0  0
   -1.3643    1.9819    0.7311 O   0  0  0  0  0  0  0  0  0  0  0  0
    0.5522    1.7647    1.8915 N   0  0  0  0  0  0  0  0  0  0  0  0
    1.3093    1.1450    2.1332 H   0  0  0  0  0  0  0  0  0  0  0  0
    0.5577    3.1119    2.4582 C   0  0  0  0  0  0  0  0  0  0  0  0
   -0.3986    3.3098    2.9475 H   0  0  0  0  0  0  0  0  0  0  0  0
    1.3619    3.2123    3.1886 H   0  0  0  0  0  0  0  0  0  0  0  0
    0.6974    3.8450    1.6614 H   0  0  0  0  0  0  0  0  0  0  0  0
  5  6  2  0  0  0  0
  5  7  1  0  0  0  0
  2  3  1  0  0  0  0
  2  4  1  0  0  0  0
  2  5  1  0  0  0  0
  1  2  1  0  0  0  0
 24 25  2  0  0  0  0
 24 26  1  0  0  0  0
 20 21  1  0  0  0  0
 20 22  1  0  0  0  0
 20 23  1  0  0  0  0
 17 18  1  0  0  0  0
 17 19  1  0  0  0  0
 17 20  1  0  0  0  0
 13 14  1  0  0  0  0
 13 15  1  0  0  0  0
 13 16  1  0  0  0  0
 11 12  1  0  0  0  0
 11 13  1  0  0  0  0
 11 17  1  0  0  0  0
  9 10  1  0  0  0  0
  9 11  1  0  0  0  0
  9 24  1  0  0  0  0
  7  8  1  0  0  0  0
  7  9  1  0  0  0  0
 28 29  1  0  0  0  0
 28 30  1  0  0  0  0
 28 31  1  0  0  0  0
 26 27  1  0  0  0  0
 26 28  1  0  0  0  0
M  END
$$$$
default_name
  -OEChem-02102213163D

 31 30  0     1  0  0  0  0  0999 V2000
   -3.0760   -3.6390    1.5496 H   0  0  0  0  0  0  0  0  0  0  0  0
   -3.0940   -2.6290    1.1426 C   0  0  0  0  0  0  0  0  0  0  0  0
   -3.7160   -1.9930    1.7706 H   0  0  0  0  0  0  0  0  0  0  0  0
   -3.4880   -2.6500    0.1286 H   0  0  0  0  0  0  0  0  0  0  0  0
   -1.6860   -2.0850    1.1196 C   0  0  0  0  0  0  0  0  0  0  0  0
   -0.7540   -2.7700    1.5226 O   0  0  0  0  0  0  0  0  0  0  0  0
   -1.5320   -0.8490    0.6496 N   0  0  0  0  0  0  0  0  0  0  0  0
   -2.3500   -0.3360    0.3566 H   0  0  0  0  0  0  0  0  0  0  0  0
   -0.2470   -0.1410    0.5576 C   0  0  1  0  0  0  0  0  0  0  0  0
    0.4572   -0.6505    1.2162 H   0  0  0  0  0  0  0  0  0  0  0  0
    0.3091   -0.2220   -0.8868 C   0  0  1  0  0  0  0  0  0  0  0  0
    0.3533    0.7985   -1.2722 H   0  0  0  0  0  0  0  0  0  0  0  0
    1.7348   -0.8039   -0.9367 C   0  0  0  0  0  0  0  0  0  0  0  0
    1.7327   -1.8518   -0.6313 H   0  0  0  0  0  0  0  0  0  0  0  0
    2.1394   -0.7280   -1.9447 H   0  0  0  0  0  0  0  0  0  0  0  0
    2.3932   -0.2449   -0.2708 H   0  0  0  0  0  0  0  0  0  0  0  0
   -0.6450   -1.0195   -1.8040 C   0  0  0  0  0  0  0  0  0  0  0  0
   -0.0723   -1.5472   -2.5679 H   0  0  0  0  0  0  0  0  0  0  0  0
   -1.1740   -1.7582   -1.2021 H   0  0  0  0  0  0  0  0  0  0  0  0
   -1.7034   -0.1514   -2.4978 C   0  0  0  0  0  0  0  0  0  0  0  0
   -1.2329    0.5386   -3.1980 H   0  0  0  0  0  0  0  0  0  0  0  0
   -2.3884   -0.7938   -3.0517 H   0  0  0  0  0  0  0  0  0  0  0  0
   -2.2689    0.4123   -1.7550 H   0  0  0  0  0  0  0  0  0  0  0  0
   -0.3971    1.3008    1.0689 C   0  0  0  0  0  0  0  0  0  0  0  0
   -1.3643    1.9819    0.7311 O   0  0  0  0  0  0  0  0  0  0  0  0
    0.5522    1.7647    1.8915 N   0  0  0  0  0  0  0  0  0  0  0  0
    1.3093    1.1450    2.1332 H   0  0  0  0  0  0  0  0  0  0  0  0
    0.5577    3.1119    2.4582 C   0  0  0  0  0  0  0  0  0  0  0  0
   -0.3986    3.3098    2.9475 H   0  0  0  0  0  0  0  0  0  0  0  0
    1.3619    3.2123    3.1886 H   0  0  0  0  0  0  0  0  0  0  0  0
    0.6974    3.8450    1.6614 H   0  0  0  0  0  0  0  0  0  0  0  0
  5  6  2  0  0  0  0
  5  7  1  0  0  0  0
  2  3  1  0  0  0  0
  2  4  1  0  0  0  0
  2  5  1  0  0  0  0
  1  2  1  0  0  0  0
 24 25  2  0  0  0  0
 24 26  1  0  0  0  0
 20 21  1  0  0  0  0
 20 22  1  0  0  0  0
 20 23  1  0  0  0  0
 17 18  1  0  0  0  0
 17 19  1  0  0  0  0
 17 20  1  0  0  0  0
 13 14  1  0  0  0  0
 13 15  1  0  0  0  0
 13 16  1  0  0  0  0
 11 12  1  0  0  0  0
 11 13  1  0  0  0  0
 11 17  1  0  0  0  0
  9 10  1  0  0  0  0
  9 11  1  0  0  0  0
  9 24  1  0  0  0  0
  7  8  1  0  0  0  0
  7  9  1  0  0  0  0
 28 29  1  0  0  0  0
 28 30  1  0  0  0  0
 28 31  1  0  0  0  0
 26 27  1  0  0  0  0
 26 28  1  0  0  0  0
M  END
$$$$
default_name
  -OEChem-02102213163D

 31 30  0     1  0  0  0  0  0999 V2000
   -3.0760   -3.6390    1.5496 H   0  0  0  0  0  0  0  0  0  0  0  0
   -3.0940   -2.6290    1.1426 C   0  0  0  0  0  0  0  0  0  0  0  0
   -3.7160   -1.9930    1.7706 H   0  0  0  0  0  0  0  0  0  0  0  0
   -3.4880   -2.6500    0.1286 H   0  0  0  0  0  0  0  0  0  0  0  0
   -1.6860   -2.0850    1.1196 C   0  0  0  0  0  0  0  0  0  0  0  0
   -0.7540   -2.7700    1.5226 O   0  0  0  0  0  0  0  0  0  0  0  0
   -1.5320   -0.8490    0.6496 N   0  0  0  0  0  0  0  0  0  0  0  0
   -2.3500   -0.3360    0.3566 H   0  0  0  0  0  0  0  0  0  0  0  0
   -0.2470   -0.1410    0.5576 C   0  0  1  0  0  0  0  0  0  0  0  0
    0.4572   -0.6505    1.2162 H   0  0  0  0  0  0  0  0  0  0  0  0
    0.3091   -0.2220   -0.8868 C   0  0  1  0  0  0  0  0  0  0  0  0
    0.3533    0.7985   -1.2722 H   0  0  0  0  0  0  0  0  0  0  0  0
    1.7348   -0.8039   -0.9367 C   0  0  0  0  0  0  0  0  0  0  0  0
    1.7327   -1.8518   -0.6313 H   0  0  0  0  0  0  0  0  0  0  0  0
    2.1394   -0.7280   -1.9447 H   0  0  0  0  0  0  0  0  0  0  0  0
    2.3932   -0.2449   -0.2708 H   0  0  0  0  0  0  0  0  0  0  0  0
   -0.6450   -1.0195   -1.8040 C   0  0  0  0  0  0  0  0  0  0  0  0
   -0.0786   -1.7458   -2.3886 H   0  0  0  0  0  0  0  0  0  0  0  0
   -1.3573   -1.5617   -1.1823 H   0  0  0  0  0  0  0  0  0  0  0  0
   -1.4543   -0.1401   -2.7668 C   0  0  0  0  0  0  0  0  0  0  0  0
   -0.7954    0.3462   -3.4859 H   0  0  0  0  0  0  0  0  0  0  0  0
   -2.1635   -0.7629   -3.3125 H   0  0  0  0  0  0  0  0  0  0  0  0
   -2.0051    0.6167   -2.2072 H   0  0  0  0  0  0  0  0  0  0  0  0
   -0.3971    1.3008    1.0689 C   0  0  0  0  0  0  0  0  0  0  0  0
   -1.3643    1.9819    0.7311 O   0  0  0  0  0  0  0  0  0  0  0  0
    0.5522    1.7647    1.8915 N   0  0  0  0  0  0  0  0  0  0  0  0
    1.3093    1.1450    2.1332 H   0  0  0  0  0  0  0  0  0  0  0  0
    0.5577    3.1119    2.4582 C   0  0  0  0  0  0  0  0  0  0  0  0
   -0.3986    3.3098    2.9475 H   0  0  0  0  0  0  0  0  0  0  0  0
    1.3619    3.2123    3.1886 H   0  0  0  0  0  0  0  0  0  0  0  0
    0.6974    3.8450    1.6614 H   0  0  0  0  0  0  0  0  0  0  0  0
  5  6  2  0  0  0  0
  5  7  1  0  0  0  0
  2  3  1  0  0  0  0
  2  4  1  0  0  0  0
  2  5  1  0  0  0  0
  1  2  1  0  0  0  0
 24 25  2  0  0  0  0
 24 26  1  0  0  0  0
 20 21  1  0  0  0  0
 20 22  1  0  0  0  0
 20 23  1  0  0  0  0
 17 18  1  0  0  0  0
 17 19  1  0  0  0  0
 17 20  1  0  0  0  0
 13 14  1  0  0  0  0
 13 15  1  0  0  0  0
 13 16  1  0  0  0  0
 11 12  1  0  0  0  0
 11 13  1  0  0  0  0
 11 17  1  0  0  0  0
  9 10  1  0  0  0  0
  9 11  1  0  0  0  0
  9 24  1  0  0  0  0
  7  8  1  0  0  0  0
  7  9  1  0  0  0  0
 28 29  1  0  0  0  0
 28 30  1  0  0  0  0
 28 31  1  0  0  0  0
 26 27  1  0  0  0  0
 26 28  1  0  0  0  0
M  END
$$$$
default_name
  -OEChem-02102213163D

 31 30  0     1  0  0  0  0  0999 V2000
   -3.0760   -3.6390    1.5496 H   0  0  0  0  0  0  0  0  0  0  0  0
   -3.0940   -2.6290    1.1426 C   0  0  0  0  0  0  0  0  0  0  0  0
   -3.7160   -1.9930    1.7706 H   0  0  0  0  0  0  0  0  0  0  0  0
   -3.4880   -2.6500    0.1286 H   0  0  0  0  0  0  0  0  0  0  0  0
   -1.6860   -2.0850    1.1196 C   0  0  0  0  0  0  0  0  0  0  0  0
   -0.7540   -2.7700    1.5226 O   0  0  0  0  0  0  0  0  0  0  0  0
   -1.5320   -0.8490    0.6496 N   0  0  0  0  0  0  0  0  0  0  0  0
   -2.3500   -0.3360    0.3566 H   0  0  0  0  0  0  0  0  0  0  0  0
   -0.2470   -0.1410    0.5576 C   0  0  1  0  0  0  0  0  0  0  0  0
    0.4572   -0.6505    1.2162 H   0  0  0  0  0  0  0  0  0  0  0  0
    0.3091   -0.2220   -0.8868 C   0  0  1  0  0  0  0  0  0  0  0  0
    0.3533    0.7985   -1.2722 H   0  0  0  0  0  0  0  0  0  0  0  0
    1.7348   -0.8039   -0.9367 C   0  0  0  0  0  0  0  0  0  0  0  0
    1.7327   -1.8518   -0.6313 H   0  0  0  0  0  0  0  0  0  0  0  0
    2.1394   -0.7280   -1.9447 H   0  0  0  0  0  0  0  0  0  0  0  0
    2.3932   -0.2449   -0.2708 H   0  0  0  0  0  0  0  0  0  0  0  0
   -0.6450   -1.0195   -1.8040 C   0  0  0  0  0  0  0  0  0  0  0  0
   -0.1393   -1.9080   -2.1845 H   0  0  0  0  0  0  0  0  0  0  0  0
   -1.5068   -1.3406   -1.2191 H   0  0  0  0  0  0  0  0  0  0  0  0
   -1.1760   -0.2105   -2.9951 C   0  0  0  0  0  0  0  0  0  0  0  0
   -0.3639    0.0472   -3.6747 H   0  0  0  0  0  0  0  0  0  0  0  0
   -1.9066   -0.8094   -3.5394 H   0  0  0  0  0  0  0  0  0  0  0  0
   -1.6584    0.7014   -2.6414 H   0  0  0  0  0  0  0  0  0  0  0  0
   -0.3971    1.3008    1.0689 C   0  0  0  0  0  0  0  0  0  0  0  0
   -1.3643    1.9819    0.7311 O   0  0  0  0  0  0  0  0  0  0  0  0
    0.5522    1.7647    1.8915 N   0  0  0  0  0  0  0  0  0  0  0  0
    1.3093    1.1450    2.1332 H   0  0  0  0  0  0  0  0  0  0  0  0
    0.5577    3.1119    2.4582 C   0  0  0  0  0  0  0  0  0  0  0  0
   -0.3986    3.3098    2.9475 H   0  0  0  0  0  0  0  0  0  0  0  0
    1.3619    3.2123    3.1886 H   0  0  0  0  0  0  0  0  0  0  0  0
    0.6974    3.8450    1.6614 H   0  0  0  0  0  0  0  0  0  0  0  0
  5  6  2  0  0  0  0
  5  7  1  0  0  0  0
  2  3  1  0  0  0  0
  2  4  1  0  0  0  0
  2  5  1  0  0  0  0
  1  2  1  0  0  0  0
 24 25  2  0  0  0  0
 24 26  1  0  0  0  0
 20 21  1  0  0  0  0
 20 22  1  0  0  0  0
 20 23  1  0  0  0  0
 17 18  1  0  0  0  0
 17 19  1  0  0  0  0
 17 20  1  0  0  0  0
 13 14  1  0  0  0  0
 13 15  1  0  0  0  0
 13 16  1  0  0  0  0
 11 12  1  0  0  0  0
 11 13  1  0  0  0  0
 11 17  1  0  0  0  0
  9 10  1  0  0  0  0
  9 11  1  0  0  0  0
  9 24  1  0  0  0  0
  7  8  1  0  0  0  0
  7  9  1  0  0  0  0
 28 29  1  0  0  0  0
 28 30  1  0  0  0  0
 28 31  1  0  0  0  0
 26 27  1  0  0  0  0
 26 28  1  0  0  0  0
M  END
$$$$
default_name
  -OEChem-02102213163D

 31 30  0     1  0  0  0  0  0999 V2000
   -3.0760   -3.6390    1.5496 H   0  0  0  0  0  0  0  0  0  0  0  0
   -3.0940   -2.6290    1.1426 C   0  0  0  0  0  0  0  0  0  0  0  0
   -3.7160   -1.9930    1.7706 H   0  0  0  0  0  0  0  0  0  0  0  0
   -3.4880   -2.6500    0.1286 H   0  0  0  0  0  0  0  0  0  0  0  0
   -1.6860   -2.0850    1.1196 C   0  0  0  0  0  0  0  0  0  0  0  0
   -0.7540   -2.7700    1.5226 O   0  0  0  0  0  0  0  0  0  0  0  0
   -1.5320   -0.8490    0.6496 N   0  0  0  0  0  0  0  0  0  0  0  0
   -2.3500   -0.3360    0.3566 H   0  0  0  0  0  0  0  0  0  0  0  0
   -0.2470   -0.1410    0.5576 C   0  0  1  0  0  0  0  0  0  0  0  0
    0.4572   -0.6505    1.2162 H   0  0  0  0  0  0  0  0  0  0  0  0
    0.3091   -0.2220   -0.8868 C   0  0  1  0  0  0  0  0  0  0  0  0
    0.3533    0.7985   -1.2722 H   0  0  0  0  0  0  0  0  0  0  0  0
    1.7348   -0.8039   -0.9367 C   0  0  0  0  0  0  0  0  0  0  0  0
    1.7327   -1.8518   -0.6313 H   0  0  0  0  0  0  0  0  0  0  0  0
    2.1394   -0.7280   -1.9447 H   0  0  0  0  0  0  0  0  0  0  0  0
    2.3932   -0.2449   -0.2708 H   0  0  0  0  0  0  0  0  0  0  0  0
   -0.6450   -1.0195   -1.8040 C   0  0  0  0  0  0  0  0  0  0  0  0
   -0.2500   -2.0228   -1.9695 H   0  0  0  0  0  0  0  0  0  0  0  0
   -1.6122   -1.1100   -1.3099 H   0  0  0  0  0  0  0  0  0  0  0  0
   -0.8875   -0.3577   -3.1673 C   0  0  0  0  0  0  0  0  0  0  0  0
    0.0322   -0.3380   -3.7517 H   0  0  0  0  0  0  0  0  0  0  0  0
   -1.6353   -0.9299   -3.7168 H   0  0  0  0  0  0  0  0  0  0  0  0
   -1.2526    0.6605   -3.0280 H   0  0  0  0  0  0  0  0  0  0  0  0
   -0.3971    1.3008    1.0689 C   0  0  0  0  0  0  0  0  0  0  0  0
   -1.3643    1.9819    0.7311 O   0  0  0  0  0  0  0  0  0  0  0  0
    0.5522    1.7647    1.8915 N   0  0  0  0  0  0  0  0  0  0  0  0
    1.3093    1.1450    2.1332 H   0  0  0  0  0  0  0  0  0  0  0  0
    0.5577    3.1119    2.4582 C   0  0  0  0  0  0  0  0  0  0  0  0
   -0.3986    3.3098    2.9475 H   0  0  0  0  0  0  0  0  0  0  0  0
    1.3619    3.2123    3.1886 H   0  0  0  0  0  0  0  0  0  0  0  0
    0.6974    3.8450    1.6614 H   0  0  0  0  0  0  0  0  0  0  0  0
  5  6  2  0  0  0  0
  5  7  1  0  0  0  0
  2  3  1  0  0  0  0
  2  4  1  0  0  0  0
  2  5  1  0  0  0  0
  1  2  1  0  0  0  0
 24 25  2  0  0  0  0
 24 26  1  0  0  0  0
 20 21  1  0  0  0  0
 20 22  1  0  0  0  0
 20 23  1  0  0  0  0
 17 18  1  0  0  0  0
 17 19  1  0  0  0  0
 17 20  1  0  0  0  0
 13 14  1  0  0  0  0
 13 15  1  0  0  0  0
 13 16  1  0  0  0  0
 11 12  1  0  0  0  0
 11 13  1  0  0  0  0
 11 17  1  0  0  0  0
  9 10  1  0  0  0  0
  9 11  1  0  0  0  0
  9 24  1  0  0  0  0
  7  8  1  0  0  0  0
  7  9  1  0  0  0  0
 28 29  1  0  0  0  0
 28 30  1  0  0  0  0
 28 31  1  0  0  0  0
 26 27  1  0  0  0  0
 26 28  1  0  0  0  0
M  END
$$$$
default_name
  -OEChem-02102213163D

 31 30  0     1  0  0  0  0  0999 V2000
   -3.0760   -3.6390    1.5496 H   0  0  0  0  0  0  0  0  0  0  0  0
   -3.0940   -2.6290    1.1426 C   0  0  0  0  0  0  0  0  0  0  0  0
   -3.7160   -1.9930    1.7706 H   0  0  0  0  0  0  0  0  0  0  0  0
   -3.4880   -2.6500    0.1286 H   0  0  0  0  0  0  0  0  0  0  0  0
   -1.6860   -2.0850    1.1196 C   0  0  0  0  0  0  0  0  0  0  0  0
   -0.7540   -2.7700    1.5226 O   0  0  0  0  0  0  0  0  0  0  0  0
   -1.5320   -0.8490    0.6496 N   0  0  0  0  0  0  0  0  0  0  0  0
   -2.3500   -0.3360    0.3566 H   0  0  0  0  0  0  0  0  0  0  0  0
   -0.2470   -0.1410    0.5576 C   0  0  1  0  0  0  0  0  0  0  0  0
    0.4572   -0.6505    1.2162 H   0  0  0  0  0  0  0  0  0  0  0  0
    0.3091   -0.2220   -0.8868 C   0  0  1  0  0  0  0  0  0  0  0  0
    0.3533    0.7985   -1.2722 H   0  0  0  0  0  0  0  0  0  0  0  0
    1.7348   -0.8039   -0.9367 C   0  0  0  0  0  0  0  0  0  0  0  0
    1.7327   -1.8518   -0.6313 H   0  0  0  0  0  0  0  0  0  0  0  0
    2.1394   -0.7280   -1.9447 H   0  0  0  0  0  0  0  0  0  0  0  0
    2.3932   -0.2449   -0.2708 H   0  0  0  0  0  0  0  0  0  0  0  0
   -0.6450   -1.0195   -1.8040 C   0  0  0  0  0  0  0  0  0  0  0  0
   -0.4033   -2.0822   -1.7583 H   0  0  0  0  0  0  0  0  0  0  0  0
   -1.6666   -0.8855   -1.4486 H   0  0  0  0  0  0  0  0  0  0  0  0
   -0.6084   -0.5717   -3.2715 C   0  0  0  0  0  0  0  0  0  0  0  0
    0.3659   -0.7833   -3.7116 H   0  0  0  0  0  0  0  0  0  0  0  0
   -1.3680   -1.1164   -3.8326 H   0  0  0  0  0  0  0  0  0  0  0  0
   -0.8152    0.4969   -3.3407 H   0  0  0  0  0  0  0  0  0  0  0  0
   -0.3971    1.3008    1.0689 C   0  0  0  0  0  0  0  0  0  0  0  0
   -1.3643    1.9819    0.7311 O   0  0  0  0  0  0  0  0  0  0  0  0
    0.5522    1.7647    1.8915 N   0  0  0  0  0  0  0  0  0  0  0  0
    1.3093    1.1450    2.1332 H   0  0  0  0  0  0  0  0  0  0  0  0
    0.5577    3.1119    2.4582 C   0  0  0  0  0  0  0  0  0  0  0  0
   -0.3986    3.3098    2.9475 H   0  0  0  0  0  0  0  0  0  0  0  0
    1.3619    3.2123    3.1886 H   0  0  0  0  0  0  0  0  0  0  0  0
    0.6974    3.8450    1.6614 H   0  0  0  0  0  0  0  0  0  0  0  0
  5  6  2  0  0  0  0
  5  7  1  0  0  0  0
  2  3  1  0  0  0  0
  2  4  1  0  0  0  0
  2  5  1  0  0  0  0
  1  2  1  0  0  0  0
 24 25  2  0  0  0  0
 24 26  1  0  0  0  0
 20 21  1  0  0  0  0
 20 22  1  0  0  0  0
 20 23  1  0  0  0  0
 17 18  1  0  0  0  0
 17 19  1  0  0  0  0
 17 20  1  0  0  0  0
 13 14  1  0  0  0  0
 13 15  1  0  0  0  0
 13 16  1  0  0  0  0
 11 12  1  0  0  0  0
 11 13  1  0  0  0  0
 11 17  1  0  0  0  0
  9 10  1  0  0  0  0
  9 11  1  0  0  0  0
  9 24  1  0  0  0  0
  7  8  1  0  0  0  0
  7  9  1  0  0  0  0
 28 29  1  0  0  0  0
 28 30  1  0  0  0  0
 28 31  1  0  0  0  0
 26 27  1  0  0  0  0
 26 28  1  0  0  0  0
M  END
$$$$
default_name
  -OEChem-02102213163D

 31 30  0     1  0  0  0  0  0999 V2000
   -3.0760   -3.6390    1.5496 H   0  0  0  0  0  0  0  0  0  0  0  0
   -3.0940   -2.6290    1.1426 C   0  0  0  0  0  0  0  0  0  0  0  0
   -3.7160   -1.9930    1.7706 H   0  0  0  0  0  0  0  0  0  0  0  0
   -3.4880   -2.6500    0.1286 H   0  0  0  0  0  0  0  0  0  0  0  0
   -1.6860   -2.0850    1.1196 C   0  0  0  0  0  0  0  0  0  0  0  0
   -0.7540   -2.7700    1.5226 O   0  0  0  0  0  0  0  0  0  0  0  0
   -1.5320   -0.8490    0.6496 N   0  0  0  0  0  0  0  0  0  0  0  0
   -2.3500   -0.3360    0.3566 H   0  0  0  0  0  0  0  0  0  0  0  0
   -0.2470   -0.1410    0.5576 C   0  0  1  0  0  0  0  0  0  0  0  0
    0.4572   -0.6505    1.2162 H   0  0  0  0  0  0  0  0  0  0  0  0
    0.3091   -0.2220   -0.8868 C   0  0  1  0  0  0  0  0  0  0  0  0
    0.3533    0.7985   -1.2722 H   0  0  0  0  0  0  0  0  0  0  0  0
    1.7348   -0.8039   -0.9367 C   0  0  0  0  0  0  0  0  0  0  0  0
    1.7327   -1.8518   -0.6313 H   0  0  0  0  0  0  0  0  0  0  0  0
    2.1394   -0.7280   -1.9447 H   0  0  0  0  0  0  0  0  0  0  0  0
    2.3932   -0.2449   -0.2708 H   0  0  0  0  0  0  0  0  0  0  0  0
   -0.6450   -1.0195   -1.8040 C   0  0  0  0  0  0  0  0  0  0  0  0
   -0.5887   -2.0824   -1.5653 H   0  0  0  0  0  0  0  0  0  0  0  0
   -1.6660   -0.6824   -1.6257 H   0  0  0  0  0  0  0  0  0  0  0  0
   -0.3578   -0.8379   -3.3006 C   0  0  0  0  0  0  0  0  0  0  0  0
    0.6144   -1.2583   -3.5571 H   0  0  0  0  0  0  0  0  0  0  0  0
   -1.1231   -1.3561   -3.8790 H   0  0  0  0  0  0  0  0  0  0  0  0
   -0.3761    0.2217   -3.5581 H   0  0  0  0  0  0  0  0  0  0  0  0
   -0.3971    1.3008    1.0689 C   0  0  0  0  0  0  0  0  0  0  0  0
   -1.3643    1.9819    0.7311 O   0  0  0  0  0  0  0  0  0  0  0  0
    0.5522    1.7647    1.8915 N   0  0  0  0  0  0  0  0  0  0  0  0
    1.3093    1.1450    2.1332 H   0  0  0  0  0  0  0  0  0  0  0  0
    0.5577    3.1119    2.4582 C   0  0  0  0  0  0  0  0  0  0  0  0
   -0.3986    3.3098    2.9475 H   0  0  0  0  0  0  0  0  0  0  0  0
    1.3619    3.2123    3.1886 H   0  0  0  0  0  0  0  0  0  0  0  0
    0.6974    3.8450    1.6614 H   0  0  0  0  0  0  0  0  0  0  0  0
  5  6  2  0  0  0  0
  5  7  1  0  0  0  0
  2  3  1  0  0  0  0
  2  4  1  0  0  0  0
  2  5  1  0  0  0  0
  1  2  1  0  0  0  0
 24 25  2  0  0  0  0
 24 26  1  0  0  0  0
 20 21  1  0  0  0  0
 20 22  1  0  0  0  0
 20 23  1  0  0  0  0
 17 18  1  0  0  0  0
 17 19  1  0  0  0  0
 17 20  1  0  0  0  0
 13 14  1  0  0  0  0
 13 15  1  0  0  0  0
 13 16  1  0  0  0  0
 11 12  1  0  0  0  0
 11 13  1  0  0  0  0
 11 17  1  0  0  0  0
  9 10  1  0  0  0  0
  9 11  1  0  0  0  0
  9 24  1  0  0  0  0
  7  8  1  0  0  0  0
  7  9  1  0  0  0  0
 28 29  1  0  0  0  0
 28 30  1  0  0  0  0
 28 31  1  0  0  0  0
 26 27  1  0  0  0  0
 26 28  1  0  0  0  0
M  END
$$$$
default_name
  -OEChem-02102213163D

 31 30  0     1  0  0  0  0  0999 V2000
   -3.0760   -3.6390    1.5496 H   0  0  0  0  0  0  0  0  0  0  0  0
   -3.0940   -2.6290    1.1426 C   0  0  0  0  0  0  0  0  0  0  0  0
   -3.7160   -1.9930    1.7706 H   0  0  0  0  0  0  0  0  0  0  0  0
   -3.4880   -2.6500    0.1286 H   0  0  0  0  0  0  0  0  0  0  0  0
   -1.6860   -2.0850    1.1196 C   0  0  0  0  0  0  0  0  0  0  0  0
   -0.7540   -2.7700    1.5226 O   0  0  0  0  0  0  0  0  0  0  0  0
   -1.5320   -0.8490    0.6496 N   0  0  0  0  0  0  0  0  0  0  0  0
   -2.3500   -0.3360    0.3566 H   0  0  0  0  0  0  0  0  0  0  0  0
   -0.2470   -0.1410    0.5576 C   0  0  1  0  0  0  0  0  0  0  0  0
    0.4572   -0.6505    1.2162 H   0  0  0  0  0  0  0  0  0  0  0  0
    0.3091   -0.2220   -0.8868 C   0  0  1  0  0  0  0  0  0  0  0  0
    0.6071    0.7883   -1.1739 H   0  0  0  0  0  0  0  0  0  0  0  0
    1.5537   -1.1244   -0.9884 C   0  0  0  0  0  0  0  0  0  0  0  0
    1.2920   -2.1640   -0.7835 H   0  0  0  0  0  0  0  0  0  0  0  0
    1.9897   -1.0569   -1.9839 H   0  0  0  0  0  0  0  0  0  0  0  0
    2.3105   -0.8043   -0.2713 H   0  0  0  0  0  0  0  0  0  0  0  0
   -0.7856   -0.6780   -1.8774 C   0  0  0  0  0  0  0  0  0  0  0  0
   -1.1814   -1.6481   -1.5739 H   0  0  0  0  0  0  0  0  0  0  0  0
   -1.6006    0.0455   -1.8567 H   0  0  0  0  0  0  0  0  0  0  0  0
   -0.3005   -0.7796   -3.3298 C   0  0  0  0  0  0  0  0  0  0  0  0
    0.4447   -1.5686   -3.4297 H   0  0  0  0  0  0  0  0  0  0  0  0
   -1.1461   -1.0177   -3.9754 H   0  0  0  0  0  0  0  0  0  0  0  0
    0.1304    0.1708   -3.6465 H   0  0  0  0  0  0  0  0  0  0  0  0
   -0.3971    1.3008    1.0689 C   0  0  0  0  0  0  0  0  0  0  0  0
   -1.3643    1.9819    0.7311 O   0  0  0  0  0  0  0  0  0  0  0  0
    0.5522    1.7647    1.8915 N   0  0  0  0  0  0  0  0  0  0  0  0
    1.3093    1.1450    2.1332 H   0  0  0  0  0  0  0  0  0  0  0  0
    0.5577    3.1119    2.4582 C   0  0  0  0  0  0  0  0  0  0  0  0
   -0.3986    3.3098    2.9475 H   0  0  0  0  0  0  0  0  0  0  0  0
    1.3619    3.2123    3.1886 H   0  0  0  0  0  0  0  0  0  0  0  0
    0.6974    3.8450    1.6614 H   0  0  0  0  0  0  0  0  0  0  0  0
  5  6  2  0  0  0  0
  5  7  1  0  0  0  0
  2  3  1  0  0  0  0
  2  4  1  0  0  0  0
  2  5  1  0  0  0  0
  1  2  1  0  0  0  0
 24 25  2  0  0  0  0
 24 26  1  0  0  0  0
 20 21  1  0  0  0  0
 20 22  1  0  0  0  0
 20 23  1  0  0  0  0
 17 18  1  0  0  0  0
 17 19  1  0  0  0  0
 17 20  1  0  0  0  0
 13 14  1  0  0  0  0
 13 15  1  0  0  0  0
 13 16  1  0  0  0  0
 11 12  1  0  0  0  0
 11 13  1  0  0  0  0
 11 17  1  0  0  0  0
  9 10  1  0  0  0  0
  9 11  1  0  0  0  0
  9 24  1  0  0  0  0
  7  8  1  0  0  0  0
  7  9  1  0  0  0  0
 28 29  1  0  0  0  0
 28 30  1  0  0  0  0
 28 31  1  0  0  0  0
 26 27  1  0  0  0  0
 26 28  1  0  0  0  0
M  END
$$$$
default_name
  -OEChem-02102213163D

 31 30  0     1  0  0  0  0  0999 V2000
   -3.0760   -3.6390    1.5496 H   0  0  0  0  0  0  0  0  0  0  0  0
   -3.0940   -2.6290    1.1426 C   0  0  0  0  0  0  0  0  0  0  0  0
   -3.7160   -1.9930    1.7706 H   0  0  0  0  0  0  0  0  0  0  0  0
   -3.4880   -2.6500    0.1286 H   0  0  0  0  0  0  0  0  0  0  0  0
   -1.6860   -2.0850    1.1196 C   0  0  0  0  0  0  0  0  0  0  0  0
   -0.7540   -2.7700    1.5226 O   0  0  0  0  0  0  0  0  0  0  0  0
   -1.5320   -0.8490    0.6496 N   0  0  0  0  0  0  0  0  0  0  0  0
   -2.3500   -0.3360    0.3566 H   0  0  0  0  0  0  0  0  0  0  0  0
   -0.2470   -0.1410    0.5576 C   0  0  1  0  0  0  0  0  0  0  0  0
    0.4572   -0.6505    1.2162 H   0  0  0  0  0  0  0  0  0  0  0  0
    0.3091   -0.2220   -0.8868 C   0  0  1  0  0  0  0  0  0  0  0  0
    0.6071    0.7883   -1.1739 H   0  0  0  0  0  0  0  0  0  0  0  0
    1.5537   -1.1244   -0.9884 C   0  0  0  0  0  0  0  0  0  0  0  0
    1.2920   -2.1640   -0.7835 H   0  0  0  0  0  0  0  0  0  0  0  0
    1.9897   -1.0569   -1.9839 H   0  0  0  0  0  0  0  0  0  0  0  0
    2.3105   -0.8043   -0.2713 H   0  0  0  0  0  0  0  0  0  0  0  0
   -0.7856   -0.6780   -1.8774 C   0  0  0  0  0  0  0  0  0  0  0  0
   -1.3610   -1.4975   -1.4447 H   0  0  0  0  0  0  0  0  0  0  0  0
   -1.4628    0.1563   -2.0600 H   0  0  0  0  0  0  0  0  0  0  0  0
   -0.2378   -1.1292   -3.2381 C   0  0  0  0  0  0  0  0  0  0  0  0
    0.3642   -2.0309   -3.1279 H   0  0  0  0  0  0  0  0  0  0  0  0
   -1.0710   -1.3481   -3.9063 H   0  0  0  0  0  0  0  0  0  0  0  0
    0.3695   -0.3368   -3.6771 H   0  0  0  0  0  0  0  0  0  0  0  0
   -0.3971    1.3008    1.0689 C   0  0  0  0  0  0  0  0  0  0  0  0
   -1.3643    1.9819    0.7311 O   0  0  0  0  0  0  0  0  0  0  0  0
    0.5522    1.7647    1.8915 N   0  0  0  0  0  0  0  0  0  0  0  0
    1.3093    1.1450    2.1332 H   0  0  0  0  0  0  0  0  0  0  0  0
    0.5577    3.1119    2.4582 C   0  0  0  0  0  0  0  0  0  0  0  0
   -0.3986    3.3098    2.9475 H   0  0  0  0  0  0  0  0  0  0  0  0
    1.3619    3.2123    3.1886 H   0  0  0  0  0  0  0  0  0  0  0  0
    0.6974    3.8450    1.6614 H   0  0  0  0  0  0  0  0  0  0  0  0
  5  6  2  0  0  0  0
  5  7  1  0  0  0  0
  2  3  1  0  0  0  0
  2  4  1  0  0  0  0
  2  5  1  0  0  0  0
  1  2  1  0  0  0  0
 24 25  2  0  0  0  0
 24 26  1  0  0  0  0
 20 21  1  0  0  0  0
 20 22  1  0  0  0  0
 20 23  1  0  0  0  0
 17 18  1  0  0  0  0
 17 19  1  0  0  0  0
 17 20  1  0  0  0  0
 13 14  1  0  0  0  0
 13 15  1  0  0  0  0
 13 16  1  0  0  0  0
 11 12  1  0  0  0  0
 11 13  1  0  0  0  0
 11 17  1  0  0  0  0
  9 10  1  0  0  0  0
  9 11  1  0  0  0  0
  9 24  1  0  0  0  0
  7  8  1  0  0  0  0
  7  9  1  0  0  0  0
 28 29  1  0  0  0  0
 28 30  1  0  0  0  0
 28 31  1  0  0  0  0
 26 27  1  0  0  0  0
 26 28  1  0  0  0  0
M  END
$$$$
default_name
  -OEChem-02102213163D

 31 30  0     1  0  0  0  0  0999 V2000
   -3.0760   -3.6390    1.5496 H   0  0  0  0  0  0  0  0  0  0  0  0
   -3.0940   -2.6290    1.1426 C   0  0  0  0  0  0  0  0  0  0  0  0
   -3.7160   -1.9930    1.7706 H   0  0  0  0  0  0  0  0  0  0  0  0
   -3.4880   -2.6500    0.1286 H   0  0  0  0  0  0  0  0  0  0  0  0
   -1.6860   -2.0850    1.1196 C   0  0  0  0  0  0  0  0  0  0  0  0
   -0.7540   -2.7700    1.5226 O   0  0  0  0  0  0  0  0  0  0  0  0
   -1.5320   -0.8490    0.6496 N   0  0  0  0  0  0  0  0  0  0  0  0
   -2.3500   -0.3360    0.3566 H   0  0  0  0  0  0  0  0  0  0  0  0
   -0.2470   -0.1410    0.5576 C   0  0  1  0  0  0  0  0  0  0  0  0
    0.4572   -0.6505    1.2162 H   0  0  0  0  0  0  0  0  0  0  0  0
    0.3091   -0.2220   -0.8868 C   0  0  1  0  0  0  0  0  0  0  0  0
    0.6071    0.7883   -1.1739 H   0  0  0  0  0  0  0  0  0  0  0  0
    1.5537   -1.1244   -0.9884 C   0  0  0  0  0  0  0  0  0  0  0  0
    1.2920   -2.1640   -0.7835 H   0  0  0  0  0  0  0  0  0  0  0  0
    1.9897   -1.0569   -1.9839 H   0  0  0  0  0  0  0  0  0  0  0  0
    2.3105   -0.8043   -0.2713 H   0  0  0  0  0  0  0  0  0  0  0  0
   -0.7856   -0.6780   -1.8774 C   0  0  0  0  0  0  0  0  0  0  0  0
   -1.5194   -1.2985   -1.3612 H   0  0  0  0  0  0  0  0  0  0  0  0
   -1.2959    0.2032   -2.2661 H   0  0  0  0  0  0  0  0  0  0  0  0
   -0.2423   -1.4604   -3.0807 C   0  0  0  0  0  0  0  0  0  0  0  0
    0.1868   -2.4088   -2.7578 H   0  0  0  0  0  0  0  0  0  0  0  0
   -1.0585   -1.6671   -3.7733 H   0  0  0  0  0  0  0  0  0  0  0  0
    0.5185   -0.8725   -3.5952 H   0  0  0  0  0  0  0  0  0  0  0  0
   -0.3971    1.3008    1.0689 C   0  0  0  0  0  0  0  0  0  0  0  0
   -1.3643    1.9819    0.7311 O   0  0  0  0  0  0  0  0  0  0  0  0
    0.5522    1.7647    1.8915 N   0  0  0  0  0  0  0  0  0  0  0  0
    1.3093    1.1450    2.1332 H   0  0  0  0  0  0  0  0  0  0  0  0
    0.5577    3.1119    2.4582 C   0  0  0  0  0  0  0  0  0  0  0  0
   -0.3986    3.3098    2.9475 H   0  0  0  0  0  0  0  0  0  0  0  0
    1.3619    3.2123    3.1886 H   0  0  0  0  0  0  0  0  0  0  0  0
    0.6974    3.8450    1.6614 H   0  0  0  0  0  0  0  0  0  0  0  0
  5  6  2  0  0  0  0
  5  7  1  0  0  0  0
  2  3  1  0  0  0  0
  2  4  1  0  0  0  0
  2  5  1  0  0  0  0
  1  2  1  0  0  0  0
 24 25  2  0  0  0  0
 24 26  1  0  0  0  0
 20 21  1  0  0  0  0
 20 22  1  0  0  0  0
 20 23  1  0  0  0  0
 17 18  1  0  0  0  0
 17 19  1  0  0  0  0
 17 20  1  0  0  0  0
 13 14  1  0  0  0  0
 13 15  1  0  0  0  0
 13 16  1  0  0  0  0
 11 12  1  0  0  0  0
 11 13  1  0  0  0  0
 11 17  1  0  0  0  0
  9 10  1  0  0  0  0
  9 11  1  0  0  0  0
  9 24  1  0  0  0  0
  7  8  1  0  0  0  0
  7  9  1  0  0  0  0
 28 29  1  0  0  0  0
 28 30  1  0  0  0  0
 28 31  1  0  0  0  0
 26 27  1  0  0  0  0
 26 28  1  0  0  0  0
M  END
$$$$
default_name
  -OEChem-02102213163D

 31 30  0     1  0  0  0  0  0999 V2000
   -3.0760   -3.6390    1.5496 H   0  0  0  0  0  0  0  0  0  0  0  0
   -3.0940   -2.6290    1.1426 C   0  0  0  0  0  0  0  0  0  0  0  0
   -3.7160   -1.9930    1.7706 H   0  0  0  0  0  0  0  0  0  0  0  0
   -3.4880   -2.6500    0.1286 H   0  0  0  0  0  0  0  0  0  0  0  0
   -1.6860   -2.0850    1.1196 C   0  0  0  0  0  0  0  0  0  0  0  0
   -0.7540   -2.7700    1.5226 O   0  0  0  0  0  0  0  0  0  0  0  0
   -1.5320   -0.8490    0.6496 N   0  0  0  0  0  0  0  0  0  0  0  0
   -2.3500   -0.3360    0.3566 H   0  0  0  0  0  0  0  0  0  0  0  0
   -0.2470   -0.1410    0.5576 C   0  0  1  0  0  0  0  0  0  0  0  0
    0.4572   -0.6505    1.2162 H   0  0  0  0  0  0  0  0  0  0  0  0
    0.3091   -0.2220   -0.8868 C   0  0  1  0  0  0  0  0  0  0  0  0
    0.6071    0.7883   -1.1739 H   0  0  0  0  0  0  0  0  0  0  0  0
    1.5537   -1.1244   -0.9884 C   0  0  0  0  0  0  0  0  0  0  0  0
    1.2920   -2.1640   -0.7835 H   0  0  0  0  0  0  0  0  0  0  0  0
    1.9897   -1.0569   -1.9839 H   0  0  0  0  0  0  0  0  0  0  0  0
    2.3105   -0.8043   -0.2713 H   0  0  0  0  0  0  0  0  0  0  0  0
   -0.7856   -0.6780   -1.8774 C   0  0  0  0  0  0  0  0  0  0  0  0
   -1.6458   -1.0647   -1.3292 H   0  0  0  0  0  0  0  0  0  0  0  0
   -1.1110    0.1830   -2.4611 H   0  0  0  0  0  0  0  0  0  0  0  0
   -0.3136   -1.7508   -2.8682 C   0  0  0  0  0  0  0  0  0  0  0  0
   -0.0756   -2.6765   -2.3446 H   0  0  0  0  0  0  0  0  0  0  0  0
   -1.1096   -1.9529   -3.5853 H   0  0  0  0  0  0  0  0  0  0  0  0
    0.5674   -1.3996   -3.4065 H   0  0  0  0  0  0  0  0  0  0  0  0
   -0.3971    1.3008    1.0689 C   0  0  0  0  0  0  0  0  0  0  0  0
   -1.3643    1.9819    0.7311 O   0  0  0  0  0  0  0  0  0  0  0  0
    0.5522    1.7647    1.8915 N   0  0  0  0  0  0  0  0  0  0  0  0
    1.3093    1.1450    2.1332 H   0  0  0  0  0  0  0  0  0  0  0  0
    0.5577    3.1119    2.4582 C   0  0  0  0  0  0  0  0  0  0  0  0
   -0.3986    3.3098    2.9475 H   0  0  0  0  0  0  0  0  0  0  0  0
    1.3619    3.2123    3.1886 H   0  0  0  0  0  0  0  0  0  0  0  0
    0.6974    3.8450    1.6614 H   0  0  0  0  0  0  0  0  0  0  0  0
  5  6  2  0  0  0  0
  5  7  1  0  0  0  0
  2  3  1  0  0  0  0
  2  4  1  0  0  0  0
  2  5  1  0  0  0  0
  1  2  1  0  0  0  0
 24 25  2  0  0  0  0
 24 26  1  0  0  0  0
 20 21  1  0  0  0  0
 20 22  1  0  0  0  0
 20 23  1  0  0  0  0
 17 18  1  0  0  0  0
 17 19  1  0  0  0  0
 17 20  1  0  0  0  0
 13 14  1  0  0  0  0
 13 15  1  0  0  0  0
 13 16  1  0  0  0  0
 11 12  1  0  0  0  0
 11 13  1  0  0  0  0
 11 17  1  0  0  0  0
  9 10  1  0  0  0  0
  9 11  1  0  0  0  0
  9 24  1  0  0  0  0
  7  8  1  0  0  0  0
  7  9  1  0  0  0  0
 28 29  1  0  0  0  0
 28 30  1  0  0  0  0
 28 31  1  0  0  0  0
 26 27  1  0  0  0  0
 26 28  1  0  0  0  0
M  END
$$$$
default_name
  -OEChem-02102213163D

 31 30  0     1  0  0  0  0  0999 V2000
   -3.0760   -3.6390    1.5496 H   0  0  0  0  0  0  0  0  0  0  0  0
   -3.0940   -2.6290    1.1426 C   0  0  0  0  0  0  0  0  0  0  0  0
   -3.7160   -1.9930    1.7706 H   0  0  0  0  0  0  0  0  0  0  0  0
   -3.4880   -2.6500    0.1286 H   0  0  0  0  0  0  0  0  0  0  0  0
   -1.6860   -2.0850    1.1196 C   0  0  0  0  0  0  0  0  0  0  0  0
   -0.7540   -2.7700    1.5226 O   0  0  0  0  0  0  0  0  0  0  0  0
   -1.5320   -0.8490    0.6496 N   0  0  0  0  0  0  0  0  0  0  0  0
   -2.3500   -0.3360    0.3566 H   0  0  0  0  0  0  0  0  0  0  0  0
   -0.2470   -0.1410    0.5576 C   0  0  1  0  0  0  0  0  0  0  0  0
    0.4572   -0.6505    1.2162 H   0  0  0  0  0  0  0  0  0  0  0  0
    0.3091   -0.2220   -0.8868 C   0  0  1  0  0  0  0  0  0  0  0  0
    0.6071    0.7883   -1.1739 H   0  0  0  0  0  0  0  0  0  0  0  0
    1.5537   -1.1244   -0.9884 C   0  0  0  0  0  0  0  0  0  0  0  0
    1.2920   -2.1640   -0.7835 H   0  0  0  0  0  0  0  0  0  0  0  0
    1.9897   -1.0569   -1.9839 H   0  0  0  0  0  0  0  0  0  0  0  0
    2.3105   -0.8043   -0.2713 H   0  0  0  0  0  0  0  0  0  0  0  0
   -0.7856   -0.6780   -1.8774 C   0  0  0  0  0  0  0  0  0  0  0  0
   -1.7315   -0.8121   -1.3508 H   0  0  0  0  0  0  0  0  0  0  0  0
   -0.9210    0.0971   -2.6316 H   0  0  0  0  0  0  0  0  0  0  0  0
   -0.4469   -1.9804   -2.6151 C   0  0  0  0  0  0  0  0  0  0  0  0
   -0.4050   -2.8158   -1.9164 H   0  0  0  0  0  0  0  0  0  0  0  0
   -1.2207   -2.1860   -3.3552 H   0  0  0  0  0  0  0  0  0  0  0  0
    0.5127   -1.8823   -3.1239 H   0  0  0  0  0  0  0  0  0  0  0  0
   -0.3971    1.3008    1.0689 C   0  0  0  0  0  0  0  0  0  0  0  0
   -1.3643    1.9819    0.7311 O   0  0  0  0  0  0  0  0  0  0  0  0
    0.5522    1.7647    1.8915 N   0  0  0  0  0  0  0  0  0  0  0  0
    1.3093    1.1450    2.1332 H   0  0  0  0  0  0  0  0  0  0  0  0
    0.5577    3.1119    2.4582 C   0  0  0  0  0  0  0  0  0  0  0  0
   -0.3986    3.3098    2.9475 H   0  0  0  0  0  0  0  0  0  0  0  0
    1.3619    3.2123    3.1886 H   0  0  0  0  0  0  0  0  0  0  0  0
    0.6974    3.8450    1.6614 H   0  0  0  0  0  0  0  0  0  0  0  0
  5  6  2  0  0  0  0
  5  7  1  0  0  0  0
  2  3  1  0  0  0  0
  2  4  1  0  0  0  0
  2  5  1  0  0  0  0
  1  2  1  0  0  0  0
 24 25  2  0  0  0  0
 24 26  1  0  0  0  0
 20 21  1  0  0  0  0
 20 22  1  0  0  0  0
 20 23  1  0  0  0  0
 17 18  1  0  0  0  0
 17 19  1  0  0  0  0
 17 20  1  0  0  0  0
 13 14  1  0  0  0  0
 13 15  1  0  0  0  0
 13 16  1  0  0  0  0
 11 12  1  0  0  0  0
 11 13  1  0  0  0  0
 11 17  1  0  0  0  0
  9 10  1  0  0  0  0
  9 11  1  0  0  0  0
  9 24  1  0  0  0  0
  7  8  1  0  0  0  0
  7  9  1  0  0  0  0
 28 29  1  0  0  0  0
 28 30  1  0  0  0  0
 28 31  1  0  0  0  0
 26 27  1  0  0  0  0
 26 28  1  0  0  0  0
M  END
$$$$
default_name
  -OEChem-02102213163D

 31 30  0     1  0  0  0  0  0999 V2000
   -3.0760   -3.6390    1.5496 H   0  0  0  0  0  0  0  0  0  0  0  0
   -3.0940   -2.6290    1.1426 C   0  0  0  0  0  0  0  0  0  0  0  0
   -3.7160   -1.9930    1.7706 H   0  0  0  0  0  0  0  0  0  0  0  0
   -3.4880   -2.6500    0.1286 H   0  0  0  0  0  0  0  0  0  0  0  0
   -1.6860   -2.0850    1.1196 C   0  0  0  0  0  0  0  0  0  0  0  0
   -0.7540   -2.7700    1.5226 O   0  0  0  0  0  0  0  0  0  0  0  0
   -1.5320   -0.8490    0.6496 N   0  0  0  0  0  0  0  0  0  0  0  0
   -2.3500   -0.3360    0.3566 H   0  0  0  0  0  0  0  0  0  0  0  0
   -0.2470   -0.1410    0.5576 C   0  0  1  0  0  0  0  0  0  0  0  0
    0.4572   -0.6505    1.2162 H   0  0  0  0  0  0  0  0  0  0  0  0
    0.3091   -0.2220   -0.8868 C   0  0  1  0  0  0  0  0  0  0  0  0
    0.6071    0.7883   -1.1739 H   0  0  0  0  0  0  0  0  0  0  0  0
    1.5537   -1.1244   -0.9884 C   0  0  0  0  0  0  0  0  0  0  0  0
    1.2920   -2.1640   -0.7835 H   0  0  0  0  0  0  0  0  0  0  0  0
    1.9897   -1.0569   -1.9839 H   0  0  0  0  0  0  0  0  0  0  0  0
    2.3105   -0.8043   -0.2713 H   0  0  0  0  0  0  0  0  0  0  0  0
   -0.7856   -0.6780   -1.8774 C   0  0  0  0  0  0  0  0  0  0  0  0
   -1.7707   -0.5578   -1.4245 H   0  0  0  0  0  0  0  0  0  0  0  0
   -0.7386   -0.0487   -2.7660 H   0  0  0  0  0  0  0  0  0  0  0  0
   -0.6331   -2.1337   -2.3388 C   0  0  0  0  0  0  0  0  0  0  0  0
   -0.7790   -2.8171   -1.5025 H   0  0  0  0  0  0  0  0  0  0  0  0
   -1.3842   -2.3505   -3.0987 H   0  0  0  0  0  0  0  0  0  0  0  0
    0.3582   -2.2876   -2.7665 H   0  0  0  0  0  0  0  0  0  0  0  0
   -0.3971    1.3008    1.0689 C   0  0  0  0  0  0  0  0  0  0  0  0
   -1.3643    1.9819    0.7311 O   0  0  0  0  0  0  0  0  0  0  0  0
    0.5522    1.7647    1.8915 N   0  0  0  0  0  0  0  0  0  0  0  0
    1.3093    1.1450    2.1332 H   0  0  0  0  0  0  0  0  0  0  0  0
    0.5577    3.1119    2.4582 C   0  0  0  0  0  0  0  0  0  0  0  0
   -0.3986    3.3098    2.9475 H   0  0  0  0  0  0  0  0  0  0  0  0
    1.3619    3.2123    3.1886 H   0  0  0  0  0  0  0  0  0  0  0  0
    0.6974    3.8450    1.6614 H   0  0  0  0  0  0  0  0  0  0  0  0
  5  6  2  0  0  0  0
  5  7  1  0  0  0  0
  2  3  1  0  0  0  0
  2  4  1  0  0  0  0
  2  5  1  0  0  0  0
  1  2  1  0  0  0  0
 24 25  2  0  0  0  0
 24 26  1  0  0  0  0
 20 21  1  0  0  0  0
 20 22  1  0  0  0  0
 20 23  1  0  0  0  0
 17 18  1  0  0  0  0
 17 19  1  0  0  0  0
 17 20  1  0  0  0  0
 13 14  1  0  0  0  0
 13 15  1  0  0  0  0
 13 16  1  0  0  0  0
 11 12  1  0  0  0  0
 11 13  1  0  0  0  0
 11 17  1  0  0  0  0
  9 10  1  0  0  0  0
  9 11  1  0  0  0  0
  9 24  1  0  0  0  0
  7  8  1  0  0  0  0
  7  9  1  0  0  0  0
 28 29  1  0  0  0  0
 28 30  1  0  0  0  0
 28 31  1  0  0  0  0
 26 27  1  0  0  0  0
 26 28  1  0  0  0  0
M  END
$$$$
default_name
  -OEChem-02102213163D

 31 30  0     1  0  0  0  0  0999 V2000
   -3.0760   -3.6390    1.5496 H   0  0  0  0  0  0  0  0  0  0  0  0
   -3.0940   -2.6290    1.1426 C   0  0  0  0  0  0  0  0  0  0  0  0
   -3.7160   -1.9930    1.7706 H   0  0  0  0  0  0  0  0  0  0  0  0
   -3.4880   -2.6500    0.1286 H   0  0  0  0  0  0  0  0  0  0  0  0
   -1.6860   -2.0850    1.1196 C   0  0  0  0  0  0  0  0  0  0  0  0
   -0.7540   -2.7700    1.5226 O   0  0  0  0  0  0  0  0  0  0  0  0
   -1.5320   -0.8490    0.6496 N   0  0  0  0  0  0  0  0  0  0  0  0
   -2.3500   -0.3360    0.3566 H   0  0  0  0  0  0  0  0  0  0  0  0
   -0.2470   -0.1410    0.5576 C   0  0  1  0  0  0  0  0  0  0  0  0
    0.4572   -0.6505    1.2162 H   0  0  0  0  0  0  0  0  0  0  0  0
    0.3091   -0.2220   -0.8868 C   0  0  1  0  0  0  0  0  0  0  0  0
    0.6071    0.7883   -1.1739 H   0  0  0  0  0  0  0  0  0  0  0  0
    1.5537   -1.1244   -0.9884 C   0  0  0  0  0  0  0  0  0  0  0  0
    1.2920   -2.1640   -0.7835 H   0  0  0  0  0  0  0  0  0  0  0  0
    1.9897   -1.0569   -1.9839 H   0  0  0  0  0  0  0  0  0  0  0  0
    2.3105   -0.8043   -0.2713 H   0  0  0  0  0  0  0  0  0  0  0  0
   -0.7856   -0.6780   -1.8774 C   0  0  0  0  0  0  0  0  0  0  0  0
   -1.7608   -0.3191   -1.5454 H   0  0  0  0  0  0  0  0  0  0  0  0
   -0.5764   -0.2444   -2.8552 H   0  0  0  0  0  0  0  0  0  0  0  0
   -0.8595   -2.2002   -2.0580 C   0  0  0  0  0  0  0  0  0  0  0  0
   -1.1721   -2.6805   -1.1309 H   0  0  0  0  0  0  0  0  0  0  0  0
   -1.5891   -2.4353   -2.8332 H   0  0  0  0  0  0  0  0  0  0  0  0
    0.1144   -2.5879   -2.3588 H   0  0  0  0  0  0  0  0  0  0  0  0
   -0.3971    1.3008    1.0689 C   0  0  0  0  0  0  0  0  0  0  0  0
   -1.3643    1.9819    0.7311 O   0  0  0  0  0  0  0  0  0  0  0  0
    0.5522    1.7647    1.8915 N   0  0  0  0  0  0  0  0  0  0  0  0
    1.3093    1.1450    2.1332 H   0  0  0  0  0  0  0  0  0  0  0  0
    0.5577    3.1119    2.4582 C   0  0  0  0  0  0  0  0  0  0  0  0
   -0.3986    3.3098    2.9475 H   0  0  0  0  0  0  0  0  0  0  0  0
    1.3619    3.2123    3.1886 H   0  0  0  0  0  0  0  0  0  0  0  0
    0.6974    3.8450    1.6614 H   0  0  0  0  0  0  0  0  0  0  0  0
  5  6  2  0  0  0  0
  5  7  1  0  0  0  0
  2  3  1  0  0  0  0
  2  4  1  0  0  0  0
  2  5  1  0  0  0  0
  1  2  1  0  0  0  0
 24 25  2  0  0  0  0
 24 26  1  0  0  0  0
 20 21  1  0  0  0  0
 20 22  1  0  0  0  0
 20 23  1  0  0  0  0
 17 18  1  0  0  0  0
 17 19  1  0  0  0  0
 17 20  1  0  0  0  0
 13 14  1  0  0  0  0
 13 15  1  0  0  0  0
 13 16  1  0  0  0  0
 11 12  1  0  0  0  0
 11 13  1  0  0  0  0
 11 17  1  0  0  0  0
  9 10  1  0  0  0  0
  9 11  1  0  0  0  0
  9 24  1  0  0  0  0
  7  8  1  0  0  0  0
  7  9  1  0  0  0  0
 28 29  1  0  0  0  0
 28 30  1  0  0  0  0
 28 31  1  0  0  0  0
 26 27  1  0  0  0  0
 26 28  1  0  0  0  0
M  END
$$$$
default_name
  -OEChem-02102213163D

 31 30  0     1  0  0  0  0  0999 V2000
   -3.0760   -3.6390    1.5496 H   0  0  0  0  0  0  0  0  0  0  0  0
   -3.0940   -2.6290    1.1426 C   0  0  0  0  0  0  0  0  0  0  0  0
   -3.7160   -1.9930    1.7706 H   0  0  0  0  0  0  0  0  0  0  0  0
   -3.4880   -2.6500    0.1286 H   0  0  0  0  0  0  0  0  0  0  0  0
   -1.6860   -2.0850    1.1196 C   0  0  0  0  0  0  0  0  0  0  0  0
   -0.7540   -2.7700    1.5226 O   0  0  0  0  0  0  0  0  0  0  0  0
   -1.5320   -0.8490    0.6496 N   0  0  0  0  0  0  0  0  0  0  0  0
   -2.3500   -0.3360    0.3566 H   0  0  0  0  0  0  0  0  0  0  0  0
   -0.2470   -0.1410    0.5576 C   0  0  1  0  0  0  0  0  0  0  0  0
    0.4572   -0.6505    1.2162 H   0  0  0  0  0  0  0  0  0  0  0  0
    0.3091   -0.2220   -0.8868 C   0  0  1  0  0  0  0  0  0  0  0  0
    0.6071    0.7883   -1.1739 H   0  0  0  0  0  0  0  0  0  0  0  0
    1.5537   -1.1244   -0.9884 C   0  0  0  0  0  0  0  0  0  0  0  0
    1.2920   -2.1640   -0.7835 H   0  0  0  0  0  0  0  0  0  0  0  0
    1.9897   -1.0569   -1.9839 H   0  0  0  0  0  0  0  0  0  0  0  0
    2.3105   -0.8043   -0.2713 H   0  0  0  0  0  0  0  0  0  0  0  0
   -0.7856   -0.6780   -1.8774 C   0  0  0  0  0  0  0  0  0  0  0  0
   -1.7023   -0.1124   -1.7051 H   0  0  0  0  0  0  0  0  0  0  0  0
   -0.4453   -0.4767   -2.8931 H   0  0  0  0  0  0  0  0  0  0  0  0
   -1.1106   -2.1754   -1.7918 C   0  0  0  0  0  0  0  0  0  0  0  0
   -1.5575   -2.4151   -0.8271 H   0  0  0  0  0  0  0  0  0  0  0  0
   -1.8213   -2.4345   -2.5769 H   0  0  0  0  0  0  0  0  0  0  0  0
   -0.2020   -2.7628   -1.9286 H   0  0  0  0  0  0  0  0  0  0  0  0
   -0.3971    1.3008    1.0689 C   0  0  0  0  0  0  0  0  0  0  0  0
   -1.3643    1.9819    0.7311 O   0  0  0  0  0  0  0  0  0  0  0  0
    0.5522    1.7647    1.8915 N   0  0  0  0  0  0  0  0  0  0  0  0
    1.3093    1.1450    2.1332 H   0  0  0  0  0  0  0  0  0  0  0  0
    0.5577    3.1119    2.4582 C   0  0  0  0  0  0  0  0  0  0  0  0
   -0.3986    3.3098    2.9475 H   0  0  0  0  0  0  0  0  0  0  0  0
    1.3619    3.2123    3.1886 H   0  0  0  0  0  0  0  0  0  0  0  0
    0.6974    3.8450    1.6614 H   0  0  0  0  0  0  0  0  0  0  0  0
  5  6  2  0  0  0  0
  5  7  1  0  0  0  0
  2  3  1  0  0  0  0
  2  4  1  0  0  0  0
  2  5  1  0  0  0  0
  1  2  1  0  0  0  0
 24 25  2  0  0  0  0
 24 26  1  0  0  0  0
 20 21  1  0  0  0  0
 20 22  1  0  0  0  0
 20 23  1  0  0  0  0
 17 18  1  0  0  0  0
 17 19  1  0  0  0  0
 17 20  1  0  0  0  0
 13 14  1  0  0  0  0
 13 15  1  0  0  0  0
 13 16  1  0  0  0  0
 11 12  1  0  0  0  0
 11 13  1  0  0  0  0
 11 17  1  0  0  0  0
  9 10  1  0  0  0  0
  9 11  1  0  0  0  0
  9 24  1  0  0  0  0
  7  8  1  0  0  0  0
  7  9  1  0  0  0  0
 28 29  1  0  0  0  0
 28 30  1  0  0  0  0
 28 31  1  0  0  0  0
 26 27  1  0  0  0  0
 26 28  1  0  0  0  0
M  END
$$$$
default_name
  -OEChem-02102213163D

 31 30  0     1  0  0  0  0  0999 V2000
   -3.0760   -3.6390    1.5496 H   0  0  0  0  0  0  0  0  0  0  0  0
   -3.0940   -2.6290    1.1426 C   0  0  0  0  0  0  0  0  0  0  0  0
   -3.7160   -1.9930    1.7706 H   0  0  0  0  0  0  0  0  0  0  0  0
   -3.4880   -2.6500    0.1286 H   0  0  0  0  0  0  0  0  0  0  0  0
   -1.6860   -2.0850    1.1196 C   0  0  0  0  0  0  0  0  0  0  0  0
   -0.7540   -2.7700    1.5226 O   0  0  0  0  0  0  0  0  0  0  0  0
   -1.5320   -0.8490    0.6496 N   0  0  0  0  0  0  0  0  0  0  0  0
   -2.3500   -0.3360    0.3566 H   0  0  0  0  0  0  0  0  0  0  0  0
   -0.2470   -0.1410    0.5576 C   0  0  1  0  0  0  0  0  0  0  0  0
    0.4572   -0.6505    1.2162 H   0  0  0  0  0  0  0  0  0  0  0  0
    0.3091   -0.2220   -0.8868 C   0  0  1  0  0  0  0  0  0  0  0  0
    0.6071    0.7883   -1.1739 H   0  0  0  0  0  0  0  0  0  0  0  0
    1.5537   -1.1244   -0.9884 C   0  0  0  0  0  0  0  0  0  0  0  0
    1.2920   -2.1640   -0.7835 H   0  0  0  0  0  0  0  0  0  0  0  0
    1.9897   -1.0569   -1.9839 H   0  0  0  0  0  0  0  0  0  0  0  0
    2.3105   -0.8043   -0.2713 H   0  0  0  0  0  0  0  0  0  0  0  0
   -0.7856   -0.6780   -1.8774 C   0  0  0  0  0  0  0  0  0  0  0  0
   -1.5994    0.0482   -1.8928 H   0  0  0  0  0  0  0  0  0  0  0  0
   -0.3544   -0.7298   -2.8771 H   0  0  0  0  0  0  0  0  0  0  0  0
   -1.3694   -2.0610   -1.5584 C   0  0  0  0  0  0  0  0  0  0  0  0
   -1.9089   -2.0392   -0.6117 H   0  0  0  0  0  0  0  0  0  0  0  0
   -2.0650   -2.3482   -2.3473 H   0  0  0  0  0  0  0  0  0  0  0  0
   -0.5695   -2.8003   -1.5051 H   0  0  0  0  0  0  0  0  0  0  0  0
   -0.3971    1.3008    1.0689 C   0  0  0  0  0  0  0  0  0  0  0  0
   -1.3643    1.9819    0.7311 O   0  0  0  0  0  0  0  0  0  0  0  0
    0.5522    1.7647    1.8915 N   0  0  0  0  0  0  0  0  0  0  0  0
    1.3093    1.1450    2.1332 H   0  0  0  0  0  0  0  0  0  0  0  0
    0.5577    3.1119    2.4582 C   0  0  0  0  0  0  0  0  0  0  0  0
   -0.3986    3.3098    2.9475 H   0  0  0  0  0  0  0  0  0  0  0  0
    1.3619    3.2123    3.1886 H   0  0  0  0  0  0  0  0  0  0  0  0
    0.6974    3.8450    1.6614 H   0  0  0  0  0  0  0  0  0  0  0  0
  5  6  2  0  0  0  0
  5  7  1  0  0  0  0
  2  3  1  0  0  0  0
  2  4  1  0  0  0  0
  2  5  1  0  0  0  0
  1  2  1  0  0  0  0
 24 25  2  0  0  0  0
 24 26  1  0  0  0  0
 20 21  1  0  0  0  0
 20 22  1  0  0  0  0
 20 23  1  0  0  0  0
 17 18  1  0  0  0  0
 17 19  1  0  0  0  0
 17 20  1  0  0  0  0
 13 14  1  0  0  0  0
 13 15  1  0  0  0  0
 13 16  1  0  0  0  0
 11 12  1  0  0  0  0
 11 13  1  0  0  0  0
 11 17  1  0  0  0  0
  9 10  1  0  0  0  0
  9 11  1  0  0  0  0
  9 24  1  0  0  0  0
  7  8  1  0  0  0  0
  7  9  1  0  0  0  0
 28 29  1  0  0  0  0
 28 30  1  0  0  0  0
 28 31  1  0  0  0  0
 26 27  1  0  0  0  0
 26 28  1  0  0  0  0
M  END
$$$$
default_name
  -OEChem-02102213163D

 31 30  0     1  0  0  0  0  0999 V2000
   -3.0760   -3.6390    1.5496 H   0  0  0  0  0  0  0  0  0  0  0  0
   -3.0940   -2.6290    1.1426 C   0  0  0  0  0  0  0  0  0  0  0  0
   -3.7160   -1.9930    1.7706 H   0  0  0  0  0  0  0  0  0  0  0  0
   -3.4880   -2.6500    0.1286 H   0  0  0  0  0  0  0  0  0  0  0  0
   -1.6860   -2.0850    1.1196 C   0  0  0  0  0  0  0  0  0  0  0  0
   -0.7540   -2.7700    1.5226 O   0  0  0  0  0  0  0  0  0  0  0  0
   -1.5320   -0.8490    0.6496 N   0  0  0  0  0  0  0  0  0  0  0  0
   -2.3500   -0.3360    0.3566 H   0  0  0  0  0  0  0  0  0  0  0  0
   -0.2470   -0.1410    0.5576 C   0  0  1  0  0  0  0  0  0  0  0  0
    0.4572   -0.6505    1.2162 H   0  0  0  0  0  0  0  0  0  0  0  0
    0.3091   -0.2220   -0.8868 C   0  0  1  0  0  0  0  0  0  0  0  0
    0.6071    0.7883   -1.1739 H   0  0  0  0  0  0  0  0  0  0  0  0
    1.5537   -1.1244   -0.9884 C   0  0  0  0  0  0  0  0  0  0  0  0
    1.2920   -2.1640   -0.7835 H   0  0  0  0  0  0  0  0  0  0  0  0
    1.9897   -1.0569   -1.9839 H   0  0  0  0  0  0  0  0  0  0  0  0
    2.3105   -0.8043   -0.2713 H   0  0  0  0  0  0  0  0  0  0  0  0
   -0.7856   -0.6780   -1.8774 C   0  0  0  0  0  0  0  0  0  0  0  0
   -1.4590    0.1519   -2.0958 H   0  0  0  0  0  0  0  0  0  0  0  0
   -0.3098   -0.9865   -2.8082 H   0  0  0  0  0  0  0  0  0  0  0  0
   -1.6183   -1.8648   -1.3738 C   0  0  0  0  0  0  0  0  0  0  0  0
   -2.2025   -1.5782   -0.4995 H   0  0  0  0  0  0  0  0  0  0  0  0
   -2.3037   -2.1823   -2.1599 H   0  0  0  0  0  0  0  0  0  0  0  0
   -0.9631   -2.6980   -1.1172 H   0  0  0  0  0  0  0  0  0  0  0  0
   -0.3971    1.3008    1.0689 C   0  0  0  0  0  0  0  0  0  0  0  0
   -1.3643    1.9819    0.7311 O   0  0  0  0  0  0  0  0  0  0  0  0
    0.5522    1.7647    1.8915 N   0  0  0  0  0  0  0  0  0  0  0  0
    1.3093    1.1450    2.1332 H   0  0  0  0  0  0  0  0  0  0  0  0
    0.5577    3.1119    2.4582 C   0  0  0  0  0  0  0  0  0  0  0  0
   -0.3986    3.3098    2.9475 H   0  0  0  0  0  0  0  0  0  0  0  0
    1.3619    3.2123    3.1886 H   0  0  0  0  0  0  0  0  0  0  0  0
    0.6974    3.8450    1.6614 H   0  0  0  0  0  0  0  0  0  0  0  0
  5  6  2  0  0  0  0
  5  7  1  0  0  0  0
  2  3  1  0  0  0  0
  2  4  1  0  0  0  0
  2  5  1  0  0  0  0
  1  2  1  0  0  0  0
 24 25  2  0  0  0  0
 24 26  1  0  0  0  0
 20 21  1  0  0  0  0
 20 22  1  0  0  0  0
 20 23  1  0  0  0  0
 17 18  1  0  0  0  0
 17 19  1  0  0  0  0
 17 20  1  0  0  0  0
 13 14  1  0  0  0  0
 13 15  1  0  0  0  0
 13 16  1  0  0  0  0
 11 12  1  0  0  0  0
 11 13  1  0  0  0  0
 11 17  1  0  0  0  0
  9 10  1  0  0  0  0
  9 11  1  0  0  0  0
  9 24  1  0  0  0  0
  7  8  1  0  0  0  0
  7  9  1  0  0  0  0
 28 29  1  0  0  0  0
 28 30  1  0  0  0  0
 28 31  1  0  0  0  0
 26 27  1  0  0  0  0
 26 28  1  0  0  0  0
M  END
$$$$
default_name
  -OEChem-02102213163D

 31 30  0     1  0  0  0  0  0999 V2000
   -3.0760   -3.6390    1.5496 H   0  0  0  0  0  0  0  0  0  0  0  0
   -3.0940   -2.6290    1.1426 C   0  0  0  0  0  0  0  0  0  0  0  0
   -3.7160   -1.9930    1.7706 H   0  0  0  0  0  0  0  0  0  0  0  0
   -3.4880   -2.6500    0.1286 H   0  0  0  0  0  0  0  0  0  0  0  0
   -1.6860   -2.0850    1.1196 C   0  0  0  0  0  0  0  0  0  0  0  0
   -0.7540   -2.7700    1.5226 O   0  0  0  0  0  0  0  0  0  0  0  0
   -1.5320   -0.8490    0.6496 N   0  0  0  0  0  0  0  0  0  0  0  0
   -2.3500   -0.3360    0.3566 H   0  0  0  0  0  0  0  0  0  0  0  0
   -0.2470   -0.1410    0.5576 C   0  0  1  0  0  0  0  0  0  0  0  0
    0.4572   -0.6505    1.2162 H   0  0  0  0  0  0  0  0  0  0  0  0
    0.3091   -0.2220   -0.8868 C   0  0  1  0  0  0  0  0  0  0  0  0
    0.6071    0.7883   -1.1739 H   0  0  0  0  0  0  0  0  0  0  0  0
    1.5537   -1.1244   -0.9884 C   0  0  0  0  0  0  0  0  0  0  0  0
    1.2920   -2.1640   -0.7835 H   0  0  0  0  0  0  0  0  0  0  0  0
    1.9897   -1.0569   -1.9839 H   0  0  0  0  0  0  0  0  0  0  0  0
    2.3105   -0.8043   -0.2713 H   0  0  0  0  0  0  0  0  0  0  0  0
   -0.7856   -0.6780   -1.8774 C   0  0  0  0  0  0  0  0  0  0  0  0
   -1.2906    0.1916   -2.3001 H   0  0  0  0  0  0  0  0  0  0  0  0
   -0.3146   -1.2291   -2.6912 H   0  0  0  0  0  0  0  0  0  0  0  0
   -1.8402   -1.6000   -1.2504 C   0  0  0  0  0  0  0  0  0  0  0  0
   -2.4181   -1.0637   -0.4980 H   0  0  0  0  0  0  0  0  0  0  0  0
   -2.5210   -1.9481   -2.0275 H   0  0  0  0  0  0  0  0  0  0  0  0
   -1.3559   -2.4627   -0.7914 H   0  0  0  0  0  0  0  0  0  0  0  0
   -0.3971    1.3008    1.0689 C   0  0  0  0  0  0  0  0  0  0  0  0
   -1.3643    1.9819    0.7311 O   0  0  0  0  0  0  0  0  0  0  0  0
    0.5522    1.7647    1.8915 N   0  0  0  0  0  0  0  0  0  0  0  0
    1.3093    1.1450    2.1332 H   0  0  0  0  0  0  0  0  0  0  0  0
    0.5577    3.1119    2.4582 C   0  0  0  0  0  0  0  0  0  0  0  0
   -0.3986    3.3098    2.9475 H   0  0  0  0  0  0  0  0  0  0  0  0
    1.3619    3.2123    3.1886 H   0  0  0  0  0  0  0  0  0  0  0  0
    0.6974    3.8450    1.6614 H   0  0  0  0  0  0  0  0  0  0  0  0
  5  6  2  0  0  0  0
  5  7  1  0  0  0  0
  2  3  1  0  0  0  0
  2  4  1  0  0  0  0
  2  5  1  0  0  0  0
  1  2  1  0  0  0  0
 24 25  2  0  0  0  0
 24 26  1  0  0  0  0
 20 21  1  0  0  0  0
 20 22  1  0  0  0  0
 20 23  1  0  0  0  0
 17 18  1  0  0  0  0
 17 19  1  0  0  0  0
 17 20  1  0  0  0  0
 13 14  1  0  0  0  0
 13 15  1  0  0  0  0
 13 16  1  0  0  0  0
 11 12  1  0  0  0  0
 11 13  1  0  0  0  0
 11 17  1  0  0  0  0
  9 10  1  0  0  0  0
  9 11  1  0  0  0  0
  9 24  1  0  0  0  0
  7  8  1  0  0  0  0
  7  9  1  0  0  0  0
 28 29  1  0  0  0  0
 28 30  1  0  0  0  0
 28 31  1  0  0  0  0
 26 27  1  0  0  0  0
 26 28  1  0  0  0  0
M  END
$$$$
default_name
  -OEChem-02102213163D

 31 30  0     1  0  0  0  0  0999 V2000
   -3.0760   -3.6390    1.5496 H   0  0  0  0  0  0  0  0  0  0  0  0
   -3.0940   -2.6290    1.1426 C   0  0  0  0  0  0  0  0  0  0  0  0
   -3.7160   -1.9930    1.7706 H   0  0  0  0  0  0  0  0  0  0  0  0
   -3.4880   -2.6500    0.1286 H   0  0  0  0  0  0  0  0  0  0  0  0
   -1.6860   -2.0850    1.1196 C   0  0  0  0  0  0  0  0  0  0  0  0
   -0.7540   -2.7700    1.5226 O   0  0  0  0  0  0  0  0  0  0  0  0
   -1.5320   -0.8490    0.6496 N   0  0  0  0  0  0  0  0  0  0  0  0
   -2.3500   -0.3360    0.3566 H   0  0  0  0  0  0  0  0  0  0  0  0
   -0.2470   -0.1410    0.5576 C   0  0  1  0  0  0  0  0  0  0  0  0
    0.4572   -0.6505    1.2162 H   0  0  0  0  0  0  0  0  0  0  0  0
    0.3091   -0.2220   -0.8868 C   0  0  1  0  0  0  0  0  0  0  0  0
    0.6071    0.7883   -1.1739 H   0  0  0  0  0  0  0  0  0  0  0  0
    1.5537   -1.1244   -0.9884 C   0  0  0  0  0  0  0  0  0  0  0  0
    1.2920   -2.1640   -0.7835 H   0  0  0  0  0  0  0  0  0  0  0  0
    1.9897   -1.0569   -1.9839 H   0  0  0  0  0  0  0  0  0  0  0  0
    2.3105   -0.8043   -0.2713 H   0  0  0  0  0  0  0  0  0  0  0  0
   -0.7856   -0.6780   -1.8774 C   0  0  0  0  0  0  0  0  0  0  0  0
   -1.1059    0.1645   -2.4918 H   0  0  0  0  0  0  0  0  0  0  0  0
   -0.3684   -1.4413   -2.5341 H   0  0  0  0  0  0  0  0  0  0  0  0
   -2.0200   -1.2849   -1.1967 C   0  0  0  0  0  0  0  0  0  0  0  0
   -2.5412   -0.5306   -0.6074 H   0  0  0  0  0  0  0  0  0  0  0  0
   -2.7022   -1.6615   -1.9592 H   0  0  0  0  0  0  0  0  0  0  0  0
   -1.7212   -2.1105   -0.5498 H   0  0  0  0  0  0  0  0  0  0  0  0
   -0.3971    1.3008    1.0689 C   0  0  0  0  0  0  0  0  0  0  0  0
   -1.3643    1.9819    0.7311 O   0  0  0  0  0  0  0  0  0  0  0  0
    0.5522    1.7647    1.8915 N   0  0  0  0  0  0  0  0  0  0  0  0
    1.3093    1.1450    2.1332 H   0  0  0  0  0  0  0  0  0  0  0  0
    0.5577    3.1119    2.4582 C   0  0  0  0  0  0  0  0  0  0  0  0
   -0.3986    3.3098    2.9475 H   0  0  0  0  0  0  0  0  0  0  0  0
    1.3619    3.2123    3.1886 H   0  0  0  0  0  0  0  0  0  0  0  0
    0.6974    3.8450    1.6614 H   0  0  0  0  0  0  0  0  0  0  0  0
  5  6  2  0  0  0  0
  5  7  1  0  0  0  0
  2  3  1  0  0  0  0
  2  4  1  0  0  0  0
  2  5  1  0  0  0  0
  1  2  1  0  0  0  0
 24 25  2  0  0  0  0
 24 26  1  0  0  0  0
 20 21  1  0  0  0  0
 20 22  1  0  0  0  0
 20 23  1  0  0  0  0
 17 18  1  0  0  0  0
 17 19  1  0  0  0  0
 17 20  1  0  0  0  0
 13 14  1  0  0  0  0
 13 15  1  0  0  0  0
 13 16  1  0  0  0  0
 11 12  1  0  0  0  0
 11 13  1  0  0  0  0
 11 17  1  0  0  0  0
  9 10  1  0  0  0  0
  9 11  1  0  0  0  0
  9 24  1  0  0  0  0
  7  8  1  0  0  0  0
  7  9  1  0  0  0  0
 28 29  1  0  0  0  0
 28 30  1  0  0  0  0
 28 31  1  0  0  0  0
 26 27  1  0  0  0  0
 26 28  1  0  0  0  0
M  END
$$$$
default_name
  -OEChem-02102213163D

 31 30  0     1  0  0  0  0  0999 V2000
   -3.0760   -3.6390    1.5496 H   0  0  0  0  0  0  0  0  0  0  0  0
   -3.0940   -2.6290    1.1426 C   0  0  0  0  0  0  0  0  0  0  0  0
   -3.7160   -1.9930    1.7706 H   0  0  0  0  0  0  0  0  0  0  0  0
   -3.4880   -2.6500    0.1286 H   0  0  0  0  0  0  0  0  0  0  0  0
   -1.6860   -2.0850    1.1196 C   0  0  0  0  0  0  0  0  0  0  0  0
   -0.7540   -2.7700    1.5226 O   0  0  0  0  0  0  0  0  0  0  0  0
   -1.5320   -0.8490    0.6496 N   0  0  0  0  0  0  0  0  0  0  0  0
   -2.3500   -0.3360    0.3566 H   0  0  0  0  0  0  0  0  0  0  0  0
   -0.2470   -0.1410    0.5576 C   0  0  1  0  0  0  0  0  0  0  0  0
    0.4572   -0.6505    1.2162 H   0  0  0  0  0  0  0  0  0  0  0  0
    0.3091   -0.2220   -0.8868 C   0  0  1  0  0  0  0  0  0  0  0  0
    0.6071    0.7883   -1.1739 H   0  0  0  0  0  0  0  0  0  0  0  0
    1.5537   -1.1244   -0.9884 C   0  0  0  0  0  0  0  0  0  0  0  0
    1.2920   -2.1640   -0.7835 H   0  0  0  0  0  0  0  0  0  0  0  0
    1.9897   -1.0569   -1.9839 H   0  0  0  0  0  0  0  0  0  0  0  0
    2.3105   -0.8043   -0.2713 H   0  0  0  0  0  0  0  0  0  0  0  0
   -0.7856   -0.6780   -1.8774 C   0  0  0  0  0  0  0  0  0  0  0  0
   -0.9172    0.0725   -2.6580 H   0  0  0  0  0  0  0  0  0  0  0  0
   -0.4675   -1.6084   -2.3476 H   0  0  0  0  0  0  0  0  0  0  0  0
   -2.1455   -0.9408   -1.2164 C   0  0  0  0  0  0  0  0  0  0  0  0
   -2.5632   -0.0154   -0.8203 H   0  0  0  0  0  0  0  0  0  0  0  0
   -2.8349   -1.3421   -1.9596 H   0  0  0  0  0  0  0  0  0  0  0  0
   -2.0341   -1.6653   -0.4090 H   0  0  0  0  0  0  0  0  0  0  0  0
   -0.3971    1.3008    1.0689 C   0  0  0  0  0  0  0  0  0  0  0  0
   -1.3643    1.9819    0.7311 O   0  0  0  0  0  0  0  0  0  0  0  0
    0.5522    1.7647    1.8915 N   0  0  0  0  0  0  0  0  0  0  0  0
    1.3093    1.1450    2.1332 H   0  0  0  0  0  0  0  0  0  0  0  0
    0.5577    3.1119    2.4582 C   0  0  0  0  0  0  0  0  0  0  0  0
   -0.3986    3.3098    2.9475 H   0  0  0  0  0  0  0  0  0  0  0  0
    1.3619    3.2123    3.1886 H   0  0  0  0  0  0  0  0  0  0  0  0
    0.6974    3.8450    1.6614 H   0  0  0  0  0  0  0  0  0  0  0  0
  5  6  2  0  0  0  0
  5  7  1  0  0  0  0
  2  3  1  0  0  0  0
  2  4  1  0  0  0  0
  2  5  1  0  0  0  0
  1  2  1  0  0  0  0
 24 25  2  0  0  0  0
 24 26  1  0  0  0  0
 20 21  1  0  0  0  0
 20 22  1  0  0  0  0
 20 23  1  0  0  0  0
 17 18  1  0  0  0  0
 17 19  1  0  0  0  0
 17 20  1  0  0  0  0
 13 14  1  0  0  0  0
 13 15  1  0  0  0  0
 13 16  1  0  0  0  0
 11 12  1  0  0  0  0
 11 13  1  0  0  0  0
 11 17  1  0  0  0  0
  9 10  1  0  0  0  0
  9 11  1  0  0  0  0
  9 24  1  0  0  0  0
  7  8  1  0  0  0  0
  7  9  1  0  0  0  0
 28 29  1  0  0  0  0
 28 30  1  0  0  0  0
 28 31  1  0  0  0  0
 26 27  1  0  0  0  0
 26 28  1  0  0  0  0
M  END
$$$$
default_name
  -OEChem-02102213163D

 31 30  0     1  0  0  0  0  0999 V2000
   -3.0760   -3.6390    1.5496 H   0  0  0  0  0  0  0  0  0  0  0  0
   -3.0940   -2.6290    1.1426 C   0  0  0  0  0  0  0  0  0  0  0  0
   -3.7160   -1.9930    1.7706 H   0  0  0  0  0  0  0  0  0  0  0  0
   -3.4880   -2.6500    0.1286 H   0  0  0  0  0  0  0  0  0  0  0  0
   -1.6860   -2.0850    1.1196 C   0  0  0  0  0  0  0  0  0  0  0  0
   -0.7540   -2.7700    1.5226 O   0  0  0  0  0  0  0  0  0  0  0  0
   -1.5320   -0.8490    0.6496 N   0  0  0  0  0  0  0  0  0  0  0  0
   -2.3500   -0.3360    0.3566 H   0  0  0  0  0  0  0  0  0  0  0  0
   -0.2470   -0.1410    0.5576 C   0  0  1  0  0  0  0  0  0  0  0  0
    0.4572   -0.6505    1.2162 H   0  0  0  0  0  0  0  0  0  0  0  0
    0.3091   -0.2220   -0.8868 C   0  0  1  0  0  0  0  0  0  0  0  0
    0.6071    0.7883   -1.1739 H   0  0  0  0  0  0  0  0  0  0  0  0
    1.5537   -1.1244   -0.9884 C   0  0  0  0  0  0  0  0  0  0  0  0
    1.2920   -2.1640   -0.7835 H   0  0  0  0  0  0  0  0  0  0  0  0
    1.9897   -1.0569   -1.9839 H   0  0  0  0  0  0  0  0  0  0  0  0
    2.3105   -0.8043   -0.2713 H   0  0  0  0  0  0  0  0  0  0  0  0
   -0.7856   -0.6780   -1.8774 C   0  0  0  0  0  0  0  0  0  0  0  0
   -0.7376   -0.0782   -2.7872 H   0  0  0  0  0  0  0  0  0  0  0  0
   -0.6053   -1.7193   -2.1443 H   0  0  0  0  0  0  0  0  0  0  0  0
   -2.2082   -0.5912   -1.3081 C   0  0  0  0  0  0  0  0  0  0  0  0
   -2.4828    0.4469   -1.1220 H   0  0  0  0  0  0  0  0  0  0  0  0
   -2.9100   -1.0117   -2.0287 H   0  0  0  0  0  0  0  0  0  0  0  0
   -2.2732   -1.1577   -0.3784 H   0  0  0  0  0  0  0  0  0  0  0  0
   -0.3971    1.3008    1.0689 C   0  0  0  0  0  0  0  0  0  0  0  0
   -1.3643    1.9819    0.7311 O   0  0  0  0  0  0  0  0  0  0  0  0
    0.5522    1.7647    1.8915 N   0  0  0  0  0  0  0  0  0  0  0  0
    1.3093    1.1450    2.1332 H   0  0  0  0  0  0  0  0  0  0  0  0
    0.5577    3.1119    2.4582 C   0  0  0  0  0  0  0  0  0  0  0  0
   -0.3986    3.3098    2.9475 H   0  0  0  0  0  0  0  0  0  0  0  0
    1.3619    3.2123    3.1886 H   0  0  0  0  0  0  0  0  0  0  0  0
    0.6974    3.8450    1.6614 H   0  0  0  0  0  0  0  0  0  0  0  0
  5  6  2  0  0  0  0
  5  7  1  0  0  0  0
  2  3  1  0  0  0  0
  2  4  1  0  0  0  0
  2  5  1  0  0  0  0
  1  2  1  0  0  0  0
 24 25  2  0  0  0  0
 24 26  1  0  0  0  0
 20 21  1  0  0  0  0
 20 22  1  0  0  0  0
 20 23  1  0  0  0  0
 17 18  1  0  0  0  0
 17 19  1  0  0  0  0
 17 20  1  0  0  0  0
 13 14  1  0  0  0  0
 13 15  1  0  0  0  0
 13 16  1  0  0  0  0
 11 12  1  0  0  0  0
 11 13  1  0  0  0  0
 11 17  1  0  0  0  0
  9 10  1  0  0  0  0
  9 11  1  0  0  0  0
  9 24  1  0  0  0  0
  7  8  1  0  0  0  0
  7  9  1  0  0  0  0
 28 29  1  0  0  0  0
 28 30  1  0  0  0  0
 28 31  1  0  0  0  0
 26 27  1  0  0  0  0
 26 28  1  0  0  0  0
M  END
$$$$
default_name
  -OEChem-02102213163D

 31 30  0     1  0  0  0  0  0999 V2000
   -3.0760   -3.6390    1.5496 H   0  0  0  0  0  0  0  0  0  0  0  0
   -3.0940   -2.6290    1.1426 C   0  0  0  0  0  0  0  0  0  0  0  0
   -3.7160   -1.9930    1.7706 H   0  0  0  0  0  0  0  0  0  0  0  0
   -3.4880   -2.6500    0.1286 H   0  0  0  0  0  0  0  0  0  0  0  0
   -1.6860   -2.0850    1.1196 C   0  0  0  0  0  0  0  0  0  0  0  0
   -0.7540   -2.7700    1.5226 O   0  0  0  0  0  0  0  0  0  0  0  0
   -1.5320   -0.8490    0.6496 N   0  0  0  0  0  0  0  0  0  0  0  0
   -2.3500   -0.3360    0.3566 H   0  0  0  0  0  0  0  0  0  0  0  0
   -0.2470   -0.1410    0.5576 C   0  0  1  0  0  0  0  0  0  0  0  0
    0.4572   -0.6505    1.2162 H   0  0  0  0  0  0  0  0  0  0  0  0
    0.3091   -0.2220   -0.8868 C   0  0  1  0  0  0  0  0  0  0  0  0
    0.6071    0.7883   -1.1739 H   0  0  0  0  0  0  0  0  0  0  0  0
    1.5537   -1.1244   -0.9884 C   0  0  0  0  0  0  0  0  0  0  0  0
    1.2920   -2.1640   -0.7835 H   0  0  0  0  0  0  0  0  0  0  0  0
    1.9897   -1.0569   -1.9839 H   0  0  0  0  0  0  0  0  0  0  0  0
    2.3105   -0.8043   -0.2713 H   0  0  0  0  0  0  0  0  0  0  0  0
   -0.7856   -0.6780   -1.8774 C   0  0  0  0  0  0  0  0  0  0  0  0
   -0.5792   -0.2771   -2.8706 H   0  0  0  0  0  0  0  0  0  0  0  0
   -0.7722   -1.7662   -1.9381 H   0  0  0  0  0  0  0  0  0  0  0  0
   -2.2037   -0.2600   -1.4655 C   0  0  0  0  0  0  0  0  0  0  0  0
   -2.3054    0.8248   -1.4921 H   0  0  0  0  0  0  0  0  0  0  0  0
   -2.9225   -0.6927   -2.1618 H   0  0  0  0  0  0  0  0  0  0  0  0
   -2.4222   -0.6220   -0.4603 H   0  0  0  0  0  0  0  0  0  0  0  0
   -0.3971    1.3008    1.0689 C   0  0  0  0  0  0  0  0  0  0  0  0
   -1.3643    1.9819    0.7311 O   0  0  0  0  0  0  0  0  0  0  0  0
    0.5522    1.7647    1.8915 N   0  0  0  0  0  0  0  0  0  0  0  0
    1.3093    1.1450    2.1332 H   0  0  0  0  0  0  0  0  0  0  0  0
    0.5577    3.1119    2.4582 C   0  0  0  0  0  0  0  0  0  0  0  0
   -0.3986    3.3098    2.9475 H   0  0  0  0  0  0  0  0  0  0  0  0
    1.3619    3.2123    3.1886 H   0  0  0  0  0  0  0  0  0  0  0  0
    0.6974    3.8450    1.6614 H   0  0  0  0  0  0  0  0  0  0  0  0
  5  6  2  0  0  0  0
  5  7  1  0  0  0  0
  2  3  1  0  0  0  0
  2  4  1  0  0  0  0
  2  5  1  0  0  0  0
  1  2  1  0  0  0  0
 24 25  2  0  0  0  0
 24 26  1  0  0  0  0
 20 21  1  0  0  0  0
 20 22  1  0  0  0  0
 20 23  1  0  0  0  0
 17 18  1  0  0  0  0
 17 19  1  0  0  0  0
 17 20  1  0  0  0  0
 13 14  1  0  0  0  0
 13 15  1  0  0  0  0
 13 16  1  0  0  0  0
 11 12  1  0  0  0  0
 11 13  1  0  0  0  0
 11 17  1  0  0  0  0
  9 10  1  0  0  0  0
  9 11  1  0  0  0  0
  9 24  1  0  0  0  0
  7  8  1  0  0  0  0
  7  9  1  0  0  0  0
 28 29  1  0  0  0  0
 28 30  1  0  0  0  0
 28 31  1  0  0  0  0
 26 27  1  0  0  0  0
 26 28  1  0  0  0  0
M  END
$$$$
default_name
  -OEChem-02102213163D

 31 30  0     1  0  0  0  0  0999 V2000
   -3.0760   -3.6390    1.5496 H   0  0  0  0  0  0  0  0  0  0  0  0
   -3.0940   -2.6290    1.1426 C   0  0  0  0  0  0  0  0  0  0  0  0
   -3.7160   -1.9930    1.7706 H   0  0  0  0  0  0  0  0  0  0  0  0
   -3.4880   -2.6500    0.1286 H   0  0  0  0  0  0  0  0  0  0  0  0
   -1.6860   -2.0850    1.1196 C   0  0  0  0  0  0  0  0  0  0  0  0
   -0.7540   -2.7700    1.5226 O   0  0  0  0  0  0  0  0  0  0  0  0
   -1.5320   -0.8490    0.6496 N   0  0  0  0  0  0  0  0  0  0  0  0
   -2.3500   -0.3360    0.3566 H   0  0  0  0  0  0  0  0  0  0  0  0
   -0.2470   -0.1410    0.5576 C   0  0  1  0  0  0  0  0  0  0  0  0
    0.4572   -0.6505    1.2162 H   0  0  0  0  0  0  0  0  0  0  0  0
    0.3091   -0.2220   -0.8868 C   0  0  1  0  0  0  0  0  0  0  0  0
    0.6071    0.7883   -1.1739 H   0  0  0  0  0  0  0  0  0  0  0  0
    1.5537   -1.1244   -0.9884 C   0  0  0  0  0  0  0  0  0  0  0  0
    1.2920   -2.1640   -0.7835 H   0  0  0  0  0  0  0  0  0  0  0  0
    1.9897   -1.0569   -1.9839 H   0  0  0  0  0  0  0  0  0  0  0  0
    2.3105   -0.8043   -0.2713 H   0  0  0  0  0  0  0  0  0  0  0  0
   -0.7856   -0.6780   -1.8774 C   0  0  0  0  0  0  0  0  0  0  0  0
   -0.4528   -0.5109   -2.9026 H   0  0  0  0  0  0  0  0  0  0  0  0
   -0.9571   -1.7460   -1.7432 H   0  0  0  0  0  0  0  0  0  0  0  0
   -2.1324    0.0303   -1.6780 C   0  0  0  0  0  0  0  0  0  0  0  0
   -2.0430    1.0925   -1.9053 H   0  0  0  0  0  0  0  0  0  0  0  0
   -2.8714   -0.4069   -2.3498 H   0  0  0  0  0  0  0  0  0  0  0  0
   -2.4711   -0.0949   -0.6490 H   0  0  0  0  0  0  0  0  0  0  0  0
   -0.3971    1.3008    1.0689 C   0  0  0  0  0  0  0  0  0  0  0  0
   -1.3643    1.9819    0.7311 O   0  0  0  0  0  0  0  0  0  0  0  0
    0.5522    1.7647    1.8915 N   0  0  0  0  0  0  0  0  0  0  0  0
    1.3093    1.1450    2.1332 H   0  0  0  0  0  0  0  0  0  0  0  0
    0.5577    3.1119    2.4582 C   0  0  0  0  0  0  0  0  0  0  0  0
   -0.3986    3.3098    2.9475 H   0  0  0  0  0  0  0  0  0  0  0  0
    1.3619    3.2123    3.1886 H   0  0  0  0  0  0  0  0  0  0  0  0
    0.6974    3.8450    1.6614 H   0  0  0  0  0  0  0  0  0  0  0  0
  5  6  2  0  0  0  0
  5  7  1  0  0  0  0
  2  3  1  0  0  0  0
  2  4  1  0  0  0  0
  2  5  1  0  0  0  0
  1  2  1  0  0  0  0
 24 25  2  0  0  0  0
 24 26  1  0  0  0  0
 20 21  1  0  0  0  0
 20 22  1  0  0  0  0
 20 23  1  0  0  0  0
 17 18  1  0  0  0  0
 17 19  1  0  0  0  0
 17 20  1  0  0  0  0
 13 14  1  0  0  0  0
 13 15  1  0  0  0  0
 13 16  1  0  0  0  0
 11 12  1  0  0  0  0
 11 13  1  0  0  0  0
 11 17  1  0  0  0  0
  9 10  1  0  0  0  0
  9 11  1  0  0  0  0
  9 24  1  0  0  0  0
  7  8  1  0  0  0  0
  7  9  1  0  0  0  0
 28 29  1  0  0  0  0
 28 30  1  0  0  0  0
 28 31  1  0  0  0  0
 26 27  1  0  0  0  0
 26 28  1  0  0  0  0
M  END
$$$$
default_name
  -OEChem-02102213163D

 31 30  0     1  0  0  0  0  0999 V2000
   -3.0760   -3.6390    1.5496 H   0  0  0  0  0  0  0  0  0  0  0  0
   -3.0940   -2.6290    1.1426 C   0  0  0  0  0  0  0  0  0  0  0  0
   -3.7160   -1.9930    1.7706 H   0  0  0  0  0  0  0  0  0  0  0  0
   -3.4880   -2.6500    0.1286 H   0  0  0  0  0  0  0  0  0  0  0  0
   -1.6860   -2.0850    1.1196 C   0  0  0  0  0  0  0  0  0  0  0  0
   -0.7540   -2.7700    1.5226 O   0  0  0  0  0  0  0  0  0  0  0  0
   -1.5320   -0.8490    0.6496 N   0  0  0  0  0  0  0  0  0  0  0  0
   -2.3500   -0.3360    0.3566 H   0  0  0  0  0  0  0  0  0  0  0  0
   -0.2470   -0.1410    0.5576 C   0  0  1  0  0  0  0  0  0  0  0  0
    0.4572   -0.6505    1.2162 H   0  0  0  0  0  0  0  0  0  0  0  0
    0.3091   -0.2220   -0.8868 C   0  0  1  0  0  0  0  0  0  0  0  0
    0.6071    0.7883   -1.1739 H   0  0  0  0  0  0  0  0  0  0  0  0
    1.5537   -1.1244   -0.9884 C   0  0  0  0  0  0  0  0  0  0  0  0
    1.2920   -2.1640   -0.7835 H   0  0  0  0  0  0  0  0  0  0  0  0
    1.9897   -1.0569   -1.9839 H   0  0  0  0  0  0  0  0  0  0  0  0
    2.3105   -0.8043   -0.2713 H   0  0  0  0  0  0  0  0  0  0  0  0
   -0.7856   -0.6780   -1.8774 C   0  0  0  0  0  0  0  0  0  0  0  0
   -0.3671   -0.7636   -2.8811 H   0  0  0  0  0  0  0  0  0  0  0  0
   -1.1471   -1.6601   -1.5727 H   0  0  0  0  0  0  0  0  0  0  0  0
   -1.9991    0.2600   -1.9311 C   0  0  0  0  0  0  0  0  0  0  0  0
   -1.7136    1.2317   -2.3335 H   0  0  0  0  0  0  0  0  0  0  0  0
   -2.7604   -0.1738   -2.5798 H   0  0  0  0  0  0  0  0  0  0  0  0
   -2.4164    0.3878   -0.9316 H   0  0  0  0  0  0  0  0  0  0  0  0
   -0.3971    1.3008    1.0689 C   0  0  0  0  0  0  0  0  0  0  0  0
   -1.3643    1.9819    0.7311 O   0  0  0  0  0  0  0  0  0  0  0  0
    0.5522    1.7647    1.8915 N   0  0  0  0  0  0  0  0  0  0  0  0
    1.3093    1.1450    2.1332 H   0  0  0  0  0  0  0  0  0  0  0  0
    0.5577    3.1119    2.4582 C   0  0  0  0  0  0  0  0  0  0  0  0
   -0.3986    3.3098    2.9475 H   0  0  0  0  0  0  0  0  0  0  0  0
    1.3619    3.2123    3.1886 H   0  0  0  0  0  0  0  0  0  0  0  0
    0.6974    3.8450    1.6614 H   0  0  0  0  0  0  0  0  0  0  0  0
  5  6  2  0  0  0  0
  5  7  1  0  0  0  0
  2  3  1  0  0  0  0
  2  4  1  0  0  0  0
  2  5  1  0  0  0  0
  1  2  1  0  0  0  0
 24 25  2  0  0  0  0
 24 26  1  0  0  0  0
 20 21  1  0  0  0  0
 20 22  1  0  0  0  0
 20 23  1  0  0  0  0
 17 18  1  0  0  0  0
 17 19  1  0  0  0  0
 17 20  1  0  0  0  0
 13 14  1  0  0  0  0
 13 15  1  0  0  0  0
 13 16  1  0  0  0  0
 11 12  1  0  0  0  0
 11 13  1  0  0  0  0
 11 17  1  0  0  0  0
  9 10  1  0  0  0  0
  9 11  1  0  0  0  0
  9 24  1  0  0  0  0
  7  8  1  0  0  0  0
  7  9  1  0  0  0  0
 28 29  1  0  0  0  0
 28 30  1  0  0  0  0
 28 31  1  0  0  0  0
 26 27  1  0  0  0  0
 26 28  1  0  0  0  0
M  END
$$$$
default_name
  -OEChem-02102213163D

 31 30  0     1  0  0  0  0  0999 V2000
   -3.0760   -3.6390    1.5496 H   0  0  0  0  0  0  0  0  0  0  0  0
   -3.0940   -2.6290    1.1426 C   0  0  0  0  0  0  0  0  0  0  0  0
   -3.7160   -1.9930    1.7706 H   0  0  0  0  0  0  0  0  0  0  0  0
   -3.4880   -2.6500    0.1286 H   0  0  0  0  0  0  0  0  0  0  0  0
   -1.6860   -2.0850    1.1196 C   0  0  0  0  0  0  0  0  0  0  0  0
   -0.7540   -2.7700    1.5226 O   0  0  0  0  0  0  0  0  0  0  0  0
   -1.5320   -0.8490    0.6496 N   0  0  0  0  0  0  0  0  0  0  0  0
   -2.3500   -0.3360    0.3566 H   0  0  0  0  0  0  0  0  0  0  0  0
   -0.2470   -0.1410    0.5576 C   0  0  1  0  0  0  0  0  0  0  0  0
    0.4572   -0.6505    1.2162 H   0  0  0  0  0  0  0  0  0  0  0  0
    0.3091   -0.2220   -0.8868 C   0  0  1  0  0  0  0  0  0  0  0  0
    0.6071    0.7883   -1.1739 H   0  0  0  0  0  0  0  0  0  0  0  0
    1.5537   -1.1244   -0.9884 C   0  0  0  0  0  0  0  0  0  0  0  0
    1.2920   -2.1640   -0.7835 H   0  0  0  0  0  0  0  0  0  0  0  0
    1.9897   -1.0569   -1.9839 H   0  0  0  0  0  0  0  0  0  0  0  0
    2.3105   -0.8043   -0.2713 H   0  0  0  0  0  0  0  0  0  0  0  0
   -0.7856   -0.6780   -1.8774 C   0  0  0  0  0  0  0  0  0  0  0  0
   -0.3279   -1.0179   -2.8073 H   0  0  0  0  0  0  0  0  0  0  0  0
   -1.3295   -1.5143   -1.4382 H   0  0  0  0  0  0  0  0  0  0  0  0
   -1.8129    0.4133   -2.2074 C   0  0  0  0  0  0  0  0  0  0  0  0
   -1.3396    1.2331   -2.7475 H   0  0  0  0  0  0  0  0  0  0  0  0
   -2.5968   -0.0093   -2.8363 H   0  0  0  0  0  0  0  0  0  0  0  0
   -2.2619    0.7931   -1.2890 H   0  0  0  0  0  0  0  0  0  0  0  0
   -0.3971    1.3008    1.0689 C   0  0  0  0  0  0  0  0  0  0  0  0
   -1.3643    1.9819    0.7311 O   0  0  0  0  0  0  0  0  0  0  0  0
    0.5522    1.7647    1.8915 N   0  0  0  0  0  0  0  0  0  0  0  0
    1.3093    1.1450    2.1332 H   0  0  0  0  0  0  0  0  0  0  0  0
    0.5577    3.1119    2.4582 C   0  0  0  0  0  0  0  0  0  0  0  0
   -0.3986    3.3098    2.9475 H   0  0  0  0  0  0  0  0  0  0  0  0
    1.3619    3.2123    3.1886 H   0  0  0  0  0  0  0  0  0  0  0  0
    0.6974    3.8450    1.6614 H   0  0  0  0  0  0  0  0  0  0  0  0
  5  6  2  0  0  0  0
  5  7  1  0  0  0  0
  2  3  1  0  0  0  0
  2  4  1  0  0  0  0
  2  5  1  0  0  0  0
  1  2  1  0  0  0  0
 24 25  2  0  0  0  0
 24 26  1  0  0  0  0
 20 21  1  0  0  0  0
 20 22  1  0  0  0  0
 20 23  1  0  0  0  0
 17 18  1  0  0  0  0
 17 19  1  0  0  0  0
 17 20  1  0  0  0  0
 13 14  1  0  0  0  0
 13 15  1  0  0  0  0
 13 16  1  0  0  0  0
 11 12  1  0  0  0  0
 11 13  1  0  0  0  0
 11 17  1  0  0  0  0
  9 10  1  0  0  0  0
  9 11  1  0  0  0  0
  9 24  1  0  0  0  0
  7  8  1  0  0  0  0
  7  9  1  0  0  0  0
 28 29  1  0  0  0  0
 28 30  1  0  0  0  0
 28 31  1  0  0  0  0
 26 27  1  0  0  0  0
 26 28  1  0  0  0  0
M  END
$$$$
default_name
  -OEChem-02102213163D

 31 30  0     1  0  0  0  0  0999 V2000
   -3.0760   -3.6390    1.5496 H   0  0  0  0  0  0  0  0  0  0  0  0
   -3.0940   -2.6290    1.1426 C   0  0  0  0  0  0  0  0  0  0  0  0
   -3.7160   -1.9930    1.7706 H   0  0  0  0  0  0  0  0  0  0  0  0
   -3.4880   -2.6500    0.1286 H   0  0  0  0  0  0  0  0  0  0  0  0
   -1.6860   -2.0850    1.1196 C   0  0  0  0  0  0  0  0  0  0  0  0
   -0.7540   -2.7700    1.5226 O   0  0  0  0  0  0  0  0  0  0  0  0
   -1.5320   -0.8490    0.6496 N   0  0  0  0  0  0  0  0  0  0  0  0
   -2.3500   -0.3360    0.3566 H   0  0  0  0  0  0  0  0  0  0  0  0
   -0.2470   -0.1410    0.5576 C   0  0  1  0  0  0  0  0  0  0  0  0
    0.4572   -0.6505    1.2162 H   0  0  0  0  0  0  0  0  0  0  0  0
    0.3091   -0.2220   -0.8868 C   0  0  1  0  0  0  0  0  0  0  0  0
    0.6071    0.7883   -1.1739 H   0  0  0  0  0  0  0  0  0  0  0  0
    1.5537   -1.1244   -0.9884 C   0  0  0  0  0  0  0  0  0  0  0  0
    1.2920   -2.1640   -0.7835 H   0  0  0  0  0  0  0  0  0  0  0  0
    1.9897   -1.0569   -1.9839 H   0  0  0  0  0  0  0  0  0  0  0  0
    2.3105   -0.8043   -0.2713 H   0  0  0  0  0  0  0  0  0  0  0  0
   -0.7856   -0.6780   -1.8774 C   0  0  0  0  0  0  0  0  0  0  0  0
   -0.3378   -1.2565   -2.6865 H   0  0  0  0  0  0  0  0  0  0  0  0
   -1.4917   -1.3186   -1.3490 H   0  0  0  0  0  0  0  0  0  0  0  0
   -1.5866    0.4798   -2.4882 C   0  0  0  0  0  0  0  0  0  0  0  0
   -0.9465    1.0965   -3.1190 H   0  0  0  0  0  0  0  0  0  0  0  0
   -2.3919    0.0755   -3.1018 H   0  0  0  0  0  0  0  0  0  0  0  0
   -2.0181    1.0934   -1.6967 H   0  0  0  0  0  0  0  0  0  0  0  0
   -0.3971    1.3008    1.0689 C   0  0  0  0  0  0  0  0  0  0  0  0
   -1.3643    1.9819    0.7311 O   0  0  0  0  0  0  0  0  0  0  0  0
    0.5522    1.7647    1.8915 N   0  0  0  0  0  0  0  0  0  0  0  0
    1.3093    1.1450    2.1332 H   0  0  0  0  0  0  0  0  0  0  0  0
    0.5577    3.1119    2.4582 C   0  0  0  0  0  0  0  0  0  0  0  0
   -0.3986    3.3098    2.9475 H   0  0  0  0  0  0  0  0  0  0  0  0
    1.3619    3.2123    3.1886 H   0  0  0  0  0  0  0  0  0  0  0  0
    0.6974    3.8450    1.6614 H   0  0  0  0  0  0  0  0  0  0  0  0
  5  6  2  0  0  0  0
  5  7  1  0  0  0  0
  2  3  1  0  0  0  0
  2  4  1  0  0  0  0
  2  5  1  0  0  0  0
  1  2  1  0  0  0  0
 24 25  2  0  0  0  0
 24 26  1  0  0  0  0
 20 21  1  0  0  0  0
 20 22  1  0  0  0  0
 20 23  1  0  0  0  0
 17 18  1  0  0  0  0
 17 19  1  0  0  0  0
 17 20  1  0  0  0  0
 13 14  1  0  0  0  0
 13 15  1  0  0  0  0
 13 16  1  0  0  0  0
 11 12  1  0  0  0  0
 11 13  1  0  0  0  0
 11 17  1  0  0  0  0
  9 10  1  0  0  0  0
  9 11  1  0  0  0  0
  9 24  1  0  0  0  0
  7  8  1  0  0  0  0
  7  9  1  0  0  0  0
 28 29  1  0  0  0  0
 28 30  1  0  0  0  0
 28 31  1  0  0  0  0
 26 27  1  0  0  0  0
 26 28  1  0  0  0  0
M  END
$$$$
default_name
  -OEChem-02102213163D

 31 30  0     1  0  0  0  0  0999 V2000
   -3.0760   -3.6390    1.5496 H   0  0  0  0  0  0  0  0  0  0  0  0
   -3.0940   -2.6290    1.1426 C   0  0  0  0  0  0  0  0  0  0  0  0
   -3.7160   -1.9930    1.7706 H   0  0  0  0  0  0  0  0  0  0  0  0
   -3.4880   -2.6500    0.1286 H   0  0  0  0  0  0  0  0  0  0  0  0
   -1.6860   -2.0850    1.1196 C   0  0  0  0  0  0  0  0  0  0  0  0
   -0.7540   -2.7700    1.5226 O   0  0  0  0  0  0  0  0  0  0  0  0
   -1.5320   -0.8490    0.6496 N   0  0  0  0  0  0  0  0  0  0  0  0
   -2.3500   -0.3360    0.3566 H   0  0  0  0  0  0  0  0  0  0  0  0
   -0.2470   -0.1410    0.5576 C   0  0  1  0  0  0  0  0  0  0  0  0
    0.4572   -0.6505    1.2162 H   0  0  0  0  0  0  0  0  0  0  0  0
    0.3091   -0.2220   -0.8868 C   0  0  1  0  0  0  0  0  0  0  0  0
    0.6071    0.7883   -1.1739 H   0  0  0  0  0  0  0  0  0  0  0  0
    1.5537   -1.1244   -0.9884 C   0  0  0  0  0  0  0  0  0  0  0  0
    1.2920   -2.1640   -0.7835 H   0  0  0  0  0  0  0  0  0  0  0  0
    1.9897   -1.0569   -1.9839 H   0  0  0  0  0  0  0  0  0  0  0  0
    2.3105   -0.8043   -0.2713 H   0  0  0  0  0  0  0  0  0  0  0  0
   -0.7856   -0.6780   -1.8774 C   0  0  0  0  0  0  0  0  0  0  0  0
   -0.3963   -1.4632   -2.5267 H   0  0  0  0  0  0  0  0  0  0  0  0
   -1.6228   -1.0862   -1.3112 H   0  0  0  0  0  0  0  0  0  0  0  0
   -1.3354    0.4550   -2.7544 C   0  0  0  0  0  0  0  0  0  0  0  0
   -0.5611    0.8311   -3.4228 H   0  0  0  0  0  0  0  0  0  0  0  0
   -2.1597    0.0747   -3.3581 H   0  0  0  0  0  0  0  0  0  0  0  0
   -1.7017    1.2683   -2.1269 H   0  0  0  0  0  0  0  0  0  0  0  0
   -0.3971    1.3008    1.0689 C   0  0  0  0  0  0  0  0  0  0  0  0
   -1.3643    1.9819    0.7311 O   0  0  0  0  0  0  0  0  0  0  0  0
    0.5522    1.7647    1.8915 N   0  0  0  0  0  0  0  0  0  0  0  0
    1.3093    1.1450    2.1332 H   0  0  0  0  0  0  0  0  0  0  0  0
    0.5577    3.1119    2.4582 C   0  0  0  0  0  0  0  0  0  0  0  0
   -0.3986    3.3098    2.9475 H   0  0  0  0  0  0  0  0  0  0  0  0
    1.3619    3.2123    3.1886 H   0  0  0  0  0  0  0  0  0  0  0  0
    0.6974    3.8450    1.6614 H   0  0  0  0  0  0  0  0  0  0  0  0
  5  6  2  0  0  0  0
  5  7  1  0  0  0  0
  2  3  1  0  0  0  0
  2  4  1  0  0  0  0
  2  5  1  0  0  0  0
  1  2  1  0  0  0  0
 24 25  2  0  0  0  0
 24 26  1  0  0  0  0
 20 21  1  0  0  0  0
 20 22  1  0  0  0  0
 20 23  1  0  0  0  0
 17 18  1  0  0  0  0
 17 19  1  0  0  0  0
 17 20  1  0  0  0  0
 13 14  1  0  0  0  0
 13 15  1  0  0  0  0
 13 16  1  0  0  0  0
 11 12  1  0  0  0  0
 11 13  1  0  0  0  0
 11 17  1  0  0  0  0
  9 10  1  0  0  0  0
  9 11  1  0  0  0  0
  9 24  1  0  0  0  0
  7  8  1  0  0  0  0
  7  9  1  0  0  0  0
 28 29  1  0  0  0  0
 28 30  1  0  0  0  0
 28 31  1  0  0  0  0
 26 27  1  0  0  0  0
 26 28  1  0  0  0  0
M  END
$$$$
default_name
  -OEChem-02102213163D

 31 30  0     1  0  0  0  0  0999 V2000
   -3.0760   -3.6390    1.5496 H   0  0  0  0  0  0  0  0  0  0  0  0
   -3.0940   -2.6290    1.1426 C   0  0  0  0  0  0  0  0  0  0  0  0
   -3.7160   -1.9930    1.7706 H   0  0  0  0  0  0  0  0  0  0  0  0
   -3.4880   -2.6500    0.1286 H   0  0  0  0  0  0  0  0  0  0  0  0
   -1.6860   -2.0850    1.1196 C   0  0  0  0  0  0  0  0  0  0  0  0
   -0.7540   -2.7700    1.5226 O   0  0  0  0  0  0  0  0  0  0  0  0
   -1.5320   -0.8490    0.6496 N   0  0  0  0  0  0  0  0  0  0  0  0
   -2.3500   -0.3360    0.3566 H   0  0  0  0  0  0  0  0  0  0  0  0
   -0.2470   -0.1410    0.5576 C   0  0  1  0  0  0  0  0  0  0  0  0
    0.4572   -0.6505    1.2162 H   0  0  0  0  0  0  0  0  0  0  0  0
    0.3091   -0.2220   -0.8868 C   0  0  1  0  0  0  0  0  0  0  0  0
    0.6071    0.7883   -1.1739 H   0  0  0  0  0  0  0  0  0  0  0  0
    1.5537   -1.1244   -0.9884 C   0  0  0  0  0  0  0  0  0  0  0  0
    1.2920   -2.1640   -0.7835 H   0  0  0  0  0  0  0  0  0  0  0  0
    1.9897   -1.0569   -1.9839 H   0  0  0  0  0  0  0  0  0  0  0  0
    2.3105   -0.8043   -0.2713 H   0  0  0  0  0  0  0  0  0  0  0  0
   -0.7856   -0.6780   -1.8774 C   0  0  0  0  0  0  0  0  0  0  0  0
   -0.4992   -1.6239   -2.3390 H   0  0  0  0  0  0  0  0  0  0  0  0
   -1.7137   -0.8331   -1.3272 H   0  0  0  0  0  0  0  0  0  0  0  0
   -1.0766    0.3406   -2.9878 C   0  0  0  0  0  0  0  0  0  0  0  0
   -0.2097    0.4552   -3.6382 H   0  0  0  0  0  0  0  0  0  0  0  0
   -1.9160   -0.0116   -3.5878 H   0  0  0  0  0  0  0  0  0  0  0  0
   -1.3342    1.3059   -2.5504 H   0  0  0  0  0  0  0  0  0  0  0  0
   -0.3971    1.3008    1.0689 C   0  0  0  0  0  0  0  0  0  0  0  0
   -1.3643    1.9819    0.7311 O   0  0  0  0  0  0  0  0  0  0  0  0
    0.5522    1.7647    1.8915 N   0  0  0  0  0  0  0  0  0  0  0  0
    1.3093    1.1450    2.1332 H   0  0  0  0  0  0  0  0  0  0  0  0
    0.5577    3.1119    2.4582 C   0  0  0  0  0  0  0  0  0  0  0  0
   -0.3986    3.3098    2.9475 H   0  0  0  0  0  0  0  0  0  0  0  0
    1.3619    3.2123    3.1886 H   0  0  0  0  0  0  0  0  0  0  0  0
    0.6974    3.8450    1.6614 H   0  0  0  0  0  0  0  0  0  0  0  0
  5  6  2  0  0  0  0
  5  7  1  0  0  0  0
  2  3  1  0  0  0  0
  2  4  1  0  0  0  0
  2  5  1  0  0  0  0
  1  2  1  0  0  0  0
 24 25  2  0  0  0  0
 24 26  1  0  0  0  0
 20 21  1  0  0  0  0
 20 22  1  0  0  0  0
 20 23  1  0  0  0  0
 17 18  1  0  0  0  0
 17 19  1  0  0  0  0
 17 20  1  0  0  0  0
 13 14  1  0  0  0  0
 13 15  1  0  0  0  0
 13 16  1  0  0  0  0
 11 12  1  0  0  0  0
 11 13  1  0  0  0  0
 11 17  1  0  0  0  0
  9 10  1  0  0  0  0
  9 11  1  0  0  0  0
  9 24  1  0  0  0  0
  7  8  1  0  0  0  0
  7  9  1  0  0  0  0
 28 29  1  0  0  0  0
 28 30  1  0  0  0  0
 28 31  1  0  0  0  0
 26 27  1  0  0  0  0
 26 28  1  0  0  0  0
M  END
$$$$
default_name
  -OEChem-02102213163D

 31 30  0     1  0  0  0  0  0999 V2000
   -3.0760   -3.6390    1.5496 H   0  0  0  0  0  0  0  0  0  0  0  0
   -3.0940   -2.6290    1.1426 C   0  0  0  0  0  0  0  0  0  0  0  0
   -3.7160   -1.9930    1.7706 H   0  0  0  0  0  0  0  0  0  0  0  0
   -3.4880   -2.6500    0.1286 H   0  0  0  0  0  0  0  0  0  0  0  0
   -1.6860   -2.0850    1.1196 C   0  0  0  0  0  0  0  0  0  0  0  0
   -0.7540   -2.7700    1.5226 O   0  0  0  0  0  0  0  0  0  0  0  0
   -1.5320   -0.8490    0.6496 N   0  0  0  0  0  0  0  0  0  0  0  0
   -2.3500   -0.3360    0.3566 H   0  0  0  0  0  0  0  0  0  0  0  0
   -0.2470   -0.1410    0.5576 C   0  0  1  0  0  0  0  0  0  0  0  0
    0.4572   -0.6505    1.2162 H   0  0  0  0  0  0  0  0  0  0  0  0
    0.3091   -0.2220   -0.8868 C   0  0  1  0  0  0  0  0  0  0  0  0
    0.6071    0.7883   -1.1739 H   0  0  0  0  0  0  0  0  0  0  0  0
    1.5537   -1.1244   -0.9884 C   0  0  0  0  0  0  0  0  0  0  0  0
    1.2920   -2.1640   -0.7835 H   0  0  0  0  0  0  0  0  0  0  0  0
    1.9897   -1.0569   -1.9839 H   0  0  0  0  0  0  0  0  0  0  0  0
    2.3105   -0.8043   -0.2713 H   0  0  0  0  0  0  0  0  0  0  0  0
   -0.7856   -0.6780   -1.8774 C   0  0  0  0  0  0  0  0  0  0  0  0
   -0.6396   -1.7276   -2.1361 H   0  0  0  0  0  0  0  0  0  0  0  0
   -1.7583   -0.5765   -1.3960 H   0  0  0  0  0  0  0  0  0  0  0  0
   -0.8278    0.1444   -3.1724 C   0  0  0  0  0  0  0  0  0  0  0  0
    0.0839   -0.0058   -3.7504 H   0  0  0  0  0  0  0  0  0  0  0  0
   -1.6773   -0.1775   -3.7752 H   0  0  0  0  0  0  0  0  0  0  0  0
   -0.9406    1.2035   -2.9383 H   0  0  0  0  0  0  0  0  0  0  0  0
   -0.3971    1.3008    1.0689 C   0  0  0  0  0  0  0  0  0  0  0  0
   -1.3643    1.9819    0.7311 O   0  0  0  0  0  0  0  0  0  0  0  0
    0.5522    1.7647    1.8915 N   0  0  0  0  0  0  0  0  0  0  0  0
    1.3093    1.1450    2.1332 H   0  0  0  0  0  0  0  0  0  0  0  0
    0.5577    3.1119    2.4582 C   0  0  0  0  0  0  0  0  0  0  0  0
   -0.3986    3.3098    2.9475 H   0  0  0  0  0  0  0  0  0  0  0  0
    1.3619    3.2123    3.1886 H   0  0  0  0  0  0  0  0  0  0  0  0
    0.6974    3.8450    1.6614 H   0  0  0  0  0  0  0  0  0  0  0  0
  5  6  2  0  0  0  0
  5  7  1  0  0  0  0
  2  3  1  0  0  0  0
  2  4  1  0  0  0  0
  2  5  1  0  0  0  0
  1  2  1  0  0  0  0
 24 25  2  0  0  0  0
 24 26  1  0  0  0  0
 20 21  1  0  0  0  0
 20 22  1  0  0  0  0
 20 23  1  0  0  0  0
 17 18  1  0  0  0  0
 17 19  1  0  0  0  0
 17 20  1  0  0  0  0
 13 14  1  0  0  0  0
 13 15  1  0  0  0  0
 13 16  1  0  0  0  0
 11 12  1  0  0  0  0
 11 13  1  0  0  0  0
 11 17  1  0  0  0  0
  9 10  1  0  0  0  0
  9 11  1  0  0  0  0
  9 24  1  0  0  0  0
  7  8  1  0  0  0  0
  7  9  1  0  0  0  0
 28 29  1  0  0  0  0
 28 30  1  0  0  0  0
 28 31  1  0  0  0  0
 26 27  1  0  0  0  0
 26 28  1  0  0  0  0
M  END
$$$$
default_name
  -OEChem-02102213163D

 31 30  0     1  0  0  0  0  0999 V2000
   -3.0760   -3.6390    1.5496 H   0  0  0  0  0  0  0  0  0  0  0  0
   -3.0940   -2.6290    1.1426 C   0  0  0  0  0  0  0  0  0  0  0  0
   -3.7160   -1.9930    1.7706 H   0  0  0  0  0  0  0  0  0  0  0  0
   -3.4880   -2.6500    0.1286 H   0  0  0  0  0  0  0  0  0  0  0  0
   -1.6860   -2.0850    1.1196 C   0  0  0  0  0  0  0  0  0  0  0  0
   -0.7540   -2.7700    1.5226 O   0  0  0  0  0  0  0  0  0  0  0  0
   -1.5320   -0.8490    0.6496 N   0  0  0  0  0  0  0  0  0  0  0  0
   -2.3500   -0.3360    0.3566 H   0  0  0  0  0  0  0  0  0  0  0  0
   -0.2470   -0.1410    0.5576 C   0  0  1  0  0  0  0  0  0  0  0  0
    0.4572   -0.6505    1.2162 H   0  0  0  0  0  0  0  0  0  0  0  0
    0.3091   -0.2220   -0.8868 C   0  0  1  0  0  0  0  0  0  0  0  0
    0.6071    0.7883   -1.1739 H   0  0  0  0  0  0  0  0  0  0  0  0
    1.5537   -1.1244   -0.9884 C   0  0  0  0  0  0  0  0  0  0  0  0
    1.2920   -2.1640   -0.7835 H   0  0  0  0  0  0  0  0  0  0  0  0
    1.9897   -1.0569   -1.9839 H   0  0  0  0  0  0  0  0  0  0  0  0
    2.3105   -0.8043   -0.2713 H   0  0  0  0  0  0  0  0  0  0  0  0
   -0.7856   -0.6780   -1.8774 C   0  0  0  0  0  0  0  0  0  0  0  0
   -0.8079   -1.7672   -1.9318 H   0  0  0  0  0  0  0  0  0  0  0  0
   -1.7535   -0.3339   -1.5130 H   0  0  0  0  0  0  0  0  0  0  0  0
   -0.6059   -0.1204   -3.2958 C   0  0  0  0  0  0  0  0  0  0  0  0
    0.2995   -0.5203   -3.7519 H   0  0  0  0  0  0  0  0  0  0  0  0
   -1.4600   -0.4117   -3.9075 H   0  0  0  0  0  0  0  0  0  0  0  0
   -0.5477    0.9682   -3.2641 H   0  0  0  0  0  0  0  0  0  0  0  0
   -0.3971    1.3008    1.0689 C   0  0  0  0  0  0  0  0  0  0  0  0
   -1.3643    1.9819    0.7311 O   0  0  0  0  0  0  0  0  0  0  0  0
    0.5522    1.7647    1.8915 N   0  0  0  0  0  0  0  0  0  0  0  0
    1.3093    1.1450    2.1332 H   0  0  0  0  0  0  0  0  0  0  0  0
    0.5577    3.1119    2.4582 C   0  0  0  0  0  0  0  0  0  0  0  0
   -0.3986    3.3098    2.9475 H   0  0  0  0  0  0  0  0  0  0  0  0
    1.3619    3.2123    3.1886 H   0  0  0  0  0  0  0  0  0  0  0  0
    0.6974    3.8450    1.6614 H   0  0  0  0  0  0  0  0  0  0  0  0
  5  6  2  0  0  0  0
  5  7  1  0  0  0  0
  2  3  1  0  0  0  0
  2  4  1  0  0  0  0
  2  5  1  0  0  0  0
  1  2  1  0  0  0  0
 24 25  2  0  0  0  0
 24 26  1  0  0  0  0
 20 21  1  0  0  0  0
 20 22  1  0  0  0  0
 20 23  1  0  0  0  0
 17 18  1  0  0  0  0
 17 19  1  0  0  0  0
 17 20  1  0  0  0  0
 13 14  1  0  0  0  0
 13 15  1  0  0  0  0
 13 16  1  0  0  0  0
 11 12  1  0  0  0  0
 11 13  1  0  0  0  0
 11 17  1  0  0  0  0
  9 10  1  0  0  0  0
  9 11  1  0  0  0  0
  9 24  1  0  0  0  0
  7  8  1  0  0  0  0
  7  9  1  0  0  0  0
 28 29  1  0  0  0  0
 28 30  1  0  0  0  0
 28 31  1  0  0  0  0
 26 27  1  0  0  0  0
 26 28  1  0  0  0  0
M  END
$$$$
default_name
  -OEChem-02102213163D

 31 30  0     1  0  0  0  0  0999 V2000
   -3.0760   -3.6390    1.5496 H   0  0  0  0  0  0  0  0  0  0  0  0
   -3.0940   -2.6290    1.1426 C   0  0  0  0  0  0  0  0  0  0  0  0
   -3.7160   -1.9930    1.7706 H   0  0  0  0  0  0  0  0  0  0  0  0
   -3.4880   -2.6500    0.1286 H   0  0  0  0  0  0  0  0  0  0  0  0
   -1.6860   -2.0850    1.1196 C   0  0  0  0  0  0  0  0  0  0  0  0
   -0.7540   -2.7700    1.5226 O   0  0  0  0  0  0  0  0  0  0  0  0
   -1.5320   -0.8490    0.6496 N   0  0  0  0  0  0  0  0  0  0  0  0
   -2.3500   -0.3360    0.3566 H   0  0  0  0  0  0  0  0  0  0  0  0
   -0.2470   -0.1410    0.5576 C   0  0  1  0  0  0  0  0  0  0  0  0
    0.4572   -0.6505    1.2162 H   0  0  0  0  0  0  0  0  0  0  0  0
    0.3091   -0.2220   -0.8868 C   0  0  1  0  0  0  0  0  0  0  0  0
    0.6071    0.7883   -1.1739 H   0  0  0  0  0  0  0  0  0  0  0  0
    1.5537   -1.1244   -0.9884 C   0  0  0  0  0  0  0  0  0  0  0  0
    1.2920   -2.1640   -0.7835 H   0  0  0  0  0  0  0  0  0  0  0  0
    1.9897   -1.0569   -1.9839 H   0  0  0  0  0  0  0  0  0  0  0  0
    2.3105   -0.8043   -0.2713 H   0  0  0  0  0  0  0  0  0  0  0  0
   -0.7856   -0.6780   -1.8774 C   0  0  0  0  0  0  0  0  0  0  0  0
   -0.9927   -1.7401   -1.7400 H   0  0  0  0  0  0  0  0  0  0  0  0
   -1.6997   -0.1217   -1.6701 H   0  0  0  0  0  0  0  0  0  0  0  0
   -0.4260   -0.4355   -3.3495 C   0  0  0  0  0  0  0  0  0  0  0  0
    0.4226   -1.0534   -3.6425 H   0  0  0  0  0  0  0  0  0  0  0  0
   -1.2788   -0.6983   -3.9758 H   0  0  0  0  0  0  0  0  0  0  0  0
   -0.1825    0.6160   -3.5057 H   0  0  0  0  0  0  0  0  0  0  0  0
   -0.3971    1.3008    1.0689 C   0  0  0  0  0  0  0  0  0  0  0  0
   -1.3643    1.9819    0.7311 O   0  0  0  0  0  0  0  0  0  0  0  0
    0.5522    1.7647    1.8915 N   0  0  0  0  0  0  0  0  0  0  0  0
    1.3093    1.1450    2.1332 H   0  0  0  0  0  0  0  0  0  0  0  0
    0.5577    3.1119    2.4582 C   0  0  0  0  0  0  0  0  0  0  0  0
   -0.3986    3.3098    2.9475 H   0  0  0  0  0  0  0  0  0  0  0  0
    1.3619    3.2123    3.1886 H   0  0  0  0  0  0  0  0  0  0  0  0
    0.6974    3.8450    1.6614 H   0  0  0  0  0  0  0  0  0  0  0  0
  5  6  2  0  0  0  0
  5  7  1  0  0  0  0
  2  3  1  0  0  0  0
  2  4  1  0  0  0  0
  2  5  1  0  0  0  0
  1  2  1  0  0  0  0
 24 25  2  0  0  0  0
 24 26  1  0  0  0  0
 20 21  1  0  0  0  0
 20 22  1  0  0  0  0
 20 23  1  0  0  0  0
 17 18  1  0  0  0  0
 17 19  1  0  0  0  0
 17 20  1  0  0  0  0
 13 14  1  0  0  0  0
 13 15  1  0  0  0  0
 13 16  1  0  0  0  0
 11 12  1  0  0  0  0
 11 13  1  0  0  0  0
 11 17  1  0  0  0  0
  9 10  1  0  0  0  0
  9 11  1  0  0  0  0
  9 24  1  0  0  0  0
  7  8  1  0  0  0  0
  7  9  1  0  0  0  0
 28 29  1  0  0  0  0
 28 30  1  0  0  0  0
 28 31  1  0  0  0  0
 26 27  1  0  0  0  0
 26 28  1  0  0  0  0
M  END
$$$$
default_name
  -OEChem-02102213163D

 31 30  0     1  0  0  0  0  0999 V2000
   -3.0760   -3.6390    1.5496 H   0  0  0  0  0  0  0  0  0  0  0  0
   -3.0940   -2.6290    1.1426 C   0  0  0  0  0  0  0  0  0  0  0  0
   -3.7160   -1.9930    1.7706 H   0  0  0  0  0  0  0  0  0  0  0  0
   -3.4880   -2.6500    0.1286 H   0  0  0  0  0  0  0  0  0  0  0  0
   -1.6860   -2.0850    1.1196 C   0  0  0  0  0  0  0  0  0  0  0  0
   -0.7540   -2.7700    1.5226 O   0  0  0  0  0  0  0  0  0  0  0  0
   -1.5320   -0.8490    0.6496 N   0  0  0  0  0  0  0  0  0  0  0  0
   -2.3500   -0.3360    0.3566 H   0  0  0  0  0  0  0  0  0  0  0  0
   -0.2470   -0.1410    0.5576 C   0  0  1  0  0  0  0  0  0  0  0  0
    0.4572   -0.6505    1.2162 H   0  0  0  0  0  0  0  0  0  0  0  0
    0.3091   -0.2220   -0.8868 C   0  0  1  0  0  0  0  0  0  0  0  0
    0.8484    0.7081   -1.0765 H   0  0  0  0  0  0  0  0  0  0  0  0
    1.3022   -1.3854   -1.0706 C   0  0  0  0  0  0  0  0  0  0  0  0
    0.7930   -2.3451   -0.9655 H   0  0  0  0  0  0  0  0  0  0  0  0
    1.7663   -1.3349   -2.0543 H   0  0  0  0  0  0  0  0  0  0  0  0
    2.0956   -1.3247   -0.3248 H   0  0  0  0  0  0  0  0  0  0  0  0
   -0.8381   -0.3074   -1.9184 C   0  0  0  0  0  0  0  0  0  0  0  0
   -1.4631   -1.1765   -1.7088 H   0  0  0  0  0  0  0  0  0  0  0  0
   -1.4554    0.5867   -1.8311 H   0  0  0  0  0  0  0  0  0  0  0  0
   -0.3557   -0.3904   -3.3729 C   0  0  0  0  0  0  0  0  0  0  0  0
    0.1801   -1.3237   -3.5453 H   0  0  0  0  0  0  0  0  0  0  0  0
   -1.2174   -0.3570   -4.0399 H   0  0  0  0  0  0  0  0  0  0  0  0
    0.2990    0.4525   -3.5974 H   0  0  0  0  0  0  0  0  0  0  0  0
   -0.3971    1.3008    1.0689 C   0  0  0  0  0  0  0  0  0  0  0  0
   -1.3643    1.9819    0.7311 O   0  0  0  0  0  0  0  0  0  0  0  0
    0.5522    1.7647    1.8915 N   0  0  0  0  0  0  0  0  0  0  0  0
    1.3093    1.1450    2.1332 H   0  0  0  0  0  0  0  0  0  0  0  0
    0.5577    3.1119    2.4582 C   0  0  0  0  0  0  0  0  0  0  0  0
   -0.3986    3.3098    2.9475 H   0  0  0  0  0  0  0  0  0  0  0  0
    1.3619    3.2123    3.1886 H   0  0  0  0  0  0  0  0  0  0  0  0
    0.6974    3.8450    1.6614 H   0  0  0  0  0  0  0  0  0  0  0  0
  5  6  2  0  0  0  0
  5  7  1  0  0  0  0
  2  3  1  0  0  0  0
  2  4  1  0  0  0  0
  2  5  1  0  0  0  0
  1  2  1  0  0  0  0
 24 25  2  0  0  0  0
 24 26  1  0  0  0  0
 20 21  1  0  0  0  0
 20 22  1  0  0  0  0
 20 23  1  0  0  0  0
 17 18  1  0  0  0  0
 17 19  1  0  0  0  0
 17 20  1  0  0  0  0
 13 14  1  0  0  0  0
 13 15  1  0  0  0  0
 13 16  1  0  0  0  0
 11 12  1  0  0  0  0
 11 13  1  0  0  0  0
 11 17  1  0  0  0  0
  9 10  1  0  0  0  0
  9 11  1  0  0  0  0
  9 24  1  0  0  0  0
  7  8  1  0  0  0  0
  7  9  1  0  0  0  0
 28 29  1  0  0  0  0
 28 30  1  0  0  0  0
 28 31  1  0  0  0  0
 26 27  1  0  0  0  0
 26 28  1  0  0  0  0
M  END
$$$$
default_name
  -OEChem-02102213163D

 31 30  0     1  0  0  0  0  0999 V2000
   -3.0760   -3.6390    1.5496 H   0  0  0  0  0  0  0  0  0  0  0  0
   -3.0940   -2.6290    1.1426 C   0  0  0  0  0  0  0  0  0  0  0  0
   -3.7160   -1.9930    1.7706 H   0  0  0  0  0  0  0  0  0  0  0  0
   -3.4880   -2.6500    0.1286 H   0  0  0  0  0  0  0  0  0  0  0  0
   -1.6860   -2.0850    1.1196 C   0  0  0  0  0  0  0  0  0  0  0  0
   -0.7540   -2.7700    1.5226 O   0  0  0  0  0  0  0  0  0  0  0  0
   -1.5320   -0.8490    0.6496 N   0  0  0  0  0  0  0  0  0  0  0  0
   -2.3500   -0.3360    0.3566 H   0  0  0  0  0  0  0  0  0  0  0  0
   -0.2470   -0.1410    0.5576 C   0  0  1  0  0  0  0  0  0  0  0  0
    0.4572   -0.6505    1.2162 H   0  0  0  0  0  0  0  0  0  0  0  0
    0.3091   -0.2220   -0.8868 C   0  0  1  0  0  0  0  0  0  0  0  0
    0.8484    0.7081   -1.0765 H   0  0  0  0  0  0  0  0  0  0  0  0
    1.3022   -1.3854   -1.0706 C   0  0  0  0  0  0  0  0  0  0  0  0
    0.7930   -2.3451   -0.9655 H   0  0  0  0  0  0  0  0  0  0  0  0
    1.7663   -1.3349   -2.0543 H   0  0  0  0  0  0  0  0  0  0  0  0
    2.0956   -1.3247   -0.3248 H   0  0  0  0  0  0  0  0  0  0  0  0
   -0.8381   -0.3074   -1.9184 C   0  0  0  0  0  0  0  0  0  0  0  0
   -1.6044   -0.9994   -1.5663 H   0  0  0  0  0  0  0  0  0  0  0  0
   -1.2900    0.6790   -2.0227 H   0  0  0  0  0  0  0  0  0  0  0  0
   -0.3812   -0.7516   -3.3145 C   0  0  0  0  0  0  0  0  0  0  0  0
   -0.0167   -1.7783   -3.2888 H   0  0  0  0  0  0  0  0  0  0  0  0
   -1.2257   -0.7007   -4.0022 H   0  0  0  0  0  0  0  0  0  0  0  0
    0.4096   -0.0930   -3.6753 H   0  0  0  0  0  0  0  0  0  0  0  0
   -0.3971    1.3008    1.0689 C   0  0  0  0  0  0  0  0  0  0  0  0
   -1.3643    1.9819    0.7311 O   0  0  0  0  0  0  0  0  0  0  0  0
    0.5522    1.7647    1.8915 N   0  0  0  0  0  0  0  0  0  0  0  0
    1.3093    1.1450    2.1332 H   0  0  0  0  0  0  0  0  0  0  0  0
    0.5577    3.1119    2.4582 C   0  0  0  0  0  0  0  0  0  0  0  0
   -0.3986    3.3098    2.9475 H   0  0  0  0  0  0  0  0  0  0  0  0
    1.3619    3.2123    3.1886 H   0  0  0  0  0  0  0  0  0  0  0  0
    0.6974    3.8450    1.6614 H   0  0  0  0  0  0  0  0  0  0  0  0
  5  6  2  0  0  0  0
  5  7  1  0  0  0  0
  2  3  1  0  0  0  0
  2  4  1  0  0  0  0
  2  5  1  0  0  0  0
  1  2  1  0  0  0  0
 24 25  2  0  0  0  0
 24 26  1  0  0  0  0
 20 21  1  0  0  0  0
 20 22  1  0  0  0  0
 20 23  1  0  0  0  0
 17 18  1  0  0  0  0
 17 19  1  0  0  0  0
 17 20  1  0  0  0  0
 13 14  1  0  0  0  0
 13 15  1  0  0  0  0
 13 16  1  0  0  0  0
 11 12  1  0  0  0  0
 11 13  1  0  0  0  0
 11 17  1  0  0  0  0
  9 10  1  0  0  0  0
  9 11  1  0  0  0  0
  9 24  1  0  0  0  0
  7  8  1  0  0  0  0
  7  9  1  0  0  0  0
 28 29  1  0  0  0  0
 28 30  1  0  0  0  0
 28 31  1  0  0  0  0
 26 27  1  0  0  0  0
 26 28  1  0  0  0  0
M  END
$$$$
default_name
  -OEChem-02102213163D

 31 30  0     1  0  0  0  0  0999 V2000
   -3.0760   -3.6390    1.5496 H   0  0  0  0  0  0  0  0  0  0  0  0
   -3.0940   -2.6290    1.1426 C   0  0  0  0  0  0  0  0  0  0  0  0
   -3.7160   -1.9930    1.7706 H   0  0  0  0  0  0  0  0  0  0  0  0
   -3.4880   -2.6500    0.1286 H   0  0  0  0  0  0  0  0  0  0  0  0
   -1.6860   -2.0850    1.1196 C   0  0  0  0  0  0  0  0  0  0  0  0
   -0.7540   -2.7700    1.5226 O   0  0  0  0  0  0  0  0  0  0  0  0
   -1.5320   -0.8490    0.6496 N   0  0  0  0  0  0  0  0  0  0  0  0
   -2.3500   -0.3360    0.3566 H   0  0  0  0  0  0  0  0  0  0  0  0
   -0.2470   -0.1410    0.5576 C   0  0  1  0  0  0  0  0  0  0  0  0
    0.4572   -0.6505    1.2162 H   0  0  0  0  0  0  0  0  0  0  0  0
    0.3091   -0.2220   -0.8868 C   0  0  1  0  0  0  0  0  0  0  0  0
    0.8484    0.7081   -1.0765 H   0  0  0  0  0  0  0  0  0  0  0  0
    1.3022   -1.3854   -1.0706 C   0  0  0  0  0  0  0  0  0  0  0  0
    0.7930   -2.3451   -0.9655 H   0  0  0  0  0  0  0  0  0  0  0  0
    1.7663   -1.3349   -2.0543 H   0  0  0  0  0  0  0  0  0  0  0  0
    2.0956   -1.3247   -0.3248 H   0  0  0  0  0  0  0  0  0  0  0  0
   -0.8381   -0.3074   -1.9184 C   0  0  0  0  0  0  0  0  0  0  0  0
   -1.7123   -0.7765   -1.4648 H   0  0  0  0  0  0  0  0  0  0  0  0
   -1.1115    0.7027   -2.2232 H   0  0  0  0  0  0  0  0  0  0  0  0
   -0.4692   -1.0849   -3.1891 C   0  0  0  0  0  0  0  0  0  0  0  0
   -0.2890   -2.1342   -2.9564 H   0  0  0  0  0  0  0  0  0  0  0  0
   -1.2936   -1.0240   -3.8999 H   0  0  0  0  0  0  0  0  0  0  0  0
    0.4233   -0.6540   -3.6441 H   0  0  0  0  0  0  0  0  0  0  0  0
   -0.3971    1.3008    1.0689 C   0  0  0  0  0  0  0  0  0  0  0  0
   -1.3643    1.9819    0.7311 O   0  0  0  0  0  0  0  0  0  0  0  0
    0.5522    1.7647    1.8915 N   0  0  0  0  0  0  0  0  0  0  0  0
    1.3093    1.1450    2.1332 H   0  0  0  0  0  0  0  0  0  0  0  0
    0.5577    3.1119    2.4582 C   0  0  0  0  0  0  0  0  0  0  0  0
   -0.3986    3.3098    2.9475 H   0  0  0  0  0  0  0  0  0  0  0  0
    1.3619    3.2123    3.1886 H   0  0  0  0  0  0  0  0  0  0  0  0
    0.6974    3.8450    1.6614 H   0  0  0  0  0  0  0  0  0  0  0  0
  5  6  2  0  0  0  0
  5  7  1  0  0  0  0
  2  3  1  0  0  0  0
  2  4  1  0  0  0  0
  2  5  1  0  0  0  0
  1  2  1  0  0  0  0
 24 25  2  0  0  0  0
 24 26  1  0  0  0  0
 20 21  1  0  0  0  0
 20 22  1  0  0  0  0
 20 23  1  0  0  0  0
 17 18  1  0  0  0  0
 17 19  1  0  0  0  0
 17 20  1  0  0  0  0
 13 14  1  0  0  0  0
 13 15  1  0  0  0  0
 13 16  1  0  0  0  0
 11 12  1  0  0  0  0
 11 13  1  0  0  0  0
 11 17  1  0  0  0  0
  9 10  1  0  0  0  0
  9 11  1  0  0  0  0
  9 24  1  0  0  0  0
  7  8  1  0  0  0  0
  7  9  1  0  0  0  0
 28 29  1  0  0  0  0
 28 30  1  0  0  0  0
 28 31  1  0  0  0  0
 26 27  1  0  0  0  0
 26 28  1  0  0  0  0
M  END
$$$$
default_name
  -OEChem-02102213163D

 31 30  0     1  0  0  0  0  0999 V2000
   -3.0760   -3.6390    1.5496 H   0  0  0  0  0  0  0  0  0  0  0  0
   -3.0940   -2.6290    1.1426 C   0  0  0  0  0  0  0  0  0  0  0  0
   -3.7160   -1.9930    1.7706 H   0  0  0  0  0  0  0  0  0  0  0  0
   -3.4880   -2.6500    0.1286 H   0  0  0  0  0  0  0  0  0  0  0  0
   -1.6860   -2.0850    1.1196 C   0  0  0  0  0  0  0  0  0  0  0  0
   -0.7540   -2.7700    1.5226 O   0  0  0  0  0  0  0  0  0  0  0  0
   -1.5320   -0.8490    0.6496 N   0  0  0  0  0  0  0  0  0  0  0  0
   -2.3500   -0.3360    0.3566 H   0  0  0  0  0  0  0  0  0  0  0  0
   -0.2470   -0.1410    0.5576 C   0  0  1  0  0  0  0  0  0  0  0  0
    0.4572   -0.6505    1.2162 H   0  0  0  0  0  0  0  0  0  0  0  0
    0.3091   -0.2220   -0.8868 C   0  0  1  0  0  0  0  0  0  0  0  0
    0.8484    0.7081   -1.0765 H   0  0  0  0  0  0  0  0  0  0  0  0
    1.3022   -1.3854   -1.0706 C   0  0  0  0  0  0  0  0  0  0  0  0
    0.7930   -2.3451   -0.9655 H   0  0  0  0  0  0  0  0  0  0  0  0
    1.7663   -1.3349   -2.0543 H   0  0  0  0  0  0  0  0  0  0  0  0
    2.0956   -1.3247   -0.3248 H   0  0  0  0  0  0  0  0  0  0  0  0
   -0.8381   -0.3074   -1.9184 C   0  0  0  0  0  0  0  0  0  0  0  0
   -1.7794   -0.5230   -1.4111 H   0  0  0  0  0  0  0  0  0  0  0  0
   -0.9322    0.6563   -2.4188 H   0  0  0  0  0  0  0  0  0  0  0  0
   -0.6135   -1.3675   -3.0051 C   0  0  0  0  0  0  0  0  0  0  0  0
   -0.6183   -2.3671   -2.5709 H   0  0  0  0  0  0  0  0  0  0  0  0
   -1.4166   -1.3048   -3.7398 H   0  0  0  0  0  0  0  0  0  0  0  0
    0.3392   -1.1922   -3.5060 H   0  0  0  0  0  0  0  0  0  0  0  0
   -0.3971    1.3008    1.0689 C   0  0  0  0  0  0  0  0  0  0  0  0
   -1.3643    1.9819    0.7311 O   0  0  0  0  0  0  0  0  0  0  0  0
    0.5522    1.7647    1.8915 N   0  0  0  0  0  0  0  0  0  0  0  0
    1.3093    1.1450    2.1332 H   0  0  0  0  0  0  0  0  0  0  0  0
    0.5577    3.1119    2.4582 C   0  0  0  0  0  0  0  0  0  0  0  0
   -0.3986    3.3098    2.9475 H   0  0  0  0  0  0  0  0  0  0  0  0
    1.3619    3.2123    3.1886 H   0  0  0  0  0  0  0  0  0  0  0  0
    0.6974    3.8450    1.6614 H   0  0  0  0  0  0  0  0  0  0  0  0
  5  6  2  0  0  0  0
  5  7  1  0  0  0  0
  2  3  1  0  0  0  0
  2  4  1  0  0  0  0
  2  5  1  0  0  0  0
  1  2  1  0  0  0  0
 24 25  2  0  0  0  0
 24 26  1  0  0  0  0
 20 21  1  0  0  0  0
 20 22  1  0  0  0  0
 20 23  1  0  0  0  0
 17 18  1  0  0  0  0
 17 19  1  0  0  0  0
 17 20  1  0  0  0  0
 13 14  1  0  0  0  0
 13 15  1  0  0  0  0
 13 16  1  0  0  0  0
 11 12  1  0  0  0  0
 11 13  1  0  0  0  0
 11 17  1  0  0  0  0
  9 10  1  0  0  0  0
  9 11  1  0  0  0  0
  9 24  1  0  0  0  0
  7  8  1  0  0  0  0
  7  9  1  0  0  0  0
 28 29  1  0  0  0  0
 28 30  1  0  0  0  0
 28 31  1  0  0  0  0
 26 27  1  0  0  0  0
 26 28  1  0  0  0  0
M  END
$$$$
default_name
  -OEChem-02102213163D

 31 30  0     1  0  0  0  0  0999 V2000
   -3.0760   -3.6390    1.5496 H   0  0  0  0  0  0  0  0  0  0  0  0
   -3.0940   -2.6290    1.1426 C   0  0  0  0  0  0  0  0  0  0  0  0
   -3.7160   -1.9930    1.7706 H   0  0  0  0  0  0  0  0  0  0  0  0
   -3.4880   -2.6500    0.1286 H   0  0  0  0  0  0  0  0  0  0  0  0
   -1.6860   -2.0850    1.1196 C   0  0  0  0  0  0  0  0  0  0  0  0
   -0.7540   -2.7700    1.5226 O   0  0  0  0  0  0  0  0  0  0  0  0
   -1.5320   -0.8490    0.6496 N   0  0  0  0  0  0  0  0  0  0  0  0
   -2.3500   -0.3360    0.3566 H   0  0  0  0  0  0  0  0  0  0  0  0
   -0.2470   -0.1410    0.5576 C   0  0  1  0  0  0  0  0  0  0  0  0
    0.4572   -0.6505    1.2162 H   0  0  0  0  0  0  0  0  0  0  0  0
    0.3091   -0.2220   -0.8868 C   0  0  1  0  0  0  0  0  0  0  0  0
    0.8484    0.7081   -1.0765 H   0  0  0  0  0  0  0  0  0  0  0  0
    1.3022   -1.3854   -1.0706 C   0  0  0  0  0  0  0  0  0  0  0  0
    0.7930   -2.3451   -0.9655 H   0  0  0  0  0  0  0  0  0  0  0  0
    1.7663   -1.3349   -2.0543 H   0  0  0  0  0  0  0  0  0  0  0  0
    2.0956   -1.3247   -0.3248 H   0  0  0  0  0  0  0  0  0  0  0  0
   -0.8381   -0.3074   -1.9184 C   0  0  0  0  0  0  0  0  0  0  0  0
   -1.8013   -0.2562   -1.4088 H   0  0  0  0  0  0  0  0  0  0  0  0
   -0.7642    0.5429   -2.5962 H   0  0  0  0  0  0  0  0  0  0  0  0
   -0.8044   -1.5802   -2.7752 C   0  0  0  0  0  0  0  0  0  0  0  0
   -0.9821   -2.4610   -2.1585 H   0  0  0  0  0  0  0  0  0  0  0  0
   -1.5862   -1.5241   -3.5330 H   0  0  0  0  0  0  0  0  0  0  0  0
    0.1630   -1.6710   -3.2704 H   0  0  0  0  0  0  0  0  0  0  0  0
   -0.3971    1.3008    1.0689 C   0  0  0  0  0  0  0  0  0  0  0  0
   -1.3643    1.9819    0.7311 O   0  0  0  0  0  0  0  0  0  0  0  0
    0.5522    1.7647    1.8915 N   0  0  0  0  0  0  0  0  0  0  0  0
    1.3093    1.1450    2.1332 H   0  0  0  0  0  0  0  0  0  0  0  0
    0.5577    3.1119    2.4582 C   0  0  0  0  0  0  0  0  0  0  0  0
   -0.3986    3.3098    2.9475 H   0  0  0  0  0  0  0  0  0  0  0  0
    1.3619    3.2123    3.1886 H   0  0  0  0  0  0  0  0  0  0  0  0
    0.6974    3.8450    1.6614 H   0  0  0  0  0  0  0  0  0  0  0  0
  5  6  2  0  0  0  0
  5  7  1  0  0  0  0
  2  3  1  0  0  0  0
  2  4  1  0  0  0  0
  2  5  1  0  0  0  0
  1  2  1  0  0  0  0
 24 25  2  0  0  0  0
 24 26  1  0  0  0  0
 20 21  1  0  0  0  0
 20 22  1  0  0  0  0
 20 23  1  0  0  0  0
 17 18  1  0  0  0  0
 17 19  1  0  0  0  0
 17 20  1  0  0  0  0
 13 14  1  0  0  0  0
 13 15  1  0  0  0  0
 13 16  1  0  0  0  0
 11 12  1  0  0  0  0
 11 13  1  0  0  0  0
 11 17  1  0  0  0  0
  9 10  1  0  0  0  0
  9 11  1  0  0  0  0
  9 24  1  0  0  0  0
  7  8  1  0  0  0  0
  7  9  1  0  0  0  0
 28 29  1  0  0  0  0
 28 30  1  0  0  0  0
 28 31  1  0  0  0  0
 26 27  1  0  0  0  0
 26 28  1  0  0  0  0
M  END
$$$$
default_name
  -OEChem-02102213163D

 31 30  0     1  0  0  0  0  0999 V2000
   -3.0760   -3.6390    1.5496 H   0  0  0  0  0  0  0  0  0  0  0  0
   -3.0940   -2.6290    1.1426 C   0  0  0  0  0  0  0  0  0  0  0  0
   -3.7160   -1.9930    1.7706 H   0  0  0  0  0  0  0  0  0  0  0  0
   -3.4880   -2.6500    0.1286 H   0  0  0  0  0  0  0  0  0  0  0  0
   -1.6860   -2.0850    1.1196 C   0  0  0  0  0  0  0  0  0  0  0  0
   -0.7540   -2.7700    1.5226 O   0  0  0  0  0  0  0  0  0  0  0  0
   -1.5320   -0.8490    0.6496 N   0  0  0  0  0  0  0  0  0  0  0  0
   -2.3500   -0.3360    0.3566 H   0  0  0  0  0  0  0  0  0  0  0  0
   -0.2470   -0.1410    0.5576 C   0  0  1  0  0  0  0  0  0  0  0  0
    0.4572   -0.6505    1.2162 H   0  0  0  0  0  0  0  0  0  0  0  0
    0.3091   -0.2220   -0.8868 C   0  0  1  0  0  0  0  0  0  0  0  0
    0.8484    0.7081   -1.0765 H   0  0  0  0  0  0  0  0  0  0  0  0
    1.3022   -1.3854   -1.0706 C   0  0  0  0  0  0  0  0  0  0  0  0
    0.7930   -2.3451   -0.9655 H   0  0  0  0  0  0  0  0  0  0  0  0
    1.7663   -1.3349   -2.0543 H   0  0  0  0  0  0  0  0  0  0  0  0
    2.0956   -1.3247   -0.3248 H   0  0  0  0  0  0  0  0  0  0  0  0
   -0.8381   -0.3074   -1.9184 C   0  0  0  0  0  0  0  0  0  0  0  0
   -1.7763    0.0057   -1.4583 H   0  0  0  0  0  0  0  0  0  0  0  0
   -0.6190    0.3702   -2.7435 H   0  0  0  0  0  0  0  0  0  0  0  0
   -1.0288   -1.7084   -2.5150 C   0  0  0  0  0  0  0  0  0  0  0  0
   -1.3556   -2.4096   -1.7473 H   0  0  0  0  0  0  0  0  0  0  0  0
   -1.7909   -1.6669   -3.2936 H   0  0  0  0  0  0  0  0  0  0  0  0
   -0.0933   -2.0578   -2.9533 H   0  0  0  0  0  0  0  0  0  0  0  0
   -0.3971    1.3008    1.0689 C   0  0  0  0  0  0  0  0  0  0  0  0
   -1.3643    1.9819    0.7311 O   0  0  0  0  0  0  0  0  0  0  0  0
    0.5522    1.7647    1.8915 N   0  0  0  0  0  0  0  0  0  0  0  0
    1.3093    1.1450    2.1332 H   0  0  0  0  0  0  0  0  0  0  0  0
    0.5577    3.1119    2.4582 C   0  0  0  0  0  0  0  0  0  0  0  0
   -0.3986    3.3098    2.9475 H   0  0  0  0  0  0  0  0  0  0  0  0
    1.3619    3.2123    3.1886 H   0  0  0  0  0  0  0  0  0  0  0  0
    0.6974    3.8450    1.6614 H   0  0  0  0  0  0  0  0  0  0  0  0
  5  6  2  0  0  0  0
  5  7  1  0  0  0  0
  2  3  1  0  0  0  0
  2  4  1  0  0  0  0
  2  5  1  0  0  0  0
  1  2  1  0  0  0  0
 24 25  2  0  0  0  0
 24 26  1  0  0  0  0
 20 21  1  0  0  0  0
 20 22  1  0  0  0  0
 20 23  1  0  0  0  0
 17 18  1  0  0  0  0
 17 19  1  0  0  0  0
 17 20  1  0  0  0  0
 13 14  1  0  0  0  0
 13 15  1  0  0  0  0
 13 16  1  0  0  0  0
 11 12  1  0  0  0  0
 11 13  1  0  0  0  0
 11 17  1  0  0  0  0
  9 10  1  0  0  0  0
  9 11  1  0  0  0  0
  9 24  1  0  0  0  0
  7  8  1  0  0  0  0
  7  9  1  0  0  0  0
 28 29  1  0  0  0  0
 28 30  1  0  0  0  0
 28 31  1  0  0  0  0
 26 27  1  0  0  0  0
 26 28  1  0  0  0  0
M  END
$$$$
default_name
  -OEChem-02102213163D

 31 30  0     1  0  0  0  0  0999 V2000
   -3.0760   -3.6390    1.5496 H   0  0  0  0  0  0  0  0  0  0  0  0
   -3.0940   -2.6290    1.1426 C   0  0  0  0  0  0  0  0  0  0  0  0
   -3.7160   -1.9930    1.7706 H   0  0  0  0  0  0  0  0  0  0  0  0
   -3.4880   -2.6500    0.1286 H   0  0  0  0  0  0  0  0  0  0  0  0
   -1.6860   -2.0850    1.1196 C   0  0  0  0  0  0  0  0  0  0  0  0
   -0.7540   -2.7700    1.5226 O   0  0  0  0  0  0  0  0  0  0  0  0
   -1.5320   -0.8490    0.6496 N   0  0  0  0  0  0  0  0  0  0  0  0
   -2.3500   -0.3360    0.3566 H   0  0  0  0  0  0  0  0  0  0  0  0
   -0.2470   -0.1410    0.5576 C   0  0  1  0  0  0  0  0  0  0  0  0
    0.4572   -0.6505    1.2162 H   0  0  0  0  0  0  0  0  0  0  0  0
    0.3091   -0.2220   -0.8868 C   0  0  1  0  0  0  0  0  0  0  0  0
    0.8484    0.7081   -1.0765 H   0  0  0  0  0  0  0  0  0  0  0  0
    1.3022   -1.3854   -1.0706 C   0  0  0  0  0  0  0  0  0  0  0  0
    0.7930   -2.3451   -0.9655 H   0  0  0  0  0  0  0  0  0  0  0  0
    1.7663   -1.3349   -2.0543 H   0  0  0  0  0  0  0  0  0  0  0  0
    2.0956   -1.3247   -0.3248 H   0  0  0  0  0  0  0  0  0  0  0  0
   -0.8381   -0.3074   -1.9184 C   0  0  0  0  0  0  0  0  0  0  0  0
   -1.7063    0.2448   -1.5560 H   0  0  0  0  0  0  0  0  0  0  0  0
   -0.5064    0.1501   -2.8504 H   0  0  0  0  0  0  0  0  0  0  0  0
   -1.2715   -1.7436   -2.2422 C   0  0  0  0  0  0  0  0  0  0  0  0
   -1.7134   -2.2165   -1.3654 H   0  0  0  0  0  0  0  0  0  0  0  0
   -2.0166   -1.7235   -3.0378 H   0  0  0  0  0  0  0  0  0  0  0  0
   -0.4122   -2.3262   -2.5763 H   0  0  0  0  0  0  0  0  0  0  0  0
   -0.3971    1.3008    1.0689 C   0  0  0  0  0  0  0  0  0  0  0  0
   -1.3643    1.9819    0.7311 O   0  0  0  0  0  0  0  0  0  0  0  0
    0.5522    1.7647    1.8915 N   0  0  0  0  0  0  0  0  0  0  0  0
    1.3093    1.1450    2.1332 H   0  0  0  0  0  0  0  0  0  0  0  0
    0.5577    3.1119    2.4582 C   0  0  0  0  0  0  0  0  0  0  0  0
   -0.3986    3.3098    2.9475 H   0  0  0  0  0  0  0  0  0  0  0  0
    1.3619    3.2123    3.1886 H   0  0  0  0  0  0  0  0  0  0  0  0
    0.6974    3.8450    1.6614 H   0  0  0  0  0  0  0  0  0  0  0  0
  5  6  2  0  0  0  0
  5  7  1  0  0  0  0
  2  3  1  0  0  0  0
  2  4  1  0  0  0  0
  2  5  1  0  0  0  0
  1  2  1  0  0  0  0
 24 25  2  0  0  0  0
 24 26  1  0  0  0  0
 20 21  1  0  0  0  0
 20 22  1  0  0  0  0
 20 23  1  0  0  0  0
 17 18  1  0  0  0  0
 17 19  1  0  0  0  0
 17 20  1  0  0  0  0
 13 14  1  0  0  0  0
 13 15  1  0  0  0  0
 13 16  1  0  0  0  0
 11 12  1  0  0  0  0
 11 13  1  0  0  0  0
 11 17  1  0  0  0  0
  9 10  1  0  0  0  0
  9 11  1  0  0  0  0
  9 24  1  0  0  0  0
  7  8  1  0  0  0  0
  7  9  1  0  0  0  0
 28 29  1  0  0  0  0
 28 30  1  0  0  0  0
 28 31  1  0  0  0  0
 26 27  1  0  0  0  0
 26 28  1  0  0  0  0
M  END
$$$$
default_name
  -OEChem-02102213163D

 31 30  0     1  0  0  0  0  0999 V2000
   -3.0760   -3.6390    1.5496 H   0  0  0  0  0  0  0  0  0  0  0  0
   -3.0940   -2.6290    1.1426 C   0  0  0  0  0  0  0  0  0  0  0  0
   -3.7160   -1.9930    1.7706 H   0  0  0  0  0  0  0  0  0  0  0  0
   -3.4880   -2.6500    0.1286 H   0  0  0  0  0  0  0  0  0  0  0  0
   -1.6860   -2.0850    1.1196 C   0  0  0  0  0  0  0  0  0  0  0  0
   -0.7540   -2.7700    1.5226 O   0  0  0  0  0  0  0  0  0  0  0  0
   -1.5320   -0.8490    0.6496 N   0  0  0  0  0  0  0  0  0  0  0  0
   -2.3500   -0.3360    0.3566 H   0  0  0  0  0  0  0  0  0  0  0  0
   -0.2470   -0.1410    0.5576 C   0  0  1  0  0  0  0  0  0  0  0  0
    0.4572   -0.6505    1.2162 H   0  0  0  0  0  0  0  0  0  0  0  0
    0.3091   -0.2220   -0.8868 C   0  0  1  0  0  0  0  0  0  0  0  0
    0.8484    0.7081   -1.0765 H   0  0  0  0  0  0  0  0  0  0  0  0
    1.3022   -1.3854   -1.0706 C   0  0  0  0  0  0  0  0  0  0  0  0
    0.7930   -2.3451   -0.9655 H   0  0  0  0  0  0  0  0  0  0  0  0
    1.7663   -1.3349   -2.0543 H   0  0  0  0  0  0  0  0  0  0  0  0
    2.0956   -1.3247   -0.3248 H   0  0  0  0  0  0  0  0  0  0  0  0
   -0.8381   -0.3074   -1.9184 C   0  0  0  0  0  0  0  0  0  0  0  0
   -1.5959    0.4449   -1.6954 H   0  0  0  0  0  0  0  0  0  0  0  0
   -0.4342   -0.1026   -2.9098 H   0  0  0  0  0  0  0  0  0  0  0  0
   -1.5159   -1.6832   -1.9754 C   0  0  0  0  0  0  0  0  0  0  0  0
   -2.0311   -1.8946   -1.0387 H   0  0  0  0  0  0  0  0  0  0  0  0
   -2.2482   -1.6899   -2.7831 H   0  0  0  0  0  0  0  0  0  0  0  0
   -0.7721   -2.4578   -2.1652 H   0  0  0  0  0  0  0  0  0  0  0  0
   -0.3971    1.3008    1.0689 C   0  0  0  0  0  0  0  0  0  0  0  0
   -1.3643    1.9819    0.7311 O   0  0  0  0  0  0  0  0  0  0  0  0
    0.5522    1.7647    1.8915 N   0  0  0  0  0  0  0  0  0  0  0  0
    1.3093    1.1450    2.1332 H   0  0  0  0  0  0  0  0  0  0  0  0
    0.5577    3.1119    2.4582 C   0  0  0  0  0  0  0  0  0  0  0  0
   -0.3986    3.3098    2.9475 H   0  0  0  0  0  0  0  0  0  0  0  0
    1.3619    3.2123    3.1886 H   0  0  0  0  0  0  0  0  0  0  0  0
    0.6974    3.8450    1.6614 H   0  0  0  0  0  0  0  0  0  0  0  0
  5  6  2  0  0  0  0
  5  7  1  0  0  0  0
  2  3  1  0  0  0  0
  2  4  1  0  0  0  0
  2  5  1  0  0  0  0
  1  2  1  0  0  0  0
 24 25  2  0  0  0  0
 24 26  1  0  0  0  0
 20 21  1  0  0  0  0
 20 22  1  0  0  0  0
 20 23  1  0  0  0  0
 17 18  1  0  0  0  0
 17 19  1  0  0  0  0
 17 20  1  0  0  0  0
 13 14  1  0  0  0  0
 13 15  1  0  0  0  0
 13 16  1  0  0  0  0
 11 12  1  0  0  0  0
 11 13  1  0  0  0  0
 11 17  1  0  0  0  0
  9 10  1  0  0  0  0
  9 11  1  0  0  0  0
  9 24  1  0  0  0  0
  7  8  1  0  0  0  0
  7  9  1  0  0  0  0
 28 29  1  0  0  0  0
 28 30  1  0  0  0  0
 28 31  1  0  0  0  0
 26 27  1  0  0  0  0
 26 28  1  0  0  0  0
M  END
$$$$
default_name
  -OEChem-02102213163D

 31 30  0     1  0  0  0  0  0999 V2000
   -3.0760   -3.6390    1.5496 H   0  0  0  0  0  0  0  0  0  0  0  0
   -3.0940   -2.6290    1.1426 C   0  0  0  0  0  0  0  0  0  0  0  0
   -3.7160   -1.9930    1.7706 H   0  0  0  0  0  0  0  0  0  0  0  0
   -3.4880   -2.6500    0.1286 H   0  0  0  0  0  0  0  0  0  0  0  0
   -1.6860   -2.0850    1.1196 C   0  0  0  0  0  0  0  0  0  0  0  0
   -0.7540   -2.7700    1.5226 O   0  0  0  0  0  0  0  0  0  0  0  0
   -1.5320   -0.8490    0.6496 N   0  0  0  0  0  0  0  0  0  0  0  0
   -2.3500   -0.3360    0.3566 H   0  0  0  0  0  0  0  0  0  0  0  0
   -0.2470   -0.1410    0.5576 C   0  0  1  0  0  0  0  0  0  0  0  0
    0.4572   -0.6505    1.2162 H   0  0  0  0  0  0  0  0  0  0  0  0
    0.3091   -0.2220   -0.8868 C   0  0  1  0  0  0  0  0  0  0  0  0
    0.8484    0.7081   -1.0765 H   0  0  0  0  0  0  0  0  0  0  0  0
    1.3022   -1.3854   -1.0706 C   0  0  0  0  0  0  0  0  0  0  0  0
    0.7930   -2.3451   -0.9655 H   0  0  0  0  0  0  0  0  0  0  0  0
    1.7663   -1.3349   -2.0543 H   0  0  0  0  0  0  0  0  0  0  0  0
    2.0956   -1.3247   -0.3248 H   0  0  0  0  0  0  0  0  0  0  0  0
   -0.8381   -0.3074   -1.9184 C   0  0  0  0  0  0  0  0  0  0  0  0
   -1.4527    0.5924   -1.8669 H   0  0  0  0  0  0  0  0  0  0  0  0
   -0.4073   -0.3706   -2.9176 H   0  0  0  0  0  0  0  0  0  0  0  0
   -1.7453   -1.5313   -1.7328 C   0  0  0  0  0  0  0  0  0  0  0  0
   -2.2871   -1.4661   -0.7895 H   0  0  0  0  0  0  0  0  0  0  0  0
   -2.4697   -1.5686   -2.5468 H   0  0  0  0  0  0  0  0  0  0  0  0
   -1.1483   -2.4438   -1.7479 H   0  0  0  0  0  0  0  0  0  0  0  0
   -0.3971    1.3008    1.0689 C   0  0  0  0  0  0  0  0  0  0  0  0
   -1.3643    1.9819    0.7311 O   0  0  0  0  0  0  0  0  0  0  0  0
    0.5522    1.7647    1.8915 N   0  0  0  0  0  0  0  0  0  0  0  0
    1.3093    1.1450    2.1332 H   0  0  0  0  0  0  0  0  0  0  0  0
    0.5577    3.1119    2.4582 C   0  0  0  0  0  0  0  0  0  0  0  0
   -0.3986    3.3098    2.9475 H   0  0  0  0  0  0  0  0  0  0  0  0
    1.3619    3.2123    3.1886 H   0  0  0  0  0  0  0  0  0  0  0  0
    0.6974    3.8450    1.6614 H   0  0  0  0  0  0  0  0  0  0  0  0
  5  6  2  0  0  0  0
  5  7  1  0  0  0  0
  2  3  1  0  0  0  0
  2  4  1  0  0  0  0
  2  5  1  0  0  0  0
  1  2  1  0  0  0  0
 24 25  2  0  0  0  0
 24 26  1  0  0  0  0
 20 21  1  0  0  0  0
 20 22  1  0  0  0  0
 20 23  1  0  0  0  0
 17 18  1  0  0  0  0
 17 19  1  0  0  0  0
 17 20  1  0  0  0  0
 13 14  1  0  0  0  0
 13 15  1  0  0  0  0
 13 16  1  0  0  0  0
 11 12  1  0  0  0  0
 11 13  1  0  0  0  0
 11 17  1  0  0  0  0
  9 10  1  0  0  0  0
  9 11  1  0  0  0  0
  9 24  1  0  0  0  0
  7  8  1  0  0  0  0
  7  9  1  0  0  0  0
 28 29  1  0  0  0  0
 28 30  1  0  0  0  0
 28 31  1  0  0  0  0
 26 27  1  0  0  0  0
 26 28  1  0  0  0  0
M  END
$$$$
default_name
  -OEChem-02102213163D

 31 30  0     1  0  0  0  0  0999 V2000
   -3.0760   -3.6390    1.5496 H   0  0  0  0  0  0  0  0  0  0  0  0
   -3.0940   -2.6290    1.1426 C   0  0  0  0  0  0  0  0  0  0  0  0
   -3.7160   -1.9930    1.7706 H   0  0  0  0  0  0  0  0  0  0  0  0
   -3.4880   -2.6500    0.1286 H   0  0  0  0  0  0  0  0  0  0  0  0
   -1.6860   -2.0850    1.1196 C   0  0  0  0  0  0  0  0  0  0  0  0
   -0.7540   -2.7700    1.5226 O   0  0  0  0  0  0  0  0  0  0  0  0
   -1.5320   -0.8490    0.6496 N   0  0  0  0  0  0  0  0  0  0  0  0
   -2.3500   -0.3360    0.3566 H   0  0  0  0  0  0  0  0  0  0  0  0
   -0.2470   -0.1410    0.5576 C   0  0  1  0  0  0  0  0  0  0  0  0
    0.4572   -0.6505    1.2162 H   0  0  0  0  0  0  0  0  0  0  0  0
    0.3091   -0.2220   -0.8868 C   0  0  1  0  0  0  0  0  0  0  0  0
    0.8484    0.7081   -1.0765 H   0  0  0  0  0  0  0  0  0  0  0  0
    1.3022   -1.3854   -1.0706 C   0  0  0  0  0  0  0  0  0  0  0  0
    0.7930   -2.3451   -0.9655 H   0  0  0  0  0  0  0  0  0  0  0  0
    1.7663   -1.3349   -2.0543 H   0  0  0  0  0  0  0  0  0  0  0  0
    2.0956   -1.3247   -0.3248 H   0  0  0  0  0  0  0  0  0  0  0  0
   -0.8381   -0.3074   -1.9184 C   0  0  0  0  0  0  0  0  0  0  0  0
   -1.2864    0.6771   -2.0588 H   0  0  0  0  0  0  0  0  0  0  0  0
   -0.4275   -0.6355   -2.8732 H   0  0  0  0  0  0  0  0  0  0  0  0
   -1.9441   -1.2984   -1.5310 C   0  0  0  0  0  0  0  0  0  0  0  0
   -2.4638   -0.9600   -0.6348 H   0  0  0  0  0  0  0  0  0  0  0  0
   -2.6660   -1.3677   -2.3450 H   0  0  0  0  0  0  0  0  0  0  0  0
   -1.5152   -2.2851   -1.3529 H   0  0  0  0  0  0  0  0  0  0  0  0
   -0.3971    1.3008    1.0689 C   0  0  0  0  0  0  0  0  0  0  0  0
   -1.3643    1.9819    0.7311 O   0  0  0  0  0  0  0  0  0  0  0  0
    0.5522    1.7647    1.8915 N   0  0  0  0  0  0  0  0  0  0  0  0
    1.3093    1.1450    2.1332 H   0  0  0  0  0  0  0  0  0  0  0  0
    0.5577    3.1119    2.4582 C   0  0  0  0  0  0  0  0  0  0  0  0
   -0.3986    3.3098    2.9475 H   0  0  0  0  0  0  0  0  0  0  0  0
    1.3619    3.2123    3.1886 H   0  0  0  0  0  0  0  0  0  0  0  0
    0.6974    3.8450    1.6614 H   0  0  0  0  0  0  0  0  0  0  0  0
  5  6  2  0  0  0  0
  5  7  1  0  0  0  0
  2  3  1  0  0  0  0
  2  4  1  0  0  0  0
  2  5  1  0  0  0  0
  1  2  1  0  0  0  0
 24 25  2  0  0  0  0
 24 26  1  0  0  0  0
 20 21  1  0  0  0  0
 20 22  1  0  0  0  0
 20 23  1  0  0  0  0
 17 18  1  0  0  0  0
 17 19  1  0  0  0  0
 17 20  1  0  0  0  0
 13 14  1  0  0  0  0
 13 15  1  0  0  0  0
 13 16  1  0  0  0  0
 11 12  1  0  0  0  0
 11 13  1  0  0  0  0
 11 17  1  0  0  0  0
  9 10  1  0  0  0  0
  9 11  1  0  0  0  0
  9 24  1  0  0  0  0
  7  8  1  0  0  0  0
  7  9  1  0  0  0  0
 28 29  1  0  0  0  0
 28 30  1  0  0  0  0
 28 31  1  0  0  0  0
 26 27  1  0  0  0  0
 26 28  1  0  0  0  0
M  END
$$$$
default_name
  -OEChem-02102213163D

 31 30  0     1  0  0  0  0  0999 V2000
   -3.0760   -3.6390    1.5496 H   0  0  0  0  0  0  0  0  0  0  0  0
   -3.0940   -2.6290    1.1426 C   0  0  0  0  0  0  0  0  0  0  0  0
   -3.7160   -1.9930    1.7706 H   0  0  0  0  0  0  0  0  0  0  0  0
   -3.4880   -2.6500    0.1286 H   0  0  0  0  0  0  0  0  0  0  0  0
   -1.6860   -2.0850    1.1196 C   0  0  0  0  0  0  0  0  0  0  0  0
   -0.7540   -2.7700    1.5226 O   0  0  0  0  0  0  0  0  0  0  0  0
   -1.5320   -0.8490    0.6496 N   0  0  0  0  0  0  0  0  0  0  0  0
   -2.3500   -0.3360    0.3566 H   0  0  0  0  0  0  0  0  0  0  0  0
   -0.2470   -0.1410    0.5576 C   0  0  1  0  0  0  0  0  0  0  0  0
    0.4572   -0.6505    1.2162 H   0  0  0  0  0  0  0  0  0  0  0  0
    0.3091   -0.2220   -0.8868 C   0  0  1  0  0  0  0  0  0  0  0  0
    0.8484    0.7081   -1.0765 H   0  0  0  0  0  0  0  0  0  0  0  0
    1.3022   -1.3854   -1.0706 C   0  0  0  0  0  0  0  0  0  0  0  0
    0.7930   -2.3451   -0.9655 H   0  0  0  0  0  0  0  0  0  0  0  0
    1.7663   -1.3349   -2.0543 H   0  0  0  0  0  0  0  0  0  0  0  0
    2.0956   -1.3247   -0.3248 H   0  0  0  0  0  0  0  0  0  0  0  0
   -0.8381   -0.3074   -1.9184 C   0  0  0  0  0  0  0  0  0  0  0  0
   -1.1084    0.6933   -2.2581 H   0  0  0  0  0  0  0  0  0  0  0  0
   -0.4934   -0.8795   -2.7797 H   0  0  0  0  0  0  0  0  0  0  0  0
   -2.0988   -1.0003   -1.3836 C   0  0  0  0  0  0  0  0  0  0  0  0
   -2.5494   -0.4110   -0.5852 H   0  0  0  0  0  0  0  0  0  0  0  0
   -2.8238   -1.1009   -2.1916 H   0  0  0  0  0  0  0  0  0  0  0  0
   -1.8479   -1.9926   -1.0072 H   0  0  0  0  0  0  0  0  0  0  0  0
   -0.3971    1.3008    1.0689 C   0  0  0  0  0  0  0  0  0  0  0  0
   -1.3643    1.9819    0.7311 O   0  0  0  0  0  0  0  0  0  0  0  0
    0.5522    1.7647    1.8915 N   0  0  0  0  0  0  0  0  0  0  0  0
    1.3093    1.1450    2.1332 H   0  0  0  0  0  0  0  0  0  0  0  0
    0.5577    3.1119    2.4582 C   0  0  0  0  0  0  0  0  0  0  0  0
   -0.3986    3.3098    2.9475 H   0  0  0  0  0  0  0  0  0  0  0  0
    1.3619    3.2123    3.1886 H   0  0  0  0  0  0  0  0  0  0  0  0
    0.6974    3.8450    1.6614 H   0  0  0  0  0  0  0  0  0  0  0  0
  5  6  2  0  0  0  0
  5  7  1  0  0  0  0
  2  3  1  0  0  0  0
  2  4  1  0  0  0  0
  2  5  1  0  0  0  0
  1  2  1  0  0  0  0
 24 25  2  0  0  0  0
 24 26  1  0  0  0  0
 20 21  1  0  0  0  0
 20 22  1  0  0  0  0
 20 23  1  0  0  0  0
 17 18  1  0  0  0  0
 17 19  1  0  0  0  0
 17 20  1  0  0  0  0
 13 14  1  0  0  0  0
 13 15  1  0  0  0  0
 13 16  1  0  0  0  0
 11 12  1  0  0  0  0
 11 13  1  0  0  0  0
 11 17  1  0  0  0  0
  9 10  1  0  0  0  0
  9 11  1  0  0  0  0
  9 24  1  0  0  0  0
  7  8  1  0  0  0  0
  7  9  1  0  0  0  0
 28 29  1  0  0  0  0
 28 30  1  0  0  0  0
 28 31  1  0  0  0  0
 26 27  1  0  0  0  0
 26 28  1  0  0  0  0
M  END
$$$$
default_name
  -OEChem-02102213163D

 31 30  0     1  0  0  0  0  0999 V2000
   -3.0760   -3.6390    1.5496 H   0  0  0  0  0  0  0  0  0  0  0  0
   -3.0940   -2.6290    1.1426 C   0  0  0  0  0  0  0  0  0  0  0  0
   -3.7160   -1.9930    1.7706 H   0  0  0  0  0  0  0  0  0  0  0  0
   -3.4880   -2.6500    0.1286 H   0  0  0  0  0  0  0  0  0  0  0  0
   -1.6860   -2.0850    1.1196 C   0  0  0  0  0  0  0  0  0  0  0  0
   -0.7540   -2.7700    1.5226 O   0  0  0  0  0  0  0  0  0  0  0  0
   -1.5320   -0.8490    0.6496 N   0  0  0  0  0  0  0  0  0  0  0  0
   -2.3500   -0.3360    0.3566 H   0  0  0  0  0  0  0  0  0  0  0  0
   -0.2470   -0.1410    0.5576 C   0  0  1  0  0  0  0  0  0  0  0  0
    0.4572   -0.6505    1.2162 H   0  0  0  0  0  0  0  0  0  0  0  0
    0.3091   -0.2220   -0.8868 C   0  0  1  0  0  0  0  0  0  0  0  0
    0.8484    0.7081   -1.0765 H   0  0  0  0  0  0  0  0  0  0  0  0
    1.3022   -1.3854   -1.0706 C   0  0  0  0  0  0  0  0  0  0  0  0
    0.7930   -2.3451   -0.9655 H   0  0  0  0  0  0  0  0  0  0  0  0
    1.7663   -1.3349   -2.0543 H   0  0  0  0  0  0  0  0  0  0  0  0
    2.0956   -1.3247   -0.3248 H   0  0  0  0  0  0  0  0  0  0  0  0
   -0.8381   -0.3074   -1.9184 C   0  0  0  0  0  0  0  0  0  0  0  0
   -0.9309    0.6399   -2.4511 H   0  0  0  0  0  0  0  0  0  0  0  0
   -0.6005   -1.0857   -2.6435 H   0  0  0  0  0  0  0  0  0  0  0  0
   -2.1988   -0.6572   -1.3008 C   0  0  0  0  0  0  0  0  0  0  0  0
   -2.5378    0.1437   -0.6440 H   0  0  0  0  0  0  0  0  0  0  0  0
   -2.9324   -0.7865   -2.0969 H   0  0  0  0  0  0  0  0  0  0  0  0
   -2.1236   -1.5860   -0.7342 H   0  0  0  0  0  0  0  0  0  0  0  0
   -0.3971    1.3008    1.0689 C   0  0  0  0  0  0  0  0  0  0  0  0
   -1.3643    1.9819    0.7311 O   0  0  0  0  0  0  0  0  0  0  0  0
    0.5522    1.7647    1.8915 N   0  0  0  0  0  0  0  0  0  0  0  0
    1.3093    1.1450    2.1332 H   0  0  0  0  0  0  0  0  0  0  0  0
    0.5577    3.1119    2.4582 C   0  0  0  0  0  0  0  0  0  0  0  0
   -0.3986    3.3098    2.9475 H   0  0  0  0  0  0  0  0  0  0  0  0
    1.3619    3.2123    3.1886 H   0  0  0  0  0  0  0  0  0  0  0  0
    0.6974    3.8450    1.6614 H   0  0  0  0  0  0  0  0  0  0  0  0
  5  6  2  0  0  0  0
  5  7  1  0  0  0  0
  2  3  1  0  0  0  0
  2  4  1  0  0  0  0
  2  5  1  0  0  0  0
  1  2  1  0  0  0  0
 24 25  2  0  0  0  0
 24 26  1  0  0  0  0
 20 21  1  0  0  0  0
 20 22  1  0  0  0  0
 20 23  1  0  0  0  0
 17 18  1  0  0  0  0
 17 19  1  0  0  0  0
 17 20  1  0  0  0  0
 13 14  1  0  0  0  0
 13 15  1  0  0  0  0
 13 16  1  0  0  0  0
 11 12  1  0  0  0  0
 11 13  1  0  0  0  0
 11 17  1  0  0  0  0
  9 10  1  0  0  0  0
  9 11  1  0  0  0  0
  9 24  1  0  0  0  0
  7  8  1  0  0  0  0
  7  9  1  0  0  0  0
 28 29  1  0  0  0  0
 28 30  1  0  0  0  0
 28 31  1  0  0  0  0
 26 27  1  0  0  0  0
 26 28  1  0  0  0  0
M  END
$$$$
default_name
  -OEChem-02102213163D

 31 30  0     1  0  0  0  0  0999 V2000
   -3.0760   -3.6390    1.5496 H   0  0  0  0  0  0  0  0  0  0  0  0
   -3.0940   -2.6290    1.1426 C   0  0  0  0  0  0  0  0  0  0  0  0
   -3.7160   -1.9930    1.7706 H   0  0  0  0  0  0  0  0  0  0  0  0
   -3.4880   -2.6500    0.1286 H   0  0  0  0  0  0  0  0  0  0  0  0
   -1.6860   -2.0850    1.1196 C   0  0  0  0  0  0  0  0  0  0  0  0
   -0.7540   -2.7700    1.5226 O   0  0  0  0  0  0  0  0  0  0  0  0
   -1.5320   -0.8490    0.6496 N   0  0  0  0  0  0  0  0  0  0  0  0
   -2.3500   -0.3360    0.3566 H   0  0  0  0  0  0  0  0  0  0  0  0
   -0.2470   -0.1410    0.5576 C   0  0  1  0  0  0  0  0  0  0  0  0
    0.4572   -0.6505    1.2162 H   0  0  0  0  0  0  0  0  0  0  0  0
    0.3091   -0.2220   -0.8868 C   0  0  1  0  0  0  0  0  0  0  0  0
    0.8484    0.7081   -1.0765 H   0  0  0  0  0  0  0  0  0  0  0  0
    1.3022   -1.3854   -1.0706 C   0  0  0  0  0  0  0  0  0  0  0  0
    0.7930   -2.3451   -0.9655 H   0  0  0  0  0  0  0  0  0  0  0  0
    1.7663   -1.3349   -2.0543 H   0  0  0  0  0  0  0  0  0  0  0  0
    2.0956   -1.3247   -0.3248 H   0  0  0  0  0  0  0  0  0  0  0  0
   -0.8381   -0.3074   -1.9184 C   0  0  0  0  0  0  0  0  0  0  0  0
   -0.7658    0.5206   -2.6248 H   0  0  0  0  0  0  0  0  0  0  0  0
   -0.7416   -1.2403   -2.4738 H   0  0  0  0  0  0  0  0  0  0  0  0
   -2.2374   -0.2927   -1.2881 C   0  0  0  0  0  0  0  0  0  0  0  0
   -2.4299    0.6662   -0.8072 H   0  0  0  0  0  0  0  0  0  0  0  0
   -2.9843   -0.4458   -2.0674 H   0  0  0  0  0  0  0  0  0  0  0  0
   -2.3236   -1.0932   -0.5525 H   0  0  0  0  0  0  0  0  0  0  0  0
   -0.3971    1.3008    1.0689 C   0  0  0  0  0  0  0  0  0  0  0  0
   -1.3643    1.9819    0.7311 O   0  0  0  0  0  0  0  0  0  0  0  0
    0.5522    1.7647    1.8915 N   0  0  0  0  0  0  0  0  0  0  0  0
    1.3093    1.1450    2.1332 H   0  0  0  0  0  0  0  0  0  0  0  0
    0.5577    3.1119    2.4582 C   0  0  0  0  0  0  0  0  0  0  0  0
   -0.3986    3.3098    2.9475 H   0  0  0  0  0  0  0  0  0  0  0  0
    1.3619    3.2123    3.1886 H   0  0  0  0  0  0  0  0  0  0  0  0
    0.6974    3.8450    1.6614 H   0  0  0  0  0  0  0  0  0  0  0  0
  5  6  2  0  0  0  0
  5  7  1  0  0  0  0
  2  3  1  0  0  0  0
  2  4  1  0  0  0  0
  2  5  1  0  0  0  0
  1  2  1  0  0  0  0
 24 25  2  0  0  0  0
 24 26  1  0  0  0  0
 20 21  1  0  0  0  0
 20 22  1  0  0  0  0
 20 23  1  0  0  0  0
 17 18  1  0  0  0  0
 17 19  1  0  0  0  0
 17 20  1  0  0  0  0
 13 14  1  0  0  0  0
 13 15  1  0  0  0  0
 13 16  1  0  0  0  0
 11 12  1  0  0  0  0
 11 13  1  0  0  0  0
 11 17  1  0  0  0  0
  9 10  1  0  0  0  0
  9 11  1  0  0  0  0
  9 24  1  0  0  0  0
  7  8  1  0  0  0  0
  7  9  1  0  0  0  0
 28 29  1  0  0  0  0
 28 30  1  0  0  0  0
 28 31  1  0  0  0  0
 26 27  1  0  0  0  0
 26 28  1  0  0  0  0
M  END
$$$$
default_name
  -OEChem-02102213163D

 31 30  0     1  0  0  0  0  0999 V2000
   -3.0760   -3.6390    1.5496 H   0  0  0  0  0  0  0  0  0  0  0  0
   -3.0940   -2.6290    1.1426 C   0  0  0  0  0  0  0  0  0  0  0  0
   -3.7160   -1.9930    1.7706 H   0  0  0  0  0  0  0  0  0  0  0  0
   -3.4880   -2.6500    0.1286 H   0  0  0  0  0  0  0  0  0  0  0  0
   -1.6860   -2.0850    1.1196 C   0  0  0  0  0  0  0  0  0  0  0  0
   -0.7540   -2.7700    1.5226 O   0  0  0  0  0  0  0  0  0  0  0  0
   -1.5320   -0.8490    0.6496 N   0  0  0  0  0  0  0  0  0  0  0  0
   -2.3500   -0.3360    0.3566 H   0  0  0  0  0  0  0  0  0  0  0  0
   -0.2470   -0.1410    0.5576 C   0  0  1  0  0  0  0  0  0  0  0  0
    0.4572   -0.6505    1.2162 H   0  0  0  0  0  0  0  0  0  0  0  0
    0.3091   -0.2220   -0.8868 C   0  0  1  0  0  0  0  0  0  0  0  0
    0.8484    0.7081   -1.0765 H   0  0  0  0  0  0  0  0  0  0  0  0
    1.3022   -1.3854   -1.0706 C   0  0  0  0  0  0  0  0  0  0  0  0
    0.7930   -2.3451   -0.9655 H   0  0  0  0  0  0  0  0  0  0  0  0
    1.7663   -1.3349   -2.0543 H   0  0  0  0  0  0  0  0  0  0  0  0
    2.0956   -1.3247   -0.3248 H   0  0  0  0  0  0  0  0  0  0  0  0
   -0.8381   -0.3074   -1.9184 C   0  0  0  0  0  0  0  0  0  0  0  0
   -0.6245    0.3434   -2.7673 H   0  0  0  0  0  0  0  0  0  0  0  0
   -0.9070   -1.3326   -2.2822 H   0  0  0  0  0  0  0  0  0  0  0  0
   -2.2118    0.0685   -1.3465 C   0  0  0  0  0  0  0  0  0  0  0  0
   -2.2332    1.1208   -1.0637 H   0  0  0  0  0  0  0  0  0  0  0  0
   -2.9760   -0.1021   -2.1051 H   0  0  0  0  0  0  0  0  0  0  0  0
   -2.4343   -0.5477   -0.4747 H   0  0  0  0  0  0  0  0  0  0  0  0
   -0.3971    1.3008    1.0689 C   0  0  0  0  0  0  0  0  0  0  0  0
   -1.3643    1.9819    0.7311 O   0  0  0  0  0  0  0  0  0  0  0  0
    0.5522    1.7647    1.8915 N   0  0  0  0  0  0  0  0  0  0  0  0
    1.3093    1.1450    2.1332 H   0  0  0  0  0  0  0  0  0  0  0  0
    0.5577    3.1119    2.4582 C   0  0  0  0  0  0  0  0  0  0  0  0
   -0.3986    3.3098    2.9475 H   0  0  0  0  0  0  0  0  0  0  0  0
    1.3619    3.2123    3.1886 H   0  0  0  0  0  0  0  0  0  0  0  0
    0.6974    3.8450    1.6614 H   0  0  0  0  0  0  0  0  0  0  0  0
  5  6  2  0  0  0  0
  5  7  1  0  0  0  0
  2  3  1  0  0  0  0
  2  4  1  0  0  0  0
  2  5  1  0  0  0  0
  1  2  1  0  0  0  0
 24 25  2  0  0  0  0
 24 26  1  0  0  0  0
 20 21  1  0  0  0  0
 20 22  1  0  0  0  0
 20 23  1  0  0  0  0
 17 18  1  0  0  0  0
 17 19  1  0  0  0  0
 17 20  1  0  0  0  0
 13 14  1  0  0  0  0
 13 15  1  0  0  0  0
 13 16  1  0  0  0  0
 11 12  1  0  0  0  0
 11 13  1  0  0  0  0
 11 17  1  0  0  0  0
  9 10  1  0  0  0  0
  9 11  1  0  0  0  0
  9 24  1  0  0  0  0
  7  8  1  0  0  0  0
  7  9  1  0  0  0  0
 28 29  1  0  0  0  0
 28 30  1  0  0  0  0
 28 31  1  0  0  0  0
 26 27  1  0  0  0  0
 26 28  1  0  0  0  0
M  END
$$$$
default_name
  -OEChem-02102213163D

 31 30  0     1  0  0  0  0  0999 V2000
   -3.0760   -3.6390    1.5496 H   0  0  0  0  0  0  0  0  0  0  0  0
   -3.0940   -2.6290    1.1426 C   0  0  0  0  0  0  0  0  0  0  0  0
   -3.7160   -1.9930    1.7706 H   0  0  0  0  0  0  0  0  0  0  0  0
   -3.4880   -2.6500    0.1286 H   0  0  0  0  0  0  0  0  0  0  0  0
   -1.6860   -2.0850    1.1196 C   0  0  0  0  0  0  0  0  0  0  0  0
   -0.7540   -2.7700    1.5226 O   0  0  0  0  0  0  0  0  0  0  0  0
   -1.5320   -0.8490    0.6496 N   0  0  0  0  0  0  0  0  0  0  0  0
   -2.3500   -0.3360    0.3566 H   0  0  0  0  0  0  0  0  0  0  0  0
   -0.2470   -0.1410    0.5576 C   0  0  1  0  0  0  0  0  0  0  0  0
    0.4572   -0.6505    1.2162 H   0  0  0  0  0  0  0  0  0  0  0  0
    0.3091   -0.2220   -0.8868 C   0  0  1  0  0  0  0  0  0  0  0  0
    0.8484    0.7081   -1.0765 H   0  0  0  0  0  0  0  0  0  0  0  0
    1.3022   -1.3854   -1.0706 C   0  0  0  0  0  0  0  0  0  0  0  0
    0.7930   -2.3451   -0.9655 H   0  0  0  0  0  0  0  0  0  0  0  0
    1.7663   -1.3349   -2.0543 H   0  0  0  0  0  0  0  0  0  0  0  0
    2.0956   -1.3247   -0.3248 H   0  0  0  0  0  0  0  0  0  0  0  0
   -0.8381   -0.3074   -1.9184 C   0  0  0  0  0  0  0  0  0  0  0  0
   -0.5166    0.1205   -2.8688 H   0  0  0  0  0  0  0  0  0  0  0  0
   -1.0854   -1.3563   -2.0817 H   0  0  0  0  0  0  0  0  0  0  0  0
   -2.1238    0.4018   -1.4719 C   0  0  0  0  0  0  0  0  0  0  0  0
   -1.9609    1.4767   -1.3960 H   0  0  0  0  0  0  0  0  0  0  0  0
   -2.9080    0.2211   -2.2074 H   0  0  0  0  0  0  0  0  0  0  0  0
   -2.4480    0.0132   -0.5058 H   0  0  0  0  0  0  0  0  0  0  0  0
   -0.3971    1.3008    1.0689 C   0  0  0  0  0  0  0  0  0  0  0  0
   -1.3643    1.9819    0.7311 O   0  0  0  0  0  0  0  0  0  0  0  0
    0.5522    1.7647    1.8915 N   0  0  0  0  0  0  0  0  0  0  0  0
    1.3093    1.1450    2.1332 H   0  0  0  0  0  0  0  0  0  0  0  0
    0.5577    3.1119    2.4582 C   0  0  0  0  0  0  0  0  0  0  0  0
   -0.3986    3.3098    2.9475 H   0  0  0  0  0  0  0  0  0  0  0  0
    1.3619    3.2123    3.1886 H   0  0  0  0  0  0  0  0  0  0  0  0
    0.6974    3.8450    1.6614 H   0  0  0  0  0  0  0  0  0  0  0  0
  5  6  2  0  0  0  0
  5  7  1  0  0  0  0
  2  3  1  0  0  0  0
  2  4  1  0  0  0  0
  2  5  1  0  0  0  0
  1  2  1  0  0  0  0
 24 25  2  0  0  0  0
 24 26  1  0  0  0  0
 20 21  1  0  0  0  0
 20 22  1  0  0  0  0
 20 23  1  0  0  0  0
 17 18  1  0  0  0  0
 17 19  1  0  0  0  0
 17 20  1  0  0  0  0
 13 14  1  0  0  0  0
 13 15  1  0  0  0  0
 13 16  1  0  0  0  0
 11 12  1  0  0  0  0
 11 13  1  0  0  0  0
 11 17  1  0  0  0  0
  9 10  1  0  0  0  0
  9 11  1  0  0  0  0
  9 24  1  0  0  0  0
  7  8  1  0  0  0  0
  7  9  1  0  0  0  0
 28 29  1  0  0  0  0
 28 30  1  0  0  0  0
 28 31  1  0  0  0  0
 26 27  1  0  0  0  0
 26 28  1  0  0  0  0
M  END
$$$$
default_name
  -OEChem-02102213163D

 31 30  0     1  0  0  0  0  0999 V2000
   -3.0760   -3.6390    1.5496 H   0  0  0  0  0  0  0  0  0  0  0  0
   -3.0940   -2.6290    1.1426 C   0  0  0  0  0  0  0  0  0  0  0  0
   -3.7160   -1.9930    1.7706 H   0  0  0  0  0  0  0  0  0  0  0  0
   -3.4880   -2.6500    0.1286 H   0  0  0  0  0  0  0  0  0  0  0  0
   -1.6860   -2.0850    1.1196 C   0  0  0  0  0  0  0  0  0  0  0  0
   -0.7540   -2.7700    1.5226 O   0  0  0  0  0  0  0  0  0  0  0  0
   -1.5320   -0.8490    0.6496 N   0  0  0  0  0  0  0  0  0  0  0  0
   -2.3500   -0.3360    0.3566 H   0  0  0  0  0  0  0  0  0  0  0  0
   -0.2470   -0.1410    0.5576 C   0  0  1  0  0  0  0  0  0  0  0  0
    0.4572   -0.6505    1.2162 H   0  0  0  0  0  0  0  0  0  0  0  0
    0.3091   -0.2220   -0.8868 C   0  0  1  0  0  0  0  0  0  0  0  0
    0.8484    0.7081   -1.0765 H   0  0  0  0  0  0  0  0  0  0  0  0
    1.3022   -1.3854   -1.0706 C   0  0  0  0  0  0  0  0  0  0  0  0
    0.7930   -2.3451   -0.9655 H   0  0  0  0  0  0  0  0  0  0  0  0
    1.7663   -1.3349   -2.0543 H   0  0  0  0  0  0  0  0  0  0  0  0
    2.0956   -1.3247   -0.3248 H   0  0  0  0  0  0  0  0  0  0  0  0
   -0.8381   -0.3074   -1.9184 C   0  0  0  0  0  0  0  0  0  0  0  0
   -0.4495   -0.1330   -2.9226 H   0  0  0  0  0  0  0  0  0  0  0  0
   -1.2648   -1.3099   -1.8861 H   0  0  0  0  0  0  0  0  0  0  0  0
   -1.9795    0.6844   -1.6558 C   0  0  0  0  0  0  0  0  0  0  0  0
   -1.6316    1.7096   -1.7815 H   0  0  0  0  0  0  0  0  0  0  0  0
   -2.7850    0.5020   -2.3675 H   0  0  0  0  0  0  0  0  0  0  0  0
   -2.3639    0.5515   -0.6440 H   0  0  0  0  0  0  0  0  0  0  0  0
   -0.3971    1.3008    1.0689 C   0  0  0  0  0  0  0  0  0  0  0  0
   -1.3643    1.9819    0.7311 O   0  0  0  0  0  0  0  0  0  0  0  0
    0.5522    1.7647    1.8915 N   0  0  0  0  0  0  0  0  0  0  0  0
    1.3093    1.1450    2.1332 H   0  0  0  0  0  0  0  0  0  0  0  0
    0.5577    3.1119    2.4582 C   0  0  0  0  0  0  0  0  0  0  0  0
   -0.3986    3.3098    2.9475 H   0  0  0  0  0  0  0  0  0  0  0  0
    1.3619    3.2123    3.1886 H   0  0  0  0  0  0  0  0  0  0  0  0
    0.6974    3.8450    1.6614 H   0  0  0  0  0  0  0  0  0  0  0  0
  5  6  2  0  0  0  0
  5  7  1  0  0  0  0
  2  3  1  0  0  0  0
  2  4  1  0  0  0  0
  2  5  1  0  0  0  0
  1  2  1  0  0  0  0
 24 25  2  0  0  0  0
 24 26  1  0  0  0  0
 20 21  1  0  0  0  0
 20 22  1  0  0  0  0
 20 23  1  0  0  0  0
 17 18  1  0  0  0  0
 17 19  1  0  0  0  0
 17 20  1  0  0  0  0
 13 14  1  0  0  0  0
 13 15  1  0  0  0  0
 13 16  1  0  0  0  0
 11 12  1  0  0  0  0
 11 13  1  0  0  0  0
 11 17  1  0  0  0  0
  9 10  1  0  0  0  0
  9 11  1  0  0  0  0
  9 24  1  0  0  0  0
  7  8  1  0  0  0  0
  7  9  1  0  0  0  0
 28 29  1  0  0  0  0
 28 30  1  0  0  0  0
 28 31  1  0  0  0  0
 26 27  1  0  0  0  0
 26 28  1  0  0  0  0
M  END
$$$$
default_name
  -OEChem-02102213163D

 31 30  0     1  0  0  0  0  0999 V2000
   -3.0760   -3.6390    1.5496 H   0  0  0  0  0  0  0  0  0  0  0  0
   -3.0940   -2.6290    1.1426 C   0  0  0  0  0  0  0  0  0  0  0  0
   -3.7160   -1.9930    1.7706 H   0  0  0  0  0  0  0  0  0  0  0  0
   -3.4880   -2.6500    0.1286 H   0  0  0  0  0  0  0  0  0  0  0  0
   -1.6860   -2.0850    1.1196 C   0  0  0  0  0  0  0  0  0  0  0  0
   -0.7540   -2.7700    1.5226 O   0  0  0  0  0  0  0  0  0  0  0  0
   -1.5320   -0.8490    0.6496 N   0  0  0  0  0  0  0  0  0  0  0  0
   -2.3500   -0.3360    0.3566 H   0  0  0  0  0  0  0  0  0  0  0  0
   -0.2470   -0.1410    0.5576 C   0  0  1  0  0  0  0  0  0  0  0  0
    0.4572   -0.6505    1.2162 H   0  0  0  0  0  0  0  0  0  0  0  0
    0.3091   -0.2220   -0.8868 C   0  0  1  0  0  0  0  0  0  0  0  0
    0.8484    0.7081   -1.0765 H   0  0  0  0  0  0  0  0  0  0  0  0
    1.3022   -1.3854   -1.0706 C   0  0  0  0  0  0  0  0  0  0  0  0
    0.7930   -2.3451   -0.9655 H   0  0  0  0  0  0  0  0  0  0  0  0
    1.7663   -1.3349   -2.0543 H   0  0  0  0  0  0  0  0  0  0  0  0
    2.0956   -1.3247   -0.3248 H   0  0  0  0  0  0  0  0  0  0  0  0
   -0.8381   -0.3074   -1.9184 C   0  0  0  0  0  0  0  0  0  0  0  0
   -0.4276   -0.3997   -2.9248 H   0  0  0  0  0  0  0  0  0  0  0  0
   -1.4328   -1.1965   -1.7086 H   0  0  0  0  0  0  0  0  0  0  0  0
   -1.7886    0.8971   -1.8857 C   0  0  0  0  0  0  0  0  0  0  0  0
   -1.2678    1.8035   -2.1939 H   0  0  0  0  0  0  0  0  0  0  0  0
   -2.6154    0.7213   -2.5742 H   0  0  0  0  0  0  0  0  0  0  0  0
   -2.1877    1.0303   -0.8796 H   0  0  0  0  0  0  0  0  0  0  0  0
   -0.3971    1.3008    1.0689 C   0  0  0  0  0  0  0  0  0  0  0  0
   -1.3643    1.9819    0.7311 O   0  0  0  0  0  0  0  0  0  0  0  0
    0.5522    1.7647    1.8915 N   0  0  0  0  0  0  0  0  0  0  0  0
    1.3093    1.1450    2.1332 H   0  0  0  0  0  0  0  0  0  0  0  0
    0.5577    3.1119    2.4582 C   0  0  0  0  0  0  0  0  0  0  0  0
   -0.3986    3.3098    2.9475 H   0  0  0  0  0  0  0  0  0  0  0  0
    1.3619    3.2123    3.1886 H   0  0  0  0  0  0  0  0  0  0  0  0
    0.6974    3.8450    1.6614 H   0  0  0  0  0  0  0  0  0  0  0  0
  5  6  2  0  0  0  0
  5  7  1  0  0  0  0
  2  3  1  0  0  0  0
  2  4  1  0  0  0  0
  2  5  1  0  0  0  0
  1  2  1  0  0  0  0
 24 25  2  0  0  0  0
 24 26  1  0  0  0  0
 20 21  1  0  0  0  0
 20 22  1  0  0  0  0
 20 23  1  0  0  0  0
 17 18  1  0  0  0  0
 17 19  1  0  0  0  0
 17 20  1  0  0  0  0
 13 14  1  0  0  0  0
 13 15  1  0  0  0  0
 13 16  1  0  0  0  0
 11 12  1  0  0  0  0
 11 13  1  0  0  0  0
 11 17  1  0  0  0  0
  9 10  1  0  0  0  0
  9 11  1  0  0  0  0
  9 24  1  0  0  0  0
  7  8  1  0  0  0  0
  7  9  1  0  0  0  0
 28 29  1  0  0  0  0
 28 30  1  0  0  0  0
 28 31  1  0  0  0  0
 26 27  1  0  0  0  0
 26 28  1  0  0  0  0
M  END
$$$$
default_name
  -OEChem-02102213163D

 31 30  0     1  0  0  0  0  0999 V2000
   -3.0760   -3.6390    1.5496 H   0  0  0  0  0  0  0  0  0  0  0  0
   -3.0940   -2.6290    1.1426 C   0  0  0  0  0  0  0  0  0  0  0  0
   -3.7160   -1.9930    1.7706 H   0  0  0  0  0  0  0  0  0  0  0  0
   -3.4880   -2.6500    0.1286 H   0  0  0  0  0  0  0  0  0  0  0  0
   -1.6860   -2.0850    1.1196 C   0  0  0  0  0  0  0  0  0  0  0  0
   -0.7540   -2.7700    1.5226 O   0  0  0  0  0  0  0  0  0  0  0  0
   -1.5320   -0.8490    0.6496 N   0  0  0  0  0  0  0  0  0  0  0  0
   -2.3500   -0.3360    0.3566 H   0  0  0  0  0  0  0  0  0  0  0  0
   -0.2470   -0.1410    0.5576 C   0  0  1  0  0  0  0  0  0  0  0  0
    0.4572   -0.6505    1.2162 H   0  0  0  0  0  0  0  0  0  0  0  0
    0.3091   -0.2220   -0.8868 C   0  0  1  0  0  0  0  0  0  0  0  0
    0.8484    0.7081   -1.0765 H   0  0  0  0  0  0  0  0  0  0  0  0
    1.3022   -1.3854   -1.0706 C   0  0  0  0  0  0  0  0  0  0  0  0
    0.7930   -2.3451   -0.9655 H   0  0  0  0  0  0  0  0  0  0  0  0
    1.7663   -1.3349   -2.0543 H   0  0  0  0  0  0  0  0  0  0  0  0
    2.0956   -1.3247   -0.3248 H   0  0  0  0  0  0  0  0  0  0  0  0
   -0.8381   -0.3074   -1.9184 C   0  0  0  0  0  0  0  0  0  0  0  0
   -0.4526   -0.6616   -2.8753 H   0  0  0  0  0  0  0  0  0  0  0  0
   -1.5780   -1.0238   -1.5614 H   0  0  0  0  0  0  0  0  0  0  0  0
   -1.5642    1.0254   -2.1460 C   0  0  0  0  0  0  0  0  0  0  0  0
   -0.8943    1.7521   -2.6051 H   0  0  0  0  0  0  0  0  0  0  0  0
   -2.4108    0.8641   -2.8137 H   0  0  0  0  0  0  0  0  0  0  0  0
   -1.9313    1.4170   -1.1967 H   0  0  0  0  0  0  0  0  0  0  0  0
   -0.3971    1.3008    1.0689 C   0  0  0  0  0  0  0  0  0  0  0  0
   -1.3643    1.9819    0.7311 O   0  0  0  0  0  0  0  0  0  0  0  0
    0.5522    1.7647    1.8915 N   0  0  0  0  0  0  0  0  0  0  0  0
    1.3093    1.1450    2.1332 H   0  0  0  0  0  0  0  0  0  0  0  0
    0.5577    3.1119    2.4582 C   0  0  0  0  0  0  0  0  0  0  0  0
   -0.3986    3.3098    2.9475 H   0  0  0  0  0  0  0  0  0  0  0  0
    1.3619    3.2123    3.1886 H   0  0  0  0  0  0  0  0  0  0  0  0
    0.6974    3.8450    1.6614 H   0  0  0  0  0  0  0  0  0  0  0  0
  5  6  2  0  0  0  0
  5  7  1  0  0  0  0
  2  3  1  0  0  0  0
  2  4  1  0  0  0  0
  2  5  1  0  0  0  0
  1  2  1  0  0  0  0
 24 25  2  0  0  0  0
 24 26  1  0  0  0  0
 20 21  1  0  0  0  0
 20 22  1  0  0  0  0
 20 23  1  0  0  0  0
 17 18  1  0  0  0  0
 17 19  1  0  0  0  0
 17 20  1  0  0  0  0
 13 14  1  0  0  0  0
 13 15  1  0  0  0  0
 13 16  1  0  0  0  0
 11 12  1  0  0  0  0
 11 13  1  0  0  0  0
 11 17  1  0  0  0  0
  9 10  1  0  0  0  0
  9 11  1  0  0  0  0
  9 24  1  0  0  0  0
  7  8  1  0  0  0  0
  7  9  1  0  0  0  0
 28 29  1  0  0  0  0
 28 30  1  0  0  0  0
 28 31  1  0  0  0  0
 26 27  1  0  0  0  0
 26 28  1  0  0  0  0
M  END
$$$$
default_name
  -OEChem-02102213163D

 31 30  0     1  0  0  0  0  0999 V2000
   -3.0760   -3.6390    1.5496 H   0  0  0  0  0  0  0  0  0  0  0  0
   -3.0940   -2.6290    1.1426 C   0  0  0  0  0  0  0  0  0  0  0  0
   -3.7160   -1.9930    1.7706 H   0  0  0  0  0  0  0  0  0  0  0  0
   -3.4880   -2.6500    0.1286 H   0  0  0  0  0  0  0  0  0  0  0  0
   -1.6860   -2.0850    1.1196 C   0  0  0  0  0  0  0  0  0  0  0  0
   -0.7540   -2.7700    1.5226 O   0  0  0  0  0  0  0  0  0  0  0  0
   -1.5320   -0.8490    0.6496 N   0  0  0  0  0  0  0  0  0  0  0  0
   -2.3500   -0.3360    0.3566 H   0  0  0  0  0  0  0  0  0  0  0  0
   -0.2470   -0.1410    0.5576 C   0  0  1  0  0  0  0  0  0  0  0  0
    0.4572   -0.6505    1.2162 H   0  0  0  0  0  0  0  0  0  0  0  0
    0.3091   -0.2220   -0.8868 C   0  0  1  0  0  0  0  0  0  0  0  0
    0.8484    0.7081   -1.0765 H   0  0  0  0  0  0  0  0  0  0  0  0
    1.3022   -1.3854   -1.0706 C   0  0  0  0  0  0  0  0  0  0  0  0
    0.7930   -2.3451   -0.9655 H   0  0  0  0  0  0  0  0  0  0  0  0
    1.7663   -1.3349   -2.0543 H   0  0  0  0  0  0  0  0  0  0  0  0
    2.0956   -1.3247   -0.3248 H   0  0  0  0  0  0  0  0  0  0  0  0
   -0.8381   -0.3074   -1.9184 C   0  0  0  0  0  0  0  0  0  0  0  0
   -0.5227   -0.9008   -2.7776 H   0  0  0  0  0  0  0  0  0  0  0  0
   -1.6905   -0.8036   -1.4545 H   0  0  0  0  0  0  0  0  0  0  0  0
   -1.3215    1.0605   -2.4188 C   0  0  0  0  0  0  0  0  0  0  0  0
   -0.5364    1.5589   -2.9871 H   0  0  0  0  0  0  0  0  0  0  0  0
   -2.1850    0.9206   -3.0695 H   0  0  0  0  0  0  0  0  0  0  0  0
   -1.6124    1.6854   -1.5737 H   0  0  0  0  0  0  0  0  0  0  0  0
   -0.3971    1.3008    1.0689 C   0  0  0  0  0  0  0  0  0  0  0  0
   -1.3643    1.9819    0.7311 O   0  0  0  0  0  0  0  0  0  0  0  0
    0.5522    1.7647    1.8915 N   0  0  0  0  0  0  0  0  0  0  0  0
    1.3093    1.1450    2.1332 H   0  0  0  0  0  0  0  0  0  0  0  0
    0.5577    3.1119    2.4582 C   0  0  0  0  0  0  0  0  0  0  0  0
   -0.3986    3.3098    2.9475 H   0  0  0  0  0  0  0  0  0  0  0  0
    1.3619    3.2123    3.1886 H   0  0  0  0  0  0  0  0  0  0  0  0
    0.6974    3.8450    1.6614 H   0  0  0  0  0  0  0  0  0  0  0  0
  5  6  2  0  0  0  0
  5  7  1  0  0  0  0
  2  3  1  0  0  0  0
  2  4  1  0  0  0  0
  2  5  1  0  0  0  0
  1  2  1  0  0  0  0
 24 25  2  0  0  0  0
 24 26  1  0  0  0  0
 20 21  1  0  0  0  0
 20 22  1  0  0  0  0
 20 23  1  0  0  0  0
 17 18  1  0  0  0  0
 17 19  1  0  0  0  0
 17 20  1  0  0  0  0
 13 14  1  0  0  0  0
 13 15  1  0  0  0  0
 13 16  1  0  0  0  0
 11 12  1  0  0  0  0
 11 13  1  0  0  0  0
 11 17  1  0  0  0  0
  9 10  1  0  0  0  0
  9 11  1  0  0  0  0
  9 24  1  0  0  0  0
  7  8  1  0  0  0  0
  7  9  1  0  0  0  0
 28 29  1  0  0  0  0
 28 30  1  0  0  0  0
 28 31  1  0  0  0  0
 26 27  1  0  0  0  0
 26 28  1  0  0  0  0
M  END
$$$$
default_name
  -OEChem-02102213163D

 31 30  0     1  0  0  0  0  0999 V2000
   -3.0760   -3.6390    1.5496 H   0  0  0  0  0  0  0  0  0  0  0  0
   -3.0940   -2.6290    1.1426 C   0  0  0  0  0  0  0  0  0  0  0  0
   -3.7160   -1.9930    1.7706 H   0  0  0  0  0  0  0  0  0  0  0  0
   -3.4880   -2.6500    0.1286 H   0  0  0  0  0  0  0  0  0  0  0  0
   -1.6860   -2.0850    1.1196 C   0  0  0  0  0  0  0  0  0  0  0  0
   -0.7540   -2.7700    1.5226 O   0  0  0  0  0  0  0  0  0  0  0  0
   -1.5320   -0.8490    0.6496 N   0  0  0  0  0  0  0  0  0  0  0  0
   -2.3500   -0.3360    0.3566 H   0  0  0  0  0  0  0  0  0  0  0  0
   -0.2470   -0.1410    0.5576 C   0  0  1  0  0  0  0  0  0  0  0  0
    0.4572   -0.6505    1.2162 H   0  0  0  0  0  0  0  0  0  0  0  0
    0.3091   -0.2220   -0.8868 C   0  0  1  0  0  0  0  0  0  0  0  0
    0.8484    0.7081   -1.0765 H   0  0  0  0  0  0  0  0  0  0  0  0
    1.3022   -1.3854   -1.0706 C   0  0  0  0  0  0  0  0  0  0  0  0
    0.7930   -2.3451   -0.9655 H   0  0  0  0  0  0  0  0  0  0  0  0
    1.7663   -1.3349   -2.0543 H   0  0  0  0  0  0  0  0  0  0  0  0
    2.0956   -1.3247   -0.3248 H   0  0  0  0  0  0  0  0  0  0  0  0
   -0.8381   -0.3074   -1.9184 C   0  0  0  0  0  0  0  0  0  0  0  0
   -0.6330   -1.1009   -2.6382 H   0  0  0  0  0  0  0  0  0  0  0  0
   -1.7627   -0.5510   -1.3951 H   0  0  0  0  0  0  0  0  0  0  0  0
   -1.0772    1.0001   -2.6855 C   0  0  0  0  0  0  0  0  0  0  0  0
   -0.2187    1.2371   -3.3138 H   0  0  0  0  0  0  0  0  0  0  0  0
   -1.9535    0.8871   -3.3242 H   0  0  0  0  0  0  0  0  0  0  0  0
   -1.2526    1.8171   -1.9848 H   0  0  0  0  0  0  0  0  0  0  0  0
   -0.3971    1.3008    1.0689 C   0  0  0  0  0  0  0  0  0  0  0  0
   -1.3643    1.9819    0.7311 O   0  0  0  0  0  0  0  0  0  0  0  0
    0.5522    1.7647    1.8915 N   0  0  0  0  0  0  0  0  0  0  0  0
    1.3093    1.1450    2.1332 H   0  0  0  0  0  0  0  0  0  0  0  0
    0.5577    3.1119    2.4582 C   0  0  0  0  0  0  0  0  0  0  0  0
   -0.3986    3.3098    2.9475 H   0  0  0  0  0  0  0  0  0  0  0  0
    1.3619    3.2123    3.1886 H   0  0  0  0  0  0  0  0  0  0  0  0
    0.6974    3.8450    1.6614 H   0  0  0  0  0  0  0  0  0  0  0  0
  5  6  2  0  0  0  0
  5  7  1  0  0  0  0
  2  3  1  0  0  0  0
  2  4  1  0  0  0  0
  2  5  1  0  0  0  0
  1  2  1  0  0  0  0
 24 25  2  0  0  0  0
 24 26  1  0  0  0  0
 20 21  1  0  0  0  0
 20 22  1  0  0  0  0
 20 23  1  0  0  0  0
 17 18  1  0  0  0  0
 17 19  1  0  0  0  0
 17 20  1  0  0  0  0
 13 14  1  0  0  0  0
 13 15  1  0  0  0  0
 13 16  1  0  0  0  0
 11 12  1  0  0  0  0
 11 13  1  0  0  0  0
 11 17  1  0  0  0  0
  9 10  1  0  0  0  0
  9 11  1  0  0  0  0
  9 24  1  0  0  0  0
  7  8  1  0  0  0  0
  7  9  1  0  0  0  0
 28 29  1  0  0  0  0
 28 30  1  0  0  0  0
 28 31  1  0  0  0  0
 26 27  1  0  0  0  0
 26 28  1  0  0  0  0
M  END
$$$$
default_name
  -OEChem-02102213163D

 31 30  0     1  0  0  0  0  0999 V2000
   -3.0760   -3.6390    1.5496 H   0  0  0  0  0  0  0  0  0  0  0  0
   -3.0940   -2.6290    1.1426 C   0  0  0  0  0  0  0  0  0  0  0  0
   -3.7160   -1.9930    1.7706 H   0  0  0  0  0  0  0  0  0  0  0  0
   -3.4880   -2.6500    0.1286 H   0  0  0  0  0  0  0  0  0  0  0  0
   -1.6860   -2.0850    1.1196 C   0  0  0  0  0  0  0  0  0  0  0  0
   -0.7540   -2.7700    1.5226 O   0  0  0  0  0  0  0  0  0  0  0  0
   -1.5320   -0.8490    0.6496 N   0  0  0  0  0  0  0  0  0  0  0  0
   -2.3500   -0.3360    0.3566 H   0  0  0  0  0  0  0  0  0  0  0  0
   -0.2470   -0.1410    0.5576 C   0  0  1  0  0  0  0  0  0  0  0  0
    0.4572   -0.6505    1.2162 H   0  0  0  0  0  0  0  0  0  0  0  0
    0.3091   -0.2220   -0.8868 C   0  0  1  0  0  0  0  0  0  0  0  0
    0.8484    0.7081   -1.0765 H   0  0  0  0  0  0  0  0  0  0  0  0
    1.3022   -1.3854   -1.0706 C   0  0  0  0  0  0  0  0  0  0  0  0
    0.7930   -2.3451   -0.9655 H   0  0  0  0  0  0  0  0  0  0  0  0
    1.7663   -1.3349   -2.0543 H   0  0  0  0  0  0  0  0  0  0  0  0
    2.0956   -1.3247   -0.3248 H   0  0  0  0  0  0  0  0  0  0  0  0
   -0.8381   -0.3074   -1.9184 C   0  0  0  0  0  0  0  0  0  0  0  0
   -0.7763   -1.2483   -2.4667 H   0  0  0  0  0  0  0  0  0  0  0  0
   -1.7897   -0.2830   -1.3873 H   0  0  0  0  0  0  0  0  0  0  0  0
   -0.8477    0.8483   -2.9281 C   0  0  0  0  0  0  0  0  0  0  0  0
    0.0372    0.8086   -3.5630 H   0  0  0  0  0  0  0  0  0  0  0  0
   -1.7320    0.7657   -3.5605 H   0  0  0  0  0  0  0  0  0  0  0  0
   -0.8764    1.8031   -2.4020 H   0  0  0  0  0  0  0  0  0  0  0  0
   -0.3971    1.3008    1.0689 C   0  0  0  0  0  0  0  0  0  0  0  0
   -1.3643    1.9819    0.7311 O   0  0  0  0  0  0  0  0  0  0  0  0
    0.5522    1.7647    1.8915 N   0  0  0  0  0  0  0  0  0  0  0  0
    1.3093    1.1450    2.1332 H   0  0  0  0  0  0  0  0  0  0  0  0
    0.5577    3.1119    2.4582 C   0  0  0  0  0  0  0  0  0  0  0  0
   -0.3986    3.3098    2.9475 H   0  0  0  0  0  0  0  0  0  0  0  0
    1.3619    3.2123    3.1886 H   0  0  0  0  0  0  0  0  0  0  0  0
    0.6974    3.8450    1.6614 H   0  0  0  0  0  0  0  0  0  0  0  0
  5  6  2  0  0  0  0
  5  7  1  0  0  0  0
  2  3  1  0  0  0  0
  2  4  1  0  0  0  0
  2  5  1  0  0  0  0
  1  2  1  0  0  0  0
 24 25  2  0  0  0  0
 24 26  1  0  0  0  0
 20 21  1  0  0  0  0
 20 22  1  0  0  0  0
 20 23  1  0  0  0  0
 17 18  1  0  0  0  0
 17 19  1  0  0  0  0
 17 20  1  0  0  0  0
 13 14  1  0  0  0  0
 13 15  1  0  0  0  0
 13 16  1  0  0  0  0
 11 12  1  0  0  0  0
 11 13  1  0  0  0  0
 11 17  1  0  0  0  0
  9 10  1  0  0  0  0
  9 11  1  0  0  0  0
  9 24  1  0  0  0  0
  7  8  1  0  0  0  0
  7  9  1  0  0  0  0
 28 29  1  0  0  0  0
 28 30  1  0  0  0  0
 28 31  1  0  0  0  0
 26 27  1  0  0  0  0
 26 28  1  0  0  0  0
M  END
$$$$
default_name
  -OEChem-02102213163D

 31 30  0     1  0  0  0  0  0999 V2000
   -3.0760   -3.6390    1.5496 H   0  0  0  0  0  0  0  0  0  0  0  0
   -3.0940   -2.6290    1.1426 C   0  0  0  0  0  0  0  0  0  0  0  0
   -3.7160   -1.9930    1.7706 H   0  0  0  0  0  0  0  0  0  0  0  0
   -3.4880   -2.6500    0.1286 H   0  0  0  0  0  0  0  0  0  0  0  0
   -1.6860   -2.0850    1.1196 C   0  0  0  0  0  0  0  0  0  0  0  0
   -0.7540   -2.7700    1.5226 O   0  0  0  0  0  0  0  0  0  0  0  0
   -1.5320   -0.8490    0.6496 N   0  0  0  0  0  0  0  0  0  0  0  0
   -2.3500   -0.3360    0.3566 H   0  0  0  0  0  0  0  0  0  0  0  0
   -0.2470   -0.1410    0.5576 C   0  0  1  0  0  0  0  0  0  0  0  0
    0.4572   -0.6505    1.2162 H   0  0  0  0  0  0  0  0  0  0  0  0
    0.3091   -0.2220   -0.8868 C   0  0  1  0  0  0  0  0  0  0  0  0
    0.8484    0.7081   -1.0765 H   0  0  0  0  0  0  0  0  0  0  0  0
    1.3022   -1.3854   -1.0706 C   0  0  0  0  0  0  0  0  0  0  0  0
    0.7930   -2.3451   -0.9655 H   0  0  0  0  0  0  0  0  0  0  0  0
    1.7663   -1.3349   -2.0543 H   0  0  0  0  0  0  0  0  0  0  0  0
    2.0956   -1.3247   -0.3248 H   0  0  0  0  0  0  0  0  0  0  0  0
   -0.8381   -0.3074   -1.9184 C   0  0  0  0  0  0  0  0  0  0  0  0
   -0.9425   -1.3330   -2.2748 H   0  0  0  0  0  0  0  0  0  0  0  0
   -1.7695   -0.0180   -1.4317 H   0  0  0  0  0  0  0  0  0  0  0  0
   -0.6489    0.6153   -3.1300 C   0  0  0  0  0  0  0  0  0  0  0  0
    0.2140    0.3025   -3.7177 H   0  0  0  0  0  0  0  0  0  0  0  0
   -1.5356    0.5648   -3.7623 H   0  0  0  0  0  0  0  0  0  0  0  0
   -0.5094    1.6444   -2.7970 H   0  0  0  0  0  0  0  0  0  0  0  0
   -0.3971    1.3008    1.0689 C   0  0  0  0  0  0  0  0  0  0  0  0
   -1.3643    1.9819    0.7311 O   0  0  0  0  0  0  0  0  0  0  0  0
    0.5522    1.7647    1.8915 N   0  0  0  0  0  0  0  0  0  0  0  0
    1.3093    1.1450    2.1332 H   0  0  0  0  0  0  0  0  0  0  0  0
    0.5577    3.1119    2.4582 C   0  0  0  0  0  0  0  0  0  0  0  0
   -0.3986    3.3098    2.9475 H   0  0  0  0  0  0  0  0  0  0  0  0
    1.3619    3.2123    3.1886 H   0  0  0  0  0  0  0  0  0  0  0  0
    0.6974    3.8450    1.6614 H   0  0  0  0  0  0  0  0  0  0  0  0
  5  6  2  0  0  0  0
  5  7  1  0  0  0  0
  2  3  1  0  0  0  0
  2  4  1  0  0  0  0
  2  5  1  0  0  0  0
  1  2  1  0  0  0  0
 24 25  2  0  0  0  0
 24 26  1  0  0  0  0
 20 21  1  0  0  0  0
 20 22  1  0  0  0  0
 20 23  1  0  0  0  0
 17 18  1  0  0  0  0
 17 19  1  0  0  0  0
 17 20  1  0  0  0  0
 13 14  1  0  0  0  0
 13 15  1  0  0  0  0
 13 16  1  0  0  0  0
 11 12  1  0  0  0  0
 11 13  1  0  0  0  0
 11 17  1  0  0  0  0
  9 10  1  0  0  0  0
  9 11  1  0  0  0  0
  9 24  1  0  0  0  0
  7  8  1  0  0  0  0
  7  9  1  0  0  0  0
 28 29  1  0  0  0  0
 28 30  1  0  0  0  0
 28 31  1  0  0  0  0
 26 27  1  0  0  0  0
 26 28  1  0  0  0  0
M  END
$$$$
default_name
  -OEChem-02102213163D

 31 30  0     1  0  0  0  0  0999 V2000
   -3.0760   -3.6390    1.5496 H   0  0  0  0  0  0  0  0  0  0  0  0
   -3.0940   -2.6290    1.1426 C   0  0  0  0  0  0  0  0  0  0  0  0
   -3.7160   -1.9930    1.7706 H   0  0  0  0  0  0  0  0  0  0  0  0
   -3.4880   -2.6500    0.1286 H   0  0  0  0  0  0  0  0  0  0  0  0
   -1.6860   -2.0850    1.1196 C   0  0  0  0  0  0  0  0  0  0  0  0
   -0.7540   -2.7700    1.5226 O   0  0  0  0  0  0  0  0  0  0  0  0
   -1.5320   -0.8490    0.6496 N   0  0  0  0  0  0  0  0  0  0  0  0
   -2.3500   -0.3360    0.3566 H   0  0  0  0  0  0  0  0  0  0  0  0
   -0.2470   -0.1410    0.5576 C   0  0  1  0  0  0  0  0  0  0  0  0
    0.4572   -0.6505    1.2162 H   0  0  0  0  0  0  0  0  0  0  0  0
    0.3091   -0.2220   -0.8868 C   0  0  1  0  0  0  0  0  0  0  0  0
    0.8484    0.7081   -1.0765 H   0  0  0  0  0  0  0  0  0  0  0  0
    1.3022   -1.3854   -1.0706 C   0  0  0  0  0  0  0  0  0  0  0  0
    0.7930   -2.3451   -0.9655 H   0  0  0  0  0  0  0  0  0  0  0  0
    1.7663   -1.3349   -2.0543 H   0  0  0  0  0  0  0  0  0  0  0  0
    2.0956   -1.3247   -0.3248 H   0  0  0  0  0  0  0  0  0  0  0  0
   -0.8381   -0.3074   -1.9184 C   0  0  0  0  0  0  0  0  0  0  0  0
   -1.1205   -1.3493   -2.0755 H   0  0  0  0  0  0  0  0  0  0  0  0
   -1.7036    0.2259   -1.5252 H   0  0  0  0  0  0  0  0  0  0  0  0
   -0.4942    0.3172   -3.2774 C   0  0  0  0  0  0  0  0  0  0  0  0
    0.2995   -0.2465   -3.7673 H   0  0  0  0  0  0  0  0  0  0  0  0
   -1.3778    0.2981   -3.9157 H   0  0  0  0  0  0  0  0  0  0  0  0
   -0.1767    1.3518   -3.1428 H   0  0  0  0  0  0  0  0  0  0  0  0
   -0.3971    1.3008    1.0689 C   0  0  0  0  0  0  0  0  0  0  0  0
   -1.3643    1.9819    0.7311 O   0  0  0  0  0  0  0  0  0  0  0  0
    0.5522    1.7647    1.8915 N   0  0  0  0  0  0  0  0  0  0  0  0
    1.3093    1.1450    2.1332 H   0  0  0  0  0  0  0  0  0  0  0  0
    0.5577    3.1119    2.4582 C   0  0  0  0  0  0  0  0  0  0  0  0
   -0.3986    3.3098    2.9475 H   0  0  0  0  0  0  0  0  0  0  0  0
    1.3619    3.2123    3.1886 H   0  0  0  0  0  0  0  0  0  0  0  0
    0.6974    3.8450    1.6614 H   0  0  0  0  0  0  0  0  0  0  0  0
  5  6  2  0  0  0  0
  5  7  1  0  0  0  0
  2  3  1  0  0  0  0
  2  4  1  0  0  0  0
  2  5  1  0  0  0  0
  1  2  1  0  0  0  0
 24 25  2  0  0  0  0
 24 26  1  0  0  0  0
 20 21  1  0  0  0  0
 20 22  1  0  0  0  0
 20 23  1  0  0  0  0
 17 18  1  0  0  0  0
 17 19  1  0  0  0  0
 17 20  1  0  0  0  0
 13 14  1  0  0  0  0
 13 15  1  0  0  0  0
 13 16  1  0  0  0  0
 11 12  1  0  0  0  0
 11 13  1  0  0  0  0
 11 17  1  0  0  0  0
  9 10  1  0  0  0  0
  9 11  1  0  0  0  0
  9 24  1  0  0  0  0
  7  8  1  0  0  0  0
  7  9  1  0  0  0  0
 28 29  1  0  0  0  0
 28 30  1  0  0  0  0
 28 31  1  0  0  0  0
 26 27  1  0  0  0  0
 26 28  1  0  0  0  0
M  END
$$$$
default_name
  -OEChem-02102213163D

 31 30  0     1  0  0  0  0  0999 V2000
   -3.0760   -3.6390    1.5496 H   0  0  0  0  0  0  0  0  0  0  0  0
   -3.0940   -2.6290    1.1426 C   0  0  0  0  0  0  0  0  0  0  0  0
   -3.7160   -1.9930    1.7706 H   0  0  0  0  0  0  0  0  0  0  0  0
   -3.4880   -2.6500    0.1286 H   0  0  0  0  0  0  0  0  0  0  0  0
   -1.6860   -2.0850    1.1196 C   0  0  0  0  0  0  0  0  0  0  0  0
   -0.7540   -2.7700    1.5226 O   0  0  0  0  0  0  0  0  0  0  0  0
   -1.5320   -0.8490    0.6496 N   0  0  0  0  0  0  0  0  0  0  0  0
   -2.3500   -0.3360    0.3566 H   0  0  0  0  0  0  0  0  0  0  0  0
   -0.2470   -0.1410    0.5576 C   0  0  1  0  0  0  0  0  0  0  0  0
    0.4572   -0.6505    1.2162 H   0  0  0  0  0  0  0  0  0  0  0  0
    0.3091   -0.2220   -0.8868 C   0  0  1  0  0  0  0  0  0  0  0  0
    0.8484    0.7081   -1.0765 H   0  0  0  0  0  0  0  0  0  0  0  0
    1.3022   -1.3854   -1.0706 C   0  0  0  0  0  0  0  0  0  0  0  0
    0.7930   -2.3451   -0.9655 H   0  0  0  0  0  0  0  0  0  0  0  0
    1.7663   -1.3349   -2.0543 H   0  0  0  0  0  0  0  0  0  0  0  0
    2.0956   -1.3247   -0.3248 H   0  0  0  0  0  0  0  0  0  0  0  0
   -0.8381   -0.3074   -1.9184 C   0  0  0  0  0  0  0  0  0  0  0  0
   -1.2980   -1.2959   -1.8825 H   0  0  0  0  0  0  0  0  0  0  0  0
   -1.5965    0.4321   -1.6614 H   0  0  0  0  0  0  0  0  0  0  0  0
   -0.3942   -0.0258   -3.3602 C   0  0  0  0  0  0  0  0  0  0  0  0
    0.2879   -0.8012   -3.7085 H   0  0  0  0  0  0  0  0  0  0  0  0
   -1.2693   -0.0163   -4.0104 H   0  0  0  0  0  0  0  0  0  0  0  0
    0.0990    0.9453   -3.4158 H   0  0  0  0  0  0  0  0  0  0  0  0
   -0.3971    1.3008    1.0689 C   0  0  0  0  0  0  0  0  0  0  0  0
   -1.3643    1.9819    0.7311 O   0  0  0  0  0  0  0  0  0  0  0  0
    0.5522    1.7647    1.8915 N   0  0  0  0  0  0  0  0  0  0  0  0
    1.3093    1.1450    2.1332 H   0  0  0  0  0  0  0  0  0  0  0  0
    0.5577    3.1119    2.4582 C   0  0  0  0  0  0  0  0  0  0  0  0
   -0.3986    3.3098    2.9475 H   0  0  0  0  0  0  0  0  0  0  0  0
    1.3619    3.2123    3.1886 H   0  0  0  0  0  0  0  0  0  0  0  0
    0.6974    3.8450    1.6614 H   0  0  0  0  0  0  0  0  0  0  0  0
  5  6  2  0  0  0  0
  5  7  1  0  0  0  0
  2  3  1  0  0  0  0
  2  4  1  0  0  0  0
  2  5  1  0  0  0  0
  1  2  1  0  0  0  0
 24 25  2  0  0  0  0
 24 26  1  0  0  0  0
 20 21  1  0  0  0  0
 20 22  1  0  0  0  0
 20 23  1  0  0  0  0
 17 18  1  0  0  0  0
 17 19  1  0  0  0  0
 17 20  1  0  0  0  0
 13 14  1  0  0  0  0
 13 15  1  0  0  0  0
 13 16  1  0  0  0  0
 11 12  1  0  0  0  0
 11 13  1  0  0  0  0
 11 17  1  0  0  0  0
  9 10  1  0  0  0  0
  9 11  1  0  0  0  0
  9 24  1  0  0  0  0
  7  8  1  0  0  0  0
  7  9  1  0  0  0  0
 28 29  1  0  0  0  0
 28 30  1  0  0  0  0
 28 31  1  0  0  0  0
 26 27  1  0  0  0  0
 26 28  1  0  0  0  0
M  END
$$$$
default_name
  -OEChem-02102213163D

 31 30  0     1  0  0  0  0  0999 V2000
   -3.0760   -3.6390    1.5496 H   0  0  0  0  0  0  0  0  0  0  0  0
   -3.0940   -2.6290    1.1426 C   0  0  0  0  0  0  0  0  0  0  0  0
   -3.7160   -1.9930    1.7706 H   0  0  0  0  0  0  0  0  0  0  0  0
   -3.4880   -2.6500    0.1286 H   0  0  0  0  0  0  0  0  0  0  0  0
   -1.6860   -2.0850    1.1196 C   0  0  0  0  0  0  0  0  0  0  0  0
   -0.7540   -2.7700    1.5226 O   0  0  0  0  0  0  0  0  0  0  0  0
   -1.5320   -0.8490    0.6496 N   0  0  0  0  0  0  0  0  0  0  0  0
   -2.3500   -0.3360    0.3566 H   0  0  0  0  0  0  0  0  0  0  0  0
   -0.2470   -0.1410    0.5576 C   0  0  1  0  0  0  0  0  0  0  0  0
    0.4572   -0.6505    1.2162 H   0  0  0  0  0  0  0  0  0  0  0  0
    0.3091   -0.2220   -0.8868 C   0  0  1  0  0  0  0  0  0  0  0  0
    1.0609    0.5634   -0.9866 H   0  0  0  0  0  0  0  0  0  0  0  0
    0.9974   -1.5693   -1.1777 C   0  0  0  0  0  0  0  0  0  0  0  0
    0.2699   -2.3828   -1.1648 H   0  0  0  0  0  0  0  0  0  0  0  0
    1.4844   -1.5430   -2.1512 H   0  0  0  0  0  0  0  0  0  0  0  0
    1.7633   -1.7705   -0.4277 H   0  0  0  0  0  0  0  0  0  0  0  0
   -0.7989    0.0670   -1.9243 C   0  0  0  0  0  0  0  0  0  0  0  0
   -1.6196   -0.6405   -1.7991 H   0  0  0  0  0  0  0  0  0  0  0  0
   -1.1849    1.0721   -1.7542 H   0  0  0  0  0  0  0  0  0  0  0  0
   -0.3145    0.0029   -3.3791 C   0  0  0  0  0  0  0  0  0  0  0  0
   -0.0149   -1.0125   -3.6378 H   0  0  0  0  0  0  0  0  0  0  0  0
   -1.1259    0.3044   -4.0418 H   0  0  0  0  0  0  0  0  0  0  0  0
    0.5291    0.6792   -3.5215 H   0  0  0  0  0  0  0  0  0  0  0  0
   -0.3971    1.3008    1.0689 C   0  0  0  0  0  0  0  0  0  0  0  0
   -1.3643    1.9819    0.7311 O   0  0  0  0  0  0  0  0  0  0  0  0
    0.5522    1.7647    1.8915 N   0  0  0  0  0  0  0  0  0  0  0  0
    1.3093    1.1450    2.1332 H   0  0  0  0  0  0  0  0  0  0  0  0
    0.5577    3.1119    2.4582 C   0  0  0  0  0  0  0  0  0  0  0  0
   -0.3986    3.3098    2.9475 H   0  0  0  0  0  0  0  0  0  0  0  0
    1.3619    3.2123    3.1886 H   0  0  0  0  0  0  0  0  0  0  0  0
    0.6974    3.8450    1.6614 H   0  0  0  0  0  0  0  0  0  0  0  0
  5  6  2  0  0  0  0
  5  7  1  0  0  0  0
  2  3  1  0  0  0  0
  2  4  1  0  0  0  0
  2  5  1  0  0  0  0
  1  2  1  0  0  0  0
 24 25  2  0  0  0  0
 24 26  1  0  0  0  0
 20 21  1  0  0  0  0
 20 22  1  0  0  0  0
 20 23  1  0  0  0  0
 17 18  1  0  0  0  0
 17 19  1  0  0  0  0
 17 20  1  0  0  0  0
 13 14  1  0  0  0  0
 13 15  1  0  0  0  0
 13 16  1  0  0  0  0
 11 12  1  0  0  0  0
 11 13  1  0  0  0  0
 11 17  1  0  0  0  0
  9 10  1  0  0  0  0
  9 11  1  0  0  0  0
  9 24  1  0  0  0  0
  7  8  1  0  0  0  0
  7  9  1  0  0  0  0
 28 29  1  0  0  0  0
 28 30  1  0  0  0  0
 28 31  1  0  0  0  0
 26 27  1  0  0  0  0
 26 28  1  0  0  0  0
M  END
$$$$
default_name
  -OEChem-02102213163D

 31 30  0     1  0  0  0  0  0999 V2000
   -3.0760   -3.6390    1.5496 H   0  0  0  0  0  0  0  0  0  0  0  0
   -3.0940   -2.6290    1.1426 C   0  0  0  0  0  0  0  0  0  0  0  0
   -3.7160   -1.9930    1.7706 H   0  0  0  0  0  0  0  0  0  0  0  0
   -3.4880   -2.6500    0.1286 H   0  0  0  0  0  0  0  0  0  0  0  0
   -1.6860   -2.0850    1.1196 C   0  0  0  0  0  0  0  0  0  0  0  0
   -0.7540   -2.7700    1.5226 O   0  0  0  0  0  0  0  0  0  0  0  0
   -1.5320   -0.8490    0.6496 N   0  0  0  0  0  0  0  0  0  0  0  0
   -2.3500   -0.3360    0.3566 H   0  0  0  0  0  0  0  0  0  0  0  0
   -0.2470   -0.1410    0.5576 C   0  0  1  0  0  0  0  0  0  0  0  0
    0.4572   -0.6505    1.2162 H   0  0  0  0  0  0  0  0  0  0  0  0
    0.3091   -0.2220   -0.8868 C   0  0  1  0  0  0  0  0  0  0  0  0
    1.0609    0.5634   -0.9866 H   0  0  0  0  0  0  0  0  0  0  0  0
    0.9974   -1.5693   -1.1777 C   0  0  0  0  0  0  0  0  0  0  0  0
    0.2699   -2.3828   -1.1648 H   0  0  0  0  0  0  0  0  0  0  0  0
    1.4844   -1.5430   -2.1512 H   0  0  0  0  0  0  0  0  0  0  0  0
    1.7633   -1.7705   -0.4277 H   0  0  0  0  0  0  0  0  0  0  0  0
   -0.7989    0.0670   -1.9243 C   0  0  0  0  0  0  0  0  0  0  0  0
   -1.7176   -0.4482   -1.6408 H   0  0  0  0  0  0  0  0  0  0  0  0
   -0.9975    1.1387   -1.9359 H   0  0  0  0  0  0  0  0  0  0  0  0
   -0.4276   -0.3452   -3.3552 C   0  0  0  0  0  0  0  0  0  0  0  0
   -0.3216   -1.4276   -3.4258 H   0  0  0  0  0  0  0  0  0  0  0  0
   -1.2176   -0.0291   -4.0368 H   0  0  0  0  0  0  0  0  0  0  0  0
    0.5071    0.1326   -3.6504 H   0  0  0  0  0  0  0  0  0  0  0  0
   -0.3971    1.3008    1.0689 C   0  0  0  0  0  0  0  0  0  0  0  0
   -1.3643    1.9819    0.7311 O   0  0  0  0  0  0  0  0  0  0  0  0
    0.5522    1.7647    1.8915 N   0  0  0  0  0  0  0  0  0  0  0  0
    1.3093    1.1450    2.1332 H   0  0  0  0  0  0  0  0  0  0  0  0
    0.5577    3.1119    2.4582 C   0  0  0  0  0  0  0  0  0  0  0  0
   -0.3986    3.3098    2.9475 H   0  0  0  0  0  0  0  0  0  0  0  0
    1.3619    3.2123    3.1886 H   0  0  0  0  0  0  0  0  0  0  0  0
    0.6974    3.8450    1.6614 H   0  0  0  0  0  0  0  0  0  0  0  0
  5  6  2  0  0  0  0
  5  7  1  0  0  0  0
  2  3  1  0  0  0  0
  2  4  1  0  0  0  0
  2  5  1  0  0  0  0
  1  2  1  0  0  0  0
 24 25  2  0  0  0  0
 24 26  1  0  0  0  0
 20 21  1  0  0  0  0
 20 22  1  0  0  0  0
 20 23  1  0  0  0  0
 17 18  1  0  0  0  0
 17 19  1  0  0  0  0
 17 20  1  0  0  0  0
 13 14  1  0  0  0  0
 13 15  1  0  0  0  0
 13 16  1  0  0  0  0
 11 12  1  0  0  0  0
 11 13  1  0  0  0  0
 11 17  1  0  0  0  0
  9 10  1  0  0  0  0
  9 11  1  0  0  0  0
  9 24  1  0  0  0  0
  7  8  1  0  0  0  0
  7  9  1  0  0  0  0
 28 29  1  0  0  0  0
 28 30  1  0  0  0  0
 28 31  1  0  0  0  0
 26 27  1  0  0  0  0
 26 28  1  0  0  0  0
M  END
$$$$
default_name
  -OEChem-02102213163D

 31 30  0     1  0  0  0  0  0999 V2000
   -3.0760   -3.6390    1.5496 H   0  0  0  0  0  0  0  0  0  0  0  0
   -3.0940   -2.6290    1.1426 C   0  0  0  0  0  0  0  0  0  0  0  0
   -3.7160   -1.9930    1.7706 H   0  0  0  0  0  0  0  0  0  0  0  0
   -3.4880   -2.6500    0.1286 H   0  0  0  0  0  0  0  0  0  0  0  0
   -1.6860   -2.0850    1.1196 C   0  0  0  0  0  0  0  0  0  0  0  0
   -0.7540   -2.7700    1.5226 O   0  0  0  0  0  0  0  0  0  0  0  0
   -1.5320   -0.8490    0.6496 N   0  0  0  0  0  0  0  0  0  0  0  0
   -2.3500   -0.3360    0.3566 H   0  0  0  0  0  0  0  0  0  0  0  0
   -0.2470   -0.1410    0.5576 C   0  0  1  0  0  0  0  0  0  0  0  0
    0.4572   -0.6505    1.2162 H   0  0  0  0  0  0  0  0  0  0  0  0
    0.3091   -0.2220   -0.8868 C   0  0  1  0  0  0  0  0  0  0  0  0
    1.0609    0.5634   -0.9866 H   0  0  0  0  0  0  0  0  0  0  0  0
    0.9974   -1.5693   -1.1777 C   0  0  0  0  0  0  0  0  0  0  0  0
    0.2699   -2.3828   -1.1648 H   0  0  0  0  0  0  0  0  0  0  0  0
    1.4844   -1.5430   -2.1512 H   0  0  0  0  0  0  0  0  0  0  0  0
    1.7633   -1.7705   -0.4277 H   0  0  0  0  0  0  0  0  0  0  0  0
   -0.7989    0.0670   -1.9243 C   0  0  0  0  0  0  0  0  0  0  0  0
   -1.7712   -0.2160   -1.5189 H   0  0  0  0  0  0  0  0  0  0  0  0
   -0.8136    1.1368   -2.1328 H   0  0  0  0  0  0  0  0  0  0  0  0
   -0.5963   -0.6573   -3.2620 C   0  0  0  0  0  0  0  0  0  0  0  0
   -0.6797   -1.7358   -3.1292 H   0  0  0  0  0  0  0  0  0  0  0  0
   -1.3639   -0.3343   -3.9656 H   0  0  0  0  0  0  0  0  0  0  0  0
    0.3847   -0.4154   -3.6724 H   0  0  0  0  0  0  0  0  0  0  0  0
   -0.3971    1.3008    1.0689 C   0  0  0  0  0  0  0  0  0  0  0  0
   -1.3643    1.9819    0.7311 O   0  0  0  0  0  0  0  0  0  0  0  0
    0.5522    1.7647    1.8915 N   0  0  0  0  0  0  0  0  0  0  0  0
    1.3093    1.1450    2.1332 H   0  0  0  0  0  0  0  0  0  0  0  0
    0.5577    3.1119    2.4582 C   0  0  0  0  0  0  0  0  0  0  0  0
   -0.3986    3.3098    2.9475 H   0  0  0  0  0  0  0  0  0  0  0  0
    1.3619    3.2123    3.1886 H   0  0  0  0  0  0  0  0  0  0  0  0
    0.6974    3.8450    1.6614 H   0  0  0  0  0  0  0  0  0  0  0  0
  5  6  2  0  0  0  0
  5  7  1  0  0  0  0
  2  3  1  0  0  0  0
  2  4  1  0  0  0  0
  2  5  1  0  0  0  0
  1  2  1  0  0  0  0
 24 25  2  0  0  0  0
 24 26  1  0  0  0  0
 20 21  1  0  0  0  0
 20 22  1  0  0  0  0
 20 23  1  0  0  0  0
 17 18  1  0  0  0  0
 17 19  1  0  0  0  0
 17 20  1  0  0  0  0
 13 14  1  0  0  0  0
 13 15  1  0  0  0  0
 13 16  1  0  0  0  0
 11 12  1  0  0  0  0
 11 13  1  0  0  0  0
 11 17  1  0  0  0  0
  9 10  1  0  0  0  0
  9 11  1  0  0  0  0
  9 24  1  0  0  0  0
  7  8  1  0  0  0  0
  7  9  1  0  0  0  0
 28 29  1  0  0  0  0
 28 30  1  0  0  0  0
 28 31  1  0  0  0  0
 26 27  1  0  0  0  0
 26 28  1  0  0  0  0
M  END
$$$$
default_name
  -OEChem-02102213163D

 31 30  0     1  0  0  0  0  0999 V2000
   -3.0760   -3.6390    1.5496 H   0  0  0  0  0  0  0  0  0  0  0  0
   -3.0940   -2.6290    1.1426 C   0  0  0  0  0  0  0  0  0  0  0  0
   -3.7160   -1.9930    1.7706 H   0  0  0  0  0  0  0  0  0  0  0  0
   -3.4880   -2.6500    0.1286 H   0  0  0  0  0  0  0  0  0  0  0  0
   -1.6860   -2.0850    1.1196 C   0  0  0  0  0  0  0  0  0  0  0  0
   -0.7540   -2.7700    1.5226 O   0  0  0  0  0  0  0  0  0  0  0  0
   -1.5320   -0.8490    0.6496 N   0  0  0  0  0  0  0  0  0  0  0  0
   -2.3500   -0.3360    0.3566 H   0  0  0  0  0  0  0  0  0  0  0  0
   -0.2470   -0.1410    0.5576 C   0  0  1  0  0  0  0  0  0  0  0  0
    0.4572   -0.6505    1.2162 H   0  0  0  0  0  0  0  0  0  0  0  0
    0.3091   -0.2220   -0.8868 C   0  0  1  0  0  0  0  0  0  0  0  0
    1.0609    0.5634   -0.9866 H   0  0  0  0  0  0  0  0  0  0  0  0
    0.9974   -1.5693   -1.1777 C   0  0  0  0  0  0  0  0  0  0  0  0
    0.2699   -2.3828   -1.1648 H   0  0  0  0  0  0  0  0  0  0  0  0
    1.4844   -1.5430   -2.1512 H   0  0  0  0  0  0  0  0  0  0  0  0
    1.7633   -1.7705   -0.4277 H   0  0  0  0  0  0  0  0  0  0  0  0
   -0.7989    0.0670   -1.9243 C   0  0  0  0  0  0  0  0  0  0  0  0
   -1.7768    0.0402   -1.4416 H   0  0  0  0  0  0  0  0  0  0  0  0
   -0.6459    1.0664   -2.3315 H   0  0  0  0  0  0  0  0  0  0  0  0
   -0.8089   -0.9122   -3.1059 C   0  0  0  0  0  0  0  0  0  0  0  0
   -1.0648   -1.9163   -2.7682 H   0  0  0  0  0  0  0  0  0  0  0  0
   -1.5548   -0.5905   -3.8331 H   0  0  0  0  0  0  0  0  0  0  0  0
    0.1702   -0.9276   -3.5859 H   0  0  0  0  0  0  0  0  0  0  0  0
   -0.3971    1.3008    1.0689 C   0  0  0  0  0  0  0  0  0  0  0  0
   -1.3643    1.9819    0.7311 O   0  0  0  0  0  0  0  0  0  0  0  0
    0.5522    1.7647    1.8915 N   0  0  0  0  0  0  0  0  0  0  0  0
    1.3093    1.1450    2.1332 H   0  0  0  0  0  0  0  0  0  0  0  0
    0.5577    3.1119    2.4582 C   0  0  0  0  0  0  0  0  0  0  0  0
   -0.3986    3.3098    2.9475 H   0  0  0  0  0  0  0  0  0  0  0  0
    1.3619    3.2123    3.1886 H   0  0  0  0  0  0  0  0  0  0  0  0
    0.6974    3.8450    1.6614 H   0  0  0  0  0  0  0  0  0  0  0  0
  5  6  2  0  0  0  0
  5  7  1  0  0  0  0
  2  3  1  0  0  0  0
  2  4  1  0  0  0  0
  2  5  1  0  0  0  0
  1  2  1  0  0  0  0
 24 25  2  0  0  0  0
 24 26  1  0  0  0  0
 20 21  1  0  0  0  0
 20 22  1  0  0  0  0
 20 23  1  0  0  0  0
 17 18  1  0  0  0  0
 17 19  1  0  0  0  0
 17 20  1  0  0  0  0
 13 14  1  0  0  0  0
 13 15  1  0  0  0  0
 13 16  1  0  0  0  0
 11 12  1  0  0  0  0
 11 13  1  0  0  0  0
 11 17  1  0  0  0  0
  9 10  1  0  0  0  0
  9 11  1  0  0  0  0
  9 24  1  0  0  0  0
  7  8  1  0  0  0  0
  7  9  1  0  0  0  0
 28 29  1  0  0  0  0
 28 30  1  0  0  0  0
 28 31  1  0  0  0  0
 26 27  1  0  0  0  0
 26 28  1  0  0  0  0
M  END
$$$$
default_name
  -OEChem-02102213163D

 31 30  0     1  0  0  0  0  0999 V2000
   -3.0760   -3.6390    1.5496 H   0  0  0  0  0  0  0  0  0  0  0  0
   -3.0940   -2.6290    1.1426 C   0  0  0  0  0  0  0  0  0  0  0  0
   -3.7160   -1.9930    1.7706 H   0  0  0  0  0  0  0  0  0  0  0  0
   -3.4880   -2.6500    0.1286 H   0  0  0  0  0  0  0  0  0  0  0  0
   -1.6860   -2.0850    1.1196 C   0  0  0  0  0  0  0  0  0  0  0  0
   -0.7540   -2.7700    1.5226 O   0  0  0  0  0  0  0  0  0  0  0  0
   -1.5320   -0.8490    0.6496 N   0  0  0  0  0  0  0  0  0  0  0  0
   -2.3500   -0.3360    0.3566 H   0  0  0  0  0  0  0  0  0  0  0  0
   -0.2470   -0.1410    0.5576 C   0  0  1  0  0  0  0  0  0  0  0  0
    0.4572   -0.6505    1.2162 H   0  0  0  0  0  0  0  0  0  0  0  0
    0.3091   -0.2220   -0.8868 C   0  0  1  0  0  0  0  0  0  0  0  0
    1.0609    0.5634   -0.9866 H   0  0  0  0  0  0  0  0  0  0  0  0
    0.9974   -1.5693   -1.1777 C   0  0  0  0  0  0  0  0  0  0  0  0
    0.2699   -2.3828   -1.1648 H   0  0  0  0  0  0  0  0  0  0  0  0
    1.4844   -1.5430   -2.1512 H   0  0  0  0  0  0  0  0  0  0  0  0
    1.7633   -1.7705   -0.4277 H   0  0  0  0  0  0  0  0  0  0  0  0
   -0.7989    0.0670   -1.9243 C   0  0  0  0  0  0  0  0  0  0  0  0
   -1.7339    0.3030   -1.4142 H   0  0  0  0  0  0  0  0  0  0  0  0
   -0.5057    0.9324   -2.5186 H   0  0  0  0  0  0  0  0  0  0  0  0
   -1.0510   -1.0925   -2.8975 C   0  0  0  0  0  0  0  0  0  0  0  0
   -1.4507   -1.9566   -2.3673 H   0  0  0  0  0  0  0  0  0  0  0  0
   -1.7772   -0.7802   -3.6483 H   0  0  0  0  0  0  0  0  0  0  0  0
   -0.1218   -1.3690   -3.3970 H   0  0  0  0  0  0  0  0  0  0  0  0
   -0.3971    1.3008    1.0689 C   0  0  0  0  0  0  0  0  0  0  0  0
   -1.3643    1.9819    0.7311 O   0  0  0  0  0  0  0  0  0  0  0  0
    0.5522    1.7647    1.8915 N   0  0  0  0  0  0  0  0  0  0  0  0
    1.3093    1.1450    2.1332 H   0  0  0  0  0  0  0  0  0  0  0  0
    0.5577    3.1119    2.4582 C   0  0  0  0  0  0  0  0  0  0  0  0
   -0.3986    3.3098    2.9475 H   0  0  0  0  0  0  0  0  0  0  0  0
    1.3619    3.2123    3.1886 H   0  0  0  0  0  0  0  0  0  0  0  0
    0.6974    3.8450    1.6614 H   0  0  0  0  0  0  0  0  0  0  0  0
  5  6  2  0  0  0  0
  5  7  1  0  0  0  0
  2  3  1  0  0  0  0
  2  4  1  0  0  0  0
  2  5  1  0  0  0  0
  1  2  1  0  0  0  0
 24 25  2  0  0  0  0
 24 26  1  0  0  0  0
 20 21  1  0  0  0  0
 20 22  1  0  0  0  0
 20 23  1  0  0  0  0
 17 18  1  0  0  0  0
 17 19  1  0  0  0  0
 17 20  1  0  0  0  0
 13 14  1  0  0  0  0
 13 15  1  0  0  0  0
 13 16  1  0  0  0  0
 11 12  1  0  0  0  0
 11 13  1  0  0  0  0
 11 17  1  0  0  0  0
  9 10  1  0  0  0  0
  9 11  1  0  0  0  0
  9 24  1  0  0  0  0
  7  8  1  0  0  0  0
  7  9  1  0  0  0  0
 28 29  1  0  0  0  0
 28 30  1  0  0  0  0
 28 31  1  0  0  0  0
 26 27  1  0  0  0  0
 26 28  1  0  0  0  0
M  END
$$$$
default_name
  -OEChem-02102213163D

 31 30  0     1  0  0  0  0  0999 V2000
   -3.0760   -3.6390    1.5496 H   0  0  0  0  0  0  0  0  0  0  0  0
   -3.0940   -2.6290    1.1426 C   0  0  0  0  0  0  0  0  0  0  0  0
   -3.7160   -1.9930    1.7706 H   0  0  0  0  0  0  0  0  0  0  0  0
   -3.4880   -2.6500    0.1286 H   0  0  0  0  0  0  0  0  0  0  0  0
   -1.6860   -2.0850    1.1196 C   0  0  0  0  0  0  0  0  0  0  0  0
   -0.7540   -2.7700    1.5226 O   0  0  0  0  0  0  0  0  0  0  0  0
   -1.5320   -0.8490    0.6496 N   0  0  0  0  0  0  0  0  0  0  0  0
   -2.3500   -0.3360    0.3566 H   0  0  0  0  0  0  0  0  0  0  0  0
   -0.2470   -0.1410    0.5576 C   0  0  1  0  0  0  0  0  0  0  0  0
    0.4572   -0.6505    1.2162 H   0  0  0  0  0  0  0  0  0  0  0  0
    0.3091   -0.2220   -0.8868 C   0  0  1  0  0  0  0  0  0  0  0  0
    1.0609    0.5634   -0.9866 H   0  0  0  0  0  0  0  0  0  0  0  0
    0.9974   -1.5693   -1.1777 C   0  0  0  0  0  0  0  0  0  0  0  0
    0.2699   -2.3828   -1.1648 H   0  0  0  0  0  0  0  0  0  0  0  0
    1.4844   -1.5430   -2.1512 H   0  0  0  0  0  0  0  0  0  0  0  0
    1.7633   -1.7705   -0.4277 H   0  0  0  0  0  0  0  0  0  0  0  0
   -0.7989    0.0670   -1.9243 C   0  0  0  0  0  0  0  0  0  0  0  0
   -1.6454    0.5544   -1.4387 H   0  0  0  0  0  0  0  0  0  0  0  0
   -0.4027    0.7439   -2.6811 H   0  0  0  0  0  0  0  0  0  0  0  0
   -1.3061   -1.1858   -2.6511 C   0  0  0  0  0  0  0  0  0  0  0  0
   -1.8110   -1.8542   -1.9538 H   0  0  0  0  0  0  0  0  0  0  0  0
   -2.0161   -0.8904   -3.4239 H   0  0  0  0  0  0  0  0  0  0  0  0
   -0.4715   -1.7096   -3.1184 H   0  0  0  0  0  0  0  0  0  0  0  0
   -0.3971    1.3008    1.0689 C   0  0  0  0  0  0  0  0  0  0  0  0
   -1.3643    1.9819    0.7311 O   0  0  0  0  0  0  0  0  0  0  0  0
    0.5522    1.7647    1.8915 N   0  0  0  0  0  0  0  0  0  0  0  0
    1.3093    1.1450    2.1332 H   0  0  0  0  0  0  0  0  0  0  0  0
    0.5577    3.1119    2.4582 C   0  0  0  0  0  0  0  0  0  0  0  0
   -0.3986    3.3098    2.9475 H   0  0  0  0  0  0  0  0  0  0  0  0
    1.3619    3.2123    3.1886 H   0  0  0  0  0  0  0  0  0  0  0  0
    0.6974    3.8450    1.6614 H   0  0  0  0  0  0  0  0  0  0  0  0
  5  6  2  0  0  0  0
  5  7  1  0  0  0  0
  2  3  1  0  0  0  0
  2  4  1  0  0  0  0
  2  5  1  0  0  0  0
  1  2  1  0  0  0  0
 24 25  2  0  0  0  0
 24 26  1  0  0  0  0
 20 21  1  0  0  0  0
 20 22  1  0  0  0  0
 20 23  1  0  0  0  0
 17 18  1  0  0  0  0
 17 19  1  0  0  0  0
 17 20  1  0  0  0  0
 13 14  1  0  0  0  0
 13 15  1  0  0  0  0
 13 16  1  0  0  0  0
 11 12  1  0  0  0  0
 11 13  1  0  0  0  0
 11 17  1  0  0  0  0
  9 10  1  0  0  0  0
  9 11  1  0  0  0  0
  9 24  1  0  0  0  0
  7  8  1  0  0  0  0
  7  9  1  0  0  0  0
 28 29  1  0  0  0  0
 28 30  1  0  0  0  0
 28 31  1  0  0  0  0
 26 27  1  0  0  0  0
 26 28  1  0  0  0  0
M  END
$$$$
default_name
  -OEChem-02102213163D

 31 30  0     1  0  0  0  0  0999 V2000
   -3.0760   -3.6390    1.5496 H   0  0  0  0  0  0  0  0  0  0  0  0
   -3.0940   -2.6290    1.1426 C   0  0  0  0  0  0  0  0  0  0  0  0
   -3.7160   -1.9930    1.7706 H   0  0  0  0  0  0  0  0  0  0  0  0
   -3.4880   -2.6500    0.1286 H   0  0  0  0  0  0  0  0  0  0  0  0
   -1.6860   -2.0850    1.1196 C   0  0  0  0  0  0  0  0  0  0  0  0
   -0.7540   -2.7700    1.5226 O   0  0  0  0  0  0  0  0  0  0  0  0
   -1.5320   -0.8490    0.6496 N   0  0  0  0  0  0  0  0  0  0  0  0
   -2.3500   -0.3360    0.3566 H   0  0  0  0  0  0  0  0  0  0  0  0
   -0.2470   -0.1410    0.5576 C   0  0  1  0  0  0  0  0  0  0  0  0
    0.4572   -0.6505    1.2162 H   0  0  0  0  0  0  0  0  0  0  0  0
    0.3091   -0.2220   -0.8868 C   0  0  1  0  0  0  0  0  0  0  0  0
    1.0609    0.5634   -0.9866 H   0  0  0  0  0  0  0  0  0  0  0  0
    0.9974   -1.5693   -1.1777 C   0  0  0  0  0  0  0  0  0  0  0  0
    0.2699   -2.3828   -1.1648 H   0  0  0  0  0  0  0  0  0  0  0  0
    1.4844   -1.5430   -2.1512 H   0  0  0  0  0  0  0  0  0  0  0  0
    1.7633   -1.7705   -0.4277 H   0  0  0  0  0  0  0  0  0  0  0  0
   -0.7989    0.0670   -1.9243 C   0  0  0  0  0  0  0  0  0  0  0  0
   -1.5175    0.7774   -1.5132 H   0  0  0  0  0  0  0  0  0  0  0  0
   -0.3438    0.5138   -2.8082 H   0  0  0  0  0  0  0  0  0  0  0  0
   -1.5568   -1.1860   -2.3834 C   0  0  0  0  0  0  0  0  0  0  0  0
   -2.1213   -1.6159   -1.5561 H   0  0  0  0  0  0  0  0  0  0  0  0
   -2.2552   -0.9138   -3.1751 H   0  0  0  0  0  0  0  0  0  0  0  0
   -0.8549   -1.9261   -2.7692 H   0  0  0  0  0  0  0  0  0  0  0  0
   -0.3971    1.3008    1.0689 C   0  0  0  0  0  0  0  0  0  0  0  0
   -1.3643    1.9819    0.7311 O   0  0  0  0  0  0  0  0  0  0  0  0
    0.5522    1.7647    1.8915 N   0  0  0  0  0  0  0  0  0  0  0  0
    1.3093    1.1450    2.1332 H   0  0  0  0  0  0  0  0  0  0  0  0
    0.5577    3.1119    2.4582 C   0  0  0  0  0  0  0  0  0  0  0  0
   -0.3986    3.3098    2.9475 H   0  0  0  0  0  0  0  0  0  0  0  0
    1.3619    3.2123    3.1886 H   0  0  0  0  0  0  0  0  0  0  0  0
    0.6974    3.8450    1.6614 H   0  0  0  0  0  0  0  0  0  0  0  0
  5  6  2  0  0  0  0
  5  7  1  0  0  0  0
  2  3  1  0  0  0  0
  2  4  1  0  0  0  0
  2  5  1  0  0  0  0
  1  2  1  0  0  0  0
 24 25  2  0  0  0  0
 24 26  1  0  0  0  0
 20 21  1  0  0  0  0
 20 22  1  0  0  0  0
 20 23  1  0  0  0  0
 17 18  1  0  0  0  0
 17 19  1  0  0  0  0
 17 20  1  0  0  0  0
 13 14  1  0  0  0  0
 13 15  1  0  0  0  0
 13 16  1  0  0  0  0
 11 12  1  0  0  0  0
 11 13  1  0  0  0  0
 11 17  1  0  0  0  0
  9 10  1  0  0  0  0
  9 11  1  0  0  0  0
  9 24  1  0  0  0  0
  7  8  1  0  0  0  0
  7  9  1  0  0  0  0
 28 29  1  0  0  0  0
 28 30  1  0  0  0  0
 28 31  1  0  0  0  0
 26 27  1  0  0  0  0
 26 28  1  0  0  0  0
M  END
$$$$
default_name
  -OEChem-02102213163D

 31 30  0     1  0  0  0  0  0999 V2000
   -3.0760   -3.6390    1.5496 H   0  0  0  0  0  0  0  0  0  0  0  0
   -3.0940   -2.6290    1.1426 C   0  0  0  0  0  0  0  0  0  0  0  0
   -3.7160   -1.9930    1.7706 H   0  0  0  0  0  0  0  0  0  0  0  0
   -3.4880   -2.6500    0.1286 H   0  0  0  0  0  0  0  0  0  0  0  0
   -1.6860   -2.0850    1.1196 C   0  0  0  0  0  0  0  0  0  0  0  0
   -0.7540   -2.7700    1.5226 O   0  0  0  0  0  0  0  0  0  0  0  0
   -1.5320   -0.8490    0.6496 N   0  0  0  0  0  0  0  0  0  0  0  0
   -2.3500   -0.3360    0.3566 H   0  0  0  0  0  0  0  0  0  0  0  0
   -0.2470   -0.1410    0.5576 C   0  0  1  0  0  0  0  0  0  0  0  0
    0.4572   -0.6505    1.2162 H   0  0  0  0  0  0  0  0  0  0  0  0
    0.3091   -0.2220   -0.8868 C   0  0  1  0  0  0  0  0  0  0  0  0
    1.0609    0.5634   -0.9866 H   0  0  0  0  0  0  0  0  0  0  0  0
    0.9974   -1.5693   -1.1777 C   0  0  0  0  0  0  0  0  0  0  0  0
    0.2699   -2.3828   -1.1648 H   0  0  0  0  0  0  0  0  0  0  0  0
    1.4844   -1.5430   -2.1512 H   0  0  0  0  0  0  0  0  0  0  0  0
    1.7633   -1.7705   -0.4277 H   0  0  0  0  0  0  0  0  0  0  0  0
   -0.7989    0.0670   -1.9243 C   0  0  0  0  0  0  0  0  0  0  0  0
   -1.3587    0.9567   -1.6328 H   0  0  0  0  0  0  0  0  0  0  0  0
   -0.3330    0.2576   -2.8910 H   0  0  0  0  0  0  0  0  0  0  0  0
   -1.7861   -1.0929   -2.1126 C   0  0  0  0  0  0  0  0  0  0  0  0
   -2.3603   -1.2580   -1.2011 H   0  0  0  0  0  0  0  0  0  0  0  0
   -2.4781   -0.8486   -2.9188 H   0  0  0  0  0  0  0  0  0  0  0  0
   -1.2460   -2.0038   -2.3731 H   0  0  0  0  0  0  0  0  0  0  0  0
   -0.3971    1.3008    1.0689 C   0  0  0  0  0  0  0  0  0  0  0  0
   -1.3643    1.9819    0.7311 O   0  0  0  0  0  0  0  0  0  0  0  0
    0.5522    1.7647    1.8915 N   0  0  0  0  0  0  0  0  0  0  0  0
    1.3093    1.1450    2.1332 H   0  0  0  0  0  0  0  0  0  0  0  0
    0.5577    3.1119    2.4582 C   0  0  0  0  0  0  0  0  0  0  0  0
   -0.3986    3.3098    2.9475 H   0  0  0  0  0  0  0  0  0  0  0  0
    1.3619    3.2123    3.1886 H   0  0  0  0  0  0  0  0  0  0  0  0
    0.6974    3.8450    1.6614 H   0  0  0  0  0  0  0  0  0  0  0  0
  5  6  2  0  0  0  0
  5  7  1  0  0  0  0
  2  3  1  0  0  0  0
  2  4  1  0  0  0  0
  2  5  1  0  0  0  0
  1  2  1  0  0  0  0
 24 25  2  0  0  0  0
 24 26  1  0  0  0  0
 20 21  1  0  0  0  0
 20 22  1  0  0  0  0
 20 23  1  0  0  0  0
 17 18  1  0  0  0  0
 17 19  1  0  0  0  0
 17 20  1  0  0  0  0
 13 14  1  0  0  0  0
 13 15  1  0  0  0  0
 13 16  1  0  0  0  0
 11 12  1  0  0  0  0
 11 13  1  0  0  0  0
 11 17  1  0  0  0  0
  9 10  1  0  0  0  0
  9 11  1  0  0  0  0
  9 24  1  0  0  0  0
  7  8  1  0  0  0  0
  7  9  1  0  0  0  0
 28 29  1  0  0  0  0
 28 30  1  0  0  0  0
 28 31  1  0  0  0  0
 26 27  1  0  0  0  0
 26 28  1  0  0  0  0
M  END
$$$$
default_name
  -OEChem-02102213163D

 31 30  0     1  0  0  0  0  0999 V2000
   -3.0760   -3.6390    1.5496 H   0  0  0  0  0  0  0  0  0  0  0  0
   -3.0940   -2.6290    1.1426 C   0  0  0  0  0  0  0  0  0  0  0  0
   -3.7160   -1.9930    1.7706 H   0  0  0  0  0  0  0  0  0  0  0  0
   -3.4880   -2.6500    0.1286 H   0  0  0  0  0  0  0  0  0  0  0  0
   -1.6860   -2.0850    1.1196 C   0  0  0  0  0  0  0  0  0  0  0  0
   -0.7540   -2.7700    1.5226 O   0  0  0  0  0  0  0  0  0  0  0  0
   -1.5320   -0.8490    0.6496 N   0  0  0  0  0  0  0  0  0  0  0  0
   -2.3500   -0.3360    0.3566 H   0  0  0  0  0  0  0  0  0  0  0  0
   -0.2470   -0.1410    0.5576 C   0  0  1  0  0  0  0  0  0  0  0  0
    0.4572   -0.6505    1.2162 H   0  0  0  0  0  0  0  0  0  0  0  0
    0.3091   -0.2220   -0.8868 C   0  0  1  0  0  0  0  0  0  0  0  0
    1.0609    0.5634   -0.9866 H   0  0  0  0  0  0  0  0  0  0  0  0
    0.9974   -1.5693   -1.1777 C   0  0  0  0  0  0  0  0  0  0  0  0
    0.2699   -2.3828   -1.1648 H   0  0  0  0  0  0  0  0  0  0  0  0
    1.4844   -1.5430   -2.1512 H   0  0  0  0  0  0  0  0  0  0  0  0
    1.7633   -1.7705   -0.4277 H   0  0  0  0  0  0  0  0  0  0  0  0
   -0.7989    0.0670   -1.9243 C   0  0  0  0  0  0  0  0  0  0  0  0
   -1.1800    1.0802   -1.7892 H   0  0  0  0  0  0  0  0  0  0  0  0
   -0.3712   -0.0070   -2.9240 H   0  0  0  0  0  0  0  0  0  0  0  0
   -1.9782   -0.9128   -1.8572 C   0  0  0  0  0  0  0  0  0  0  0  0
   -2.5117   -0.8048   -0.9131 H   0  0  0  0  0  0  0  0  0  0  0  0
   -2.6697   -0.6994   -2.6726 H   0  0  0  0  0  0  0  0  0  0  0  0
   -1.6181   -1.9373   -1.9572 H   0  0  0  0  0  0  0  0  0  0  0  0
   -0.3971    1.3008    1.0689 C   0  0  0  0  0  0  0  0  0  0  0  0
   -1.3643    1.9819    0.7311 O   0  0  0  0  0  0  0  0  0  0  0  0
    0.5522    1.7647    1.8915 N   0  0  0  0  0  0  0  0  0  0  0  0
    1.3093    1.1450    2.1332 H   0  0  0  0  0  0  0  0  0  0  0  0
    0.5577    3.1119    2.4582 C   0  0  0  0  0  0  0  0  0  0  0  0
   -0.3986    3.3098    2.9475 H   0  0  0  0  0  0  0  0  0  0  0  0
    1.3619    3.2123    3.1886 H   0  0  0  0  0  0  0  0  0  0  0  0
    0.6974    3.8450    1.6614 H   0  0  0  0  0  0  0  0  0  0  0  0
  5  6  2  0  0  0  0
  5  7  1  0  0  0  0
  2  3  1  0  0  0  0
  2  4  1  0  0  0  0
  2  5  1  0  0  0  0
  1  2  1  0  0  0  0
 24 25  2  0  0  0  0
 24 26  1  0  0  0  0
 20 21  1  0  0  0  0
 20 22  1  0  0  0  0
 20 23  1  0  0  0  0
 17 18  1  0  0  0  0
 17 19  1  0  0  0  0
 17 20  1  0  0  0  0
 13 14  1  0  0  0  0
 13 15  1  0  0  0  0
 13 16  1  0  0  0  0
 11 12  1  0  0  0  0
 11 13  1  0  0  0  0
 11 17  1  0  0  0  0
  9 10  1  0  0  0  0
  9 11  1  0  0  0  0
  9 24  1  0  0  0  0
  7  8  1  0  0  0  0
  7  9  1  0  0  0  0
 28 29  1  0  0  0  0
 28 30  1  0  0  0  0
 28 31  1  0  0  0  0
 26 27  1  0  0  0  0
 26 28  1  0  0  0  0
M  END
$$$$
default_name
  -OEChem-02102213163D

 31 30  0     1  0  0  0  0  0999 V2000
   -3.0760   -3.6390    1.5496 H   0  0  0  0  0  0  0  0  0  0  0  0
   -3.0940   -2.6290    1.1426 C   0  0  0  0  0  0  0  0  0  0  0  0
   -3.7160   -1.9930    1.7706 H   0  0  0  0  0  0  0  0  0  0  0  0
   -3.4880   -2.6500    0.1286 H   0  0  0  0  0  0  0  0  0  0  0  0
   -1.6860   -2.0850    1.1196 C   0  0  0  0  0  0  0  0  0  0  0  0
   -0.7540   -2.7700    1.5226 O   0  0  0  0  0  0  0  0  0  0  0  0
   -1.5320   -0.8490    0.6496 N   0  0  0  0  0  0  0  0  0  0  0  0
   -2.3500   -0.3360    0.3566 H   0  0  0  0  0  0  0  0  0  0  0  0
   -0.2470   -0.1410    0.5576 C   0  0  1  0  0  0  0  0  0  0  0  0
    0.4572   -0.6505    1.2162 H   0  0  0  0  0  0  0  0  0  0  0  0
    0.3091   -0.2220   -0.8868 C   0  0  1  0  0  0  0  0  0  0  0  0
    1.0609    0.5634   -0.9866 H   0  0  0  0  0  0  0  0  0  0  0  0
    0.9974   -1.5693   -1.1777 C   0  0  0  0  0  0  0  0  0  0  0  0
    0.2699   -2.3828   -1.1648 H   0  0  0  0  0  0  0  0  0  0  0  0
    1.4844   -1.5430   -2.1512 H   0  0  0  0  0  0  0  0  0  0  0  0
    1.7633   -1.7705   -0.4277 H   0  0  0  0  0  0  0  0  0  0  0  0
   -0.7989    0.0670   -1.9243 C   0  0  0  0  0  0  0  0  0  0  0  0
   -0.9936    1.1393   -1.9719 H   0  0  0  0  0  0  0  0  0  0  0  0
   -0.4556   -0.2622   -2.9050 H   0  0  0  0  0  0  0  0  0  0  0  0
   -2.1201   -0.6581   -1.6347 C   0  0  0  0  0  0  0  0  0  0  0  0
   -2.5654   -0.2873   -0.7116 H   0  0  0  0  0  0  0  0  0  0  0  0
   -2.8169   -0.4762   -2.4532 H   0  0  0  0  0  0  0  0  0  0  0  0
   -1.9458   -1.7313   -1.5498 H   0  0  0  0  0  0  0  0  0  0  0  0
   -0.3971    1.3008    1.0689 C   0  0  0  0  0  0  0  0  0  0  0  0
   -1.3643    1.9819    0.7311 O   0  0  0  0  0  0  0  0  0  0  0  0
    0.5522    1.7647    1.8915 N   0  0  0  0  0  0  0  0  0  0  0  0
    1.3093    1.1450    2.1332 H   0  0  0  0  0  0  0  0  0  0  0  0
    0.5577    3.1119    2.4582 C   0  0  0  0  0  0  0  0  0  0  0  0
   -0.3986    3.3098    2.9475 H   0  0  0  0  0  0  0  0  0  0  0  0
    1.3619    3.2123    3.1886 H   0  0  0  0  0  0  0  0  0  0  0  0
    0.6974    3.8450    1.6614 H   0  0  0  0  0  0  0  0  0  0  0  0
  5  6  2  0  0  0  0
  5  7  1  0  0  0  0
  2  3  1  0  0  0  0
  2  4  1  0  0  0  0
  2  5  1  0  0  0  0
  1  2  1  0  0  0  0
 24 25  2  0  0  0  0
 24 26  1  0  0  0  0
 20 21  1  0  0  0  0
 20 22  1  0  0  0  0
 20 23  1  0  0  0  0
 17 18  1  0  0  0  0
 17 19  1  0  0  0  0
 17 20  1  0  0  0  0
 13 14  1  0  0  0  0
 13 15  1  0  0  0  0
 13 16  1  0  0  0  0
 11 12  1  0  0  0  0
 11 13  1  0  0  0  0
 11 17  1  0  0  0  0
  9 10  1  0  0  0  0
  9 11  1  0  0  0  0
  9 24  1  0  0  0  0
  7  8  1  0  0  0  0
  7  9  1  0  0  0  0
 28 29  1  0  0  0  0
 28 30  1  0  0  0  0
 28 31  1  0  0  0  0
 26 27  1  0  0  0  0
 26 28  1  0  0  0  0
M  END
$$$$
default_name
  -OEChem-02102213163D

 31 30  0     1  0  0  0  0  0999 V2000
   -3.0760   -3.6390    1.5496 H   0  0  0  0  0  0  0  0  0  0  0  0
   -3.0940   -2.6290    1.1426 C   0  0  0  0  0  0  0  0  0  0  0  0
   -3.7160   -1.9930    1.7706 H   0  0  0  0  0  0  0  0  0  0  0  0
   -3.4880   -2.6500    0.1286 H   0  0  0  0  0  0  0  0  0  0  0  0
   -1.6860   -2.0850    1.1196 C   0  0  0  0  0  0  0  0  0  0  0  0
   -0.7540   -2.7700    1.5226 O   0  0  0  0  0  0  0  0  0  0  0  0
   -1.5320   -0.8490    0.6496 N   0  0  0  0  0  0  0  0  0  0  0  0
   -2.3500   -0.3360    0.3566 H   0  0  0  0  0  0  0  0  0  0  0  0
   -0.2470   -0.1410    0.5576 C   0  0  1  0  0  0  0  0  0  0  0  0
    0.4572   -0.6505    1.2162 H   0  0  0  0  0  0  0  0  0  0  0  0
    0.3091   -0.2220   -0.8868 C   0  0  1  0  0  0  0  0  0  0  0  0
    1.0609    0.5634   -0.9866 H   0  0  0  0  0  0  0  0  0  0  0  0
    0.9974   -1.5693   -1.1777 C   0  0  0  0  0  0  0  0  0  0  0  0
    0.2699   -2.3828   -1.1648 H   0  0  0  0  0  0  0  0  0  0  0  0
    1.4844   -1.5430   -2.1512 H   0  0  0  0  0  0  0  0  0  0  0  0
    1.7633   -1.7705   -0.4277 H   0  0  0  0  0  0  0  0  0  0  0  0
   -0.7989    0.0670   -1.9243 C   0  0  0  0  0  0  0  0  0  0  0  0
   -0.8120    1.1301   -2.1684 H   0  0  0  0  0  0  0  0  0  0  0  0
   -0.5805   -0.4904   -2.8351 H   0  0  0  0  0  0  0  0  0  0  0  0
   -2.2022   -0.3462   -1.4601 C   0  0  0  0  0  0  0  0  0  0  0  0
   -2.5175    0.2592   -0.6105 H   0  0  0  0  0  0  0  0  0  0  0  0
   -2.9097   -0.1943   -2.2755 H   0  0  0  0  0  0  0  0  0  0  0  0
   -2.2068   -1.3997   -1.1786 H   0  0  0  0  0  0  0  0  0  0  0  0
   -0.3971    1.3008    1.0689 C   0  0  0  0  0  0  0  0  0  0  0  0
   -1.3643    1.9819    0.7311 O   0  0  0  0  0  0  0  0  0  0  0  0
    0.5522    1.7647    1.8915 N   0  0  0  0  0  0  0  0  0  0  0  0
    1.3093    1.1450    2.1332 H   0  0  0  0  0  0  0  0  0  0  0  0
    0.5577    3.1119    2.4582 C   0  0  0  0  0  0  0  0  0  0  0  0
   -0.3986    3.3098    2.9475 H   0  0  0  0  0  0  0  0  0  0  0  0
    1.3619    3.2123    3.1886 H   0  0  0  0  0  0  0  0  0  0  0  0
    0.6974    3.8450    1.6614 H   0  0  0  0  0  0  0  0  0  0  0  0
  5  6  2  0  0  0  0
  5  7  1  0  0  0  0
  2  3  1  0  0  0  0
  2  4  1  0  0  0  0
  2  5  1  0  0  0  0
  1  2  1  0  0  0  0
 24 25  2  0  0  0  0
 24 26  1  0  0  0  0
 20 21  1  0  0  0  0
 20 22  1  0  0  0  0
 20 23  1  0  0  0  0
 17 18  1  0  0  0  0
 17 19  1  0  0  0  0
 17 20  1  0  0  0  0
 13 14  1  0  0  0  0
 13 15  1  0  0  0  0
 13 16  1  0  0  0  0
 11 12  1  0  0  0  0
 11 13  1  0  0  0  0
 11 17  1  0  0  0  0
  9 10  1  0  0  0  0
  9 11  1  0  0  0  0
  9 24  1  0  0  0  0
  7  8  1  0  0  0  0
  7  9  1  0  0  0  0
 28 29  1  0  0  0  0
 28 30  1  0  0  0  0
 28 31  1  0  0  0  0
 26 27  1  0  0  0  0
 26 28  1  0  0  0  0
M  END
$$$$
default_name
  -OEChem-02102213163D

 31 30  0     1  0  0  0  0  0999 V2000
   -3.0760   -3.6390    1.5496 H   0  0  0  0  0  0  0  0  0  0  0  0
   -3.0940   -2.6290    1.1426 C   0  0  0  0  0  0  0  0  0  0  0  0
   -3.7160   -1.9930    1.7706 H   0  0  0  0  0  0  0  0  0  0  0  0
   -3.4880   -2.6500    0.1286 H   0  0  0  0  0  0  0  0  0  0  0  0
   -1.6860   -2.0850    1.1196 C   0  0  0  0  0  0  0  0  0  0  0  0
   -0.7540   -2.7700    1.5226 O   0  0  0  0  0  0  0  0  0  0  0  0
   -1.5320   -0.8490    0.6496 N   0  0  0  0  0  0  0  0  0  0  0  0
   -2.3500   -0.3360    0.3566 H   0  0  0  0  0  0  0  0  0  0  0  0
   -0.2470   -0.1410    0.5576 C   0  0  1  0  0  0  0  0  0  0  0  0
    0.4572   -0.6505    1.2162 H   0  0  0  0  0  0  0  0  0  0  0  0
    0.3091   -0.2220   -0.8868 C   0  0  1  0  0  0  0  0  0  0  0  0
    1.0609    0.5634   -0.9866 H   0  0  0  0  0  0  0  0  0  0  0  0
    0.9974   -1.5693   -1.1777 C   0  0  0  0  0  0  0  0  0  0  0  0
    0.2699   -2.3828   -1.1648 H   0  0  0  0  0  0  0  0  0  0  0  0
    1.4844   -1.5430   -2.1512 H   0  0  0  0  0  0  0  0  0  0  0  0
    1.7633   -1.7705   -0.4277 H   0  0  0  0  0  0  0  0  0  0  0  0
   -0.7989    0.0670   -1.9243 C   0  0  0  0  0  0  0  0  0  0  0  0
   -0.6477    1.0532   -2.3653 H   0  0  0  0  0  0  0  0  0  0  0  0
   -0.7375   -0.6762   -2.7192 H   0  0  0  0  0  0  0  0  0  0  0  0
   -2.2188    0.0018   -1.3454 C   0  0  0  0  0  0  0  0  0  0  0  0
   -2.3714    0.7976   -0.6166 H   0  0  0  0  0  0  0  0  0  0  0  0
   -2.9418    0.1270   -2.1517 H   0  0  0  0  0  0  0  0  0  0  0  0
   -2.3833   -0.9652   -0.8690 H   0  0  0  0  0  0  0  0  0  0  0  0
   -0.3971    1.3008    1.0689 C   0  0  0  0  0  0  0  0  0  0  0  0
   -1.3643    1.9819    0.7311 O   0  0  0  0  0  0  0  0  0  0  0  0
    0.5522    1.7647    1.8915 N   0  0  0  0  0  0  0  0  0  0  0  0
    1.3093    1.1450    2.1332 H   0  0  0  0  0  0  0  0  0  0  0  0
    0.5577    3.1119    2.4582 C   0  0  0  0  0  0  0  0  0  0  0  0
   -0.3986    3.3098    2.9475 H   0  0  0  0  0  0  0  0  0  0  0  0
    1.3619    3.2123    3.1886 H   0  0  0  0  0  0  0  0  0  0  0  0
    0.6974    3.8450    1.6614 H   0  0  0  0  0  0  0  0  0  0  0  0
  5  6  2  0  0  0  0
  5  7  1  0  0  0  0
  2  3  1  0  0  0  0
  2  4  1  0  0  0  0
  2  5  1  0  0  0  0
  1  2  1  0  0  0  0
 24 25  2  0  0  0  0
 24 26  1  0  0  0  0
 20 21  1  0  0  0  0
 20 22  1  0  0  0  0
 20 23  1  0  0  0  0
 17 18  1  0  0  0  0
 17 19  1  0  0  0  0
 17 20  1  0  0  0  0
 13 14  1  0  0  0  0
 13 15  1  0  0  0  0
 13 16  1  0  0  0  0
 11 12  1  0  0  0  0
 11 13  1  0  0  0  0
 11 17  1  0  0  0  0
  9 10  1  0  0  0  0
  9 11  1  0  0  0  0
  9 24  1  0  0  0  0
  7  8  1  0  0  0  0
  7  9  1  0  0  0  0
 28 29  1  0  0  0  0
 28 30  1  0  0  0  0
 28 31  1  0  0  0  0
 26 27  1  0  0  0  0
 26 28  1  0  0  0  0
M  END
$$$$
default_name
  -OEChem-02102213163D

 31 30  0     1  0  0  0  0  0999 V2000
   -3.0760   -3.6390    1.5496 H   0  0  0  0  0  0  0  0  0  0  0  0
   -3.0940   -2.6290    1.1426 C   0  0  0  0  0  0  0  0  0  0  0  0
   -3.7160   -1.9930    1.7706 H   0  0  0  0  0  0  0  0  0  0  0  0
   -3.4880   -2.6500    0.1286 H   0  0  0  0  0  0  0  0  0  0  0  0
   -1.6860   -2.0850    1.1196 C   0  0  0  0  0  0  0  0  0  0  0  0
   -0.7540   -2.7700    1.5226 O   0  0  0  0  0  0  0  0  0  0  0  0
   -1.5320   -0.8490    0.6496 N   0  0  0  0  0  0  0  0  0  0  0  0
   -2.3500   -0.3360    0.3566 H   0  0  0  0  0  0  0  0  0  0  0  0
   -0.2470   -0.1410    0.5576 C   0  0  1  0  0  0  0  0  0  0  0  0
    0.4572   -0.6505    1.2162 H   0  0  0  0  0  0  0  0  0  0  0  0
    0.3091   -0.2220   -0.8868 C   0  0  1  0  0  0  0  0  0  0  0  0
    1.0609    0.5634   -0.9866 H   0  0  0  0  0  0  0  0  0  0  0  0
    0.9974   -1.5693   -1.1777 C   0  0  0  0  0  0  0  0  0  0  0  0
    0.2699   -2.3828   -1.1648 H   0  0  0  0  0  0  0  0  0  0  0  0
    1.4844   -1.5430   -2.1512 H   0  0  0  0  0  0  0  0  0  0  0  0
    1.7633   -1.7705   -0.4277 H   0  0  0  0  0  0  0  0  0  0  0  0
   -0.7989    0.0670   -1.9243 C   0  0  0  0  0  0  0  0  0  0  0  0
   -0.5120    0.9139   -2.5491 H   0  0  0  0  0  0  0  0  0  0  0  0
   -0.9158   -0.8068   -2.5652 H   0  0  0  0  0  0  0  0  0  0  0  0
   -2.1688    0.3622   -1.2984 C   0  0  0  0  0  0  0  0  0  0  0  0
   -2.1370    1.2911   -0.7294 H   0  0  0  0  0  0  0  0  0  0  0  0
   -2.9109    0.4659   -2.0903 H   0  0  0  0  0  0  0  0  0  0  0  0
   -2.4634   -0.4574   -0.6420 H   0  0  0  0  0  0  0  0  0  0  0  0
   -0.3971    1.3008    1.0689 C   0  0  0  0  0  0  0  0  0  0  0  0
   -1.3643    1.9819    0.7311 O   0  0  0  0  0  0  0  0  0  0  0  0
    0.5522    1.7647    1.8915 N   0  0  0  0  0  0  0  0  0  0  0  0
    1.3093    1.1450    2.1332 H   0  0  0  0  0  0  0  0  0  0  0  0
    0.5577    3.1119    2.4582 C   0  0  0  0  0  0  0  0  0  0  0  0
   -0.3986    3.3098    2.9475 H   0  0  0  0  0  0  0  0  0  0  0  0
    1.3619    3.2123    3.1886 H   0  0  0  0  0  0  0  0  0  0  0  0
    0.6974    3.8450    1.6614 H   0  0  0  0  0  0  0  0  0  0  0  0
  5  6  2  0  0  0  0
  5  7  1  0  0  0  0
  2  3  1  0  0  0  0
  2  4  1  0  0  0  0
  2  5  1  0  0  0  0
  1  2  1  0  0  0  0
 24 25  2  0  0  0  0
 24 26  1  0  0  0  0
 20 21  1  0  0  0  0
 20 22  1  0  0  0  0
 20 23  1  0  0  0  0
 17 18  1  0  0  0  0
 17 19  1  0  0  0  0
 17 20  1  0  0  0  0
 13 14  1  0  0  0  0
 13 15  1  0  0  0  0
 13 16  1  0  0  0  0
 11 12  1  0  0  0  0
 11 13  1  0  0  0  0
 11 17  1  0  0  0  0
  9 10  1  0  0  0  0
  9 11  1  0  0  0  0
  9 24  1  0  0  0  0
  7  8  1  0  0  0  0
  7  9  1  0  0  0  0
 28 29  1  0  0  0  0
 28 30  1  0  0  0  0
 28 31  1  0  0  0  0
 26 27  1  0  0  0  0
 26 28  1  0  0  0  0
M  END
$$$$
default_name
  -OEChem-02102213163D

 31 30  0     1  0  0  0  0  0999 V2000
   -3.0760   -3.6390    1.5496 H   0  0  0  0  0  0  0  0  0  0  0  0
   -3.0940   -2.6290    1.1426 C   0  0  0  0  0  0  0  0  0  0  0  0
   -3.7160   -1.9930    1.7706 H   0  0  0  0  0  0  0  0  0  0  0  0
   -3.4880   -2.6500    0.1286 H   0  0  0  0  0  0  0  0  0  0  0  0
   -1.6860   -2.0850    1.1196 C   0  0  0  0  0  0  0  0  0  0  0  0
   -0.7540   -2.7700    1.5226 O   0  0  0  0  0  0  0  0  0  0  0  0
   -1.5320   -0.8490    0.6496 N   0  0  0  0  0  0  0  0  0  0  0  0
   -2.3500   -0.3360    0.3566 H   0  0  0  0  0  0  0  0  0  0  0  0
   -0.2470   -0.1410    0.5576 C   0  0  1  0  0  0  0  0  0  0  0  0
    0.4572   -0.6505    1.2162 H   0  0  0  0  0  0  0  0  0  0  0  0
    0.3091   -0.2220   -0.8868 C   0  0  1  0  0  0  0  0  0  0  0  0
    1.0609    0.5634   -0.9866 H   0  0  0  0  0  0  0  0  0  0  0  0
    0.9974   -1.5693   -1.1777 C   0  0  0  0  0  0  0  0  0  0  0  0
    0.2699   -2.3828   -1.1648 H   0  0  0  0  0  0  0  0  0  0  0  0
    1.4844   -1.5430   -2.1512 H   0  0  0  0  0  0  0  0  0  0  0  0
    1.7633   -1.7705   -0.4277 H   0  0  0  0  0  0  0  0  0  0  0  0
   -0.7989    0.0670   -1.9243 C   0  0  0  0  0  0  0  0  0  0  0  0
   -0.4139    0.7215   -2.7074 H   0  0  0  0  0  0  0  0  0  0  0  0
   -1.1033   -0.8734   -2.3835 H   0  0  0  0  0  0  0  0  0  0  0  0
   -2.0556    0.7102   -1.3223 C   0  0  0  0  0  0  0  0  0  0  0  0
   -1.8302    1.7062   -0.9414 H   0  0  0  0  0  0  0  0  0  0  0  0
   -2.8192    0.7994   -2.0953 H   0  0  0  0  0  0  0  0  0  0  0  0
   -2.4414    0.0892   -0.5132 H   0  0  0  0  0  0  0  0  0  0  0  0
   -0.3971    1.3008    1.0689 C   0  0  0  0  0  0  0  0  0  0  0  0
   -1.3643    1.9819    0.7311 O   0  0  0  0  0  0  0  0  0  0  0  0
    0.5522    1.7647    1.8915 N   0  0  0  0  0  0  0  0  0  0  0  0
    1.3093    1.1450    2.1332 H   0  0  0  0  0  0  0  0  0  0  0  0
    0.5577    3.1119    2.4582 C   0  0  0  0  0  0  0  0  0  0  0  0
   -0.3986    3.3098    2.9475 H   0  0  0  0  0  0  0  0  0  0  0  0
    1.3619    3.2123    3.1886 H   0  0  0  0  0  0  0  0  0  0  0  0
    0.6974    3.8450    1.6614 H   0  0  0  0  0  0  0  0  0  0  0  0
  5  6  2  0  0  0  0
  5  7  1  0  0  0  0
  2  3  1  0  0  0  0
  2  4  1  0  0  0  0
  2  5  1  0  0  0  0
  1  2  1  0  0  0  0
 24 25  2  0  0  0  0
 24 26  1  0  0  0  0
 20 21  1  0  0  0  0
 20 22  1  0  0  0  0
 20 23  1  0  0  0  0
 17 18  1  0  0  0  0
 17 19  1  0  0  0  0
 17 20  1  0  0  0  0
 13 14  1  0  0  0  0
 13 15  1  0  0  0  0
 13 16  1  0  0  0  0
 11 12  1  0  0  0  0
 11 13  1  0  0  0  0
 11 17  1  0  0  0  0
  9 10  1  0  0  0  0
  9 11  1  0  0  0  0
  9 24  1  0  0  0  0
  7  8  1  0  0  0  0
  7  9  1  0  0  0  0
 28 29  1  0  0  0  0
 28 30  1  0  0  0  0
 28 31  1  0  0  0  0
 26 27  1  0  0  0  0
 26 28  1  0  0  0  0
M  END
$$$$
default_name
  -OEChem-02102213163D

 31 30  0     1  0  0  0  0  0999 V2000
   -3.0760   -3.6390    1.5496 H   0  0  0  0  0  0  0  0  0  0  0  0
   -3.0940   -2.6290    1.1426 C   0  0  0  0  0  0  0  0  0  0  0  0
   -3.7160   -1.9930    1.7706 H   0  0  0  0  0  0  0  0  0  0  0  0
   -3.4880   -2.6500    0.1286 H   0  0  0  0  0  0  0  0  0  0  0  0
   -1.6860   -2.0850    1.1196 C   0  0  0  0  0  0  0  0  0  0  0  0
   -0.7540   -2.7700    1.5226 O   0  0  0  0  0  0  0  0  0  0  0  0
   -1.5320   -0.8490    0.6496 N   0  0  0  0  0  0  0  0  0  0  0  0
   -2.3500   -0.3360    0.3566 H   0  0  0  0  0  0  0  0  0  0  0  0
   -0.2470   -0.1410    0.5576 C   0  0  1  0  0  0  0  0  0  0  0  0
    0.4572   -0.6505    1.2162 H   0  0  0  0  0  0  0  0  0  0  0  0
    0.3091   -0.2220   -0.8868 C   0  0  1  0  0  0  0  0  0  0  0  0
    1.0609    0.5634   -0.9866 H   0  0  0  0  0  0  0  0  0  0  0  0
    0.9974   -1.5693   -1.1777 C   0  0  0  0  0  0  0  0  0  0  0  0
    0.2699   -2.3828   -1.1648 H   0  0  0  0  0  0  0  0  0  0  0  0
    1.4844   -1.5430   -2.1512 H   0  0  0  0  0  0  0  0  0  0  0  0
    1.7633   -1.7705   -0.4277 H   0  0  0  0  0  0  0  0  0  0  0  0
   -0.7989    0.0670   -1.9243 C   0  0  0  0  0  0  0  0  0  0  0  0
   -0.3603    0.4894   -2.8293 H   0  0  0  0  0  0  0  0  0  0  0  0
   -1.2871   -0.8715   -2.1866 H   0  0  0  0  0  0  0  0  0  0  0  0
   -1.8870    1.0224   -1.4155 C   0  0  0  0  0  0  0  0  0  0  0  0
   -1.4721    2.0144   -1.2380 H   0  0  0  0  0  0  0  0  0  0  0  0
   -2.6730    1.1046   -2.1665 H   0  0  0  0  0  0  0  0  0  0  0  0
   -2.3190    0.6373   -0.4912 H   0  0  0  0  0  0  0  0  0  0  0  0
   -0.3971    1.3008    1.0689 C   0  0  0  0  0  0  0  0  0  0  0  0
   -1.3643    1.9819    0.7311 O   0  0  0  0  0  0  0  0  0  0  0  0
    0.5522    1.7647    1.8915 N   0  0  0  0  0  0  0  0  0  0  0  0
    1.3093    1.1450    2.1332 H   0  0  0  0  0  0  0  0  0  0  0  0
    0.5577    3.1119    2.4582 C   0  0  0  0  0  0  0  0  0  0  0  0
   -0.3986    3.3098    2.9475 H   0  0  0  0  0  0  0  0  0  0  0  0
    1.3619    3.2123    3.1886 H   0  0  0  0  0  0  0  0  0  0  0  0
    0.6974    3.8450    1.6614 H   0  0  0  0  0  0  0  0  0  0  0  0
  5  6  2  0  0  0  0
  5  7  1  0  0  0  0
  2  3  1  0  0  0  0
  2  4  1  0  0  0  0
  2  5  1  0  0  0  0
  1  2  1  0  0  0  0
 24 25  2  0  0  0  0
 24 26  1  0  0  0  0
 20 21  1  0  0  0  0
 20 22  1  0  0  0  0
 20 23  1  0  0  0  0
 17 18  1  0  0  0  0
 17 19  1  0  0  0  0
 17 20  1  0  0  0  0
 13 14  1  0  0  0  0
 13 15  1  0  0  0  0
 13 16  1  0  0  0  0
 11 12  1  0  0  0  0
 11 13  1  0  0  0  0
 11 17  1  0  0  0  0
  9 10  1  0  0  0  0
  9 11  1  0  0  0  0
  9 24  1  0  0  0  0
  7  8  1  0  0  0  0
  7  9  1  0  0  0  0
 28 29  1  0  0  0  0
 28 30  1  0  0  0  0
 28 31  1  0  0  0  0
 26 27  1  0  0  0  0
 26 28  1  0  0  0  0
M  END
$$$$
default_name
  -OEChem-02102213163D

 31 30  0     1  0  0  0  0  0999 V2000
   -3.0760   -3.6390    1.5496 H   0  0  0  0  0  0  0  0  0  0  0  0
   -3.0940   -2.6290    1.1426 C   0  0  0  0  0  0  0  0  0  0  0  0
   -3.7160   -1.9930    1.7706 H   0  0  0  0  0  0  0  0  0  0  0  0
   -3.4880   -2.6500    0.1286 H   0  0  0  0  0  0  0  0  0  0  0  0
   -1.6860   -2.0850    1.1196 C   0  0  0  0  0  0  0  0  0  0  0  0
   -0.7540   -2.7700    1.5226 O   0  0  0  0  0  0  0  0  0  0  0  0
   -1.5320   -0.8490    0.6496 N   0  0  0  0  0  0  0  0  0  0  0  0
   -2.3500   -0.3360    0.3566 H   0  0  0  0  0  0  0  0  0  0  0  0
   -0.2470   -0.1410    0.5576 C   0  0  1  0  0  0  0  0  0  0  0  0
    0.4572   -0.6505    1.2162 H   0  0  0  0  0  0  0  0  0  0  0  0
    0.3091   -0.2220   -0.8868 C   0  0  1  0  0  0  0  0  0  0  0  0
    1.0609    0.5634   -0.9866 H   0  0  0  0  0  0  0  0  0  0  0  0
    0.9974   -1.5693   -1.1777 C   0  0  0  0  0  0  0  0  0  0  0  0
    0.2699   -2.3828   -1.1648 H   0  0  0  0  0  0  0  0  0  0  0  0
    1.4844   -1.5430   -2.1512 H   0  0  0  0  0  0  0  0  0  0  0  0
    1.7633   -1.7705   -0.4277 H   0  0  0  0  0  0  0  0  0  0  0  0
   -0.7989    0.0670   -1.9243 C   0  0  0  0  0  0  0  0  0  0  0  0
   -0.3548    0.2331   -2.9066 H   0  0  0  0  0  0  0  0  0  0  0  0
   -1.4548   -0.8011   -1.9878 H   0  0  0  0  0  0  0  0  0  0  0  0
   -1.6743    1.2772   -1.5716 C   0  0  0  0  0  0  0  0  0  0  0  0
   -1.0870    2.1949   -1.5991 H   0  0  0  0  0  0  0  0  0  0  0  0
   -2.4821    1.3608   -2.2990 H   0  0  0  0  0  0  0  0  0  0  0  0
   -2.1045    1.1495   -0.5776 H   0  0  0  0  0  0  0  0  0  0  0  0
   -0.3971    1.3008    1.0689 C   0  0  0  0  0  0  0  0  0  0  0  0
   -1.3643    1.9819    0.7311 O   0  0  0  0  0  0  0  0  0  0  0  0
    0.5522    1.7647    1.8915 N   0  0  0  0  0  0  0  0  0  0  0  0
    1.3093    1.1450    2.1332 H   0  0  0  0  0  0  0  0  0  0  0  0
    0.5577    3.1119    2.4582 C   0  0  0  0  0  0  0  0  0  0  0  0
   -0.3986    3.3098    2.9475 H   0  0  0  0  0  0  0  0  0  0  0  0
    1.3619    3.2123    3.1886 H   0  0  0  0  0  0  0  0  0  0  0  0
    0.6974    3.8450    1.6614 H   0  0  0  0  0  0  0  0  0  0  0  0
  5  6  2  0  0  0  0
  5  7  1  0  0  0  0
  2  3  1  0  0  0  0
  2  4  1  0  0  0  0
  2  5  1  0  0  0  0
  1  2  1  0  0  0  0
 24 25  2  0  0  0  0
 24 26  1  0  0  0  0
 20 21  1  0  0  0  0
 20 22  1  0  0  0  0
 20 23  1  0  0  0  0
 17 18  1  0  0  0  0
 17 19  1  0  0  0  0
 17 20  1  0  0  0  0
 13 14  1  0  0  0  0
 13 15  1  0  0  0  0
 13 16  1  0  0  0  0
 11 12  1  0  0  0  0
 11 13  1  0  0  0  0
 11 17  1  0  0  0  0
  9 10  1  0  0  0  0
  9 11  1  0  0  0  0
  9 24  1  0  0  0  0
  7  8  1  0  0  0  0
  7  9  1  0  0  0  0
 28 29  1  0  0  0  0
 28 30  1  0  0  0  0
 28 31  1  0  0  0  0
 26 27  1  0  0  0  0
 26 28  1  0  0  0  0
M  END
$$$$
default_name
  -OEChem-02102213163D

 31 30  0     1  0  0  0  0  0999 V2000
   -3.0760   -3.6390    1.5496 H   0  0  0  0  0  0  0  0  0  0  0  0
   -3.0940   -2.6290    1.1426 C   0  0  0  0  0  0  0  0  0  0  0  0
   -3.7160   -1.9930    1.7706 H   0  0  0  0  0  0  0  0  0  0  0  0
   -3.4880   -2.6500    0.1286 H   0  0  0  0  0  0  0  0  0  0  0  0
   -1.6860   -2.0850    1.1196 C   0  0  0  0  0  0  0  0  0  0  0  0
   -0.7540   -2.7700    1.5226 O   0  0  0  0  0  0  0  0  0  0  0  0
   -1.5320   -0.8490    0.6496 N   0  0  0  0  0  0  0  0  0  0  0  0
   -2.3500   -0.3360    0.3566 H   0  0  0  0  0  0  0  0  0  0  0  0
   -0.2470   -0.1410    0.5576 C   0  0  1  0  0  0  0  0  0  0  0  0
    0.4572   -0.6505    1.2162 H   0  0  0  0  0  0  0  0  0  0  0  0
    0.3091   -0.2220   -0.8868 C   0  0  1  0  0  0  0  0  0  0  0  0
    1.0609    0.5634   -0.9866 H   0  0  0  0  0  0  0  0  0  0  0  0
    0.9974   -1.5693   -1.1777 C   0  0  0  0  0  0  0  0  0  0  0  0
    0.2699   -2.3828   -1.1648 H   0  0  0  0  0  0  0  0  0  0  0  0
    1.4844   -1.5430   -2.1512 H   0  0  0  0  0  0  0  0  0  0  0  0
    1.7633   -1.7705   -0.4277 H   0  0  0  0  0  0  0  0  0  0  0  0
   -0.7989    0.0670   -1.9243 C   0  0  0  0  0  0  0  0  0  0  0  0
   -0.3977   -0.0296   -2.9340 H   0  0  0  0  0  0  0  0  0  0  0  0
   -1.5950   -0.6671   -1.8008 H   0  0  0  0  0  0  0  0  0  0  0  0
   -1.4322    1.4575   -1.7800 C   0  0  0  0  0  0  0  0  0  0  0  0
   -0.7011    2.2353   -2.0000 H   0  0  0  0  0  0  0  0  0  0  0  0
   -2.2596    1.5505   -2.4838 H   0  0  0  0  0  0  0  0  0  0  0  0
   -1.8125    1.5909   -0.7666 H   0  0  0  0  0  0  0  0  0  0  0  0
   -0.3971    1.3008    1.0689 C   0  0  0  0  0  0  0  0  0  0  0  0
   -1.3643    1.9819    0.7311 O   0  0  0  0  0  0  0  0  0  0  0  0
    0.5522    1.7647    1.8915 N   0  0  0  0  0  0  0  0  0  0  0  0
    1.3093    1.1450    2.1332 H   0  0  0  0  0  0  0  0  0  0  0  0
    0.5577    3.1119    2.4582 C   0  0  0  0  0  0  0  0  0  0  0  0
   -0.3986    3.3098    2.9475 H   0  0  0  0  0  0  0  0  0  0  0  0
    1.3619    3.2123    3.1886 H   0  0  0  0  0  0  0  0  0  0  0  0
    0.6974    3.8450    1.6614 H   0  0  0  0  0  0  0  0  0  0  0  0
  5  6  2  0  0  0  0
  5  7  1  0  0  0  0
  2  3  1  0  0  0  0
  2  4  1  0  0  0  0
  2  5  1  0  0  0  0
  1  2  1  0  0  0  0
 24 25  2  0  0  0  0
 24 26  1  0  0  0  0
 20 21  1  0  0  0  0
 20 22  1  0  0  0  0
 20 23  1  0  0  0  0
 17 18  1  0  0  0  0
 17 19  1  0  0  0  0
 17 20  1  0  0  0  0
 13 14  1  0  0  0  0
 13 15  1  0  0  0  0
 13 16  1  0  0  0  0
 11 12  1  0  0  0  0
 11 13  1  0  0  0  0
 11 17  1  0  0  0  0
  9 10  1  0  0  0  0
  9 11  1  0  0  0  0
  9 24  1  0  0  0  0
  7  8  1  0  0  0  0
  7  9  1  0  0  0  0
 28 29  1  0  0  0  0
 28 30  1  0  0  0  0
 28 31  1  0  0  0  0
 26 27  1  0  0  0  0
 26 28  1  0  0  0  0
M  END
$$$$
default_name
  -OEChem-02102213163D

 31 30  0     1  0  0  0  0  0999 V2000
   -3.0760   -3.6390    1.5496 H   0  0  0  0  0  0  0  0  0  0  0  0
   -3.0940   -2.6290    1.1426 C   0  0  0  0  0  0  0  0  0  0  0  0
   -3.7160   -1.9930    1.7706 H   0  0  0  0  0  0  0  0  0  0  0  0
   -3.4880   -2.6500    0.1286 H   0  0  0  0  0  0  0  0  0  0  0  0
   -1.6860   -2.0850    1.1196 C   0  0  0  0  0  0  0  0  0  0  0  0
   -0.7540   -2.7700    1.5226 O   0  0  0  0  0  0  0  0  0  0  0  0
   -1.5320   -0.8490    0.6496 N   0  0  0  0  0  0  0  0  0  0  0  0
   -2.3500   -0.3360    0.3566 H   0  0  0  0  0  0  0  0  0  0  0  0
   -0.2470   -0.1410    0.5576 C   0  0  1  0  0  0  0  0  0  0  0  0
    0.4572   -0.6505    1.2162 H   0  0  0  0  0  0  0  0  0  0  0  0
    0.3091   -0.2220   -0.8868 C   0  0  1  0  0  0  0  0  0  0  0  0
    1.0609    0.5634   -0.9866 H   0  0  0  0  0  0  0  0  0  0  0  0
    0.9974   -1.5693   -1.1777 C   0  0  0  0  0  0  0  0  0  0  0  0
    0.2699   -2.3828   -1.1648 H   0  0  0  0  0  0  0  0  0  0  0  0
    1.4844   -1.5430   -2.1512 H   0  0  0  0  0  0  0  0  0  0  0  0
    1.7633   -1.7705   -0.4277 H   0  0  0  0  0  0  0  0  0  0  0  0
   -0.7989    0.0670   -1.9243 C   0  0  0  0  0  0  0  0  0  0  0  0
   -0.4862   -0.2811   -2.9096 H   0  0  0  0  0  0  0  0  0  0  0  0
   -1.6980   -0.4786   -1.6382 H   0  0  0  0  0  0  0  0  0  0  0  0
   -1.1771    1.5509   -2.0264 C   0  0  0  0  0  0  0  0  0  0  0  0
   -0.3408    2.1328   -2.4134 H   0  0  0  0  0  0  0  0  0  0  0  0
   -2.0207    1.6607   -2.7082 H   0  0  0  0  0  0  0  0  0  0  0  0
   -1.4628    1.9315   -1.0452 H   0  0  0  0  0  0  0  0  0  0  0  0
   -0.3971    1.3008    1.0689 C   0  0  0  0  0  0  0  0  0  0  0  0
   -1.3643    1.9819    0.7311 O   0  0  0  0  0  0  0  0  0  0  0  0
    0.5522    1.7647    1.8915 N   0  0  0  0  0  0  0  0  0  0  0  0
    1.3093    1.1450    2.1332 H   0  0  0  0  0  0  0  0  0  0  0  0
    0.5577    3.1119    2.4582 C   0  0  0  0  0  0  0  0  0  0  0  0
   -0.3986    3.3098    2.9475 H   0  0  0  0  0  0  0  0  0  0  0  0
    1.3619    3.2123    3.1886 H   0  0  0  0  0  0  0  0  0  0  0  0
    0.6974    3.8450    1.6614 H   0  0  0  0  0  0  0  0  0  0  0  0
  5  6  2  0  0  0  0
  5  7  1  0  0  0  0
  2  3  1  0  0  0  0
  2  4  1  0  0  0  0
  2  5  1  0  0  0  0
  1  2  1  0  0  0  0
 24 25  2  0  0  0  0
 24 26  1  0  0  0  0
 20 21  1  0  0  0  0
 20 22  1  0  0  0  0
 20 23  1  0  0  0  0
 17 18  1  0  0  0  0
 17 19  1  0  0  0  0
 17 20  1  0  0  0  0
 13 14  1  0  0  0  0
 13 15  1  0  0  0  0
 13 16  1  0  0  0  0
 11 12  1  0  0  0  0
 11 13  1  0  0  0  0
 11 17  1  0  0  0  0
  9 10  1  0  0  0  0
  9 11  1  0  0  0  0
  9 24  1  0  0  0  0
  7  8  1  0  0  0  0
  7  9  1  0  0  0  0
 28 29  1  0  0  0  0
 28 30  1  0  0  0  0
 28 31  1  0  0  0  0
 26 27  1  0  0  0  0
 26 28  1  0  0  0  0
M  END
$$$$
default_name
  -OEChem-02102213163D

 31 30  0     1  0  0  0  0  0999 V2000
   -3.0760   -3.6390    1.5496 H   0  0  0  0  0  0  0  0  0  0  0  0
   -3.0940   -2.6290    1.1426 C   0  0  0  0  0  0  0  0  0  0  0  0
   -3.7160   -1.9930    1.7706 H   0  0  0  0  0  0  0  0  0  0  0  0
   -3.4880   -2.6500    0.1286 H   0  0  0  0  0  0  0  0  0  0  0  0
   -1.6860   -2.0850    1.1196 C   0  0  0  0  0  0  0  0  0  0  0  0
   -0.7540   -2.7700    1.5226 O   0  0  0  0  0  0  0  0  0  0  0  0
   -1.5320   -0.8490    0.6496 N   0  0  0  0  0  0  0  0  0  0  0  0
   -2.3500   -0.3360    0.3566 H   0  0  0  0  0  0  0  0  0  0  0  0
   -0.2470   -0.1410    0.5576 C   0  0  1  0  0  0  0  0  0  0  0  0
    0.4572   -0.6505    1.2162 H   0  0  0  0  0  0  0  0  0  0  0  0
    0.3091   -0.2220   -0.8868 C   0  0  1  0  0  0  0  0  0  0  0  0
    1.0609    0.5634   -0.9866 H   0  0  0  0  0  0  0  0  0  0  0  0
    0.9974   -1.5693   -1.1777 C   0  0  0  0  0  0  0  0  0  0  0  0
    0.2699   -2.3828   -1.1648 H   0  0  0  0  0  0  0  0  0  0  0  0
    1.4844   -1.5430   -2.1512 H   0  0  0  0  0  0  0  0  0  0  0  0
    1.7633   -1.7705   -0.4277 H   0  0  0  0  0  0  0  0  0  0  0  0
   -0.7989    0.0670   -1.9243 C   0  0  0  0  0  0  0  0  0  0  0  0
   -0.6141   -0.5041   -2.8351 H   0  0  0  0  0  0  0  0  0  0  0  0
   -1.7569   -0.2485   -1.5112 H   0  0  0  0  0  0  0  0  0  0  0  0
   -0.9264    1.5510   -2.2941 C   0  0  0  0  0  0  0  0  0  0  0  0
   -0.0306    1.8945   -2.8111 H   0  0  0  0  0  0  0  0  0  0  0  0
   -1.7817    1.6841   -2.9570 H   0  0  0  0  0  0  0  0  0  0  0  0
   -1.0794    2.1480   -1.3944 H   0  0  0  0  0  0  0  0  0  0  0  0
   -0.3971    1.3008    1.0689 C   0  0  0  0  0  0  0  0  0  0  0  0
   -1.3643    1.9819    0.7311 O   0  0  0  0  0  0  0  0  0  0  0  0
    0.5522    1.7647    1.8915 N   0  0  0  0  0  0  0  0  0  0  0  0
    1.3093    1.1450    2.1332 H   0  0  0  0  0  0  0  0  0  0  0  0
    0.5577    3.1119    2.4582 C   0  0  0  0  0  0  0  0  0  0  0  0
   -0.3986    3.3098    2.9475 H   0  0  0  0  0  0  0  0  0  0  0  0
    1.3619    3.2123    3.1886 H   0  0  0  0  0  0  0  0  0  0  0  0
    0.6974    3.8450    1.6614 H   0  0  0  0  0  0  0  0  0  0  0  0
  5  6  2  0  0  0  0
  5  7  1  0  0  0  0
  2  3  1  0  0  0  0
  2  4  1  0  0  0  0
  2  5  1  0  0  0  0
  1  2  1  0  0  0  0
 24 25  2  0  0  0  0
 24 26  1  0  0  0  0
 20 21  1  0  0  0  0
 20 22  1  0  0  0  0
 20 23  1  0  0  0  0
 17 18  1  0  0  0  0
 17 19  1  0  0  0  0
 17 20  1  0  0  0  0
 13 14  1  0  0  0  0
 13 15  1  0  0  0  0
 13 16  1  0  0  0  0
 11 12  1  0  0  0  0
 11 13  1  0  0  0  0
 11 17  1  0  0  0  0
  9 10  1  0  0  0  0
  9 11  1  0  0  0  0
  9 24  1  0  0  0  0
  7  8  1  0  0  0  0
  7  9  1  0  0  0  0
 28 29  1  0  0  0  0
 28 30  1  0  0  0  0
 28 31  1  0  0  0  0
 26 27  1  0  0  0  0
 26 28  1  0  0  0  0
M  END
$$$$
default_name
  -OEChem-02102213163D

 31 30  0     1  0  0  0  0  0999 V2000
   -3.0760   -3.6390    1.5496 H   0  0  0  0  0  0  0  0  0  0  0  0
   -3.0940   -2.6290    1.1426 C   0  0  0  0  0  0  0  0  0  0  0  0
   -3.7160   -1.9930    1.7706 H   0  0  0  0  0  0  0  0  0  0  0  0
   -3.4880   -2.6500    0.1286 H   0  0  0  0  0  0  0  0  0  0  0  0
   -1.6860   -2.0850    1.1196 C   0  0  0  0  0  0  0  0  0  0  0  0
   -0.7540   -2.7700    1.5226 O   0  0  0  0  0  0  0  0  0  0  0  0
   -1.5320   -0.8490    0.6496 N   0  0  0  0  0  0  0  0  0  0  0  0
   -2.3500   -0.3360    0.3566 H   0  0  0  0  0  0  0  0  0  0  0  0
   -0.2470   -0.1410    0.5576 C   0  0  1  0  0  0  0  0  0  0  0  0
    0.4572   -0.6505    1.2162 H   0  0  0  0  0  0  0  0  0  0  0  0
    0.3091   -0.2220   -0.8868 C   0  0  1  0  0  0  0  0  0  0  0  0
    1.0609    0.5634   -0.9866 H   0  0  0  0  0  0  0  0  0  0  0  0
    0.9974   -1.5693   -1.1777 C   0  0  0  0  0  0  0  0  0  0  0  0
    0.2699   -2.3828   -1.1648 H   0  0  0  0  0  0  0  0  0  0  0  0
    1.4844   -1.5430   -2.1512 H   0  0  0  0  0  0  0  0  0  0  0  0
    1.7633   -1.7705   -0.4277 H   0  0  0  0  0  0  0  0  0  0  0  0
   -0.7989    0.0670   -1.9243 C   0  0  0  0  0  0  0  0  0  0  0  0
   -0.7729   -0.6834   -2.7155 H   0  0  0  0  0  0  0  0  0  0  0  0
   -1.7677    0.0077   -1.4283 H   0  0  0  0  0  0  0  0  0  0  0  0
   -0.6972    1.4579   -2.5649 C   0  0  0  0  0  0  0  0  0  0  0  0
    0.2084    1.5366   -3.1661 H   0  0  0  0  0  0  0  0  0  0  0  0
   -1.5587    1.6189   -3.2133 H   0  0  0  0  0  0  0  0  0  0  0  0
   -0.6883    2.2256   -1.7904 H   0  0  0  0  0  0  0  0  0  0  0  0
   -0.3971    1.3008    1.0689 C   0  0  0  0  0  0  0  0  0  0  0  0
   -1.3643    1.9819    0.7311 O   0  0  0  0  0  0  0  0  0  0  0  0
    0.5522    1.7647    1.8915 N   0  0  0  0  0  0  0  0  0  0  0  0
    1.3093    1.1450    2.1332 H   0  0  0  0  0  0  0  0  0  0  0  0
    0.5577    3.1119    2.4582 C   0  0  0  0  0  0  0  0  0  0  0  0
   -0.3986    3.3098    2.9475 H   0  0  0  0  0  0  0  0  0  0  0  0
    1.3619    3.2123    3.1886 H   0  0  0  0  0  0  0  0  0  0  0  0
    0.6974    3.8450    1.6614 H   0  0  0  0  0  0  0  0  0  0  0  0
  5  6  2  0  0  0  0
  5  7  1  0  0  0  0
  2  3  1  0  0  0  0
  2  4  1  0  0  0  0
  2  5  1  0  0  0  0
  1  2  1  0  0  0  0
 24 25  2  0  0  0  0
 24 26  1  0  0  0  0
 20 21  1  0  0  0  0
 20 22  1  0  0  0  0
 20 23  1  0  0  0  0
 17 18  1  0  0  0  0
 17 19  1  0  0  0  0
 17 20  1  0  0  0  0
 13 14  1  0  0  0  0
 13 15  1  0  0  0  0
 13 16  1  0  0  0  0
 11 12  1  0  0  0  0
 11 13  1  0  0  0  0
 11 17  1  0  0  0  0
  9 10  1  0  0  0  0
  9 11  1  0  0  0  0
  9 24  1  0  0  0  0
  7  8  1  0  0  0  0
  7  9  1  0  0  0  0
 28 29  1  0  0  0  0
 28 30  1  0  0  0  0
 28 31  1  0  0  0  0
 26 27  1  0  0  0  0
 26 28  1  0  0  0  0
M  END
$$$$
default_name
  -OEChem-02102213163D

 31 30  0     1  0  0  0  0  0999 V2000
   -3.0760   -3.6390    1.5496 H   0  0  0  0  0  0  0  0  0  0  0  0
   -3.0940   -2.6290    1.1426 C   0  0  0  0  0  0  0  0  0  0  0  0
   -3.7160   -1.9930    1.7706 H   0  0  0  0  0  0  0  0  0  0  0  0
   -3.4880   -2.6500    0.1286 H   0  0  0  0  0  0  0  0  0  0  0  0
   -1.6860   -2.0850    1.1196 C   0  0  0  0  0  0  0  0  0  0  0  0
   -0.7540   -2.7700    1.5226 O   0  0  0  0  0  0  0  0  0  0  0  0
   -1.5320   -0.8490    0.6496 N   0  0  0  0  0  0  0  0  0  0  0  0
   -2.3500   -0.3360    0.3566 H   0  0  0  0  0  0  0  0  0  0  0  0
   -0.2470   -0.1410    0.5576 C   0  0  1  0  0  0  0  0  0  0  0  0
    0.4572   -0.6505    1.2162 H   0  0  0  0  0  0  0  0  0  0  0  0
    0.3091   -0.2220   -0.8868 C   0  0  1  0  0  0  0  0  0  0  0  0
    1.0609    0.5634   -0.9866 H   0  0  0  0  0  0  0  0  0  0  0  0
    0.9974   -1.5693   -1.1777 C   0  0  0  0  0  0  0  0  0  0  0  0
    0.2699   -2.3828   -1.1648 H   0  0  0  0  0  0  0  0  0  0  0  0
    1.4844   -1.5430   -2.1512 H   0  0  0  0  0  0  0  0  0  0  0  0
    1.7633   -1.7705   -0.4277 H   0  0  0  0  0  0  0  0  0  0  0  0
   -0.7989    0.0670   -1.9243 C   0  0  0  0  0  0  0  0  0  0  0  0
   -0.9515   -0.8068   -2.5590 H   0  0  0  0  0  0  0  0  0  0  0  0
   -1.7296    0.2723   -1.3953 H   0  0  0  0  0  0  0  0  0  0  0  0
   -0.5051    1.2779   -2.8203 C   0  0  0  0  0  0  0  0  0  0  0  0
    0.3599    1.0834   -3.4541 H   0  0  0  0  0  0  0  0  0  0  0  0
   -1.3671    1.4697   -3.4595 H   0  0  0  0  0  0  0  0  0  0  0  0
   -0.3162    2.1592   -2.2063 H   0  0  0  0  0  0  0  0  0  0  0  0
   -0.3971    1.3008    1.0689 C   0  0  0  0  0  0  0  0  0  0  0  0
   -1.3643    1.9819    0.7311 O   0  0  0  0  0  0  0  0  0  0  0  0
    0.5522    1.7647    1.8915 N   0  0  0  0  0  0  0  0  0  0  0  0
    1.3093    1.1450    2.1332 H   0  0  0  0  0  0  0  0  0  0  0  0
    0.5577    3.1119    2.4582 C   0  0  0  0  0  0  0  0  0  0  0  0
   -0.3986    3.3098    2.9475 H   0  0  0  0  0  0  0  0  0  0  0  0
    1.3619    3.2123    3.1886 H   0  0  0  0  0  0  0  0  0  0  0  0
    0.6974    3.8450    1.6614 H   0  0  0  0  0  0  0  0  0  0  0  0
  5  6  2  0  0  0  0
  5  7  1  0  0  0  0
  2  3  1  0  0  0  0
  2  4  1  0  0  0  0
  2  5  1  0  0  0  0
  1  2  1  0  0  0  0
 24 25  2  0  0  0  0
 24 26  1  0  0  0  0
 20 21  1  0  0  0  0
 20 22  1  0  0  0  0
 20 23  1  0  0  0  0
 17 18  1  0  0  0  0
 17 19  1  0  0  0  0
 17 20  1  0  0  0  0
 13 14  1  0  0  0  0
 13 15  1  0  0  0  0
 13 16  1  0  0  0  0
 11 12  1  0  0  0  0
 11 13  1  0  0  0  0
 11 17  1  0  0  0  0
  9 10  1  0  0  0  0
  9 11  1  0  0  0  0
  9 24  1  0  0  0  0
  7  8  1  0  0  0  0
  7  9  1  0  0  0  0
 28 29  1  0  0  0  0
 28 30  1  0  0  0  0
 28 31  1  0  0  0  0
 26 27  1  0  0  0  0
 26 28  1  0  0  0  0
M  END
$$$$
default_name
  -OEChem-02102213163D

 31 30  0     1  0  0  0  0  0999 V2000
   -3.0760   -3.6390    1.5496 H   0  0  0  0  0  0  0  0  0  0  0  0
   -3.0940   -2.6290    1.1426 C   0  0  0  0  0  0  0  0  0  0  0  0
   -3.7160   -1.9930    1.7706 H   0  0  0  0  0  0  0  0  0  0  0  0
   -3.4880   -2.6500    0.1286 H   0  0  0  0  0  0  0  0  0  0  0  0
   -1.6860   -2.0850    1.1196 C   0  0  0  0  0  0  0  0  0  0  0  0
   -0.7540   -2.7700    1.5226 O   0  0  0  0  0  0  0  0  0  0  0  0
   -1.5320   -0.8490    0.6496 N   0  0  0  0  0  0  0  0  0  0  0  0
   -2.3500   -0.3360    0.3566 H   0  0  0  0  0  0  0  0  0  0  0  0
   -0.2470   -0.1410    0.5576 C   0  0  1  0  0  0  0  0  0  0  0  0
    0.4572   -0.6505    1.2162 H   0  0  0  0  0  0  0  0  0  0  0  0
    0.3091   -0.2220   -0.8868 C   0  0  1  0  0  0  0  0  0  0  0  0
    1.0609    0.5634   -0.9866 H   0  0  0  0  0  0  0  0  0  0  0  0
    0.9974   -1.5693   -1.1777 C   0  0  0  0  0  0  0  0  0  0  0  0
    0.2699   -2.3828   -1.1648 H   0  0  0  0  0  0  0  0  0  0  0  0
    1.4844   -1.5430   -2.1512 H   0  0  0  0  0  0  0  0  0  0  0  0
    1.7633   -1.7705   -0.4277 H   0  0  0  0  0  0  0  0  0  0  0  0
   -0.7989    0.0670   -1.9243 C   0  0  0  0  0  0  0  0  0  0  0  0
   -1.1380   -0.8660   -2.3763 H   0  0  0  0  0  0  0  0  0  0  0  0
   -1.6451    0.5274   -1.4144 H   0  0  0  0  0  0  0  0  0  0  0  0
   -0.3631    1.0232   -3.0428 C   0  0  0  0  0  0  0  0  0  0  0  0
    0.4135    0.5659   -3.6556 H   0  0  0  0  0  0  0  0  0  0  0  0
   -1.2199    1.2465   -3.6789 H   0  0  0  0  0  0  0  0  0  0  0  0
    0.0115    1.9532   -2.6138 H   0  0  0  0  0  0  0  0  0  0  0  0
   -0.3971    1.3008    1.0689 C   0  0  0  0  0  0  0  0  0  0  0  0
   -1.3643    1.9819    0.7311 O   0  0  0  0  0  0  0  0  0  0  0  0
    0.5522    1.7647    1.8915 N   0  0  0  0  0  0  0  0  0  0  0  0
    1.3093    1.1450    2.1332 H   0  0  0  0  0  0  0  0  0  0  0  0
    0.5577    3.1119    2.4582 C   0  0  0  0  0  0  0  0  0  0  0  0
   -0.3986    3.3098    2.9475 H   0  0  0  0  0  0  0  0  0  0  0  0
    1.3619    3.2123    3.1886 H   0  0  0  0  0  0  0  0  0  0  0  0
    0.6974    3.8450    1.6614 H   0  0  0  0  0  0  0  0  0  0  0  0
  5  6  2  0  0  0  0
  5  7  1  0  0  0  0
  2  3  1  0  0  0  0
  2  4  1  0  0  0  0
  2  5  1  0  0  0  0
  1  2  1  0  0  0  0
 24 25  2  0  0  0  0
 24 26  1  0  0  0  0
 20 21  1  0  0  0  0
 20 22  1  0  0  0  0
 20 23  1  0  0  0  0
 17 18  1  0  0  0  0
 17 19  1  0  0  0  0
 17 20  1  0  0  0  0
 13 14  1  0  0  0  0
 13 15  1  0  0  0  0
 13 16  1  0  0  0  0
 11 12  1  0  0  0  0
 11 13  1  0  0  0  0
 11 17  1  0  0  0  0
  9 10  1  0  0  0  0
  9 11  1  0  0  0  0
  9 24  1  0  0  0  0
  7  8  1  0  0  0  0
  7  9  1  0  0  0  0
 28 29  1  0  0  0  0
 28 30  1  0  0  0  0
 28 31  1  0  0  0  0
 26 27  1  0  0  0  0
 26 28  1  0  0  0  0
M  END
$$$$
default_name
  -OEChem-02102213163D

 31 30  0     1  0  0  0  0  0999 V2000
   -3.0760   -3.6390    1.5496 H   0  0  0  0  0  0  0  0  0  0  0  0
   -3.0940   -2.6290    1.1426 C   0  0  0  0  0  0  0  0  0  0  0  0
   -3.7160   -1.9930    1.7706 H   0  0  0  0  0  0  0  0  0  0  0  0
   -3.4880   -2.6500    0.1286 H   0  0  0  0  0  0  0  0  0  0  0  0
   -1.6860   -2.0850    1.1196 C   0  0  0  0  0  0  0  0  0  0  0  0
   -0.7540   -2.7700    1.5226 O   0  0  0  0  0  0  0  0  0  0  0  0
   -1.5320   -0.8490    0.6496 N   0  0  0  0  0  0  0  0  0  0  0  0
   -2.3500   -0.3360    0.3566 H   0  0  0  0  0  0  0  0  0  0  0  0
   -0.2470   -0.1410    0.5576 C   0  0  1  0  0  0  0  0  0  0  0  0
    0.4572   -0.6505    1.2162 H   0  0  0  0  0  0  0  0  0  0  0  0
    0.3091   -0.2220   -0.8868 C   0  0  1  0  0  0  0  0  0  0  0  0
    1.0609    0.5634   -0.9866 H   0  0  0  0  0  0  0  0  0  0  0  0
    0.9974   -1.5693   -1.1777 C   0  0  0  0  0  0  0  0  0  0  0  0
    0.2699   -2.3828   -1.1648 H   0  0  0  0  0  0  0  0  0  0  0  0
    1.4844   -1.5430   -2.1512 H   0  0  0  0  0  0  0  0  0  0  0  0
    1.7633   -1.7705   -0.4277 H   0  0  0  0  0  0  0  0  0  0  0  0
   -0.7989    0.0670   -1.9243 C   0  0  0  0  0  0  0  0  0  0  0  0
   -1.3196   -0.8568   -2.1798 H   0  0  0  0  0  0  0  0  0  0  0  0
   -1.5202    0.7557   -1.4843 H   0  0  0  0  0  0  0  0  0  0  0  0
   -0.2811    0.7112   -3.2174 C   0  0  0  0  0  0  0  0  0  0  0  0
    0.3656    0.0194   -3.7567 H   0  0  0  0  0  0  0  0  0  0  0  0
   -1.1271    0.9647   -3.8566 H   0  0  0  0  0  0  0  0  0  0  0  0
    0.2725    1.6216   -2.9849 H   0  0  0  0  0  0  0  0  0  0  0  0
   -0.3971    1.3008    1.0689 C   0  0  0  0  0  0  0  0  0  0  0  0
   -1.3643    1.9819    0.7311 O   0  0  0  0  0  0  0  0  0  0  0  0
    0.5522    1.7647    1.8915 N   0  0  0  0  0  0  0  0  0  0  0  0
    1.3093    1.1450    2.1332 H   0  0  0  0  0  0  0  0  0  0  0  0
    0.5577    3.1119    2.4582 C   0  0  0  0  0  0  0  0  0  0  0  0
   -0.3986    3.3098    2.9475 H   0  0  0  0  0  0  0  0  0  0  0  0
    1.3619    3.2123    3.1886 H   0  0  0  0  0  0  0  0  0  0  0  0
    0.6974    3.8450    1.6614 H   0  0  0  0  0  0  0  0  0  0  0  0
  5  6  2  0  0  0  0
  5  7  1  0  0  0  0
  2  3  1  0  0  0  0
  2  4  1  0  0  0  0
  2  5  1  0  0  0  0
  1  2  1  0  0  0  0
 24 25  2  0  0  0  0
 24 26  1  0  0  0  0
 20 21  1  0  0  0  0
 20 22  1  0  0  0  0
 20 23  1  0  0  0  0
 17 18  1  0  0  0  0
 17 19  1  0  0  0  0
 17 20  1  0  0  0  0
 13 14  1  0  0  0  0
 13 15  1  0  0  0  0
 13 16  1  0  0  0  0
 11 12  1  0  0  0  0
 11 13  1  0  0  0  0
 11 17  1  0  0  0  0
  9 10  1  0  0  0  0
  9 11  1  0  0  0  0
  9 24  1  0  0  0  0
  7  8  1  0  0  0  0
  7  9  1  0  0  0  0
 28 29  1  0  0  0  0
 28 30  1  0  0  0  0
 28 31  1  0  0  0  0
 26 27  1  0  0  0  0
 26 28  1  0  0  0  0
M  END
$$$$
default_name
  -OEChem-02102213163D

 31 30  0     1  0  0  0  0  0999 V2000
   -3.0760   -3.6390    1.5496 H   0  0  0  0  0  0  0  0  0  0  0  0
   -3.0940   -2.6290    1.1426 C   0  0  0  0  0  0  0  0  0  0  0  0
   -3.7160   -1.9930    1.7706 H   0  0  0  0  0  0  0  0  0  0  0  0
   -3.4880   -2.6500    0.1286 H   0  0  0  0  0  0  0  0  0  0  0  0
   -1.6860   -2.0850    1.1196 C   0  0  0  0  0  0  0  0  0  0  0  0
   -0.7540   -2.7700    1.5226 O   0  0  0  0  0  0  0  0  0  0  0  0
   -1.5320   -0.8490    0.6496 N   0  0  0  0  0  0  0  0  0  0  0  0
   -2.3500   -0.3360    0.3566 H   0  0  0  0  0  0  0  0  0  0  0  0
   -0.2470   -0.1410    0.5576 C   0  0  1  0  0  0  0  0  0  0  0  0
    0.4572   -0.6505    1.2162 H   0  0  0  0  0  0  0  0  0  0  0  0
    0.3091   -0.2220   -0.8868 C   0  0  1  0  0  0  0  0  0  0  0  0
    1.0609    0.5634   -0.9866 H   0  0  0  0  0  0  0  0  0  0  0  0
    0.9974   -1.5693   -1.1777 C   0  0  0  0  0  0  0  0  0  0  0  0
    0.2699   -2.3828   -1.1648 H   0  0  0  0  0  0  0  0  0  0  0  0
    1.4844   -1.5430   -2.1512 H   0  0  0  0  0  0  0  0  0  0  0  0
    1.7633   -1.7705   -0.4277 H   0  0  0  0  0  0  0  0  0  0  0  0
   -0.7989    0.0670   -1.9243 C   0  0  0  0  0  0  0  0  0  0  0  0
   -1.4838   -0.7799   -1.9830 H   0  0  0  0  0  0  0  0  0  0  0  0
   -1.3632    0.9414   -1.6002 H   0  0  0  0  0  0  0  0  0  0  0  0
   -0.2645    0.3632   -3.3321 C   0  0  0  0  0  0  0  0  0  0  0  0
    0.2195   -0.5190   -3.7507 H   0  0  0  0  0  0  0  0  0  0  0  0
   -1.0951    0.6433   -3.9803 H   0  0  0  0  0  0  0  0  0  0  0  0
    0.4490    1.1871   -3.2946 H   0  0  0  0  0  0  0  0  0  0  0  0
   -0.3971    1.3008    1.0689 C   0  0  0  0  0  0  0  0  0  0  0  0
   -1.3643    1.9819    0.7311 O   0  0  0  0  0  0  0  0  0  0  0  0
    0.5522    1.7647    1.8915 N   0  0  0  0  0  0  0  0  0  0  0  0
    1.3093    1.1450    2.1332 H   0  0  0  0  0  0  0  0  0  0  0  0
    0.5577    3.1119    2.4582 C   0  0  0  0  0  0  0  0  0  0  0  0
   -0.3986    3.3098    2.9475 H   0  0  0  0  0  0  0  0  0  0  0  0
    1.3619    3.2123    3.1886 H   0  0  0  0  0  0  0  0  0  0  0  0
    0.6974    3.8450    1.6614 H   0  0  0  0  0  0  0  0  0  0  0  0
  5  6  2  0  0  0  0
  5  7  1  0  0  0  0
  2  3  1  0  0  0  0
  2  4  1  0  0  0  0
  2  5  1  0  0  0  0
  1  2  1  0  0  0  0
 24 25  2  0  0  0  0
 24 26  1  0  0  0  0
 20 21  1  0  0  0  0
 20 22  1  0  0  0  0
 20 23  1  0  0  0  0
 17 18  1  0  0  0  0
 17 19  1  0  0  0  0
 17 20  1  0  0  0  0
 13 14  1  0  0  0  0
 13 15  1  0  0  0  0
 13 16  1  0  0  0  0
 11 12  1  0  0  0  0
 11 13  1  0  0  0  0
 11 17  1  0  0  0  0
  9 10  1  0  0  0  0
  9 11  1  0  0  0  0
  9 24  1  0  0  0  0
  7  8  1  0  0  0  0
  7  9  1  0  0  0  0
 28 29  1  0  0  0  0
 28 30  1  0  0  0  0
 28 31  1  0  0  0  0
 26 27  1  0  0  0  0
 26 28  1  0  0  0  0
M  END
$$$$
default_name
  -OEChem-02102213163D

 31 30  0     1  0  0  0  0  0999 V2000
   -3.0760   -3.6390    1.5496 H   0  0  0  0  0  0  0  0  0  0  0  0
   -3.0940   -2.6290    1.1426 C   0  0  0  0  0  0  0  0  0  0  0  0
   -3.7160   -1.9930    1.7706 H   0  0  0  0  0  0  0  0  0  0  0  0
   -3.4880   -2.6500    0.1286 H   0  0  0  0  0  0  0  0  0  0  0  0
   -1.6860   -2.0850    1.1196 C   0  0  0  0  0  0  0  0  0  0  0  0
   -0.7540   -2.7700    1.5226 O   0  0  0  0  0  0  0  0  0  0  0  0
   -1.5320   -0.8490    0.6496 N   0  0  0  0  0  0  0  0  0  0  0  0
   -2.3500   -0.3360    0.3566 H   0  0  0  0  0  0  0  0  0  0  0  0
   -0.2470   -0.1410    0.5576 C   0  0  1  0  0  0  0  0  0  0  0  0
    0.4572   -0.6505    1.2162 H   0  0  0  0  0  0  0  0  0  0  0  0
    0.3091   -0.2220   -0.8868 C   0  0  1  0  0  0  0  0  0  0  0  0
    1.2300    0.3640   -0.9103 H   0  0  0  0  0  0  0  0  0  0  0  0
    0.6601   -1.6635   -1.3022 C   0  0  0  0  0  0  0  0  0  0  0  0
   -0.2418   -2.2745   -1.3679 H   0  0  0  0  0  0  0  0  0  0  0  0
    1.1632   -1.6670   -2.2679 H   0  0  0  0  0  0  0  0  0  0  0  0
    1.3362   -2.1115   -0.5731 H   0  0  0  0  0  0  0  0  0  0  0  0
   -0.6706    0.4198   -1.8947 C   0  0  0  0  0  0  0  0  0  0  0  0
   -1.6403   -0.0767   -1.8387 H   0  0  0  0  0  0  0  0  0  0  0  0
   -0.8077    1.4686   -1.6312 H   0  0  0  0  0  0  0  0  0  0  0  0
   -0.1797    0.3734   -3.3480 C   0  0  0  0  0  0  0  0  0  0  0  0
   -0.1269   -0.6564   -3.7009 H   0  0  0  0  0  0  0  0  0  0  0  0
   -0.8781    0.9213   -3.9810 H   0  0  0  0  0  0  0  0  0  0  0  0
    0.8050    0.8357   -3.4241 H   0  0  0  0  0  0  0  0  0  0  0  0
   -0.3971    1.3008    1.0689 C   0  0  0  0  0  0  0  0  0  0  0  0
   -1.3643    1.9819    0.7311 O   0  0  0  0  0  0  0  0  0  0  0  0
    0.5522    1.7647    1.8915 N   0  0  0  0  0  0  0  0  0  0  0  0
    1.3093    1.1450    2.1332 H   0  0  0  0  0  0  0  0  0  0  0  0
    0.5577    3.1119    2.4582 C   0  0  0  0  0  0  0  0  0  0  0  0
   -0.3986    3.3098    2.9475 H   0  0  0  0  0  0  0  0  0  0  0  0
    1.3619    3.2123    3.1886 H   0  0  0  0  0  0  0  0  0  0  0  0
    0.6974    3.8450    1.6614 H   0  0  0  0  0  0  0  0  0  0  0  0
  5  6  2  0  0  0  0
  5  7  1  0  0  0  0
  2  3  1  0  0  0  0
  2  4  1  0  0  0  0
  2  5  1  0  0  0  0
  1  2  1  0  0  0  0
 24 25  2  0  0  0  0
 24 26  1  0  0  0  0
 20 21  1  0  0  0  0
 20 22  1  0  0  0  0
 20 23  1  0  0  0  0
 17 18  1  0  0  0  0
 17 19  1  0  0  0  0
 17 20  1  0  0  0  0
 13 14  1  0  0  0  0
 13 15  1  0  0  0  0
 13 16  1  0  0  0  0
 11 12  1  0  0  0  0
 11 13  1  0  0  0  0
 11 17  1  0  0  0  0
  9 10  1  0  0  0  0
  9 11  1  0  0  0  0
  9 24  1  0  0  0  0
  7  8  1  0  0  0  0
  7  9  1  0  0  0  0
 28 29  1  0  0  0  0
 28 30  1  0  0  0  0
 28 31  1  0  0  0  0
 26 27  1  0  0  0  0
 26 28  1  0  0  0  0
M  END
$$$$
default_name
  -OEChem-02102213163D

 31 30  0     1  0  0  0  0  0999 V2000
   -3.0760   -3.6390    1.5496 H   0  0  0  0  0  0  0  0  0  0  0  0
   -3.0940   -2.6290    1.1426 C   0  0  0  0  0  0  0  0  0  0  0  0
   -3.7160   -1.9930    1.7706 H   0  0  0  0  0  0  0  0  0  0  0  0
   -3.4880   -2.6500    0.1286 H   0  0  0  0  0  0  0  0  0  0  0  0
   -1.6860   -2.0850    1.1196 C   0  0  0  0  0  0  0  0  0  0  0  0
   -0.7540   -2.7700    1.5226 O   0  0  0  0  0  0  0  0  0  0  0  0
   -1.5320   -0.8490    0.6496 N   0  0  0  0  0  0  0  0  0  0  0  0
   -2.3500   -0.3360    0.3566 H   0  0  0  0  0  0  0  0  0  0  0  0
   -0.2470   -0.1410    0.5576 C   0  0  1  0  0  0  0  0  0  0  0  0
    0.4572   -0.6505    1.2162 H   0  0  0  0  0  0  0  0  0  0  0  0
    0.3091   -0.2220   -0.8868 C   0  0  1  0  0  0  0  0  0  0  0  0
    1.2300    0.3640   -0.9103 H   0  0  0  0  0  0  0  0  0  0  0  0
    0.6601   -1.6635   -1.3022 C   0  0  0  0  0  0  0  0  0  0  0  0
   -0.2418   -2.2745   -1.3679 H   0  0  0  0  0  0  0  0  0  0  0  0
    1.1632   -1.6670   -2.2679 H   0  0  0  0  0  0  0  0  0  0  0  0
    1.3362   -2.1115   -0.5731 H   0  0  0  0  0  0  0  0  0  0  0  0
   -0.6706    0.4198   -1.8947 C   0  0  0  0  0  0  0  0  0  0  0  0
   -1.6931    0.1184   -1.6632 H   0  0  0  0  0  0  0  0  0  0  0  0
   -0.6052    1.5042   -1.8053 H   0  0  0  0  0  0  0  0  0  0  0  0
   -0.3739    0.0623   -3.3573 C   0  0  0  0  0  0  0  0  0  0  0  0
   -0.5296   -1.0025   -3.5298 H   0  0  0  0  0  0  0  0  0  0  0  0
   -1.0474    0.6209   -4.0077 H   0  0  0  0  0  0  0  0  0  0  0  0
    0.6555    0.3248   -3.6041 H   0  0  0  0  0  0  0  0  0  0  0  0
   -0.3971    1.3008    1.0689 C   0  0  0  0  0  0  0  0  0  0  0  0
   -1.3643    1.9819    0.7311 O   0  0  0  0  0  0  0  0  0  0  0  0
    0.5522    1.7647    1.8915 N   0  0  0  0  0  0  0  0  0  0  0  0
    1.3093    1.1450    2.1332 H   0  0  0  0  0  0  0  0  0  0  0  0
    0.5577    3.1119    2.4582 C   0  0  0  0  0  0  0  0  0  0  0  0
   -0.3986    3.3098    2.9475 H   0  0  0  0  0  0  0  0  0  0  0  0
    1.3619    3.2123    3.1886 H   0  0  0  0  0  0  0  0  0  0  0  0
    0.6974    3.8450    1.6614 H   0  0  0  0  0  0  0  0  0  0  0  0
  5  6  2  0  0  0  0
  5  7  1  0  0  0  0
  2  3  1  0  0  0  0
  2  4  1  0  0  0  0
  2  5  1  0  0  0  0
  1  2  1  0  0  0  0
 24 25  2  0  0  0  0
 24 26  1  0  0  0  0
 20 21  1  0  0  0  0
 20 22  1  0  0  0  0
 20 23  1  0  0  0  0
 17 18  1  0  0  0  0
 17 19  1  0  0  0  0
 17 20  1  0  0  0  0
 13 14  1  0  0  0  0
 13 15  1  0  0  0  0
 13 16  1  0  0  0  0
 11 12  1  0  0  0  0
 11 13  1  0  0  0  0
 11 17  1  0  0  0  0
  9 10  1  0  0  0  0
  9 11  1  0  0  0  0
  9 24  1  0  0  0  0
  7  8  1  0  0  0  0
  7  9  1  0  0  0  0
 28 29  1  0  0  0  0
 28 30  1  0  0  0  0
 28 31  1  0  0  0  0
 26 27  1  0  0  0  0
 26 28  1  0  0  0  0
M  END
$$$$
default_name
  -OEChem-02102213163D

 31 30  0     1  0  0  0  0  0999 V2000
   -3.0760   -3.6390    1.5496 H   0  0  0  0  0  0  0  0  0  0  0  0
   -3.0940   -2.6290    1.1426 C   0  0  0  0  0  0  0  0  0  0  0  0
   -3.7160   -1.9930    1.7706 H   0  0  0  0  0  0  0  0  0  0  0  0
   -3.4880   -2.6500    0.1286 H   0  0  0  0  0  0  0  0  0  0  0  0
   -1.6860   -2.0850    1.1196 C   0  0  0  0  0  0  0  0  0  0  0  0
   -0.7540   -2.7700    1.5226 O   0  0  0  0  0  0  0  0  0  0  0  0
   -1.5320   -0.8490    0.6496 N   0  0  0  0  0  0  0  0  0  0  0  0
   -2.3500   -0.3360    0.3566 H   0  0  0  0  0  0  0  0  0  0  0  0
   -0.2470   -0.1410    0.5576 C   0  0  1  0  0  0  0  0  0  0  0  0
    0.4572   -0.6505    1.2162 H   0  0  0  0  0  0  0  0  0  0  0  0
    0.3091   -0.2220   -0.8868 C   0  0  1  0  0  0  0  0  0  0  0  0
    1.2300    0.3640   -0.9103 H   0  0  0  0  0  0  0  0  0  0  0  0
    0.6601   -1.6635   -1.3022 C   0  0  0  0  0  0  0  0  0  0  0  0
   -0.2418   -2.2745   -1.3679 H   0  0  0  0  0  0  0  0  0  0  0  0
    1.1632   -1.6670   -2.2679 H   0  0  0  0  0  0  0  0  0  0  0  0
    1.3362   -2.1115   -0.5731 H   0  0  0  0  0  0  0  0  0  0  0  0
   -0.6706    0.4198   -1.8947 C   0  0  0  0  0  0  0  0  0  0  0  0
   -1.6923    0.3445   -1.5200 H   0  0  0  0  0  0  0  0  0  0  0  0
   -0.4224    1.4758   -2.0012 H   0  0  0  0  0  0  0  0  0  0  0  0
   -0.6149   -0.2069   -3.2944 C   0  0  0  0  0  0  0  0  0  0  0  0
   -0.9586   -1.2407   -3.2644 H   0  0  0  0  0  0  0  0  0  0  0  0
   -1.2645    0.3550   -3.9660 H   0  0  0  0  0  0  0  0  0  0  0  0
    0.4054   -0.1730   -3.6780 H   0  0  0  0  0  0  0  0  0  0  0  0
   -0.3971    1.3008    1.0689 C   0  0  0  0  0  0  0  0  0  0  0  0
   -1.3643    1.9819    0.7311 O   0  0  0  0  0  0  0  0  0  0  0  0
    0.5522    1.7647    1.8915 N   0  0  0  0  0  0  0  0  0  0  0  0
    1.3093    1.1450    2.1332 H   0  0  0  0  0  0  0  0  0  0  0  0
    0.5577    3.1119    2.4582 C   0  0  0  0  0  0  0  0  0  0  0  0
   -0.3986    3.3098    2.9475 H   0  0  0  0  0  0  0  0  0  0  0  0
    1.3619    3.2123    3.1886 H   0  0  0  0  0  0  0  0  0  0  0  0
    0.6974    3.8450    1.6614 H   0  0  0  0  0  0  0  0  0  0  0  0
  5  6  2  0  0  0  0
  5  7  1  0  0  0  0
  2  3  1  0  0  0  0
  2  4  1  0  0  0  0
  2  5  1  0  0  0  0
  1  2  1  0  0  0  0
 24 25  2  0  0  0  0
 24 26  1  0  0  0  0
 20 21  1  0  0  0  0
 20 22  1  0  0  0  0
 20 23  1  0  0  0  0
 17 18  1  0  0  0  0
 17 19  1  0  0  0  0
 17 20  1  0  0  0  0
 13 14  1  0  0  0  0
 13 15  1  0  0  0  0
 13 16  1  0  0  0  0
 11 12  1  0  0  0  0
 11 13  1  0  0  0  0
 11 17  1  0  0  0  0
  9 10  1  0  0  0  0
  9 11  1  0  0  0  0
  9 24  1  0  0  0  0
  7  8  1  0  0  0  0
  7  9  1  0  0  0  0
 28 29  1  0  0  0  0
 28 30  1  0  0  0  0
 28 31  1  0  0  0  0
 26 27  1  0  0  0  0
 26 28  1  0  0  0  0
M  END
$$$$
default_name
  -OEChem-02102213163D

 31 30  0     1  0  0  0  0  0999 V2000
   -3.0760   -3.6390    1.5496 H   0  0  0  0  0  0  0  0  0  0  0  0
   -3.0940   -2.6290    1.1426 C   0  0  0  0  0  0  0  0  0  0  0  0
   -3.7160   -1.9930    1.7706 H   0  0  0  0  0  0  0  0  0  0  0  0
   -3.4880   -2.6500    0.1286 H   0  0  0  0  0  0  0  0  0  0  0  0
   -1.6860   -2.0850    1.1196 C   0  0  0  0  0  0  0  0  0  0  0  0
   -0.7540   -2.7700    1.5226 O   0  0  0  0  0  0  0  0  0  0  0  0
   -1.5320   -0.8490    0.6496 N   0  0  0  0  0  0  0  0  0  0  0  0
   -2.3500   -0.3360    0.3566 H   0  0  0  0  0  0  0  0  0  0  0  0
   -0.2470   -0.1410    0.5576 C   0  0  1  0  0  0  0  0  0  0  0  0
    0.4572   -0.6505    1.2162 H   0  0  0  0  0  0  0  0  0  0  0  0
    0.3091   -0.2220   -0.8868 C   0  0  1  0  0  0  0  0  0  0  0  0
    1.2300    0.3640   -0.9103 H   0  0  0  0  0  0  0  0  0  0  0  0
    0.6601   -1.6635   -1.3022 C   0  0  0  0  0  0  0  0  0  0  0  0
   -0.2418   -2.2745   -1.3679 H   0  0  0  0  0  0  0  0  0  0  0  0
    1.1632   -1.6670   -2.2679 H   0  0  0  0  0  0  0  0  0  0  0  0
    1.3362   -2.1115   -0.5731 H   0  0  0  0  0  0  0  0  0  0  0  0
   -0.6706    0.4198   -1.8947 C   0  0  0  0  0  0  0  0  0  0  0  0
   -1.6380    0.5863   -1.4188 H   0  0  0  0  0  0  0  0  0  0  0  0
   -0.2716    1.3854   -2.2053 H   0  0  0  0  0  0  0  0  0  0  0  0
   -0.8864   -0.4159   -3.1636 C   0  0  0  0  0  0  0  0  0  0  0  0
   -1.3847   -1.3548   -2.9228 H   0  0  0  0  0  0  0  0  0  0  0  0
   -1.5146    0.1416   -3.8587 H   0  0  0  0  0  0  0  0  0  0  0  0
    0.0719   -0.6238   -3.6408 H   0  0  0  0  0  0  0  0  0  0  0  0
   -0.3971    1.3008    1.0689 C   0  0  0  0  0  0  0  0  0  0  0  0
   -1.3643    1.9819    0.7311 O   0  0  0  0  0  0  0  0  0  0  0  0
    0.5522    1.7647    1.8915 N   0  0  0  0  0  0  0  0  0  0  0  0
    1.3093    1.1450    2.1332 H   0  0  0  0  0  0  0  0  0  0  0  0
    0.5577    3.1119    2.4582 C   0  0  0  0  0  0  0  0  0  0  0  0
   -0.3986    3.3098    2.9475 H   0  0  0  0  0  0  0  0  0  0  0  0
    1.3619    3.2123    3.1886 H   0  0  0  0  0  0  0  0  0  0  0  0
    0.6974    3.8450    1.6614 H   0  0  0  0  0  0  0  0  0  0  0  0
  5  6  2  0  0  0  0
  5  7  1  0  0  0  0
  2  3  1  0  0  0  0
  2  4  1  0  0  0  0
  2  5  1  0  0  0  0
  1  2  1  0  0  0  0
 24 25  2  0  0  0  0
 24 26  1  0  0  0  0
 20 21  1  0  0  0  0
 20 22  1  0  0  0  0
 20 23  1  0  0  0  0
 17 18  1  0  0  0  0
 17 19  1  0  0  0  0
 17 20  1  0  0  0  0
 13 14  1  0  0  0  0
 13 15  1  0  0  0  0
 13 16  1  0  0  0  0
 11 12  1  0  0  0  0
 11 13  1  0  0  0  0
 11 17  1  0  0  0  0
  9 10  1  0  0  0  0
  9 11  1  0  0  0  0
  9 24  1  0  0  0  0
  7  8  1  0  0  0  0
  7  9  1  0  0  0  0
 28 29  1  0  0  0  0
 28 30  1  0  0  0  0
 28 31  1  0  0  0  0
 26 27  1  0  0  0  0
 26 28  1  0  0  0  0
M  END
$$$$
default_name
  -OEChem-02102213163D

 31 30  0     1  0  0  0  0  0999 V2000
   -3.0760   -3.6390    1.5496 H   0  0  0  0  0  0  0  0  0  0  0  0
   -3.0940   -2.6290    1.1426 C   0  0  0  0  0  0  0  0  0  0  0  0
   -3.7160   -1.9930    1.7706 H   0  0  0  0  0  0  0  0  0  0  0  0
   -3.4880   -2.6500    0.1286 H   0  0  0  0  0  0  0  0  0  0  0  0
   -1.6860   -2.0850    1.1196 C   0  0  0  0  0  0  0  0  0  0  0  0
   -0.7540   -2.7700    1.5226 O   0  0  0  0  0  0  0  0  0  0  0  0
   -1.5320   -0.8490    0.6496 N   0  0  0  0  0  0  0  0  0  0  0  0
   -2.3500   -0.3360    0.3566 H   0  0  0  0  0  0  0  0  0  0  0  0
   -0.2470   -0.1410    0.5576 C   0  0  1  0  0  0  0  0  0  0  0  0
    0.4572   -0.6505    1.2162 H   0  0  0  0  0  0  0  0  0  0  0  0
    0.3091   -0.2220   -0.8868 C   0  0  1  0  0  0  0  0  0  0  0  0
    1.2300    0.3640   -0.9103 H   0  0  0  0  0  0  0  0  0  0  0  0
    0.6601   -1.6635   -1.3022 C   0  0  0  0  0  0  0  0  0  0  0  0
   -0.2418   -2.2745   -1.3679 H   0  0  0  0  0  0  0  0  0  0  0  0
    1.1632   -1.6670   -2.2679 H   0  0  0  0  0  0  0  0  0  0  0  0
    1.3362   -2.1115   -0.5731 H   0  0  0  0  0  0  0  0  0  0  0  0
   -0.6706    0.4198   -1.8947 C   0  0  0  0  0  0  0  0  0  0  0  0
   -1.5338    0.8273   -1.3666 H   0  0  0  0  0  0  0  0  0  0  0  0
   -0.1632    1.2391   -2.4039 H   0  0  0  0  0  0  0  0  0  0  0  0
   -1.1699   -0.5505   -2.9737 C   0  0  0  0  0  0  0  0  0  0  0  0
   -1.7789   -1.3371   -2.5284 H   0  0  0  0  0  0  0  0  0  0  0  0
   -1.7807   -0.0047   -3.6932 H   0  0  0  0  0  0  0  0  0  0  0  0
   -0.3224   -0.9969   -3.4951 H   0  0  0  0  0  0  0  0  0  0  0  0
   -0.3971    1.3008    1.0689 C   0  0  0  0  0  0  0  0  0  0  0  0
   -1.3643    1.9819    0.7311 O   0  0  0  0  0  0  0  0  0  0  0  0
    0.5522    1.7647    1.8915 N   0  0  0  0  0  0  0  0  0  0  0  0
    1.3093    1.1450    2.1332 H   0  0  0  0  0  0  0  0  0  0  0  0
    0.5577    3.1119    2.4582 C   0  0  0  0  0  0  0  0  0  0  0  0
   -0.3986    3.3098    2.9475 H   0  0  0  0  0  0  0  0  0  0  0  0
    1.3619    3.2123    3.1886 H   0  0  0  0  0  0  0  0  0  0  0  0
    0.6974    3.8450    1.6614 H   0  0  0  0  0  0  0  0  0  0  0  0
  5  6  2  0  0  0  0
  5  7  1  0  0  0  0
  2  3  1  0  0  0  0
  2  4  1  0  0  0  0
  2  5  1  0  0  0  0
  1  2  1  0  0  0  0
 24 25  2  0  0  0  0
 24 26  1  0  0  0  0
 20 21  1  0  0  0  0
 20 22  1  0  0  0  0
 20 23  1  0  0  0  0
 17 18  1  0  0  0  0
 17 19  1  0  0  0  0
 17 20  1  0  0  0  0
 13 14  1  0  0  0  0
 13 15  1  0  0  0  0
 13 16  1  0  0  0  0
 11 12  1  0  0  0  0
 11 13  1  0  0  0  0
 11 17  1  0  0  0  0
  9 10  1  0  0  0  0
  9 11  1  0  0  0  0
  9 24  1  0  0  0  0
  7  8  1  0  0  0  0
  7  9  1  0  0  0  0
 28 29  1  0  0  0  0
 28 30  1  0  0  0  0
 28 31  1  0  0  0  0
 26 27  1  0  0  0  0
 26 28  1  0  0  0  0
M  END
$$$$
default_name
  -OEChem-02102213163D

 31 30  0     1  0  0  0  0  0999 V2000
   -3.0760   -3.6390    1.5496 H   0  0  0  0  0  0  0  0  0  0  0  0
   -3.0940   -2.6290    1.1426 C   0  0  0  0  0  0  0  0  0  0  0  0
   -3.7160   -1.9930    1.7706 H   0  0  0  0  0  0  0  0  0  0  0  0
   -3.4880   -2.6500    0.1286 H   0  0  0  0  0  0  0  0  0  0  0  0
   -1.6860   -2.0850    1.1196 C   0  0  0  0  0  0  0  0  0  0  0  0
   -0.7540   -2.7700    1.5226 O   0  0  0  0  0  0  0  0  0  0  0  0
   -1.5320   -0.8490    0.6496 N   0  0  0  0  0  0  0  0  0  0  0  0
   -2.3500   -0.3360    0.3566 H   0  0  0  0  0  0  0  0  0  0  0  0
   -0.2470   -0.1410    0.5576 C   0  0  1  0  0  0  0  0  0  0  0  0
    0.4572   -0.6505    1.2162 H   0  0  0  0  0  0  0  0  0  0  0  0
    0.3091   -0.2220   -0.8868 C   0  0  1  0  0  0  0  0  0  0  0  0
    1.2300    0.3640   -0.9103 H   0  0  0  0  0  0  0  0  0  0  0  0
    0.6601   -1.6635   -1.3022 C   0  0  0  0  0  0  0  0  0  0  0  0
   -0.2418   -2.2745   -1.3679 H   0  0  0  0  0  0  0  0  0  0  0  0
    1.1632   -1.6670   -2.2679 H   0  0  0  0  0  0  0  0  0  0  0  0
    1.3362   -2.1115   -0.5731 H   0  0  0  0  0  0  0  0  0  0  0  0
   -0.6706    0.4198   -1.8947 C   0  0  0  0  0  0  0  0  0  0  0  0
   -1.3869    1.0511   -1.3670 H   0  0  0  0  0  0  0  0  0  0  0  0
   -0.1045    1.0469   -2.5833 H   0  0  0  0  0  0  0  0  0  0  0  0
   -1.4461   -0.6015   -2.7377 C   0  0  0  0  0  0  0  0  0  0  0  0
   -2.1141   -1.1887   -2.1079 H   0  0  0  0  0  0  0  0  0  0  0  0
   -2.0447   -0.0740   -3.4807 H   0  0  0  0  0  0  0  0  0  0  0  0
   -0.7506   -1.2667   -3.2507 H   0  0  0  0  0  0  0  0  0  0  0  0
   -0.3971    1.3008    1.0689 C   0  0  0  0  0  0  0  0  0  0  0  0
   -1.3643    1.9819    0.7311 O   0  0  0  0  0  0  0  0  0  0  0  0
    0.5522    1.7647    1.8915 N   0  0  0  0  0  0  0  0  0  0  0  0
    1.3093    1.1450    2.1332 H   0  0  0  0  0  0  0  0  0  0  0  0
    0.5577    3.1119    2.4582 C   0  0  0  0  0  0  0  0  0  0  0  0
   -0.3986    3.3098    2.9475 H   0  0  0  0  0  0  0  0  0  0  0  0
    1.3619    3.2123    3.1886 H   0  0  0  0  0  0  0  0  0  0  0  0
    0.6974    3.8450    1.6614 H   0  0  0  0  0  0  0  0  0  0  0  0
  5  6  2  0  0  0  0
  5  7  1  0  0  0  0
  2  3  1  0  0  0  0
  2  4  1  0  0  0  0
  2  5  1  0  0  0  0
  1  2  1  0  0  0  0
 24 25  2  0  0  0  0
 24 26  1  0  0  0  0
 20 21  1  0  0  0  0
 20 22  1  0  0  0  0
 20 23  1  0  0  0  0
 17 18  1  0  0  0  0
 17 19  1  0  0  0  0
 17 20  1  0  0  0  0
 13 14  1  0  0  0  0
 13 15  1  0  0  0  0
 13 16  1  0  0  0  0
 11 12  1  0  0  0  0
 11 13  1  0  0  0  0
 11 17  1  0  0  0  0
  9 10  1  0  0  0  0
  9 11  1  0  0  0  0
  9 24  1  0  0  0  0
  7  8  1  0  0  0  0
  7  9  1  0  0  0  0
 28 29  1  0  0  0  0
 28 30  1  0  0  0  0
 28 31  1  0  0  0  0
 26 27  1  0  0  0  0
 26 28  1  0  0  0  0
M  END
$$$$
default_name
  -OEChem-02102213163D

 31 30  0     1  0  0  0  0  0999 V2000
   -3.0760   -3.6390    1.5496 H   0  0  0  0  0  0  0  0  0  0  0  0
   -3.0940   -2.6290    1.1426 C   0  0  0  0  0  0  0  0  0  0  0  0
   -3.7160   -1.9930    1.7706 H   0  0  0  0  0  0  0  0  0  0  0  0
   -3.4880   -2.6500    0.1286 H   0  0  0  0  0  0  0  0  0  0  0  0
   -1.6860   -2.0850    1.1196 C   0  0  0  0  0  0  0  0  0  0  0  0
   -0.7540   -2.7700    1.5226 O   0  0  0  0  0  0  0  0  0  0  0  0
   -1.5320   -0.8490    0.6496 N   0  0  0  0  0  0  0  0  0  0  0  0
   -2.3500   -0.3360    0.3566 H   0  0  0  0  0  0  0  0  0  0  0  0
   -0.2470   -0.1410    0.5576 C   0  0  1  0  0  0  0  0  0  0  0  0
    0.4572   -0.6505    1.2162 H   0  0  0  0  0  0  0  0  0  0  0  0
    0.3091   -0.2220   -0.8868 C   0  0  1  0  0  0  0  0  0  0  0  0
    1.2300    0.3640   -0.9103 H   0  0  0  0  0  0  0  0  0  0  0  0
    0.6601   -1.6635   -1.3022 C   0  0  0  0  0  0  0  0  0  0  0  0
   -0.2418   -2.2745   -1.3679 H   0  0  0  0  0  0  0  0  0  0  0  0
    1.1632   -1.6670   -2.2679 H   0  0  0  0  0  0  0  0  0  0  0  0
    1.3362   -2.1115   -0.5731 H   0  0  0  0  0  0  0  0  0  0  0  0
   -0.6706    0.4198   -1.8947 C   0  0  0  0  0  0  0  0  0  0  0  0
   -1.2072    1.2423   -1.4198 H   0  0  0  0  0  0  0  0  0  0  0  0
   -0.0995    0.8219   -2.7314 H   0  0  0  0  0  0  0  0  0  0  0  0
   -1.6960   -0.5655   -2.4718 C   0  0  0  0  0  0  0  0  0  0  0  0
   -2.3678   -0.9197   -1.6901 H   0  0  0  0  0  0  0  0  0  0  0  0
   -2.2885   -0.0614   -3.2357 H   0  0  0  0  0  0  0  0  0  0  0  0
   -1.1834   -1.4150   -2.9243 H   0  0  0  0  0  0  0  0  0  0  0  0
   -0.3971    1.3008    1.0689 C   0  0  0  0  0  0  0  0  0  0  0  0
   -1.3643    1.9819    0.7311 O   0  0  0  0  0  0  0  0  0  0  0  0
    0.5522    1.7647    1.8915 N   0  0  0  0  0  0  0  0  0  0  0  0
    1.3093    1.1450    2.1332 H   0  0  0  0  0  0  0  0  0  0  0  0
    0.5577    3.1119    2.4582 C   0  0  0  0  0  0  0  0  0  0  0  0
   -0.3986    3.3098    2.9475 H   0  0  0  0  0  0  0  0  0  0  0  0
    1.3619    3.2123    3.1886 H   0  0  0  0  0  0  0  0  0  0  0  0
    0.6974    3.8450    1.6614 H   0  0  0  0  0  0  0  0  0  0  0  0
  5  6  2  0  0  0  0
  5  7  1  0  0  0  0
  2  3  1  0  0  0  0
  2  4  1  0  0  0  0
  2  5  1  0  0  0  0
  1  2  1  0  0  0  0
 24 25  2  0  0  0  0
 24 26  1  0  0  0  0
 20 21  1  0  0  0  0
 20 22  1  0  0  0  0
 20 23  1  0  0  0  0
 17 18  1  0  0  0  0
 17 19  1  0  0  0  0
 17 20  1  0  0  0  0
 13 14  1  0  0  0  0
 13 15  1  0  0  0  0
 13 16  1  0  0  0  0
 11 12  1  0  0  0  0
 11 13  1  0  0  0  0
 11 17  1  0  0  0  0
  9 10  1  0  0  0  0
  9 11  1  0  0  0  0
  9 24  1  0  0  0  0
  7  8  1  0  0  0  0
  7  9  1  0  0  0  0
 28 29  1  0  0  0  0
 28 30  1  0  0  0  0
 28 31  1  0  0  0  0
 26 27  1  0  0  0  0
 26 28  1  0  0  0  0
M  END
$$$$
default_name
  -OEChem-02102213163D

 31 30  0     1  0  0  0  0  0999 V2000
   -3.0760   -3.6390    1.5496 H   0  0  0  0  0  0  0  0  0  0  0  0
   -3.0940   -2.6290    1.1426 C   0  0  0  0  0  0  0  0  0  0  0  0
   -3.7160   -1.9930    1.7706 H   0  0  0  0  0  0  0  0  0  0  0  0
   -3.4880   -2.6500    0.1286 H   0  0  0  0  0  0  0  0  0  0  0  0
   -1.6860   -2.0850    1.1196 C   0  0  0  0  0  0  0  0  0  0  0  0
   -0.7540   -2.7700    1.5226 O   0  0  0  0  0  0  0  0  0  0  0  0
   -1.5320   -0.8490    0.6496 N   0  0  0  0  0  0  0  0  0  0  0  0
   -2.3500   -0.3360    0.3566 H   0  0  0  0  0  0  0  0  0  0  0  0
   -0.2470   -0.1410    0.5576 C   0  0  1  0  0  0  0  0  0  0  0  0
    0.4572   -0.6505    1.2162 H   0  0  0  0  0  0  0  0  0  0  0  0
    0.3091   -0.2220   -0.8868 C   0  0  1  0  0  0  0  0  0  0  0  0
    1.2300    0.3640   -0.9103 H   0  0  0  0  0  0  0  0  0  0  0  0
    0.6601   -1.6635   -1.3022 C   0  0  0  0  0  0  0  0  0  0  0  0
   -0.2418   -2.2745   -1.3679 H   0  0  0  0  0  0  0  0  0  0  0  0
    1.1632   -1.6670   -2.2679 H   0  0  0  0  0  0  0  0  0  0  0  0
    1.3362   -2.1115   -0.5731 H   0  0  0  0  0  0  0  0  0  0  0  0
   -0.6706    0.4198   -1.8947 C   0  0  0  0  0  0  0  0  0  0  0  0
   -1.0071    1.3881   -1.5216 H   0  0  0  0  0  0  0  0  0  0  0  0
   -0.1486    0.5794   -2.8381 H   0  0  0  0  0  0  0  0  0  0  0  0
   -1.9028   -0.4448   -2.1939 C   0  0  0  0  0  0  0  0  0  0  0  0
   -2.5224   -0.5485   -1.3033 H   0  0  0  0  0  0  0  0  0  0  0  0
   -2.4955    0.0321   -2.9749 H   0  0  0  0  0  0  0  0  0  0  0  0
   -1.5914   -1.4316   -2.5382 H   0  0  0  0  0  0  0  0  0  0  0  0
   -0.3971    1.3008    1.0689 C   0  0  0  0  0  0  0  0  0  0  0  0
   -1.3643    1.9819    0.7311 O   0  0  0  0  0  0  0  0  0  0  0  0
    0.5522    1.7647    1.8915 N   0  0  0  0  0  0  0  0  0  0  0  0
    1.3093    1.1450    2.1332 H   0  0  0  0  0  0  0  0  0  0  0  0
    0.5577    3.1119    2.4582 C   0  0  0  0  0  0  0  0  0  0  0  0
   -0.3986    3.3098    2.9475 H   0  0  0  0  0  0  0  0  0  0  0  0
    1.3619    3.2123    3.1886 H   0  0  0  0  0  0  0  0  0  0  0  0
    0.6974    3.8450    1.6614 H   0  0  0  0  0  0  0  0  0  0  0  0
  5  6  2  0  0  0  0
  5  7  1  0  0  0  0
  2  3  1  0  0  0  0
  2  4  1  0  0  0  0
  2  5  1  0  0  0  0
  1  2  1  0  0  0  0
 24 25  2  0  0  0  0
 24 26  1  0  0  0  0
 20 21  1  0  0  0  0
 20 22  1  0  0  0  0
 20 23  1  0  0  0  0
 17 18  1  0  0  0  0
 17 19  1  0  0  0  0
 17 20  1  0  0  0  0
 13 14  1  0  0  0  0
 13 15  1  0  0  0  0
 13 16  1  0  0  0  0
 11 12  1  0  0  0  0
 11 13  1  0  0  0  0
 11 17  1  0  0  0  0
  9 10  1  0  0  0  0
  9 11  1  0  0  0  0
  9 24  1  0  0  0  0
  7  8  1  0  0  0  0
  7  9  1  0  0  0  0
 28 29  1  0  0  0  0
 28 30  1  0  0  0  0
 28 31  1  0  0  0  0
 26 27  1  0  0  0  0
 26 28  1  0  0  0  0
M  END
$$$$
default_name
  -OEChem-02102213163D

 31 30  0     1  0  0  0  0  0999 V2000
   -3.0760   -3.6390    1.5496 H   0  0  0  0  0  0  0  0  0  0  0  0
   -3.0940   -2.6290    1.1426 C   0  0  0  0  0  0  0  0  0  0  0  0
   -3.7160   -1.9930    1.7706 H   0  0  0  0  0  0  0  0  0  0  0  0
   -3.4880   -2.6500    0.1286 H   0  0  0  0  0  0  0  0  0  0  0  0
   -1.6860   -2.0850    1.1196 C   0  0  0  0  0  0  0  0  0  0  0  0
   -0.7540   -2.7700    1.5226 O   0  0  0  0  0  0  0  0  0  0  0  0
   -1.5320   -0.8490    0.6496 N   0  0  0  0  0  0  0  0  0  0  0  0
   -2.3500   -0.3360    0.3566 H   0  0  0  0  0  0  0  0  0  0  0  0
   -0.2470   -0.1410    0.5576 C   0  0  1  0  0  0  0  0  0  0  0  0
    0.4572   -0.6505    1.2162 H   0  0  0  0  0  0  0  0  0  0  0  0
    0.3091   -0.2220   -0.8868 C   0  0  1  0  0  0  0  0  0  0  0  0
    1.2300    0.3640   -0.9103 H   0  0  0  0  0  0  0  0  0  0  0  0
    0.6601   -1.6635   -1.3022 C   0  0  0  0  0  0  0  0  0  0  0  0
   -0.2418   -2.2745   -1.3679 H   0  0  0  0  0  0  0  0  0  0  0  0
    1.1632   -1.6670   -2.2679 H   0  0  0  0  0  0  0  0  0  0  0  0
    1.3362   -2.1115   -0.5731 H   0  0  0  0  0  0  0  0  0  0  0  0
   -0.6706    0.4198   -1.8947 C   0  0  0  0  0  0  0  0  0  0  0  0
   -0.8001    1.4784   -1.6653 H   0  0  0  0  0  0  0  0  0  0  0  0
   -0.2485    0.3360   -2.8960 H   0  0  0  0  0  0  0  0  0  0  0  0
   -2.0523   -0.2477   -1.9231 C   0  0  0  0  0  0  0  0  0  0  0  0
   -2.5675   -0.1004   -0.9741 H   0  0  0  0  0  0  0  0  0  0  0  0
   -2.6516    0.2002   -2.7161 H   0  0  0  0  0  0  0  0  0  0  0  0
   -1.9468   -1.3153   -2.1187 H   0  0  0  0  0  0  0  0  0  0  0  0
   -0.3971    1.3008    1.0689 C   0  0  0  0  0  0  0  0  0  0  0  0
   -1.3643    1.9819    0.7311 O   0  0  0  0  0  0  0  0  0  0  0  0
    0.5522    1.7647    1.8915 N   0  0  0  0  0  0  0  0  0  0  0  0
    1.3093    1.1450    2.1332 H   0  0  0  0  0  0  0  0  0  0  0  0
    0.5577    3.1119    2.4582 C   0  0  0  0  0  0  0  0  0  0  0  0
   -0.3986    3.3098    2.9475 H   0  0  0  0  0  0  0  0  0  0  0  0
    1.3619    3.2123    3.1886 H   0  0  0  0  0  0  0  0  0  0  0  0
    0.6974    3.8450    1.6614 H   0  0  0  0  0  0  0  0  0  0  0  0
  5  6  2  0  0  0  0
  5  7  1  0  0  0  0
  2  3  1  0  0  0  0
  2  4  1  0  0  0  0
  2  5  1  0  0  0  0
  1  2  1  0  0  0  0
 24 25  2  0  0  0  0
 24 26  1  0  0  0  0
 20 21  1  0  0  0  0
 20 22  1  0  0  0  0
 20 23  1  0  0  0  0
 17 18  1  0  0  0  0
 17 19  1  0  0  0  0
 17 20  1  0  0  0  0
 13 14  1  0  0  0  0
 13 15  1  0  0  0  0
 13 16  1  0  0  0  0
 11 12  1  0  0  0  0
 11 13  1  0  0  0  0
 11 17  1  0  0  0  0
  9 10  1  0  0  0  0
  9 11  1  0  0  0  0
  9 24  1  0  0  0  0
  7  8  1  0  0  0  0
  7  9  1  0  0  0  0
 28 29  1  0  0  0  0
 28 30  1  0  0  0  0
 28 31  1  0  0  0  0
 26 27  1  0  0  0  0
 26 28  1  0  0  0  0
M  END
$$$$
default_name
  -OEChem-02102213163D

 31 30  0     1  0  0  0  0  0999 V2000
   -3.0760   -3.6390    1.5496 H   0  0  0  0  0  0  0  0  0  0  0  0
   -3.0940   -2.6290    1.1426 C   0  0  0  0  0  0  0  0  0  0  0  0
   -3.7160   -1.9930    1.7706 H   0  0  0  0  0  0  0  0  0  0  0  0
   -3.4880   -2.6500    0.1286 H   0  0  0  0  0  0  0  0  0  0  0  0
   -1.6860   -2.0850    1.1196 C   0  0  0  0  0  0  0  0  0  0  0  0
   -0.7540   -2.7700    1.5226 O   0  0  0  0  0  0  0  0  0  0  0  0
   -1.5320   -0.8490    0.6496 N   0  0  0  0  0  0  0  0  0  0  0  0
   -2.3500   -0.3360    0.3566 H   0  0  0  0  0  0  0  0  0  0  0  0
   -0.2470   -0.1410    0.5576 C   0  0  1  0  0  0  0  0  0  0  0  0
    0.4572   -0.6505    1.2162 H   0  0  0  0  0  0  0  0  0  0  0  0
    0.3091   -0.2220   -0.8868 C   0  0  1  0  0  0  0  0  0  0  0  0
    1.2300    0.3640   -0.9103 H   0  0  0  0  0  0  0  0  0  0  0  0
    0.6601   -1.6635   -1.3022 C   0  0  0  0  0  0  0  0  0  0  0  0
   -0.2418   -2.2745   -1.3679 H   0  0  0  0  0  0  0  0  0  0  0  0
    1.1632   -1.6670   -2.2679 H   0  0  0  0  0  0  0  0  0  0  0  0
    1.3362   -2.1115   -0.5731 H   0  0  0  0  0  0  0  0  0  0  0  0
   -0.6706    0.4198   -1.8947 C   0  0  0  0  0  0  0  0  0  0  0  0
   -0.6004    1.5071   -1.8412 H   0  0  0  0  0  0  0  0  0  0  0  0
   -0.3922    0.1082   -2.9013 H   0  0  0  0  0  0  0  0  0  0  0  0
   -2.1343    0.0124   -1.6777 C   0  0  0  0  0  0  0  0  0  0  0  0
   -2.5001    0.3941   -0.7247 H   0  0  0  0  0  0  0  0  0  0  0  0
   -2.7462    0.4313   -2.4768 H   0  0  0  0  0  0  0  0  0  0  0  0
   -2.2254   -1.0742   -1.6943 H   0  0  0  0  0  0  0  0  0  0  0  0
   -0.3971    1.3008    1.0689 C   0  0  0  0  0  0  0  0  0  0  0  0
   -1.3643    1.9819    0.7311 O   0  0  0  0  0  0  0  0  0  0  0  0
    0.5522    1.7647    1.8915 N   0  0  0  0  0  0  0  0  0  0  0  0
    1.3093    1.1450    2.1332 H   0  0  0  0  0  0  0  0  0  0  0  0
    0.5577    3.1119    2.4582 C   0  0  0  0  0  0  0  0  0  0  0  0
   -0.3986    3.3098    2.9475 H   0  0  0  0  0  0  0  0  0  0  0  0
    1.3619    3.2123    3.1886 H   0  0  0  0  0  0  0  0  0  0  0  0
    0.6974    3.8450    1.6614 H   0  0  0  0  0  0  0  0  0  0  0  0
  5  6  2  0  0  0  0
  5  7  1  0  0  0  0
  2  3  1  0  0  0  0
  2  4  1  0  0  0  0
  2  5  1  0  0  0  0
  1  2  1  0  0  0  0
 24 25  2  0  0  0  0
 24 26  1  0  0  0  0
 20 21  1  0  0  0  0
 20 22  1  0  0  0  0
 20 23  1  0  0  0  0
 17 18  1  0  0  0  0
 17 19  1  0  0  0  0
 17 20  1  0  0  0  0
 13 14  1  0  0  0  0
 13 15  1  0  0  0  0
 13 16  1  0  0  0  0
 11 12  1  0  0  0  0
 11 13  1  0  0  0  0
 11 17  1  0  0  0  0
  9 10  1  0  0  0  0
  9 11  1  0  0  0  0
  9 24  1  0  0  0  0
  7  8  1  0  0  0  0
  7  9  1  0  0  0  0
 28 29  1  0  0  0  0
 28 30  1  0  0  0  0
 28 31  1  0  0  0  0
 26 27  1  0  0  0  0
 26 28  1  0  0  0  0
M  END
$$$$
default_name
  -OEChem-02102213163D

 31 30  0     1  0  0  0  0  0999 V2000
   -3.0760   -3.6390    1.5496 H   0  0  0  0  0  0  0  0  0  0  0  0
   -3.0940   -2.6290    1.1426 C   0  0  0  0  0  0  0  0  0  0  0  0
   -3.7160   -1.9930    1.7706 H   0  0  0  0  0  0  0  0  0  0  0  0
   -3.4880   -2.6500    0.1286 H   0  0  0  0  0  0  0  0  0  0  0  0
   -1.6860   -2.0850    1.1196 C   0  0  0  0  0  0  0  0  0  0  0  0
   -0.7540   -2.7700    1.5226 O   0  0  0  0  0  0  0  0  0  0  0  0
   -1.5320   -0.8490    0.6496 N   0  0  0  0  0  0  0  0  0  0  0  0
   -2.3500   -0.3360    0.3566 H   0  0  0  0  0  0  0  0  0  0  0  0
   -0.2470   -0.1410    0.5576 C   0  0  1  0  0  0  0  0  0  0  0  0
    0.4572   -0.6505    1.2162 H   0  0  0  0  0  0  0  0  0  0  0  0
    0.3091   -0.2220   -0.8868 C   0  0  1  0  0  0  0  0  0  0  0  0
    1.2300    0.3640   -0.9103 H   0  0  0  0  0  0  0  0  0  0  0  0
    0.6601   -1.6635   -1.3022 C   0  0  0  0  0  0  0  0  0  0  0  0
   -0.2418   -2.2745   -1.3679 H   0  0  0  0  0  0  0  0  0  0  0  0
    1.1632   -1.6670   -2.2679 H   0  0  0  0  0  0  0  0  0  0  0  0
    1.3362   -2.1115   -0.5731 H   0  0  0  0  0  0  0  0  0  0  0  0
   -0.6706    0.4198   -1.8947 C   0  0  0  0  0  0  0  0  0  0  0  0
   -0.4215    1.4722   -2.0372 H   0  0  0  0  0  0  0  0  0  0  0  0
   -0.5701   -0.0884   -2.8536 H   0  0  0  0  0  0  0  0  0  0  0  0
   -2.1432    0.3177   -1.4746 C   0  0  0  0  0  0  0  0  0  0  0  0
   -2.3247    0.9013   -0.5723 H   0  0  0  0  0  0  0  0  0  0  0  0
   -2.7729    0.7098   -2.2736 H   0  0  0  0  0  0  0  0  0  0  0  0
   -2.4082   -0.7246   -1.2940 H   0  0  0  0  0  0  0  0  0  0  0  0
   -0.3971    1.3008    1.0689 C   0  0  0  0  0  0  0  0  0  0  0  0
   -1.3643    1.9819    0.7311 O   0  0  0  0  0  0  0  0  0  0  0  0
    0.5522    1.7647    1.8915 N   0  0  0  0  0  0  0  0  0  0  0  0
    1.3093    1.1450    2.1332 H   0  0  0  0  0  0  0  0  0  0  0  0
    0.5577    3.1119    2.4582 C   0  0  0  0  0  0  0  0  0  0  0  0
   -0.3986    3.3098    2.9475 H   0  0  0  0  0  0  0  0  0  0  0  0
    1.3619    3.2123    3.1886 H   0  0  0  0  0  0  0  0  0  0  0  0
    0.6974    3.8450    1.6614 H   0  0  0  0  0  0  0  0  0  0  0  0
  5  6  2  0  0  0  0
  5  7  1  0  0  0  0
  2  3  1  0  0  0  0
  2  4  1  0  0  0  0
  2  5  1  0  0  0  0
  1  2  1  0  0  0  0
 24 25  2  0  0  0  0
 24 26  1  0  0  0  0
 20 21  1  0  0  0  0
 20 22  1  0  0  0  0
 20 23  1  0  0  0  0
 17 18  1  0  0  0  0
 17 19  1  0  0  0  0
 17 20  1  0  0  0  0
 13 14  1  0  0  0  0
 13 15  1  0  0  0  0
 13 16  1  0  0  0  0
 11 12  1  0  0  0  0
 11 13  1  0  0  0  0
 11 17  1  0  0  0  0
  9 10  1  0  0  0  0
  9 11  1  0  0  0  0
  9 24  1  0  0  0  0
  7  8  1  0  0  0  0
  7  9  1  0  0  0  0
 28 29  1  0  0  0  0
 28 30  1  0  0  0  0
 28 31  1  0  0  0  0
 26 27  1  0  0  0  0
 26 28  1  0  0  0  0
M  END
$$$$
default_name
  -OEChem-02102213163D

 31 30  0     1  0  0  0  0  0999 V2000
   -3.0760   -3.6390    1.5496 H   0  0  0  0  0  0  0  0  0  0  0  0
   -3.0940   -2.6290    1.1426 C   0  0  0  0  0  0  0  0  0  0  0  0
   -3.7160   -1.9930    1.7706 H   0  0  0  0  0  0  0  0  0  0  0  0
   -3.4880   -2.6500    0.1286 H   0  0  0  0  0  0  0  0  0  0  0  0
   -1.6860   -2.0850    1.1196 C   0  0  0  0  0  0  0  0  0  0  0  0
   -0.7540   -2.7700    1.5226 O   0  0  0  0  0  0  0  0  0  0  0  0
   -1.5320   -0.8490    0.6496 N   0  0  0  0  0  0  0  0  0  0  0  0
   -2.3500   -0.3360    0.3566 H   0  0  0  0  0  0  0  0  0  0  0  0
   -0.2470   -0.1410    0.5576 C   0  0  1  0  0  0  0  0  0  0  0  0
    0.4572   -0.6505    1.2162 H   0  0  0  0  0  0  0  0  0  0  0  0
    0.3091   -0.2220   -0.8868 C   0  0  1  0  0  0  0  0  0  0  0  0
    1.2300    0.3640   -0.9103 H   0  0  0  0  0  0  0  0  0  0  0  0
    0.6601   -1.6635   -1.3022 C   0  0  0  0  0  0  0  0  0  0  0  0
   -0.2418   -2.2745   -1.3679 H   0  0  0  0  0  0  0  0  0  0  0  0
    1.1632   -1.6670   -2.2679 H   0  0  0  0  0  0  0  0  0  0  0  0
    1.3362   -2.1115   -0.5731 H   0  0  0  0  0  0  0  0  0  0  0  0
   -0.6706    0.4198   -1.8947 C   0  0  0  0  0  0  0  0  0  0  0  0
   -0.2757    1.3761   -2.2402 H   0  0  0  0  0  0  0  0  0  0  0  0
   -0.7700   -0.2405   -2.7561 H   0  0  0  0  0  0  0  0  0  0  0  0
   -2.0784    0.6474   -1.3276 C   0  0  0  0  0  0  0  0  0  0  0  0
   -2.0532    1.3866   -0.5271 H   0  0  0  0  0  0  0  0  0  0  0  0
   -2.7298    1.0167   -2.1200 H   0  0  0  0  0  0  0  0  0  0  0  0
   -2.4827   -0.2904   -0.9451 H   0  0  0  0  0  0  0  0  0  0  0  0
   -0.3971    1.3008    1.0689 C   0  0  0  0  0  0  0  0  0  0  0  0
   -1.3643    1.9819    0.7311 O   0  0  0  0  0  0  0  0  0  0  0  0
    0.5522    1.7647    1.8915 N   0  0  0  0  0  0  0  0  0  0  0  0
    1.3093    1.1450    2.1332 H   0  0  0  0  0  0  0  0  0  0  0  0
    0.5577    3.1119    2.4582 C   0  0  0  0  0  0  0  0  0  0  0  0
   -0.3986    3.3098    2.9475 H   0  0  0  0  0  0  0  0  0  0  0  0
    1.3619    3.2123    3.1886 H   0  0  0  0  0  0  0  0  0  0  0  0
    0.6974    3.8450    1.6614 H   0  0  0  0  0  0  0  0  0  0  0  0
  5  6  2  0  0  0  0
  5  7  1  0  0  0  0
  2  3  1  0  0  0  0
  2  4  1  0  0  0  0
  2  5  1  0  0  0  0
  1  2  1  0  0  0  0
 24 25  2  0  0  0  0
 24 26  1  0  0  0  0
 20 21  1  0  0  0  0
 20 22  1  0  0  0  0
 20 23  1  0  0  0  0
 17 18  1  0  0  0  0
 17 19  1  0  0  0  0
 17 20  1  0  0  0  0
 13 14  1  0  0  0  0
 13 15  1  0  0  0  0
 13 16  1  0  0  0  0
 11 12  1  0  0  0  0
 11 13  1  0  0  0  0
 11 17  1  0  0  0  0
  9 10  1  0  0  0  0
  9 11  1  0  0  0  0
  9 24  1  0  0  0  0
  7  8  1  0  0  0  0
  7  9  1  0  0  0  0
 28 29  1  0  0  0  0
 28 30  1  0  0  0  0
 28 31  1  0  0  0  0
 26 27  1  0  0  0  0
 26 28  1  0  0  0  0
M  END
$$$$
default_name
  -OEChem-02102213163D

 31 30  0     1  0  0  0  0  0999 V2000
   -3.0760   -3.6390    1.5496 H   0  0  0  0  0  0  0  0  0  0  0  0
   -3.0940   -2.6290    1.1426 C   0  0  0  0  0  0  0  0  0  0  0  0
   -3.7160   -1.9930    1.7706 H   0  0  0  0  0  0  0  0  0  0  0  0
   -3.4880   -2.6500    0.1286 H   0  0  0  0  0  0  0  0  0  0  0  0
   -1.6860   -2.0850    1.1196 C   0  0  0  0  0  0  0  0  0  0  0  0
   -0.7540   -2.7700    1.5226 O   0  0  0  0  0  0  0  0  0  0  0  0
   -1.5320   -0.8490    0.6496 N   0  0  0  0  0  0  0  0  0  0  0  0
   -2.3500   -0.3360    0.3566 H   0  0  0  0  0  0  0  0  0  0  0  0
   -0.2470   -0.1410    0.5576 C   0  0  1  0  0  0  0  0  0  0  0  0
    0.4572   -0.6505    1.2162 H   0  0  0  0  0  0  0  0  0  0  0  0
    0.3091   -0.2220   -0.8868 C   0  0  1  0  0  0  0  0  0  0  0  0
    1.2300    0.3640   -0.9103 H   0  0  0  0  0  0  0  0  0  0  0  0
    0.6601   -1.6635   -1.3022 C   0  0  0  0  0  0  0  0  0  0  0  0
   -0.2418   -2.2745   -1.3679 H   0  0  0  0  0  0  0  0  0  0  0  0
    1.1632   -1.6670   -2.2679 H   0  0  0  0  0  0  0  0  0  0  0  0
    1.3362   -2.1115   -0.5731 H   0  0  0  0  0  0  0  0  0  0  0  0
   -0.6706    0.4198   -1.8947 C   0  0  0  0  0  0  0  0  0  0  0  0
   -0.1729    1.2255   -2.4360 H   0  0  0  0  0  0  0  0  0  0  0  0
   -0.9783   -0.3376   -2.6155 H   0  0  0  0  0  0  0  0  0  0  0  0
   -1.9444    0.9791   -1.2466 C   0  0  0  0  0  0  0  0  0  0  0  0
   -1.7043    1.8169   -0.5923 H   0  0  0  0  0  0  0  0  0  0  0  0
   -2.6198    1.3311   -2.0267 H   0  0  0  0  0  0  0  0  0  0  0  0
   -2.4438    0.1988   -0.6713 H   0  0  0  0  0  0  0  0  0  0  0  0
   -0.3971    1.3008    1.0689 C   0  0  0  0  0  0  0  0  0  0  0  0
   -1.3643    1.9819    0.7311 O   0  0  0  0  0  0  0  0  0  0  0  0
    0.5522    1.7647    1.8915 N   0  0  0  0  0  0  0  0  0  0  0  0
    1.3093    1.1450    2.1332 H   0  0  0  0  0  0  0  0  0  0  0  0
    0.5577    3.1119    2.4582 C   0  0  0  0  0  0  0  0  0  0  0  0
   -0.3986    3.3098    2.9475 H   0  0  0  0  0  0  0  0  0  0  0  0
    1.3619    3.2123    3.1886 H   0  0  0  0  0  0  0  0  0  0  0  0
    0.6974    3.8450    1.6614 H   0  0  0  0  0  0  0  0  0  0  0  0
  5  6  2  0  0  0  0
  5  7  1  0  0  0  0
  2  3  1  0  0  0  0
  2  4  1  0  0  0  0
  2  5  1  0  0  0  0
  1  2  1  0  0  0  0
 24 25  2  0  0  0  0
 24 26  1  0  0  0  0
 20 21  1  0  0  0  0
 20 22  1  0  0  0  0
 20 23  1  0  0  0  0
 17 18  1  0  0  0  0
 17 19  1  0  0  0  0
 17 20  1  0  0  0  0
 13 14  1  0  0  0  0
 13 15  1  0  0  0  0
 13 16  1  0  0  0  0
 11 12  1  0  0  0  0
 11 13  1  0  0  0  0
 11 17  1  0  0  0  0
  9 10  1  0  0  0  0
  9 11  1  0  0  0  0
  9 24  1  0  0  0  0
  7  8  1  0  0  0  0
  7  9  1  0  0  0  0
 28 29  1  0  0  0  0
 28 30  1  0  0  0  0
 28 31  1  0  0  0  0
 26 27  1  0  0  0  0
 26 28  1  0  0  0  0
M  END
$$$$
default_name
  -OEChem-02102213163D

 31 30  0     1  0  0  0  0  0999 V2000
   -3.0760   -3.6390    1.5496 H   0  0  0  0  0  0  0  0  0  0  0  0
   -3.0940   -2.6290    1.1426 C   0  0  0  0  0  0  0  0  0  0  0  0
   -3.7160   -1.9930    1.7706 H   0  0  0  0  0  0  0  0  0  0  0  0
   -3.4880   -2.6500    0.1286 H   0  0  0  0  0  0  0  0  0  0  0  0
   -1.6860   -2.0850    1.1196 C   0  0  0  0  0  0  0  0  0  0  0  0
   -0.7540   -2.7700    1.5226 O   0  0  0  0  0  0  0  0  0  0  0  0
   -1.5320   -0.8490    0.6496 N   0  0  0  0  0  0  0  0  0  0  0  0
   -2.3500   -0.3360    0.3566 H   0  0  0  0  0  0  0  0  0  0  0  0
   -0.2470   -0.1410    0.5576 C   0  0  1  0  0  0  0  0  0  0  0  0
    0.4572   -0.6505    1.2162 H   0  0  0  0  0  0  0  0  0  0  0  0
    0.3091   -0.2220   -0.8868 C   0  0  1  0  0  0  0  0  0  0  0  0
    1.2300    0.3640   -0.9103 H   0  0  0  0  0  0  0  0  0  0  0  0
    0.6601   -1.6635   -1.3022 C   0  0  0  0  0  0  0  0  0  0  0  0
   -0.2418   -2.2745   -1.3679 H   0  0  0  0  0  0  0  0  0  0  0  0
    1.1632   -1.6670   -2.2679 H   0  0  0  0  0  0  0  0  0  0  0  0
    1.3362   -2.1115   -0.5731 H   0  0  0  0  0  0  0  0  0  0  0  0
   -0.6706    0.4198   -1.8947 C   0  0  0  0  0  0  0  0  0  0  0  0
   -0.1201    1.0304   -2.6116 H   0  0  0  0  0  0  0  0  0  0  0  0
   -1.1807   -0.3732   -2.4414 H   0  0  0  0  0  0  0  0  0  0  0  0
   -1.7503    1.2902   -1.2373 C   0  0  0  0  0  0  0  0  0  0  0  0
   -1.3015    2.1630   -0.7634 H   0  0  0  0  0  0  0  0  0  0  0  0
   -2.4505    1.6315   -2.0000 H   0  0  0  0  0  0  0  0  0  0  0  0
   -2.2942    0.7098   -0.4913 H   0  0  0  0  0  0  0  0  0  0  0  0
   -0.3971    1.3008    1.0689 C   0  0  0  0  0  0  0  0  0  0  0  0
   -1.3643    1.9819    0.7311 O   0  0  0  0  0  0  0  0  0  0  0  0
    0.5522    1.7647    1.8915 N   0  0  0  0  0  0  0  0  0  0  0  0
    1.3093    1.1450    2.1332 H   0  0  0  0  0  0  0  0  0  0  0  0
    0.5577    3.1119    2.4582 C   0  0  0  0  0  0  0  0  0  0  0  0
   -0.3986    3.3098    2.9475 H   0  0  0  0  0  0  0  0  0  0  0  0
    1.3619    3.2123    3.1886 H   0  0  0  0  0  0  0  0  0  0  0  0
    0.6974    3.8450    1.6614 H   0  0  0  0  0  0  0  0  0  0  0  0
  5  6  2  0  0  0  0
  5  7  1  0  0  0  0
  2  3  1  0  0  0  0
  2  4  1  0  0  0  0
  2  5  1  0  0  0  0
  1  2  1  0  0  0  0
 24 25  2  0  0  0  0
 24 26  1  0  0  0  0
 20 21  1  0  0  0  0
 20 22  1  0  0  0  0
 20 23  1  0  0  0  0
 17 18  1  0  0  0  0
 17 19  1  0  0  0  0
 17 20  1  0  0  0  0
 13 14  1  0  0  0  0
 13 15  1  0  0  0  0
 13 16  1  0  0  0  0
 11 12  1  0  0  0  0
 11 13  1  0  0  0  0
 11 17  1  0  0  0  0
  9 10  1  0  0  0  0
  9 11  1  0  0  0  0
  9 24  1  0  0  0  0
  7  8  1  0  0  0  0
  7  9  1  0  0  0  0
 28 29  1  0  0  0  0
 28 30  1  0  0  0  0
 28 31  1  0  0  0  0
 26 27  1  0  0  0  0
 26 28  1  0  0  0  0
M  END
$$$$
default_name
  -OEChem-02102213163D

 31 30  0     1  0  0  0  0  0999 V2000
   -3.0760   -3.6390    1.5496 H   0  0  0  0  0  0  0  0  0  0  0  0
   -3.0940   -2.6290    1.1426 C   0  0  0  0  0  0  0  0  0  0  0  0
   -3.7160   -1.9930    1.7706 H   0  0  0  0  0  0  0  0  0  0  0  0
   -3.4880   -2.6500    0.1286 H   0  0  0  0  0  0  0  0  0  0  0  0
   -1.6860   -2.0850    1.1196 C   0  0  0  0  0  0  0  0  0  0  0  0
   -0.7540   -2.7700    1.5226 O   0  0  0  0  0  0  0  0  0  0  0  0
   -1.5320   -0.8490    0.6496 N   0  0  0  0  0  0  0  0  0  0  0  0
   -2.3500   -0.3360    0.3566 H   0  0  0  0  0  0  0  0  0  0  0  0
   -0.2470   -0.1410    0.5576 C   0  0  1  0  0  0  0  0  0  0  0  0
    0.4572   -0.6505    1.2162 H   0  0  0  0  0  0  0  0  0  0  0  0
    0.3091   -0.2220   -0.8868 C   0  0  1  0  0  0  0  0  0  0  0  0
    1.2300    0.3640   -0.9103 H   0  0  0  0  0  0  0  0  0  0  0  0
    0.6601   -1.6635   -1.3022 C   0  0  0  0  0  0  0  0  0  0  0  0
   -0.2418   -2.2745   -1.3679 H   0  0  0  0  0  0  0  0  0  0  0  0
    1.1632   -1.6670   -2.2679 H   0  0  0  0  0  0  0  0  0  0  0  0
    1.3362   -2.1115   -0.5731 H   0  0  0  0  0  0  0  0  0  0  0  0
   -0.6706    0.4198   -1.8947 C   0  0  0  0  0  0  0  0  0  0  0  0
   -0.1209    0.8043   -2.7548 H   0  0  0  0  0  0  0  0  0  0  0  0
   -1.3636   -0.3448   -2.2456 H   0  0  0  0  0  0  0  0  0  0  0  0
   -1.5092    1.5594   -1.3002 C   0  0  0  0  0  0  0  0  0  0  0  0
   -0.8725    2.4012   -1.0288 H   0  0  0  0  0  0  0  0  0  0  0  0
   -2.2334    1.8974   -2.0417 H   0  0  0  0  0  0  0  0  0  0  0  0
   -2.0442    1.2076   -0.4174 H   0  0  0  0  0  0  0  0  0  0  0  0
   -0.3971    1.3008    1.0689 C   0  0  0  0  0  0  0  0  0  0  0  0
   -1.3643    1.9819    0.7311 O   0  0  0  0  0  0  0  0  0  0  0  0
    0.5522    1.7647    1.8915 N   0  0  0  0  0  0  0  0  0  0  0  0
    1.3093    1.1450    2.1332 H   0  0  0  0  0  0  0  0  0  0  0  0
    0.5577    3.1119    2.4582 C   0  0  0  0  0  0  0  0  0  0  0  0
   -0.3986    3.3098    2.9475 H   0  0  0  0  0  0  0  0  0  0  0  0
    1.3619    3.2123    3.1886 H   0  0  0  0  0  0  0  0  0  0  0  0
    0.6974    3.8450    1.6614 H   0  0  0  0  0  0  0  0  0  0  0  0
  5  6  2  0  0  0  0
  5  7  1  0  0  0  0
  2  3  1  0  0  0  0
  2  4  1  0  0  0  0
  2  5  1  0  0  0  0
  1  2  1  0  0  0  0
 24 25  2  0  0  0  0
 24 26  1  0  0  0  0
 20 21  1  0  0  0  0
 20 22  1  0  0  0  0
 20 23  1  0  0  0  0
 17 18  1  0  0  0  0
 17 19  1  0  0  0  0
 17 20  1  0  0  0  0
 13 14  1  0  0  0  0
 13 15  1  0  0  0  0
 13 16  1  0  0  0  0
 11 12  1  0  0  0  0
 11 13  1  0  0  0  0
 11 17  1  0  0  0  0
  9 10  1  0  0  0  0
  9 11  1  0  0  0  0
  9 24  1  0  0  0  0
  7  8  1  0  0  0  0
  7  9  1  0  0  0  0
 28 29  1  0  0  0  0
 28 30  1  0  0  0  0
 28 31  1  0  0  0  0
 26 27  1  0  0  0  0
 26 28  1  0  0  0  0
M  END
$$$$
default_name
  -OEChem-02102213163D

 31 30  0     1  0  0  0  0  0999 V2000
   -3.0760   -3.6390    1.5496 H   0  0  0  0  0  0  0  0  0  0  0  0
   -3.0940   -2.6290    1.1426 C   0  0  0  0  0  0  0  0  0  0  0  0
   -3.7160   -1.9930    1.7706 H   0  0  0  0  0  0  0  0  0  0  0  0
   -3.4880   -2.6500    0.1286 H   0  0  0  0  0  0  0  0  0  0  0  0
   -1.6860   -2.0850    1.1196 C   0  0  0  0  0  0  0  0  0  0  0  0
   -0.7540   -2.7700    1.5226 O   0  0  0  0  0  0  0  0  0  0  0  0
   -1.5320   -0.8490    0.6496 N   0  0  0  0  0  0  0  0  0  0  0  0
   -2.3500   -0.3360    0.3566 H   0  0  0  0  0  0  0  0  0  0  0  0
   -0.2470   -0.1410    0.5576 C   0  0  1  0  0  0  0  0  0  0  0  0
    0.4572   -0.6505    1.2162 H   0  0  0  0  0  0  0  0  0  0  0  0
    0.3091   -0.2220   -0.8868 C   0  0  1  0  0  0  0  0  0  0  0  0
    1.2300    0.3640   -0.9103 H   0  0  0  0  0  0  0  0  0  0  0  0
    0.6601   -1.6635   -1.3022 C   0  0  0  0  0  0  0  0  0  0  0  0
   -0.2418   -2.2745   -1.3679 H   0  0  0  0  0  0  0  0  0  0  0  0
    1.1632   -1.6670   -2.2679 H   0  0  0  0  0  0  0  0  0  0  0  0
    1.3362   -2.1115   -0.5731 H   0  0  0  0  0  0  0  0  0  0  0  0
   -0.6706    0.4198   -1.8947 C   0  0  0  0  0  0  0  0  0  0  0  0
   -0.1753    0.5625   -2.8560 H   0  0  0  0  0  0  0  0  0  0  0  0
   -1.5143   -0.2544   -2.0414 H   0  0  0  0  0  0  0  0  0  0  0  0
   -1.2377    1.7684   -1.4310 C   0  0  0  0  0  0  0  0  0  0  0  0
   -0.4464    2.5154   -1.3704 H   0  0  0  0  0  0  0  0  0  0  0  0
   -1.9833    2.1108   -2.1490 H   0  0  0  0  0  0  0  0  0  0  0  0
   -1.7106    1.6584   -0.4545 H   0  0  0  0  0  0  0  0  0  0  0  0
   -0.3971    1.3008    1.0689 C   0  0  0  0  0  0  0  0  0  0  0  0
   -1.3643    1.9819    0.7311 O   0  0  0  0  0  0  0  0  0  0  0  0
    0.5522    1.7647    1.8915 N   0  0  0  0  0  0  0  0  0  0  0  0
    1.3093    1.1450    2.1332 H   0  0  0  0  0  0  0  0  0  0  0  0
    0.5577    3.1119    2.4582 C   0  0  0  0  0  0  0  0  0  0  0  0
   -0.3986    3.3098    2.9475 H   0  0  0  0  0  0  0  0  0  0  0  0
    1.3619    3.2123    3.1886 H   0  0  0  0  0  0  0  0  0  0  0  0
    0.6974    3.8450    1.6614 H   0  0  0  0  0  0  0  0  0  0  0  0
  5  6  2  0  0  0  0
  5  7  1  0  0  0  0
  2  3  1  0  0  0  0
  2  4  1  0  0  0  0
  2  5  1  0  0  0  0
  1  2  1  0  0  0  0
 24 25  2  0  0  0  0
 24 26  1  0  0  0  0
 20 21  1  0  0  0  0
 20 22  1  0  0  0  0
 20 23  1  0  0  0  0
 17 18  1  0  0  0  0
 17 19  1  0  0  0  0
 17 20  1  0  0  0  0
 13 14  1  0  0  0  0
 13 15  1  0  0  0  0
 13 16  1  0  0  0  0
 11 12  1  0  0  0  0
 11 13  1  0  0  0  0
 11 17  1  0  0  0  0
  9 10  1  0  0  0  0
  9 11  1  0  0  0  0
  9 24  1  0  0  0  0
  7  8  1  0  0  0  0
  7  9  1  0  0  0  0
 28 29  1  0  0  0  0
 28 30  1  0  0  0  0
 28 31  1  0  0  0  0
 26 27  1  0  0  0  0
 26 28  1  0  0  0  0
M  END
$$$$
default_name
  -OEChem-02102213163D

 31 30  0     1  0  0  0  0  0999 V2000
   -3.0760   -3.6390    1.5496 H   0  0  0  0  0  0  0  0  0  0  0  0
   -3.0940   -2.6290    1.1426 C   0  0  0  0  0  0  0  0  0  0  0  0
   -3.7160   -1.9930    1.7706 H   0  0  0  0  0  0  0  0  0  0  0  0
   -3.4880   -2.6500    0.1286 H   0  0  0  0  0  0  0  0  0  0  0  0
   -1.6860   -2.0850    1.1196 C   0  0  0  0  0  0  0  0  0  0  0  0
   -0.7540   -2.7700    1.5226 O   0  0  0  0  0  0  0  0  0  0  0  0
   -1.5320   -0.8490    0.6496 N   0  0  0  0  0  0  0  0  0  0  0  0
   -2.3500   -0.3360    0.3566 H   0  0  0  0  0  0  0  0  0  0  0  0
   -0.2470   -0.1410    0.5576 C   0  0  1  0  0  0  0  0  0  0  0  0
    0.4572   -0.6505    1.2162 H   0  0  0  0  0  0  0  0  0  0  0  0
    0.3091   -0.2220   -0.8868 C   0  0  1  0  0  0  0  0  0  0  0  0
    1.2300    0.3640   -0.9103 H   0  0  0  0  0  0  0  0  0  0  0  0
    0.6601   -1.6635   -1.3022 C   0  0  0  0  0  0  0  0  0  0  0  0
   -0.2418   -2.2745   -1.3679 H   0  0  0  0  0  0  0  0  0  0  0  0
    1.1632   -1.6670   -2.2679 H   0  0  0  0  0  0  0  0  0  0  0  0
    1.3362   -2.1115   -0.5731 H   0  0  0  0  0  0  0  0  0  0  0  0
   -0.6706    0.4198   -1.8947 C   0  0  0  0  0  0  0  0  0  0  0  0
   -0.2794    0.3215   -2.9082 H   0  0  0  0  0  0  0  0  0  0  0  0
   -1.6228   -0.1082   -1.8428 H   0  0  0  0  0  0  0  0  0  0  0  0
   -0.9542    1.9030   -1.6209 C   0  0  0  0  0  0  0  0  0  0  0  0
   -0.0523    2.4976   -1.7648 H   0  0  0  0  0  0  0  0  0  0  0  0
   -1.7172    2.2571   -2.3145 H   0  0  0  0  0  0  0  0  0  0  0  0
   -1.3164    2.0314   -0.6003 H   0  0  0  0  0  0  0  0  0  0  0  0
   -0.3971    1.3008    1.0689 C   0  0  0  0  0  0  0  0  0  0  0  0
   -1.3643    1.9819    0.7311 O   0  0  0  0  0  0  0  0  0  0  0  0
    0.5522    1.7647    1.8915 N   0  0  0  0  0  0  0  0  0  0  0  0
    1.3093    1.1450    2.1332 H   0  0  0  0  0  0  0  0  0  0  0  0
    0.5577    3.1119    2.4582 C   0  0  0  0  0  0  0  0  0  0  0  0
   -0.3986    3.3098    2.9475 H   0  0  0  0  0  0  0  0  0  0  0  0
    1.3619    3.2123    3.1886 H   0  0  0  0  0  0  0  0  0  0  0  0
    0.6974    3.8450    1.6614 H   0  0  0  0  0  0  0  0  0  0  0  0
  5  6  2  0  0  0  0
  5  7  1  0  0  0  0
  2  3  1  0  0  0  0
  2  4  1  0  0  0  0
  2  5  1  0  0  0  0
  1  2  1  0  0  0  0
 24 25  2  0  0  0  0
 24 26  1  0  0  0  0
 20 21  1  0  0  0  0
 20 22  1  0  0  0  0
 20 23  1  0  0  0  0
 17 18  1  0  0  0  0
 17 19  1  0  0  0  0
 17 20  1  0  0  0  0
 13 14  1  0  0  0  0
 13 15  1  0  0  0  0
 13 16  1  0  0  0  0
 11 12  1  0  0  0  0
 11 13  1  0  0  0  0
 11 17  1  0  0  0  0
  9 10  1  0  0  0  0
  9 11  1  0  0  0  0
  9 24  1  0  0  0  0
  7  8  1  0  0  0  0
  7  9  1  0  0  0  0
 28 29  1  0  0  0  0
 28 30  1  0  0  0  0
 28 31  1  0  0  0  0
 26 27  1  0  0  0  0
 26 28  1  0  0  0  0
M  END
$$$$
default_name
  -OEChem-02102213163D

 31 30  0     1  0  0  0  0  0999 V2000
   -3.0760   -3.6390    1.5496 H   0  0  0  0  0  0  0  0  0  0  0  0
   -3.0940   -2.6290    1.1426 C   0  0  0  0  0  0  0  0  0  0  0  0
   -3.7160   -1.9930    1.7706 H   0  0  0  0  0  0  0  0  0  0  0  0
   -3.4880   -2.6500    0.1286 H   0  0  0  0  0  0  0  0  0  0  0  0
   -1.6860   -2.0850    1.1196 C   0  0  0  0  0  0  0  0  0  0  0  0
   -0.7540   -2.7700    1.5226 O   0  0  0  0  0  0  0  0  0  0  0  0
   -1.5320   -0.8490    0.6496 N   0  0  0  0  0  0  0  0  0  0  0  0
   -2.3500   -0.3360    0.3566 H   0  0  0  0  0  0  0  0  0  0  0  0
   -0.2470   -0.1410    0.5576 C   0  0  1  0  0  0  0  0  0  0  0  0
    0.4572   -0.6505    1.2162 H   0  0  0  0  0  0  0  0  0  0  0  0
    0.3091   -0.2220   -0.8868 C   0  0  1  0  0  0  0  0  0  0  0  0
    1.2300    0.3640   -0.9103 H   0  0  0  0  0  0  0  0  0  0  0  0
    0.6601   -1.6635   -1.3022 C   0  0  0  0  0  0  0  0  0  0  0  0
   -0.2418   -2.2745   -1.3679 H   0  0  0  0  0  0  0  0  0  0  0  0
    1.1632   -1.6670   -2.2679 H   0  0  0  0  0  0  0  0  0  0  0  0
    1.3362   -2.1115   -0.5731 H   0  0  0  0  0  0  0  0  0  0  0  0
   -0.6706    0.4198   -1.8947 C   0  0  0  0  0  0  0  0  0  0  0  0
   -0.4264    0.0978   -2.9078 H   0  0  0  0  0  0  0  0  0  0  0  0
   -1.6815    0.0840   -1.6634 H   0  0  0  0  0  0  0  0  0  0  0  0
   -0.6781    1.9540   -1.8569 C   0  0  0  0  0  0  0  0  0  0  0  0
    0.2830    2.3492   -2.1853 H   0  0  0  0  0  0  0  0  0  0  0  0
   -1.4533    2.3264   -2.5270 H   0  0  0  0  0  0  0  0  0  0  0  0
   -0.8882    2.3013   -0.8447 H   0  0  0  0  0  0  0  0  0  0  0  0
   -0.3971    1.3008    1.0689 C   0  0  0  0  0  0  0  0  0  0  0  0
   -1.3643    1.9819    0.7311 O   0  0  0  0  0  0  0  0  0  0  0  0
    0.5522    1.7647    1.8915 N   0  0  0  0  0  0  0  0  0  0  0  0
    1.3093    1.1450    2.1332 H   0  0  0  0  0  0  0  0  0  0  0  0
    0.5577    3.1119    2.4582 C   0  0  0  0  0  0  0  0  0  0  0  0
   -0.3986    3.3098    2.9475 H   0  0  0  0  0  0  0  0  0  0  0  0
    1.3619    3.2123    3.1886 H   0  0  0  0  0  0  0  0  0  0  0  0
    0.6974    3.8450    1.6614 H   0  0  0  0  0  0  0  0  0  0  0  0
  5  6  2  0  0  0  0
  5  7  1  0  0  0  0
  2  3  1  0  0  0  0
  2  4  1  0  0  0  0
  2  5  1  0  0  0  0
  1  2  1  0  0  0  0
 24 25  2  0  0  0  0
 24 26  1  0  0  0  0
 20 21  1  0  0  0  0
 20 22  1  0  0  0  0
 20 23  1  0  0  0  0
 17 18  1  0  0  0  0
 17 19  1  0  0  0  0
 17 20  1  0  0  0  0
 13 14  1  0  0  0  0
 13 15  1  0  0  0  0
 13 16  1  0  0  0  0
 11 12  1  0  0  0  0
 11 13  1  0  0  0  0
 11 17  1  0  0  0  0
  9 10  1  0  0  0  0
  9 11  1  0  0  0  0
  9 24  1  0  0  0  0
  7  8  1  0  0  0  0
  7  9  1  0  0  0  0
 28 29  1  0  0  0  0
 28 30  1  0  0  0  0
 28 31  1  0  0  0  0
 26 27  1  0  0  0  0
 26 28  1  0  0  0  0
M  END
$$$$
default_name
  -OEChem-02102213163D

 31 30  0     1  0  0  0  0  0999 V2000
   -3.0760   -3.6390    1.5496 H   0  0  0  0  0  0  0  0  0  0  0  0
   -3.0940   -2.6290    1.1426 C   0  0  0  0  0  0  0  0  0  0  0  0
   -3.7160   -1.9930    1.7706 H   0  0  0  0  0  0  0  0  0  0  0  0
   -3.4880   -2.6500    0.1286 H   0  0  0  0  0  0  0  0  0  0  0  0
   -1.6860   -2.0850    1.1196 C   0  0  0  0  0  0  0  0  0  0  0  0
   -0.7540   -2.7700    1.5226 O   0  0  0  0  0  0  0  0  0  0  0  0
   -1.5320   -0.8490    0.6496 N   0  0  0  0  0  0  0  0  0  0  0  0
   -2.3500   -0.3360    0.3566 H   0  0  0  0  0  0  0  0  0  0  0  0
   -0.2470   -0.1410    0.5576 C   0  0  1  0  0  0  0  0  0  0  0  0
    0.4572   -0.6505    1.2162 H   0  0  0  0  0  0  0  0  0  0  0  0
    0.3091   -0.2220   -0.8868 C   0  0  1  0  0  0  0  0  0  0  0  0
    1.2300    0.3640   -0.9103 H   0  0  0  0  0  0  0  0  0  0  0  0
    0.6601   -1.6635   -1.3022 C   0  0  0  0  0  0  0  0  0  0  0  0
   -0.2418   -2.2745   -1.3679 H   0  0  0  0  0  0  0  0  0  0  0  0
    1.1632   -1.6670   -2.2679 H   0  0  0  0  0  0  0  0  0  0  0  0
    1.3362   -2.1115   -0.5731 H   0  0  0  0  0  0  0  0  0  0  0  0
   -0.6706    0.4198   -1.8947 C   0  0  0  0  0  0  0  0  0  0  0  0
   -0.6060   -0.0935   -2.8550 H   0  0  0  0  0  0  0  0  0  0  0  0
   -1.6864    0.3090   -1.5153 H   0  0  0  0  0  0  0  0  0  0  0  0
   -0.4281    1.9180   -2.1229 C   0  0  0  0  0  0  0  0  0  0  0  0
    0.5366    2.0802   -2.6031 H   0  0  0  0  0  0  0  0  0  0  0  0
   -1.2095    2.3138   -2.7720 H   0  0  0  0  0  0  0  0  0  0  0  0
   -0.4554    2.4495   -1.1710 H   0  0  0  0  0  0  0  0  0  0  0  0
   -0.3971    1.3008    1.0689 C   0  0  0  0  0  0  0  0  0  0  0  0
   -1.3643    1.9819    0.7311 O   0  0  0  0  0  0  0  0  0  0  0  0
    0.5522    1.7647    1.8915 N   0  0  0  0  0  0  0  0  0  0  0  0
    1.3093    1.1450    2.1332 H   0  0  0  0  0  0  0  0  0  0  0  0
    0.5577    3.1119    2.4582 C   0  0  0  0  0  0  0  0  0  0  0  0
   -0.3986    3.3098    2.9475 H   0  0  0  0  0  0  0  0  0  0  0  0
    1.3619    3.2123    3.1886 H   0  0  0  0  0  0  0  0  0  0  0  0
    0.6974    3.8450    1.6614 H   0  0  0  0  0  0  0  0  0  0  0  0
  5  6  2  0  0  0  0
  5  7  1  0  0  0  0
  2  3  1  0  0  0  0
  2  4  1  0  0  0  0
  2  5  1  0  0  0  0
  1  2  1  0  0  0  0
 24 25  2  0  0  0  0
 24 26  1  0  0  0  0
 20 21  1  0  0  0  0
 20 22  1  0  0  0  0
 20 23  1  0  0  0  0
 17 18  1  0  0  0  0
 17 19  1  0  0  0  0
 17 20  1  0  0  0  0
 13 14  1  0  0  0  0
 13 15  1  0  0  0  0
 13 16  1  0  0  0  0
 11 12  1  0  0  0  0
 11 13  1  0  0  0  0
 11 17  1  0  0  0  0
  9 10  1  0  0  0  0
  9 11  1  0  0  0  0
  9 24  1  0  0  0  0
  7  8  1  0  0  0  0
  7  9  1  0  0  0  0
 28 29  1  0  0  0  0
 28 30  1  0  0  0  0
 28 31  1  0  0  0  0
 26 27  1  0  0  0  0
 26 28  1  0  0  0  0
M  END
$$$$
default_name
  -OEChem-02102213163D

 31 30  0     1  0  0  0  0  0999 V2000
   -3.0760   -3.6390    1.5496 H   0  0  0  0  0  0  0  0  0  0  0  0
   -3.0940   -2.6290    1.1426 C   0  0  0  0  0  0  0  0  0  0  0  0
   -3.7160   -1.9930    1.7706 H   0  0  0  0  0  0  0  0  0  0  0  0
   -3.4880   -2.6500    0.1286 H   0  0  0  0  0  0  0  0  0  0  0  0
   -1.6860   -2.0850    1.1196 C   0  0  0  0  0  0  0  0  0  0  0  0
   -0.7540   -2.7700    1.5226 O   0  0  0  0  0  0  0  0  0  0  0  0
   -1.5320   -0.8490    0.6496 N   0  0  0  0  0  0  0  0  0  0  0  0
   -2.3500   -0.3360    0.3566 H   0  0  0  0  0  0  0  0  0  0  0  0
   -0.2470   -0.1410    0.5576 C   0  0  1  0  0  0  0  0  0  0  0  0
    0.4572   -0.6505    1.2162 H   0  0  0  0  0  0  0  0  0  0  0  0
    0.3091   -0.2220   -0.8868 C   0  0  1  0  0  0  0  0  0  0  0  0
    1.2300    0.3640   -0.9103 H   0  0  0  0  0  0  0  0  0  0  0  0
    0.6601   -1.6635   -1.3022 C   0  0  0  0  0  0  0  0  0  0  0  0
   -0.2418   -2.2745   -1.3679 H   0  0  0  0  0  0  0  0  0  0  0  0
    1.1632   -1.6670   -2.2679 H   0  0  0  0  0  0  0  0  0  0  0  0
    1.3362   -2.1115   -0.5731 H   0  0  0  0  0  0  0  0  0  0  0  0
   -0.6706    0.4198   -1.8947 C   0  0  0  0  0  0  0  0  0  0  0  0
   -0.8062   -0.2393   -2.7532 H   0  0  0  0  0  0  0  0  0  0  0  0
   -1.6373    0.5515   -1.4086 H   0  0  0  0  0  0  0  0  0  0  0  0
   -0.2214    1.7973   -2.4007 C   0  0  0  0  0  0  0  0  0  0  0  0
    0.6913    1.7091   -2.9899 H   0  0  0  0  0  0  0  0  0  0  0  0
   -1.0025    2.2203   -3.0328 H   0  0  0  0  0  0  0  0  0  0  0  0
   -0.0474    2.4661   -1.5571 H   0  0  0  0  0  0  0  0  0  0  0  0
   -0.3971    1.3008    1.0689 C   0  0  0  0  0  0  0  0  0  0  0  0
   -1.3643    1.9819    0.7311 O   0  0  0  0  0  0  0  0  0  0  0  0
    0.5522    1.7647    1.8915 N   0  0  0  0  0  0  0  0  0  0  0  0
    1.3093    1.1450    2.1332 H   0  0  0  0  0  0  0  0  0  0  0  0
    0.5577    3.1119    2.4582 C   0  0  0  0  0  0  0  0  0  0  0  0
   -0.3986    3.3098    2.9475 H   0  0  0  0  0  0  0  0  0  0  0  0
    1.3619    3.2123    3.1886 H   0  0  0  0  0  0  0  0  0  0  0  0
    0.6974    3.8450    1.6614 H   0  0  0  0  0  0  0  0  0  0  0  0
  5  6  2  0  0  0  0
  5  7  1  0  0  0  0
  2  3  1  0  0  0  0
  2  4  1  0  0  0  0
  2  5  1  0  0  0  0
  1  2  1  0  0  0  0
 24 25  2  0  0  0  0
 24 26  1  0  0  0  0
 20 21  1  0  0  0  0
 20 22  1  0  0  0  0
 20 23  1  0  0  0  0
 17 18  1  0  0  0  0
 17 19  1  0  0  0  0
 17 20  1  0  0  0  0
 13 14  1  0  0  0  0
 13 15  1  0  0  0  0
 13 16  1  0  0  0  0
 11 12  1  0  0  0  0
 11 13  1  0  0  0  0
 11 17  1  0  0  0  0
  9 10  1  0  0  0  0
  9 11  1  0  0  0  0
  9 24  1  0  0  0  0
  7  8  1  0  0  0  0
  7  9  1  0  0  0  0
 28 29  1  0  0  0  0
 28 30  1  0  0  0  0
 28 31  1  0  0  0  0
 26 27  1  0  0  0  0
 26 28  1  0  0  0  0
M  END
$$$$
default_name
  -OEChem-02102213163D

 31 30  0     1  0  0  0  0  0999 V2000
   -3.0760   -3.6390    1.5496 H   0  0  0  0  0  0  0  0  0  0  0  0
   -3.0940   -2.6290    1.1426 C   0  0  0  0  0  0  0  0  0  0  0  0
   -3.7160   -1.9930    1.7706 H   0  0  0  0  0  0  0  0  0  0  0  0
   -3.4880   -2.6500    0.1286 H   0  0  0  0  0  0  0  0  0  0  0  0
   -1.6860   -2.0850    1.1196 C   0  0  0  0  0  0  0  0  0  0  0  0
   -0.7540   -2.7700    1.5226 O   0  0  0  0  0  0  0  0  0  0  0  0
   -1.5320   -0.8490    0.6496 N   0  0  0  0  0  0  0  0  0  0  0  0
   -2.3500   -0.3360    0.3566 H   0  0  0  0  0  0  0  0  0  0  0  0
   -0.2470   -0.1410    0.5576 C   0  0  1  0  0  0  0  0  0  0  0  0
    0.4572   -0.6505    1.2162 H   0  0  0  0  0  0  0  0  0  0  0  0
    0.3091   -0.2220   -0.8868 C   0  0  1  0  0  0  0  0  0  0  0  0
    1.2300    0.3640   -0.9103 H   0  0  0  0  0  0  0  0  0  0  0  0
    0.6601   -1.6635   -1.3022 C   0  0  0  0  0  0  0  0  0  0  0  0
   -0.2418   -2.2745   -1.3679 H   0  0  0  0  0  0  0  0  0  0  0  0
    1.1632   -1.6670   -2.2679 H   0  0  0  0  0  0  0  0  0  0  0  0
    1.3362   -2.1115   -0.5731 H   0  0  0  0  0  0  0  0  0  0  0  0
   -0.6706    0.4198   -1.8947 C   0  0  0  0  0  0  0  0  0  0  0  0
   -1.0131   -0.3296   -2.6095 H   0  0  0  0  0  0  0  0  0  0  0  0
   -1.5375    0.7949   -1.3507 H   0  0  0  0  0  0  0  0  0  0  0  0
   -0.0719    1.6002   -2.6716 C   0  0  0  0  0  0  0  0  0  0  0  0
    0.7364    1.2610   -3.3191 H   0  0  0  0  0  0  0  0  0  0  0  0
   -0.8463    2.0522   -3.2917 H   0  0  0  0  0  0  0  0  0  0  0  0
    0.3080    2.3499   -1.9767 H   0  0  0  0  0  0  0  0  0  0  0  0
   -0.3971    1.3008    1.0689 C   0  0  0  0  0  0  0  0  0  0  0  0
   -1.3643    1.9819    0.7311 O   0  0  0  0  0  0  0  0  0  0  0  0
    0.5522    1.7647    1.8915 N   0  0  0  0  0  0  0  0  0  0  0  0
    1.3093    1.1450    2.1332 H   0  0  0  0  0  0  0  0  0  0  0  0
    0.5577    3.1119    2.4582 C   0  0  0  0  0  0  0  0  0  0  0  0
   -0.3986    3.3098    2.9475 H   0  0  0  0  0  0  0  0  0  0  0  0
    1.3619    3.2123    3.1886 H   0  0  0  0  0  0  0  0  0  0  0  0
    0.6974    3.8450    1.6614 H   0  0  0  0  0  0  0  0  0  0  0  0
  5  6  2  0  0  0  0
  5  7  1  0  0  0  0
  2  3  1  0  0  0  0
  2  4  1  0  0  0  0
  2  5  1  0  0  0  0
  1  2  1  0  0  0  0
 24 25  2  0  0  0  0
 24 26  1  0  0  0  0
 20 21  1  0  0  0  0
 20 22  1  0  0  0  0
 20 23  1  0  0  0  0
 17 18  1  0  0  0  0
 17 19  1  0  0  0  0
 17 20  1  0  0  0  0
 13 14  1  0  0  0  0
 13 15  1  0  0  0  0
 13 16  1  0  0  0  0
 11 12  1  0  0  0  0
 11 13  1  0  0  0  0
 11 17  1  0  0  0  0
  9 10  1  0  0  0  0
  9 11  1  0  0  0  0
  9 24  1  0  0  0  0
  7  8  1  0  0  0  0
  7  9  1  0  0  0  0
 28 29  1  0  0  0  0
 28 30  1  0  0  0  0
 28 31  1  0  0  0  0
 26 27  1  0  0  0  0
 26 28  1  0  0  0  0
M  END
$$$$
default_name
  -OEChem-02102213163D

 31 30  0     1  0  0  0  0  0999 V2000
   -3.0760   -3.6390    1.5496 H   0  0  0  0  0  0  0  0  0  0  0  0
   -3.0940   -2.6290    1.1426 C   0  0  0  0  0  0  0  0  0  0  0  0
   -3.7160   -1.9930    1.7706 H   0  0  0  0  0  0  0  0  0  0  0  0
   -3.4880   -2.6500    0.1286 H   0  0  0  0  0  0  0  0  0  0  0  0
   -1.6860   -2.0850    1.1196 C   0  0  0  0  0  0  0  0  0  0  0  0
   -0.7540   -2.7700    1.5226 O   0  0  0  0  0  0  0  0  0  0  0  0
   -1.5320   -0.8490    0.6496 N   0  0  0  0  0  0  0  0  0  0  0  0
   -2.3500   -0.3360    0.3566 H   0  0  0  0  0  0  0  0  0  0  0  0
   -0.2470   -0.1410    0.5576 C   0  0  1  0  0  0  0  0  0  0  0  0
    0.4572   -0.6505    1.2162 H   0  0  0  0  0  0  0  0  0  0  0  0
    0.3091   -0.2220   -0.8868 C   0  0  1  0  0  0  0  0  0  0  0  0
    1.2300    0.3640   -0.9103 H   0  0  0  0  0  0  0  0  0  0  0  0
    0.6601   -1.6635   -1.3022 C   0  0  0  0  0  0  0  0  0  0  0  0
   -0.2418   -2.2745   -1.3679 H   0  0  0  0  0  0  0  0  0  0  0  0
    1.1632   -1.6670   -2.2679 H   0  0  0  0  0  0  0  0  0  0  0  0
    1.3362   -2.1115   -0.5731 H   0  0  0  0  0  0  0  0  0  0  0  0
   -0.6706    0.4198   -1.8947 C   0  0  0  0  0  0  0  0  0  0  0  0
   -1.2129   -0.3582   -2.4336 H   0  0  0  0  0  0  0  0  0  0  0  0
   -1.3937    1.0227   -1.3454 H   0  0  0  0  0  0  0  0  0  0  0  0
    0.0101    1.3401   -2.9169 C   0  0  0  0  0  0  0  0  0  0  0  0
    0.6690    0.7665   -3.5685 H   0  0  0  0  0  0  0  0  0  0  0  0
   -0.7517    1.8211   -3.5309 H   0  0  0  0  0  0  0  0  0  0  0  0
    0.5866    2.1088   -2.4010 H   0  0  0  0  0  0  0  0  0  0  0  0
   -0.3971    1.3008    1.0689 C   0  0  0  0  0  0  0  0  0  0  0  0
   -1.3643    1.9819    0.7311 O   0  0  0  0  0  0  0  0  0  0  0  0
    0.5522    1.7647    1.8915 N   0  0  0  0  0  0  0  0  0  0  0  0
    1.3093    1.1450    2.1332 H   0  0  0  0  0  0  0  0  0  0  0  0
    0.5577    3.1119    2.4582 C   0  0  0  0  0  0  0  0  0  0  0  0
   -0.3986    3.3098    2.9475 H   0  0  0  0  0  0  0  0  0  0  0  0
    1.3619    3.2123    3.1886 H   0  0  0  0  0  0  0  0  0  0  0  0
    0.6974    3.8450    1.6614 H   0  0  0  0  0  0  0  0  0  0  0  0
  5  6  2  0  0  0  0
  5  7  1  0  0  0  0
  2  3  1  0  0  0  0
  2  4  1  0  0  0  0
  2  5  1  0  0  0  0
  1  2  1  0  0  0  0
 24 25  2  0  0  0  0
 24 26  1  0  0  0  0
 20 21  1  0  0  0  0
 20 22  1  0  0  0  0
 20 23  1  0  0  0  0
 17 18  1  0  0  0  0
 17 19  1  0  0  0  0
 17 20  1  0  0  0  0
 13 14  1  0  0  0  0
 13 15  1  0  0  0  0
 13 16  1  0  0  0  0
 11 12  1  0  0  0  0
 11 13  1  0  0  0  0
 11 17  1  0  0  0  0
  9 10  1  0  0  0  0
  9 11  1  0  0  0  0
  9 24  1  0  0  0  0
  7  8  1  0  0  0  0
  7  9  1  0  0  0  0
 28 29  1  0  0  0  0
 28 30  1  0  0  0  0
 28 31  1  0  0  0  0
 26 27  1  0  0  0  0
 26 28  1  0  0  0  0
M  END
$$$$
default_name
  -OEChem-02102213163D

 31 30  0     1  0  0  0  0  0999 V2000
   -3.0760   -3.6390    1.5496 H   0  0  0  0  0  0  0  0  0  0  0  0
   -3.0940   -2.6290    1.1426 C   0  0  0  0  0  0  0  0  0  0  0  0
   -3.7160   -1.9930    1.7706 H   0  0  0  0  0  0  0  0  0  0  0  0
   -3.4880   -2.6500    0.1286 H   0  0  0  0  0  0  0  0  0  0  0  0
   -1.6860   -2.0850    1.1196 C   0  0  0  0  0  0  0  0  0  0  0  0
   -0.7540   -2.7700    1.5226 O   0  0  0  0  0  0  0  0  0  0  0  0
   -1.5320   -0.8490    0.6496 N   0  0  0  0  0  0  0  0  0  0  0  0
   -2.3500   -0.3360    0.3566 H   0  0  0  0  0  0  0  0  0  0  0  0
   -0.2470   -0.1410    0.5576 C   0  0  1  0  0  0  0  0  0  0  0  0
    0.4572   -0.6505    1.2162 H   0  0  0  0  0  0  0  0  0  0  0  0
    0.3091   -0.2220   -0.8868 C   0  0  1  0  0  0  0  0  0  0  0  0
    1.2300    0.3640   -0.9103 H   0  0  0  0  0  0  0  0  0  0  0  0
    0.6601   -1.6635   -1.3022 C   0  0  0  0  0  0  0  0  0  0  0  0
   -0.2418   -2.2745   -1.3679 H   0  0  0  0  0  0  0  0  0  0  0  0
    1.1632   -1.6670   -2.2679 H   0  0  0  0  0  0  0  0  0  0  0  0
    1.3362   -2.1115   -0.5731 H   0  0  0  0  0  0  0  0  0  0  0  0
   -0.6706    0.4198   -1.8947 C   0  0  0  0  0  0  0  0  0  0  0  0
   -1.3917   -0.3234   -2.2375 H   0  0  0  0  0  0  0  0  0  0  0  0
   -1.2158    1.2193   -1.3931 H   0  0  0  0  0  0  0  0  0  0  0  0
    0.0190    1.0348   -3.1200 C   0  0  0  0  0  0  0  0  0  0  0  0
    0.4936    0.2593   -3.7209 H   0  0  0  0  0  0  0  0  0  0  0  0
   -0.7250    1.5426   -3.7342 H   0  0  0  0  0  0  0  0  0  0  0  0
    0.7694    1.7592   -2.8013 H   0  0  0  0  0  0  0  0  0  0  0  0
   -0.3971    1.3008    1.0689 C   0  0  0  0  0  0  0  0  0  0  0  0
   -1.3643    1.9819    0.7311 O   0  0  0  0  0  0  0  0  0  0  0  0
    0.5522    1.7647    1.8915 N   0  0  0  0  0  0  0  0  0  0  0  0
    1.3093    1.1450    2.1332 H   0  0  0  0  0  0  0  0  0  0  0  0
    0.5577    3.1119    2.4582 C   0  0  0  0  0  0  0  0  0  0  0  0
   -0.3986    3.3098    2.9475 H   0  0  0  0  0  0  0  0  0  0  0  0
    1.3619    3.2123    3.1886 H   0  0  0  0  0  0  0  0  0  0  0  0
    0.6974    3.8450    1.6614 H   0  0  0  0  0  0  0  0  0  0  0  0
  5  6  2  0  0  0  0
  5  7  1  0  0  0  0
  2  3  1  0  0  0  0
  2  4  1  0  0  0  0
  2  5  1  0  0  0  0
  1  2  1  0  0  0  0
 24 25  2  0  0  0  0
 24 26  1  0  0  0  0
 20 21  1  0  0  0  0
 20 22  1  0  0  0  0
 20 23  1  0  0  0  0
 17 18  1  0  0  0  0
 17 19  1  0  0  0  0
 17 20  1  0  0  0  0
 13 14  1  0  0  0  0
 13 15  1  0  0  0  0
 13 16  1  0  0  0  0
 11 12  1  0  0  0  0
 11 13  1  0  0  0  0
 11 17  1  0  0  0  0
  9 10  1  0  0  0  0
  9 11  1  0  0  0  0
  9 24  1  0  0  0  0
  7  8  1  0  0  0  0
  7  9  1  0  0  0  0
 28 29  1  0  0  0  0
 28 30  1  0  0  0  0
 28 31  1  0  0  0  0
 26 27  1  0  0  0  0
 26 28  1  0  0  0  0
M  END
$$$$
default_name
  -OEChem-02102213163D

 31 30  0     1  0  0  0  0  0999 V2000
   -3.0760   -3.6390    1.5496 H   0  0  0  0  0  0  0  0  0  0  0  0
   -3.0940   -2.6290    1.1426 C   0  0  0  0  0  0  0  0  0  0  0  0
   -3.7160   -1.9930    1.7706 H   0  0  0  0  0  0  0  0  0  0  0  0
   -3.4880   -2.6500    0.1286 H   0  0  0  0  0  0  0  0  0  0  0  0
   -1.6860   -2.0850    1.1196 C   0  0  0  0  0  0  0  0  0  0  0  0
   -0.7540   -2.7700    1.5226 O   0  0  0  0  0  0  0  0  0  0  0  0
   -1.5320   -0.8490    0.6496 N   0  0  0  0  0  0  0  0  0  0  0  0
   -2.3500   -0.3360    0.3566 H   0  0  0  0  0  0  0  0  0  0  0  0
   -0.2470   -0.1410    0.5576 C   0  0  1  0  0  0  0  0  0  0  0  0
    0.4572   -0.6505    1.2162 H   0  0  0  0  0  0  0  0  0  0  0  0
    0.3091   -0.2220   -0.8868 C   0  0  1  0  0  0  0  0  0  0  0  0
    1.2300    0.3640   -0.9103 H   0  0  0  0  0  0  0  0  0  0  0  0
    0.6601   -1.6635   -1.3022 C   0  0  0  0  0  0  0  0  0  0  0  0
   -0.2418   -2.2745   -1.3679 H   0  0  0  0  0  0  0  0  0  0  0  0
    1.1632   -1.6670   -2.2679 H   0  0  0  0  0  0  0  0  0  0  0  0
    1.3362   -2.1115   -0.5731 H   0  0  0  0  0  0  0  0  0  0  0  0
   -0.6706    0.4198   -1.8947 C   0  0  0  0  0  0  0  0  0  0  0  0
   -1.5375   -0.2273   -2.0346 H   0  0  0  0  0  0  0  0  0  0  0  0
   -1.0159    1.3714   -1.4906 H   0  0  0  0  0  0  0  0  0  0  0  0
   -0.0457    0.7051   -3.2670 C   0  0  0  0  0  0  0  0  0  0  0  0
    0.2221   -0.2260   -3.7661 H   0  0  0  0  0  0  0  0  0  0  0  0
   -0.7681    1.2357   -3.8877 H   0  0  0  0  0  0  0  0  0  0  0  0
    0.8439    1.3250   -3.1503 H   0  0  0  0  0  0  0  0  0  0  0  0
   -0.3971    1.3008    1.0689 C   0  0  0  0  0  0  0  0  0  0  0  0
   -1.3643    1.9819    0.7311 O   0  0  0  0  0  0  0  0  0  0  0  0
    0.5522    1.7647    1.8915 N   0  0  0  0  0  0  0  0  0  0  0  0
    1.3093    1.1450    2.1332 H   0  0  0  0  0  0  0  0  0  0  0  0
    0.5577    3.1119    2.4582 C   0  0  0  0  0  0  0  0  0  0  0  0
   -0.3986    3.3098    2.9475 H   0  0  0  0  0  0  0  0  0  0  0  0
    1.3619    3.2123    3.1886 H   0  0  0  0  0  0  0  0  0  0  0  0
    0.6974    3.8450    1.6614 H   0  0  0  0  0  0  0  0  0  0  0  0
  5  6  2  0  0  0  0
  5  7  1  0  0  0  0
  2  3  1  0  0  0  0
  2  4  1  0  0  0  0
  2  5  1  0  0  0  0
  1  2  1  0  0  0  0
 24 25  2  0  0  0  0
 24 26  1  0  0  0  0
 20 21  1  0  0  0  0
 20 22  1  0  0  0  0
 20 23  1  0  0  0  0
 17 18  1  0  0  0  0
 17 19  1  0  0  0  0
 17 20  1  0  0  0  0
 13 14  1  0  0  0  0
 13 15  1  0  0  0  0
 13 16  1  0  0  0  0
 11 12  1  0  0  0  0
 11 13  1  0  0  0  0
 11 17  1  0  0  0  0
  9 10  1  0  0  0  0
  9 11  1  0  0  0  0
  9 24  1  0  0  0  0
  7  8  1  0  0  0  0
  7  9  1  0  0  0  0
 28 29  1  0  0  0  0
 28 30  1  0  0  0  0
 28 31  1  0  0  0  0
 26 27  1  0  0  0  0
 26 28  1  0  0  0  0
M  END
$$$$
default_name
  -OEChem-02102213163D

 31 30  0     1  0  0  0  0  0999 V2000
   -3.0760   -3.6390    1.5496 H   0  0  0  0  0  0  0  0  0  0  0  0
   -3.0940   -2.6290    1.1426 C   0  0  0  0  0  0  0  0  0  0  0  0
   -3.7160   -1.9930    1.7706 H   0  0  0  0  0  0  0  0  0  0  0  0
   -3.4880   -2.6500    0.1286 H   0  0  0  0  0  0  0  0  0  0  0  0
   -1.6860   -2.0850    1.1196 C   0  0  0  0  0  0  0  0  0  0  0  0
   -0.7540   -2.7700    1.5226 O   0  0  0  0  0  0  0  0  0  0  0  0
   -1.5320   -0.8490    0.6496 N   0  0  0  0  0  0  0  0  0  0  0  0
   -2.3500   -0.3360    0.3566 H   0  0  0  0  0  0  0  0  0  0  0  0
   -0.2470   -0.1410    0.5576 C   0  0  1  0  0  0  0  0  0  0  0  0
    0.4572   -0.6505    1.2162 H   0  0  0  0  0  0  0  0  0  0  0  0
    0.3091   -0.2220   -0.8868 C   0  0  1  0  0  0  0  0  0  0  0  0
    1.3442    0.1235   -0.8528 H   0  0  0  0  0  0  0  0  0  0  0  0
    0.3133   -1.6615   -1.4359 C   0  0  0  0  0  0  0  0  0  0  0  0
   -0.7073   -2.0277   -1.5610 H   0  0  0  0  0  0  0  0  0  0  0  0
    0.8247   -1.6985   -2.3965 H   0  0  0  0  0  0  0  0  0  0  0  0
    0.8433   -2.3243   -0.7509 H   0  0  0  0  0  0  0  0  0  0  0  0
   -0.4620    0.7269   -1.8316 C   0  0  0  0  0  0  0  0  0  0  0  0
   -1.5237    0.4767   -1.8249 H   0  0  0  0  0  0  0  0  0  0  0  0
   -0.3493    1.7491   -1.4704 H   0  0  0  0  0  0  0  0  0  0  0  0
    0.0393    0.6959   -3.2817 C   0  0  0  0  0  0  0  0  0  0  0  0
   -0.1483   -0.2795   -3.7303 H   0  0  0  0  0  0  0  0  0  0  0  0
   -0.4907    1.4518   -3.8616 H   0  0  0  0  0  0  0  0  0  0  0  0
    1.1080    0.9113   -3.3117 H   0  0  0  0  0  0  0  0  0  0  0  0
   -0.3971    1.3008    1.0689 C   0  0  0  0  0  0  0  0  0  0  0  0
   -1.3643    1.9819    0.7311 O   0  0  0  0  0  0  0  0  0  0  0  0
    0.5522    1.7647    1.8915 N   0  0  0  0  0  0  0  0  0  0  0  0
    1.3093    1.1450    2.1332 H   0  0  0  0  0  0  0  0  0  0  0  0
    0.5577    3.1119    2.4582 C   0  0  0  0  0  0  0  0  0  0  0  0
   -0.3986    3.3098    2.9475 H   0  0  0  0  0  0  0  0  0  0  0  0
    1.3619    3.2123    3.1886 H   0  0  0  0  0  0  0  0  0  0  0  0
    0.6974    3.8450    1.6614 H   0  0  0  0  0  0  0  0  0  0  0  0
  5  6  2  0  0  0  0
  5  7  1  0  0  0  0
  2  3  1  0  0  0  0
  2  4  1  0  0  0  0
  2  5  1  0  0  0  0
  1  2  1  0  0  0  0
 24 25  2  0  0  0  0
 24 26  1  0  0  0  0
 20 21  1  0  0  0  0
 20 22  1  0  0  0  0
 20 23  1  0  0  0  0
 17 18  1  0  0  0  0
 17 19  1  0  0  0  0
 17 20  1  0  0  0  0
 13 14  1  0  0  0  0
 13 15  1  0  0  0  0
 13 16  1  0  0  0  0
 11 12  1  0  0  0  0
 11 13  1  0  0  0  0
 11 17  1  0  0  0  0
  9 10  1  0  0  0  0
  9 11  1  0  0  0  0
  9 24  1  0  0  0  0
  7  8  1  0  0  0  0
  7  9  1  0  0  0  0
 28 29  1  0  0  0  0
 28 30  1  0  0  0  0
 28 31  1  0  0  0  0
 26 27  1  0  0  0  0
 26 28  1  0  0  0  0
M  END
$$$$
default_name
  -OEChem-02102213163D

 31 30  0     1  0  0  0  0  0999 V2000
   -3.0760   -3.6390    1.5496 H   0  0  0  0  0  0  0  0  0  0  0  0
   -3.0940   -2.6290    1.1426 C   0  0  0  0  0  0  0  0  0  0  0  0
   -3.7160   -1.9930    1.7706 H   0  0  0  0  0  0  0  0  0  0  0  0
   -3.4880   -2.6500    0.1286 H   0  0  0  0  0  0  0  0  0  0  0  0
   -1.6860   -2.0850    1.1196 C   0  0  0  0  0  0  0  0  0  0  0  0
   -0.7540   -2.7700    1.5226 O   0  0  0  0  0  0  0  0  0  0  0  0
   -1.5320   -0.8490    0.6496 N   0  0  0  0  0  0  0  0  0  0  0  0
   -2.3500   -0.3360    0.3566 H   0  0  0  0  0  0  0  0  0  0  0  0
   -0.2470   -0.1410    0.5576 C   0  0  1  0  0  0  0  0  0  0  0  0
    0.4572   -0.6505    1.2162 H   0  0  0  0  0  0  0  0  0  0  0  0
    0.3091   -0.2220   -0.8868 C   0  0  1  0  0  0  0  0  0  0  0  0
    1.3442    0.1235   -0.8528 H   0  0  0  0  0  0  0  0  0  0  0  0
    0.3133   -1.6615   -1.4359 C   0  0  0  0  0  0  0  0  0  0  0  0
   -0.7073   -2.0277   -1.5610 H   0  0  0  0  0  0  0  0  0  0  0  0
    0.8247   -1.6985   -2.3965 H   0  0  0  0  0  0  0  0  0  0  0  0
    0.8433   -2.3243   -0.7509 H   0  0  0  0  0  0  0  0  0  0  0  0
   -0.4620    0.7269   -1.8316 C   0  0  0  0  0  0  0  0  0  0  0  0
   -1.5324    0.6619   -1.6318 H   0  0  0  0  0  0  0  0  0  0  0  0
   -0.1399    1.7504   -1.6400 H   0  0  0  0  0  0  0  0  0  0  0  0
   -0.2236    0.4432   -3.3208 C   0  0  0  0  0  0  0  0  0  0  0  0
   -0.6266   -0.5320   -3.5935 H   0  0  0  0  0  0  0  0  0  0  0  0
   -0.7266    1.2050   -3.9169 H   0  0  0  0  0  0  0  0  0  0  0  0
    0.8444    0.4703   -3.5395 H   0  0  0  0  0  0  0  0  0  0  0  0
   -0.3971    1.3008    1.0689 C   0  0  0  0  0  0  0  0  0  0  0  0
   -1.3643    1.9819    0.7311 O   0  0  0  0  0  0  0  0  0  0  0  0
    0.5522    1.7647    1.8915 N   0  0  0  0  0  0  0  0  0  0  0  0
    1.3093    1.1450    2.1332 H   0  0  0  0  0  0  0  0  0  0  0  0
    0.5577    3.1119    2.4582 C   0  0  0  0  0  0  0  0  0  0  0  0
   -0.3986    3.3098    2.9475 H   0  0  0  0  0  0  0  0  0  0  0  0
    1.3619    3.2123    3.1886 H   0  0  0  0  0  0  0  0  0  0  0  0
    0.6974    3.8450    1.6614 H   0  0  0  0  0  0  0  0  0  0  0  0
  5  6  2  0  0  0  0
  5  7  1  0  0  0  0
  2  3  1  0  0  0  0
  2  4  1  0  0  0  0
  2  5  1  0  0  0  0
  1  2  1  0  0  0  0
 24 25  2  0  0  0  0
 24 26  1  0  0  0  0
 20 21  1  0  0  0  0
 20 22  1  0  0  0  0
 20 23  1  0  0  0  0
 17 18  1  0  0  0  0
 17 19  1  0  0  0  0
 17 20  1  0  0  0  0
 13 14  1  0  0  0  0
 13 15  1  0  0  0  0
 13 16  1  0  0  0  0
 11 12  1  0  0  0  0
 11 13  1  0  0  0  0
 11 17  1  0  0  0  0
  9 10  1  0  0  0  0
  9 11  1  0  0  0  0
  9 24  1  0  0  0  0
  7  8  1  0  0  0  0
  7  9  1  0  0  0  0
 28 29  1  0  0  0  0
 28 30  1  0  0  0  0
 28 31  1  0  0  0  0
 26 27  1  0  0  0  0
 26 28  1  0  0  0  0
M  END
$$$$
default_name
  -OEChem-02102213163D

 31 30  0     1  0  0  0  0  0999 V2000
   -3.0760   -3.6390    1.5496 H   0  0  0  0  0  0  0  0  0  0  0  0
   -3.0940   -2.6290    1.1426 C   0  0  0  0  0  0  0  0  0  0  0  0
   -3.7160   -1.9930    1.7706 H   0  0  0  0  0  0  0  0  0  0  0  0
   -3.4880   -2.6500    0.1286 H   0  0  0  0  0  0  0  0  0  0  0  0
   -1.6860   -2.0850    1.1196 C   0  0  0  0  0  0  0  0  0  0  0  0
   -0.7540   -2.7700    1.5226 O   0  0  0  0  0  0  0  0  0  0  0  0
   -1.5320   -0.8490    0.6496 N   0  0  0  0  0  0  0  0  0  0  0  0
   -2.3500   -0.3360    0.3566 H   0  0  0  0  0  0  0  0  0  0  0  0
   -0.2470   -0.1410    0.5576 C   0  0  1  0  0  0  0  0  0  0  0  0
    0.4572   -0.6505    1.2162 H   0  0  0  0  0  0  0  0  0  0  0  0
    0.3091   -0.2220   -0.8868 C   0  0  1  0  0  0  0  0  0  0  0  0
    1.3442    0.1235   -0.8528 H   0  0  0  0  0  0  0  0  0  0  0  0
    0.3133   -1.6615   -1.4359 C   0  0  0  0  0  0  0  0  0  0  0  0
   -0.7073   -2.0277   -1.5610 H   0  0  0  0  0  0  0  0  0  0  0  0
    0.8247   -1.6985   -2.3965 H   0  0  0  0  0  0  0  0  0  0  0  0
    0.8433   -2.3243   -0.7509 H   0  0  0  0  0  0  0  0  0  0  0  0
   -0.4620    0.7269   -1.8316 C   0  0  0  0  0  0  0  0  0  0  0  0
   -1.4808    0.8671   -1.4678 H   0  0  0  0  0  0  0  0  0  0  0  0
    0.0355    1.6966   -1.8372 H   0  0  0  0  0  0  0  0  0  0  0  0
   -0.5239    0.2357   -3.2842 C   0  0  0  0  0  0  0  0  0  0  0  0
   -1.1068   -0.6826   -3.3527 H   0  0  0  0  0  0  0  0  0  0  0  0
   -1.0023    0.9968   -3.9010 H   0  0  0  0  0  0  0  0  0  0  0  0
    0.4839    0.0566   -3.6607 H   0  0  0  0  0  0  0  0  0  0  0  0
   -0.3971    1.3008    1.0689 C   0  0  0  0  0  0  0  0  0  0  0  0
   -1.3643    1.9819    0.7311 O   0  0  0  0  0  0  0  0  0  0  0  0
    0.5522    1.7647    1.8915 N   0  0  0  0  0  0  0  0  0  0  0  0
    1.3093    1.1450    2.1332 H   0  0  0  0  0  0  0  0  0  0  0  0
    0.5577    3.1119    2.4582 C   0  0  0  0  0  0  0  0  0  0  0  0
   -0.3986    3.3098    2.9475 H   0  0  0  0  0  0  0  0  0  0  0  0
    1.3619    3.2123    3.1886 H   0  0  0  0  0  0  0  0  0  0  0  0
    0.6974    3.8450    1.6614 H   0  0  0  0  0  0  0  0  0  0  0  0
  5  6  2  0  0  0  0
  5  7  1  0  0  0  0
  2  3  1  0  0  0  0
  2  4  1  0  0  0  0
  2  5  1  0  0  0  0
  1  2  1  0  0  0  0
 24 25  2  0  0  0  0
 24 26  1  0  0  0  0
 20 21  1  0  0  0  0
 20 22  1  0  0  0  0
 20 23  1  0  0  0  0
 17 18  1  0  0  0  0
 17 19  1  0  0  0  0
 17 20  1  0  0  0  0
 13 14  1  0  0  0  0
 13 15  1  0  0  0  0
 13 16  1  0  0  0  0
 11 12  1  0  0  0  0
 11 13  1  0  0  0  0
 11 17  1  0  0  0  0
  9 10  1  0  0  0  0
  9 11  1  0  0  0  0
  9 24  1  0  0  0  0
  7  8  1  0  0  0  0
  7  9  1  0  0  0  0
 28 29  1  0  0  0  0
 28 30  1  0  0  0  0
 28 31  1  0  0  0  0
 26 27  1  0  0  0  0
 26 28  1  0  0  0  0
M  END
$$$$
default_name
  -OEChem-02102213163D

 31 30  0     1  0  0  0  0  0999 V2000
   -3.0760   -3.6390    1.5496 H   0  0  0  0  0  0  0  0  0  0  0  0
   -3.0940   -2.6290    1.1426 C   0  0  0  0  0  0  0  0  0  0  0  0
   -3.7160   -1.9930    1.7706 H   0  0  0  0  0  0  0  0  0  0  0  0
   -3.4880   -2.6500    0.1286 H   0  0  0  0  0  0  0  0  0  0  0  0
   -1.6860   -2.0850    1.1196 C   0  0  0  0  0  0  0  0  0  0  0  0
   -0.7540   -2.7700    1.5226 O   0  0  0  0  0  0  0  0  0  0  0  0
   -1.5320   -0.8490    0.6496 N   0  0  0  0  0  0  0  0  0  0  0  0
   -2.3500   -0.3360    0.3566 H   0  0  0  0  0  0  0  0  0  0  0  0
   -0.2470   -0.1410    0.5576 C   0  0  1  0  0  0  0  0  0  0  0  0
    0.4572   -0.6505    1.2162 H   0  0  0  0  0  0  0  0  0  0  0  0
    0.3091   -0.2220   -0.8868 C   0  0  1  0  0  0  0  0  0  0  0  0
    1.3442    0.1235   -0.8528 H   0  0  0  0  0  0  0  0  0  0  0  0
    0.3133   -1.6615   -1.4359 C   0  0  0  0  0  0  0  0  0  0  0  0
   -0.7073   -2.0277   -1.5610 H   0  0  0  0  0  0  0  0  0  0  0  0
    0.8247   -1.6985   -2.3965 H   0  0  0  0  0  0  0  0  0  0  0  0
    0.8433   -2.3243   -0.7509 H   0  0  0  0  0  0  0  0  0  0  0  0
   -0.4620    0.7269   -1.8316 C   0  0  0  0  0  0  0  0  0  0  0  0
   -1.3724    1.0783   -1.3442 H   0  0  0  0  0  0  0  0  0  0  0  0
    0.1652    1.5915   -2.0487 H   0  0  0  0  0  0  0  0  0  0  0  0
   -0.8409    0.0875   -3.1743 C   0  0  0  0  0  0  0  0  0  0  0  0
   -1.5562   -0.7210   -3.0244 H   0  0  0  0  0  0  0  0  0  0  0  0
   -1.2990    0.8414   -3.8149 H   0  0  0  0  0  0  0  0  0  0  0  0
    0.0509   -0.3016   -3.6670 H   0  0  0  0  0  0  0  0  0  0  0  0
   -0.3971    1.3008    1.0689 C   0  0  0  0  0  0  0  0  0  0  0  0
   -1.3643    1.9819    0.7311 O   0  0  0  0  0  0  0  0  0  0  0  0
    0.5522    1.7647    1.8915 N   0  0  0  0  0  0  0  0  0  0  0  0
    1.3093    1.1450    2.1332 H   0  0  0  0  0  0  0  0  0  0  0  0
    0.5577    3.1119    2.4582 C   0  0  0  0  0  0  0  0  0  0  0  0
   -0.3986    3.3098    2.9475 H   0  0  0  0  0  0  0  0  0  0  0  0
    1.3619    3.2123    3.1886 H   0  0  0  0  0  0  0  0  0  0  0  0
    0.6974    3.8450    1.6614 H   0  0  0  0  0  0  0  0  0  0  0  0
  5  6  2  0  0  0  0
  5  7  1  0  0  0  0
  2  3  1  0  0  0  0
  2  4  1  0  0  0  0
  2  5  1  0  0  0  0
  1  2  1  0  0  0  0
 24 25  2  0  0  0  0
 24 26  1  0  0  0  0
 20 21  1  0  0  0  0
 20 22  1  0  0  0  0
 20 23  1  0  0  0  0
 17 18  1  0  0  0  0
 17 19  1  0  0  0  0
 17 20  1  0  0  0  0
 13 14  1  0  0  0  0
 13 15  1  0  0  0  0
 13 16  1  0  0  0  0
 11 12  1  0  0  0  0
 11 13  1  0  0  0  0
 11 17  1  0  0  0  0
  9 10  1  0  0  0  0
  9 11  1  0  0  0  0
  9 24  1  0  0  0  0
  7  8  1  0  0  0  0
  7  9  1  0  0  0  0
 28 29  1  0  0  0  0
 28 30  1  0  0  0  0
 28 31  1  0  0  0  0
 26 27  1  0  0  0  0
 26 28  1  0  0  0  0
M  END
$$$$
default_name
  -OEChem-02102213163D

 31 30  0     1  0  0  0  0  0999 V2000
   -3.0760   -3.6390    1.5496 H   0  0  0  0  0  0  0  0  0  0  0  0
   -3.0940   -2.6290    1.1426 C   0  0  0  0  0  0  0  0  0  0  0  0
   -3.7160   -1.9930    1.7706 H   0  0  0  0  0  0  0  0  0  0  0  0
   -3.4880   -2.6500    0.1286 H   0  0  0  0  0  0  0  0  0  0  0  0
   -1.6860   -2.0850    1.1196 C   0  0  0  0  0  0  0  0  0  0  0  0
   -0.7540   -2.7700    1.5226 O   0  0  0  0  0  0  0  0  0  0  0  0
   -1.5320   -0.8490    0.6496 N   0  0  0  0  0  0  0  0  0  0  0  0
   -2.3500   -0.3360    0.3566 H   0  0  0  0  0  0  0  0  0  0  0  0
   -0.2470   -0.1410    0.5576 C   0  0  1  0  0  0  0  0  0  0  0  0
    0.4572   -0.6505    1.2162 H   0  0  0  0  0  0  0  0  0  0  0  0
    0.3091   -0.2220   -0.8868 C   0  0  1  0  0  0  0  0  0  0  0  0
    1.3442    0.1235   -0.8528 H   0  0  0  0  0  0  0  0  0  0  0  0
    0.3133   -1.6615   -1.4359 C   0  0  0  0  0  0  0  0  0  0  0  0
   -0.7073   -2.0277   -1.5610 H   0  0  0  0  0  0  0  0  0  0  0  0
    0.8247   -1.6985   -2.3965 H   0  0  0  0  0  0  0  0  0  0  0  0
    0.8433   -2.3243   -0.7509 H   0  0  0  0  0  0  0  0  0  0  0  0
   -0.4620    0.7269   -1.8316 C   0  0  0  0  0  0  0  0  0  0  0  0
   -1.2147    1.2811   -1.2692 H   0  0  0  0  0  0  0  0  0  0  0  0
    0.2402    1.4420   -2.2600 H   0  0  0  0  0  0  0  0  0  0  0  0
   -1.1530    0.0087   -2.9986 C   0  0  0  0  0  0  0  0  0  0  0  0
   -1.9442   -0.6445   -2.6309 H   0  0  0  0  0  0  0  0  0  0  0  0
   -1.5965    0.7493   -3.6645 H   0  0  0  0  0  0  0  0  0  0  0  0
   -0.4251   -0.5799   -3.5580 H   0  0  0  0  0  0  0  0  0  0  0  0
   -0.3971    1.3008    1.0689 C   0  0  0  0  0  0  0  0  0  0  0  0
   -1.3643    1.9819    0.7311 O   0  0  0  0  0  0  0  0  0  0  0  0
    0.5522    1.7647    1.8915 N   0  0  0  0  0  0  0  0  0  0  0  0
    1.3093    1.1450    2.1332 H   0  0  0  0  0  0  0  0  0  0  0  0
    0.5577    3.1119    2.4582 C   0  0  0  0  0  0  0  0  0  0  0  0
   -0.3986    3.3098    2.9475 H   0  0  0  0  0  0  0  0  0  0  0  0
    1.3619    3.2123    3.1886 H   0  0  0  0  0  0  0  0  0  0  0  0
    0.6974    3.8450    1.6614 H   0  0  0  0  0  0  0  0  0  0  0  0
  5  6  2  0  0  0  0
  5  7  1  0  0  0  0
  2  3  1  0  0  0  0
  2  4  1  0  0  0  0
  2  5  1  0  0  0  0
  1  2  1  0  0  0  0
 24 25  2  0  0  0  0
 24 26  1  0  0  0  0
 20 21  1  0  0  0  0
 20 22  1  0  0  0  0
 20 23  1  0  0  0  0
 17 18  1  0  0  0  0
 17 19  1  0  0  0  0
 17 20  1  0  0  0  0
 13 14  1  0  0  0  0
 13 15  1  0  0  0  0
 13 16  1  0  0  0  0
 11 12  1  0  0  0  0
 11 13  1  0  0  0  0
 11 17  1  0  0  0  0
  9 10  1  0  0  0  0
  9 11  1  0  0  0  0
  9 24  1  0  0  0  0
  7  8  1  0  0  0  0
  7  9  1  0  0  0  0
 28 29  1  0  0  0  0
 28 30  1  0  0  0  0
 28 31  1  0  0  0  0
 26 27  1  0  0  0  0
 26 28  1  0  0  0  0
M  END
$$$$
default_name
  -OEChem-02102213163D

 31 30  0     1  0  0  0  0  0999 V2000
   -3.0760   -3.6390    1.5496 H   0  0  0  0  0  0  0  0  0  0  0  0
   -3.0940   -2.6290    1.1426 C   0  0  0  0  0  0  0  0  0  0  0  0
   -3.7160   -1.9930    1.7706 H   0  0  0  0  0  0  0  0  0  0  0  0
   -3.4880   -2.6500    0.1286 H   0  0  0  0  0  0  0  0  0  0  0  0
   -1.6860   -2.0850    1.1196 C   0  0  0  0  0  0  0  0  0  0  0  0
   -0.7540   -2.7700    1.5226 O   0  0  0  0  0  0  0  0  0  0  0  0
   -1.5320   -0.8490    0.6496 N   0  0  0  0  0  0  0  0  0  0  0  0
   -2.3500   -0.3360    0.3566 H   0  0  0  0  0  0  0  0  0  0  0  0
   -0.2470   -0.1410    0.5576 C   0  0  1  0  0  0  0  0  0  0  0  0
    0.4572   -0.6505    1.2162 H   0  0  0  0  0  0  0  0  0  0  0  0
    0.3091   -0.2220   -0.8868 C   0  0  1  0  0  0  0  0  0  0  0  0
    1.3442    0.1235   -0.8528 H   0  0  0  0  0  0  0  0  0  0  0  0
    0.3133   -1.6615   -1.4359 C   0  0  0  0  0  0  0  0  0  0  0  0
   -0.7073   -2.0277   -1.5610 H   0  0  0  0  0  0  0  0  0  0  0  0
    0.8247   -1.6985   -2.3965 H   0  0  0  0  0  0  0  0  0  0  0  0
    0.8433   -2.3243   -0.7509 H   0  0  0  0  0  0  0  0  0  0  0  0
   -0.4620    0.7269   -1.8316 C   0  0  0  0  0  0  0  0  0  0  0  0
   -1.0183    1.4618   -1.2481 H   0  0  0  0  0  0  0  0  0  0  0  0
    0.2553    1.2586   -2.4566 H   0  0  0  0  0  0  0  0  0  0  0  0
   -1.4391    0.0047   -2.7691 C   0  0  0  0  0  0  0  0  0  0  0  0
   -2.2443   -0.4584   -2.1990 H   0  0  0  0  0  0  0  0  0  0  0  0
   -1.8745    0.7269   -3.4601 H   0  0  0  0  0  0  0  0  0  0  0  0
   -0.9115   -0.7593   -3.3411 H   0  0  0  0  0  0  0  0  0  0  0  0
   -0.3971    1.3008    1.0689 C   0  0  0  0  0  0  0  0  0  0  0  0
   -1.3643    1.9819    0.7311 O   0  0  0  0  0  0  0  0  0  0  0  0
    0.5522    1.7647    1.8915 N   0  0  0  0  0  0  0  0  0  0  0  0
    1.3093    1.1450    2.1332 H   0  0  0  0  0  0  0  0  0  0  0  0
    0.5577    3.1119    2.4582 C   0  0  0  0  0  0  0  0  0  0  0  0
   -0.3986    3.3098    2.9475 H   0  0  0  0  0  0  0  0  0  0  0  0
    1.3619    3.2123    3.1886 H   0  0  0  0  0  0  0  0  0  0  0  0
    0.6974    3.8450    1.6614 H   0  0  0  0  0  0  0  0  0  0  0  0
  5  6  2  0  0  0  0
  5  7  1  0  0  0  0
  2  3  1  0  0  0  0
  2  4  1  0  0  0  0
  2  5  1  0  0  0  0
  1  2  1  0  0  0  0
 24 25  2  0  0  0  0
 24 26  1  0  0  0  0
 20 21  1  0  0  0  0
 20 22  1  0  0  0  0
 20 23  1  0  0  0  0
 17 18  1  0  0  0  0
 17 19  1  0  0  0  0
 17 20  1  0  0  0  0
 13 14  1  0  0  0  0
 13 15  1  0  0  0  0
 13 16  1  0  0  0  0
 11 12  1  0  0  0  0
 11 13  1  0  0  0  0
 11 17  1  0  0  0  0
  9 10  1  0  0  0  0
  9 11  1  0  0  0  0
  9 24  1  0  0  0  0
  7  8  1  0  0  0  0
  7  9  1  0  0  0  0
 28 29  1  0  0  0  0
 28 30  1  0  0  0  0
 28 31  1  0  0  0  0
 26 27  1  0  0  0  0
 26 28  1  0  0  0  0
M  END
$$$$
default_name
  -OEChem-02102213163D

 31 30  0     1  0  0  0  0  0999 V2000
   -3.0760   -3.6390    1.5496 H   0  0  0  0  0  0  0  0  0  0  0  0
   -3.0940   -2.6290    1.1426 C   0  0  0  0  0  0  0  0  0  0  0  0
   -3.7160   -1.9930    1.7706 H   0  0  0  0  0  0  0  0  0  0  0  0
   -3.4880   -2.6500    0.1286 H   0  0  0  0  0  0  0  0  0  0  0  0
   -1.6860   -2.0850    1.1196 C   0  0  0  0  0  0  0  0  0  0  0  0
   -0.7540   -2.7700    1.5226 O   0  0  0  0  0  0  0  0  0  0  0  0
   -1.5320   -0.8490    0.6496 N   0  0  0  0  0  0  0  0  0  0  0  0
   -2.3500   -0.3360    0.3566 H   0  0  0  0  0  0  0  0  0  0  0  0
   -0.2470   -0.1410    0.5576 C   0  0  1  0  0  0  0  0  0  0  0  0
    0.4572   -0.6505    1.2162 H   0  0  0  0  0  0  0  0  0  0  0  0
    0.3091   -0.2220   -0.8868 C   0  0  1  0  0  0  0  0  0  0  0  0
    1.3442    0.1235   -0.8528 H   0  0  0  0  0  0  0  0  0  0  0  0
    0.3133   -1.6615   -1.4359 C   0  0  0  0  0  0  0  0  0  0  0  0
   -0.7073   -2.0277   -1.5610 H   0  0  0  0  0  0  0  0  0  0  0  0
    0.8247   -1.6985   -2.3965 H   0  0  0  0  0  0  0  0  0  0  0  0
    0.8433   -2.3243   -0.7509 H   0  0  0  0  0  0  0  0  0  0  0  0
   -0.4620    0.7269   -1.8316 C   0  0  0  0  0  0  0  0  0  0  0  0
   -0.7966    1.6079   -1.2822 H   0  0  0  0  0  0  0  0  0  0  0  0
    0.2097    1.0535   -2.6253 H   0  0  0  0  0  0  0  0  0  0  0  0
   -1.6796    0.0757   -2.5014 C   0  0  0  0  0  0  0  0  0  0  0  0
   -2.4361   -0.1753   -1.7581 H   0  0  0  0  0  0  0  0  0  0  0  0
   -2.1142    0.7756   -3.2155 H   0  0  0  0  0  0  0  0  0  0  0  0
   -1.3753   -0.8276   -3.0312 H   0  0  0  0  0  0  0  0  0  0  0  0
   -0.3971    1.3008    1.0689 C   0  0  0  0  0  0  0  0  0  0  0  0
   -1.3643    1.9819    0.7311 O   0  0  0  0  0  0  0  0  0  0  0  0
    0.5522    1.7647    1.8915 N   0  0  0  0  0  0  0  0  0  0  0  0
    1.3093    1.1450    2.1332 H   0  0  0  0  0  0  0  0  0  0  0  0
    0.5577    3.1119    2.4582 C   0  0  0  0  0  0  0  0  0  0  0  0
   -0.3986    3.3098    2.9475 H   0  0  0  0  0  0  0  0  0  0  0  0
    1.3619    3.2123    3.1886 H   0  0  0  0  0  0  0  0  0  0  0  0
    0.6974    3.8450    1.6614 H   0  0  0  0  0  0  0  0  0  0  0  0
  5  6  2  0  0  0  0
  5  7  1  0  0  0  0
  2  3  1  0  0  0  0
  2  4  1  0  0  0  0
  2  5  1  0  0  0  0
  1  2  1  0  0  0  0
 24 25  2  0  0  0  0
 24 26  1  0  0  0  0
 20 21  1  0  0  0  0
 20 22  1  0  0  0  0
 20 23  1  0  0  0  0
 17 18  1  0  0  0  0
 17 19  1  0  0  0  0
 17 20  1  0  0  0  0
 13 14  1  0  0  0  0
 13 15  1  0  0  0  0
 13 16  1  0  0  0  0
 11 12  1  0  0  0  0
 11 13  1  0  0  0  0
 11 17  1  0  0  0  0
  9 10  1  0  0  0  0
  9 11  1  0  0  0  0
  9 24  1  0  0  0  0
  7  8  1  0  0  0  0
  7  9  1  0  0  0  0
 28 29  1  0  0  0  0
 28 30  1  0  0  0  0
 28 31  1  0  0  0  0
 26 27  1  0  0  0  0
 26 28  1  0  0  0  0
M  END
$$$$
default_name
  -OEChem-02102213163D

 31 30  0     1  0  0  0  0  0999 V2000
   -3.0760   -3.6390    1.5496 H   0  0  0  0  0  0  0  0  0  0  0  0
   -3.0940   -2.6290    1.1426 C   0  0  0  0  0  0  0  0  0  0  0  0
   -3.7160   -1.9930    1.7706 H   0  0  0  0  0  0  0  0  0  0  0  0
   -3.4880   -2.6500    0.1286 H   0  0  0  0  0  0  0  0  0  0  0  0
   -1.6860   -2.0850    1.1196 C   0  0  0  0  0  0  0  0  0  0  0  0
   -0.7540   -2.7700    1.5226 O   0  0  0  0  0  0  0  0  0  0  0  0
   -1.5320   -0.8490    0.6496 N   0  0  0  0  0  0  0  0  0  0  0  0
   -2.3500   -0.3360    0.3566 H   0  0  0  0  0  0  0  0  0  0  0  0
   -0.2470   -0.1410    0.5576 C   0  0  1  0  0  0  0  0  0  0  0  0
    0.4572   -0.6505    1.2162 H   0  0  0  0  0  0  0  0  0  0  0  0
    0.3091   -0.2220   -0.8868 C   0  0  1  0  0  0  0  0  0  0  0  0
    1.3442    0.1235   -0.8528 H   0  0  0  0  0  0  0  0  0  0  0  0
    0.3133   -1.6615   -1.4359 C   0  0  0  0  0  0  0  0  0  0  0  0
   -0.7073   -2.0277   -1.5610 H   0  0  0  0  0  0  0  0  0  0  0  0
    0.8247   -1.6985   -2.3965 H   0  0  0  0  0  0  0  0  0  0  0  0
    0.8433   -2.3243   -0.7509 H   0  0  0  0  0  0  0  0  0  0  0  0
   -0.4620    0.7269   -1.8316 C   0  0  0  0  0  0  0  0  0  0  0  0
   -0.5648    1.7096   -1.3693 H   0  0  0  0  0  0  0  0  0  0  0  0
    0.1064    0.8409   -2.7546 H   0  0  0  0  0  0  0  0  0  0  0  0
   -1.8581    0.2170   -2.2138 C   0  0  0  0  0  0  0  0  0  0  0  0
   -2.5065    0.1854   -1.3384 H   0  0  0  0  0  0  0  0  0  0  0  0
   -2.2990    0.8922   -2.9475 H   0  0  0  0  0  0  0  0  0  0  0  0
   -1.7848   -0.7802   -2.6492 H   0  0  0  0  0  0  0  0  0  0  0  0
   -0.3971    1.3008    1.0689 C   0  0  0  0  0  0  0  0  0  0  0  0
   -1.3643    1.9819    0.7311 O   0  0  0  0  0  0  0  0  0  0  0  0
    0.5522    1.7647    1.8915 N   0  0  0  0  0  0  0  0  0  0  0  0
    1.3093    1.1450    2.1332 H   0  0  0  0  0  0  0  0  0  0  0  0
    0.5577    3.1119    2.4582 C   0  0  0  0  0  0  0  0  0  0  0  0
   -0.3986    3.3098    2.9475 H   0  0  0  0  0  0  0  0  0  0  0  0
    1.3619    3.2123    3.1886 H   0  0  0  0  0  0  0  0  0  0  0  0
    0.6974    3.8450    1.6614 H   0  0  0  0  0  0  0  0  0  0  0  0
  5  6  2  0  0  0  0
  5  7  1  0  0  0  0
  2  3  1  0  0  0  0
  2  4  1  0  0  0  0
  2  5  1  0  0  0  0
  1  2  1  0  0  0  0
 24 25  2  0  0  0  0
 24 26  1  0  0  0  0
 20 21  1  0  0  0  0
 20 22  1  0  0  0  0
 20 23  1  0  0  0  0
 17 18  1  0  0  0  0
 17 19  1  0  0  0  0
 17 20  1  0  0  0  0
 13 14  1  0  0  0  0
 13 15  1  0  0  0  0
 13 16  1  0  0  0  0
 11 12  1  0  0  0  0
 11 13  1  0  0  0  0
 11 17  1  0  0  0  0
  9 10  1  0  0  0  0
  9 11  1  0  0  0  0
  9 24  1  0  0  0  0
  7  8  1  0  0  0  0
  7  9  1  0  0  0  0
 28 29  1  0  0  0  0
 28 30  1  0  0  0  0
 28 31  1  0  0  0  0
 26 27  1  0  0  0  0
 26 28  1  0  0  0  0
M  END
$$$$
default_name
  -OEChem-02102213163D

 31 30  0     1  0  0  0  0  0999 V2000
   -3.0760   -3.6390    1.5496 H   0  0  0  0  0  0  0  0  0  0  0  0
   -3.0940   -2.6290    1.1426 C   0  0  0  0  0  0  0  0  0  0  0  0
   -3.7160   -1.9930    1.7706 H   0  0  0  0  0  0  0  0  0  0  0  0
   -3.4880   -2.6500    0.1286 H   0  0  0  0  0  0  0  0  0  0  0  0
   -1.6860   -2.0850    1.1196 C   0  0  0  0  0  0  0  0  0  0  0  0
   -0.7540   -2.7700    1.5226 O   0  0  0  0  0  0  0  0  0  0  0  0
   -1.5320   -0.8490    0.6496 N   0  0  0  0  0  0  0  0  0  0  0  0
   -2.3500   -0.3360    0.3566 H   0  0  0  0  0  0  0  0  0  0  0  0
   -0.2470   -0.1410    0.5576 C   0  0  1  0  0  0  0  0  0  0  0  0
    0.4572   -0.6505    1.2162 H   0  0  0  0  0  0  0  0  0  0  0  0
    0.3091   -0.2220   -0.8868 C   0  0  1  0  0  0  0  0  0  0  0  0
    1.3442    0.1235   -0.8528 H   0  0  0  0  0  0  0  0  0  0  0  0
    0.3133   -1.6615   -1.4359 C   0  0  0  0  0  0  0  0  0  0  0  0
   -0.7073   -2.0277   -1.5610 H   0  0  0  0  0  0  0  0  0  0  0  0
    0.8247   -1.6985   -2.3965 H   0  0  0  0  0  0  0  0  0  0  0  0
    0.8433   -2.3243   -0.7509 H   0  0  0  0  0  0  0  0  0  0  0  0
   -0.4620    0.7269   -1.8316 C   0  0  0  0  0  0  0  0  0  0  0  0
   -0.3387    1.7598   -1.5034 H   0  0  0  0  0  0  0  0  0  0  0  0
   -0.0476    0.6352   -2.8355 H   0  0  0  0  0  0  0  0  0  0  0  0
   -1.9625    0.4188   -1.9259 C   0  0  0  0  0  0  0  0  0  0  0  0
   -2.4507    0.5991   -0.9683 H   0  0  0  0  0  0  0  0  0  0  0  0
   -2.4166    1.0687   -2.6743 H   0  0  0  0  0  0  0  0  0  0  0  0
   -2.1122   -0.6202   -2.2213 H   0  0  0  0  0  0  0  0  0  0  0  0
   -0.3971    1.3008    1.0689 C   0  0  0  0  0  0  0  0  0  0  0  0
   -1.3643    1.9819    0.7311 O   0  0  0  0  0  0  0  0  0  0  0  0
    0.5522    1.7647    1.8915 N   0  0  0  0  0  0  0  0  0  0  0  0
    1.3093    1.1450    2.1332 H   0  0  0  0  0  0  0  0  0  0  0  0
    0.5577    3.1119    2.4582 C   0  0  0  0  0  0  0  0  0  0  0  0
   -0.3986    3.3098    2.9475 H   0  0  0  0  0  0  0  0  0  0  0  0
    1.3619    3.2123    3.1886 H   0  0  0  0  0  0  0  0  0  0  0  0
    0.6974    3.8450    1.6614 H   0  0  0  0  0  0  0  0  0  0  0  0
  5  6  2  0  0  0  0
  5  7  1  0  0  0  0
  2  3  1  0  0  0  0
  2  4  1  0  0  0  0
  2  5  1  0  0  0  0
  1  2  1  0  0  0  0
 24 25  2  0  0  0  0
 24 26  1  0  0  0  0
 20 21  1  0  0  0  0
 20 22  1  0  0  0  0
 20 23  1  0  0  0  0
 17 18  1  0  0  0  0
 17 19  1  0  0  0  0
 17 20  1  0  0  0  0
 13 14  1  0  0  0  0
 13 15  1  0  0  0  0
 13 16  1  0  0  0  0
 11 12  1  0  0  0  0
 11 13  1  0  0  0  0
 11 17  1  0  0  0  0
  9 10  1  0  0  0  0
  9 11  1  0  0  0  0
  9 24  1  0  0  0  0
  7  8  1  0  0  0  0
  7  9  1  0  0  0  0
 28 29  1  0  0  0  0
 28 30  1  0  0  0  0
 28 31  1  0  0  0  0
 26 27  1  0  0  0  0
 26 28  1  0  0  0  0
M  END
$$$$
default_name
  -OEChem-02102213163D

 31 30  0     1  0  0  0  0  0999 V2000
   -3.0760   -3.6390    1.5496 H   0  0  0  0  0  0  0  0  0  0  0  0
   -3.0940   -2.6290    1.1426 C   0  0  0  0  0  0  0  0  0  0  0  0
   -3.7160   -1.9930    1.7706 H   0  0  0  0  0  0  0  0  0  0  0  0
   -3.4880   -2.6500    0.1286 H   0  0  0  0  0  0  0  0  0  0  0  0
   -1.6860   -2.0850    1.1196 C   0  0  0  0  0  0  0  0  0  0  0  0
   -0.7540   -2.7700    1.5226 O   0  0  0  0  0  0  0  0  0  0  0  0
   -1.5320   -0.8490    0.6496 N   0  0  0  0  0  0  0  0  0  0  0  0
   -2.3500   -0.3360    0.3566 H   0  0  0  0  0  0  0  0  0  0  0  0
   -0.2470   -0.1410    0.5576 C   0  0  1  0  0  0  0  0  0  0  0  0
    0.4572   -0.6505    1.2162 H   0  0  0  0  0  0  0  0  0  0  0  0
    0.3091   -0.2220   -0.8868 C   0  0  1  0  0  0  0  0  0  0  0  0
    1.3442    0.1235   -0.8528 H   0  0  0  0  0  0  0  0  0  0  0  0
    0.3133   -1.6615   -1.4359 C   0  0  0  0  0  0  0  0  0  0  0  0
   -0.7073   -2.0277   -1.5610 H   0  0  0  0  0  0  0  0  0  0  0  0
    0.8247   -1.6985   -2.3965 H   0  0  0  0  0  0  0  0  0  0  0  0
    0.8433   -2.3243   -0.7509 H   0  0  0  0  0  0  0  0  0  0  0  0
   -0.4620    0.7269   -1.8316 C   0  0  0  0  0  0  0  0  0  0  0  0
   -0.1336    1.7553   -1.6754 H   0  0  0  0  0  0  0  0  0  0  0  0
   -0.2418    0.4504   -2.8626 H   0  0  0  0  0  0  0  0  0  0  0  0
   -1.9856    0.6675   -1.6572 C   0  0  0  0  0  0  0  0  0  0  0  0
   -2.2726    1.0378   -0.6732 H   0  0  0  0  0  0  0  0  0  0  0  0
   -2.4588    1.2931   -2.4145 H   0  0  0  0  0  0  0  0  0  0  0  0
   -2.3351   -0.3586   -1.7767 H   0  0  0  0  0  0  0  0  0  0  0  0
   -0.3971    1.3008    1.0689 C   0  0  0  0  0  0  0  0  0  0  0  0
   -1.3643    1.9819    0.7311 O   0  0  0  0  0  0  0  0  0  0  0  0
    0.5522    1.7647    1.8915 N   0  0  0  0  0  0  0  0  0  0  0  0
    1.3093    1.1450    2.1332 H   0  0  0  0  0  0  0  0  0  0  0  0
    0.5577    3.1119    2.4582 C   0  0  0  0  0  0  0  0  0  0  0  0
   -0.3986    3.3098    2.9475 H   0  0  0  0  0  0  0  0  0  0  0  0
    1.3619    3.2123    3.1886 H   0  0  0  0  0  0  0  0  0  0  0  0
    0.6974    3.8450    1.6614 H   0  0  0  0  0  0  0  0  0  0  0  0
  5  6  2  0  0  0  0
  5  7  1  0  0  0  0
  2  3  1  0  0  0  0
  2  4  1  0  0  0  0
  2  5  1  0  0  0  0
  1  2  1  0  0  0  0
 24 25  2  0  0  0  0
 24 26  1  0  0  0  0
 20 21  1  0  0  0  0
 20 22  1  0  0  0  0
 20 23  1  0  0  0  0
 17 18  1  0  0  0  0
 17 19  1  0  0  0  0
 17 20  1  0  0  0  0
 13 14  1  0  0  0  0
 13 15  1  0  0  0  0
 13 16  1  0  0  0  0
 11 12  1  0  0  0  0
 11 13  1  0  0  0  0
 11 17  1  0  0  0  0
  9 10  1  0  0  0  0
  9 11  1  0  0  0  0
  9 24  1  0  0  0  0
  7  8  1  0  0  0  0
  7  9  1  0  0  0  0
 28 29  1  0  0  0  0
 28 30  1  0  0  0  0
 28 31  1  0  0  0  0
 26 27  1  0  0  0  0
 26 28  1  0  0  0  0
M  END
$$$$
default_name
  -OEChem-02102213163D

 31 30  0     1  0  0  0  0  0999 V2000
   -3.0760   -3.6390    1.5496 H   0  0  0  0  0  0  0  0  0  0  0  0
   -3.0940   -2.6290    1.1426 C   0  0  0  0  0  0  0  0  0  0  0  0
   -3.7160   -1.9930    1.7706 H   0  0  0  0  0  0  0  0  0  0  0  0
   -3.4880   -2.6500    0.1286 H   0  0  0  0  0  0  0  0  0  0  0  0
   -1.6860   -2.0850    1.1196 C   0  0  0  0  0  0  0  0  0  0  0  0
   -0.7540   -2.7700    1.5226 O   0  0  0  0  0  0  0  0  0  0  0  0
   -1.5320   -0.8490    0.6496 N   0  0  0  0  0  0  0  0  0  0  0  0
   -2.3500   -0.3360    0.3566 H   0  0  0  0  0  0  0  0  0  0  0  0
   -0.2470   -0.1410    0.5576 C   0  0  1  0  0  0  0  0  0  0  0  0
    0.4572   -0.6505    1.2162 H   0  0  0  0  0  0  0  0  0  0  0  0
    0.3091   -0.2220   -0.8868 C   0  0  1  0  0  0  0  0  0  0  0  0
    1.3442    0.1235   -0.8528 H   0  0  0  0  0  0  0  0  0  0  0  0
    0.3133   -1.6615   -1.4359 C   0  0  0  0  0  0  0  0  0  0  0  0
   -0.7073   -2.0277   -1.5610 H   0  0  0  0  0  0  0  0  0  0  0  0
    0.8247   -1.6985   -2.3965 H   0  0  0  0  0  0  0  0  0  0  0  0
    0.8433   -2.3243   -0.7509 H   0  0  0  0  0  0  0  0  0  0  0  0
   -0.4620    0.7269   -1.8316 C   0  0  0  0  0  0  0  0  0  0  0  0
    0.0364    1.6963   -1.8735 H   0  0  0  0  0  0  0  0  0  0  0  0
   -0.4629    0.2991   -2.8341 H   0  0  0  0  0  0  0  0  0  0  0  0
   -1.9259    0.9460   -1.4262 C   0  0  0  0  0  0  0  0  0  0  0  0
   -1.9841    1.4714   -0.4731 H   0  0  0  0  0  0  0  0  0  0  0  0
   -2.4227    1.5500   -2.1858 H   0  0  0  0  0  0  0  0  0  0  0  0
   -2.4383   -0.0133   -1.3455 H   0  0  0  0  0  0  0  0  0  0  0  0
   -0.3971    1.3008    1.0689 C   0  0  0  0  0  0  0  0  0  0  0  0
   -1.3643    1.9819    0.7311 O   0  0  0  0  0  0  0  0  0  0  0  0
    0.5522    1.7647    1.8915 N   0  0  0  0  0  0  0  0  0  0  0  0
    1.3093    1.1450    2.1332 H   0  0  0  0  0  0  0  0  0  0  0  0
    0.5577    3.1119    2.4582 C   0  0  0  0  0  0  0  0  0  0  0  0
   -0.3986    3.3098    2.9475 H   0  0  0  0  0  0  0  0  0  0  0  0
    1.3619    3.2123    3.1886 H   0  0  0  0  0  0  0  0  0  0  0  0
    0.6974    3.8450    1.6614 H   0  0  0  0  0  0  0  0  0  0  0  0
  5  6  2  0  0  0  0
  5  7  1  0  0  0  0
  2  3  1  0  0  0  0
  2  4  1  0  0  0  0
  2  5  1  0  0  0  0
  1  2  1  0  0  0  0
 24 25  2  0  0  0  0
 24 26  1  0  0  0  0
 20 21  1  0  0  0  0
 20 22  1  0  0  0  0
 20 23  1  0  0  0  0
 17 18  1  0  0  0  0
 17 19  1  0  0  0  0
 17 20  1  0  0  0  0
 13 14  1  0  0  0  0
 13 15  1  0  0  0  0
 13 16  1  0  0  0  0
 11 12  1  0  0  0  0
 11 13  1  0  0  0  0
 11 17  1  0  0  0  0
  9 10  1  0  0  0  0
  9 11  1  0  0  0  0
  9 24  1  0  0  0  0
  7  8  1  0  0  0  0
  7  9  1  0  0  0  0
 28 29  1  0  0  0  0
 28 30  1  0  0  0  0
 28 31  1  0  0  0  0
 26 27  1  0  0  0  0
 26 28  1  0  0  0  0
M  END
$$$$
default_name
  -OEChem-02102213163D

 31 30  0     1  0  0  0  0  0999 V2000
   -3.0760   -3.6390    1.5496 H   0  0  0  0  0  0  0  0  0  0  0  0
   -3.0940   -2.6290    1.1426 C   0  0  0  0  0  0  0  0  0  0  0  0
   -3.7160   -1.9930    1.7706 H   0  0  0  0  0  0  0  0  0  0  0  0
   -3.4880   -2.6500    0.1286 H   0  0  0  0  0  0  0  0  0  0  0  0
   -1.6860   -2.0850    1.1196 C   0  0  0  0  0  0  0  0  0  0  0  0
   -0.7540   -2.7700    1.5226 O   0  0  0  0  0  0  0  0  0  0  0  0
   -1.5320   -0.8490    0.6496 N   0  0  0  0  0  0  0  0  0  0  0  0
   -2.3500   -0.3360    0.3566 H   0  0  0  0  0  0  0  0  0  0  0  0
   -0.2470   -0.1410    0.5576 C   0  0  1  0  0  0  0  0  0  0  0  0
    0.4572   -0.6505    1.2162 H   0  0  0  0  0  0  0  0  0  0  0  0
    0.3091   -0.2220   -0.8868 C   0  0  1  0  0  0  0  0  0  0  0  0
    1.3442    0.1235   -0.8528 H   0  0  0  0  0  0  0  0  0  0  0  0
    0.3133   -1.6615   -1.4359 C   0  0  0  0  0  0  0  0  0  0  0  0
   -0.7073   -2.0277   -1.5610 H   0  0  0  0  0  0  0  0  0  0  0  0
    0.8247   -1.6985   -2.3965 H   0  0  0  0  0  0  0  0  0  0  0  0
    0.8433   -2.3243   -0.7509 H   0  0  0  0  0  0  0  0  0  0  0  0
   -0.4620    0.7269   -1.8316 C   0  0  0  0  0  0  0  0  0  0  0  0
    0.1598    1.5867   -2.0843 H   0  0  0  0  0  0  0  0  0  0  0  0
   -0.6958    0.1916   -2.7518 H   0  0  0  0  0  0  0  0  0  0  0  0
   -1.7874    1.2355   -1.2485 C   0  0  0  0  0  0  0  0  0  0  0  0
   -1.6051    1.8704   -0.3817 H   0  0  0  0  0  0  0  0  0  0  0  0
   -2.3109    1.8221   -2.0039 H   0  0  0  0  0  0  0  0  0  0  0  0
   -2.4148    0.3924   -0.9572 H   0  0  0  0  0  0  0  0  0  0  0  0
   -0.3971    1.3008    1.0689 C   0  0  0  0  0  0  0  0  0  0  0  0
   -1.3643    1.9819    0.7311 O   0  0  0  0  0  0  0  0  0  0  0  0
    0.5522    1.7647    1.8915 N   0  0  0  0  0  0  0  0  0  0  0  0
    1.3093    1.1450    2.1332 H   0  0  0  0  0  0  0  0  0  0  0  0
    0.5577    3.1119    2.4582 C   0  0  0  0  0  0  0  0  0  0  0  0
   -0.3986    3.3098    2.9475 H   0  0  0  0  0  0  0  0  0  0  0  0
    1.3619    3.2123    3.1886 H   0  0  0  0  0  0  0  0  0  0  0  0
    0.6974    3.8450    1.6614 H   0  0  0  0  0  0  0  0  0  0  0  0
  5  6  2  0  0  0  0
  5  7  1  0  0  0  0
  2  3  1  0  0  0  0
  2  4  1  0  0  0  0
  2  5  1  0  0  0  0
  1  2  1  0  0  0  0
 24 25  2  0  0  0  0
 24 26  1  0  0  0  0
 20 21  1  0  0  0  0
 20 22  1  0  0  0  0
 20 23  1  0  0  0  0
 17 18  1  0  0  0  0
 17 19  1  0  0  0  0
 17 20  1  0  0  0  0
 13 14  1  0  0  0  0
 13 15  1  0  0  0  0
 13 16  1  0  0  0  0
 11 12  1  0  0  0  0
 11 13  1  0  0  0  0
 11 17  1  0  0  0  0
  9 10  1  0  0  0  0
  9 11  1  0  0  0  0
  9 24  1  0  0  0  0
  7  8  1  0  0  0  0
  7  9  1  0  0  0  0
 28 29  1  0  0  0  0
 28 30  1  0  0  0  0
 28 31  1  0  0  0  0
 26 27  1  0  0  0  0
 26 28  1  0  0  0  0
M  END
$$$$
default_name
  -OEChem-02102213163D

 31 30  0     1  0  0  0  0  0999 V2000
   -3.0760   -3.6390    1.5496 H   0  0  0  0  0  0  0  0  0  0  0  0
   -3.0940   -2.6290    1.1426 C   0  0  0  0  0  0  0  0  0  0  0  0
   -3.7160   -1.9930    1.7706 H   0  0  0  0  0  0  0  0  0  0  0  0
   -3.4880   -2.6500    0.1286 H   0  0  0  0  0  0  0  0  0  0  0  0
   -1.6860   -2.0850    1.1196 C   0  0  0  0  0  0  0  0  0  0  0  0
   -0.7540   -2.7700    1.5226 O   0  0  0  0  0  0  0  0  0  0  0  0
   -1.5320   -0.8490    0.6496 N   0  0  0  0  0  0  0  0  0  0  0  0
   -2.3500   -0.3360    0.3566 H   0  0  0  0  0  0  0  0  0  0  0  0
   -0.2470   -0.1410    0.5576 C   0  0  1  0  0  0  0  0  0  0  0  0
    0.4572   -0.6505    1.2162 H   0  0  0  0  0  0  0  0  0  0  0  0
    0.3091   -0.2220   -0.8868 C   0  0  1  0  0  0  0  0  0  0  0  0
    1.3442    0.1235   -0.8528 H   0  0  0  0  0  0  0  0  0  0  0  0
    0.3133   -1.6615   -1.4359 C   0  0  0  0  0  0  0  0  0  0  0  0
   -0.7073   -2.0277   -1.5610 H   0  0  0  0  0  0  0  0  0  0  0  0
    0.8247   -1.6985   -2.3965 H   0  0  0  0  0  0  0  0  0  0  0  0
    0.8433   -2.3243   -0.7509 H   0  0  0  0  0  0  0  0  0  0  0  0
   -0.4620    0.7269   -1.8316 C   0  0  0  0  0  0  0  0  0  0  0  0
    0.2282    1.4342   -2.2933 H   0  0  0  0  0  0  0  0  0  0  0  0
   -0.9248    0.1354   -2.6215 H   0  0  0  0  0  0  0  0  0  0  0  0
   -1.5796    1.5161   -1.1363 C   0  0  0  0  0  0  0  0  0  0  0  0
   -1.1613    2.2077   -0.4052 H   0  0  0  0  0  0  0  0  0  0  0  0
   -2.1309    2.0906   -1.8811 H   0  0  0  0  0  0  0  0  0  0  0  0
   -2.2662    0.8306   -0.6383 H   0  0  0  0  0  0  0  0  0  0  0  0
   -0.3971    1.3008    1.0689 C   0  0  0  0  0  0  0  0  0  0  0  0
   -1.3643    1.9819    0.7311 O   0  0  0  0  0  0  0  0  0  0  0  0
    0.5522    1.7647    1.8915 N   0  0  0  0  0  0  0  0  0  0  0  0
    1.3093    1.1450    2.1332 H   0  0  0  0  0  0  0  0  0  0  0  0
    0.5577    3.1119    2.4582 C   0  0  0  0  0  0  0  0  0  0  0  0
   -0.3986    3.3098    2.9475 H   0  0  0  0  0  0  0  0  0  0  0  0
    1.3619    3.2123    3.1886 H   0  0  0  0  0  0  0  0  0  0  0  0
    0.6974    3.8450    1.6614 H   0  0  0  0  0  0  0  0  0  0  0  0
  5  6  2  0  0  0  0
  5  7  1  0  0  0  0
  2  3  1  0  0  0  0
  2  4  1  0  0  0  0
  2  5  1  0  0  0  0
  1  2  1  0  0  0  0
 24 25  2  0  0  0  0
 24 26  1  0  0  0  0
 20 21  1  0  0  0  0
 20 22  1  0  0  0  0
 20 23  1  0  0  0  0
 17 18  1  0  0  0  0
 17 19  1  0  0  0  0
 17 20  1  0  0  0  0
 13 14  1  0  0  0  0
 13 15  1  0  0  0  0
 13 16  1  0  0  0  0
 11 12  1  0  0  0  0
 11 13  1  0  0  0  0
 11 17  1  0  0  0  0
  9 10  1  0  0  0  0
  9 11  1  0  0  0  0
  9 24  1  0  0  0  0
  7  8  1  0  0  0  0
  7  9  1  0  0  0  0
 28 29  1  0  0  0  0
 28 30  1  0  0  0  0
 28 31  1  0  0  0  0
 26 27  1  0  0  0  0
 26 28  1  0  0  0  0
M  END
$$$$
default_name
  -OEChem-02102213163D

 31 30  0     1  0  0  0  0  0999 V2000
   -3.0760   -3.6390    1.5496 H   0  0  0  0  0  0  0  0  0  0  0  0
   -3.0940   -2.6290    1.1426 C   0  0  0  0  0  0  0  0  0  0  0  0
   -3.7160   -1.9930    1.7706 H   0  0  0  0  0  0  0  0  0  0  0  0
   -3.4880   -2.6500    0.1286 H   0  0  0  0  0  0  0  0  0  0  0  0
   -1.6860   -2.0850    1.1196 C   0  0  0  0  0  0  0  0  0  0  0  0
   -0.7540   -2.7700    1.5226 O   0  0  0  0  0  0  0  0  0  0  0  0
   -1.5320   -0.8490    0.6496 N   0  0  0  0  0  0  0  0  0  0  0  0
   -2.3500   -0.3360    0.3566 H   0  0  0  0  0  0  0  0  0  0  0  0
   -0.2470   -0.1410    0.5576 C   0  0  1  0  0  0  0  0  0  0  0  0
    0.4572   -0.6505    1.2162 H   0  0  0  0  0  0  0  0  0  0  0  0
    0.3091   -0.2220   -0.8868 C   0  0  1  0  0  0  0  0  0  0  0  0
    1.3442    0.1235   -0.8528 H   0  0  0  0  0  0  0  0  0  0  0  0
    0.3133   -1.6615   -1.4359 C   0  0  0  0  0  0  0  0  0  0  0  0
   -0.7073   -2.0277   -1.5610 H   0  0  0  0  0  0  0  0  0  0  0  0
    0.8247   -1.6985   -2.3965 H   0  0  0  0  0  0  0  0  0  0  0  0
    0.8433   -2.3243   -0.7509 H   0  0  0  0  0  0  0  0  0  0  0  0
   -0.4620    0.7269   -1.8316 C   0  0  0  0  0  0  0  0  0  0  0  0
    0.2369    1.2490   -2.4864 H   0  0  0  0  0  0  0  0  0  0  0  0
   -1.1341    0.1340   -2.4519 H   0  0  0  0  0  0  0  0  0  0  0  0
   -1.3166    1.7688   -1.0972 C   0  0  0  0  0  0  0  0  0  0  0  0
   -0.6830    2.4602   -0.5420 H   0  0  0  0  0  0  0  0  0  0  0  0
   -1.8950    2.3374   -1.8257 H   0  0  0  0  0  0  0  0  0  0  0  0
   -2.0027    1.2716   -0.4105 H   0  0  0  0  0  0  0  0  0  0  0  0
   -0.3971    1.3008    1.0689 C   0  0  0  0  0  0  0  0  0  0  0  0
   -1.3643    1.9819    0.7311 O   0  0  0  0  0  0  0  0  0  0  0  0
    0.5522    1.7647    1.8915 N   0  0  0  0  0  0  0  0  0  0  0  0
    1.3093    1.1450    2.1332 H   0  0  0  0  0  0  0  0  0  0  0  0
    0.5577    3.1119    2.4582 C   0  0  0  0  0  0  0  0  0  0  0  0
   -0.3986    3.3098    2.9475 H   0  0  0  0  0  0  0  0  0  0  0  0
    1.3619    3.2123    3.1886 H   0  0  0  0  0  0  0  0  0  0  0  0
    0.6974    3.8450    1.6614 H   0  0  0  0  0  0  0  0  0  0  0  0
  5  6  2  0  0  0  0
  5  7  1  0  0  0  0
  2  3  1  0  0  0  0
  2  4  1  0  0  0  0
  2  5  1  0  0  0  0
  1  2  1  0  0  0  0
 24 25  2  0  0  0  0
 24 26  1  0  0  0  0
 20 21  1  0  0  0  0
 20 22  1  0  0  0  0
 20 23  1  0  0  0  0
 17 18  1  0  0  0  0
 17 19  1  0  0  0  0
 17 20  1  0  0  0  0
 13 14  1  0  0  0  0
 13 15  1  0  0  0  0
 13 16  1  0  0  0  0
 11 12  1  0  0  0  0
 11 13  1  0  0  0  0
 11 17  1  0  0  0  0
  9 10  1  0  0  0  0
  9 11  1  0  0  0  0
  9 24  1  0  0  0  0
  7  8  1  0  0  0  0
  7  9  1  0  0  0  0
 28 29  1  0  0  0  0
 28 30  1  0  0  0  0
 28 31  1  0  0  0  0
 26 27  1  0  0  0  0
 26 28  1  0  0  0  0
M  END
$$$$
default_name
  -OEChem-02102213163D

 31 30  0     1  0  0  0  0  0999 V2000
   -3.0760   -3.6390    1.5496 H   0  0  0  0  0  0  0  0  0  0  0  0
   -3.0940   -2.6290    1.1426 C   0  0  0  0  0  0  0  0  0  0  0  0
   -3.7160   -1.9930    1.7706 H   0  0  0  0  0  0  0  0  0  0  0  0
   -3.4880   -2.6500    0.1286 H   0  0  0  0  0  0  0  0  0  0  0  0
   -1.6860   -2.0850    1.1196 C   0  0  0  0  0  0  0  0  0  0  0  0
   -0.7540   -2.7700    1.5226 O   0  0  0  0  0  0  0  0  0  0  0  0
   -1.5320   -0.8490    0.6496 N   0  0  0  0  0  0  0  0  0  0  0  0
   -2.3500   -0.3360    0.3566 H   0  0  0  0  0  0  0  0  0  0  0  0
   -0.2470   -0.1410    0.5576 C   0  0  1  0  0  0  0  0  0  0  0  0
    0.4572   -0.6505    1.2162 H   0  0  0  0  0  0  0  0  0  0  0  0
    0.3091   -0.2220   -0.8868 C   0  0  1  0  0  0  0  0  0  0  0  0
    1.3442    0.1235   -0.8528 H   0  0  0  0  0  0  0  0  0  0  0  0
    0.3133   -1.6615   -1.4359 C   0  0  0  0  0  0  0  0  0  0  0  0
   -0.7073   -2.0277   -1.5610 H   0  0  0  0  0  0  0  0  0  0  0  0
    0.8247   -1.6985   -2.3965 H   0  0  0  0  0  0  0  0  0  0  0  0
    0.8433   -2.3243   -0.7509 H   0  0  0  0  0  0  0  0  0  0  0  0
   -0.4620    0.7269   -1.8316 C   0  0  0  0  0  0  0  0  0  0  0  0
    0.1853    1.0438   -2.6504 H   0  0  0  0  0  0  0  0  0  0  0  0
   -1.3096    0.1878   -2.2547 H   0  0  0  0  0  0  0  0  0  0  0  0
   -1.0164    1.9763   -1.1338 C   0  0  0  0  0  0  0  0  0  0  0  0
   -0.2028    2.6108   -0.7827 H   0  0  0  0  0  0  0  0  0  0  0  0
   -1.6193    2.5457   -1.8416 H   0  0  0  0  0  0  0  0  0  0  0  0
   -1.6421    1.6853   -0.2893 H   0  0  0  0  0  0  0  0  0  0  0  0
   -0.3971    1.3008    1.0689 C   0  0  0  0  0  0  0  0  0  0  0  0
   -1.3643    1.9819    0.7311 O   0  0  0  0  0  0  0  0  0  0  0  0
    0.5522    1.7647    1.8915 N   0  0  0  0  0  0  0  0  0  0  0  0
    1.3093    1.1450    2.1332 H   0  0  0  0  0  0  0  0  0  0  0  0
    0.5577    3.1119    2.4582 C   0  0  0  0  0  0  0  0  0  0  0  0
   -0.3986    3.3098    2.9475 H   0  0  0  0  0  0  0  0  0  0  0  0
    1.3619    3.2123    3.1886 H   0  0  0  0  0  0  0  0  0  0  0  0
    0.6974    3.8450    1.6614 H   0  0  0  0  0  0  0  0  0  0  0  0
  5  6  2  0  0  0  0
  5  7  1  0  0  0  0
  2  3  1  0  0  0  0
  2  4  1  0  0  0  0
  2  5  1  0  0  0  0
  1  2  1  0  0  0  0
 24 25  2  0  0  0  0
 24 26  1  0  0  0  0
 20 21  1  0  0  0  0
 20 22  1  0  0  0  0
 20 23  1  0  0  0  0
 17 18  1  0  0  0  0
 17 19  1  0  0  0  0
 17 20  1  0  0  0  0
 13 14  1  0  0  0  0
 13 15  1  0  0  0  0
 13 16  1  0  0  0  0
 11 12  1  0  0  0  0
 11 13  1  0  0  0  0
 11 17  1  0  0  0  0
  9 10  1  0  0  0  0
  9 11  1  0  0  0  0
  9 24  1  0  0  0  0
  7  8  1  0  0  0  0
  7  9  1  0  0  0  0
 28 29  1  0  0  0  0
 28 30  1  0  0  0  0
 28 31  1  0  0  0  0
 26 27  1  0  0  0  0
 26 28  1  0  0  0  0
M  END
$$$$
default_name
  -OEChem-02102213163D

 31 30  0     1  0  0  0  0  0999 V2000
   -3.0760   -3.6390    1.5496 H   0  0  0  0  0  0  0  0  0  0  0  0
   -3.0940   -2.6290    1.1426 C   0  0  0  0  0  0  0  0  0  0  0  0
   -3.7160   -1.9930    1.7706 H   0  0  0  0  0  0  0  0  0  0  0  0
   -3.4880   -2.6500    0.1286 H   0  0  0  0  0  0  0  0  0  0  0  0
   -1.6860   -2.0850    1.1196 C   0  0  0  0  0  0  0  0  0  0  0  0
   -0.7540   -2.7700    1.5226 O   0  0  0  0  0  0  0  0  0  0  0  0
   -1.5320   -0.8490    0.6496 N   0  0  0  0  0  0  0  0  0  0  0  0
   -2.3500   -0.3360    0.3566 H   0  0  0  0  0  0  0  0  0  0  0  0
   -0.2470   -0.1410    0.5576 C   0  0  1  0  0  0  0  0  0  0  0  0
    0.4572   -0.6505    1.2162 H   0  0  0  0  0  0  0  0  0  0  0  0
    0.3091   -0.2220   -0.8868 C   0  0  1  0  0  0  0  0  0  0  0  0
    1.3442    0.1235   -0.8528 H   0  0  0  0  0  0  0  0  0  0  0  0
    0.3133   -1.6615   -1.4359 C   0  0  0  0  0  0  0  0  0  0  0  0
   -0.7073   -2.0277   -1.5610 H   0  0  0  0  0  0  0  0  0  0  0  0
    0.8247   -1.6985   -2.3965 H   0  0  0  0  0  0  0  0  0  0  0  0
    0.8433   -2.3243   -0.7509 H   0  0  0  0  0  0  0  0  0  0  0  0
   -0.4620    0.7269   -1.8316 C   0  0  0  0  0  0  0  0  0  0  0  0
    0.0769    0.8326   -2.7740 H   0  0  0  0  0  0  0  0  0  0  0  0
   -1.4392    0.2930   -2.0432 H   0  0  0  0  0  0  0  0  0  0  0  0
   -0.6994    2.1245   -1.2437 C   0  0  0  0  0  0  0  0  0  0  0  0
    0.2466    2.6492   -1.1111 H   0  0  0  0  0  0  0  0  0  0  0  0
   -1.3226    2.7011   -1.9277 H   0  0  0  0  0  0  0  0  0  0  0  0
   -1.2091    2.0435   -0.2830 H   0  0  0  0  0  0  0  0  0  0  0  0
   -0.3971    1.3008    1.0689 C   0  0  0  0  0  0  0  0  0  0  0  0
   -1.3643    1.9819    0.7311 O   0  0  0  0  0  0  0  0  0  0  0  0
    0.5522    1.7647    1.8915 N   0  0  0  0  0  0  0  0  0  0  0  0
    1.3093    1.1450    2.1332 H   0  0  0  0  0  0  0  0  0  0  0  0
    0.5577    3.1119    2.4582 C   0  0  0  0  0  0  0  0  0  0  0  0
   -0.3986    3.3098    2.9475 H   0  0  0  0  0  0  0  0  0  0  0  0
    1.3619    3.2123    3.1886 H   0  0  0  0  0  0  0  0  0  0  0  0
    0.6974    3.8450    1.6614 H   0  0  0  0  0  0  0  0  0  0  0  0
  5  6  2  0  0  0  0
  5  7  1  0  0  0  0
  2  3  1  0  0  0  0
  2  4  1  0  0  0  0
  2  5  1  0  0  0  0
  1  2  1  0  0  0  0
 24 25  2  0  0  0  0
 24 26  1  0  0  0  0
 20 21  1  0  0  0  0
 20 22  1  0  0  0  0
 20 23  1  0  0  0  0
 17 18  1  0  0  0  0
 17 19  1  0  0  0  0
 17 20  1  0  0  0  0
 13 14  1  0  0  0  0
 13 15  1  0  0  0  0
 13 16  1  0  0  0  0
 11 12  1  0  0  0  0
 11 13  1  0  0  0  0
 11 17  1  0  0  0  0
  9 10  1  0  0  0  0
  9 11  1  0  0  0  0
  9 24  1  0  0  0  0
  7  8  1  0  0  0  0
  7  9  1  0  0  0  0
 28 29  1  0  0  0  0
 28 30  1  0  0  0  0
 28 31  1  0  0  0  0
 26 27  1  0  0  0  0
 26 28  1  0  0  0  0
M  END
$$$$
default_name
  -OEChem-02102213163D

 31 30  0     1  0  0  0  0  0999 V2000
   -3.0760   -3.6390    1.5496 H   0  0  0  0  0  0  0  0  0  0  0  0
   -3.0940   -2.6290    1.1426 C   0  0  0  0  0  0  0  0  0  0  0  0
   -3.7160   -1.9930    1.7706 H   0  0  0  0  0  0  0  0  0  0  0  0
   -3.4880   -2.6500    0.1286 H   0  0  0  0  0  0  0  0  0  0  0  0
   -1.6860   -2.0850    1.1196 C   0  0  0  0  0  0  0  0  0  0  0  0
   -0.7540   -2.7700    1.5226 O   0  0  0  0  0  0  0  0  0  0  0  0
   -1.5320   -0.8490    0.6496 N   0  0  0  0  0  0  0  0  0  0  0  0
   -2.3500   -0.3360    0.3566 H   0  0  0  0  0  0  0  0  0  0  0  0
   -0.2470   -0.1410    0.5576 C   0  0  1  0  0  0  0  0  0  0  0  0
    0.4572   -0.6505    1.2162 H   0  0  0  0  0  0  0  0  0  0  0  0
    0.3091   -0.2220   -0.8868 C   0  0  1  0  0  0  0  0  0  0  0  0
    1.3442    0.1235   -0.8528 H   0  0  0  0  0  0  0  0  0  0  0  0
    0.3133   -1.6615   -1.4359 C   0  0  0  0  0  0  0  0  0  0  0  0
   -0.7073   -2.0277   -1.5610 H   0  0  0  0  0  0  0  0  0  0  0  0
    0.8247   -1.6985   -2.3965 H   0  0  0  0  0  0  0  0  0  0  0  0
    0.8433   -2.3243   -0.7509 H   0  0  0  0  0  0  0  0  0  0  0  0
   -0.4620    0.7269   -1.8316 C   0  0  0  0  0  0  0  0  0  0  0  0
   -0.0809    0.6297   -2.8490 H   0  0  0  0  0  0  0  0  0  0  0  0
   -1.5142    0.4424   -1.8319 H   0  0  0  0  0  0  0  0  0  0  0  0
   -0.3872    2.2033   -1.4194 C   0  0  0  0  0  0  0  0  0  0  0  0
    0.6346    2.5727   -1.5046 H   0  0  0  0  0  0  0  0  0  0  0  0
   -1.0251    2.7932   -2.0781 H   0  0  0  0  0  0  0  0  0  0  0  0
   -0.7332    2.3218   -0.3920 H   0  0  0  0  0  0  0  0  0  0  0  0
   -0.3971    1.3008    1.0689 C   0  0  0  0  0  0  0  0  0  0  0  0
   -1.3643    1.9819    0.7311 O   0  0  0  0  0  0  0  0  0  0  0  0
    0.5522    1.7647    1.8915 N   0  0  0  0  0  0  0  0  0  0  0  0
    1.3093    1.1450    2.1332 H   0  0  0  0  0  0  0  0  0  0  0  0
    0.5577    3.1119    2.4582 C   0  0  0  0  0  0  0  0  0  0  0  0
   -0.3986    3.3098    2.9475 H   0  0  0  0  0  0  0  0  0  0  0  0
    1.3619    3.2123    3.1886 H   0  0  0  0  0  0  0  0  0  0  0  0
    0.6974    3.8450    1.6614 H   0  0  0  0  0  0  0  0  0  0  0  0
  5  6  2  0  0  0  0
  5  7  1  0  0  0  0
  2  3  1  0  0  0  0
  2  4  1  0  0  0  0
  2  5  1  0  0  0  0
  1  2  1  0  0  0  0
 24 25  2  0  0  0  0
 24 26  1  0  0  0  0
 20 21  1  0  0  0  0
 20 22  1  0  0  0  0
 20 23  1  0  0  0  0
 17 18  1  0  0  0  0
 17 19  1  0  0  0  0
 17 20  1  0  0  0  0
 13 14  1  0  0  0  0
 13 15  1  0  0  0  0
 13 16  1  0  0  0  0
 11 12  1  0  0  0  0
 11 13  1  0  0  0  0
 11 17  1  0  0  0  0
  9 10  1  0  0  0  0
  9 11  1  0  0  0  0
  9 24  1  0  0  0  0
  7  8  1  0  0  0  0
  7  9  1  0  0  0  0
 28 29  1  0  0  0  0
 28 30  1  0  0  0  0
 28 31  1  0  0  0  0
 26 27  1  0  0  0  0
 26 28  1  0  0  0  0
M  END
$$$$
default_name
  -OEChem-02102213163D

 31 30  0     1  0  0  0  0  0999 V2000
   -3.0760   -3.6390    1.5496 H   0  0  0  0  0  0  0  0  0  0  0  0
   -3.0940   -2.6290    1.1426 C   0  0  0  0  0  0  0  0  0  0  0  0
   -3.7160   -1.9930    1.7706 H   0  0  0  0  0  0  0  0  0  0  0  0
   -3.4880   -2.6500    0.1286 H   0  0  0  0  0  0  0  0  0  0  0  0
   -1.6860   -2.0850    1.1196 C   0  0  0  0  0  0  0  0  0  0  0  0
   -0.7540   -2.7700    1.5226 O   0  0  0  0  0  0  0  0  0  0  0  0
   -1.5320   -0.8490    0.6496 N   0  0  0  0  0  0  0  0  0  0  0  0
   -2.3500   -0.3360    0.3566 H   0  0  0  0  0  0  0  0  0  0  0  0
   -0.2470   -0.1410    0.5576 C   0  0  1  0  0  0  0  0  0  0  0  0
    0.4572   -0.6505    1.2162 H   0  0  0  0  0  0  0  0  0  0  0  0
    0.3091   -0.2220   -0.8868 C   0  0  1  0  0  0  0  0  0  0  0  0
    1.3442    0.1235   -0.8528 H   0  0  0  0  0  0  0  0  0  0  0  0
    0.3133   -1.6615   -1.4359 C   0  0  0  0  0  0  0  0  0  0  0  0
   -0.7073   -2.0277   -1.5610 H   0  0  0  0  0  0  0  0  0  0  0  0
    0.8247   -1.6985   -2.3965 H   0  0  0  0  0  0  0  0  0  0  0  0
    0.8433   -2.3243   -0.7509 H   0  0  0  0  0  0  0  0  0  0  0  0
   -0.4620    0.7269   -1.8316 C   0  0  0  0  0  0  0  0  0  0  0  0
   -0.2772    0.4491   -2.8701 H   0  0  0  0  0  0  0  0  0  0  0  0
   -1.5294    0.6259   -1.6352 H   0  0  0  0  0  0  0  0  0  0  0  0
   -0.1011    2.2073   -1.6489 C   0  0  0  0  0  0  0  0  0  0  0  0
    0.9347    2.3866   -1.9365 H   0  0  0  0  0  0  0  0  0  0  0  0
   -0.7470    2.8156   -2.2825 H   0  0  0  0  0  0  0  0  0  0  0  0
   -0.2467    2.5012   -0.6089 H   0  0  0  0  0  0  0  0  0  0  0  0
   -0.3971    1.3008    1.0689 C   0  0  0  0  0  0  0  0  0  0  0  0
   -1.3643    1.9819    0.7311 O   0  0  0  0  0  0  0  0  0  0  0  0
    0.5522    1.7647    1.8915 N   0  0  0  0  0  0  0  0  0  0  0  0
    1.3093    1.1450    2.1332 H   0  0  0  0  0  0  0  0  0  0  0  0
    0.5577    3.1119    2.4582 C   0  0  0  0  0  0  0  0  0  0  0  0
   -0.3986    3.3098    2.9475 H   0  0  0  0  0  0  0  0  0  0  0  0
    1.3619    3.2123    3.1886 H   0  0  0  0  0  0  0  0  0  0  0  0
    0.6974    3.8450    1.6614 H   0  0  0  0  0  0  0  0  0  0  0  0
  5  6  2  0  0  0  0
  5  7  1  0  0  0  0
  2  3  1  0  0  0  0
  2  4  1  0  0  0  0
  2  5  1  0  0  0  0
  1  2  1  0  0  0  0
 24 25  2  0  0  0  0
 24 26  1  0  0  0  0
 20 21  1  0  0  0  0
 20 22  1  0  0  0  0
 20 23  1  0  0  0  0
 17 18  1  0  0  0  0
 17 19  1  0  0  0  0
 17 20  1  0  0  0  0
 13 14  1  0  0  0  0
 13 15  1  0  0  0  0
 13 16  1  0  0  0  0
 11 12  1  0  0  0  0
 11 13  1  0  0  0  0
 11 17  1  0  0  0  0
  9 10  1  0  0  0  0
  9 11  1  0  0  0  0
  9 24  1  0  0  0  0
  7  8  1  0  0  0  0
  7  9  1  0  0  0  0
 28 29  1  0  0  0  0
 28 30  1  0  0  0  0
 28 31  1  0  0  0  0
 26 27  1  0  0  0  0
 26 28  1  0  0  0  0
M  END
$$$$
default_name
  -OEChem-02102213163D

 31 30  0     1  0  0  0  0  0999 V2000
   -3.0760   -3.6390    1.5496 H   0  0  0  0  0  0  0  0  0  0  0  0
   -3.0940   -2.6290    1.1426 C   0  0  0  0  0  0  0  0  0  0  0  0
   -3.7160   -1.9930    1.7706 H   0  0  0  0  0  0  0  0  0  0  0  0
   -3.4880   -2.6500    0.1286 H   0  0  0  0  0  0  0  0  0  0  0  0
   -1.6860   -2.0850    1.1196 C   0  0  0  0  0  0  0  0  0  0  0  0
   -0.7540   -2.7700    1.5226 O   0  0  0  0  0  0  0  0  0  0  0  0
   -1.5320   -0.8490    0.6496 N   0  0  0  0  0  0  0  0  0  0  0  0
   -2.3500   -0.3360    0.3566 H   0  0  0  0  0  0  0  0  0  0  0  0
   -0.2470   -0.1410    0.5576 C   0  0  1  0  0  0  0  0  0  0  0  0
    0.4572   -0.6505    1.2162 H   0  0  0  0  0  0  0  0  0  0  0  0
    0.3091   -0.2220   -0.8868 C   0  0  1  0  0  0  0  0  0  0  0  0
    1.3442    0.1235   -0.8528 H   0  0  0  0  0  0  0  0  0  0  0  0
    0.3133   -1.6615   -1.4359 C   0  0  0  0  0  0  0  0  0  0  0  0
   -0.7073   -2.0277   -1.5610 H   0  0  0  0  0  0  0  0  0  0  0  0
    0.8247   -1.6985   -2.3965 H   0  0  0  0  0  0  0  0  0  0  0  0
    0.8433   -2.3243   -0.7509 H   0  0  0  0  0  0  0  0  0  0  0  0
   -0.4620    0.7269   -1.8316 C   0  0  0  0  0  0  0  0  0  0  0  0
   -0.4989    0.3030   -2.8360 H   0  0  0  0  0  0  0  0  0  0  0  0
   -1.4838    0.8309   -1.4665 H   0  0  0  0  0  0  0  0  0  0  0  0
    0.1394    2.1363   -1.9166 C   0  0  0  0  0  0  0  0  0  0  0  0
    1.1265    2.1035   -2.3773 H   0  0  0  0  0  0  0  0  0  0  0  0
   -0.5074    2.7668   -2.5271 H   0  0  0  0  0  0  0  0  0  0  0  0
    0.2170    2.5696   -0.9188 H   0  0  0  0  0  0  0  0  0  0  0  0
   -0.3971    1.3008    1.0689 C   0  0  0  0  0  0  0  0  0  0  0  0
   -1.3643    1.9819    0.7311 O   0  0  0  0  0  0  0  0  0  0  0  0
    0.5522    1.7647    1.8915 N   0  0  0  0  0  0  0  0  0  0  0  0
    1.3093    1.1450    2.1332 H   0  0  0  0  0  0  0  0  0  0  0  0
    0.5577    3.1119    2.4582 C   0  0  0  0  0  0  0  0  0  0  0  0
   -0.3986    3.3098    2.9475 H   0  0  0  0  0  0  0  0  0  0  0  0
    1.3619    3.2123    3.1886 H   0  0  0  0  0  0  0  0  0  0  0  0
    0.6974    3.8450    1.6614 H   0  0  0  0  0  0  0  0  0  0  0  0
  5  6  2  0  0  0  0
  5  7  1  0  0  0  0
  2  3  1  0  0  0  0
  2  4  1  0  0  0  0
  2  5  1  0  0  0  0
  1  2  1  0  0  0  0
 24 25  2  0  0  0  0
 24 26  1  0  0  0  0
 20 21  1  0  0  0  0
 20 22  1  0  0  0  0
 20 23  1  0  0  0  0
 17 18  1  0  0  0  0
 17 19  1  0  0  0  0
 17 20  1  0  0  0  0
 13 14  1  0  0  0  0
 13 15  1  0  0  0  0
 13 16  1  0  0  0  0
 11 12  1  0  0  0  0
 11 13  1  0  0  0  0
 11 17  1  0  0  0  0
  9 10  1  0  0  0  0
  9 11  1  0  0  0  0
  9 24  1  0  0  0  0
  7  8  1  0  0  0  0
  7  9  1  0  0  0  0
 28 29  1  0  0  0  0
 28 30  1  0  0  0  0
 28 31  1  0  0  0  0
 26 27  1  0  0  0  0
 26 28  1  0  0  0  0
M  END
$$$$
default_name
  -OEChem-02102213163D

 31 30  0     1  0  0  0  0  0999 V2000
   -3.0760   -3.6390    1.5496 H   0  0  0  0  0  0  0  0  0  0  0  0
   -3.0940   -2.6290    1.1426 C   0  0  0  0  0  0  0  0  0  0  0  0
   -3.7160   -1.9930    1.7706 H   0  0  0  0  0  0  0  0  0  0  0  0
   -3.4880   -2.6500    0.1286 H   0  0  0  0  0  0  0  0  0  0  0  0
   -1.6860   -2.0850    1.1196 C   0  0  0  0  0  0  0  0  0  0  0  0
   -0.7540   -2.7700    1.5226 O   0  0  0  0  0  0  0  0  0  0  0  0
   -1.5320   -0.8490    0.6496 N   0  0  0  0  0  0  0  0  0  0  0  0
   -2.3500   -0.3360    0.3566 H   0  0  0  0  0  0  0  0  0  0  0  0
   -0.2470   -0.1410    0.5576 C   0  0  1  0  0  0  0  0  0  0  0  0
    0.4572   -0.6505    1.2162 H   0  0  0  0  0  0  0  0  0  0  0  0
    0.3091   -0.2220   -0.8868 C   0  0  1  0  0  0  0  0  0  0  0  0
    1.3442    0.1235   -0.8528 H   0  0  0  0  0  0  0  0  0  0  0  0
    0.3133   -1.6615   -1.4359 C   0  0  0  0  0  0  0  0  0  0  0  0
   -0.7073   -2.0277   -1.5610 H   0  0  0  0  0  0  0  0  0  0  0  0
    0.8247   -1.6985   -2.3965 H   0  0  0  0  0  0  0  0  0  0  0  0
    0.8433   -2.3243   -0.7509 H   0  0  0  0  0  0  0  0  0  0  0  0
   -0.4620    0.7269   -1.8316 C   0  0  0  0  0  0  0  0  0  0  0  0
   -0.7307    0.2013   -2.7489 H   0  0  0  0  0  0  0  0  0  0  0  0
   -1.3804    1.0435   -1.3373 H   0  0  0  0  0  0  0  0  0  0  0  0
    0.3179    1.9950   -2.2042 C   0  0  0  0  0  0  0  0  0  0  0  0
    1.1969    1.7428   -2.7971 H   0  0  0  0  0  0  0  0  0  0  0  0
   -0.3225    2.6503   -2.7951 H   0  0  0  0  0  0  0  0  0  0  0  0
    0.6266    2.5221   -1.3008 H   0  0  0  0  0  0  0  0  0  0  0  0
   -0.3971    1.3008    1.0689 C   0  0  0  0  0  0  0  0  0  0  0  0
   -1.3643    1.9819    0.7311 O   0  0  0  0  0  0  0  0  0  0  0  0
    0.5522    1.7647    1.8915 N   0  0  0  0  0  0  0  0  0  0  0  0
    1.3093    1.1450    2.1332 H   0  0  0  0  0  0  0  0  0  0  0  0
    0.5577    3.1119    2.4582 C   0  0  0  0  0  0  0  0  0  0  0  0
   -0.3986    3.3098    2.9475 H   0  0  0  0  0  0  0  0  0  0  0  0
    1.3619    3.2123    3.1886 H   0  0  0  0  0  0  0  0  0  0  0  0
    0.6974    3.8450    1.6614 H   0  0  0  0  0  0  0  0  0  0  0  0
  5  6  2  0  0  0  0
  5  7  1  0  0  0  0
  2  3  1  0  0  0  0
  2  4  1  0  0  0  0
  2  5  1  0  0  0  0
  1  2  1  0  0  0  0
 24 25  2  0  0  0  0
 24 26  1  0  0  0  0
 20 21  1  0  0  0  0
 20 22  1  0  0  0  0
 20 23  1  0  0  0  0
 17 18  1  0  0  0  0
 17 19  1  0  0  0  0
 17 20  1  0  0  0  0
 13 14  1  0  0  0  0
 13 15  1  0  0  0  0
 13 16  1  0  0  0  0
 11 12  1  0  0  0  0
 11 13  1  0  0  0  0
 11 17  1  0  0  0  0
  9 10  1  0  0  0  0
  9 11  1  0  0  0  0
  9 24  1  0  0  0  0
  7  8  1  0  0  0  0
  7  9  1  0  0  0  0
 28 29  1  0  0  0  0
 28 30  1  0  0  0  0
 28 31  1  0  0  0  0
 26 27  1  0  0  0  0
 26 28  1  0  0  0  0
M  END
$$$$
default_name
  -OEChem-02102213163D

 31 30  0     1  0  0  0  0  0999 V2000
   -3.0760   -3.6390    1.5496 H   0  0  0  0  0  0  0  0  0  0  0  0
   -3.0940   -2.6290    1.1426 C   0  0  0  0  0  0  0  0  0  0  0  0
   -3.7160   -1.9930    1.7706 H   0  0  0  0  0  0  0  0  0  0  0  0
   -3.4880   -2.6500    0.1286 H   0  0  0  0  0  0  0  0  0  0  0  0
   -1.6860   -2.0850    1.1196 C   0  0  0  0  0  0  0  0  0  0  0  0
   -0.7540   -2.7700    1.5226 O   0  0  0  0  0  0  0  0  0  0  0  0
   -1.5320   -0.8490    0.6496 N   0  0  0  0  0  0  0  0  0  0  0  0
   -2.3500   -0.3360    0.3566 H   0  0  0  0  0  0  0  0  0  0  0  0
   -0.2470   -0.1410    0.5576 C   0  0  1  0  0  0  0  0  0  0  0  0
    0.4572   -0.6505    1.2162 H   0  0  0  0  0  0  0  0  0  0  0  0
    0.3091   -0.2220   -0.8868 C   0  0  1  0  0  0  0  0  0  0  0  0
    1.3442    0.1235   -0.8528 H   0  0  0  0  0  0  0  0  0  0  0  0
    0.3133   -1.6615   -1.4359 C   0  0  0  0  0  0  0  0  0  0  0  0
   -0.7073   -2.0277   -1.5610 H   0  0  0  0  0  0  0  0  0  0  0  0
    0.8247   -1.6985   -2.3965 H   0  0  0  0  0  0  0  0  0  0  0  0
    0.8433   -2.3243   -0.7509 H   0  0  0  0  0  0  0  0  0  0  0  0
   -0.4620    0.7269   -1.8316 C   0  0  0  0  0  0  0  0  0  0  0  0
   -0.9568    0.1510   -2.6148 H   0  0  0  0  0  0  0  0  0  0  0  0
   -1.2265    1.2493   -1.2564 H   0  0  0  0  0  0  0  0  0  0  0  0
    0.4222    1.7932   -2.4921 C   0  0  0  0  0  0  0  0  0  0  0  0
    1.1411    1.3291   -3.1671 H   0  0  0  0  0  0  0  0  0  0  0  0
   -0.2050    2.4738   -3.0684 H   0  0  0  0  0  0  0  0  0  0  0  0
    0.9539    2.3622   -1.7287 H   0  0  0  0  0  0  0  0  0  0  0  0
   -0.3971    1.3008    1.0689 C   0  0  0  0  0  0  0  0  0  0  0  0
   -1.3643    1.9819    0.7311 O   0  0  0  0  0  0  0  0  0  0  0  0
    0.5522    1.7647    1.8915 N   0  0  0  0  0  0  0  0  0  0  0  0
    1.3093    1.1450    2.1332 H   0  0  0  0  0  0  0  0  0  0  0  0
    0.5577    3.1119    2.4582 C   0  0  0  0  0  0  0  0  0  0  0  0
   -0.3986    3.3098    2.9475 H   0  0  0  0  0  0  0  0  0  0  0  0
    1.3619    3.2123    3.1886 H   0  0  0  0  0  0  0  0  0  0  0  0
    0.6974    3.8450    1.6614 H   0  0  0  0  0  0  0  0  0  0  0  0
  5  6  2  0  0  0  0
  5  7  1  0  0  0  0
  2  3  1  0  0  0  0
  2  4  1  0  0  0  0
  2  5  1  0  0  0  0
  1  2  1  0  0  0  0
 24 25  2  0  0  0  0
 24 26  1  0  0  0  0
 20 21  1  0  0  0  0
 20 22  1  0  0  0  0
 20 23  1  0  0  0  0
 17 18  1  0  0  0  0
 17 19  1  0  0  0  0
 17 20  1  0  0  0  0
 13 14  1  0  0  0  0
 13 15  1  0  0  0  0
 13 16  1  0  0  0  0
 11 12  1  0  0  0  0
 11 13  1  0  0  0  0
 11 17  1  0  0  0  0
  9 10  1  0  0  0  0
  9 11  1  0  0  0  0
  9 24  1  0  0  0  0
  7  8  1  0  0  0  0
  7  9  1  0  0  0  0
 28 29  1  0  0  0  0
 28 30  1  0  0  0  0
 28 31  1  0  0  0  0
 26 27  1  0  0  0  0
 26 28  1  0  0  0  0
M  END
$$$$
default_name
  -OEChem-02102213163D

 31 30  0     1  0  0  0  0  0999 V2000
   -3.0760   -3.6390    1.5496 H   0  0  0  0  0  0  0  0  0  0  0  0
   -3.0940   -2.6290    1.1426 C   0  0  0  0  0  0  0  0  0  0  0  0
   -3.7160   -1.9930    1.7706 H   0  0  0  0  0  0  0  0  0  0  0  0
   -3.4880   -2.6500    0.1286 H   0  0  0  0  0  0  0  0  0  0  0  0
   -1.6860   -2.0850    1.1196 C   0  0  0  0  0  0  0  0  0  0  0  0
   -0.7540   -2.7700    1.5226 O   0  0  0  0  0  0  0  0  0  0  0  0
   -1.5320   -0.8490    0.6496 N   0  0  0  0  0  0  0  0  0  0  0  0
   -2.3500   -0.3360    0.3566 H   0  0  0  0  0  0  0  0  0  0  0  0
   -0.2470   -0.1410    0.5576 C   0  0  1  0  0  0  0  0  0  0  0  0
    0.4572   -0.6505    1.2162 H   0  0  0  0  0  0  0  0  0  0  0  0
    0.3091   -0.2220   -0.8868 C   0  0  1  0  0  0  0  0  0  0  0  0
    1.3442    0.1235   -0.8528 H   0  0  0  0  0  0  0  0  0  0  0  0
    0.3133   -1.6615   -1.4359 C   0  0  0  0  0  0  0  0  0  0  0  0
   -0.7073   -2.0277   -1.5610 H   0  0  0  0  0  0  0  0  0  0  0  0
    0.8247   -1.6985   -2.3965 H   0  0  0  0  0  0  0  0  0  0  0  0
    0.8433   -2.3243   -0.7509 H   0  0  0  0  0  0  0  0  0  0  0  0
   -0.4620    0.7269   -1.8316 C   0  0  0  0  0  0  0  0  0  0  0  0
   -1.1619    0.1556   -2.4428 H   0  0  0  0  0  0  0  0  0  0  0  0
   -1.0323    1.4341   -1.2293 H   0  0  0  0  0  0  0  0  0  0  0  0
    0.4454    1.5445   -2.7608 C   0  0  0  0  0  0  0  0  0  0  0  0
    0.9629    0.8904   -3.4623 H   0  0  0  0  0  0  0  0  0  0  0  0
   -0.1628    2.2494   -3.3281 H   0  0  0  0  0  0  0  0  0  0  0  0
    1.1768    2.1006   -2.1733 H   0  0  0  0  0  0  0  0  0  0  0  0
   -0.3971    1.3008    1.0689 C   0  0  0  0  0  0  0  0  0  0  0  0
   -1.3643    1.9819    0.7311 O   0  0  0  0  0  0  0  0  0  0  0  0
    0.5522    1.7647    1.8915 N   0  0  0  0  0  0  0  0  0  0  0  0
    1.3093    1.1450    2.1332 H   0  0  0  0  0  0  0  0  0  0  0  0
    0.5577    3.1119    2.4582 C   0  0  0  0  0  0  0  0  0  0  0  0
   -0.3986    3.3098    2.9475 H   0  0  0  0  0  0  0  0  0  0  0  0
    1.3619    3.2123    3.1886 H   0  0  0  0  0  0  0  0  0  0  0  0
    0.6974    3.8450    1.6614 H   0  0  0  0  0  0  0  0  0  0  0  0
  5  6  2  0  0  0  0
  5  7  1  0  0  0  0
  2  3  1  0  0  0  0
  2  4  1  0  0  0  0
  2  5  1  0  0  0  0
  1  2  1  0  0  0  0
 24 25  2  0  0  0  0
 24 26  1  0  0  0  0
 20 21  1  0  0  0  0
 20 22  1  0  0  0  0
 20 23  1  0  0  0  0
 17 18  1  0  0  0  0
 17 19  1  0  0  0  0
 17 20  1  0  0  0  0
 13 14  1  0  0  0  0
 13 15  1  0  0  0  0
 13 16  1  0  0  0  0
 11 12  1  0  0  0  0
 11 13  1  0  0  0  0
 11 17  1  0  0  0  0
  9 10  1  0  0  0  0
  9 11  1  0  0  0  0
  9 24  1  0  0  0  0
  7  8  1  0  0  0  0
  7  9  1  0  0  0  0
 28 29  1  0  0  0  0
 28 30  1  0  0  0  0
 28 31  1  0  0  0  0
 26 27  1  0  0  0  0
 26 28  1  0  0  0  0
M  END
$$$$
default_name
  -OEChem-02102213163D

 31 30  0     1  0  0  0  0  0999 V2000
   -3.0760   -3.6390    1.5496 H   0  0  0  0  0  0  0  0  0  0  0  0
   -3.0940   -2.6290    1.1426 C   0  0  0  0  0  0  0  0  0  0  0  0
   -3.7160   -1.9930    1.7706 H   0  0  0  0  0  0  0  0  0  0  0  0
   -3.4880   -2.6500    0.1286 H   0  0  0  0  0  0  0  0  0  0  0  0
   -1.6860   -2.0850    1.1196 C   0  0  0  0  0  0  0  0  0  0  0  0
   -0.7540   -2.7700    1.5226 O   0  0  0  0  0  0  0  0  0  0  0  0
   -1.5320   -0.8490    0.6496 N   0  0  0  0  0  0  0  0  0  0  0  0
   -2.3500   -0.3360    0.3566 H   0  0  0  0  0  0  0  0  0  0  0  0
   -0.2470   -0.1410    0.5576 C   0  0  1  0  0  0  0  0  0  0  0  0
    0.4572   -0.6505    1.2162 H   0  0  0  0  0  0  0  0  0  0  0  0
    0.3091   -0.2220   -0.8868 C   0  0  1  0  0  0  0  0  0  0  0  0
    1.3442    0.1235   -0.8528 H   0  0  0  0  0  0  0  0  0  0  0  0
    0.3133   -1.6615   -1.4359 C   0  0  0  0  0  0  0  0  0  0  0  0
   -0.7073   -2.0277   -1.5610 H   0  0  0  0  0  0  0  0  0  0  0  0
    0.8247   -1.6985   -2.3965 H   0  0  0  0  0  0  0  0  0  0  0  0
    0.8433   -2.3243   -0.7509 H   0  0  0  0  0  0  0  0  0  0  0  0
   -0.4620    0.7269   -1.8316 C   0  0  0  0  0  0  0  0  0  0  0  0
   -1.3319    0.2146   -2.2447 H   0  0  0  0  0  0  0  0  0  0  0  0
   -0.8112    1.5853   -1.2578 H   0  0  0  0  0  0  0  0  0  0  0  0
    0.3856    1.2660   -2.9918 C   0  0  0  0  0  0  0  0  0  0  0  0
    0.6745    0.4568   -3.6623 H   0  0  0  0  0  0  0  0  0  0  0  0
   -0.1989    1.9924   -3.5568 H   0  0  0  0  0  0  0  0  0  0  0  0
    1.2800    1.7552   -2.6045 H   0  0  0  0  0  0  0  0  0  0  0  0
   -0.3971    1.3008    1.0689 C   0  0  0  0  0  0  0  0  0  0  0  0
   -1.3643    1.9819    0.7311 O   0  0  0  0  0  0  0  0  0  0  0  0
    0.5522    1.7647    1.8915 N   0  0  0  0  0  0  0  0  0  0  0  0
    1.3093    1.1450    2.1332 H   0  0  0  0  0  0  0  0  0  0  0  0
    0.5577    3.1119    2.4582 C   0  0  0  0  0  0  0  0  0  0  0  0
   -0.3986    3.3098    2.9475 H   0  0  0  0  0  0  0  0  0  0  0  0
    1.3619    3.2123    3.1886 H   0  0  0  0  0  0  0  0  0  0  0  0
    0.6974    3.8450    1.6614 H   0  0  0  0  0  0  0  0  0  0  0  0
  5  6  2  0  0  0  0
  5  7  1  0  0  0  0
  2  3  1  0  0  0  0
  2  4  1  0  0  0  0
  2  5  1  0  0  0  0
  1  2  1  0  0  0  0
 24 25  2  0  0  0  0
 24 26  1  0  0  0  0
 20 21  1  0  0  0  0
 20 22  1  0  0  0  0
 20 23  1  0  0  0  0
 17 18  1  0  0  0  0
 17 19  1  0  0  0  0
 17 20  1  0  0  0  0
 13 14  1  0  0  0  0
 13 15  1  0  0  0  0
 13 16  1  0  0  0  0
 11 12  1  0  0  0  0
 11 13  1  0  0  0  0
 11 17  1  0  0  0  0
  9 10  1  0  0  0  0
  9 11  1  0  0  0  0
  9 24  1  0  0  0  0
  7  8  1  0  0  0  0
  7  9  1  0  0  0  0
 28 29  1  0  0  0  0
 28 30  1  0  0  0  0
 28 31  1  0  0  0  0
 26 27  1  0  0  0  0
 26 28  1  0  0  0  0
M  END
$$$$
default_name
  -OEChem-02102213163D

 31 30  0     1  0  0  0  0  0999 V2000
   -3.0760   -3.6390    1.5496 H   0  0  0  0  0  0  0  0  0  0  0  0
   -3.0940   -2.6290    1.1426 C   0  0  0  0  0  0  0  0  0  0  0  0
   -3.7160   -1.9930    1.7706 H   0  0  0  0  0  0  0  0  0  0  0  0
   -3.4880   -2.6500    0.1286 H   0  0  0  0  0  0  0  0  0  0  0  0
   -1.6860   -2.0850    1.1196 C   0  0  0  0  0  0  0  0  0  0  0  0
   -0.7540   -2.7700    1.5226 O   0  0  0  0  0  0  0  0  0  0  0  0
   -1.5320   -0.8490    0.6496 N   0  0  0  0  0  0  0  0  0  0  0  0
   -2.3500   -0.3360    0.3566 H   0  0  0  0  0  0  0  0  0  0  0  0
   -0.2470   -0.1410    0.5576 C   0  0  1  0  0  0  0  0  0  0  0  0
    0.4572   -0.6505    1.2162 H   0  0  0  0  0  0  0  0  0  0  0  0
    0.3091   -0.2220   -0.8868 C   0  0  1  0  0  0  0  0  0  0  0  0
    1.3442    0.1235   -0.8528 H   0  0  0  0  0  0  0  0  0  0  0  0
    0.3133   -1.6615   -1.4359 C   0  0  0  0  0  0  0  0  0  0  0  0
   -0.7073   -2.0277   -1.5610 H   0  0  0  0  0  0  0  0  0  0  0  0
    0.8247   -1.6985   -2.3965 H   0  0  0  0  0  0  0  0  0  0  0  0
    0.8433   -2.3243   -0.7509 H   0  0  0  0  0  0  0  0  0  0  0  0
   -0.4620    0.7269   -1.8316 C   0  0  0  0  0  0  0  0  0  0  0  0
   -1.4554    0.3241   -2.0339 H   0  0  0  0  0  0  0  0  0  0  0  0
   -0.5782    1.6928   -1.3401 H   0  0  0  0  0  0  0  0  0  0  0  0
    0.2472    0.9765   -3.1695 C   0  0  0  0  0  0  0  0  0  0  0  0
    0.2955    0.0578   -3.7538 H   0  0  0  0  0  0  0  0  0  0  0  0
   -0.3107    1.7204   -3.7387 H   0  0  0  0  0  0  0  0  0  0  0  0
    1.2566    1.3496   -2.9928 H   0  0  0  0  0  0  0  0  0  0  0  0
   -0.3971    1.3008    1.0689 C   0  0  0  0  0  0  0  0  0  0  0  0
   -1.3643    1.9819    0.7311 O   0  0  0  0  0  0  0  0  0  0  0  0
    0.5522    1.7647    1.8915 N   0  0  0  0  0  0  0  0  0  0  0  0
    1.3093    1.1450    2.1332 H   0  0  0  0  0  0  0  0  0  0  0  0
    0.5577    3.1119    2.4582 C   0  0  0  0  0  0  0  0  0  0  0  0
   -0.3986    3.3098    2.9475 H   0  0  0  0  0  0  0  0  0  0  0  0
    1.3619    3.2123    3.1886 H   0  0  0  0  0  0  0  0  0  0  0  0
    0.6974    3.8450    1.6614 H   0  0  0  0  0  0  0  0  0  0  0  0
  5  6  2  0  0  0  0
  5  7  1  0  0  0  0
  2  3  1  0  0  0  0
  2  4  1  0  0  0  0
  2  5  1  0  0  0  0
  1  2  1  0  0  0  0
 24 25  2  0  0  0  0
 24 26  1  0  0  0  0
 20 21  1  0  0  0  0
 20 22  1  0  0  0  0
 20 23  1  0  0  0  0
 17 18  1  0  0  0  0
 17 19  1  0  0  0  0
 17 20  1  0  0  0  0
 13 14  1  0  0  0  0
 13 15  1  0  0  0  0
 13 16  1  0  0  0  0
 11 12  1  0  0  0  0
 11 13  1  0  0  0  0
 11 17  1  0  0  0  0
  9 10  1  0  0  0  0
  9 11  1  0  0  0  0
  9 24  1  0  0  0  0
  7  8  1  0  0  0  0
  7  9  1  0  0  0  0
 28 29  1  0  0  0  0
 28 30  1  0  0  0  0
 28 31  1  0  0  0  0
 26 27  1  0  0  0  0
 26 28  1  0  0  0  0
M  END
$$$$
default_name
  -OEChem-02102213163D

 31 30  0     1  0  0  0  0  0999 V2000
   -3.0760   -3.6390    1.5496 H   0  0  0  0  0  0  0  0  0  0  0  0
   -3.0940   -2.6290    1.1426 C   0  0  0  0  0  0  0  0  0  0  0  0
   -3.7160   -1.9930    1.7706 H   0  0  0  0  0  0  0  0  0  0  0  0
   -3.4880   -2.6500    0.1286 H   0  0  0  0  0  0  0  0  0  0  0  0
   -1.6860   -2.0850    1.1196 C   0  0  0  0  0  0  0  0  0  0  0  0
   -0.7540   -2.7700    1.5226 O   0  0  0  0  0  0  0  0  0  0  0  0
   -1.5320   -0.8490    0.6496 N   0  0  0  0  0  0  0  0  0  0  0  0
   -2.3500   -0.3360    0.3566 H   0  0  0  0  0  0  0  0  0  0  0  0
   -0.2470   -0.1410    0.5576 C   0  0  1  0  0  0  0  0  0  0  0  0
    0.4572   -0.6505    1.2162 H   0  0  0  0  0  0  0  0  0  0  0  0
    0.3091   -0.2220   -0.8868 C   0  0  1  0  0  0  0  0  0  0  0  0
    1.3957   -0.1417   -0.8181 H   0  0  0  0  0  0  0  0  0  0  0  0
   -0.0194   -1.5635   -1.5695 C   0  0  0  0  0  0  0  0  0  0  0  0
   -1.0947   -1.6590   -1.7308 H   0  0  0  0  0  0  0  0  0  0  0  0
    0.4918   -1.6353   -2.5282 H   0  0  0  0  0  0  0  0  0  0  0  0
    0.3183   -2.3944   -0.9491 H   0  0  0  0  0  0  0  0  0  0  0  0
   -0.1873    0.9673   -1.7393 C   0  0  0  0  0  0  0  0  0  0  0  0
   -1.2779    0.9818   -1.7585 H   0  0  0  0  0  0  0  0  0  0  0  0
    0.1590    1.8946   -1.2829 H   0  0  0  0  0  0  0  0  0  0  0  0
    0.3278    0.9484   -3.1848 C   0  0  0  0  0  0  0  0  0  0  0  0
   -0.0777    0.0924   -3.7240 H   0  0  0  0  0  0  0  0  0  0  0  0
    0.0099    1.8597   -3.6917 H   0  0  0  0  0  0  0  0  0  0  0  0
    1.4173    0.9008   -3.1919 H   0  0  0  0  0  0  0  0  0  0  0  0
   -0.3971    1.3008    1.0689 C   0  0  0  0  0  0  0  0  0  0  0  0
   -1.3643    1.9819    0.7311 O   0  0  0  0  0  0  0  0  0  0  0  0
    0.5522    1.7647    1.8915 N   0  0  0  0  0  0  0  0  0  0  0  0
    1.3093    1.1450    2.1332 H   0  0  0  0  0  0  0  0  0  0  0  0
    0.5577    3.1119    2.4582 C   0  0  0  0  0  0  0  0  0  0  0  0
   -0.3986    3.3098    2.9475 H   0  0  0  0  0  0  0  0  0  0  0  0
    1.3619    3.2123    3.1886 H   0  0  0  0  0  0  0  0  0  0  0  0
    0.6974    3.8450    1.6614 H   0  0  0  0  0  0  0  0  0  0  0  0
  5  6  2  0  0  0  0
  5  7  1  0  0  0  0
  2  3  1  0  0  0  0
  2  4  1  0  0  0  0
  2  5  1  0  0  0  0
  1  2  1  0  0  0  0
 24 25  2  0  0  0  0
 24 26  1  0  0  0  0
 20 21  1  0  0  0  0
 20 22  1  0  0  0  0
 20 23  1  0  0  0  0
 17 18  1  0  0  0  0
 17 19  1  0  0  0  0
 17 20  1  0  0  0  0
 13 14  1  0  0  0  0
 13 15  1  0  0  0  0
 13 16  1  0  0  0  0
 11 12  1  0  0  0  0
 11 13  1  0  0  0  0
 11 17  1  0  0  0  0
  9 10  1  0  0  0  0
  9 11  1  0  0  0  0
  9 24  1  0  0  0  0
  7  8  1  0  0  0  0
  7  9  1  0  0  0  0
 28 29  1  0  0  0  0
 28 30  1  0  0  0  0
 28 31  1  0  0  0  0
 26 27  1  0  0  0  0
 26 28  1  0  0  0  0
M  END
$$$$
default_name
  -OEChem-02102213163D

 31 30  0     1  0  0  0  0  0999 V2000
   -3.0760   -3.6390    1.5496 H   0  0  0  0  0  0  0  0  0  0  0  0
   -3.0940   -2.6290    1.1426 C   0  0  0  0  0  0  0  0  0  0  0  0
   -3.7160   -1.9930    1.7706 H   0  0  0  0  0  0  0  0  0  0  0  0
   -3.4880   -2.6500    0.1286 H   0  0  0  0  0  0  0  0  0  0  0  0
   -1.6860   -2.0850    1.1196 C   0  0  0  0  0  0  0  0  0  0  0  0
   -0.7540   -2.7700    1.5226 O   0  0  0  0  0  0  0  0  0  0  0  0
   -1.5320   -0.8490    0.6496 N   0  0  0  0  0  0  0  0  0  0  0  0
   -2.3500   -0.3360    0.3566 H   0  0  0  0  0  0  0  0  0  0  0  0
   -0.2470   -0.1410    0.5576 C   0  0  1  0  0  0  0  0  0  0  0  0
    0.4572   -0.6505    1.2162 H   0  0  0  0  0  0  0  0  0  0  0  0
    0.3091   -0.2220   -0.8868 C   0  0  1  0  0  0  0  0  0  0  0  0
    1.3957   -0.1417   -0.8181 H   0  0  0  0  0  0  0  0  0  0  0  0
   -0.0194   -1.5635   -1.5695 C   0  0  0  0  0  0  0  0  0  0  0  0
   -1.0947   -1.6590   -1.7308 H   0  0  0  0  0  0  0  0  0  0  0  0
    0.4918   -1.6353   -2.5282 H   0  0  0  0  0  0  0  0  0  0  0  0
    0.3183   -2.3944   -0.9491 H   0  0  0  0  0  0  0  0  0  0  0  0
   -0.1873    0.9673   -1.7393 C   0  0  0  0  0  0  0  0  0  0  0  0
   -1.2466    1.1452   -1.5488 H   0  0  0  0  0  0  0  0  0  0  0  0
    0.3667    1.8607   -1.4511 H   0  0  0  0  0  0  0  0  0  0  0  0
    0.0129    0.7714   -3.2482 C   0  0  0  0  0  0  0  0  0  0  0  0
   -0.6059   -0.0483   -3.6127 H   0  0  0  0  0  0  0  0  0  0  0  0
   -0.2770    1.6834   -3.7706 H   0  0  0  0  0  0  0  0  0  0  0  0
    1.0612    0.5593   -3.4610 H   0  0  0  0  0  0  0  0  0  0  0  0
   -0.3971    1.3008    1.0689 C   0  0  0  0  0  0  0  0  0  0  0  0
   -1.3643    1.9819    0.7311 O   0  0  0  0  0  0  0  0  0  0  0  0
    0.5522    1.7647    1.8915 N   0  0  0  0  0  0  0  0  0  0  0  0
    1.3093    1.1450    2.1332 H   0  0  0  0  0  0  0  0  0  0  0  0
    0.5577    3.1119    2.4582 C   0  0  0  0  0  0  0  0  0  0  0  0
   -0.3986    3.3098    2.9475 H   0  0  0  0  0  0  0  0  0  0  0  0
    1.3619    3.2123    3.1886 H   0  0  0  0  0  0  0  0  0  0  0  0
    0.6974    3.8450    1.6614 H   0  0  0  0  0  0  0  0  0  0  0  0
  5  6  2  0  0  0  0
  5  7  1  0  0  0  0
  2  3  1  0  0  0  0
  2  4  1  0  0  0  0
  2  5  1  0  0  0  0
  1  2  1  0  0  0  0
 24 25  2  0  0  0  0
 24 26  1  0  0  0  0
 20 21  1  0  0  0  0
 20 22  1  0  0  0  0
 20 23  1  0  0  0  0
 17 18  1  0  0  0  0
 17 19  1  0  0  0  0
 17 20  1  0  0  0  0
 13 14  1  0  0  0  0
 13 15  1  0  0  0  0
 13 16  1  0  0  0  0
 11 12  1  0  0  0  0
 11 13  1  0  0  0  0
 11 17  1  0  0  0  0
  9 10  1  0  0  0  0
  9 11  1  0  0  0  0
  9 24  1  0  0  0  0
  7  8  1  0  0  0  0
  7  9  1  0  0  0  0
 28 29  1  0  0  0  0
 28 30  1  0  0  0  0
 28 31  1  0  0  0  0
 26 27  1  0  0  0  0
 26 28  1  0  0  0  0
M  END
$$$$
default_name
  -OEChem-02102213163D

 31 30  0     1  0  0  0  0  0999 V2000
   -3.0760   -3.6390    1.5496 H   0  0  0  0  0  0  0  0  0  0  0  0
   -3.0940   -2.6290    1.1426 C   0  0  0  0  0  0  0  0  0  0  0  0
   -3.7160   -1.9930    1.7706 H   0  0  0  0  0  0  0  0  0  0  0  0
   -3.4880   -2.6500    0.1286 H   0  0  0  0  0  0  0  0  0  0  0  0
   -1.6860   -2.0850    1.1196 C   0  0  0  0  0  0  0  0  0  0  0  0
   -0.7540   -2.7700    1.5226 O   0  0  0  0  0  0  0  0  0  0  0  0
   -1.5320   -0.8490    0.6496 N   0  0  0  0  0  0  0  0  0  0  0  0
   -2.3500   -0.3360    0.3566 H   0  0  0  0  0  0  0  0  0  0  0  0
   -0.2470   -0.1410    0.5576 C   0  0  1  0  0  0  0  0  0  0  0  0
    0.4572   -0.6505    1.2162 H   0  0  0  0  0  0  0  0  0  0  0  0
    0.3091   -0.2220   -0.8868 C   0  0  1  0  0  0  0  0  0  0  0  0
    1.3957   -0.1417   -0.8181 H   0  0  0  0  0  0  0  0  0  0  0  0
   -0.0194   -1.5635   -1.5695 C   0  0  0  0  0  0  0  0  0  0  0  0
   -1.0947   -1.6590   -1.7308 H   0  0  0  0  0  0  0  0  0  0  0  0
    0.4918   -1.6353   -2.5282 H   0  0  0  0  0  0  0  0  0  0  0  0
    0.3183   -2.3944   -0.9491 H   0  0  0  0  0  0  0  0  0  0  0  0
   -0.1873    0.9673   -1.7393 C   0  0  0  0  0  0  0  0  0  0  0  0
   -1.1512    1.3159   -1.3661 H   0  0  0  0  0  0  0  0  0  0  0  0
    0.5289    1.7843   -1.6522 H   0  0  0  0  0  0  0  0  0  0  0  0
   -0.3293    0.6402   -3.2320 C   0  0  0  0  0  0  0  0  0  0  0  0
   -1.1141   -0.0996   -3.3883 H   0  0  0  0  0  0  0  0  0  0  0  0
   -0.5950    1.5475   -3.7751 H   0  0  0  0  0  0  0  0  0  0  0  0
    0.6148    0.2579   -3.6215 H   0  0  0  0  0  0  0  0  0  0  0  0
   -0.3971    1.3008    1.0689 C   0  0  0  0  0  0  0  0  0  0  0  0
   -1.3643    1.9819    0.7311 O   0  0  0  0  0  0  0  0  0  0  0  0
    0.5522    1.7647    1.8915 N   0  0  0  0  0  0  0  0  0  0  0  0
    1.3093    1.1450    2.1332 H   0  0  0  0  0  0  0  0  0  0  0  0
    0.5577    3.1119    2.4582 C   0  0  0  0  0  0  0  0  0  0  0  0
   -0.3986    3.3098    2.9475 H   0  0  0  0  0  0  0  0  0  0  0  0
    1.3619    3.2123    3.1886 H   0  0  0  0  0  0  0  0  0  0  0  0
    0.6974    3.8450    1.6614 H   0  0  0  0  0  0  0  0  0  0  0  0
  5  6  2  0  0  0  0
  5  7  1  0  0  0  0
  2  3  1  0  0  0  0
  2  4  1  0  0  0  0
  2  5  1  0  0  0  0
  1  2  1  0  0  0  0
 24 25  2  0  0  0  0
 24 26  1  0  0  0  0
 20 21  1  0  0  0  0
 20 22  1  0  0  0  0
 20 23  1  0  0  0  0
 17 18  1  0  0  0  0
 17 19  1  0  0  0  0
 17 20  1  0  0  0  0
 13 14  1  0  0  0  0
 13 15  1  0  0  0  0
 13 16  1  0  0  0  0
 11 12  1  0  0  0  0
 11 13  1  0  0  0  0
 11 17  1  0  0  0  0
  9 10  1  0  0  0  0
  9 11  1  0  0  0  0
  9 24  1  0  0  0  0
  7  8  1  0  0  0  0
  7  9  1  0  0  0  0
 28 29  1  0  0  0  0
 28 30  1  0  0  0  0
 28 31  1  0  0  0  0
 26 27  1  0  0  0  0
 26 28  1  0  0  0  0
M  END
$$$$
default_name
  -OEChem-02102213163D

 31 30  0     1  0  0  0  0  0999 V2000
   -3.0760   -3.6390    1.5496 H   0  0  0  0  0  0  0  0  0  0  0  0
   -3.0940   -2.6290    1.1426 C   0  0  0  0  0  0  0  0  0  0  0  0
   -3.7160   -1.9930    1.7706 H   0  0  0  0  0  0  0  0  0  0  0  0
   -3.4880   -2.6500    0.1286 H   0  0  0  0  0  0  0  0  0  0  0  0
   -1.6860   -2.0850    1.1196 C   0  0  0  0  0  0  0  0  0  0  0  0
   -0.7540   -2.7700    1.5226 O   0  0  0  0  0  0  0  0  0  0  0  0
   -1.5320   -0.8490    0.6496 N   0  0  0  0  0  0  0  0  0  0  0  0
   -2.3500   -0.3360    0.3566 H   0  0  0  0  0  0  0  0  0  0  0  0
   -0.2470   -0.1410    0.5576 C   0  0  1  0  0  0  0  0  0  0  0  0
    0.4572   -0.6505    1.2162 H   0  0  0  0  0  0  0  0  0  0  0  0
    0.3091   -0.2220   -0.8868 C   0  0  1  0  0  0  0  0  0  0  0  0
    1.3957   -0.1417   -0.8181 H   0  0  0  0  0  0  0  0  0  0  0  0
   -0.0194   -1.5635   -1.5695 C   0  0  0  0  0  0  0  0  0  0  0  0
   -1.0947   -1.6590   -1.7308 H   0  0  0  0  0  0  0  0  0  0  0  0
    0.4918   -1.6353   -2.5282 H   0  0  0  0  0  0  0  0  0  0  0  0
    0.3183   -2.3944   -0.9491 H   0  0  0  0  0  0  0  0  0  0  0  0
   -0.1873    0.9673   -1.7393 C   0  0  0  0  0  0  0  0  0  0  0  0
   -0.9983    1.4825   -1.2228 H   0  0  0  0  0  0  0  0  0  0  0  0
    0.6347    1.6706   -1.8724 H   0  0  0  0  0  0  0  0  0  0  0  0
   -0.6753    0.5637   -3.1372 C   0  0  0  0  0  0  0  0  0  0  0  0
   -1.5676   -0.0579   -3.0660 H   0  0  0  0  0  0  0  0  0  0  0  0
   -0.9224    1.4612   -3.7047 H   0  0  0  0  0  0  0  0  0  0  0  0
    0.1087    0.0172   -3.6626 H   0  0  0  0  0  0  0  0  0  0  0  0
   -0.3971    1.3008    1.0689 C   0  0  0  0  0  0  0  0  0  0  0  0
   -1.3643    1.9819    0.7311 O   0  0  0  0  0  0  0  0  0  0  0  0
    0.5522    1.7647    1.8915 N   0  0  0  0  0  0  0  0  0  0  0  0
    1.3093    1.1450    2.1332 H   0  0  0  0  0  0  0  0  0  0  0  0
    0.5577    3.1119    2.4582 C   0  0  0  0  0  0  0  0  0  0  0  0
   -0.3986    3.3098    2.9475 H   0  0  0  0  0  0  0  0  0  0  0  0
    1.3619    3.2123    3.1886 H   0  0  0  0  0  0  0  0  0  0  0  0
    0.6974    3.8450    1.6614 H   0  0  0  0  0  0  0  0  0  0  0  0
  5  6  2  0  0  0  0
  5  7  1  0  0  0  0
  2  3  1  0  0  0  0
  2  4  1  0  0  0  0
  2  5  1  0  0  0  0
  1  2  1  0  0  0  0
 24 25  2  0  0  0  0
 24 26  1  0  0  0  0
 20 21  1  0  0  0  0
 20 22  1  0  0  0  0
 20 23  1  0  0  0  0
 17 18  1  0  0  0  0
 17 19  1  0  0  0  0
 17 20  1  0  0  0  0
 13 14  1  0  0  0  0
 13 15  1  0  0  0  0
 13 16  1  0  0  0  0
 11 12  1  0  0  0  0
 11 13  1  0  0  0  0
 11 17  1  0  0  0  0
  9 10  1  0  0  0  0
  9 11  1  0  0  0  0
  9 24  1  0  0  0  0
  7  8  1  0  0  0  0
  7  9  1  0  0  0  0
 28 29  1  0  0  0  0
 28 30  1  0  0  0  0
 28 31  1  0  0  0  0
 26 27  1  0  0  0  0
 26 28  1  0  0  0  0
M  END
$$$$
default_name
  -OEChem-02102213163D

 31 30  0     1  0  0  0  0  0999 V2000
   -3.0760   -3.6390    1.5496 H   0  0  0  0  0  0  0  0  0  0  0  0
   -3.0940   -2.6290    1.1426 C   0  0  0  0  0  0  0  0  0  0  0  0
   -3.7160   -1.9930    1.7706 H   0  0  0  0  0  0  0  0  0  0  0  0
   -3.4880   -2.6500    0.1286 H   0  0  0  0  0  0  0  0  0  0  0  0
   -1.6860   -2.0850    1.1196 C   0  0  0  0  0  0  0  0  0  0  0  0
   -0.7540   -2.7700    1.5226 O   0  0  0  0  0  0  0  0  0  0  0  0
   -1.5320   -0.8490    0.6496 N   0  0  0  0  0  0  0  0  0  0  0  0
   -2.3500   -0.3360    0.3566 H   0  0  0  0  0  0  0  0  0  0  0  0
   -0.2470   -0.1410    0.5576 C   0  0  1  0  0  0  0  0  0  0  0  0
    0.4572   -0.6505    1.2162 H   0  0  0  0  0  0  0  0  0  0  0  0
    0.3091   -0.2220   -0.8868 C   0  0  1  0  0  0  0  0  0  0  0  0
    1.3957   -0.1417   -0.8181 H   0  0  0  0  0  0  0  0  0  0  0  0
   -0.0194   -1.5635   -1.5695 C   0  0  0  0  0  0  0  0  0  0  0  0
   -1.0947   -1.6590   -1.7308 H   0  0  0  0  0  0  0  0  0  0  0  0
    0.4918   -1.6353   -2.5282 H   0  0  0  0  0  0  0  0  0  0  0  0
    0.3183   -2.3944   -0.9491 H   0  0  0  0  0  0  0  0  0  0  0  0
   -0.1873    0.9673   -1.7393 C   0  0  0  0  0  0  0  0  0  0  0  0
   -0.7983    1.6334   -1.1287 H   0  0  0  0  0  0  0  0  0  0  0  0
    0.6767    1.5274   -2.0966 H   0  0  0  0  0  0  0  0  0  0  0  0
   -1.0015    0.5471   -2.9704 C   0  0  0  0  0  0  0  0  0  0  0  0
   -1.9355    0.0739   -2.6678 H   0  0  0  0  0  0  0  0  0  0  0  0
   -1.2370    1.4305   -3.5643 H   0  0  0  0  0  0  0  0  0  0  0  0
   -0.4228   -0.1465   -3.5814 H   0  0  0  0  0  0  0  0  0  0  0  0
   -0.3971    1.3008    1.0689 C   0  0  0  0  0  0  0  0  0  0  0  0
   -1.3643    1.9819    0.7311 O   0  0  0  0  0  0  0  0  0  0  0  0
    0.5522    1.7647    1.8915 N   0  0  0  0  0  0  0  0  0  0  0  0
    1.3093    1.1450    2.1332 H   0  0  0  0  0  0  0  0  0  0  0  0
    0.5577    3.1119    2.4582 C   0  0  0  0  0  0  0  0  0  0  0  0
   -0.3986    3.3098    2.9475 H   0  0  0  0  0  0  0  0  0  0  0  0
    1.3619    3.2123    3.1886 H   0  0  0  0  0  0  0  0  0  0  0  0
    0.6974    3.8450    1.6614 H   0  0  0  0  0  0  0  0  0  0  0  0
  5  6  2  0  0  0  0
  5  7  1  0  0  0  0
  2  3  1  0  0  0  0
  2  4  1  0  0  0  0
  2  5  1  0  0  0  0
  1  2  1  0  0  0  0
 24 25  2  0  0  0  0
 24 26  1  0  0  0  0
 20 21  1  0  0  0  0
 20 22  1  0  0  0  0
 20 23  1  0  0  0  0
 17 18  1  0  0  0  0
 17 19  1  0  0  0  0
 17 20  1  0  0  0  0
 13 14  1  0  0  0  0
 13 15  1  0  0  0  0
 13 16  1  0  0  0  0
 11 12  1  0  0  0  0
 11 13  1  0  0  0  0
 11 17  1  0  0  0  0
  9 10  1  0  0  0  0
  9 11  1  0  0  0  0
  9 24  1  0  0  0  0
  7  8  1  0  0  0  0
  7  9  1  0  0  0  0
 28 29  1  0  0  0  0
 28 30  1  0  0  0  0
 28 31  1  0  0  0  0
 26 27  1  0  0  0  0
 26 28  1  0  0  0  0
M  END
$$$$
default_name
  -OEChem-02102213163D

 31 30  0     1  0  0  0  0  0999 V2000
   -3.0760   -3.6390    1.5496 H   0  0  0  0  0  0  0  0  0  0  0  0
   -3.0940   -2.6290    1.1426 C   0  0  0  0  0  0  0  0  0  0  0  0
   -3.7160   -1.9930    1.7706 H   0  0  0  0  0  0  0  0  0  0  0  0
   -3.4880   -2.6500    0.1286 H   0  0  0  0  0  0  0  0  0  0  0  0
   -1.6860   -2.0850    1.1196 C   0  0  0  0  0  0  0  0  0  0  0  0
   -0.7540   -2.7700    1.5226 O   0  0  0  0  0  0  0  0  0  0  0  0
   -1.5320   -0.8490    0.6496 N   0  0  0  0  0  0  0  0  0  0  0  0
   -2.3500   -0.3360    0.3566 H   0  0  0  0  0  0  0  0  0  0  0  0
   -0.2470   -0.1410    0.5576 C   0  0  1  0  0  0  0  0  0  0  0  0
    0.4572   -0.6505    1.2162 H   0  0  0  0  0  0  0  0  0  0  0  0
    0.3091   -0.2220   -0.8868 C   0  0  1  0  0  0  0  0  0  0  0  0
    1.3957   -0.1417   -0.8181 H   0  0  0  0  0  0  0  0  0  0  0  0
   -0.0194   -1.5635   -1.5695 C   0  0  0  0  0  0  0  0  0  0  0  0
   -1.0947   -1.6590   -1.7308 H   0  0  0  0  0  0  0  0  0  0  0  0
    0.4918   -1.6353   -2.5282 H   0  0  0  0  0  0  0  0  0  0  0  0
    0.3183   -2.3944   -0.9491 H   0  0  0  0  0  0  0  0  0  0  0  0
   -0.1873    0.9673   -1.7393 C   0  0  0  0  0  0  0  0  0  0  0  0
   -0.5648    1.7585   -1.0901 H   0  0  0  0  0  0  0  0  0  0  0  0
    0.6522    1.3644   -2.3098 H   0  0  0  0  0  0  0  0  0  0  0  0
   -1.2858    0.5915   -2.7430 C   0  0  0  0  0  0  0  0  0  0  0  0
   -2.1927    0.2869   -2.2209 H   0  0  0  0  0  0  0  0  0  0  0  0
   -1.5173    1.4574   -3.3635 H   0  0  0  0  0  0  0  0  0  0  0  0
   -0.9434   -0.2220   -3.3835 H   0  0  0  0  0  0  0  0  0  0  0  0
   -0.3971    1.3008    1.0689 C   0  0  0  0  0  0  0  0  0  0  0  0
   -1.3643    1.9819    0.7311 O   0  0  0  0  0  0  0  0  0  0  0  0
    0.5522    1.7647    1.8915 N   0  0  0  0  0  0  0  0  0  0  0  0
    1.3093    1.1450    2.1332 H   0  0  0  0  0  0  0  0  0  0  0  0
    0.5577    3.1119    2.4582 C   0  0  0  0  0  0  0  0  0  0  0  0
   -0.3986    3.3098    2.9475 H   0  0  0  0  0  0  0  0  0  0  0  0
    1.3619    3.2123    3.1886 H   0  0  0  0  0  0  0  0  0  0  0  0
    0.6974    3.8450    1.6614 H   0  0  0  0  0  0  0  0  0  0  0  0
  5  6  2  0  0  0  0
  5  7  1  0  0  0  0
  2  3  1  0  0  0  0
  2  4  1  0  0  0  0
  2  5  1  0  0  0  0
  1  2  1  0  0  0  0
 24 25  2  0  0  0  0
 24 26  1  0  0  0  0
 20 21  1  0  0  0  0
 20 22  1  0  0  0  0
 20 23  1  0  0  0  0
 17 18  1  0  0  0  0
 17 19  1  0  0  0  0
 17 20  1  0  0  0  0
 13 14  1  0  0  0  0
 13 15  1  0  0  0  0
 13 16  1  0  0  0  0
 11 12  1  0  0  0  0
 11 13  1  0  0  0  0
 11 17  1  0  0  0  0
  9 10  1  0  0  0  0
  9 11  1  0  0  0  0
  9 24  1  0  0  0  0
  7  8  1  0  0  0  0
  7  9  1  0  0  0  0
 28 29  1  0  0  0  0
 28 30  1  0  0  0  0
 28 31  1  0  0  0  0
 26 27  1  0  0  0  0
 26 28  1  0  0  0  0
M  END
$$$$
default_name
  -OEChem-02102213163D

 31 30  0     1  0  0  0  0  0999 V2000
   -3.0760   -3.6390    1.5496 H   0  0  0  0  0  0  0  0  0  0  0  0
   -3.0940   -2.6290    1.1426 C   0  0  0  0  0  0  0  0  0  0  0  0
   -3.7160   -1.9930    1.7706 H   0  0  0  0  0  0  0  0  0  0  0  0
   -3.4880   -2.6500    0.1286 H   0  0  0  0  0  0  0  0  0  0  0  0
   -1.6860   -2.0850    1.1196 C   0  0  0  0  0  0  0  0  0  0  0  0
   -0.7540   -2.7700    1.5226 O   0  0  0  0  0  0  0  0  0  0  0  0
   -1.5320   -0.8490    0.6496 N   0  0  0  0  0  0  0  0  0  0  0  0
   -2.3500   -0.3360    0.3566 H   0  0  0  0  0  0  0  0  0  0  0  0
   -0.2470   -0.1410    0.5576 C   0  0  1  0  0  0  0  0  0  0  0  0
    0.4572   -0.6505    1.2162 H   0  0  0  0  0  0  0  0  0  0  0  0
    0.3091   -0.2220   -0.8868 C   0  0  1  0  0  0  0  0  0  0  0  0
    1.3957   -0.1417   -0.8181 H   0  0  0  0  0  0  0  0  0  0  0  0
   -0.0194   -1.5635   -1.5695 C   0  0  0  0  0  0  0  0  0  0  0  0
   -1.0947   -1.6590   -1.7308 H   0  0  0  0  0  0  0  0  0  0  0  0
    0.4918   -1.6353   -2.5282 H   0  0  0  0  0  0  0  0  0  0  0  0
    0.3183   -2.3944   -0.9491 H   0  0  0  0  0  0  0  0  0  0  0  0
   -0.1873    0.9673   -1.7393 C   0  0  0  0  0  0  0  0  0  0  0  0
   -0.3138    1.8492   -1.1098 H   0  0  0  0  0  0  0  0  0  0  0  0
    0.5628    1.1928   -2.4972 H   0  0  0  0  0  0  0  0  0  0  0  0
   -1.5087    0.6938   -2.4703 C   0  0  0  0  0  0  0  0  0  0  0  0
   -2.3217    0.5665   -1.7557 H   0  0  0  0  0  0  0  0  0  0  0  0
   -1.7442    1.5402   -3.1159 H   0  0  0  0  0  0  0  0  0  0  0  0
   -1.4175   -0.2041   -3.0824 H   0  0  0  0  0  0  0  0  0  0  0  0
   -0.3971    1.3008    1.0689 C   0  0  0  0  0  0  0  0  0  0  0  0
   -1.3643    1.9819    0.7311 O   0  0  0  0  0  0  0  0  0  0  0  0
    0.5522    1.7647    1.8915 N   0  0  0  0  0  0  0  0  0  0  0  0
    1.3093    1.1450    2.1332 H   0  0  0  0  0  0  0  0  0  0  0  0
    0.5577    3.1119    2.4582 C   0  0  0  0  0  0  0  0  0  0  0  0
   -0.3986    3.3098    2.9475 H   0  0  0  0  0  0  0  0  0  0  0  0
    1.3619    3.2123    3.1886 H   0  0  0  0  0  0  0  0  0  0  0  0
    0.6974    3.8450    1.6614 H   0  0  0  0  0  0  0  0  0  0  0  0
  5  6  2  0  0  0  0
  5  7  1  0  0  0  0
  2  3  1  0  0  0  0
  2  4  1  0  0  0  0
  2  5  1  0  0  0  0
  1  2  1  0  0  0  0
 24 25  2  0  0  0  0
 24 26  1  0  0  0  0
 20 21  1  0  0  0  0
 20 22  1  0  0  0  0
 20 23  1  0  0  0  0
 17 18  1  0  0  0  0
 17 19  1  0  0  0  0
 17 20  1  0  0  0  0
 13 14  1  0  0  0  0
 13 15  1  0  0  0  0
 13 16  1  0  0  0  0
 11 12  1  0  0  0  0
 11 13  1  0  0  0  0
 11 17  1  0  0  0  0
  9 10  1  0  0  0  0
  9 11  1  0  0  0  0
  9 24  1  0  0  0  0
  7  8  1  0  0  0  0
  7  9  1  0  0  0  0
 28 29  1  0  0  0  0
 28 30  1  0  0  0  0
 28 31  1  0  0  0  0
 26 27  1  0  0  0  0
 26 28  1  0  0  0  0
M  END
$$$$
default_name
  -OEChem-02102213163D

 31 30  0     1  0  0  0  0  0999 V2000
   -3.0760   -3.6390    1.5496 H   0  0  0  0  0  0  0  0  0  0  0  0
   -3.0940   -2.6290    1.1426 C   0  0  0  0  0  0  0  0  0  0  0  0
   -3.7160   -1.9930    1.7706 H   0  0  0  0  0  0  0  0  0  0  0  0
   -3.4880   -2.6500    0.1286 H   0  0  0  0  0  0  0  0  0  0  0  0
   -1.6860   -2.0850    1.1196 C   0  0  0  0  0  0  0  0  0  0  0  0
   -0.7540   -2.7700    1.5226 O   0  0  0  0  0  0  0  0  0  0  0  0
   -1.5320   -0.8490    0.6496 N   0  0  0  0  0  0  0  0  0  0  0  0
   -2.3500   -0.3360    0.3566 H   0  0  0  0  0  0  0  0  0  0  0  0
   -0.2470   -0.1410    0.5576 C   0  0  1  0  0  0  0  0  0  0  0  0
    0.4572   -0.6505    1.2162 H   0  0  0  0  0  0  0  0  0  0  0  0
    0.3091   -0.2220   -0.8868 C   0  0  1  0  0  0  0  0  0  0  0  0
    1.3957   -0.1417   -0.8181 H   0  0  0  0  0  0  0  0  0  0  0  0
   -0.0194   -1.5635   -1.5695 C   0  0  0  0  0  0  0  0  0  0  0  0
   -1.0947   -1.6590   -1.7308 H   0  0  0  0  0  0  0  0  0  0  0  0
    0.4918   -1.6353   -2.5282 H   0  0  0  0  0  0  0  0  0  0  0  0
    0.3183   -2.3944   -0.9491 H   0  0  0  0  0  0  0  0  0  0  0  0
   -0.1873    0.9673   -1.7393 C   0  0  0  0  0  0  0  0  0  0  0  0
   -0.0622    1.8993   -1.1864 H   0  0  0  0  0  0  0  0  0  0  0  0
    0.4146    1.0242   -2.6461 H   0  0  0  0  0  0  0  0  0  0  0  0
   -1.6551    0.8472   -2.1710 C   0  0  0  0  0  0  0  0  0  0  0  0
   -2.3137    0.8936   -1.3039 H   0  0  0  0  0  0  0  0  0  0  0  0
   -1.9022    1.6731   -2.8385 H   0  0  0  0  0  0  0  0  0  0  0  0
   -1.8130   -0.0941   -2.6986 H   0  0  0  0  0  0  0  0  0  0  0  0
   -0.3971    1.3008    1.0689 C   0  0  0  0  0  0  0  0  0  0  0  0
   -1.3643    1.9819    0.7311 O   0  0  0  0  0  0  0  0  0  0  0  0
    0.5522    1.7647    1.8915 N   0  0  0  0  0  0  0  0  0  0  0  0
    1.3093    1.1450    2.1332 H   0  0  0  0  0  0  0  0  0  0  0  0
    0.5577    3.1119    2.4582 C   0  0  0  0  0  0  0  0  0  0  0  0
   -0.3986    3.3098    2.9475 H   0  0  0  0  0  0  0  0  0  0  0  0
    1.3619    3.2123    3.1886 H   0  0  0  0  0  0  0  0  0  0  0  0
    0.6974    3.8450    1.6614 H   0  0  0  0  0  0  0  0  0  0  0  0
  5  6  2  0  0  0  0
  5  7  1  0  0  0  0
  2  3  1  0  0  0  0
  2  4  1  0  0  0  0
  2  5  1  0  0  0  0
  1  2  1  0  0  0  0
 24 25  2  0  0  0  0
 24 26  1  0  0  0  0
 20 21  1  0  0  0  0
 20 22  1  0  0  0  0
 20 23  1  0  0  0  0
 17 18  1  0  0  0  0
 17 19  1  0  0  0  0
 17 20  1  0  0  0  0
 13 14  1  0  0  0  0
 13 15  1  0  0  0  0
 13 16  1  0  0  0  0
 11 12  1  0  0  0  0
 11 13  1  0  0  0  0
 11 17  1  0  0  0  0
  9 10  1  0  0  0  0
  9 11  1  0  0  0  0
  9 24  1  0  0  0  0
  7  8  1  0  0  0  0
  7  9  1  0  0  0  0
 28 29  1  0  0  0  0
 28 30  1  0  0  0  0
 28 31  1  0  0  0  0
 26 27  1  0  0  0  0
 26 28  1  0  0  0  0
M  END
$$$$
default_name
  -OEChem-02102213163D

 31 30  0     1  0  0  0  0  0999 V2000
   -3.0760   -3.6390    1.5496 H   0  0  0  0  0  0  0  0  0  0  0  0
   -3.0940   -2.6290    1.1426 C   0  0  0  0  0  0  0  0  0  0  0  0
   -3.7160   -1.9930    1.7706 H   0  0  0  0  0  0  0  0  0  0  0  0
   -3.4880   -2.6500    0.1286 H   0  0  0  0  0  0  0  0  0  0  0  0
   -1.6860   -2.0850    1.1196 C   0  0  0  0  0  0  0  0  0  0  0  0
   -0.7540   -2.7700    1.5226 O   0  0  0  0  0  0  0  0  0  0  0  0
   -1.5320   -0.8490    0.6496 N   0  0  0  0  0  0  0  0  0  0  0  0
   -2.3500   -0.3360    0.3566 H   0  0  0  0  0  0  0  0  0  0  0  0
   -0.2470   -0.1410    0.5576 C   0  0  1  0  0  0  0  0  0  0  0  0
    0.4572   -0.6505    1.2162 H   0  0  0  0  0  0  0  0  0  0  0  0
    0.3091   -0.2220   -0.8868 C   0  0  1  0  0  0  0  0  0  0  0  0
    1.3957   -0.1417   -0.8181 H   0  0  0  0  0  0  0  0  0  0  0  0
   -0.0194   -1.5635   -1.5695 C   0  0  0  0  0  0  0  0  0  0  0  0
   -1.0947   -1.6590   -1.7308 H   0  0  0  0  0  0  0  0  0  0  0  0
    0.4918   -1.6353   -2.5282 H   0  0  0  0  0  0  0  0  0  0  0  0
    0.3183   -2.3944   -0.9491 H   0  0  0  0  0  0  0  0  0  0  0  0
   -0.1873    0.9673   -1.7393 C   0  0  0  0  0  0  0  0  0  0  0  0
    0.1727    1.9054   -1.3147 H   0  0  0  0  0  0  0  0  0  0  0  0
    0.2177    0.8701   -2.7465 H   0  0  0  0  0  0  0  0  0  0  0  0
   -1.7150    1.0412   -1.8655 C   0  0  0  0  0  0  0  0  0  0  0  0
   -2.1692    1.2461   -0.8962 H   0  0  0  0  0  0  0  0  0  0  0  0
   -1.9806    1.8471   -2.5501 H   0  0  0  0  0  0  0  0  0  0  0  0
   -2.1028    0.1006   -2.2582 H   0  0  0  0  0  0  0  0  0  0  0  0
   -0.3971    1.3008    1.0689 C   0  0  0  0  0  0  0  0  0  0  0  0
   -1.3643    1.9819    0.7311 O   0  0  0  0  0  0  0  0  0  0  0  0
    0.5522    1.7647    1.8915 N   0  0  0  0  0  0  0  0  0  0  0  0
    1.3093    1.1450    2.1332 H   0  0  0  0  0  0  0  0  0  0  0  0
    0.5577    3.1119    2.4582 C   0  0  0  0  0  0  0  0  0  0  0  0
   -0.3986    3.3098    2.9475 H   0  0  0  0  0  0  0  0  0  0  0  0
    1.3619    3.2123    3.1886 H   0  0  0  0  0  0  0  0  0  0  0  0
    0.6974    3.8450    1.6614 H   0  0  0  0  0  0  0  0  0  0  0  0
  5  6  2  0  0  0  0
  5  7  1  0  0  0  0
  2  3  1  0  0  0  0
  2  4  1  0  0  0  0
  2  5  1  0  0  0  0
  1  2  1  0  0  0  0
 24 25  2  0  0  0  0
 24 26  1  0  0  0  0
 20 21  1  0  0  0  0
 20 22  1  0  0  0  0
 20 23  1  0  0  0  0
 17 18  1  0  0  0  0
 17 19  1  0  0  0  0
 17 20  1  0  0  0  0
 13 14  1  0  0  0  0
 13 15  1  0  0  0  0
 13 16  1  0  0  0  0
 11 12  1  0  0  0  0
 11 13  1  0  0  0  0
 11 17  1  0  0  0  0
  9 10  1  0  0  0  0
  9 11  1  0  0  0  0
  9 24  1  0  0  0  0
  7  8  1  0  0  0  0
  7  9  1  0  0  0  0
 28 29  1  0  0  0  0
 28 30  1  0  0  0  0
 28 31  1  0  0  0  0
 26 27  1  0  0  0  0
 26 28  1  0  0  0  0
M  END
$$$$
default_name
  -OEChem-02102213163D

 31 30  0     1  0  0  0  0  0999 V2000
   -3.0760   -3.6390    1.5496 H   0  0  0  0  0  0  0  0  0  0  0  0
   -3.0940   -2.6290    1.1426 C   0  0  0  0  0  0  0  0  0  0  0  0
   -3.7160   -1.9930    1.7706 H   0  0  0  0  0  0  0  0  0  0  0  0
   -3.4880   -2.6500    0.1286 H   0  0  0  0  0  0  0  0  0  0  0  0
   -1.6860   -2.0850    1.1196 C   0  0  0  0  0  0  0  0  0  0  0  0
   -0.7540   -2.7700    1.5226 O   0  0  0  0  0  0  0  0  0  0  0  0
   -1.5320   -0.8490    0.6496 N   0  0  0  0  0  0  0  0  0  0  0  0
   -2.3500   -0.3360    0.3566 H   0  0  0  0  0  0  0  0  0  0  0  0
   -0.2470   -0.1410    0.5576 C   0  0  1  0  0  0  0  0  0  0  0  0
    0.4572   -0.6505    1.2162 H   0  0  0  0  0  0  0  0  0  0  0  0
    0.3091   -0.2220   -0.8868 C   0  0  1  0  0  0  0  0  0  0  0  0
    1.3957   -0.1417   -0.8181 H   0  0  0  0  0  0  0  0  0  0  0  0
   -0.0194   -1.5635   -1.5695 C   0  0  0  0  0  0  0  0  0  0  0  0
   -1.0947   -1.6590   -1.7308 H   0  0  0  0  0  0  0  0  0  0  0  0
    0.4918   -1.6353   -2.5282 H   0  0  0  0  0  0  0  0  0  0  0  0
    0.3183   -2.3944   -0.9491 H   0  0  0  0  0  0  0  0  0  0  0  0
   -0.1873    0.9673   -1.7393 C   0  0  0  0  0  0  0  0  0  0  0  0
    0.3748    1.8671   -1.4859 H   0  0  0  0  0  0  0  0  0  0  0  0
   -0.0144    0.7410   -2.7914 H   0  0  0  0  0  0  0  0  0  0  0  0
   -1.6843    1.2625   -1.5746 C   0  0  0  0  0  0  0  0  0  0  0  0
   -1.8982    1.5998   -0.5606 H   0  0  0  0  0  0  0  0  0  0  0  0
   -1.9740    2.0503   -2.2703 H   0  0  0  0  0  0  0  0  0  0  0  0
   -2.2673    0.3666   -1.7912 H   0  0  0  0  0  0  0  0  0  0  0  0
   -0.3971    1.3008    1.0689 C   0  0  0  0  0  0  0  0  0  0  0  0
   -1.3643    1.9819    0.7311 O   0  0  0  0  0  0  0  0  0  0  0  0
    0.5522    1.7647    1.8915 N   0  0  0  0  0  0  0  0  0  0  0  0
    1.3093    1.1450    2.1332 H   0  0  0  0  0  0  0  0  0  0  0  0
    0.5577    3.1119    2.4582 C   0  0  0  0  0  0  0  0  0  0  0  0
   -0.3986    3.3098    2.9475 H   0  0  0  0  0  0  0  0  0  0  0  0
    1.3619    3.2123    3.1886 H   0  0  0  0  0  0  0  0  0  0  0  0
    0.6974    3.8450    1.6614 H   0  0  0  0  0  0  0  0  0  0  0  0
  5  6  2  0  0  0  0
  5  7  1  0  0  0  0
  2  3  1  0  0  0  0
  2  4  1  0  0  0  0
  2  5  1  0  0  0  0
  1  2  1  0  0  0  0
 24 25  2  0  0  0  0
 24 26  1  0  0  0  0
 20 21  1  0  0  0  0
 20 22  1  0  0  0  0
 20 23  1  0  0  0  0
 17 18  1  0  0  0  0
 17 19  1  0  0  0  0
 17 20  1  0  0  0  0
 13 14  1  0  0  0  0
 13 15  1  0  0  0  0
 13 16  1  0  0  0  0
 11 12  1  0  0  0  0
 11 13  1  0  0  0  0
 11 17  1  0  0  0  0
  9 10  1  0  0  0  0
  9 11  1  0  0  0  0
  9 24  1  0  0  0  0
  7  8  1  0  0  0  0
  7  9  1  0  0  0  0
 28 29  1  0  0  0  0
 28 30  1  0  0  0  0
 28 31  1  0  0  0  0
 26 27  1  0  0  0  0
 26 28  1  0  0  0  0
M  END
$$$$
default_name
  -OEChem-02102213163D

 31 30  0     1  0  0  0  0  0999 V2000
   -3.0760   -3.6390    1.5496 H   0  0  0  0  0  0  0  0  0  0  0  0
   -3.0940   -2.6290    1.1426 C   0  0  0  0  0  0  0  0  0  0  0  0
   -3.7160   -1.9930    1.7706 H   0  0  0  0  0  0  0  0  0  0  0  0
   -3.4880   -2.6500    0.1286 H   0  0  0  0  0  0  0  0  0  0  0  0
   -1.6860   -2.0850    1.1196 C   0  0  0  0  0  0  0  0  0  0  0  0
   -0.7540   -2.7700    1.5226 O   0  0  0  0  0  0  0  0  0  0  0  0
   -1.5320   -0.8490    0.6496 N   0  0  0  0  0  0  0  0  0  0  0  0
   -2.3500   -0.3360    0.3566 H   0  0  0  0  0  0  0  0  0  0  0  0
   -0.2470   -0.1410    0.5576 C   0  0  1  0  0  0  0  0  0  0  0  0
    0.4572   -0.6505    1.2162 H   0  0  0  0  0  0  0  0  0  0  0  0
    0.3091   -0.2220   -0.8868 C   0  0  1  0  0  0  0  0  0  0  0  0
    1.3957   -0.1417   -0.8181 H   0  0  0  0  0  0  0  0  0  0  0  0
   -0.0194   -1.5635   -1.5695 C   0  0  0  0  0  0  0  0  0  0  0  0
   -1.0947   -1.6590   -1.7308 H   0  0  0  0  0  0  0  0  0  0  0  0
    0.4918   -1.6353   -2.5282 H   0  0  0  0  0  0  0  0  0  0  0  0
    0.3183   -2.3944   -0.9491 H   0  0  0  0  0  0  0  0  0  0  0  0
   -0.1873    0.9673   -1.7393 C   0  0  0  0  0  0  0  0  0  0  0  0
    0.5306    1.7870   -1.6883 H   0  0  0  0  0  0  0  0  0  0  0  0
   -0.2661    0.6457   -2.7777 H   0  0  0  0  0  0  0  0  0  0  0  0
   -1.5651    1.4961   -1.3182 C   0  0  0  0  0  0  0  0  0  0  0  0
   -1.5190    1.9307   -0.3198 H   0  0  0  0  0  0  0  0  0  0  0  0
   -1.8829    2.2690   -2.0183 H   0  0  0  0  0  0  0  0  0  0  0  0
   -2.2951    0.6859   -1.3296 H   0  0  0  0  0  0  0  0  0  0  0  0
   -0.3971    1.3008    1.0689 C   0  0  0  0  0  0  0  0  0  0  0  0
   -1.3643    1.9819    0.7311 O   0  0  0  0  0  0  0  0  0  0  0  0
    0.5522    1.7647    1.8915 N   0  0  0  0  0  0  0  0  0  0  0  0
    1.3093    1.1450    2.1332 H   0  0  0  0  0  0  0  0  0  0  0  0
    0.5577    3.1119    2.4582 C   0  0  0  0  0  0  0  0  0  0  0  0
   -0.3986    3.3098    2.9475 H   0  0  0  0  0  0  0  0  0  0  0  0
    1.3619    3.2123    3.1886 H   0  0  0  0  0  0  0  0  0  0  0  0
    0.6974    3.8450    1.6614 H   0  0  0  0  0  0  0  0  0  0  0  0
  5  6  2  0  0  0  0
  5  7  1  0  0  0  0
  2  3  1  0  0  0  0
  2  4  1  0  0  0  0
  2  5  1  0  0  0  0
  1  2  1  0  0  0  0
 24 25  2  0  0  0  0
 24 26  1  0  0  0  0
 20 21  1  0  0  0  0
 20 22  1  0  0  0  0
 20 23  1  0  0  0  0
 17 18  1  0  0  0  0
 17 19  1  0  0  0  0
 17 20  1  0  0  0  0
 13 14  1  0  0  0  0
 13 15  1  0  0  0  0
 13 16  1  0  0  0  0
 11 12  1  0  0  0  0
 11 13  1  0  0  0  0
 11 17  1  0  0  0  0
  9 10  1  0  0  0  0
  9 11  1  0  0  0  0
  9 24  1  0  0  0  0
  7  8  1  0  0  0  0
  7  9  1  0  0  0  0
 28 29  1  0  0  0  0
 28 30  1  0  0  0  0
 28 31  1  0  0  0  0
 26 27  1  0  0  0  0
 26 28  1  0  0  0  0
M  END
$$$$
default_name
  -OEChem-02102213163D

 31 30  0     1  0  0  0  0  0999 V2000
   -3.0760   -3.6390    1.5496 H   0  0  0  0  0  0  0  0  0  0  0  0
   -3.0940   -2.6290    1.1426 C   0  0  0  0  0  0  0  0  0  0  0  0
   -3.7160   -1.9930    1.7706 H   0  0  0  0  0  0  0  0  0  0  0  0
   -3.4880   -2.6500    0.1286 H   0  0  0  0  0  0  0  0  0  0  0  0
   -1.6860   -2.0850    1.1196 C   0  0  0  0  0  0  0  0  0  0  0  0
   -0.7540   -2.7700    1.5226 O   0  0  0  0  0  0  0  0  0  0  0  0
   -1.5320   -0.8490    0.6496 N   0  0  0  0  0  0  0  0  0  0  0  0
   -2.3500   -0.3360    0.3566 H   0  0  0  0  0  0  0  0  0  0  0  0
   -0.2470   -0.1410    0.5576 C   0  0  1  0  0  0  0  0  0  0  0  0
    0.4572   -0.6505    1.2162 H   0  0  0  0  0  0  0  0  0  0  0  0
    0.3091   -0.2220   -0.8868 C   0  0  1  0  0  0  0  0  0  0  0  0
    1.3957   -0.1417   -0.8181 H   0  0  0  0  0  0  0  0  0  0  0  0
   -0.0194   -1.5635   -1.5695 C   0  0  0  0  0  0  0  0  0  0  0  0
   -1.0947   -1.6590   -1.7308 H   0  0  0  0  0  0  0  0  0  0  0  0
    0.4918   -1.6353   -2.5282 H   0  0  0  0  0  0  0  0  0  0  0  0
    0.3183   -2.3944   -0.9491 H   0  0  0  0  0  0  0  0  0  0  0  0
   -0.1873    0.9673   -1.7393 C   0  0  0  0  0  0  0  0  0  0  0  0
    0.6292    1.6706   -1.9082 H   0  0  0  0  0  0  0  0  0  0  0  0
   -0.5200    0.5907   -2.7065 H   0  0  0  0  0  0  0  0  0  0  0  0
   -1.3656    1.7260   -1.1136 C   0  0  0  0  0  0  0  0  0  0  0  0
   -1.0575    2.2162   -0.1902 H   0  0  0  0  0  0  0  0  0  0  0  0
   -1.7135    2.4881   -1.8112 H   0  0  0  0  0  0  0  0  0  0  0  0
   -2.1844    1.0367   -0.9047 H   0  0  0  0  0  0  0  0  0  0  0  0
   -0.3971    1.3008    1.0689 C   0  0  0  0  0  0  0  0  0  0  0  0
   -1.3643    1.9819    0.7311 O   0  0  0  0  0  0  0  0  0  0  0  0
    0.5522    1.7647    1.8915 N   0  0  0  0  0  0  0  0  0  0  0  0
    1.3093    1.1450    2.1332 H   0  0  0  0  0  0  0  0  0  0  0  0
    0.5577    3.1119    2.4582 C   0  0  0  0  0  0  0  0  0  0  0  0
   -0.3986    3.3098    2.9475 H   0  0  0  0  0  0  0  0  0  0  0  0
    1.3619    3.2123    3.1886 H   0  0  0  0  0  0  0  0  0  0  0  0
    0.6974    3.8450    1.6614 H   0  0  0  0  0  0  0  0  0  0  0  0
  5  6  2  0  0  0  0
  5  7  1  0  0  0  0
  2  3  1  0  0  0  0
  2  4  1  0  0  0  0
  2  5  1  0  0  0  0
  1  2  1  0  0  0  0
 24 25  2  0  0  0  0
 24 26  1  0  0  0  0
 20 21  1  0  0  0  0
 20 22  1  0  0  0  0
 20 23  1  0  0  0  0
 17 18  1  0  0  0  0
 17 19  1  0  0  0  0
 17 20  1  0  0  0  0
 13 14  1  0  0  0  0
 13 15  1  0  0  0  0
 13 16  1  0  0  0  0
 11 12  1  0  0  0  0
 11 13  1  0  0  0  0
 11 17  1  0  0  0  0
  9 10  1  0  0  0  0
  9 11  1  0  0  0  0
  9 24  1  0  0  0  0
  7  8  1  0  0  0  0
  7  9  1  0  0  0  0
 28 29  1  0  0  0  0
 28 30  1  0  0  0  0
 28 31  1  0  0  0  0
 26 27  1  0  0  0  0
 26 28  1  0  0  0  0
M  END
$$$$
default_name
  -OEChem-02102213163D

 31 30  0     1  0  0  0  0  0999 V2000
   -3.0760   -3.6390    1.5496 H   0  0  0  0  0  0  0  0  0  0  0  0
   -3.0940   -2.6290    1.1426 C   0  0  0  0  0  0  0  0  0  0  0  0
   -3.7160   -1.9930    1.7706 H   0  0  0  0  0  0  0  0  0  0  0  0
   -3.4880   -2.6500    0.1286 H   0  0  0  0  0  0  0  0  0  0  0  0
   -1.6860   -2.0850    1.1196 C   0  0  0  0  0  0  0  0  0  0  0  0
   -0.7540   -2.7700    1.5226 O   0  0  0  0  0  0  0  0  0  0  0  0
   -1.5320   -0.8490    0.6496 N   0  0  0  0  0  0  0  0  0  0  0  0
   -2.3500   -0.3360    0.3566 H   0  0  0  0  0  0  0  0  0  0  0  0
   -0.2470   -0.1410    0.5576 C   0  0  1  0  0  0  0  0  0  0  0  0
    0.4572   -0.6505    1.2162 H   0  0  0  0  0  0  0  0  0  0  0  0
    0.3091   -0.2220   -0.8868 C   0  0  1  0  0  0  0  0  0  0  0  0
    1.3957   -0.1417   -0.8181 H   0  0  0  0  0  0  0  0  0  0  0  0
   -0.0194   -1.5635   -1.5695 C   0  0  0  0  0  0  0  0  0  0  0  0
   -1.0947   -1.6590   -1.7308 H   0  0  0  0  0  0  0  0  0  0  0  0
    0.4918   -1.6353   -2.5282 H   0  0  0  0  0  0  0  0  0  0  0  0
    0.3183   -2.3944   -0.9491 H   0  0  0  0  0  0  0  0  0  0  0  0
   -0.1873    0.9673   -1.7393 C   0  0  0  0  0  0  0  0  0  0  0  0
    0.6641    1.5258   -2.1306 H   0  0  0  0  0  0  0  0  0  0  0  0
   -0.7590    0.5798   -2.5825 H   0  0  0  0  0  0  0  0  0  0  0  0
   -1.0992    1.9366   -0.9749 C   0  0  0  0  0  0  0  0  0  0  0  0
   -0.5452    2.4368   -0.1808 H   0  0  0  0  0  0  0  0  0  0  0  0
   -1.4773    2.6928   -1.6632 H   0  0  0  0  0  0  0  0  0  0  0  0
   -1.9427    1.3950   -0.5454 H   0  0  0  0  0  0  0  0  0  0  0  0
   -0.3971    1.3008    1.0689 C   0  0  0  0  0  0  0  0  0  0  0  0
   -1.3643    1.9819    0.7311 O   0  0  0  0  0  0  0  0  0  0  0  0
    0.5522    1.7647    1.8915 N   0  0  0  0  0  0  0  0  0  0  0  0
    1.3093    1.1450    2.1332 H   0  0  0  0  0  0  0  0  0  0  0  0
    0.5577    3.1119    2.4582 C   0  0  0  0  0  0  0  0  0  0  0  0
   -0.3986    3.3098    2.9475 H   0  0  0  0  0  0  0  0  0  0  0  0
    1.3619    3.2123    3.1886 H   0  0  0  0  0  0  0  0  0  0  0  0
    0.6974    3.8450    1.6614 H   0  0  0  0  0  0  0  0  0  0  0  0
  5  6  2  0  0  0  0
  5  7  1  0  0  0  0
  2  3  1  0  0  0  0
  2  4  1  0  0  0  0
  2  5  1  0  0  0  0
  1  2  1  0  0  0  0
 24 25  2  0  0  0  0
 24 26  1  0  0  0  0
 20 21  1  0  0  0  0
 20 22  1  0  0  0  0
 20 23  1  0  0  0  0
 17 18  1  0  0  0  0
 17 19  1  0  0  0  0
 17 20  1  0  0  0  0
 13 14  1  0  0  0  0
 13 15  1  0  0  0  0
 13 16  1  0  0  0  0
 11 12  1  0  0  0  0
 11 13  1  0  0  0  0
 11 17  1  0  0  0  0
  9 10  1  0  0  0  0
  9 11  1  0  0  0  0
  9 24  1  0  0  0  0
  7  8  1  0  0  0  0
  7  9  1  0  0  0  0
 28 29  1  0  0  0  0
 28 30  1  0  0  0  0
 28 31  1  0  0  0  0
 26 27  1  0  0  0  0
 26 28  1  0  0  0  0
M  END
$$$$
default_name
  -OEChem-02102213163D

 31 30  0     1  0  0  0  0  0999 V2000
   -3.0760   -3.6390    1.5496 H   0  0  0  0  0  0  0  0  0  0  0  0
   -3.0940   -2.6290    1.1426 C   0  0  0  0  0  0  0  0  0  0  0  0
   -3.7160   -1.9930    1.7706 H   0  0  0  0  0  0  0  0  0  0  0  0
   -3.4880   -2.6500    0.1286 H   0  0  0  0  0  0  0  0  0  0  0  0
   -1.6860   -2.0850    1.1196 C   0  0  0  0  0  0  0  0  0  0  0  0
   -0.7540   -2.7700    1.5226 O   0  0  0  0  0  0  0  0  0  0  0  0
   -1.5320   -0.8490    0.6496 N   0  0  0  0  0  0  0  0  0  0  0  0
   -2.3500   -0.3360    0.3566 H   0  0  0  0  0  0  0  0  0  0  0  0
   -0.2470   -0.1410    0.5576 C   0  0  1  0  0  0  0  0  0  0  0  0
    0.4572   -0.6505    1.2162 H   0  0  0  0  0  0  0  0  0  0  0  0
    0.3091   -0.2220   -0.8868 C   0  0  1  0  0  0  0  0  0  0  0  0
    1.3957   -0.1417   -0.8181 H   0  0  0  0  0  0  0  0  0  0  0  0
   -0.0194   -1.5635   -1.5695 C   0  0  0  0  0  0  0  0  0  0  0  0
   -1.0947   -1.6590   -1.7308 H   0  0  0  0  0  0  0  0  0  0  0  0
    0.4918   -1.6353   -2.5282 H   0  0  0  0  0  0  0  0  0  0  0  0
    0.3183   -2.3944   -0.9491 H   0  0  0  0  0  0  0  0  0  0  0  0
   -0.1873    0.9673   -1.7393 C   0  0  0  0  0  0  0  0  0  0  0  0
    0.6328    1.3624   -2.3403 H   0  0  0  0  0  0  0  0  0  0  0  0
   -0.9666    0.6137   -2.4143 H   0  0  0  0  0  0  0  0  0  0  0  0
   -0.7842    2.1135   -0.9115 C   0  0  0  0  0  0  0  0  0  0  0  0
   -0.0169    2.5776   -0.2921 H   0  0  0  0  0  0  0  0  0  0  0  0
   -1.1905    2.8692   -1.5843 H   0  0  0  0  0  0  0  0  0  0  0  0
   -1.5866    1.7365   -0.2764 H   0  0  0  0  0  0  0  0  0  0  0  0
   -0.3971    1.3008    1.0689 C   0  0  0  0  0  0  0  0  0  0  0  0
   -1.3643    1.9819    0.7311 O   0  0  0  0  0  0  0  0  0  0  0  0
    0.5522    1.7647    1.8915 N   0  0  0  0  0  0  0  0  0  0  0  0
    1.3093    1.1450    2.1332 H   0  0  0  0  0  0  0  0  0  0  0  0
    0.5577    3.1119    2.4582 C   0  0  0  0  0  0  0  0  0  0  0  0
   -0.3986    3.3098    2.9475 H   0  0  0  0  0  0  0  0  0  0  0  0
    1.3619    3.2123    3.1886 H   0  0  0  0  0  0  0  0  0  0  0  0
    0.6974    3.8450    1.6614 H   0  0  0  0  0  0  0  0  0  0  0  0
  5  6  2  0  0  0  0
  5  7  1  0  0  0  0
  2  3  1  0  0  0  0
  2  4  1  0  0  0  0
  2  5  1  0  0  0  0
  1  2  1  0  0  0  0
 24 25  2  0  0  0  0
 24 26  1  0  0  0  0
 20 21  1  0  0  0  0
 20 22  1  0  0  0  0
 20 23  1  0  0  0  0
 17 18  1  0  0  0  0
 17 19  1  0  0  0  0
 17 20  1  0  0  0  0
 13 14  1  0  0  0  0
 13 15  1  0  0  0  0
 13 16  1  0  0  0  0
 11 12  1  0  0  0  0
 11 13  1  0  0  0  0
 11 17  1  0  0  0  0
  9 10  1  0  0  0  0
  9 11  1  0  0  0  0
  9 24  1  0  0  0  0
  7  8  1  0  0  0  0
  7  9  1  0  0  0  0
 28 29  1  0  0  0  0
 28 30  1  0  0  0  0
 28 31  1  0  0  0  0
 26 27  1  0  0  0  0
 26 28  1  0  0  0  0
M  END
$$$$
default_name
  -OEChem-02102213163D

 31 30  0     1  0  0  0  0  0999 V2000
   -3.0760   -3.6390    1.5496 H   0  0  0  0  0  0  0  0  0  0  0  0
   -3.0940   -2.6290    1.1426 C   0  0  0  0  0  0  0  0  0  0  0  0
   -3.7160   -1.9930    1.7706 H   0  0  0  0  0  0  0  0  0  0  0  0
   -3.4880   -2.6500    0.1286 H   0  0  0  0  0  0  0  0  0  0  0  0
   -1.6860   -2.0850    1.1196 C   0  0  0  0  0  0  0  0  0  0  0  0
   -0.7540   -2.7700    1.5226 O   0  0  0  0  0  0  0  0  0  0  0  0
   -1.5320   -0.8490    0.6496 N   0  0  0  0  0  0  0  0  0  0  0  0
   -2.3500   -0.3360    0.3566 H   0  0  0  0  0  0  0  0  0  0  0  0
   -0.2470   -0.1410    0.5576 C   0  0  1  0  0  0  0  0  0  0  0  0
    0.4572   -0.6505    1.2162 H   0  0  0  0  0  0  0  0  0  0  0  0
    0.3091   -0.2220   -0.8868 C   0  0  1  0  0  0  0  0  0  0  0  0
    1.3957   -0.1417   -0.8181 H   0  0  0  0  0  0  0  0  0  0  0  0
   -0.0194   -1.5635   -1.5695 C   0  0  0  0  0  0  0  0  0  0  0  0
   -1.0947   -1.6590   -1.7308 H   0  0  0  0  0  0  0  0  0  0  0  0
    0.4918   -1.6353   -2.5282 H   0  0  0  0  0  0  0  0  0  0  0  0
    0.3183   -2.3944   -0.9491 H   0  0  0  0  0  0  0  0  0  0  0  0
   -0.1873    0.9673   -1.7393 C   0  0  0  0  0  0  0  0  0  0  0  0
    0.5374    1.1916   -2.5231 H   0  0  0  0  0  0  0  0  0  0  0  0
   -1.1289    0.6901   -2.2132 H   0  0  0  0  0  0  0  0  0  0  0  0
   -0.4421    2.2447   -0.9277 C   0  0  0  0  0  0  0  0  0  0  0  0
    0.4912    2.6289   -0.5165 H   0  0  0  0  0  0  0  0  0  0  0  0
   -0.8725    3.0051   -1.5798 H   0  0  0  0  0  0  0  0  0  0  0  0
   -1.1402    2.0379   -0.1159 H   0  0  0  0  0  0  0  0  0  0  0  0
   -0.3971    1.3008    1.0689 C   0  0  0  0  0  0  0  0  0  0  0  0
   -1.3643    1.9819    0.7311 O   0  0  0  0  0  0  0  0  0  0  0  0
    0.5522    1.7647    1.8915 N   0  0  0  0  0  0  0  0  0  0  0  0
    1.3093    1.1450    2.1332 H   0  0  0  0  0  0  0  0  0  0  0  0
    0.5577    3.1119    2.4582 C   0  0  0  0  0  0  0  0  0  0  0  0
   -0.3986    3.3098    2.9475 H   0  0  0  0  0  0  0  0  0  0  0  0
    1.3619    3.2123    3.1886 H   0  0  0  0  0  0  0  0  0  0  0  0
    0.6974    3.8450    1.6614 H   0  0  0  0  0  0  0  0  0  0  0  0
  5  6  2  0  0  0  0
  5  7  1  0  0  0  0
  2  3  1  0  0  0  0
  2  4  1  0  0  0  0
  2  5  1  0  0  0  0
  1  2  1  0  0  0  0
 24 25  2  0  0  0  0
 24 26  1  0  0  0  0
 20 21  1  0  0  0  0
 20 22  1  0  0  0  0
 20 23  1  0  0  0  0
 17 18  1  0  0  0  0
 17 19  1  0  0  0  0
 17 20  1  0  0  0  0
 13 14  1  0  0  0  0
 13 15  1  0  0  0  0
 13 16  1  0  0  0  0
 11 12  1  0  0  0  0
 11 13  1  0  0  0  0
 11 17  1  0  0  0  0
  9 10  1  0  0  0  0
  9 11  1  0  0  0  0
  9 24  1  0  0  0  0
  7  8  1  0  0  0  0
  7  9  1  0  0  0  0
 28 29  1  0  0  0  0
 28 30  1  0  0  0  0
 28 31  1  0  0  0  0
 26 27  1  0  0  0  0
 26 28  1  0  0  0  0
M  END
$$$$
default_name
  -OEChem-02102213163D

 31 30  0     1  0  0  0  0  0999 V2000
   -3.0760   -3.6390    1.5496 H   0  0  0  0  0  0  0  0  0  0  0  0
   -3.0940   -2.6290    1.1426 C   0  0  0  0  0  0  0  0  0  0  0  0
   -3.7160   -1.9930    1.7706 H   0  0  0  0  0  0  0  0  0  0  0  0
   -3.4880   -2.6500    0.1286 H   0  0  0  0  0  0  0  0  0  0  0  0
   -1.6860   -2.0850    1.1196 C   0  0  0  0  0  0  0  0  0  0  0  0
   -0.7540   -2.7700    1.5226 O   0  0  0  0  0  0  0  0  0  0  0  0
   -1.5320   -0.8490    0.6496 N   0  0  0  0  0  0  0  0  0  0  0  0
   -2.3500   -0.3360    0.3566 H   0  0  0  0  0  0  0  0  0  0  0  0
   -0.2470   -0.1410    0.5576 C   0  0  1  0  0  0  0  0  0  0  0  0
    0.4572   -0.6505    1.2162 H   0  0  0  0  0  0  0  0  0  0  0  0
    0.3091   -0.2220   -0.8868 C   0  0  1  0  0  0  0  0  0  0  0  0
    1.3957   -0.1417   -0.8181 H   0  0  0  0  0  0  0  0  0  0  0  0
   -0.0194   -1.5635   -1.5695 C   0  0  0  0  0  0  0  0  0  0  0  0
   -1.0947   -1.6590   -1.7308 H   0  0  0  0  0  0  0  0  0  0  0  0
    0.4918   -1.6353   -2.5282 H   0  0  0  0  0  0  0  0  0  0  0  0
    0.3183   -2.3944   -0.9491 H   0  0  0  0  0  0  0  0  0  0  0  0
   -0.1873    0.9673   -1.7393 C   0  0  0  0  0  0  0  0  0  0  0  0
    0.3845    1.0251   -2.6664 H   0  0  0  0  0  0  0  0  0  0  0  0
   -1.2346    0.8038   -1.9931 H   0  0  0  0  0  0  0  0  0  0  0  0
   -0.0961    2.3213   -1.0225 C   0  0  0  0  0  0  0  0  0  0  0  0
    0.9447    2.5872   -0.8388 H   0  0  0  0  0  0  0  0  0  0  0  0
   -0.5450    3.0913   -1.6502 H   0  0  0  0  0  0  0  0  0  0  0  0
   -0.6341    2.2786   -0.0748 H   0  0  0  0  0  0  0  0  0  0  0  0
   -0.3971    1.3008    1.0689 C   0  0  0  0  0  0  0  0  0  0  0  0
   -1.3643    1.9819    0.7311 O   0  0  0  0  0  0  0  0  0  0  0  0
    0.5522    1.7647    1.8915 N   0  0  0  0  0  0  0  0  0  0  0  0
    1.3093    1.1450    2.1332 H   0  0  0  0  0  0  0  0  0  0  0  0
    0.5577    3.1119    2.4582 C   0  0  0  0  0  0  0  0  0  0  0  0
   -0.3986    3.3098    2.9475 H   0  0  0  0  0  0  0  0  0  0  0  0
    1.3619    3.2123    3.1886 H   0  0  0  0  0  0  0  0  0  0  0  0
    0.6974    3.8450    1.6614 H   0  0  0  0  0  0  0  0  0  0  0  0
  5  6  2  0  0  0  0
  5  7  1  0  0  0  0
  2  3  1  0  0  0  0
  2  4  1  0  0  0  0
  2  5  1  0  0  0  0
  1  2  1  0  0  0  0
 24 25  2  0  0  0  0
 24 26  1  0  0  0  0
 20 21  1  0  0  0  0
 20 22  1  0  0  0  0
 20 23  1  0  0  0  0
 17 18  1  0  0  0  0
 17 19  1  0  0  0  0
 17 20  1  0  0  0  0
 13 14  1  0  0  0  0
 13 15  1  0  0  0  0
 13 16  1  0  0  0  0
 11 12  1  0  0  0  0
 11 13  1  0  0  0  0
 11 17  1  0  0  0  0
  9 10  1  0  0  0  0
  9 11  1  0  0  0  0
  9 24  1  0  0  0  0
  7  8  1  0  0  0  0
  7  9  1  0  0  0  0
 28 29  1  0  0  0  0
 28 30  1  0  0  0  0
 28 31  1  0  0  0  0
 26 27  1  0  0  0  0
 26 28  1  0  0  0  0
M  END
$$$$
default_name
  -OEChem-02102213163D

 31 30  0     1  0  0  0  0  0999 V2000
   -3.0760   -3.6390    1.5496 H   0  0  0  0  0  0  0  0  0  0  0  0
   -3.0940   -2.6290    1.1426 C   0  0  0  0  0  0  0  0  0  0  0  0
   -3.7160   -1.9930    1.7706 H   0  0  0  0  0  0  0  0  0  0  0  0
   -3.4880   -2.6500    0.1286 H   0  0  0  0  0  0  0  0  0  0  0  0
   -1.6860   -2.0850    1.1196 C   0  0  0  0  0  0  0  0  0  0  0  0
   -0.7540   -2.7700    1.5226 O   0  0  0  0  0  0  0  0  0  0  0  0
   -1.5320   -0.8490    0.6496 N   0  0  0  0  0  0  0  0  0  0  0  0
   -2.3500   -0.3360    0.3566 H   0  0  0  0  0  0  0  0  0  0  0  0
   -0.2470   -0.1410    0.5576 C   0  0  1  0  0  0  0  0  0  0  0  0
    0.4572   -0.6505    1.2162 H   0  0  0  0  0  0  0  0  0  0  0  0
    0.3091   -0.2220   -0.8868 C   0  0  1  0  0  0  0  0  0  0  0  0
    1.3957   -0.1417   -0.8181 H   0  0  0  0  0  0  0  0  0  0  0  0
   -0.0194   -1.5635   -1.5695 C   0  0  0  0  0  0  0  0  0  0  0  0
   -1.0947   -1.6590   -1.7308 H   0  0  0  0  0  0  0  0  0  0  0  0
    0.4918   -1.6353   -2.5282 H   0  0  0  0  0  0  0  0  0  0  0  0
    0.3183   -2.3944   -0.9491 H   0  0  0  0  0  0  0  0  0  0  0  0
   -0.1873    0.9673   -1.7393 C   0  0  0  0  0  0  0  0  0  0  0  0
    0.1845    0.8741   -2.7605 H   0  0  0  0  0  0  0  0  0  0  0  0
   -1.2767    0.9470   -1.7688 H   0  0  0  0  0  0  0  0  0  0  0  0
    0.2302    2.3379   -1.1893 C   0  0  0  0  0  0  0  0  0  0  0  0
    1.3126    2.4554   -1.2369 H   0  0  0  0  0  0  0  0  0  0  0  0
   -0.2304    3.1220   -1.7906 H   0  0  0  0  0  0  0  0  0  0  0  0
   -0.1026    2.4423   -0.1560 H   0  0  0  0  0  0  0  0  0  0  0  0
   -0.3971    1.3008    1.0689 C   0  0  0  0  0  0  0  0  0  0  0  0
   -1.3643    1.9819    0.7311 O   0  0  0  0  0  0  0  0  0  0  0  0
    0.5522    1.7647    1.8915 N   0  0  0  0  0  0  0  0  0  0  0  0
    1.3093    1.1450    2.1332 H   0  0  0  0  0  0  0  0  0  0  0  0
    0.5577    3.1119    2.4582 C   0  0  0  0  0  0  0  0  0  0  0  0
   -0.3986    3.3098    2.9475 H   0  0  0  0  0  0  0  0  0  0  0  0
    1.3619    3.2123    3.1886 H   0  0  0  0  0  0  0  0  0  0  0  0
    0.6974    3.8450    1.6614 H   0  0  0  0  0  0  0  0  0  0  0  0
  5  6  2  0  0  0  0
  5  7  1  0  0  0  0
  2  3  1  0  0  0  0
  2  4  1  0  0  0  0
  2  5  1  0  0  0  0
  1  2  1  0  0  0  0
 24 25  2  0  0  0  0
 24 26  1  0  0  0  0
 20 21  1  0  0  0  0
 20 22  1  0  0  0  0
 20 23  1  0  0  0  0
 17 18  1  0  0  0  0
 17 19  1  0  0  0  0
 17 20  1  0  0  0  0
 13 14  1  0  0  0  0
 13 15  1  0  0  0  0
 13 16  1  0  0  0  0
 11 12  1  0  0  0  0
 11 13  1  0  0  0  0
 11 17  1  0  0  0  0
  9 10  1  0  0  0  0
  9 11  1  0  0  0  0
  9 24  1  0  0  0  0
  7  8  1  0  0  0  0
  7  9  1  0  0  0  0
 28 29  1  0  0  0  0
 28 30  1  0  0  0  0
 28 31  1  0  0  0  0
 26 27  1  0  0  0  0
 26 28  1  0  0  0  0
M  END
$$$$
default_name
  -OEChem-02102213163D

 31 30  0     1  0  0  0  0  0999 V2000
   -3.0760   -3.6390    1.5496 H   0  0  0  0  0  0  0  0  0  0  0  0
   -3.0940   -2.6290    1.1426 C   0  0  0  0  0  0  0  0  0  0  0  0
   -3.7160   -1.9930    1.7706 H   0  0  0  0  0  0  0  0  0  0  0  0
   -3.4880   -2.6500    0.1286 H   0  0  0  0  0  0  0  0  0  0  0  0
   -1.6860   -2.0850    1.1196 C   0  0  0  0  0  0  0  0  0  0  0  0
   -0.7540   -2.7700    1.5226 O   0  0  0  0  0  0  0  0  0  0  0  0
   -1.5320   -0.8490    0.6496 N   0  0  0  0  0  0  0  0  0  0  0  0
   -2.3500   -0.3360    0.3566 H   0  0  0  0  0  0  0  0  0  0  0  0
   -0.2470   -0.1410    0.5576 C   0  0  1  0  0  0  0  0  0  0  0  0
    0.4572   -0.6505    1.2162 H   0  0  0  0  0  0  0  0  0  0  0  0
    0.3091   -0.2220   -0.8868 C   0  0  1  0  0  0  0  0  0  0  0  0
    1.3957   -0.1417   -0.8181 H   0  0  0  0  0  0  0  0  0  0  0  0
   -0.0194   -1.5635   -1.5695 C   0  0  0  0  0  0  0  0  0  0  0  0
   -1.0947   -1.6590   -1.7308 H   0  0  0  0  0  0  0  0  0  0  0  0
    0.4918   -1.6353   -2.5282 H   0  0  0  0  0  0  0  0  0  0  0  0
    0.3183   -2.3944   -0.9491 H   0  0  0  0  0  0  0  0  0  0  0  0
   -0.1873    0.9673   -1.7393 C   0  0  0  0  0  0  0  0  0  0  0  0
   -0.0490    0.7490   -2.7990 H   0  0  0  0  0  0  0  0  0  0  0  0
   -1.2522    1.1100   -1.5557 H   0  0  0  0  0  0  0  0  0  0  0  0
    0.5144    2.2935   -1.4167 C   0  0  0  0  0  0  0  0  0  0  0  0
    1.5698    2.2424   -1.6839 H   0  0  0  0  0  0  0  0  0  0  0  0
    0.0499    3.0951   -1.9914 H   0  0  0  0  0  0  0  0  0  0  0  0
    0.4179    2.5178   -0.3539 H   0  0  0  0  0  0  0  0  0  0  0  0
   -0.3971    1.3008    1.0689 C   0  0  0  0  0  0  0  0  0  0  0  0
   -1.3643    1.9819    0.7311 O   0  0  0  0  0  0  0  0  0  0  0  0
    0.5522    1.7647    1.8915 N   0  0  0  0  0  0  0  0  0  0  0  0
    1.3093    1.1450    2.1332 H   0  0  0  0  0  0  0  0  0  0  0  0
    0.5577    3.1119    2.4582 C   0  0  0  0  0  0  0  0  0  0  0  0
   -0.3986    3.3098    2.9475 H   0  0  0  0  0  0  0  0  0  0  0  0
    1.3619    3.2123    3.1886 H   0  0  0  0  0  0  0  0  0  0  0  0
    0.6974    3.8450    1.6614 H   0  0  0  0  0  0  0  0  0  0  0  0
  5  6  2  0  0  0  0
  5  7  1  0  0  0  0
  2  3  1  0  0  0  0
  2  4  1  0  0  0  0
  2  5  1  0  0  0  0
  1  2  1  0  0  0  0
 24 25  2  0  0  0  0
 24 26  1  0  0  0  0
 20 21  1  0  0  0  0
 20 22  1  0  0  0  0
 20 23  1  0  0  0  0
 17 18  1  0  0  0  0
 17 19  1  0  0  0  0
 17 20  1  0  0  0  0
 13 14  1  0  0  0  0
 13 15  1  0  0  0  0
 13 16  1  0  0  0  0
 11 12  1  0  0  0  0
 11 13  1  0  0  0  0
 11 17  1  0  0  0  0
  9 10  1  0  0  0  0
  9 11  1  0  0  0  0
  9 24  1  0  0  0  0
  7  8  1  0  0  0  0
  7  9  1  0  0  0  0
 28 29  1  0  0  0  0
 28 30  1  0  0  0  0
 28 31  1  0  0  0  0
 26 27  1  0  0  0  0
 26 28  1  0  0  0  0
M  END
$$$$
default_name
  -OEChem-02102213163D

 31 30  0     1  0  0  0  0  0999 V2000
   -3.0760   -3.6390    1.5496 H   0  0  0  0  0  0  0  0  0  0  0  0
   -3.0940   -2.6290    1.1426 C   0  0  0  0  0  0  0  0  0  0  0  0
   -3.7160   -1.9930    1.7706 H   0  0  0  0  0  0  0  0  0  0  0  0
   -3.4880   -2.6500    0.1286 H   0  0  0  0  0  0  0  0  0  0  0  0
   -1.6860   -2.0850    1.1196 C   0  0  0  0  0  0  0  0  0  0  0  0
   -0.7540   -2.7700    1.5226 O   0  0  0  0  0  0  0  0  0  0  0  0
   -1.5320   -0.8490    0.6496 N   0  0  0  0  0  0  0  0  0  0  0  0
   -2.3500   -0.3360    0.3566 H   0  0  0  0  0  0  0  0  0  0  0  0
   -0.2470   -0.1410    0.5576 C   0  0  1  0  0  0  0  0  0  0  0  0
    0.4572   -0.6505    1.2162 H   0  0  0  0  0  0  0  0  0  0  0  0
    0.3091   -0.2220   -0.8868 C   0  0  1  0  0  0  0  0  0  0  0  0
    1.3957   -0.1417   -0.8181 H   0  0  0  0  0  0  0  0  0  0  0  0
   -0.0194   -1.5635   -1.5695 C   0  0  0  0  0  0  0  0  0  0  0  0
   -1.0947   -1.6590   -1.7308 H   0  0  0  0  0  0  0  0  0  0  0  0
    0.4918   -1.6353   -2.5282 H   0  0  0  0  0  0  0  0  0  0  0  0
    0.3183   -2.3944   -0.9491 H   0  0  0  0  0  0  0  0  0  0  0  0
   -0.1873    0.9673   -1.7393 C   0  0  0  0  0  0  0  0  0  0  0  0
   -0.3000    0.6583   -2.7793 H   0  0  0  0  0  0  0  0  0  0  0  0
   -1.1628    1.2816   -1.3682 H   0  0  0  0  0  0  0  0  0  0  0  0
    0.7374    2.1911   -1.6894 C   0  0  0  0  0  0  0  0  0  0  0  0
    1.6988    1.9628   -2.1491 H   0  0  0  0  0  0  0  0  0  0  0  0
    0.2767    3.0124   -2.2390 H   0  0  0  0  0  0  0  0  0  0  0  0
    0.8921    2.4999   -0.6550 H   0  0  0  0  0  0  0  0  0  0  0  0
   -0.3971    1.3008    1.0689 C   0  0  0  0  0  0  0  0  0  0  0  0
   -1.3643    1.9819    0.7311 O   0  0  0  0  0  0  0  0  0  0  0  0
    0.5522    1.7647    1.8915 N   0  0  0  0  0  0  0  0  0  0  0  0
    1.3093    1.1450    2.1332 H   0  0  0  0  0  0  0  0  0  0  0  0
    0.5577    3.1119    2.4582 C   0  0  0  0  0  0  0  0  0  0  0  0
   -0.3986    3.3098    2.9475 H   0  0  0  0  0  0  0  0  0  0  0  0
    1.3619    3.2123    3.1886 H   0  0  0  0  0  0  0  0  0  0  0  0
    0.6974    3.8450    1.6614 H   0  0  0  0  0  0  0  0  0  0  0  0
  5  6  2  0  0  0  0
  5  7  1  0  0  0  0
  2  3  1  0  0  0  0
  2  4  1  0  0  0  0
  2  5  1  0  0  0  0
  1  2  1  0  0  0  0
 24 25  2  0  0  0  0
 24 26  1  0  0  0  0
 20 21  1  0  0  0  0
 20 22  1  0  0  0  0
 20 23  1  0  0  0  0
 17 18  1  0  0  0  0
 17 19  1  0  0  0  0
 17 20  1  0  0  0  0
 13 14  1  0  0  0  0
 13 15  1  0  0  0  0
 13 16  1  0  0  0  0
 11 12  1  0  0  0  0
 11 13  1  0  0  0  0
 11 17  1  0  0  0  0
  9 10  1  0  0  0  0
  9 11  1  0  0  0  0
  9 24  1  0  0  0  0
  7  8  1  0  0  0  0
  7  9  1  0  0  0  0
 28 29  1  0  0  0  0
 28 30  1  0  0  0  0
 28 31  1  0  0  0  0
 26 27  1  0  0  0  0
 26 28  1  0  0  0  0
M  END
$$$$
default_name
  -OEChem-02102213163D

 31 30  0     1  0  0  0  0  0999 V2000
   -3.0760   -3.6390    1.5496 H   0  0  0  0  0  0  0  0  0  0  0  0
   -3.0940   -2.6290    1.1426 C   0  0  0  0  0  0  0  0  0  0  0  0
   -3.7160   -1.9930    1.7706 H   0  0  0  0  0  0  0  0  0  0  0  0
   -3.4880   -2.6500    0.1286 H   0  0  0  0  0  0  0  0  0  0  0  0
   -1.6860   -2.0850    1.1196 C   0  0  0  0  0  0  0  0  0  0  0  0
   -0.7540   -2.7700    1.5226 O   0  0  0  0  0  0  0  0  0  0  0  0
   -1.5320   -0.8490    0.6496 N   0  0  0  0  0  0  0  0  0  0  0  0
   -2.3500   -0.3360    0.3566 H   0  0  0  0  0  0  0  0  0  0  0  0
   -0.2470   -0.1410    0.5576 C   0  0  1  0  0  0  0  0  0  0  0  0
    0.4572   -0.6505    1.2162 H   0  0  0  0  0  0  0  0  0  0  0  0
    0.3091   -0.2220   -0.8868 C   0  0  1  0  0  0  0  0  0  0  0  0
    1.3957   -0.1417   -0.8181 H   0  0  0  0  0  0  0  0  0  0  0  0
   -0.0194   -1.5635   -1.5695 C   0  0  0  0  0  0  0  0  0  0  0  0
   -1.0947   -1.6590   -1.7308 H   0  0  0  0  0  0  0  0  0  0  0  0
    0.4918   -1.6353   -2.5282 H   0  0  0  0  0  0  0  0  0  0  0  0
    0.3183   -2.3944   -0.9491 H   0  0  0  0  0  0  0  0  0  0  0  0
   -0.1873    0.9673   -1.7393 C   0  0  0  0  0  0  0  0  0  0  0  0
   -0.5516    0.6082   -2.7027 H   0  0  0  0  0  0  0  0  0  0  0  0
   -1.0146    1.4502   -1.2193 H   0  0  0  0  0  0  0  0  0  0  0  0
    0.8838    2.0377   -1.9887 C   0  0  0  0  0  0  0  0  0  0  0  0
    1.6908    1.6356   -2.6009 H   0  0  0  0  0  0  0  0  0  0  0  0
    0.4348    2.8795   -2.5164 H   0  0  0  0  0  0  0  0  0  0  0  0
    1.2876    2.3899   -1.0388 H   0  0  0  0  0  0  0  0  0  0  0  0
   -0.3971    1.3008    1.0689 C   0  0  0  0  0  0  0  0  0  0  0  0
   -1.3643    1.9819    0.7311 O   0  0  0  0  0  0  0  0  0  0  0  0
    0.5522    1.7647    1.8915 N   0  0  0  0  0  0  0  0  0  0  0  0
    1.3093    1.1450    2.1332 H   0  0  0  0  0  0  0  0  0  0  0  0
    0.5577    3.1119    2.4582 C   0  0  0  0  0  0  0  0  0  0  0  0
   -0.3986    3.3098    2.9475 H   0  0  0  0  0  0  0  0  0  0  0  0
    1.3619    3.2123    3.1886 H   0  0  0  0  0  0  0  0  0  0  0  0
    0.6974    3.8450    1.6614 H   0  0  0  0  0  0  0  0  0  0  0  0
  5  6  2  0  0  0  0
  5  7  1  0  0  0  0
  2  3  1  0  0  0  0
  2  4  1  0  0  0  0
  2  5  1  0  0  0  0
  1  2  1  0  0  0  0
 24 25  2  0  0  0  0
 24 26  1  0  0  0  0
 20 21  1  0  0  0  0
 20 22  1  0  0  0  0
 20 23  1  0  0  0  0
 17 18  1  0  0  0  0
 17 19  1  0  0  0  0
 17 20  1  0  0  0  0
 13 14  1  0  0  0  0
 13 15  1  0  0  0  0
 13 16  1  0  0  0  0
 11 12  1  0  0  0  0
 11 13  1  0  0  0  0
 11 17  1  0  0  0  0
  9 10  1  0  0  0  0
  9 11  1  0  0  0  0
  9 24  1  0  0  0  0
  7  8  1  0  0  0  0
  7  9  1  0  0  0  0
 28 29  1  0  0  0  0
 28 30  1  0  0  0  0
 28 31  1  0  0  0  0
 26 27  1  0  0  0  0
 26 28  1  0  0  0  0
M  END
$$$$
default_name
  -OEChem-02102213163D

 31 30  0     1  0  0  0  0  0999 V2000
   -3.0760   -3.6390    1.5496 H   0  0  0  0  0  0  0  0  0  0  0  0
   -3.0940   -2.6290    1.1426 C   0  0  0  0  0  0  0  0  0  0  0  0
   -3.7160   -1.9930    1.7706 H   0  0  0  0  0  0  0  0  0  0  0  0
   -3.4880   -2.6500    0.1286 H   0  0  0  0  0  0  0  0  0  0  0  0
   -1.6860   -2.0850    1.1196 C   0  0  0  0  0  0  0  0  0  0  0  0
   -0.7540   -2.7700    1.5226 O   0  0  0  0  0  0  0  0  0  0  0  0
   -1.5320   -0.8490    0.6496 N   0  0  0  0  0  0  0  0  0  0  0  0
   -2.3500   -0.3360    0.3566 H   0  0  0  0  0  0  0  0  0  0  0  0
   -0.2470   -0.1410    0.5576 C   0  0  1  0  0  0  0  0  0  0  0  0
    0.4572   -0.6505    1.2162 H   0  0  0  0  0  0  0  0  0  0  0  0
    0.3091   -0.2220   -0.8868 C   0  0  1  0  0  0  0  0  0  0  0  0
    1.3957   -0.1417   -0.8181 H   0  0  0  0  0  0  0  0  0  0  0  0
   -0.0194   -1.5635   -1.5695 C   0  0  0  0  0  0  0  0  0  0  0  0
   -1.0947   -1.6590   -1.7308 H   0  0  0  0  0  0  0  0  0  0  0  0
    0.4918   -1.6353   -2.5282 H   0  0  0  0  0  0  0  0  0  0  0  0
    0.3183   -2.3944   -0.9491 H   0  0  0  0  0  0  0  0  0  0  0  0
   -0.1873    0.9673   -1.7393 C   0  0  0  0  0  0  0  0  0  0  0  0
   -0.7864    0.6021   -2.5745 H   0  0  0  0  0  0  0  0  0  0  0  0
   -0.8177    1.6044   -1.1189 H   0  0  0  0  0  0  0  0  0  0  0  0
    0.9437    1.8438   -2.2942 C   0  0  0  0  0  0  0  0  0  0  0  0
    1.5464    1.2832   -3.0085 H   0  0  0  0  0  0  0  0  0  0  0  0
    0.5132    2.7055   -2.8048 H   0  0  0  0  0  0  0  0  0  0  0  0
    1.5774    2.1952   -1.4792 H   0  0  0  0  0  0  0  0  0  0  0  0
   -0.3971    1.3008    1.0689 C   0  0  0  0  0  0  0  0  0  0  0  0
   -1.3643    1.9819    0.7311 O   0  0  0  0  0  0  0  0  0  0  0  0
    0.5522    1.7647    1.8915 N   0  0  0  0  0  0  0  0  0  0  0  0
    1.3093    1.1450    2.1332 H   0  0  0  0  0  0  0  0  0  0  0  0
    0.5577    3.1119    2.4582 C   0  0  0  0  0  0  0  0  0  0  0  0
   -0.3986    3.3098    2.9475 H   0  0  0  0  0  0  0  0  0  0  0  0
    1.3619    3.2123    3.1886 H   0  0  0  0  0  0  0  0  0  0  0  0
    0.6974    3.8450    1.6614 H   0  0  0  0  0  0  0  0  0  0  0  0
  5  6  2  0  0  0  0
  5  7  1  0  0  0  0
  2  3  1  0  0  0  0
  2  4  1  0  0  0  0
  2  5  1  0  0  0  0
  1  2  1  0  0  0  0
 24 25  2  0  0  0  0
 24 26  1  0  0  0  0
 20 21  1  0  0  0  0
 20 22  1  0  0  0  0
 20 23  1  0  0  0  0
 17 18  1  0  0  0  0
 17 19  1  0  0  0  0
 17 20  1  0  0  0  0
 13 14  1  0  0  0  0
 13 15  1  0  0  0  0
 13 16  1  0  0  0  0
 11 12  1  0  0  0  0
 11 13  1  0  0  0  0
 11 17  1  0  0  0  0
  9 10  1  0  0  0  0
  9 11  1  0  0  0  0
  9 24  1  0  0  0  0
  7  8  1  0  0  0  0
  7  9  1  0  0  0  0
 28 29  1  0  0  0  0
 28 30  1  0  0  0  0
 28 31  1  0  0  0  0
 26 27  1  0  0  0  0
 26 28  1  0  0  0  0
M  END
$$$$
default_name
  -OEChem-02102213163D

 31 30  0     1  0  0  0  0  0999 V2000
   -3.0760   -3.6390    1.5496 H   0  0  0  0  0  0  0  0  0  0  0  0
   -3.0940   -2.6290    1.1426 C   0  0  0  0  0  0  0  0  0  0  0  0
   -3.7160   -1.9930    1.7706 H   0  0  0  0  0  0  0  0  0  0  0  0
   -3.4880   -2.6500    0.1286 H   0  0  0  0  0  0  0  0  0  0  0  0
   -1.6860   -2.0850    1.1196 C   0  0  0  0  0  0  0  0  0  0  0  0
   -0.7540   -2.7700    1.5226 O   0  0  0  0  0  0  0  0  0  0  0  0
   -1.5320   -0.8490    0.6496 N   0  0  0  0  0  0  0  0  0  0  0  0
   -2.3500   -0.3360    0.3566 H   0  0  0  0  0  0  0  0  0  0  0  0
   -0.2470   -0.1410    0.5576 C   0  0  1  0  0  0  0  0  0  0  0  0
    0.4572   -0.6505    1.2162 H   0  0  0  0  0  0  0  0  0  0  0  0
    0.3091   -0.2220   -0.8868 C   0  0  1  0  0  0  0  0  0  0  0  0
    1.3957   -0.1417   -0.8181 H   0  0  0  0  0  0  0  0  0  0  0  0
   -0.0194   -1.5635   -1.5695 C   0  0  0  0  0  0  0  0  0  0  0  0
   -1.0947   -1.6590   -1.7308 H   0  0  0  0  0  0  0  0  0  0  0  0
    0.4918   -1.6353   -2.5282 H   0  0  0  0  0  0  0  0  0  0  0  0
    0.3183   -2.3944   -0.9491 H   0  0  0  0  0  0  0  0  0  0  0  0
   -0.1873    0.9673   -1.7393 C   0  0  0  0  0  0  0  0  0  0  0  0
   -0.9886    0.6404   -2.4033 H   0  0  0  0  0  0  0  0  0  0  0  0
   -0.5855    1.7334   -1.0741 H   0  0  0  0  0  0  0  0  0  0  0  0
    0.9130    1.6225   -2.5851 C   0  0  0  0  0  0  0  0  0  0  0  0
    1.2753    0.9294   -3.3442 H   0  0  0  0  0  0  0  0  0  0  0  0
    0.5066    2.5022   -3.0846 H   0  0  0  0  0  0  0  0  0  0  0  0
    1.7418    1.9292   -1.9462 H   0  0  0  0  0  0  0  0  0  0  0  0
   -0.3971    1.3008    1.0689 C   0  0  0  0  0  0  0  0  0  0  0  0
   -1.3643    1.9819    0.7311 O   0  0  0  0  0  0  0  0  0  0  0  0
    0.5522    1.7647    1.8915 N   0  0  0  0  0  0  0  0  0  0  0  0
    1.3093    1.1450    2.1332 H   0  0  0  0  0  0  0  0  0  0  0  0
    0.5577    3.1119    2.4582 C   0  0  0  0  0  0  0  0  0  0  0  0
   -0.3986    3.3098    2.9475 H   0  0  0  0  0  0  0  0  0  0  0  0
    1.3619    3.2123    3.1886 H   0  0  0  0  0  0  0  0  0  0  0  0
    0.6974    3.8450    1.6614 H   0  0  0  0  0  0  0  0  0  0  0  0
  5  6  2  0  0  0  0
  5  7  1  0  0  0  0
  2  3  1  0  0  0  0
  2  4  1  0  0  0  0
  2  5  1  0  0  0  0
  1  2  1  0  0  0  0
 24 25  2  0  0  0  0
 24 26  1  0  0  0  0
 20 21  1  0  0  0  0
 20 22  1  0  0  0  0
 20 23  1  0  0  0  0
 17 18  1  0  0  0  0
 17 19  1  0  0  0  0
 17 20  1  0  0  0  0
 13 14  1  0  0  0  0
 13 15  1  0  0  0  0
 13 16  1  0  0  0  0
 11 12  1  0  0  0  0
 11 13  1  0  0  0  0
 11 17  1  0  0  0  0
  9 10  1  0  0  0  0
  9 11  1  0  0  0  0
  9 24  1  0  0  0  0
  7  8  1  0  0  0  0
  7  9  1  0  0  0  0
 28 29  1  0  0  0  0
 28 30  1  0  0  0  0
 28 31  1  0  0  0  0
 26 27  1  0  0  0  0
 26 28  1  0  0  0  0
M  END
$$$$
default_name
  -OEChem-02102213163D

 31 30  0     1  0  0  0  0  0999 V2000
   -3.0760   -3.6390    1.5496 H   0  0  0  0  0  0  0  0  0  0  0  0
   -3.0940   -2.6290    1.1426 C   0  0  0  0  0  0  0  0  0  0  0  0
   -3.7160   -1.9930    1.7706 H   0  0  0  0  0  0  0  0  0  0  0  0
   -3.4880   -2.6500    0.1286 H   0  0  0  0  0  0  0  0  0  0  0  0
   -1.6860   -2.0850    1.1196 C   0  0  0  0  0  0  0  0  0  0  0  0
   -0.7540   -2.7700    1.5226 O   0  0  0  0  0  0  0  0  0  0  0  0
   -1.5320   -0.8490    0.6496 N   0  0  0  0  0  0  0  0  0  0  0  0
   -2.3500   -0.3360    0.3566 H   0  0  0  0  0  0  0  0  0  0  0  0
   -0.2470   -0.1410    0.5576 C   0  0  1  0  0  0  0  0  0  0  0  0
    0.4572   -0.6505    1.2162 H   0  0  0  0  0  0  0  0  0  0  0  0
    0.3091   -0.2220   -0.8868 C   0  0  1  0  0  0  0  0  0  0  0  0
    1.3957   -0.1417   -0.8181 H   0  0  0  0  0  0  0  0  0  0  0  0
   -0.0194   -1.5635   -1.5695 C   0  0  0  0  0  0  0  0  0  0  0  0
   -1.0947   -1.6590   -1.7308 H   0  0  0  0  0  0  0  0  0  0  0  0
    0.4918   -1.6353   -2.5282 H   0  0  0  0  0  0  0  0  0  0  0  0
    0.3183   -2.3944   -0.9491 H   0  0  0  0  0  0  0  0  0  0  0  0
   -0.1873    0.9673   -1.7393 C   0  0  0  0  0  0  0  0  0  0  0  0
   -1.1444    0.7205   -2.2008 H   0  0  0  0  0  0  0  0  0  0  0  0
   -0.3339    1.8287   -1.0877 H   0  0  0  0  0  0  0  0  0  0  0  0
    0.7938    1.3889   -2.8415 C   0  0  0  0  0  0  0  0  0  0  0  0
    0.8961    0.5986   -3.5850 H   0  0  0  0  0  0  0  0  0  0  0  0
    0.4155    2.2836   -3.3366 H   0  0  0  0  0  0  0  0  0  0  0  0
    1.7697    1.6099   -2.4078 H   0  0  0  0  0  0  0  0  0  0  0  0
   -0.3971    1.3008    1.0689 C   0  0  0  0  0  0  0  0  0  0  0  0
   -1.3643    1.9819    0.7311 O   0  0  0  0  0  0  0  0  0  0  0  0
    0.5522    1.7647    1.8915 N   0  0  0  0  0  0  0  0  0  0  0  0
    1.3093    1.1450    2.1332 H   0  0  0  0  0  0  0  0  0  0  0  0
    0.5577    3.1119    2.4582 C   0  0  0  0  0  0  0  0  0  0  0  0
   -0.3986    3.3098    2.9475 H   0  0  0  0  0  0  0  0  0  0  0  0
    1.3619    3.2123    3.1886 H   0  0  0  0  0  0  0  0  0  0  0  0
    0.6974    3.8450    1.6614 H   0  0  0  0  0  0  0  0  0  0  0  0
  5  6  2  0  0  0  0
  5  7  1  0  0  0  0
  2  3  1  0  0  0  0
  2  4  1  0  0  0  0
  2  5  1  0  0  0  0
  1  2  1  0  0  0  0
 24 25  2  0  0  0  0
 24 26  1  0  0  0  0
 20 21  1  0  0  0  0
 20 22  1  0  0  0  0
 20 23  1  0  0  0  0
 17 18  1  0  0  0  0
 17 19  1  0  0  0  0
 17 20  1  0  0  0  0
 13 14  1  0  0  0  0
 13 15  1  0  0  0  0
 13 16  1  0  0  0  0
 11 12  1  0  0  0  0
 11 13  1  0  0  0  0
 11 17  1  0  0  0  0
  9 10  1  0  0  0  0
  9 11  1  0  0  0  0
  9 24  1  0  0  0  0
  7  8  1  0  0  0  0
  7  9  1  0  0  0  0
 28 29  1  0  0  0  0
 28 30  1  0  0  0  0
 28 31  1  0  0  0  0
 26 27  1  0  0  0  0
 26 28  1  0  0  0  0
M  END
$$$$
default_name
  -OEChem-02102213163D

 31 30  0     1  0  0  0  0  0999 V2000
   -3.0760   -3.6390    1.5496 H   0  0  0  0  0  0  0  0  0  0  0  0
   -3.0940   -2.6290    1.1426 C   0  0  0  0  0  0  0  0  0  0  0  0
   -3.7160   -1.9930    1.7706 H   0  0  0  0  0  0  0  0  0  0  0  0
   -3.4880   -2.6500    0.1286 H   0  0  0  0  0  0  0  0  0  0  0  0
   -1.6860   -2.0850    1.1196 C   0  0  0  0  0  0  0  0  0  0  0  0
   -0.7540   -2.7700    1.5226 O   0  0  0  0  0  0  0  0  0  0  0  0
   -1.5320   -0.8490    0.6496 N   0  0  0  0  0  0  0  0  0  0  0  0
   -2.3500   -0.3360    0.3566 H   0  0  0  0  0  0  0  0  0  0  0  0
   -0.2470   -0.1410    0.5576 C   0  0  1  0  0  0  0  0  0  0  0  0
    0.4572   -0.6505    1.2162 H   0  0  0  0  0  0  0  0  0  0  0  0
    0.3091   -0.2220   -0.8868 C   0  0  1  0  0  0  0  0  0  0  0  0
    1.3957   -0.1417   -0.8181 H   0  0  0  0  0  0  0  0  0  0  0  0
   -0.0194   -1.5635   -1.5695 C   0  0  0  0  0  0  0  0  0  0  0  0
   -1.0947   -1.6590   -1.7308 H   0  0  0  0  0  0  0  0  0  0  0  0
    0.4918   -1.6353   -2.5282 H   0  0  0  0  0  0  0  0  0  0  0  0
    0.3183   -2.3944   -0.9491 H   0  0  0  0  0  0  0  0  0  0  0  0
   -0.1873    0.9673   -1.7393 C   0  0  0  0  0  0  0  0  0  0  0  0
   -1.2430    0.8369   -1.9809 H   0  0  0  0  0  0  0  0  0  0  0  0
   -0.0800    1.8837   -1.1589 H   0  0  0  0  0  0  0  0  0  0  0  0
    0.5942    1.1590   -3.0461 C   0  0  0  0  0  0  0  0  0  0  0  0
    0.4346    0.3131   -3.7145 H   0  0  0  0  0  0  0  0  0  0  0  0
    0.2461    2.0644   -3.5437 H   0  0  0  0  0  0  0  0  0  0  0  0
    1.6590    1.2591   -2.8327 H   0  0  0  0  0  0  0  0  0  0  0  0
   -0.3971    1.3008    1.0689 C   0  0  0  0  0  0  0  0  0  0  0  0
   -1.3643    1.9819    0.7311 O   0  0  0  0  0  0  0  0  0  0  0  0
    0.5522    1.7647    1.8915 N   0  0  0  0  0  0  0  0  0  0  0  0
    1.3093    1.1450    2.1332 H   0  0  0  0  0  0  0  0  0  0  0  0
    0.5577    3.1119    2.4582 C   0  0  0  0  0  0  0  0  0  0  0  0
   -0.3986    3.3098    2.9475 H   0  0  0  0  0  0  0  0  0  0  0  0
    1.3619    3.2123    3.1886 H   0  0  0  0  0  0  0  0  0  0  0  0
    0.6974    3.8450    1.6614 H   0  0  0  0  0  0  0  0  0  0  0  0
  5  6  2  0  0  0  0
  5  7  1  0  0  0  0
  2  3  1  0  0  0  0
  2  4  1  0  0  0  0
  2  5  1  0  0  0  0
  1  2  1  0  0  0  0
 24 25  2  0  0  0  0
 24 26  1  0  0  0  0
 20 21  1  0  0  0  0
 20 22  1  0  0  0  0
 20 23  1  0  0  0  0
 17 18  1  0  0  0  0
 17 19  1  0  0  0  0
 17 20  1  0  0  0  0
 13 14  1  0  0  0  0
 13 15  1  0  0  0  0
 13 16  1  0  0  0  0
 11 12  1  0  0  0  0
 11 13  1  0  0  0  0
 11 17  1  0  0  0  0
  9 10  1  0  0  0  0
  9 11  1  0  0  0  0
  9 24  1  0  0  0  0
  7  8  1  0  0  0  0
  7  9  1  0  0  0  0
 28 29  1  0  0  0  0
 28 30  1  0  0  0  0
 28 31  1  0  0  0  0
 26 27  1  0  0  0  0
 26 28  1  0  0  0  0
M  END
$$$$
default_name
  -OEChem-02102213163D

 31 30  0     1  0  0  0  0  0999 V2000
   -3.0760   -3.6390    1.5496 H   0  0  0  0  0  0  0  0  0  0  0  0
   -3.0940   -2.6290    1.1426 C   0  0  0  0  0  0  0  0  0  0  0  0
   -3.7160   -1.9930    1.7706 H   0  0  0  0  0  0  0  0  0  0  0  0
   -3.4880   -2.6500    0.1286 H   0  0  0  0  0  0  0  0  0  0  0  0
   -1.6860   -2.0850    1.1196 C   0  0  0  0  0  0  0  0  0  0  0  0
   -0.7540   -2.7700    1.5226 O   0  0  0  0  0  0  0  0  0  0  0  0
   -1.5320   -0.8490    0.6496 N   0  0  0  0  0  0  0  0  0  0  0  0
   -2.3500   -0.3360    0.3566 H   0  0  0  0  0  0  0  0  0  0  0  0
   -0.2470   -0.1410    0.5576 C   0  0  1  0  0  0  0  0  0  0  0  0
    0.4572   -0.6505    1.2162 H   0  0  0  0  0  0  0  0  0  0  0  0
    0.3091   -0.2220   -0.8868 C   0  0  1  0  0  0  0  0  0  0  0  0
    1.3811   -0.4134   -0.8085 H   0  0  0  0  0  0  0  0  0  0  0  0
   -0.3154   -1.3762   -1.6940 C   0  0  0  0  0  0  0  0  0  0  0  0
   -1.3777   -1.1937   -1.8659 H   0  0  0  0  0  0  0  0  0  0  0  0
    0.1873   -1.4817   -2.6540 H   0  0  0  0  0  0  0  0  0  0  0  0
   -0.2030   -2.3171   -1.1542 H   0  0  0  0  0  0  0  0  0  0  0  0
    0.1348    1.1247   -1.6241 C   0  0  0  0  0  0  0  0  0  0  0  0
   -0.9195    1.4042   -1.6442 H   0  0  0  0  0  0  0  0  0  0  0  0
    0.6825    1.8951   -1.0813 H   0  0  0  0  0  0  0  0  0  0  0  0
    0.6661    1.1137   -3.0638 C   0  0  0  0  0  0  0  0  0  0  0  0
    0.0802    0.4341   -3.6823 H   0  0  0  0  0  0  0  0  0  0  0  0
    0.5894    2.1172   -3.4830 H   0  0  0  0  0  0  0  0  0  0  0  0
    1.7120    0.8049   -3.0731 H   0  0  0  0  0  0  0  0  0  0  0  0
   -0.3971    1.3008    1.0689 C   0  0  0  0  0  0  0  0  0  0  0  0
   -1.3643    1.9819    0.7311 O   0  0  0  0  0  0  0  0  0  0  0  0
    0.5522    1.7647    1.8915 N   0  0  0  0  0  0  0  0  0  0  0  0
    1.3093    1.1450    2.1332 H   0  0  0  0  0  0  0  0  0  0  0  0
    0.5577    3.1119    2.4582 C   0  0  0  0  0  0  0  0  0  0  0  0
   -0.3986    3.3098    2.9475 H   0  0  0  0  0  0  0  0  0  0  0  0
    1.3619    3.2123    3.1886 H   0  0  0  0  0  0  0  0  0  0  0  0
    0.6974    3.8450    1.6614 H   0  0  0  0  0  0  0  0  0  0  0  0
  5  6  2  0  0  0  0
  5  7  1  0  0  0  0
  2  3  1  0  0  0  0
  2  4  1  0  0  0  0
  2  5  1  0  0  0  0
  1  2  1  0  0  0  0
 24 25  2  0  0  0  0
 24 26  1  0  0  0  0
 20 21  1  0  0  0  0
 20 22  1  0  0  0  0
 20 23  1  0  0  0  0
 17 18  1  0  0  0  0
 17 19  1  0  0  0  0
 17 20  1  0  0  0  0
 13 14  1  0  0  0  0
 13 15  1  0  0  0  0
 13 16  1  0  0  0  0
 11 12  1  0  0  0  0
 11 13  1  0  0  0  0
 11 17  1  0  0  0  0
  9 10  1  0  0  0  0
  9 11  1  0  0  0  0
  9 24  1  0  0  0  0
  7  8  1  0  0  0  0
  7  9  1  0  0  0  0
 28 29  1  0  0  0  0
 28 30  1  0  0  0  0
 28 31  1  0  0  0  0
 26 27  1  0  0  0  0
 26 28  1  0  0  0  0
M  END
$$$$
default_name
  -OEChem-02102213163D

 31 30  0     1  0  0  0  0  0999 V2000
   -3.0760   -3.6390    1.5496 H   0  0  0  0  0  0  0  0  0  0  0  0
   -3.0940   -2.6290    1.1426 C   0  0  0  0  0  0  0  0  0  0  0  0
   -3.7160   -1.9930    1.7706 H   0  0  0  0  0  0  0  0  0  0  0  0
   -3.4880   -2.6500    0.1286 H   0  0  0  0  0  0  0  0  0  0  0  0
   -1.6860   -2.0850    1.1196 C   0  0  0  0  0  0  0  0  0  0  0  0
   -0.7540   -2.7700    1.5226 O   0  0  0  0  0  0  0  0  0  0  0  0
   -1.5320   -0.8490    0.6496 N   0  0  0  0  0  0  0  0  0  0  0  0
   -2.3500   -0.3360    0.3566 H   0  0  0  0  0  0  0  0  0  0  0  0
   -0.2470   -0.1410    0.5576 C   0  0  1  0  0  0  0  0  0  0  0  0
    0.4572   -0.6505    1.2162 H   0  0  0  0  0  0  0  0  0  0  0  0
    0.3091   -0.2220   -0.8868 C   0  0  1  0  0  0  0  0  0  0  0  0
    1.3811   -0.4134   -0.8085 H   0  0  0  0  0  0  0  0  0  0  0  0
   -0.3154   -1.3762   -1.6940 C   0  0  0  0  0  0  0  0  0  0  0  0
   -1.3777   -1.1937   -1.8659 H   0  0  0  0  0  0  0  0  0  0  0  0
    0.1873   -1.4817   -2.6540 H   0  0  0  0  0  0  0  0  0  0  0  0
   -0.2030   -2.3171   -1.1542 H   0  0  0  0  0  0  0  0  0  0  0  0
    0.1348    1.1247   -1.6241 C   0  0  0  0  0  0  0  0  0  0  0  0
   -0.8550    1.5353   -1.4200 H   0  0  0  0  0  0  0  0  0  0  0  0
    0.8800    1.8275   -1.2516 H   0  0  0  0  0  0  0  0  0  0  0  0
    0.3195    1.0247   -3.1443 C   0  0  0  0  0  0  0  0  0  0  0  0
   -0.4690    0.4157   -3.5860 H   0  0  0  0  0  0  0  0  0  0  0  0
    0.2706    2.0234   -3.5789 H   0  0  0  0  0  0  0  0  0  0  0  0
    1.2910    0.5856   -3.3740 H   0  0  0  0  0  0  0  0  0  0  0  0
   -0.3971    1.3008    1.0689 C   0  0  0  0  0  0  0  0  0  0  0  0
   -1.3643    1.9819    0.7311 O   0  0  0  0  0  0  0  0  0  0  0  0
    0.5522    1.7647    1.8915 N   0  0  0  0  0  0  0  0  0  0  0  0
    1.3093    1.1450    2.1332 H   0  0  0  0  0  0  0  0  0  0  0  0
    0.5577    3.1119    2.4582 C   0  0  0  0  0  0  0  0  0  0  0  0
   -0.3986    3.3098    2.9475 H   0  0  0  0  0  0  0  0  0  0  0  0
    1.3619    3.2123    3.1886 H   0  0  0  0  0  0  0  0  0  0  0  0
    0.6974    3.8450    1.6614 H   0  0  0  0  0  0  0  0  0  0  0  0
  5  6  2  0  0  0  0
  5  7  1  0  0  0  0
  2  3  1  0  0  0  0
  2  4  1  0  0  0  0
  2  5  1  0  0  0  0
  1  2  1  0  0  0  0
 24 25  2  0  0  0  0
 24 26  1  0  0  0  0
 20 21  1  0  0  0  0
 20 22  1  0  0  0  0
 20 23  1  0  0  0  0
 17 18  1  0  0  0  0
 17 19  1  0  0  0  0
 17 20  1  0  0  0  0
 13 14  1  0  0  0  0
 13 15  1  0  0  0  0
 13 16  1  0  0  0  0
 11 12  1  0  0  0  0
 11 13  1  0  0  0  0
 11 17  1  0  0  0  0
  9 10  1  0  0  0  0
  9 11  1  0  0  0  0
  9 24  1  0  0  0  0
  7  8  1  0  0  0  0
  7  9  1  0  0  0  0
 28 29  1  0  0  0  0
 28 30  1  0  0  0  0
 28 31  1  0  0  0  0
 26 27  1  0  0  0  0
 26 28  1  0  0  0  0
M  END
$$$$
default_name
  -OEChem-02102213163D

 31 30  0     1  0  0  0  0  0999 V2000
   -3.0760   -3.6390    1.5496 H   0  0  0  0  0  0  0  0  0  0  0  0
   -3.0940   -2.6290    1.1426 C   0  0  0  0  0  0  0  0  0  0  0  0
   -3.7160   -1.9930    1.7706 H   0  0  0  0  0  0  0  0  0  0  0  0
   -3.4880   -2.6500    0.1286 H   0  0  0  0  0  0  0  0  0  0  0  0
   -1.6860   -2.0850    1.1196 C   0  0  0  0  0  0  0  0  0  0  0  0
   -0.7540   -2.7700    1.5226 O   0  0  0  0  0  0  0  0  0  0  0  0
   -1.5320   -0.8490    0.6496 N   0  0  0  0  0  0  0  0  0  0  0  0
   -2.3500   -0.3360    0.3566 H   0  0  0  0  0  0  0  0  0  0  0  0
   -0.2470   -0.1410    0.5576 C   0  0  1  0  0  0  0  0  0  0  0  0
    0.4572   -0.6505    1.2162 H   0  0  0  0  0  0  0  0  0  0  0  0
    0.3091   -0.2220   -0.8868 C   0  0  1  0  0  0  0  0  0  0  0  0
    1.3811   -0.4134   -0.8085 H   0  0  0  0  0  0  0  0  0  0  0  0
   -0.3154   -1.3762   -1.6940 C   0  0  0  0  0  0  0  0  0  0  0  0
   -1.3777   -1.1937   -1.8659 H   0  0  0  0  0  0  0  0  0  0  0  0
    0.1873   -1.4817   -2.6540 H   0  0  0  0  0  0  0  0  0  0  0  0
   -0.2030   -2.3171   -1.1542 H   0  0  0  0  0  0  0  0  0  0  0  0
    0.1348    1.1247   -1.6241 C   0  0  0  0  0  0  0  0  0  0  0  0
   -0.7260    1.6606   -1.2217 H   0  0  0  0  0  0  0  0  0  0  0  0
    1.0241    1.7328   -1.4586 H   0  0  0  0  0  0  0  0  0  0  0  0
   -0.0445    0.9793   -3.1413 C   0  0  0  0  0  0  0  0  0  0  0  0
   -0.9801    0.4686   -3.3685 H   0  0  0  0  0  0  0  0  0  0  0  0
   -0.0705    1.9694   -3.5968 H   0  0  0  0  0  0  0  0  0  0  0  0
    0.7894    0.4171   -3.5633 H   0  0  0  0  0  0  0  0  0  0  0  0
   -0.3971    1.3008    1.0689 C   0  0  0  0  0  0  0  0  0  0  0  0
   -1.3643    1.9819    0.7311 O   0  0  0  0  0  0  0  0  0  0  0  0
    0.5522    1.7647    1.8915 N   0  0  0  0  0  0  0  0  0  0  0  0
    1.3093    1.1450    2.1332 H   0  0  0  0  0  0  0  0  0  0  0  0
    0.5577    3.1119    2.4582 C   0  0  0  0  0  0  0  0  0  0  0  0
   -0.3986    3.3098    2.9475 H   0  0  0  0  0  0  0  0  0  0  0  0
    1.3619    3.2123    3.1886 H   0  0  0  0  0  0  0  0  0  0  0  0
    0.6974    3.8450    1.6614 H   0  0  0  0  0  0  0  0  0  0  0  0
  5  6  2  0  0  0  0
  5  7  1  0  0  0  0
  2  3  1  0  0  0  0
  2  4  1  0  0  0  0
  2  5  1  0  0  0  0
  1  2  1  0  0  0  0
 24 25  2  0  0  0  0
 24 26  1  0  0  0  0
 20 21  1  0  0  0  0
 20 22  1  0  0  0  0
 20 23  1  0  0  0  0
 17 18  1  0  0  0  0
 17 19  1  0  0  0  0
 17 20  1  0  0  0  0
 13 14  1  0  0  0  0
 13 15  1  0  0  0  0
 13 16  1  0  0  0  0
 11 12  1  0  0  0  0
 11 13  1  0  0  0  0
 11 17  1  0  0  0  0
  9 10  1  0  0  0  0
  9 11  1  0  0  0  0
  9 24  1  0  0  0  0
  7  8  1  0  0  0  0
  7  9  1  0  0  0  0
 28 29  1  0  0  0  0
 28 30  1  0  0  0  0
 28 31  1  0  0  0  0
 26 27  1  0  0  0  0
 26 28  1  0  0  0  0
M  END
$$$$
default_name
  -OEChem-02102213163D

 31 30  0     1  0  0  0  0  0999 V2000
   -3.0760   -3.6390    1.5496 H   0  0  0  0  0  0  0  0  0  0  0  0
   -3.0940   -2.6290    1.1426 C   0  0  0  0  0  0  0  0  0  0  0  0
   -3.7160   -1.9930    1.7706 H   0  0  0  0  0  0  0  0  0  0  0  0
   -3.4880   -2.6500    0.1286 H   0  0  0  0  0  0  0  0  0  0  0  0
   -1.6860   -2.0850    1.1196 C   0  0  0  0  0  0  0  0  0  0  0  0
   -0.7540   -2.7700    1.5226 O   0  0  0  0  0  0  0  0  0  0  0  0
   -1.5320   -0.8490    0.6496 N   0  0  0  0  0  0  0  0  0  0  0  0
   -2.3500   -0.3360    0.3566 H   0  0  0  0  0  0  0  0  0  0  0  0
   -0.2470   -0.1410    0.5576 C   0  0  1  0  0  0  0  0  0  0  0  0
    0.4572   -0.6505    1.2162 H   0  0  0  0  0  0  0  0  0  0  0  0
    0.3091   -0.2220   -0.8868 C   0  0  1  0  0  0  0  0  0  0  0  0
    1.3811   -0.4134   -0.8085 H   0  0  0  0  0  0  0  0  0  0  0  0
   -0.3154   -1.3762   -1.6940 C   0  0  0  0  0  0  0  0  0  0  0  0
   -1.3777   -1.1937   -1.8659 H   0  0  0  0  0  0  0  0  0  0  0  0
    0.1873   -1.4817   -2.6540 H   0  0  0  0  0  0  0  0  0  0  0  0
   -0.2030   -2.3171   -1.1542 H   0  0  0  0  0  0  0  0  0  0  0  0
    0.1348    1.1247   -1.6241 C   0  0  0  0  0  0  0  0  0  0  0  0
   -0.5411    1.7714   -1.0629 H   0  0  0  0  0  0  0  0  0  0  0  0
    1.1049    1.6175   -1.6883 H   0  0  0  0  0  0  0  0  0  0  0  0
   -0.4009    0.9804   -3.0550 C   0  0  0  0  0  0  0  0  0  0  0  0
   -1.4181    0.5892   -3.0447 H   0  0  0  0  0  0  0  0  0  0  0  0
   -0.4107    1.9589   -3.5356 H   0  0  0  0  0  0  0  0  0  0  0  0
    0.2413    0.3107   -3.6280 H   0  0  0  0  0  0  0  0  0  0  0  0
   -0.3971    1.3008    1.0689 C   0  0  0  0  0  0  0  0  0  0  0  0
   -1.3643    1.9819    0.7311 O   0  0  0  0  0  0  0  0  0  0  0  0
    0.5522    1.7647    1.8915 N   0  0  0  0  0  0  0  0  0  0  0  0
    1.3093    1.1450    2.1332 H   0  0  0  0  0  0  0  0  0  0  0  0
    0.5577    3.1119    2.4582 C   0  0  0  0  0  0  0  0  0  0  0  0
   -0.3986    3.3098    2.9475 H   0  0  0  0  0  0  0  0  0  0  0  0
    1.3619    3.2123    3.1886 H   0  0  0  0  0  0  0  0  0  0  0  0
    0.6974    3.8450    1.6614 H   0  0  0  0  0  0  0  0  0  0  0  0
  5  6  2  0  0  0  0
  5  7  1  0  0  0  0
  2  3  1  0  0  0  0
  2  4  1  0  0  0  0
  2  5  1  0  0  0  0
  1  2  1  0  0  0  0
 24 25  2  0  0  0  0
 24 26  1  0  0  0  0
 20 21  1  0  0  0  0
 20 22  1  0  0  0  0
 20 23  1  0  0  0  0
 17 18  1  0  0  0  0
 17 19  1  0  0  0  0
 17 20  1  0  0  0  0
 13 14  1  0  0  0  0
 13 15  1  0  0  0  0
 13 16  1  0  0  0  0
 11 12  1  0  0  0  0
 11 13  1  0  0  0  0
 11 17  1  0  0  0  0
  9 10  1  0  0  0  0
  9 11  1  0  0  0  0
  9 24  1  0  0  0  0
  7  8  1  0  0  0  0
  7  9  1  0  0  0  0
 28 29  1  0  0  0  0
 28 30  1  0  0  0  0
 28 31  1  0  0  0  0
 26 27  1  0  0  0  0
 26 28  1  0  0  0  0
M  END
$$$$
default_name
  -OEChem-02102213163D

 31 30  0     1  0  0  0  0  0999 V2000
   -3.0760   -3.6390    1.5496 H   0  0  0  0  0  0  0  0  0  0  0  0
   -3.0940   -2.6290    1.1426 C   0  0  0  0  0  0  0  0  0  0  0  0
   -3.7160   -1.9930    1.7706 H   0  0  0  0  0  0  0  0  0  0  0  0
   -3.4880   -2.6500    0.1286 H   0  0  0  0  0  0  0  0  0  0  0  0
   -1.6860   -2.0850    1.1196 C   0  0  0  0  0  0  0  0  0  0  0  0
   -0.7540   -2.7700    1.5226 O   0  0  0  0  0  0  0  0  0  0  0  0
   -1.5320   -0.8490    0.6496 N   0  0  0  0  0  0  0  0  0  0  0  0
   -2.3500   -0.3360    0.3566 H   0  0  0  0  0  0  0  0  0  0  0  0
   -0.2470   -0.1410    0.5576 C   0  0  1  0  0  0  0  0  0  0  0  0
    0.4572   -0.6505    1.2162 H   0  0  0  0  0  0  0  0  0  0  0  0
    0.3091   -0.2220   -0.8868 C   0  0  1  0  0  0  0  0  0  0  0  0
    1.3811   -0.4134   -0.8085 H   0  0  0  0  0  0  0  0  0  0  0  0
   -0.3154   -1.3762   -1.6940 C   0  0  0  0  0  0  0  0  0  0  0  0
   -1.3777   -1.1937   -1.8659 H   0  0  0  0  0  0  0  0  0  0  0  0
    0.1873   -1.4817   -2.6540 H   0  0  0  0  0  0  0  0  0  0  0  0
   -0.2030   -2.3171   -1.1542 H   0  0  0  0  0  0  0  0  0  0  0  0
    0.1348    1.1247   -1.6241 C   0  0  0  0  0  0  0  0  0  0  0  0
   -0.3131    1.8603   -0.9545 H   0  0  0  0  0  0  0  0  0  0  0  0
    1.1168    1.4894   -1.9251 H   0  0  0  0  0  0  0  0  0  0  0  0
   -0.7257    1.0280   -2.8912 C   0  0  0  0  0  0  0  0  0  0  0  0
   -1.7533    0.7691   -2.6367 H   0  0  0  0  0  0  0  0  0  0  0  0
   -0.7269    1.9925   -3.3994 H   0  0  0  0  0  0  0  0  0  0  0  0
   -0.3158    0.2737   -3.5638 H   0  0  0  0  0  0  0  0  0  0  0  0
   -0.3971    1.3008    1.0689 C   0  0  0  0  0  0  0  0  0  0  0  0
   -1.3643    1.9819    0.7311 O   0  0  0  0  0  0  0  0  0  0  0  0
    0.5522    1.7647    1.8915 N   0  0  0  0  0  0  0  0  0  0  0  0
    1.3093    1.1450    2.1332 H   0  0  0  0  0  0  0  0  0  0  0  0
    0.5577    3.1119    2.4582 C   0  0  0  0  0  0  0  0  0  0  0  0
   -0.3986    3.3098    2.9475 H   0  0  0  0  0  0  0  0  0  0  0  0
    1.3619    3.2123    3.1886 H   0  0  0  0  0  0  0  0  0  0  0  0
    0.6974    3.8450    1.6614 H   0  0  0  0  0  0  0  0  0  0  0  0
  5  6  2  0  0  0  0
  5  7  1  0  0  0  0
  2  3  1  0  0  0  0
  2  4  1  0  0  0  0
  2  5  1  0  0  0  0
  1  2  1  0  0  0  0
 24 25  2  0  0  0  0
 24 26  1  0  0  0  0
 20 21  1  0  0  0  0
 20 22  1  0  0  0  0
 20 23  1  0  0  0  0
 17 18  1  0  0  0  0
 17 19  1  0  0  0  0
 17 20  1  0  0  0  0
 13 14  1  0  0  0  0
 13 15  1  0  0  0  0
 13 16  1  0  0  0  0
 11 12  1  0  0  0  0
 11 13  1  0  0  0  0
 11 17  1  0  0  0  0
  9 10  1  0  0  0  0
  9 11  1  0  0  0  0
  9 24  1  0  0  0  0
  7  8  1  0  0  0  0
  7  9  1  0  0  0  0
 28 29  1  0  0  0  0
 28 30  1  0  0  0  0
 28 31  1  0  0  0  0
 26 27  1  0  0  0  0
 26 28  1  0  0  0  0
M  END
$$$$
default_name
  -OEChem-02102213163D

 31 30  0     1  0  0  0  0  0999 V2000
   -3.0760   -3.6390    1.5496 H   0  0  0  0  0  0  0  0  0  0  0  0
   -3.0940   -2.6290    1.1426 C   0  0  0  0  0  0  0  0  0  0  0  0
   -3.7160   -1.9930    1.7706 H   0  0  0  0  0  0  0  0  0  0  0  0
   -3.4880   -2.6500    0.1286 H   0  0  0  0  0  0  0  0  0  0  0  0
   -1.6860   -2.0850    1.1196 C   0  0  0  0  0  0  0  0  0  0  0  0
   -0.7540   -2.7700    1.5226 O   0  0  0  0  0  0  0  0  0  0  0  0
   -1.5320   -0.8490    0.6496 N   0  0  0  0  0  0  0  0  0  0  0  0
   -2.3500   -0.3360    0.3566 H   0  0  0  0  0  0  0  0  0  0  0  0
   -0.2470   -0.1410    0.5576 C   0  0  1  0  0  0  0  0  0  0  0  0
    0.4572   -0.6505    1.2162 H   0  0  0  0  0  0  0  0  0  0  0  0
    0.3091   -0.2220   -0.8868 C   0  0  1  0  0  0  0  0  0  0  0  0
    1.3811   -0.4134   -0.8085 H   0  0  0  0  0  0  0  0  0  0  0  0
   -0.3154   -1.3762   -1.6940 C   0  0  0  0  0  0  0  0  0  0  0  0
   -1.3777   -1.1937   -1.8659 H   0  0  0  0  0  0  0  0  0  0  0  0
    0.1873   -1.4817   -2.6540 H   0  0  0  0  0  0  0  0  0  0  0  0
   -0.2030   -2.3171   -1.1542 H   0  0  0  0  0  0  0  0  0  0  0  0
    0.1348    1.1247   -1.6241 C   0  0  0  0  0  0  0  0  0  0  0  0
   -0.0574    1.9211   -0.9039 H   0  0  0  0  0  0  0  0  0  0  0  0
    1.0591    1.3574   -2.1527 H   0  0  0  0  0  0  0  0  0  0  0  0
   -0.9965    1.1188   -2.6611 C   0  0  0  0  0  0  0  0  0  0  0  0
   -1.9627    0.9963   -2.1721 H   0  0  0  0  0  0  0  0  0  0  0  0
   -0.9974    2.0680   -3.1976 H   0  0  0  0  0  0  0  0  0  0  0  0
   -0.8439    0.3086   -3.3750 H   0  0  0  0  0  0  0  0  0  0  0  0
   -0.3971    1.3008    1.0689 C   0  0  0  0  0  0  0  0  0  0  0  0
   -1.3643    1.9819    0.7311 O   0  0  0  0  0  0  0  0  0  0  0  0
    0.5522    1.7647    1.8915 N   0  0  0  0  0  0  0  0  0  0  0  0
    1.3093    1.1450    2.1332 H   0  0  0  0  0  0  0  0  0  0  0  0
    0.5577    3.1119    2.4582 C   0  0  0  0  0  0  0  0  0  0  0  0
   -0.3986    3.3098    2.9475 H   0  0  0  0  0  0  0  0  0  0  0  0
    1.3619    3.2123    3.1886 H   0  0  0  0  0  0  0  0  0  0  0  0
    0.6974    3.8450    1.6614 H   0  0  0  0  0  0  0  0  0  0  0  0
  5  6  2  0  0  0  0
  5  7  1  0  0  0  0
  2  3  1  0  0  0  0
  2  4  1  0  0  0  0
  2  5  1  0  0  0  0
  1  2  1  0  0  0  0
 24 25  2  0  0  0  0
 24 26  1  0  0  0  0
 20 21  1  0  0  0  0
 20 22  1  0  0  0  0
 20 23  1  0  0  0  0
 17 18  1  0  0  0  0
 17 19  1  0  0  0  0
 17 20  1  0  0  0  0
 13 14  1  0  0  0  0
 13 15  1  0  0  0  0
 13 16  1  0  0  0  0
 11 12  1  0  0  0  0
 11 13  1  0  0  0  0
 11 17  1  0  0  0  0
  9 10  1  0  0  0  0
  9 11  1  0  0  0  0
  9 24  1  0  0  0  0
  7  8  1  0  0  0  0
  7  9  1  0  0  0  0
 28 29  1  0  0  0  0
 28 30  1  0  0  0  0
 28 31  1  0  0  0  0
 26 27  1  0  0  0  0
 26 28  1  0  0  0  0
M  END
$$$$
default_name
  -OEChem-02102213163D

 31 30  0     1  0  0  0  0  0999 V2000
   -3.0760   -3.6390    1.5496 H   0  0  0  0  0  0  0  0  0  0  0  0
   -3.0940   -2.6290    1.1426 C   0  0  0  0  0  0  0  0  0  0  0  0
   -3.7160   -1.9930    1.7706 H   0  0  0  0  0  0  0  0  0  0  0  0
   -3.4880   -2.6500    0.1286 H   0  0  0  0  0  0  0  0  0  0  0  0
   -1.6860   -2.0850    1.1196 C   0  0  0  0  0  0  0  0  0  0  0  0
   -0.7540   -2.7700    1.5226 O   0  0  0  0  0  0  0  0  0  0  0  0
   -1.5320   -0.8490    0.6496 N   0  0  0  0  0  0  0  0  0  0  0  0
   -2.3500   -0.3360    0.3566 H   0  0  0  0  0  0  0  0  0  0  0  0
   -0.2470   -0.1410    0.5576 C   0  0  1  0  0  0  0  0  0  0  0  0
    0.4572   -0.6505    1.2162 H   0  0  0  0  0  0  0  0  0  0  0  0
    0.3091   -0.2220   -0.8868 C   0  0  1  0  0  0  0  0  0  0  0  0
    1.3811   -0.4134   -0.8085 H   0  0  0  0  0  0  0  0  0  0  0  0
   -0.3154   -1.3762   -1.6940 C   0  0  0  0  0  0  0  0  0  0  0  0
   -1.3777   -1.1937   -1.8659 H   0  0  0  0  0  0  0  0  0  0  0  0
    0.1873   -1.4817   -2.6540 H   0  0  0  0  0  0  0  0  0  0  0  0
   -0.2030   -2.3171   -1.1542 H   0  0  0  0  0  0  0  0  0  0  0  0
    0.1348    1.1247   -1.6241 C   0  0  0  0  0  0  0  0  0  0  0  0
    0.2085    1.9498   -0.9144 H   0  0  0  0  0  0  0  0  0  0  0  0
    0.9358    1.2302   -2.3557 H   0  0  0  0  0  0  0  0  0  0  0  0
   -1.1950    1.2468   -2.3805 C   0  0  0  0  0  0  0  0  0  0  0  0
   -2.0322    1.2552   -1.6829 H   0  0  0  0  0  0  0  0  0  0  0  0
   -1.2038    2.1802   -2.9438 H   0  0  0  0  0  0  0  0  0  0  0  0
   -1.3072    0.4131   -3.0746 H   0  0  0  0  0  0  0  0  0  0  0  0
   -0.3971    1.3008    1.0689 C   0  0  0  0  0  0  0  0  0  0  0  0
   -1.3643    1.9819    0.7311 O   0  0  0  0  0  0  0  0  0  0  0  0
    0.5522    1.7647    1.8915 N   0  0  0  0  0  0  0  0  0  0  0  0
    1.3093    1.1450    2.1332 H   0  0  0  0  0  0  0  0  0  0  0  0
    0.5577    3.1119    2.4582 C   0  0  0  0  0  0  0  0  0  0  0  0
   -0.3986    3.3098    2.9475 H   0  0  0  0  0  0  0  0  0  0  0  0
    1.3619    3.2123    3.1886 H   0  0  0  0  0  0  0  0  0  0  0  0
    0.6974    3.8450    1.6614 H   0  0  0  0  0  0  0  0  0  0  0  0
  5  6  2  0  0  0  0
  5  7  1  0  0  0  0
  2  3  1  0  0  0  0
  2  4  1  0  0  0  0
  2  5  1  0  0  0  0
  1  2  1  0  0  0  0
 24 25  2  0  0  0  0
 24 26  1  0  0  0  0
 20 21  1  0  0  0  0
 20 22  1  0  0  0  0
 20 23  1  0  0  0  0
 17 18  1  0  0  0  0
 17 19  1  0  0  0  0
 17 20  1  0  0  0  0
 13 14  1  0  0  0  0
 13 15  1  0  0  0  0
 13 16  1  0  0  0  0
 11 12  1  0  0  0  0
 11 13  1  0  0  0  0
 11 17  1  0  0  0  0
  9 10  1  0  0  0  0
  9 11  1  0  0  0  0
  9 24  1  0  0  0  0
  7  8  1  0  0  0  0
  7  9  1  0  0  0  0
 28 29  1  0  0  0  0
 28 30  1  0  0  0  0
 28 31  1  0  0  0  0
 26 27  1  0  0  0  0
 26 28  1  0  0  0  0
M  END
$$$$
default_name
  -OEChem-02102213163D

 31 30  0     1  0  0  0  0  0999 V2000
   -3.0760   -3.6390    1.5496 H   0  0  0  0  0  0  0  0  0  0  0  0
   -3.0940   -2.6290    1.1426 C   0  0  0  0  0  0  0  0  0  0  0  0
   -3.7160   -1.9930    1.7706 H   0  0  0  0  0  0  0  0  0  0  0  0
   -3.4880   -2.6500    0.1286 H   0  0  0  0  0  0  0  0  0  0  0  0
   -1.6860   -2.0850    1.1196 C   0  0  0  0  0  0  0  0  0  0  0  0
   -0.7540   -2.7700    1.5226 O   0  0  0  0  0  0  0  0  0  0  0  0
   -1.5320   -0.8490    0.6496 N   0  0  0  0  0  0  0  0  0  0  0  0
   -2.3500   -0.3360    0.3566 H   0  0  0  0  0  0  0  0  0  0  0  0
   -0.2470   -0.1410    0.5576 C   0  0  1  0  0  0  0  0  0  0  0  0
    0.4572   -0.6505    1.2162 H   0  0  0  0  0  0  0  0  0  0  0  0
    0.3091   -0.2220   -0.8868 C   0  0  1  0  0  0  0  0  0  0  0  0
    1.3811   -0.4134   -0.8085 H   0  0  0  0  0  0  0  0  0  0  0  0
   -0.3154   -1.3762   -1.6940 C   0  0  0  0  0  0  0  0  0  0  0  0
   -1.3777   -1.1937   -1.8659 H   0  0  0  0  0  0  0  0  0  0  0  0
    0.1873   -1.4817   -2.6540 H   0  0  0  0  0  0  0  0  0  0  0  0
   -0.2030   -2.3171   -1.1542 H   0  0  0  0  0  0  0  0  0  0  0  0
    0.1348    1.1247   -1.6241 C   0  0  0  0  0  0  0  0  0  0  0  0
    0.4666    1.9444   -0.9854 H   0  0  0  0  0  0  0  0  0  0  0  0
    0.7551    1.1168   -2.5202 H   0  0  0  0  0  0  0  0  0  0  0  0
   -1.3076    1.4031   -2.0684 C   0  0  0  0  0  0  0  0  0  0  0  0
   -1.9570    1.5281   -1.2021 H   0  0  0  0  0  0  0  0  0  0  0  0
   -1.3321    2.3215   -2.6553 H   0  0  0  0  0  0  0  0  0  0  0  0
   -1.6741    0.5801   -2.6829 H   0  0  0  0  0  0  0  0  0  0  0  0
   -0.3971    1.3008    1.0689 C   0  0  0  0  0  0  0  0  0  0  0  0
   -1.3643    1.9819    0.7311 O   0  0  0  0  0  0  0  0  0  0  0  0
    0.5522    1.7647    1.8915 N   0  0  0  0  0  0  0  0  0  0  0  0
    1.3093    1.1450    2.1332 H   0  0  0  0  0  0  0  0  0  0  0  0
    0.5577    3.1119    2.4582 C   0  0  0  0  0  0  0  0  0  0  0  0
   -0.3986    3.3098    2.9475 H   0  0  0  0  0  0  0  0  0  0  0  0
    1.3619    3.2123    3.1886 H   0  0  0  0  0  0  0  0  0  0  0  0
    0.6974    3.8450    1.6614 H   0  0  0  0  0  0  0  0  0  0  0  0
  5  6  2  0  0  0  0
  5  7  1  0  0  0  0
  2  3  1  0  0  0  0
  2  4  1  0  0  0  0
  2  5  1  0  0  0  0
  1  2  1  0  0  0  0
 24 25  2  0  0  0  0
 24 26  1  0  0  0  0
 20 21  1  0  0  0  0
 20 22  1  0  0  0  0
 20 23  1  0  0  0  0
 17 18  1  0  0  0  0
 17 19  1  0  0  0  0
 17 20  1  0  0  0  0
 13 14  1  0  0  0  0
 13 15  1  0  0  0  0
 13 16  1  0  0  0  0
 11 12  1  0  0  0  0
 11 13  1  0  0  0  0
 11 17  1  0  0  0  0
  9 10  1  0  0  0  0
  9 11  1  0  0  0  0
  9 24  1  0  0  0  0
  7  8  1  0  0  0  0
  7  9  1  0  0  0  0
 28 29  1  0  0  0  0
 28 30  1  0  0  0  0
 28 31  1  0  0  0  0
 26 27  1  0  0  0  0
 26 28  1  0  0  0  0
M  END
$$$$
default_name
  -OEChem-02102213163D

 31 30  0     1  0  0  0  0  0999 V2000
   -3.0760   -3.6390    1.5496 H   0  0  0  0  0  0  0  0  0  0  0  0
   -3.0940   -2.6290    1.1426 C   0  0  0  0  0  0  0  0  0  0  0  0
   -3.7160   -1.9930    1.7706 H   0  0  0  0  0  0  0  0  0  0  0  0
   -3.4880   -2.6500    0.1286 H   0  0  0  0  0  0  0  0  0  0  0  0
   -1.6860   -2.0850    1.1196 C   0  0  0  0  0  0  0  0  0  0  0  0
   -0.7540   -2.7700    1.5226 O   0  0  0  0  0  0  0  0  0  0  0  0
   -1.5320   -0.8490    0.6496 N   0  0  0  0  0  0  0  0  0  0  0  0
   -2.3500   -0.3360    0.3566 H   0  0  0  0  0  0  0  0  0  0  0  0
   -0.2470   -0.1410    0.5576 C   0  0  1  0  0  0  0  0  0  0  0  0
    0.4572   -0.6505    1.2162 H   0  0  0  0  0  0  0  0  0  0  0  0
    0.3091   -0.2220   -0.8868 C   0  0  1  0  0  0  0  0  0  0  0  0
    1.3811   -0.4134   -0.8085 H   0  0  0  0  0  0  0  0  0  0  0  0
   -0.3154   -1.3762   -1.6940 C   0  0  0  0  0  0  0  0  0  0  0  0
   -1.3777   -1.1937   -1.8659 H   0  0  0  0  0  0  0  0  0  0  0  0
    0.1873   -1.4817   -2.6540 H   0  0  0  0  0  0  0  0  0  0  0  0
   -0.2030   -2.3171   -1.1542 H   0  0  0  0  0  0  0  0  0  0  0  0
    0.1348    1.1247   -1.6241 C   0  0  0  0  0  0  0  0  0  0  0  0
    0.6991    1.9052   -1.1120 H   0  0  0  0  0  0  0  0  0  0  0  0
    0.5295    1.0247   -2.6351 H   0  0  0  0  0  0  0  0  0  0  0  0
   -1.3267    1.5771   -1.7460 C   0  0  0  0  0  0  0  0  0  0  0  0
   -1.7423    1.7964   -0.7627 H   0  0  0  0  0  0  0  0  0  0  0  0
   -1.3735    2.4822   -2.3519 H   0  0  0  0  0  0  0  0  0  0  0  0
   -1.9194    0.7980   -2.2267 H   0  0  0  0  0  0  0  0  0  0  0  0
   -0.3971    1.3008    1.0689 C   0  0  0  0  0  0  0  0  0  0  0  0
   -1.3643    1.9819    0.7311 O   0  0  0  0  0  0  0  0  0  0  0  0
    0.5522    1.7647    1.8915 N   0  0  0  0  0  0  0  0  0  0  0  0
    1.3093    1.1450    2.1332 H   0  0  0  0  0  0  0  0  0  0  0  0
    0.5577    3.1119    2.4582 C   0  0  0  0  0  0  0  0  0  0  0  0
   -0.3986    3.3098    2.9475 H   0  0  0  0  0  0  0  0  0  0  0  0
    1.3619    3.2123    3.1886 H   0  0  0  0  0  0  0  0  0  0  0  0
    0.6974    3.8450    1.6614 H   0  0  0  0  0  0  0  0  0  0  0  0
  5  6  2  0  0  0  0
  5  7  1  0  0  0  0
  2  3  1  0  0  0  0
  2  4  1  0  0  0  0
  2  5  1  0  0  0  0
  1  2  1  0  0  0  0
 24 25  2  0  0  0  0
 24 26  1  0  0  0  0
 20 21  1  0  0  0  0
 20 22  1  0  0  0  0
 20 23  1  0  0  0  0
 17 18  1  0  0  0  0
 17 19  1  0  0  0  0
 17 20  1  0  0  0  0
 13 14  1  0  0  0  0
 13 15  1  0  0  0  0
 13 16  1  0  0  0  0
 11 12  1  0  0  0  0
 11 13  1  0  0  0  0
 11 17  1  0  0  0  0
  9 10  1  0  0  0  0
  9 11  1  0  0  0  0
  9 24  1  0  0  0  0
  7  8  1  0  0  0  0
  7  9  1  0  0  0  0
 28 29  1  0  0  0  0
 28 30  1  0  0  0  0
 28 31  1  0  0  0  0
 26 27  1  0  0  0  0
 26 28  1  0  0  0  0
M  END
$$$$
default_name
  -OEChem-02102213163D

 31 30  0     1  0  0  0  0  0999 V2000
   -3.0760   -3.6390    1.5496 H   0  0  0  0  0  0  0  0  0  0  0  0
   -3.0940   -2.6290    1.1426 C   0  0  0  0  0  0  0  0  0  0  0  0
   -3.7160   -1.9930    1.7706 H   0  0  0  0  0  0  0  0  0  0  0  0
   -3.4880   -2.6500    0.1286 H   0  0  0  0  0  0  0  0  0  0  0  0
   -1.6860   -2.0850    1.1196 C   0  0  0  0  0  0  0  0  0  0  0  0
   -0.7540   -2.7700    1.5226 O   0  0  0  0  0  0  0  0  0  0  0  0
   -1.5320   -0.8490    0.6496 N   0  0  0  0  0  0  0  0  0  0  0  0
   -2.3500   -0.3360    0.3566 H   0  0  0  0  0  0  0  0  0  0  0  0
   -0.2470   -0.1410    0.5576 C   0  0  1  0  0  0  0  0  0  0  0  0
    0.4572   -0.6505    1.2162 H   0  0  0  0  0  0  0  0  0  0  0  0
    0.3091   -0.2220   -0.8868 C   0  0  1  0  0  0  0  0  0  0  0  0
    1.3811   -0.4134   -0.8085 H   0  0  0  0  0  0  0  0  0  0  0  0
   -0.3154   -1.3762   -1.6940 C   0  0  0  0  0  0  0  0  0  0  0  0
   -1.3777   -1.1937   -1.8659 H   0  0  0  0  0  0  0  0  0  0  0  0
    0.1873   -1.4817   -2.6540 H   0  0  0  0  0  0  0  0  0  0  0  0
   -0.2030   -2.3171   -1.1542 H   0  0  0  0  0  0  0  0  0  0  0  0
    0.1348    1.1247   -1.6241 C   0  0  0  0  0  0  0  0  0  0  0  0
    0.8904    1.8349   -1.2856 H   0  0  0  0  0  0  0  0  0  0  0  0
    0.2743    0.9602   -2.6925 H   0  0  0  0  0  0  0  0  0  0  0  0
   -1.2509    1.7569   -1.4354 C   0  0  0  0  0  0  0  0  0  0  0  0
   -1.4025    2.0420   -0.3945 H   0  0  0  0  0  0  0  0  0  0  0  0
   -1.3251    2.6515   -2.0542 H   0  0  0  0  0  0  0  0  0  0  0  0
   -2.0266    1.0522   -1.7370 H   0  0  0  0  0  0  0  0  0  0  0  0
   -0.3971    1.3008    1.0689 C   0  0  0  0  0  0  0  0  0  0  0  0
   -1.3643    1.9819    0.7311 O   0  0  0  0  0  0  0  0  0  0  0  0
    0.5522    1.7647    1.8915 N   0  0  0  0  0  0  0  0  0  0  0  0
    1.3093    1.1450    2.1332 H   0  0  0  0  0  0  0  0  0  0  0  0
    0.5577    3.1119    2.4582 C   0  0  0  0  0  0  0  0  0  0  0  0
   -0.3986    3.3098    2.9475 H   0  0  0  0  0  0  0  0  0  0  0  0
    1.3619    3.2123    3.1886 H   0  0  0  0  0  0  0  0  0  0  0  0
    0.6974    3.8450    1.6614 H   0  0  0  0  0  0  0  0  0  0  0  0
  5  6  2  0  0  0  0
  5  7  1  0  0  0  0
  2  3  1  0  0  0  0
  2  4  1  0  0  0  0
  2  5  1  0  0  0  0
  1  2  1  0  0  0  0
 24 25  2  0  0  0  0
 24 26  1  0  0  0  0
 20 21  1  0  0  0  0
 20 22  1  0  0  0  0
 20 23  1  0  0  0  0
 17 18  1  0  0  0  0
 17 19  1  0  0  0  0
 17 20  1  0  0  0  0
 13 14  1  0  0  0  0
 13 15  1  0  0  0  0
 13 16  1  0  0  0  0
 11 12  1  0  0  0  0
 11 13  1  0  0  0  0
 11 17  1  0  0  0  0
  9 10  1  0  0  0  0
  9 11  1  0  0  0  0
  9 24  1  0  0  0  0
  7  8  1  0  0  0  0
  7  9  1  0  0  0  0
 28 29  1  0  0  0  0
 28 30  1  0  0  0  0
 28 31  1  0  0  0  0
 26 27  1  0  0  0  0
 26 28  1  0  0  0  0
M  END
$$$$
default_name
  -OEChem-02102213163D

 31 30  0     1  0  0  0  0  0999 V2000
   -3.0760   -3.6390    1.5496 H   0  0  0  0  0  0  0  0  0  0  0  0
   -3.0940   -2.6290    1.1426 C   0  0  0  0  0  0  0  0  0  0  0  0
   -3.7160   -1.9930    1.7706 H   0  0  0  0  0  0  0  0  0  0  0  0
   -3.4880   -2.6500    0.1286 H   0  0  0  0  0  0  0  0  0  0  0  0
   -1.6860   -2.0850    1.1196 C   0  0  0  0  0  0  0  0  0  0  0  0
   -0.7540   -2.7700    1.5226 O   0  0  0  0  0  0  0  0  0  0  0  0
   -1.5320   -0.8490    0.6496 N   0  0  0  0  0  0  0  0  0  0  0  0
   -2.3500   -0.3360    0.3566 H   0  0  0  0  0  0  0  0  0  0  0  0
   -0.2470   -0.1410    0.5576 C   0  0  1  0  0  0  0  0  0  0  0  0
    0.4572   -0.6505    1.2162 H   0  0  0  0  0  0  0  0  0  0  0  0
    0.3091   -0.2220   -0.8868 C   0  0  1  0  0  0  0  0  0  0  0  0
    1.3811   -0.4134   -0.8085 H   0  0  0  0  0  0  0  0  0  0  0  0
   -0.3154   -1.3762   -1.6940 C   0  0  0  0  0  0  0  0  0  0  0  0
   -1.3777   -1.1937   -1.8659 H   0  0  0  0  0  0  0  0  0  0  0  0
    0.1873   -1.4817   -2.6540 H   0  0  0  0  0  0  0  0  0  0  0  0
   -0.2030   -2.3171   -1.1542 H   0  0  0  0  0  0  0  0  0  0  0  0
    0.1348    1.1247   -1.6241 C   0  0  0  0  0  0  0  0  0  0  0  0
    1.0273    1.7383   -1.4943 H   0  0  0  0  0  0  0  0  0  0  0  0
    0.0069    0.9278   -2.6885 H   0  0  0  0  0  0  0  0  0  0  0  0
   -1.0854    1.9303   -1.1578 C   0  0  0  0  0  0  0  0  0  0  0  0
   -0.9610    2.2480   -0.1227 H   0  0  0  0  0  0  0  0  0  0  0  0
   -1.1904    2.8177   -1.7825 H   0  0  0  0  0  0  0  0  0  0  0  0
   -1.9883    1.3253   -1.2473 H   0  0  0  0  0  0  0  0  0  0  0  0
   -0.3971    1.3008    1.0689 C   0  0  0  0  0  0  0  0  0  0  0  0
   -1.3643    1.9819    0.7311 O   0  0  0  0  0  0  0  0  0  0  0  0
    0.5522    1.7647    1.8915 N   0  0  0  0  0  0  0  0  0  0  0  0
    1.3093    1.1450    2.1332 H   0  0  0  0  0  0  0  0  0  0  0  0
    0.5577    3.1119    2.4582 C   0  0  0  0  0  0  0  0  0  0  0  0
   -0.3986    3.3098    2.9475 H   0  0  0  0  0  0  0  0  0  0  0  0
    1.3619    3.2123    3.1886 H   0  0  0  0  0  0  0  0  0  0  0  0
    0.6974    3.8450    1.6614 H   0  0  0  0  0  0  0  0  0  0  0  0
  5  6  2  0  0  0  0
  5  7  1  0  0  0  0
  2  3  1  0  0  0  0
  2  4  1  0  0  0  0
  2  5  1  0  0  0  0
  1  2  1  0  0  0  0
 24 25  2  0  0  0  0
 24 26  1  0  0  0  0
 20 21  1  0  0  0  0
 20 22  1  0  0  0  0
 20 23  1  0  0  0  0
 17 18  1  0  0  0  0
 17 19  1  0  0  0  0
 17 20  1  0  0  0  0
 13 14  1  0  0  0  0
 13 15  1  0  0  0  0
 13 16  1  0  0  0  0
 11 12  1  0  0  0  0
 11 13  1  0  0  0  0
 11 17  1  0  0  0  0
  9 10  1  0  0  0  0
  9 11  1  0  0  0  0
  9 24  1  0  0  0  0
  7  8  1  0  0  0  0
  7  9  1  0  0  0  0
 28 29  1  0  0  0  0
 28 30  1  0  0  0  0
 28 31  1  0  0  0  0
 26 27  1  0  0  0  0
 26 28  1  0  0  0  0
M  END
$$$$
default_name
  -OEChem-02102213163D

 31 30  0     1  0  0  0  0  0999 V2000
   -3.0760   -3.6390    1.5496 H   0  0  0  0  0  0  0  0  0  0  0  0
   -3.0940   -2.6290    1.1426 C   0  0  0  0  0  0  0  0  0  0  0  0
   -3.7160   -1.9930    1.7706 H   0  0  0  0  0  0  0  0  0  0  0  0
   -3.4880   -2.6500    0.1286 H   0  0  0  0  0  0  0  0  0  0  0  0
   -1.6860   -2.0850    1.1196 C   0  0  0  0  0  0  0  0  0  0  0  0
   -0.7540   -2.7700    1.5226 O   0  0  0  0  0  0  0  0  0  0  0  0
   -1.5320   -0.8490    0.6496 N   0  0  0  0  0  0  0  0  0  0  0  0
   -2.3500   -0.3360    0.3566 H   0  0  0  0  0  0  0  0  0  0  0  0
   -0.2470   -0.1410    0.5576 C   0  0  1  0  0  0  0  0  0  0  0  0
    0.4572   -0.6505    1.2162 H   0  0  0  0  0  0  0  0  0  0  0  0
    0.3091   -0.2220   -0.8868 C   0  0  1  0  0  0  0  0  0  0  0  0
    1.3811   -0.4134   -0.8085 H   0  0  0  0  0  0  0  0  0  0  0  0
   -0.3154   -1.3762   -1.6940 C   0  0  0  0  0  0  0  0  0  0  0  0
   -1.3777   -1.1937   -1.8659 H   0  0  0  0  0  0  0  0  0  0  0  0
    0.1873   -1.4817   -2.6540 H   0  0  0  0  0  0  0  0  0  0  0  0
   -0.2030   -2.3171   -1.1542 H   0  0  0  0  0  0  0  0  0  0  0  0
    0.1348    1.1247   -1.6241 C   0  0  0  0  0  0  0  0  0  0  0  0
    1.1005    1.6220   -1.7241 H   0  0  0  0  0  0  0  0  0  0  0  0
   -0.2545    0.9296   -2.6233 H   0  0  0  0  0  0  0  0  0  0  0  0
   -0.8416    2.0855   -0.9320 C   0  0  0  0  0  0  0  0  0  0  0  0
   -0.4478    2.4003    0.0342 H   0  0  0  0  0  0  0  0  0  0  0  0
   -0.9785    2.9695   -1.5552 H   0  0  0  0  0  0  0  0  0  0  0  0
   -1.8071    1.5986   -0.7909 H   0  0  0  0  0  0  0  0  0  0  0  0
   -0.3971    1.3008    1.0689 C   0  0  0  0  0  0  0  0  0  0  0  0
   -1.3643    1.9819    0.7311 O   0  0  0  0  0  0  0  0  0  0  0  0
    0.5522    1.7647    1.8915 N   0  0  0  0  0  0  0  0  0  0  0  0
    1.3093    1.1450    2.1332 H   0  0  0  0  0  0  0  0  0  0  0  0
    0.5577    3.1119    2.4582 C   0  0  0  0  0  0  0  0  0  0  0  0
   -0.3986    3.3098    2.9475 H   0  0  0  0  0  0  0  0  0  0  0  0
    1.3619    3.2123    3.1886 H   0  0  0  0  0  0  0  0  0  0  0  0
    0.6974    3.8450    1.6614 H   0  0  0  0  0  0  0  0  0  0  0  0
  5  6  2  0  0  0  0
  5  7  1  0  0  0  0
  2  3  1  0  0  0  0
  2  4  1  0  0  0  0
  2  5  1  0  0  0  0
  1  2  1  0  0  0  0
 24 25  2  0  0  0  0
 24 26  1  0  0  0  0
 20 21  1  0  0  0  0
 20 22  1  0  0  0  0
 20 23  1  0  0  0  0
 17 18  1  0  0  0  0
 17 19  1  0  0  0  0
 17 20  1  0  0  0  0
 13 14  1  0  0  0  0
 13 15  1  0  0  0  0
 13 16  1  0  0  0  0
 11 12  1  0  0  0  0
 11 13  1  0  0  0  0
 11 17  1  0  0  0  0
  9 10  1  0  0  0  0
  9 11  1  0  0  0  0
  9 24  1  0  0  0  0
  7  8  1  0  0  0  0
  7  9  1  0  0  0  0
 28 29  1  0  0  0  0
 28 30  1  0  0  0  0
 28 31  1  0  0  0  0
 26 27  1  0  0  0  0
 26 28  1  0  0  0  0
M  END
$$$$
default_name
  -OEChem-02102213163D

 31 30  0     1  0  0  0  0  0999 V2000
   -3.0760   -3.6390    1.5496 H   0  0  0  0  0  0  0  0  0  0  0  0
   -3.0940   -2.6290    1.1426 C   0  0  0  0  0  0  0  0  0  0  0  0
   -3.7160   -1.9930    1.7706 H   0  0  0  0  0  0  0  0  0  0  0  0
   -3.4880   -2.6500    0.1286 H   0  0  0  0  0  0  0  0  0  0  0  0
   -1.6860   -2.0850    1.1196 C   0  0  0  0  0  0  0  0  0  0  0  0
   -0.7540   -2.7700    1.5226 O   0  0  0  0  0  0  0  0  0  0  0  0
   -1.5320   -0.8490    0.6496 N   0  0  0  0  0  0  0  0  0  0  0  0
   -2.3500   -0.3360    0.3566 H   0  0  0  0  0  0  0  0  0  0  0  0
   -0.2470   -0.1410    0.5576 C   0  0  1  0  0  0  0  0  0  0  0  0
    0.4572   -0.6505    1.2162 H   0  0  0  0  0  0  0  0  0  0  0  0
    0.3091   -0.2220   -0.8868 C   0  0  1  0  0  0  0  0  0  0  0  0
    1.3811   -0.4134   -0.8085 H   0  0  0  0  0  0  0  0  0  0  0  0
   -0.3154   -1.3762   -1.6940 C   0  0  0  0  0  0  0  0  0  0  0  0
   -1.3777   -1.1937   -1.8659 H   0  0  0  0  0  0  0  0  0  0  0  0
    0.1873   -1.4817   -2.6540 H   0  0  0  0  0  0  0  0  0  0  0  0
   -0.2030   -2.3171   -1.1542 H   0  0  0  0  0  0  0  0  0  0  0  0
    0.1348    1.1247   -1.6241 C   0  0  0  0  0  0  0  0  0  0  0  0
    1.1050    1.4940   -1.9591 H   0  0  0  0  0  0  0  0  0  0  0  0
   -0.4921    0.9656   -2.5014 H   0  0  0  0  0  0  0  0  0  0  0  0
   -0.5359    2.2119   -0.7735 C   0  0  0  0  0  0  0  0  0  0  0  0
    0.1022    2.4887    0.0656 H   0  0  0  0  0  0  0  0  0  0  0  0
   -0.7037    3.0966   -1.3880 H   0  0  0  0  0  0  0  0  0  0  0  0
   -1.4954    1.8535   -0.3989 H   0  0  0  0  0  0  0  0  0  0  0  0
   -0.3971    1.3008    1.0689 C   0  0  0  0  0  0  0  0  0  0  0  0
   -1.3643    1.9819    0.7311 O   0  0  0  0  0  0  0  0  0  0  0  0
    0.5522    1.7647    1.8915 N   0  0  0  0  0  0  0  0  0  0  0  0
    1.3093    1.1450    2.1332 H   0  0  0  0  0  0  0  0  0  0  0  0
    0.5577    3.1119    2.4582 C   0  0  0  0  0  0  0  0  0  0  0  0
   -0.3986    3.3098    2.9475 H   0  0  0  0  0  0  0  0  0  0  0  0
    1.3619    3.2123    3.1886 H   0  0  0  0  0  0  0  0  0  0  0  0
    0.6974    3.8450    1.6614 H   0  0  0  0  0  0  0  0  0  0  0  0
  5  6  2  0  0  0  0
  5  7  1  0  0  0  0
  2  3  1  0  0  0  0
  2  4  1  0  0  0  0
  2  5  1  0  0  0  0
  1  2  1  0  0  0  0
 24 25  2  0  0  0  0
 24 26  1  0  0  0  0
 20 21  1  0  0  0  0
 20 22  1  0  0  0  0
 20 23  1  0  0  0  0
 17 18  1  0  0  0  0
 17 19  1  0  0  0  0
 17 20  1  0  0  0  0
 13 14  1  0  0  0  0
 13 15  1  0  0  0  0
 13 16  1  0  0  0  0
 11 12  1  0  0  0  0
 11 13  1  0  0  0  0
 11 17  1  0  0  0  0
  9 10  1  0  0  0  0
  9 11  1  0  0  0  0
  9 24  1  0  0  0  0
  7  8  1  0  0  0  0
  7  9  1  0  0  0  0
 28 29  1  0  0  0  0
 28 30  1  0  0  0  0
 28 31  1  0  0  0  0
 26 27  1  0  0  0  0
 26 28  1  0  0  0  0
M  END
$$$$
default_name
  -OEChem-02102213163D

 31 30  0     1  0  0  0  0  0999 V2000
   -3.0760   -3.6390    1.5496 H   0  0  0  0  0  0  0  0  0  0  0  0
   -3.0940   -2.6290    1.1426 C   0  0  0  0  0  0  0  0  0  0  0  0
   -3.7160   -1.9930    1.7706 H   0  0  0  0  0  0  0  0  0  0  0  0
   -3.4880   -2.6500    0.1286 H   0  0  0  0  0  0  0  0  0  0  0  0
   -1.6860   -2.0850    1.1196 C   0  0  0  0  0  0  0  0  0  0  0  0
   -0.7540   -2.7700    1.5226 O   0  0  0  0  0  0  0  0  0  0  0  0
   -1.5320   -0.8490    0.6496 N   0  0  0  0  0  0  0  0  0  0  0  0
   -2.3500   -0.3360    0.3566 H   0  0  0  0  0  0  0  0  0  0  0  0
   -0.2470   -0.1410    0.5576 C   0  0  1  0  0  0  0  0  0  0  0  0
    0.4572   -0.6505    1.2162 H   0  0  0  0  0  0  0  0  0  0  0  0
    0.3091   -0.2220   -0.8868 C   0  0  1  0  0  0  0  0  0  0  0  0
    1.3811   -0.4134   -0.8085 H   0  0  0  0  0  0  0  0  0  0  0  0
   -0.3154   -1.3762   -1.6940 C   0  0  0  0  0  0  0  0  0  0  0  0
   -1.3777   -1.1937   -1.8659 H   0  0  0  0  0  0  0  0  0  0  0  0
    0.1873   -1.4817   -2.6540 H   0  0  0  0  0  0  0  0  0  0  0  0
   -0.2030   -2.3171   -1.1542 H   0  0  0  0  0  0  0  0  0  0  0  0
    0.1348    1.1247   -1.6241 C   0  0  0  0  0  0  0  0  0  0  0  0
    1.0405    1.3628   -2.1833 H   0  0  0  0  0  0  0  0  0  0  0  0
   -0.6896    1.0332   -2.3312 H   0  0  0  0  0  0  0  0  0  0  0  0
   -0.1893    2.3008   -0.6929 C   0  0  0  0  0  0  0  0  0  0  0  0
    0.6514    2.5071   -0.0308 H   0  0  0  0  0  0  0  0  0  0  0  0
   -0.3849    3.1904   -1.2921 H   0  0  0  0  0  0  0  0  0  0  0  0
   -1.0744    2.0728   -0.0980 H   0  0  0  0  0  0  0  0  0  0  0  0
   -0.3971    1.3008    1.0689 C   0  0  0  0  0  0  0  0  0  0  0  0
   -1.3643    1.9819    0.7311 O   0  0  0  0  0  0  0  0  0  0  0  0
    0.5522    1.7647    1.8915 N   0  0  0  0  0  0  0  0  0  0  0  0
    1.3093    1.1450    2.1332 H   0  0  0  0  0  0  0  0  0  0  0  0
    0.5577    3.1119    2.4582 C   0  0  0  0  0  0  0  0  0  0  0  0
   -0.3986    3.3098    2.9475 H   0  0  0  0  0  0  0  0  0  0  0  0
    1.3619    3.2123    3.1886 H   0  0  0  0  0  0  0  0  0  0  0  0
    0.6974    3.8450    1.6614 H   0  0  0  0  0  0  0  0  0  0  0  0
  5  6  2  0  0  0  0
  5  7  1  0  0  0  0
  2  3  1  0  0  0  0
  2  4  1  0  0  0  0
  2  5  1  0  0  0  0
  1  2  1  0  0  0  0
 24 25  2  0  0  0  0
 24 26  1  0  0  0  0
 20 21  1  0  0  0  0
 20 22  1  0  0  0  0
 20 23  1  0  0  0  0
 17 18  1  0  0  0  0
 17 19  1  0  0  0  0
 17 20  1  0  0  0  0
 13 14  1  0  0  0  0
 13 15  1  0  0  0  0
 13 16  1  0  0  0  0
 11 12  1  0  0  0  0
 11 13  1  0  0  0  0
 11 17  1  0  0  0  0
  9 10  1  0  0  0  0
  9 11  1  0  0  0  0
  9 24  1  0  0  0  0
  7  8  1  0  0  0  0
  7  9  1  0  0  0  0
 28 29  1  0  0  0  0
 28 30  1  0  0  0  0
 28 31  1  0  0  0  0
 26 27  1  0  0  0  0
 26 28  1  0  0  0  0
M  END
$$$$
default_name
  -OEChem-02102213163D

 31 30  0     1  0  0  0  0  0999 V2000
   -3.0760   -3.6390    1.5496 H   0  0  0  0  0  0  0  0  0  0  0  0
   -3.0940   -2.6290    1.1426 C   0  0  0  0  0  0  0  0  0  0  0  0
   -3.7160   -1.9930    1.7706 H   0  0  0  0  0  0  0  0  0  0  0  0
   -3.4880   -2.6500    0.1286 H   0  0  0  0  0  0  0  0  0  0  0  0
   -1.6860   -2.0850    1.1196 C   0  0  0  0  0  0  0  0  0  0  0  0
   -0.7540   -2.7700    1.5226 O   0  0  0  0  0  0  0  0  0  0  0  0
   -1.5320   -0.8490    0.6496 N   0  0  0  0  0  0  0  0  0  0  0  0
   -2.3500   -0.3360    0.3566 H   0  0  0  0  0  0  0  0  0  0  0  0
   -0.2470   -0.1410    0.5576 C   0  0  1  0  0  0  0  0  0  0  0  0
    0.4572   -0.6505    1.2162 H   0  0  0  0  0  0  0  0  0  0  0  0
    0.3091   -0.2220   -0.8868 C   0  0  1  0  0  0  0  0  0  0  0  0
    1.3811   -0.4134   -0.8085 H   0  0  0  0  0  0  0  0  0  0  0  0
   -0.3154   -1.3762   -1.6940 C   0  0  0  0  0  0  0  0  0  0  0  0
   -1.3777   -1.1937   -1.8659 H   0  0  0  0  0  0  0  0  0  0  0  0
    0.1873   -1.4817   -2.6540 H   0  0  0  0  0  0  0  0  0  0  0  0
   -0.2030   -2.3171   -1.1542 H   0  0  0  0  0  0  0  0  0  0  0  0
    0.1348    1.1247   -1.6241 C   0  0  0  0  0  0  0  0  0  0  0  0
    0.9115    1.2376   -2.3816 H   0  0  0  0  0  0  0  0  0  0  0  0
   -0.8337    1.1279   -2.1241 H   0  0  0  0  0  0  0  0  0  0  0  0
    0.1746    2.3463   -0.6960 C   0  0  0  0  0  0  0  0  0  0  0  0
    1.1624    2.4542   -0.2483 H   0  0  0  0  0  0  0  0  0  0  0  0
   -0.0438    3.2444   -1.2742 H   0  0  0  0  0  0  0  0  0  0  0  0
   -0.5728    2.2413    0.0912 H   0  0  0  0  0  0  0  0  0  0  0  0
   -0.3971    1.3008    1.0689 C   0  0  0  0  0  0  0  0  0  0  0  0
   -1.3643    1.9819    0.7311 O   0  0  0  0  0  0  0  0  0  0  0  0
    0.5522    1.7647    1.8915 N   0  0  0  0  0  0  0  0  0  0  0  0
    1.3093    1.1450    2.1332 H   0  0  0  0  0  0  0  0  0  0  0  0
    0.5577    3.1119    2.4582 C   0  0  0  0  0  0  0  0  0  0  0  0
   -0.3986    3.3098    2.9475 H   0  0  0  0  0  0  0  0  0  0  0  0
    1.3619    3.2123    3.1886 H   0  0  0  0  0  0  0  0  0  0  0  0
    0.6974    3.8450    1.6614 H   0  0  0  0  0  0  0  0  0  0  0  0
  5  6  2  0  0  0  0
  5  7  1  0  0  0  0
  2  3  1  0  0  0  0
  2  4  1  0  0  0  0
  2  5  1  0  0  0  0
  1  2  1  0  0  0  0
 24 25  2  0  0  0  0
 24 26  1  0  0  0  0
 20 21  1  0  0  0  0
 20 22  1  0  0  0  0
 20 23  1  0  0  0  0
 17 18  1  0  0  0  0
 17 19  1  0  0  0  0
 17 20  1  0  0  0  0
 13 14  1  0  0  0  0
 13 15  1  0  0  0  0
 13 16  1  0  0  0  0
 11 12  1  0  0  0  0
 11 13  1  0  0  0  0
 11 17  1  0  0  0  0
  9 10  1  0  0  0  0
  9 11  1  0  0  0  0
  9 24  1  0  0  0  0
  7  8  1  0  0  0  0
  7  9  1  0  0  0  0
 28 29  1  0  0  0  0
 28 30  1  0  0  0  0
 28 31  1  0  0  0  0
 26 27  1  0  0  0  0
 26 28  1  0  0  0  0
M  END
$$$$
default_name
  -OEChem-02102213163D

 31 30  0     1  0  0  0  0  0999 V2000
   -3.0760   -3.6390    1.5496 H   0  0  0  0  0  0  0  0  0  0  0  0
   -3.0940   -2.6290    1.1426 C   0  0  0  0  0  0  0  0  0  0  0  0
   -3.7160   -1.9930    1.7706 H   0  0  0  0  0  0  0  0  0  0  0  0
   -3.4880   -2.6500    0.1286 H   0  0  0  0  0  0  0  0  0  0  0  0
   -1.6860   -2.0850    1.1196 C   0  0  0  0  0  0  0  0  0  0  0  0
   -0.7540   -2.7700    1.5226 O   0  0  0  0  0  0  0  0  0  0  0  0
   -1.5320   -0.8490    0.6496 N   0  0  0  0  0  0  0  0  0  0  0  0
   -2.3500   -0.3360    0.3566 H   0  0  0  0  0  0  0  0  0  0  0  0
   -0.2470   -0.1410    0.5576 C   0  0  1  0  0  0  0  0  0  0  0  0
    0.4572   -0.6505    1.2162 H   0  0  0  0  0  0  0  0  0  0  0  0
    0.3091   -0.2220   -0.8868 C   0  0  1  0  0  0  0  0  0  0  0  0
    1.3811   -0.4134   -0.8085 H   0  0  0  0  0  0  0  0  0  0  0  0
   -0.3154   -1.3762   -1.6940 C   0  0  0  0  0  0  0  0  0  0  0  0
   -1.3777   -1.1937   -1.8659 H   0  0  0  0  0  0  0  0  0  0  0  0
    0.1873   -1.4817   -2.6540 H   0  0  0  0  0  0  0  0  0  0  0  0
   -0.2030   -2.3171   -1.1542 H   0  0  0  0  0  0  0  0  0  0  0  0
    0.1348    1.1247   -1.6241 C   0  0  0  0  0  0  0  0  0  0  0  0
    0.7266    1.1268   -2.5404 H   0  0  0  0  0  0  0  0  0  0  0  0
   -0.9145    1.2432   -1.8944 H   0  0  0  0  0  0  0  0  0  0  0  0
    0.5311    2.3452   -0.7823 C   0  0  0  0  0  0  0  0  0  0  0  0
    1.6004    2.3336   -0.5721 H   0  0  0  0  0  0  0  0  0  0  0  0
    0.2964    3.2549   -1.3354 H   0  0  0  0  0  0  0  0  0  0  0  0
   -0.0248    2.3477    0.1559 H   0  0  0  0  0  0  0  0  0  0  0  0
   -0.3971    1.3008    1.0689 C   0  0  0  0  0  0  0  0  0  0  0  0
   -1.3643    1.9819    0.7311 O   0  0  0  0  0  0  0  0  0  0  0  0
    0.5522    1.7647    1.8915 N   0  0  0  0  0  0  0  0  0  0  0  0
    1.3093    1.1450    2.1332 H   0  0  0  0  0  0  0  0  0  0  0  0
    0.5577    3.1119    2.4582 C   0  0  0  0  0  0  0  0  0  0  0  0
   -0.3986    3.3098    2.9475 H   0  0  0  0  0  0  0  0  0  0  0  0
    1.3619    3.2123    3.1886 H   0  0  0  0  0  0  0  0  0  0  0  0
    0.6974    3.8450    1.6614 H   0  0  0  0  0  0  0  0  0  0  0  0
  5  6  2  0  0  0  0
  5  7  1  0  0  0  0
  2  3  1  0  0  0  0
  2  4  1  0  0  0  0
  2  5  1  0  0  0  0
  1  2  1  0  0  0  0
 24 25  2  0  0  0  0
 24 26  1  0  0  0  0
 20 21  1  0  0  0  0
 20 22  1  0  0  0  0
 20 23  1  0  0  0  0
 17 18  1  0  0  0  0
 17 19  1  0  0  0  0
 17 20  1  0  0  0  0
 13 14  1  0  0  0  0
 13 15  1  0  0  0  0
 13 16  1  0  0  0  0
 11 12  1  0  0  0  0
 11 13  1  0  0  0  0
 11 17  1  0  0  0  0
  9 10  1  0  0  0  0
  9 11  1  0  0  0  0
  9 24  1  0  0  0  0
  7  8  1  0  0  0  0
  7  9  1  0  0  0  0
 28 29  1  0  0  0  0
 28 30  1  0  0  0  0
 28 31  1  0  0  0  0
 26 27  1  0  0  0  0
 26 28  1  0  0  0  0
M  END
$$$$
default_name
  -OEChem-02102213163D

 31 30  0     1  0  0  0  0  0999 V2000
   -3.0760   -3.6390    1.5496 H   0  0  0  0  0  0  0  0  0  0  0  0
   -3.0940   -2.6290    1.1426 C   0  0  0  0  0  0  0  0  0  0  0  0
   -3.7160   -1.9930    1.7706 H   0  0  0  0  0  0  0  0  0  0  0  0
   -3.4880   -2.6500    0.1286 H   0  0  0  0  0  0  0  0  0  0  0  0
   -1.6860   -2.0850    1.1196 C   0  0  0  0  0  0  0  0  0  0  0  0
   -0.7540   -2.7700    1.5226 O   0  0  0  0  0  0  0  0  0  0  0  0
   -1.5320   -0.8490    0.6496 N   0  0  0  0  0  0  0  0  0  0  0  0
   -2.3500   -0.3360    0.3566 H   0  0  0  0  0  0  0  0  0  0  0  0
   -0.2470   -0.1410    0.5576 C   0  0  1  0  0  0  0  0  0  0  0  0
    0.4572   -0.6505    1.2162 H   0  0  0  0  0  0  0  0  0  0  0  0
    0.3091   -0.2220   -0.8868 C   0  0  1  0  0  0  0  0  0  0  0  0
    1.3811   -0.4134   -0.8085 H   0  0  0  0  0  0  0  0  0  0  0  0
   -0.3154   -1.3762   -1.6940 C   0  0  0  0  0  0  0  0  0  0  0  0
   -1.3777   -1.1937   -1.8659 H   0  0  0  0  0  0  0  0  0  0  0  0
    0.1873   -1.4817   -2.6540 H   0  0  0  0  0  0  0  0  0  0  0  0
   -0.2030   -2.3171   -1.1542 H   0  0  0  0  0  0  0  0  0  0  0  0
    0.1348    1.1247   -1.6241 C   0  0  0  0  0  0  0  0  0  0  0  0
    0.4986    1.0379   -2.6488 H   0  0  0  0  0  0  0  0  0  0  0  0
   -0.9264    1.3712   -1.6577 H   0  0  0  0  0  0  0  0  0  0  0  0
    0.8559    2.2976   -0.9461 C   0  0  0  0  0  0  0  0  0  0  0  0
    1.9356    2.1536   -0.9801 H   0  0  0  0  0  0  0  0  0  0  0  0
    0.6126    3.2213   -1.4716 H   0  0  0  0  0  0  0  0  0  0  0  0
    0.5323    2.3847    0.0917 H   0  0  0  0  0  0  0  0  0  0  0  0
   -0.3971    1.3008    1.0689 C   0  0  0  0  0  0  0  0  0  0  0  0
   -1.3643    1.9819    0.7311 O   0  0  0  0  0  0  0  0  0  0  0  0
    0.5522    1.7647    1.8915 N   0  0  0  0  0  0  0  0  0  0  0  0
    1.3093    1.1450    2.1332 H   0  0  0  0  0  0  0  0  0  0  0  0
    0.5577    3.1119    2.4582 C   0  0  0  0  0  0  0  0  0  0  0  0
   -0.3986    3.3098    2.9475 H   0  0  0  0  0  0  0  0  0  0  0  0
    1.3619    3.2123    3.1886 H   0  0  0  0  0  0  0  0  0  0  0  0
    0.6974    3.8450    1.6614 H   0  0  0  0  0  0  0  0  0  0  0  0
  5  6  2  0  0  0  0
  5  7  1  0  0  0  0
  2  3  1  0  0  0  0
  2  4  1  0  0  0  0
  2  5  1  0  0  0  0
  1  2  1  0  0  0  0
 24 25  2  0  0  0  0
 24 26  1  0  0  0  0
 20 21  1  0  0  0  0
 20 22  1  0  0  0  0
 20 23  1  0  0  0  0
 17 18  1  0  0  0  0
 17 19  1  0  0  0  0
 17 20  1  0  0  0  0
 13 14  1  0  0  0  0
 13 15  1  0  0  0  0
 13 16  1  0  0  0  0
 11 12  1  0  0  0  0
 11 13  1  0  0  0  0
 11 17  1  0  0  0  0
  9 10  1  0  0  0  0
  9 11  1  0  0  0  0
  9 24  1  0  0  0  0
  7  8  1  0  0  0  0
  7  9  1  0  0  0  0
 28 29  1  0  0  0  0
 28 30  1  0  0  0  0
 28 31  1  0  0  0  0
 26 27  1  0  0  0  0
 26 28  1  0  0  0  0
M  END
$$$$
default_name
  -OEChem-02102213163D

 31 30  0     1  0  0  0  0  0999 V2000
   -3.0760   -3.6390    1.5496 H   0  0  0  0  0  0  0  0  0  0  0  0
   -3.0940   -2.6290    1.1426 C   0  0  0  0  0  0  0  0  0  0  0  0
   -3.7160   -1.9930    1.7706 H   0  0  0  0  0  0  0  0  0  0  0  0
   -3.4880   -2.6500    0.1286 H   0  0  0  0  0  0  0  0  0  0  0  0
   -1.6860   -2.0850    1.1196 C   0  0  0  0  0  0  0  0  0  0  0  0
   -0.7540   -2.7700    1.5226 O   0  0  0  0  0  0  0  0  0  0  0  0
   -1.5320   -0.8490    0.6496 N   0  0  0  0  0  0  0  0  0  0  0  0
   -2.3500   -0.3360    0.3566 H   0  0  0  0  0  0  0  0  0  0  0  0
   -0.2470   -0.1410    0.5576 C   0  0  1  0  0  0  0  0  0  0  0  0
    0.4572   -0.6505    1.2162 H   0  0  0  0  0  0  0  0  0  0  0  0
    0.3091   -0.2220   -0.8868 C   0  0  1  0  0  0  0  0  0  0  0  0
    1.3811   -0.4134   -0.8085 H   0  0  0  0  0  0  0  0  0  0  0  0
   -0.3154   -1.3762   -1.6940 C   0  0  0  0  0  0  0  0  0  0  0  0
   -1.3777   -1.1937   -1.8659 H   0  0  0  0  0  0  0  0  0  0  0  0
    0.1873   -1.4817   -2.6540 H   0  0  0  0  0  0  0  0  0  0  0  0
   -0.2030   -2.3171   -1.1542 H   0  0  0  0  0  0  0  0  0  0  0  0
    0.1348    1.1247   -1.6241 C   0  0  0  0  0  0  0  0  0  0  0  0
    0.2429    0.9770   -2.6994 H   0  0  0  0  0  0  0  0  0  0  0  0
   -0.8688    1.5033   -1.4301 H   0  0  0  0  0  0  0  0  0  0  0  0
    1.1267    2.2067   -1.1761 C   0  0  0  0  0  0  0  0  0  0  0  0
    2.1451    1.9265   -1.4446 H   0  0  0  0  0  0  0  0  0  0  0  0
    0.8831    3.1458   -1.6734 H   0  0  0  0  0  0  0  0  0  0  0  0
    1.0605    2.3497   -0.0970 H   0  0  0  0  0  0  0  0  0  0  0  0
   -0.3971    1.3008    1.0689 C   0  0  0  0  0  0  0  0  0  0  0  0
   -1.3643    1.9819    0.7311 O   0  0  0  0  0  0  0  0  0  0  0  0
    0.5522    1.7647    1.8915 N   0  0  0  0  0  0  0  0  0  0  0  0
    1.3093    1.1450    2.1332 H   0  0  0  0  0  0  0  0  0  0  0  0
    0.5577    3.1119    2.4582 C   0  0  0  0  0  0  0  0  0  0  0  0
   -0.3986    3.3098    2.9475 H   0  0  0  0  0  0  0  0  0  0  0  0
    1.3619    3.2123    3.1886 H   0  0  0  0  0  0  0  0  0  0  0  0
    0.6974    3.8450    1.6614 H   0  0  0  0  0  0  0  0  0  0  0  0
  5  6  2  0  0  0  0
  5  7  1  0  0  0  0
  2  3  1  0  0  0  0
  2  4  1  0  0  0  0
  2  5  1  0  0  0  0
  1  2  1  0  0  0  0
 24 25  2  0  0  0  0
 24 26  1  0  0  0  0
 20 21  1  0  0  0  0
 20 22  1  0  0  0  0
 20 23  1  0  0  0  0
 17 18  1  0  0  0  0
 17 19  1  0  0  0  0
 17 20  1  0  0  0  0
 13 14  1  0  0  0  0
 13 15  1  0  0  0  0
 13 16  1  0  0  0  0
 11 12  1  0  0  0  0
 11 13  1  0  0  0  0
 11 17  1  0  0  0  0
  9 10  1  0  0  0  0
  9 11  1  0  0  0  0
  9 24  1  0  0  0  0
  7  8  1  0  0  0  0
  7  9  1  0  0  0  0
 28 29  1  0  0  0  0
 28 30  1  0  0  0  0
 28 31  1  0  0  0  0
 26 27  1  0  0  0  0
 26 28  1  0  0  0  0
M  END
$$$$
default_name
  -OEChem-02102213163D

 31 30  0     1  0  0  0  0  0999 V2000
   -3.0760   -3.6390    1.5496 H   0  0  0  0  0  0  0  0  0  0  0  0
   -3.0940   -2.6290    1.1426 C   0  0  0  0  0  0  0  0  0  0  0  0
   -3.7160   -1.9930    1.7706 H   0  0  0  0  0  0  0  0  0  0  0  0
   -3.4880   -2.6500    0.1286 H   0  0  0  0  0  0  0  0  0  0  0  0
   -1.6860   -2.0850    1.1196 C   0  0  0  0  0  0  0  0  0  0  0  0
   -0.7540   -2.7700    1.5226 O   0  0  0  0  0  0  0  0  0  0  0  0
   -1.5320   -0.8490    0.6496 N   0  0  0  0  0  0  0  0  0  0  0  0
   -2.3500   -0.3360    0.3566 H   0  0  0  0  0  0  0  0  0  0  0  0
   -0.2470   -0.1410    0.5576 C   0  0  1  0  0  0  0  0  0  0  0  0
    0.4572   -0.6505    1.2162 H   0  0  0  0  0  0  0  0  0  0  0  0
    0.3091   -0.2220   -0.8868 C   0  0  1  0  0  0  0  0  0  0  0  0
    1.3811   -0.4134   -0.8085 H   0  0  0  0  0  0  0  0  0  0  0  0
   -0.3154   -1.3762   -1.6940 C   0  0  0  0  0  0  0  0  0  0  0  0
   -1.3777   -1.1937   -1.8659 H   0  0  0  0  0  0  0  0  0  0  0  0
    0.1873   -1.4817   -2.6540 H   0  0  0  0  0  0  0  0  0  0  0  0
   -0.2030   -2.3171   -1.1542 H   0  0  0  0  0  0  0  0  0  0  0  0
    0.1348    1.1247   -1.6241 C   0  0  0  0  0  0  0  0  0  0  0  0
   -0.0230    0.9484   -2.6889 H   0  0  0  0  0  0  0  0  0  0  0  0
   -0.7454    1.6304   -1.2271 H   0  0  0  0  0  0  0  0  0  0  0  0
    1.3252    2.0788   -1.4568 C   0  0  0  0  0  0  0  0  0  0  0  0
    2.2146    1.6676   -1.9339 H   0  0  0  0  0  0  0  0  0  0  0  0
    1.0895    3.0336   -1.9272 H   0  0  0  0  0  0  0  0  0  0  0  0
    1.5238    2.2453   -0.3975 H   0  0  0  0  0  0  0  0  0  0  0  0
   -0.3971    1.3008    1.0689 C   0  0  0  0  0  0  0  0  0  0  0  0
   -1.3643    1.9819    0.7311 O   0  0  0  0  0  0  0  0  0  0  0  0
    0.5522    1.7647    1.8915 N   0  0  0  0  0  0  0  0  0  0  0  0
    1.3093    1.1450    2.1332 H   0  0  0  0  0  0  0  0  0  0  0  0
    0.5577    3.1119    2.4582 C   0  0  0  0  0  0  0  0  0  0  0  0
   -0.3986    3.3098    2.9475 H   0  0  0  0  0  0  0  0  0  0  0  0
    1.3619    3.2123    3.1886 H   0  0  0  0  0  0  0  0  0  0  0  0
    0.6974    3.8450    1.6614 H   0  0  0  0  0  0  0  0  0  0  0  0
  5  6  2  0  0  0  0
  5  7  1  0  0  0  0
  2  3  1  0  0  0  0
  2  4  1  0  0  0  0
  2  5  1  0  0  0  0
  1  2  1  0  0  0  0
 24 25  2  0  0  0  0
 24 26  1  0  0  0  0
 20 21  1  0  0  0  0
 20 22  1  0  0  0  0
 20 23  1  0  0  0  0
 17 18  1  0  0  0  0
 17 19  1  0  0  0  0
 17 20  1  0  0  0  0
 13 14  1  0  0  0  0
 13 15  1  0  0  0  0
 13 16  1  0  0  0  0
 11 12  1  0  0  0  0
 11 13  1  0  0  0  0
 11 17  1  0  0  0  0
  9 10  1  0  0  0  0
  9 11  1  0  0  0  0
  9 24  1  0  0  0  0
  7  8  1  0  0  0  0
  7  9  1  0  0  0  0
 28 29  1  0  0  0  0
 28 30  1  0  0  0  0
 28 31  1  0  0  0  0
 26 27  1  0  0  0  0
 26 28  1  0  0  0  0
M  END
$$$$
default_name
  -OEChem-02102213163D

 31 30  0     1  0  0  0  0  0999 V2000
   -3.0760   -3.6390    1.5496 H   0  0  0  0  0  0  0  0  0  0  0  0
   -3.0940   -2.6290    1.1426 C   0  0  0  0  0  0  0  0  0  0  0  0
   -3.7160   -1.9930    1.7706 H   0  0  0  0  0  0  0  0  0  0  0  0
   -3.4880   -2.6500    0.1286 H   0  0  0  0  0  0  0  0  0  0  0  0
   -1.6860   -2.0850    1.1196 C   0  0  0  0  0  0  0  0  0  0  0  0
   -0.7540   -2.7700    1.5226 O   0  0  0  0  0  0  0  0  0  0  0  0
   -1.5320   -0.8490    0.6496 N   0  0  0  0  0  0  0  0  0  0  0  0
   -2.3500   -0.3360    0.3566 H   0  0  0  0  0  0  0  0  0  0  0  0
   -0.2470   -0.1410    0.5576 C   0  0  1  0  0  0  0  0  0  0  0  0
    0.4572   -0.6505    1.2162 H   0  0  0  0  0  0  0  0  0  0  0  0
    0.3091   -0.2220   -0.8868 C   0  0  1  0  0  0  0  0  0  0  0  0
    1.3811   -0.4134   -0.8085 H   0  0  0  0  0  0  0  0  0  0  0  0
   -0.3154   -1.3762   -1.6940 C   0  0  0  0  0  0  0  0  0  0  0  0
   -1.3777   -1.1937   -1.8659 H   0  0  0  0  0  0  0  0  0  0  0  0
    0.1873   -1.4817   -2.6540 H   0  0  0  0  0  0  0  0  0  0  0  0
   -0.2030   -2.3171   -1.1542 H   0  0  0  0  0  0  0  0  0  0  0  0
    0.1348    1.1247   -1.6241 C   0  0  0  0  0  0  0  0  0  0  0  0
   -0.2811    0.9538   -2.6179 H   0  0  0  0  0  0  0  0  0  0  0  0
   -0.5648    1.7439   -1.0625 H   0  0  0  0  0  0  0  0  0  0  0  0
    1.4378    1.9225   -1.7689 C   0  0  0  0  0  0  0  0  0  0  0  0
    2.1394    1.3947   -2.4147 H   0  0  0  0  0  0  0  0  0  0  0  0
    1.2177    2.8923   -2.2157 H   0  0  0  0  0  0  0  0  0  0  0  0
    1.8907    2.0783   -0.7892 H   0  0  0  0  0  0  0  0  0  0  0  0
   -0.3971    1.3008    1.0689 C   0  0  0  0  0  0  0  0  0  0  0  0
   -1.3643    1.9819    0.7311 O   0  0  0  0  0  0  0  0  0  0  0  0
    0.5522    1.7647    1.8915 N   0  0  0  0  0  0  0  0  0  0  0  0
    1.3093    1.1450    2.1332 H   0  0  0  0  0  0  0  0  0  0  0  0
    0.5577    3.1119    2.4582 C   0  0  0  0  0  0  0  0  0  0  0  0
   -0.3986    3.3098    2.9475 H   0  0  0  0  0  0  0  0  0  0  0  0
    1.3619    3.2123    3.1886 H   0  0  0  0  0  0  0  0  0  0  0  0
    0.6974    3.8450    1.6614 H   0  0  0  0  0  0  0  0  0  0  0  0
  5  6  2  0  0  0  0
  5  7  1  0  0  0  0
  2  3  1  0  0  0  0
  2  4  1  0  0  0  0
  2  5  1  0  0  0  0
  1  2  1  0  0  0  0
 24 25  2  0  0  0  0
 24 26  1  0  0  0  0
 20 21  1  0  0  0  0
 20 22  1  0  0  0  0
 20 23  1  0  0  0  0
 17 18  1  0  0  0  0
 17 19  1  0  0  0  0
 17 20  1  0  0  0  0
 13 14  1  0  0  0  0
 13 15  1  0  0  0  0
 13 16  1  0  0  0  0
 11 12  1  0  0  0  0
 11 13  1  0  0  0  0
 11 17  1  0  0  0  0
  9 10  1  0  0  0  0
  9 11  1  0  0  0  0
  9 24  1  0  0  0  0
  7  8  1  0  0  0  0
  7  9  1  0  0  0  0
 28 29  1  0  0  0  0
 28 30  1  0  0  0  0
 28 31  1  0  0  0  0
 26 27  1  0  0  0  0
 26 28  1  0  0  0  0
M  END
$$$$
default_name
  -OEChem-02102213163D

 31 30  0     1  0  0  0  0  0999 V2000
   -3.0760   -3.6390    1.5496 H   0  0  0  0  0  0  0  0  0  0  0  0
   -3.0940   -2.6290    1.1426 C   0  0  0  0  0  0  0  0  0  0  0  0
   -3.7160   -1.9930    1.7706 H   0  0  0  0  0  0  0  0  0  0  0  0
   -3.4880   -2.6500    0.1286 H   0  0  0  0  0  0  0  0  0  0  0  0
   -1.6860   -2.0850    1.1196 C   0  0  0  0  0  0  0  0  0  0  0  0
   -0.7540   -2.7700    1.5226 O   0  0  0  0  0  0  0  0  0  0  0  0
   -1.5320   -0.8490    0.6496 N   0  0  0  0  0  0  0  0  0  0  0  0
   -2.3500   -0.3360    0.3566 H   0  0  0  0  0  0  0  0  0  0  0  0
   -0.2470   -0.1410    0.5576 C   0  0  1  0  0  0  0  0  0  0  0  0
    0.4572   -0.6505    1.2162 H   0  0  0  0  0  0  0  0  0  0  0  0
    0.3091   -0.2220   -0.8868 C   0  0  1  0  0  0  0  0  0  0  0  0
    1.3811   -0.4134   -0.8085 H   0  0  0  0  0  0  0  0  0  0  0  0
   -0.3154   -1.3762   -1.6940 C   0  0  0  0  0  0  0  0  0  0  0  0
   -1.3777   -1.1937   -1.8659 H   0  0  0  0  0  0  0  0  0  0  0  0
    0.1873   -1.4817   -2.6540 H   0  0  0  0  0  0  0  0  0  0  0  0
   -0.2030   -2.3171   -1.1542 H   0  0  0  0  0  0  0  0  0  0  0  0
    0.1348    1.1247   -1.6241 C   0  0  0  0  0  0  0  0  0  0  0  0
   -0.5136    0.9930   -2.4913 H   0  0  0  0  0  0  0  0  0  0  0  0
   -0.3391    1.8360   -0.9477 H   0  0  0  0  0  0  0  0  0  0  0  0
    1.4569    1.7485   -2.0913 C   0  0  0  0  0  0  0  0  0  0  0  0
    1.9246    1.1263   -2.8541 H   0  0  0  0  0  0  0  0  0  0  0  0
    1.2591    2.7316   -2.5191 H   0  0  0  0  0  0  0  0  0  0  0  0
    2.1360    1.8604   -1.2454 H   0  0  0  0  0  0  0  0  0  0  0  0
   -0.3971    1.3008    1.0689 C   0  0  0  0  0  0  0  0  0  0  0  0
   -1.3643    1.9819    0.7311 O   0  0  0  0  0  0  0  0  0  0  0  0
    0.5522    1.7647    1.8915 N   0  0  0  0  0  0  0  0  0  0  0  0
    1.3093    1.1450    2.1332 H   0  0  0  0  0  0  0  0  0  0  0  0
    0.5577    3.1119    2.4582 C   0  0  0  0  0  0  0  0  0  0  0  0
   -0.3986    3.3098    2.9475 H   0  0  0  0  0  0  0  0  0  0  0  0
    1.3619    3.2123    3.1886 H   0  0  0  0  0  0  0  0  0  0  0  0
    0.6974    3.8450    1.6614 H   0  0  0  0  0  0  0  0  0  0  0  0
  5  6  2  0  0  0  0
  5  7  1  0  0  0  0
  2  3  1  0  0  0  0
  2  4  1  0  0  0  0
  2  5  1  0  0  0  0
  1  2  1  0  0  0  0
 24 25  2  0  0  0  0
 24 26  1  0  0  0  0
 20 21  1  0  0  0  0
 20 22  1  0  0  0  0
 20 23  1  0  0  0  0
 17 18  1  0  0  0  0
 17 19  1  0  0  0  0
 17 20  1  0  0  0  0
 13 14  1  0  0  0  0
 13 15  1  0  0  0  0
 13 16  1  0  0  0  0
 11 12  1  0  0  0  0
 11 13  1  0  0  0  0
 11 17  1  0  0  0  0
  9 10  1  0  0  0  0
  9 11  1  0  0  0  0
  9 24  1  0  0  0  0
  7  8  1  0  0  0  0
  7  9  1  0  0  0  0
 28 29  1  0  0  0  0
 28 30  1  0  0  0  0
 28 31  1  0  0  0  0
 26 27  1  0  0  0  0
 26 28  1  0  0  0  0
M  END
$$$$
default_name
  -OEChem-02102213163D

 31 30  0     1  0  0  0  0  0999 V2000
   -3.0760   -3.6390    1.5496 H   0  0  0  0  0  0  0  0  0  0  0  0
   -3.0940   -2.6290    1.1426 C   0  0  0  0  0  0  0  0  0  0  0  0
   -3.7160   -1.9930    1.7706 H   0  0  0  0  0  0  0  0  0  0  0  0
   -3.4880   -2.6500    0.1286 H   0  0  0  0  0  0  0  0  0  0  0  0
   -1.6860   -2.0850    1.1196 C   0  0  0  0  0  0  0  0  0  0  0  0
   -0.7540   -2.7700    1.5226 O   0  0  0  0  0  0  0  0  0  0  0  0
   -1.5320   -0.8490    0.6496 N   0  0  0  0  0  0  0  0  0  0  0  0
   -2.3500   -0.3360    0.3566 H   0  0  0  0  0  0  0  0  0  0  0  0
   -0.2470   -0.1410    0.5576 C   0  0  1  0  0  0  0  0  0  0  0  0
    0.4572   -0.6505    1.2162 H   0  0  0  0  0  0  0  0  0  0  0  0
    0.3091   -0.2220   -0.8868 C   0  0  1  0  0  0  0  0  0  0  0  0
    1.3811   -0.4134   -0.8085 H   0  0  0  0  0  0  0  0  0  0  0  0
   -0.3154   -1.3762   -1.6940 C   0  0  0  0  0  0  0  0  0  0  0  0
   -1.3777   -1.1937   -1.8659 H   0  0  0  0  0  0  0  0  0  0  0  0
    0.1873   -1.4817   -2.6540 H   0  0  0  0  0  0  0  0  0  0  0  0
   -0.2030   -2.3171   -1.1542 H   0  0  0  0  0  0  0  0  0  0  0  0
    0.1348    1.1247   -1.6241 C   0  0  0  0  0  0  0  0  0  0  0  0
   -0.7049    1.0633   -2.3177 H   0  0  0  0  0  0  0  0  0  0  0  0
   -0.0839    1.9004   -0.8903 H   0  0  0  0  0  0  0  0  0  0  0  0
    1.3811    1.5687   -2.4018 C   0  0  0  0  0  0  0  0  0  0  0  0
    1.5849    0.8808   -3.2222 H   0  0  0  0  0  0  0  0  0  0  0  0
    1.2108    2.5624   -2.8168 H   0  0  0  0  0  0  0  0  0  0  0  0
    2.2432    1.6062   -1.7350 H   0  0  0  0  0  0  0  0  0  0  0  0
   -0.3971    1.3008    1.0689 C   0  0  0  0  0  0  0  0  0  0  0  0
   -1.3643    1.9819    0.7311 O   0  0  0  0  0  0  0  0  0  0  0  0
    0.5522    1.7647    1.8915 N   0  0  0  0  0  0  0  0  0  0  0  0
    1.3093    1.1450    2.1332 H   0  0  0  0  0  0  0  0  0  0  0  0
    0.5577    3.1119    2.4582 C   0  0  0  0  0  0  0  0  0  0  0  0
   -0.3986    3.3098    2.9475 H   0  0  0  0  0  0  0  0  0  0  0  0
    1.3619    3.2123    3.1886 H   0  0  0  0  0  0  0  0  0  0  0  0
    0.6974    3.8450    1.6614 H   0  0  0  0  0  0  0  0  0  0  0  0
  5  6  2  0  0  0  0
  5  7  1  0  0  0  0
  2  3  1  0  0  0  0
  2  4  1  0  0  0  0
  2  5  1  0  0  0  0
  1  2  1  0  0  0  0
 24 25  2  0  0  0  0
 24 26  1  0  0  0  0
 20 21  1  0  0  0  0
 20 22  1  0  0  0  0
 20 23  1  0  0  0  0
 17 18  1  0  0  0  0
 17 19  1  0  0  0  0
 17 20  1  0  0  0  0
 13 14  1  0  0  0  0
 13 15  1  0  0  0  0
 13 16  1  0  0  0  0
 11 12  1  0  0  0  0
 11 13  1  0  0  0  0
 11 17  1  0  0  0  0
  9 10  1  0  0  0  0
  9 11  1  0  0  0  0
  9 24  1  0  0  0  0
  7  8  1  0  0  0  0
  7  9  1  0  0  0  0
 28 29  1  0  0  0  0
 28 30  1  0  0  0  0
 28 31  1  0  0  0  0
 26 27  1  0  0  0  0
 26 28  1  0  0  0  0
M  END
$$$$
default_name
  -OEChem-02102213163D

 31 30  0     1  0  0  0  0  0999 V2000
   -3.0760   -3.6390    1.5496 H   0  0  0  0  0  0  0  0  0  0  0  0
   -3.0940   -2.6290    1.1426 C   0  0  0  0  0  0  0  0  0  0  0  0
   -3.7160   -1.9930    1.7706 H   0  0  0  0  0  0  0  0  0  0  0  0
   -3.4880   -2.6500    0.1286 H   0  0  0  0  0  0  0  0  0  0  0  0
   -1.6860   -2.0850    1.1196 C   0  0  0  0  0  0  0  0  0  0  0  0
   -0.7540   -2.7700    1.5226 O   0  0  0  0  0  0  0  0  0  0  0  0
   -1.5320   -0.8490    0.6496 N   0  0  0  0  0  0  0  0  0  0  0  0
   -2.3500   -0.3360    0.3566 H   0  0  0  0  0  0  0  0  0  0  0  0
   -0.2470   -0.1410    0.5576 C   0  0  1  0  0  0  0  0  0  0  0  0
    0.4572   -0.6505    1.2162 H   0  0  0  0  0  0  0  0  0  0  0  0
    0.3091   -0.2220   -0.8868 C   0  0  1  0  0  0  0  0  0  0  0  0
    1.3811   -0.4134   -0.8085 H   0  0  0  0  0  0  0  0  0  0  0  0
   -0.3154   -1.3762   -1.6940 C   0  0  0  0  0  0  0  0  0  0  0  0
   -1.3777   -1.1937   -1.8659 H   0  0  0  0  0  0  0  0  0  0  0  0
    0.1873   -1.4817   -2.6540 H   0  0  0  0  0  0  0  0  0  0  0  0
   -0.2030   -2.3171   -1.1542 H   0  0  0  0  0  0  0  0  0  0  0  0
    0.1348    1.1247   -1.6241 C   0  0  0  0  0  0  0  0  0  0  0  0
   -0.8417    1.1598   -2.1090 H   0  0  0  0  0  0  0  0  0  0  0  0
    0.1835    1.9329   -0.8943 H   0  0  0  0  0  0  0  0  0  0  0  0
    1.2156    1.3952   -2.6795 C   0  0  0  0  0  0  0  0  0  0  0  0
    1.1433    0.6748   -3.4940 H   0  0  0  0  0  0  0  0  0  0  0  0
    1.0761    2.3962   -3.0885 H   0  0  0  0  0  0  0  0  0  0  0  0
    2.2049    1.3331   -2.2247 H   0  0  0  0  0  0  0  0  0  0  0  0
   -0.3971    1.3008    1.0689 C   0  0  0  0  0  0  0  0  0  0  0  0
   -1.3643    1.9819    0.7311 O   0  0  0  0  0  0  0  0  0  0  0  0
    0.5522    1.7647    1.8915 N   0  0  0  0  0  0  0  0  0  0  0  0
    1.3093    1.1450    2.1332 H   0  0  0  0  0  0  0  0  0  0  0  0
    0.5577    3.1119    2.4582 C   0  0  0  0  0  0  0  0  0  0  0  0
   -0.3986    3.3098    2.9475 H   0  0  0  0  0  0  0  0  0  0  0  0
    1.3619    3.2123    3.1886 H   0  0  0  0  0  0  0  0  0  0  0  0
    0.6974    3.8450    1.6614 H   0  0  0  0  0  0  0  0  0  0  0  0
  5  6  2  0  0  0  0
  5  7  1  0  0  0  0
  2  3  1  0  0  0  0
  2  4  1  0  0  0  0
  2  5  1  0  0  0  0
  1  2  1  0  0  0  0
 24 25  2  0  0  0  0
 24 26  1  0  0  0  0
 20 21  1  0  0  0  0
 20 22  1  0  0  0  0
 20 23  1  0  0  0  0
 17 18  1  0  0  0  0
 17 19  1  0  0  0  0
 17 20  1  0  0  0  0
 13 14  1  0  0  0  0
 13 15  1  0  0  0  0
 13 16  1  0  0  0  0
 11 12  1  0  0  0  0
 11 13  1  0  0  0  0
 11 17  1  0  0  0  0
  9 10  1  0  0  0  0
  9 11  1  0  0  0  0
  9 24  1  0  0  0  0
  7  8  1  0  0  0  0
  7  9  1  0  0  0  0
 28 29  1  0  0  0  0
 28 30  1  0  0  0  0
 28 31  1  0  0  0  0
 26 27  1  0  0  0  0
 26 28  1  0  0  0  0
M  END
$$$$
default_name
  -OEChem-02102213163D

 31 30  0     1  0  0  0  0  0999 V2000
   -3.0760   -3.6390    1.5496 H   0  0  0  0  0  0  0  0  0  0  0  0
   -3.0940   -2.6290    1.1426 C   0  0  0  0  0  0  0  0  0  0  0  0
   -3.7160   -1.9930    1.7706 H   0  0  0  0  0  0  0  0  0  0  0  0
   -3.4880   -2.6500    0.1286 H   0  0  0  0  0  0  0  0  0  0  0  0
   -1.6860   -2.0850    1.1196 C   0  0  0  0  0  0  0  0  0  0  0  0
   -0.7540   -2.7700    1.5226 O   0  0  0  0  0  0  0  0  0  0  0  0
   -1.5320   -0.8490    0.6496 N   0  0  0  0  0  0  0  0  0  0  0  0
   -2.3500   -0.3360    0.3566 H   0  0  0  0  0  0  0  0  0  0  0  0
   -0.2470   -0.1410    0.5576 C   0  0  1  0  0  0  0  0  0  0  0  0
    0.4572   -0.6505    1.2162 H   0  0  0  0  0  0  0  0  0  0  0  0
    0.3091   -0.2220   -0.8868 C   0  0  1  0  0  0  0  0  0  0  0  0
    1.3811   -0.4134   -0.8085 H   0  0  0  0  0  0  0  0  0  0  0  0
   -0.3154   -1.3762   -1.6940 C   0  0  0  0  0  0  0  0  0  0  0  0
   -1.3777   -1.1937   -1.8659 H   0  0  0  0  0  0  0  0  0  0  0  0
    0.1873   -1.4817   -2.6540 H   0  0  0  0  0  0  0  0  0  0  0  0
   -0.2030   -2.3171   -1.1542 H   0  0  0  0  0  0  0  0  0  0  0  0
    0.1348    1.1247   -1.6241 C   0  0  0  0  0  0  0  0  0  0  0  0
   -0.9149    1.2761   -1.8792 H   0  0  0  0  0  0  0  0  0  0  0  0
    0.4449    1.9310   -0.9595 H   0  0  0  0  0  0  0  0  0  0  0  0
    0.9718    1.2401   -2.9053 C   0  0  0  0  0  0  0  0  0  0  0  0
    0.6301    0.5225   -3.6510 H   0  0  0  0  0  0  0  0  0  0  0  0
    0.8642    2.2443   -3.3158 H   0  0  0  0  0  0  0  0  0  0  0  0
    2.0237    1.0598   -2.6811 H   0  0  0  0  0  0  0  0  0  0  0  0
   -0.3971    1.3008    1.0689 C   0  0  0  0  0  0  0  0  0  0  0  0
   -1.3643    1.9819    0.7311 O   0  0  0  0  0  0  0  0  0  0  0  0
    0.5522    1.7647    1.8915 N   0  0  0  0  0  0  0  0  0  0  0  0
    1.3093    1.1450    2.1332 H   0  0  0  0  0  0  0  0  0  0  0  0
    0.5577    3.1119    2.4582 C   0  0  0  0  0  0  0  0  0  0  0  0
   -0.3986    3.3098    2.9475 H   0  0  0  0  0  0  0  0  0  0  0  0
    1.3619    3.2123    3.1886 H   0  0  0  0  0  0  0  0  0  0  0  0
    0.6974    3.8450    1.6614 H   0  0  0  0  0  0  0  0  0  0  0  0
  5  6  2  0  0  0  0
  5  7  1  0  0  0  0
  2  3  1  0  0  0  0
  2  4  1  0  0  0  0
  2  5  1  0  0  0  0
  1  2  1  0  0  0  0
 24 25  2  0  0  0  0
 24 26  1  0  0  0  0
 20 21  1  0  0  0  0
 20 22  1  0  0  0  0
 20 23  1  0  0  0  0
 17 18  1  0  0  0  0
 17 19  1  0  0  0  0
 17 20  1  0  0  0  0
 13 14  1  0  0  0  0
 13 15  1  0  0  0  0
 13 16  1  0  0  0  0
 11 12  1  0  0  0  0
 11 13  1  0  0  0  0
 11 17  1  0  0  0  0
  9 10  1  0  0  0  0
  9 11  1  0  0  0  0
  9 24  1  0  0  0  0
  7  8  1  0  0  0  0
  7  9  1  0  0  0  0
 28 29  1  0  0  0  0
 28 30  1  0  0  0  0
 28 31  1  0  0  0  0
 26 27  1  0  0  0  0
 26 28  1  0  0  0  0
M  END
$$$$
default_name
  -OEChem-02102213163D

 31 30  0     1  0  0  0  0  0999 V2000
   -3.0760   -3.6390    1.5496 H   0  0  0  0  0  0  0  0  0  0  0  0
   -3.0940   -2.6290    1.1426 C   0  0  0  0  0  0  0  0  0  0  0  0
   -3.7160   -1.9930    1.7706 H   0  0  0  0  0  0  0  0  0  0  0  0
   -3.4880   -2.6500    0.1286 H   0  0  0  0  0  0  0  0  0  0  0  0
   -1.6860   -2.0850    1.1196 C   0  0  0  0  0  0  0  0  0  0  0  0
   -0.7540   -2.7700    1.5226 O   0  0  0  0  0  0  0  0  0  0  0  0
   -1.5320   -0.8490    0.6496 N   0  0  0  0  0  0  0  0  0  0  0  0
   -2.3500   -0.3360    0.3566 H   0  0  0  0  0  0  0  0  0  0  0  0
   -0.2470   -0.1410    0.5576 C   0  0  1  0  0  0  0  0  0  0  0  0
    0.4572   -0.6505    1.2162 H   0  0  0  0  0  0  0  0  0  0  0  0
    0.3091   -0.2220   -0.8868 C   0  0  1  0  0  0  0  0  0  0  0  0
    1.3012   -0.6733   -0.8246 H   0  0  0  0  0  0  0  0  0  0  0  0
   -0.5544   -1.1123   -1.8008 C   0  0  0  0  0  0  0  0  0  0  0  0
   -1.5369   -0.6634   -1.9569 H   0  0  0  0  0  0  0  0  0  0  0  0
   -0.0681   -1.2483   -2.7655 H   0  0  0  0  0  0  0  0  0  0  0  0
   -0.6851   -2.0977   -1.3521 H   0  0  0  0  0  0  0  0  0  0  0  0
    0.4823    1.1884   -1.4938 C   0  0  0  0  0  0  0  0  0  0  0  0
   -0.4729    1.7151   -1.4897 H   0  0  0  0  0  0  0  0  0  0  0  0
    1.1855    1.7506   -0.8795 H   0  0  0  0  0  0  0  0  0  0  0  0
    1.0311    1.1805   -2.9270 C   0  0  0  0  0  0  0  0  0  0  0  0
    0.3145    0.7222   -3.6083 H   0  0  0  0  0  0  0  0  0  0  0  0
    1.2085    2.2067   -3.2496 H   0  0  0  0  0  0  0  0  0  0  0  0
    1.9718    0.6301   -2.9633 H   0  0  0  0  0  0  0  0  0  0  0  0
   -0.3971    1.3008    1.0689 C   0  0  0  0  0  0  0  0  0  0  0  0
   -1.3643    1.9819    0.7311 O   0  0  0  0  0  0  0  0  0  0  0  0
    0.5522    1.7647    1.8915 N   0  0  0  0  0  0  0  0  0  0  0  0
    1.3093    1.1450    2.1332 H   0  0  0  0  0  0  0  0  0  0  0  0
    0.5577    3.1119    2.4582 C   0  0  0  0  0  0  0  0  0  0  0  0
   -0.3986    3.3098    2.9475 H   0  0  0  0  0  0  0  0  0  0  0  0
    1.3619    3.2123    3.1886 H   0  0  0  0  0  0  0  0  0  0  0  0
    0.6974    3.8450    1.6614 H   0  0  0  0  0  0  0  0  0  0  0  0
  5  6  2  0  0  0  0
  5  7  1  0  0  0  0
  2  3  1  0  0  0  0
  2  4  1  0  0  0  0
  2  5  1  0  0  0  0
  1  2  1  0  0  0  0
 24 25  2  0  0  0  0
 24 26  1  0  0  0  0
 20 21  1  0  0  0  0
 20 22  1  0  0  0  0
 20 23  1  0  0  0  0
 17 18  1  0  0  0  0
 17 19  1  0  0  0  0
 17 20  1  0  0  0  0
 13 14  1  0  0  0  0
 13 15  1  0  0  0  0
 13 16  1  0  0  0  0
 11 12  1  0  0  0  0
 11 13  1  0  0  0  0
 11 17  1  0  0  0  0
  9 10  1  0  0  0  0
  9 11  1  0  0  0  0
  9 24  1  0  0  0  0
  7  8  1  0  0  0  0
  7  9  1  0  0  0  0
 28 29  1  0  0  0  0
 28 30  1  0  0  0  0
 28 31  1  0  0  0  0
 26 27  1  0  0  0  0
 26 28  1  0  0  0  0
M  END
$$$$
default_name
  -OEChem-02102213163D

 31 30  0     1  0  0  0  0  0999 V2000
   -3.0760   -3.6390    1.5496 H   0  0  0  0  0  0  0  0  0  0  0  0
   -3.0940   -2.6290    1.1426 C   0  0  0  0  0  0  0  0  0  0  0  0
   -3.7160   -1.9930    1.7706 H   0  0  0  0  0  0  0  0  0  0  0  0
   -3.4880   -2.6500    0.1286 H   0  0  0  0  0  0  0  0  0  0  0  0
   -1.6860   -2.0850    1.1196 C   0  0  0  0  0  0  0  0  0  0  0  0
   -0.7540   -2.7700    1.5226 O   0  0  0  0  0  0  0  0  0  0  0  0
   -1.5320   -0.8490    0.6496 N   0  0  0  0  0  0  0  0  0  0  0  0
   -2.3500   -0.3360    0.3566 H   0  0  0  0  0  0  0  0  0  0  0  0
   -0.2470   -0.1410    0.5576 C   0  0  1  0  0  0  0  0  0  0  0  0
    0.4572   -0.6505    1.2162 H   0  0  0  0  0  0  0  0  0  0  0  0
    0.3091   -0.2220   -0.8868 C   0  0  1  0  0  0  0  0  0  0  0  0
    1.3012   -0.6733   -0.8246 H   0  0  0  0  0  0  0  0  0  0  0  0
   -0.5544   -1.1123   -1.8008 C   0  0  0  0  0  0  0  0  0  0  0  0
   -1.5369   -0.6634   -1.9569 H   0  0  0  0  0  0  0  0  0  0  0  0
   -0.0681   -1.2483   -2.7655 H   0  0  0  0  0  0  0  0  0  0  0  0
   -0.6851   -2.0977   -1.3521 H   0  0  0  0  0  0  0  0  0  0  0  0
    0.4823    1.1884   -1.4938 C   0  0  0  0  0  0  0  0  0  0  0  0
   -0.3844    1.8058   -1.2539 H   0  0  0  0  0  0  0  0  0  0  0  0
    1.3652    1.6530   -1.0550 H   0  0  0  0  0  0  0  0  0  0  0  0
    0.6754    1.1858   -3.0163 C   0  0  0  0  0  0  0  0  0  0  0  0
   -0.2253    0.8284   -3.5153 H   0  0  0  0  0  0  0  0  0  0  0  0
    0.8790    2.2020   -3.3546 H   0  0  0  0  0  0  0  0  0  0  0  0
    1.5181    0.5476   -3.2844 H   0  0  0  0  0  0  0  0  0  0  0  0
   -0.3971    1.3008    1.0689 C   0  0  0  0  0  0  0  0  0  0  0  0
   -1.3643    1.9819    0.7311 O   0  0  0  0  0  0  0  0  0  0  0  0
    0.5522    1.7647    1.8915 N   0  0  0  0  0  0  0  0  0  0  0  0
    1.3093    1.1450    2.1332 H   0  0  0  0  0  0  0  0  0  0  0  0
    0.5577    3.1119    2.4582 C   0  0  0  0  0  0  0  0  0  0  0  0
   -0.3986    3.3098    2.9475 H   0  0  0  0  0  0  0  0  0  0  0  0
    1.3619    3.2123    3.1886 H   0  0  0  0  0  0  0  0  0  0  0  0
    0.6974    3.8450    1.6614 H   0  0  0  0  0  0  0  0  0  0  0  0
  5  6  2  0  0  0  0
  5  7  1  0  0  0  0
  2  3  1  0  0  0  0
  2  4  1  0  0  0  0
  2  5  1  0  0  0  0
  1  2  1  0  0  0  0
 24 25  2  0  0  0  0
 24 26  1  0  0  0  0
 20 21  1  0  0  0  0
 20 22  1  0  0  0  0
 20 23  1  0  0  0  0
 17 18  1  0  0  0  0
 17 19  1  0  0  0  0
 17 20  1  0  0  0  0
 13 14  1  0  0  0  0
 13 15  1  0  0  0  0
 13 16  1  0  0  0  0
 11 12  1  0  0  0  0
 11 13  1  0  0  0  0
 11 17  1  0  0  0  0
  9 10  1  0  0  0  0
  9 11  1  0  0  0  0
  9 24  1  0  0  0  0
  7  8  1  0  0  0  0
  7  9  1  0  0  0  0
 28 29  1  0  0  0  0
 28 30  1  0  0  0  0
 28 31  1  0  0  0  0
 26 27  1  0  0  0  0
 26 28  1  0  0  0  0
M  END
$$$$
default_name
  -OEChem-02102213163D

 31 30  0     1  0  0  0  0  0999 V2000
   -3.0760   -3.6390    1.5496 H   0  0  0  0  0  0  0  0  0  0  0  0
   -3.0940   -2.6290    1.1426 C   0  0  0  0  0  0  0  0  0  0  0  0
   -3.7160   -1.9930    1.7706 H   0  0  0  0  0  0  0  0  0  0  0  0
   -3.4880   -2.6500    0.1286 H   0  0  0  0  0  0  0  0  0  0  0  0
   -1.6860   -2.0850    1.1196 C   0  0  0  0  0  0  0  0  0  0  0  0
   -0.7540   -2.7700    1.5226 O   0  0  0  0  0  0  0  0  0  0  0  0
   -1.5320   -0.8490    0.6496 N   0  0  0  0  0  0  0  0  0  0  0  0
   -2.3500   -0.3360    0.3566 H   0  0  0  0  0  0  0  0  0  0  0  0
   -0.2470   -0.1410    0.5576 C   0  0  1  0  0  0  0  0  0  0  0  0
    0.4572   -0.6505    1.2162 H   0  0  0  0  0  0  0  0  0  0  0  0
    0.3091   -0.2220   -0.8868 C   0  0  1  0  0  0  0  0  0  0  0  0
    1.3012   -0.6733   -0.8246 H   0  0  0  0  0  0  0  0  0  0  0  0
   -0.5544   -1.1123   -1.8008 C   0  0  0  0  0  0  0  0  0  0  0  0
   -1.5369   -0.6634   -1.9569 H   0  0  0  0  0  0  0  0  0  0  0  0
   -0.0681   -1.2483   -2.7655 H   0  0  0  0  0  0  0  0  0  0  0  0
   -0.6851   -2.0977   -1.3521 H   0  0  0  0  0  0  0  0  0  0  0  0
    0.4823    1.1884   -1.4938 C   0  0  0  0  0  0  0  0  0  0  0  0
   -0.2340    1.8775   -1.0444 H   0  0  0  0  0  0  0  0  0  0  0  0
    1.4874    1.5456   -1.2697 H   0  0  0  0  0  0  0  0  0  0  0  0
    0.3112    1.2296   -3.0184 C   0  0  0  0  0  0  0  0  0  0  0  0
   -0.7138    0.9833   -3.2949 H   0  0  0  0  0  0  0  0  0  0  0  0
    0.5355    2.2340   -3.3783 H   0  0  0  0  0  0  0  0  0  0  0  0
    0.9955    0.5234   -3.4898 H   0  0  0  0  0  0  0  0  0  0  0  0
   -0.3971    1.3008    1.0689 C   0  0  0  0  0  0  0  0  0  0  0  0
   -1.3643    1.9819    0.7311 O   0  0  0  0  0  0  0  0  0  0  0  0
    0.5522    1.7647    1.8915 N   0  0  0  0  0  0  0  0  0  0  0  0
    1.3093    1.1450    2.1332 H   0  0  0  0  0  0  0  0  0  0  0  0
    0.5577    3.1119    2.4582 C   0  0  0  0  0  0  0  0  0  0  0  0
   -0.3986    3.3098    2.9475 H   0  0  0  0  0  0  0  0  0  0  0  0
    1.3619    3.2123    3.1886 H   0  0  0  0  0  0  0  0  0  0  0  0
    0.6974    3.8450    1.6614 H   0  0  0  0  0  0  0  0  0  0  0  0
  5  6  2  0  0  0  0
  5  7  1  0  0  0  0
  2  3  1  0  0  0  0
  2  4  1  0  0  0  0
  2  5  1  0  0  0  0
  1  2  1  0  0  0  0
 24 25  2  0  0  0  0
 24 26  1  0  0  0  0
 20 21  1  0  0  0  0
 20 22  1  0  0  0  0
 20 23  1  0  0  0  0
 17 18  1  0  0  0  0
 17 19  1  0  0  0  0
 17 20  1  0  0  0  0
 13 14  1  0  0  0  0
 13 15  1  0  0  0  0
 13 16  1  0  0  0  0
 11 12  1  0  0  0  0
 11 13  1  0  0  0  0
 11 17  1  0  0  0  0
  9 10  1  0  0  0  0
  9 11  1  0  0  0  0
  9 24  1  0  0  0  0
  7  8  1  0  0  0  0
  7  9  1  0  0  0  0
 28 29  1  0  0  0  0
 28 30  1  0  0  0  0
 28 31  1  0  0  0  0
 26 27  1  0  0  0  0
 26 28  1  0  0  0  0
M  END
$$$$
default_name
  -OEChem-02102213163D

 31 30  0     1  0  0  0  0  0999 V2000
   -3.0760   -3.6390    1.5496 H   0  0  0  0  0  0  0  0  0  0  0  0
   -3.0940   -2.6290    1.1426 C   0  0  0  0  0  0  0  0  0  0  0  0
   -3.7160   -1.9930    1.7706 H   0  0  0  0  0  0  0  0  0  0  0  0
   -3.4880   -2.6500    0.1286 H   0  0  0  0  0  0  0  0  0  0  0  0
   -1.6860   -2.0850    1.1196 C   0  0  0  0  0  0  0  0  0  0  0  0
   -0.7540   -2.7700    1.5226 O   0  0  0  0  0  0  0  0  0  0  0  0
   -1.5320   -0.8490    0.6496 N   0  0  0  0  0  0  0  0  0  0  0  0
   -2.3500   -0.3360    0.3566 H   0  0  0  0  0  0  0  0  0  0  0  0
   -0.2470   -0.1410    0.5576 C   0  0  1  0  0  0  0  0  0  0  0  0
    0.4572   -0.6505    1.2162 H   0  0  0  0  0  0  0  0  0  0  0  0
    0.3091   -0.2220   -0.8868 C   0  0  1  0  0  0  0  0  0  0  0  0
    1.3012   -0.6733   -0.8246 H   0  0  0  0  0  0  0  0  0  0  0  0
   -0.5544   -1.1123   -1.8008 C   0  0  0  0  0  0  0  0  0  0  0  0
   -1.5369   -0.6634   -1.9569 H   0  0  0  0  0  0  0  0  0  0  0  0
   -0.0681   -1.2483   -2.7655 H   0  0  0  0  0  0  0  0  0  0  0  0
   -0.6851   -2.0977   -1.3521 H   0  0  0  0  0  0  0  0  0  0  0  0
    0.4823    1.1884   -1.4938 C   0  0  0  0  0  0  0  0  0  0  0  0
   -0.0319    1.9254   -0.8755 H   0  0  0  0  0  0  0  0  0  0  0  0
    1.5437    1.4356   -1.5092 H   0  0  0  0  0  0  0  0  0  0  0  0
   -0.0366    1.3090   -2.9331 C   0  0  0  0  0  0  0  0  0  0  0  0
   -1.1179    1.1761   -2.9621 H   0  0  0  0  0  0  0  0  0  0  0  0
    0.2013    2.3005   -3.3191 H   0  0  0  0  0  0  0  0  0  0  0  0
    0.4398    0.5590   -3.5655 H   0  0  0  0  0  0  0  0  0  0  0  0
   -0.3971    1.3008    1.0689 C   0  0  0  0  0  0  0  0  0  0  0  0
   -1.3643    1.9819    0.7311 O   0  0  0  0  0  0  0  0  0  0  0  0
    0.5522    1.7647    1.8915 N   0  0  0  0  0  0  0  0  0  0  0  0
    1.3093    1.1450    2.1332 H   0  0  0  0  0  0  0  0  0  0  0  0
    0.5577    3.1119    2.4582 C   0  0  0  0  0  0  0  0  0  0  0  0
   -0.3986    3.3098    2.9475 H   0  0  0  0  0  0  0  0  0  0  0  0
    1.3619    3.2123    3.1886 H   0  0  0  0  0  0  0  0  0  0  0  0
    0.6974    3.8450    1.6614 H   0  0  0  0  0  0  0  0  0  0  0  0
  5  6  2  0  0  0  0
  5  7  1  0  0  0  0
  2  3  1  0  0  0  0
  2  4  1  0  0  0  0
  2  5  1  0  0  0  0
  1  2  1  0  0  0  0
 24 25  2  0  0  0  0
 24 26  1  0  0  0  0
 20 21  1  0  0  0  0
 20 22  1  0  0  0  0
 20 23  1  0  0  0  0
 17 18  1  0  0  0  0
 17 19  1  0  0  0  0
 17 20  1  0  0  0  0
 13 14  1  0  0  0  0
 13 15  1  0  0  0  0
 13 16  1  0  0  0  0
 11 12  1  0  0  0  0
 11 13  1  0  0  0  0
 11 17  1  0  0  0  0
  9 10  1  0  0  0  0
  9 11  1  0  0  0  0
  9 24  1  0  0  0  0
  7  8  1  0  0  0  0
  7  9  1  0  0  0  0
 28 29  1  0  0  0  0
 28 30  1  0  0  0  0
 28 31  1  0  0  0  0
 26 27  1  0  0  0  0
 26 28  1  0  0  0  0
M  END
$$$$
default_name
  -OEChem-02102213163D

 31 30  0     1  0  0  0  0  0999 V2000
   -3.0760   -3.6390    1.5496 H   0  0  0  0  0  0  0  0  0  0  0  0
   -3.0940   -2.6290    1.1426 C   0  0  0  0  0  0  0  0  0  0  0  0
   -3.7160   -1.9930    1.7706 H   0  0  0  0  0  0  0  0  0  0  0  0
   -3.4880   -2.6500    0.1286 H   0  0  0  0  0  0  0  0  0  0  0  0
   -1.6860   -2.0850    1.1196 C   0  0  0  0  0  0  0  0  0  0  0  0
   -0.7540   -2.7700    1.5226 O   0  0  0  0  0  0  0  0  0  0  0  0
   -1.5320   -0.8490    0.6496 N   0  0  0  0  0  0  0  0  0  0  0  0
   -2.3500   -0.3360    0.3566 H   0  0  0  0  0  0  0  0  0  0  0  0
   -0.2470   -0.1410    0.5576 C   0  0  1  0  0  0  0  0  0  0  0  0
    0.4572   -0.6505    1.2162 H   0  0  0  0  0  0  0  0  0  0  0  0
    0.3091   -0.2220   -0.8868 C   0  0  1  0  0  0  0  0  0  0  0  0
    1.3012   -0.6733   -0.8246 H   0  0  0  0  0  0  0  0  0  0  0  0
   -0.5544   -1.1123   -1.8008 C   0  0  0  0  0  0  0  0  0  0  0  0
   -1.5369   -0.6634   -1.9569 H   0  0  0  0  0  0  0  0  0  0  0  0
   -0.0681   -1.2483   -2.7655 H   0  0  0  0  0  0  0  0  0  0  0  0
   -0.6851   -2.0977   -1.3521 H   0  0  0  0  0  0  0  0  0  0  0  0
    0.4823    1.1884   -1.4938 C   0  0  0  0  0  0  0  0  0  0  0  0
    0.2080    1.9462   -0.7587 H   0  0  0  0  0  0  0  0  0  0  0  0
    1.5304    1.3306   -1.7569 H   0  0  0  0  0  0  0  0  0  0  0  0
   -0.3443    1.4186   -2.7663 C   0  0  0  0  0  0  0  0  0  0  0  0
   -1.4100    1.3938   -2.5395 H   0  0  0  0  0  0  0  0  0  0  0  0
   -0.1008    2.3970   -3.1810 H   0  0  0  0  0  0  0  0  0  0  0  0
   -0.1112    0.6522   -3.5063 H   0  0  0  0  0  0  0  0  0  0  0  0
   -0.3971    1.3008    1.0689 C   0  0  0  0  0  0  0  0  0  0  0  0
   -1.3643    1.9819    0.7311 O   0  0  0  0  0  0  0  0  0  0  0  0
    0.5522    1.7647    1.8915 N   0  0  0  0  0  0  0  0  0  0  0  0
    1.3093    1.1450    2.1332 H   0  0  0  0  0  0  0  0  0  0  0  0
    0.5577    3.1119    2.4582 C   0  0  0  0  0  0  0  0  0  0  0  0
   -0.3986    3.3098    2.9475 H   0  0  0  0  0  0  0  0  0  0  0  0
    1.3619    3.2123    3.1886 H   0  0  0  0  0  0  0  0  0  0  0  0
    0.6974    3.8450    1.6614 H   0  0  0  0  0  0  0  0  0  0  0  0
  5  6  2  0  0  0  0
  5  7  1  0  0  0  0
  2  3  1  0  0  0  0
  2  4  1  0  0  0  0
  2  5  1  0  0  0  0
  1  2  1  0  0  0  0
 24 25  2  0  0  0  0
 24 26  1  0  0  0  0
 20 21  1  0  0  0  0
 20 22  1  0  0  0  0
 20 23  1  0  0  0  0
 17 18  1  0  0  0  0
 17 19  1  0  0  0  0
 17 20  1  0  0  0  0
 13 14  1  0  0  0  0
 13 15  1  0  0  0  0
 13 16  1  0  0  0  0
 11 12  1  0  0  0  0
 11 13  1  0  0  0  0
 11 17  1  0  0  0  0
  9 10  1  0  0  0  0
  9 11  1  0  0  0  0
  9 24  1  0  0  0  0
  7  8  1  0  0  0  0
  7  9  1  0  0  0  0
 28 29  1  0  0  0  0
 28 30  1  0  0  0  0
 28 31  1  0  0  0  0
 26 27  1  0  0  0  0
 26 28  1  0  0  0  0
M  END
$$$$
default_name
  -OEChem-02102213163D

 31 30  0     1  0  0  0  0  0999 V2000
   -3.0760   -3.6390    1.5496 H   0  0  0  0  0  0  0  0  0  0  0  0
   -3.0940   -2.6290    1.1426 C   0  0  0  0  0  0  0  0  0  0  0  0
   -3.7160   -1.9930    1.7706 H   0  0  0  0  0  0  0  0  0  0  0  0
   -3.4880   -2.6500    0.1286 H   0  0  0  0  0  0  0  0  0  0  0  0
   -1.6860   -2.0850    1.1196 C   0  0  0  0  0  0  0  0  0  0  0  0
   -0.7540   -2.7700    1.5226 O   0  0  0  0  0  0  0  0  0  0  0  0
   -1.5320   -0.8490    0.6496 N   0  0  0  0  0  0  0  0  0  0  0  0
   -2.3500   -0.3360    0.3566 H   0  0  0  0  0  0  0  0  0  0  0  0
   -0.2470   -0.1410    0.5576 C   0  0  1  0  0  0  0  0  0  0  0  0
    0.4572   -0.6505    1.2162 H   0  0  0  0  0  0  0  0  0  0  0  0
    0.3091   -0.2220   -0.8868 C   0  0  1  0  0  0  0  0  0  0  0  0
    1.3012   -0.6733   -0.8246 H   0  0  0  0  0  0  0  0  0  0  0  0
   -0.5544   -1.1123   -1.8008 C   0  0  0  0  0  0  0  0  0  0  0  0
   -1.5369   -0.6634   -1.9569 H   0  0  0  0  0  0  0  0  0  0  0  0
   -0.0681   -1.2483   -2.7655 H   0  0  0  0  0  0  0  0  0  0  0  0
   -0.6851   -2.0977   -1.3521 H   0  0  0  0  0  0  0  0  0  0  0  0
    0.4823    1.1884   -1.4938 C   0  0  0  0  0  0  0  0  0  0  0  0
    0.4695    1.9385   -0.7020 H   0  0  0  0  0  0  0  0  0  0  0  0
    1.4484    1.2378   -1.9961 H   0  0  0  0  0  0  0  0  0  0  0  0
   -0.5910    1.5509   -2.5292 C   0  0  0  0  0  0  0  0  0  0  0  0
   -1.5702    1.6216   -2.0561 H   0  0  0  0  0  0  0  0  0  0  0  0
   -0.3501    2.5169   -2.9735 H   0  0  0  0  0  0  0  0  0  0  0  0
   -0.6200    0.7964   -3.3162 H   0  0  0  0  0  0  0  0  0  0  0  0
   -0.3971    1.3008    1.0689 C   0  0  0  0  0  0  0  0  0  0  0  0
   -1.3643    1.9819    0.7311 O   0  0  0  0  0  0  0  0  0  0  0  0
    0.5522    1.7647    1.8915 N   0  0  0  0  0  0  0  0  0  0  0  0
    1.3093    1.1450    2.1332 H   0  0  0  0  0  0  0  0  0  0  0  0
    0.5577    3.1119    2.4582 C   0  0  0  0  0  0  0  0  0  0  0  0
   -0.3986    3.3098    2.9475 H   0  0  0  0  0  0  0  0  0  0  0  0
    1.3619    3.2123    3.1886 H   0  0  0  0  0  0  0  0  0  0  0  0
    0.6974    3.8450    1.6614 H   0  0  0  0  0  0  0  0  0  0  0  0
  5  6  2  0  0  0  0
  5  7  1  0  0  0  0
  2  3  1  0  0  0  0
  2  4  1  0  0  0  0
  2  5  1  0  0  0  0
  1  2  1  0  0  0  0
 24 25  2  0  0  0  0
 24 26  1  0  0  0  0
 20 21  1  0  0  0  0
 20 22  1  0  0  0  0
 20 23  1  0  0  0  0
 17 18  1  0  0  0  0
 17 19  1  0  0  0  0
 17 20  1  0  0  0  0
 13 14  1  0  0  0  0
 13 15  1  0  0  0  0
 13 16  1  0  0  0  0
 11 12  1  0  0  0  0
 11 13  1  0  0  0  0
 11 17  1  0  0  0  0
  9 10  1  0  0  0  0
  9 11  1  0  0  0  0
  9 24  1  0  0  0  0
  7  8  1  0  0  0  0
  7  9  1  0  0  0  0
 28 29  1  0  0  0  0
 28 30  1  0  0  0  0
 28 31  1  0  0  0  0
 26 27  1  0  0  0  0
 26 28  1  0  0  0  0
M  END
$$$$
default_name
  -OEChem-02102213163D

 31 30  0     1  0  0  0  0  0999 V2000
   -3.0760   -3.6390    1.5496 H   0  0  0  0  0  0  0  0  0  0  0  0
   -3.0940   -2.6290    1.1426 C   0  0  0  0  0  0  0  0  0  0  0  0
   -3.7160   -1.9930    1.7706 H   0  0  0  0  0  0  0  0  0  0  0  0
   -3.4880   -2.6500    0.1286 H   0  0  0  0  0  0  0  0  0  0  0  0
   -1.6860   -2.0850    1.1196 C   0  0  0  0  0  0  0  0  0  0  0  0
   -0.7540   -2.7700    1.5226 O   0  0  0  0  0  0  0  0  0  0  0  0
   -1.5320   -0.8490    0.6496 N   0  0  0  0  0  0  0  0  0  0  0  0
   -2.3500   -0.3360    0.3566 H   0  0  0  0  0  0  0  0  0  0  0  0
   -0.2470   -0.1410    0.5576 C   0  0  1  0  0  0  0  0  0  0  0  0
    0.4572   -0.6505    1.2162 H   0  0  0  0  0  0  0  0  0  0  0  0
    0.3091   -0.2220   -0.8868 C   0  0  1  0  0  0  0  0  0  0  0  0
    1.3012   -0.6733   -0.8246 H   0  0  0  0  0  0  0  0  0  0  0  0
   -0.5544   -1.1123   -1.8008 C   0  0  0  0  0  0  0  0  0  0  0  0
   -1.5369   -0.6634   -1.9569 H   0  0  0  0  0  0  0  0  0  0  0  0
   -0.0681   -1.2483   -2.7655 H   0  0  0  0  0  0  0  0  0  0  0  0
   -0.6851   -2.0977   -1.3521 H   0  0  0  0  0  0  0  0  0  0  0  0
    0.4823    1.1884   -1.4938 C   0  0  0  0  0  0  0  0  0  0  0  0
    0.7347    1.9028   -0.7092 H   0  0  0  0  0  0  0  0  0  0  0  0
    1.3031    1.1633   -2.2105 H   0  0  0  0  0  0  0  0  0  0  0  0
   -0.7598    1.6969   -2.2382 C   0  0  0  0  0  0  0  0  0  0  0  0
   -1.5876    1.8438   -1.5446 H   0  0  0  0  0  0  0  0  0  0  0  0
   -0.5297    2.6521   -2.7107 H   0  0  0  0  0  0  0  0  0  0  0  0
   -1.0519    0.9820   -3.0082 H   0  0  0  0  0  0  0  0  0  0  0  0
   -0.3971    1.3008    1.0689 C   0  0  0  0  0  0  0  0  0  0  0  0
   -1.3643    1.9819    0.7311 O   0  0  0  0  0  0  0  0  0  0  0  0
    0.5522    1.7647    1.8915 N   0  0  0  0  0  0  0  0  0  0  0  0
    1.3093    1.1450    2.1332 H   0  0  0  0  0  0  0  0  0  0  0  0
    0.5577    3.1119    2.4582 C   0  0  0  0  0  0  0  0  0  0  0  0
   -0.3986    3.3098    2.9475 H   0  0  0  0  0  0  0  0  0  0  0  0
    1.3619    3.2123    3.1886 H   0  0  0  0  0  0  0  0  0  0  0  0
    0.6974    3.8450    1.6614 H   0  0  0  0  0  0  0  0  0  0  0  0
  5  6  2  0  0  0  0
  5  7  1  0  0  0  0
  2  3  1  0  0  0  0
  2  4  1  0  0  0  0
  2  5  1  0  0  0  0
  1  2  1  0  0  0  0
 24 25  2  0  0  0  0
 24 26  1  0  0  0  0
 20 21  1  0  0  0  0
 20 22  1  0  0  0  0
 20 23  1  0  0  0  0
 17 18  1  0  0  0  0
 17 19  1  0  0  0  0
 17 20  1  0  0  0  0
 13 14  1  0  0  0  0
 13 15  1  0  0  0  0
 13 16  1  0  0  0  0
 11 12  1  0  0  0  0
 11 13  1  0  0  0  0
 11 17  1  0  0  0  0
  9 10  1  0  0  0  0
  9 11  1  0  0  0  0
  9 24  1  0  0  0  0
  7  8  1  0  0  0  0
  7  9  1  0  0  0  0
 28 29  1  0  0  0  0
 28 30  1  0  0  0  0
 28 31  1  0  0  0  0
 26 27  1  0  0  0  0
 26 28  1  0  0  0  0
M  END
$$$$
default_name
  -OEChem-02102213163D

 31 30  0     1  0  0  0  0  0999 V2000
   -3.0760   -3.6390    1.5496 H   0  0  0  0  0  0  0  0  0  0  0  0
   -3.0940   -2.6290    1.1426 C   0  0  0  0  0  0  0  0  0  0  0  0
   -3.7160   -1.9930    1.7706 H   0  0  0  0  0  0  0  0  0  0  0  0
   -3.4880   -2.6500    0.1286 H   0  0  0  0  0  0  0  0  0  0  0  0
   -1.6860   -2.0850    1.1196 C   0  0  0  0  0  0  0  0  0  0  0  0
   -0.7540   -2.7700    1.5226 O   0  0  0  0  0  0  0  0  0  0  0  0
   -1.5320   -0.8490    0.6496 N   0  0  0  0  0  0  0  0  0  0  0  0
   -2.3500   -0.3360    0.3566 H   0  0  0  0  0  0  0  0  0  0  0  0
   -0.2470   -0.1410    0.5576 C   0  0  1  0  0  0  0  0  0  0  0  0
    0.4572   -0.6505    1.2162 H   0  0  0  0  0  0  0  0  0  0  0  0
    0.3091   -0.2220   -0.8868 C   0  0  1  0  0  0  0  0  0  0  0  0
    1.3012   -0.6733   -0.8246 H   0  0  0  0  0  0  0  0  0  0  0  0
   -0.5544   -1.1123   -1.8008 C   0  0  0  0  0  0  0  0  0  0  0  0
   -1.5369   -0.6634   -1.9569 H   0  0  0  0  0  0  0  0  0  0  0  0
   -0.0681   -1.2483   -2.7655 H   0  0  0  0  0  0  0  0  0  0  0  0
   -0.6851   -2.0977   -1.3521 H   0  0  0  0  0  0  0  0  0  0  0  0
    0.4823    1.1884   -1.4938 C   0  0  0  0  0  0  0  0  0  0  0  0
    0.9855    1.8417   -0.7798 H   0  0  0  0  0  0  0  0  0  0  0  0
    1.1047    1.1124   -2.3854 H   0  0  0  0  0  0  0  0  0  0  0  0
   -0.8392    1.8466   -1.9129 C   0  0  0  0  0  0  0  0  0  0  0  0
   -1.4609    2.0454   -1.0401 H   0  0  0  0  0  0  0  0  0  0  0  0
   -0.6274    2.7933   -2.4105 H   0  0  0  0  0  0  0  0  0  0  0  0
   -1.3775    1.1963   -2.6032 H   0  0  0  0  0  0  0  0  0  0  0  0
   -0.3971    1.3008    1.0689 C   0  0  0  0  0  0  0  0  0  0  0  0
   -1.3643    1.9819    0.7311 O   0  0  0  0  0  0  0  0  0  0  0  0
    0.5522    1.7647    1.8915 N   0  0  0  0  0  0  0  0  0  0  0  0
    1.3093    1.1450    2.1332 H   0  0  0  0  0  0  0  0  0  0  0  0
    0.5577    3.1119    2.4582 C   0  0  0  0  0  0  0  0  0  0  0  0
   -0.3986    3.3098    2.9475 H   0  0  0  0  0  0  0  0  0  0  0  0
    1.3619    3.2123    3.1886 H   0  0  0  0  0  0  0  0  0  0  0  0
    0.6974    3.8450    1.6614 H   0  0  0  0  0  0  0  0  0  0  0  0
  5  6  2  0  0  0  0
  5  7  1  0  0  0  0
  2  3  1  0  0  0  0
  2  4  1  0  0  0  0
  2  5  1  0  0  0  0
  1  2  1  0  0  0  0
 24 25  2  0  0  0  0
 24 26  1  0  0  0  0
 20 21  1  0  0  0  0
 20 22  1  0  0  0  0
 20 23  1  0  0  0  0
 17 18  1  0  0  0  0
 17 19  1  0  0  0  0
 17 20  1  0  0  0  0
 13 14  1  0  0  0  0
 13 15  1  0  0  0  0
 13 16  1  0  0  0  0
 11 12  1  0  0  0  0
 11 13  1  0  0  0  0
 11 17  1  0  0  0  0
  9 10  1  0  0  0  0
  9 11  1  0  0  0  0
  9 24  1  0  0  0  0
  7  8  1  0  0  0  0
  7  9  1  0  0  0  0
 28 29  1  0  0  0  0
 28 30  1  0  0  0  0
 28 31  1  0  0  0  0
 26 27  1  0  0  0  0
 26 28  1  0  0  0  0
M  END
$$$$
default_name
  -OEChem-02102213163D

 31 30  0     1  0  0  0  0  0999 V2000
   -3.0760   -3.6390    1.5496 H   0  0  0  0  0  0  0  0  0  0  0  0
   -3.0940   -2.6290    1.1426 C   0  0  0  0  0  0  0  0  0  0  0  0
   -3.7160   -1.9930    1.7706 H   0  0  0  0  0  0  0  0  0  0  0  0
   -3.4880   -2.6500    0.1286 H   0  0  0  0  0  0  0  0  0  0  0  0
   -1.6860   -2.0850    1.1196 C   0  0  0  0  0  0  0  0  0  0  0  0
   -0.7540   -2.7700    1.5226 O   0  0  0  0  0  0  0  0  0  0  0  0
   -1.5320   -0.8490    0.6496 N   0  0  0  0  0  0  0  0  0  0  0  0
   -2.3500   -0.3360    0.3566 H   0  0  0  0  0  0  0  0  0  0  0  0
   -0.2470   -0.1410    0.5576 C   0  0  1  0  0  0  0  0  0  0  0  0
    0.4572   -0.6505    1.2162 H   0  0  0  0  0  0  0  0  0  0  0  0
    0.3091   -0.2220   -0.8868 C   0  0  1  0  0  0  0  0  0  0  0  0
    1.3012   -0.6733   -0.8246 H   0  0  0  0  0  0  0  0  0  0  0  0
   -0.5544   -1.1123   -1.8008 C   0  0  0  0  0  0  0  0  0  0  0  0
   -1.5369   -0.6634   -1.9569 H   0  0  0  0  0  0  0  0  0  0  0  0
   -0.0681   -1.2483   -2.7655 H   0  0  0  0  0  0  0  0  0  0  0  0
   -0.6851   -2.0977   -1.3521 H   0  0  0  0  0  0  0  0  0  0  0  0
    0.4823    1.1884   -1.4938 C   0  0  0  0  0  0  0  0  0  0  0  0
    1.2049    1.7591   -0.9090 H   0  0  0  0  0  0  0  0  0  0  0  0
    0.8665    1.0885   -2.5090 H   0  0  0  0  0  0  0  0  0  0  0  0
   -0.8239    1.9899   -1.5756 C   0  0  0  0  0  0  0  0  0  0  0  0
   -1.1989    2.2127   -0.5768 H   0  0  0  0  0  0  0  0  0  0  0  0
   -0.6365    2.9309   -2.0933 H   0  0  0  0  0  0  0  0  0  0  0  0
   -1.5745    1.4246   -2.1290 H   0  0  0  0  0  0  0  0  0  0  0  0
   -0.3971    1.3008    1.0689 C   0  0  0  0  0  0  0  0  0  0  0  0
   -1.3643    1.9819    0.7311 O   0  0  0  0  0  0  0  0  0  0  0  0
    0.5522    1.7647    1.8915 N   0  0  0  0  0  0  0  0  0  0  0  0
    1.3093    1.1450    2.1332 H   0  0  0  0  0  0  0  0  0  0  0  0
    0.5577    3.1119    2.4582 C   0  0  0  0  0  0  0  0  0  0  0  0
   -0.3986    3.3098    2.9475 H   0  0  0  0  0  0  0  0  0  0  0  0
    1.3619    3.2123    3.1886 H   0  0  0  0  0  0  0  0  0  0  0  0
    0.6974    3.8450    1.6614 H   0  0  0  0  0  0  0  0  0  0  0  0
  5  6  2  0  0  0  0
  5  7  1  0  0  0  0
  2  3  1  0  0  0  0
  2  4  1  0  0  0  0
  2  5  1  0  0  0  0
  1  2  1  0  0  0  0
 24 25  2  0  0  0  0
 24 26  1  0  0  0  0
 20 21  1  0  0  0  0
 20 22  1  0  0  0  0
 20 23  1  0  0  0  0
 17 18  1  0  0  0  0
 17 19  1  0  0  0  0
 17 20  1  0  0  0  0
 13 14  1  0  0  0  0
 13 15  1  0  0  0  0
 13 16  1  0  0  0  0
 11 12  1  0  0  0  0
 11 13  1  0  0  0  0
 11 17  1  0  0  0  0
  9 10  1  0  0  0  0
  9 11  1  0  0  0  0
  9 24  1  0  0  0  0
  7  8  1  0  0  0  0
  7  9  1  0  0  0  0
 28 29  1  0  0  0  0
 28 30  1  0  0  0  0
 28 31  1  0  0  0  0
 26 27  1  0  0  0  0
 26 28  1  0  0  0  0
M  END
$$$$
default_name
  -OEChem-02102213163D

 31 30  0     1  0  0  0  0  0999 V2000
   -3.0760   -3.6390    1.5496 H   0  0  0  0  0  0  0  0  0  0  0  0
   -3.0940   -2.6290    1.1426 C   0  0  0  0  0  0  0  0  0  0  0  0
   -3.7160   -1.9930    1.7706 H   0  0  0  0  0  0  0  0  0  0  0  0
   -3.4880   -2.6500    0.1286 H   0  0  0  0  0  0  0  0  0  0  0  0
   -1.6860   -2.0850    1.1196 C   0  0  0  0  0  0  0  0  0  0  0  0
   -0.7540   -2.7700    1.5226 O   0  0  0  0  0  0  0  0  0  0  0  0
   -1.5320   -0.8490    0.6496 N   0  0  0  0  0  0  0  0  0  0  0  0
   -2.3500   -0.3360    0.3566 H   0  0  0  0  0  0  0  0  0  0  0  0
   -0.2470   -0.1410    0.5576 C   0  0  1  0  0  0  0  0  0  0  0  0
    0.4572   -0.6505    1.2162 H   0  0  0  0  0  0  0  0  0  0  0  0
    0.3091   -0.2220   -0.8868 C   0  0  1  0  0  0  0  0  0  0  0  0
    1.3012   -0.6733   -0.8246 H   0  0  0  0  0  0  0  0  0  0  0  0
   -0.5544   -1.1123   -1.8008 C   0  0  0  0  0  0  0  0  0  0  0  0
   -1.5369   -0.6634   -1.9569 H   0  0  0  0  0  0  0  0  0  0  0  0
   -0.0681   -1.2483   -2.7655 H   0  0  0  0  0  0  0  0  0  0  0  0
   -0.6851   -2.0977   -1.3521 H   0  0  0  0  0  0  0  0  0  0  0  0
    0.4823    1.1884   -1.4938 C   0  0  0  0  0  0  0  0  0  0  0  0
    1.3779    1.6608   -1.0881 H   0  0  0  0  0  0  0  0  0  0  0  0
    0.6047    1.0932   -2.5727 H   0  0  0  0  0  0  0  0  0  0  0  0
   -0.7149    2.1170   -1.2492 C   0  0  0  0  0  0  0  0  0  0  0  0
   -0.8194    2.3341   -0.1864 H   0  0  0  0  0  0  0  0  0  0  0  0
   -0.5563    3.0555   -1.7808 H   0  0  0  0  0  0  0  0  0  0  0  0
   -1.6296    1.6513   -1.6178 H   0  0  0  0  0  0  0  0  0  0  0  0
   -0.3971    1.3008    1.0689 C   0  0  0  0  0  0  0  0  0  0  0  0
   -1.3643    1.9819    0.7311 O   0  0  0  0  0  0  0  0  0  0  0  0
    0.5522    1.7647    1.8915 N   0  0  0  0  0  0  0  0  0  0  0  0
    1.3093    1.1450    2.1332 H   0  0  0  0  0  0  0  0  0  0  0  0
    0.5577    3.1119    2.4582 C   0  0  0  0  0  0  0  0  0  0  0  0
   -0.3986    3.3098    2.9475 H   0  0  0  0  0  0  0  0  0  0  0  0
    1.3619    3.2123    3.1886 H   0  0  0  0  0  0  0  0  0  0  0  0
    0.6974    3.8450    1.6614 H   0  0  0  0  0  0  0  0  0  0  0  0
  5  6  2  0  0  0  0
  5  7  1  0  0  0  0
  2  3  1  0  0  0  0
  2  4  1  0  0  0  0
  2  5  1  0  0  0  0
  1  2  1  0  0  0  0
 24 25  2  0  0  0  0
 24 26  1  0  0  0  0
 20 21  1  0  0  0  0
 20 22  1  0  0  0  0
 20 23  1  0  0  0  0
 17 18  1  0  0  0  0
 17 19  1  0  0  0  0
 17 20  1  0  0  0  0
 13 14  1  0  0  0  0
 13 15  1  0  0  0  0
 13 16  1  0  0  0  0
 11 12  1  0  0  0  0
 11 13  1  0  0  0  0
 11 17  1  0  0  0  0
  9 10  1  0  0  0  0
  9 11  1  0  0  0  0
  9 24  1  0  0  0  0
  7  8  1  0  0  0  0
  7  9  1  0  0  0  0
 28 29  1  0  0  0  0
 28 30  1  0  0  0  0
 28 31  1  0  0  0  0
 26 27  1  0  0  0  0
 26 28  1  0  0  0  0
M  END
$$$$
default_name
  -OEChem-02102213163D

 31 30  0     1  0  0  0  0  0999 V2000
   -3.0760   -3.6390    1.5496 H   0  0  0  0  0  0  0  0  0  0  0  0
   -3.0940   -2.6290    1.1426 C   0  0  0  0  0  0  0  0  0  0  0  0
   -3.7160   -1.9930    1.7706 H   0  0  0  0  0  0  0  0  0  0  0  0
   -3.4880   -2.6500    0.1286 H   0  0  0  0  0  0  0  0  0  0  0  0
   -1.6860   -2.0850    1.1196 C   0  0  0  0  0  0  0  0  0  0  0  0
   -0.7540   -2.7700    1.5226 O   0  0  0  0  0  0  0  0  0  0  0  0
   -1.5320   -0.8490    0.6496 N   0  0  0  0  0  0  0  0  0  0  0  0
   -2.3500   -0.3360    0.3566 H   0  0  0  0  0  0  0  0  0  0  0  0
   -0.2470   -0.1410    0.5576 C   0  0  1  0  0  0  0  0  0  0  0  0
    0.4572   -0.6505    1.2162 H   0  0  0  0  0  0  0  0  0  0  0  0
    0.3091   -0.2220   -0.8868 C   0  0  1  0  0  0  0  0  0  0  0  0
    1.3012   -0.6733   -0.8246 H   0  0  0  0  0  0  0  0  0  0  0  0
   -0.5544   -1.1123   -1.8008 C   0  0  0  0  0  0  0  0  0  0  0  0
   -1.5369   -0.6634   -1.9569 H   0  0  0  0  0  0  0  0  0  0  0  0
   -0.0681   -1.2483   -2.7655 H   0  0  0  0  0  0  0  0  0  0  0  0
   -0.6851   -2.0977   -1.3521 H   0  0  0  0  0  0  0  0  0  0  0  0
    0.4823    1.1884   -1.4938 C   0  0  0  0  0  0  0  0  0  0  0  0
    1.4927    1.5534   -1.3048 H   0  0  0  0  0  0  0  0  0  0  0  0
    0.3374    1.1262   -2.5723 H   0  0  0  0  0  0  0  0  0  0  0  0
   -0.5195    2.2192   -0.9561 C   0  0  0  0  0  0  0  0  0  0  0  0
   -0.3482    2.4015    0.1046 H   0  0  0  0  0  0  0  0  0  0  0  0
   -0.3924    3.1587   -1.4943 H   0  0  0  0  0  0  0  0  0  0  0  0
   -1.5389    1.8612   -1.1044 H   0  0  0  0  0  0  0  0  0  0  0  0
   -0.3971    1.3008    1.0689 C   0  0  0  0  0  0  0  0  0  0  0  0
   -1.3643    1.9819    0.7311 O   0  0  0  0  0  0  0  0  0  0  0  0
    0.5522    1.7647    1.8915 N   0  0  0  0  0  0  0  0  0  0  0  0
    1.3093    1.1450    2.1332 H   0  0  0  0  0  0  0  0  0  0  0  0
    0.5577    3.1119    2.4582 C   0  0  0  0  0  0  0  0  0  0  0  0
   -0.3986    3.3098    2.9475 H   0  0  0  0  0  0  0  0  0  0  0  0
    1.3619    3.2123    3.1886 H   0  0  0  0  0  0  0  0  0  0  0  0
    0.6974    3.8450    1.6614 H   0  0  0  0  0  0  0  0  0  0  0  0
  5  6  2  0  0  0  0
  5  7  1  0  0  0  0
  2  3  1  0  0  0  0
  2  4  1  0  0  0  0
  2  5  1  0  0  0  0
  1  2  1  0  0  0  0
 24 25  2  0  0  0  0
 24 26  1  0  0  0  0
 20 21  1  0  0  0  0
 20 22  1  0  0  0  0
 20 23  1  0  0  0  0
 17 18  1  0  0  0  0
 17 19  1  0  0  0  0
 17 20  1  0  0  0  0
 13 14  1  0  0  0  0
 13 15  1  0  0  0  0
 13 16  1  0  0  0  0
 11 12  1  0  0  0  0
 11 13  1  0  0  0  0
 11 17  1  0  0  0  0
  9 10  1  0  0  0  0
  9 11  1  0  0  0  0
  9 24  1  0  0  0  0
  7  8  1  0  0  0  0
  7  9  1  0  0  0  0
 28 29  1  0  0  0  0
 28 30  1  0  0  0  0
 28 31  1  0  0  0  0
 26 27  1  0  0  0  0
 26 28  1  0  0  0  0
M  END
$$$$
default_name
  -OEChem-02102213163D

 31 30  0     1  0  0  0  0  0999 V2000
   -3.0760   -3.6390    1.5496 H   0  0  0  0  0  0  0  0  0  0  0  0
   -3.0940   -2.6290    1.1426 C   0  0  0  0  0  0  0  0  0  0  0  0
   -3.7160   -1.9930    1.7706 H   0  0  0  0  0  0  0  0  0  0  0  0
   -3.4880   -2.6500    0.1286 H   0  0  0  0  0  0  0  0  0  0  0  0
   -1.6860   -2.0850    1.1196 C   0  0  0  0  0  0  0  0  0  0  0  0
   -0.7540   -2.7700    1.5226 O   0  0  0  0  0  0  0  0  0  0  0  0
   -1.5320   -0.8490    0.6496 N   0  0  0  0  0  0  0  0  0  0  0  0
   -2.3500   -0.3360    0.3566 H   0  0  0  0  0  0  0  0  0  0  0  0
   -0.2470   -0.1410    0.5576 C   0  0  1  0  0  0  0  0  0  0  0  0
    0.4572   -0.6505    1.2162 H   0  0  0  0  0  0  0  0  0  0  0  0
    0.3091   -0.2220   -0.8868 C   0  0  1  0  0  0  0  0  0  0  0  0
    1.3012   -0.6733   -0.8246 H   0  0  0  0  0  0  0  0  0  0  0  0
   -0.5544   -1.1123   -1.8008 C   0  0  0  0  0  0  0  0  0  0  0  0
   -1.5369   -0.6634   -1.9569 H   0  0  0  0  0  0  0  0  0  0  0  0
   -0.0681   -1.2483   -2.7655 H   0  0  0  0  0  0  0  0  0  0  0  0
   -0.6851   -2.0977   -1.3521 H   0  0  0  0  0  0  0  0  0  0  0  0
    0.4823    1.1884   -1.4938 C   0  0  0  0  0  0  0  0  0  0  0  0
    1.5414    1.4444   -1.5443 H   0  0  0  0  0  0  0  0  0  0  0  0
    0.0825    1.1852   -2.5078 H   0  0  0  0  0  0  0  0  0  0  0  0
   -0.2512    2.2895   -0.7161 C   0  0  0  0  0  0  0  0  0  0  0  0
    0.1826    2.4103    0.2764 H   0  0  0  0  0  0  0  0  0  0  0  0
   -0.1558    3.2334   -1.2533 H   0  0  0  0  0  0  0  0  0  0  0  0
   -1.3087    2.0398   -0.6238 H   0  0  0  0  0  0  0  0  0  0  0  0
   -0.3971    1.3008    1.0689 C   0  0  0  0  0  0  0  0  0  0  0  0
   -1.3643    1.9819    0.7311 O   0  0  0  0  0  0  0  0  0  0  0  0
    0.5522    1.7647    1.8915 N   0  0  0  0  0  0  0  0  0  0  0  0
    1.3093    1.1450    2.1332 H   0  0  0  0  0  0  0  0  0  0  0  0
    0.5577    3.1119    2.4582 C   0  0  0  0  0  0  0  0  0  0  0  0
   -0.3986    3.3098    2.9475 H   0  0  0  0  0  0  0  0  0  0  0  0
    1.3619    3.2123    3.1886 H   0  0  0  0  0  0  0  0  0  0  0  0
    0.6974    3.8450    1.6614 H   0  0  0  0  0  0  0  0  0  0  0  0
  5  6  2  0  0  0  0
  5  7  1  0  0  0  0
  2  3  1  0  0  0  0
  2  4  1  0  0  0  0
  2  5  1  0  0  0  0
  1  2  1  0  0  0  0
 24 25  2  0  0  0  0
 24 26  1  0  0  0  0
 20 21  1  0  0  0  0
 20 22  1  0  0  0  0
 20 23  1  0  0  0  0
 17 18  1  0  0  0  0
 17 19  1  0  0  0  0
 17 20  1  0  0  0  0
 13 14  1  0  0  0  0
 13 15  1  0  0  0  0
 13 16  1  0  0  0  0
 11 12  1  0  0  0  0
 11 13  1  0  0  0  0
 11 17  1  0  0  0  0
  9 10  1  0  0  0  0
  9 11  1  0  0  0  0
  9 24  1  0  0  0  0
  7  8  1  0  0  0  0
  7  9  1  0  0  0  0
 28 29  1  0  0  0  0
 28 30  1  0  0  0  0
 28 31  1  0  0  0  0
 26 27  1  0  0  0  0
 26 28  1  0  0  0  0
M  END
$$$$
default_name
  -OEChem-02102213163D

 31 30  0     1  0  0  0  0  0999 V2000
   -3.0760   -3.6390    1.5496 H   0  0  0  0  0  0  0  0  0  0  0  0
   -3.0940   -2.6290    1.1426 C   0  0  0  0  0  0  0  0  0  0  0  0
   -3.7160   -1.9930    1.7706 H   0  0  0  0  0  0  0  0  0  0  0  0
   -3.4880   -2.6500    0.1286 H   0  0  0  0  0  0  0  0  0  0  0  0
   -1.6860   -2.0850    1.1196 C   0  0  0  0  0  0  0  0  0  0  0  0
   -0.7540   -2.7700    1.5226 O   0  0  0  0  0  0  0  0  0  0  0  0
   -1.5320   -0.8490    0.6496 N   0  0  0  0  0  0  0  0  0  0  0  0
   -2.3500   -0.3360    0.3566 H   0  0  0  0  0  0  0  0  0  0  0  0
   -0.2470   -0.1410    0.5576 C   0  0  1  0  0  0  0  0  0  0  0  0
    0.4572   -0.6505    1.2162 H   0  0  0  0  0  0  0  0  0  0  0  0
    0.3091   -0.2220   -0.8868 C   0  0  1  0  0  0  0  0  0  0  0  0
    1.3012   -0.6733   -0.8246 H   0  0  0  0  0  0  0  0  0  0  0  0
   -0.5544   -1.1123   -1.8008 C   0  0  0  0  0  0  0  0  0  0  0  0
   -1.5369   -0.6634   -1.9569 H   0  0  0  0  0  0  0  0  0  0  0  0
   -0.0681   -1.2483   -2.7655 H   0  0  0  0  0  0  0  0  0  0  0  0
   -0.6851   -2.0977   -1.3521 H   0  0  0  0  0  0  0  0  0  0  0  0
    0.4823    1.1884   -1.4938 C   0  0  0  0  0  0  0  0  0  0  0  0
    1.5209    1.3410   -1.7903 H   0  0  0  0  0  0  0  0  0  0  0  0
   -0.1424    1.2663   -2.3836 H   0  0  0  0  0  0  0  0  0  0  0  0
    0.0718    2.3232   -0.5457 C   0  0  0  0  0  0  0  0  0  0  0  0
    0.7367    2.3598    0.3171 H   0  0  0  0  0  0  0  0  0  0  0  0
    0.1372    3.2745   -1.0742 H   0  0  0  0  0  0  0  0  0  0  0  0
   -0.9547    2.1749   -0.2088 H   0  0  0  0  0  0  0  0  0  0  0  0
   -0.3971    1.3008    1.0689 C   0  0  0  0  0  0  0  0  0  0  0  0
   -1.3643    1.9819    0.7311 O   0  0  0  0  0  0  0  0  0  0  0  0
    0.5522    1.7647    1.8915 N   0  0  0  0  0  0  0  0  0  0  0  0
    1.3093    1.1450    2.1332 H   0  0  0  0  0  0  0  0  0  0  0  0
    0.5577    3.1119    2.4582 C   0  0  0  0  0  0  0  0  0  0  0  0
   -0.3986    3.3098    2.9475 H   0  0  0  0  0  0  0  0  0  0  0  0
    1.3619    3.2123    3.1886 H   0  0  0  0  0  0  0  0  0  0  0  0
    0.6974    3.8450    1.6614 H   0  0  0  0  0  0  0  0  0  0  0  0
  5  6  2  0  0  0  0
  5  7  1  0  0  0  0
  2  3  1  0  0  0  0
  2  4  1  0  0  0  0
  2  5  1  0  0  0  0
  1  2  1  0  0  0  0
 24 25  2  0  0  0  0
 24 26  1  0  0  0  0
 20 21  1  0  0  0  0
 20 22  1  0  0  0  0
 20 23  1  0  0  0  0
 17 18  1  0  0  0  0
 17 19  1  0  0  0  0
 17 20  1  0  0  0  0
 13 14  1  0  0  0  0
 13 15  1  0  0  0  0
 13 16  1  0  0  0  0
 11 12  1  0  0  0  0
 11 13  1  0  0  0  0
 11 17  1  0  0  0  0
  9 10  1  0  0  0  0
  9 11  1  0  0  0  0
  9 24  1  0  0  0  0
  7  8  1  0  0  0  0
  7  9  1  0  0  0  0
 28 29  1  0  0  0  0
 28 30  1  0  0  0  0
 28 31  1  0  0  0  0
 26 27  1  0  0  0  0
 26 28  1  0  0  0  0
M  END
$$$$
default_name
  -OEChem-02102213163D

 31 30  0     1  0  0  0  0  0999 V2000
   -3.0760   -3.6390    1.5496 H   0  0  0  0  0  0  0  0  0  0  0  0
   -3.0940   -2.6290    1.1426 C   0  0  0  0  0  0  0  0  0  0  0  0
   -3.7160   -1.9930    1.7706 H   0  0  0  0  0  0  0  0  0  0  0  0
   -3.4880   -2.6500    0.1286 H   0  0  0  0  0  0  0  0  0  0  0  0
   -1.6860   -2.0850    1.1196 C   0  0  0  0  0  0  0  0  0  0  0  0
   -0.7540   -2.7700    1.5226 O   0  0  0  0  0  0  0  0  0  0  0  0
   -1.5320   -0.8490    0.6496 N   0  0  0  0  0  0  0  0  0  0  0  0
   -2.3500   -0.3360    0.3566 H   0  0  0  0  0  0  0  0  0  0  0  0
   -0.2470   -0.1410    0.5576 C   0  0  1  0  0  0  0  0  0  0  0  0
    0.4572   -0.6505    1.2162 H   0  0  0  0  0  0  0  0  0  0  0  0
    0.3091   -0.2220   -0.8868 C   0  0  1  0  0  0  0  0  0  0  0  0
    1.3012   -0.6733   -0.8246 H   0  0  0  0  0  0  0  0  0  0  0  0
   -0.5544   -1.1123   -1.8008 C   0  0  0  0  0  0  0  0  0  0  0  0
   -1.5369   -0.6634   -1.9569 H   0  0  0  0  0  0  0  0  0  0  0  0
   -0.0681   -1.2483   -2.7655 H   0  0  0  0  0  0  0  0  0  0  0  0
   -0.6851   -2.0977   -1.3521 H   0  0  0  0  0  0  0  0  0  0  0  0
    0.4823    1.1884   -1.4938 C   0  0  0  0  0  0  0  0  0  0  0  0
    1.4324    1.2504   -2.0262 H   0  0  0  0  0  0  0  0  0  0  0  0
   -0.3220    1.3638   -2.2082 H   0  0  0  0  0  0  0  0  0  0  0  0
    0.4276    2.3180   -0.4564 C   0  0  0  0  0  0  0  0  0  0  0  0
    1.2764    2.2535    0.2241 H   0  0  0  0  0  0  0  0  0  0  0  0
    0.4667    3.2793   -0.9692 H   0  0  0  0  0  0  0  0  0  0  0  0
   -0.5009    2.2574    0.1124 H   0  0  0  0  0  0  0  0  0  0  0  0
   -0.3971    1.3008    1.0689 C   0  0  0  0  0  0  0  0  0  0  0  0
   -1.3643    1.9819    0.7311 O   0  0  0  0  0  0  0  0  0  0  0  0
    0.5522    1.7647    1.8915 N   0  0  0  0  0  0  0  0  0  0  0  0
    1.3093    1.1450    2.1332 H   0  0  0  0  0  0  0  0  0  0  0  0
    0.5577    3.1119    2.4582 C   0  0  0  0  0  0  0  0  0  0  0  0
   -0.3986    3.3098    2.9475 H   0  0  0  0  0  0  0  0  0  0  0  0
    1.3619    3.2123    3.1886 H   0  0  0  0  0  0  0  0  0  0  0  0
    0.6974    3.8450    1.6614 H   0  0  0  0  0  0  0  0  0  0  0  0
  5  6  2  0  0  0  0
  5  7  1  0  0  0  0
  2  3  1  0  0  0  0
  2  4  1  0  0  0  0
  2  5  1  0  0  0  0
  1  2  1  0  0  0  0
 24 25  2  0  0  0  0
 24 26  1  0  0  0  0
 20 21  1  0  0  0  0
 20 22  1  0  0  0  0
 20 23  1  0  0  0  0
 17 18  1  0  0  0  0
 17 19  1  0  0  0  0
 17 20  1  0  0  0  0
 13 14  1  0  0  0  0
 13 15  1  0  0  0  0
 13 16  1  0  0  0  0
 11 12  1  0  0  0  0
 11 13  1  0  0  0  0
 11 17  1  0  0  0  0
  9 10  1  0  0  0  0
  9 11  1  0  0  0  0
  9 24  1  0  0  0  0
  7  8  1  0  0  0  0
  7  9  1  0  0  0  0
 28 29  1  0  0  0  0
 28 30  1  0  0  0  0
 28 31  1  0  0  0  0
 26 27  1  0  0  0  0
 26 28  1  0  0  0  0
M  END
$$$$
default_name
  -OEChem-02102213163D

 31 30  0     1  0  0  0  0  0999 V2000
   -3.0760   -3.6390    1.5496 H   0  0  0  0  0  0  0  0  0  0  0  0
   -3.0940   -2.6290    1.1426 C   0  0  0  0  0  0  0  0  0  0  0  0
   -3.7160   -1.9930    1.7706 H   0  0  0  0  0  0  0  0  0  0  0  0
   -3.4880   -2.6500    0.1286 H   0  0  0  0  0  0  0  0  0  0  0  0
   -1.6860   -2.0850    1.1196 C   0  0  0  0  0  0  0  0  0  0  0  0
   -0.7540   -2.7700    1.5226 O   0  0  0  0  0  0  0  0  0  0  0  0
   -1.5320   -0.8490    0.6496 N   0  0  0  0  0  0  0  0  0  0  0  0
   -2.3500   -0.3360    0.3566 H   0  0  0  0  0  0  0  0  0  0  0  0
   -0.2470   -0.1410    0.5576 C   0  0  1  0  0  0  0  0  0  0  0  0
    0.4572   -0.6505    1.2162 H   0  0  0  0  0  0  0  0  0  0  0  0
    0.3091   -0.2220   -0.8868 C   0  0  1  0  0  0  0  0  0  0  0  0
    1.3012   -0.6733   -0.8246 H   0  0  0  0  0  0  0  0  0  0  0  0
   -0.5544   -1.1123   -1.8008 C   0  0  0  0  0  0  0  0  0  0  0  0
   -1.5369   -0.6634   -1.9569 H   0  0  0  0  0  0  0  0  0  0  0  0
   -0.0681   -1.2483   -2.7655 H   0  0  0  0  0  0  0  0  0  0  0  0
   -0.6851   -2.0977   -1.3521 H   0  0  0  0  0  0  0  0  0  0  0  0
    0.4823    1.1884   -1.4938 C   0  0  0  0  0  0  0  0  0  0  0  0
    1.2820    1.1787   -2.2357 H   0  0  0  0  0  0  0  0  0  0  0  0
   -0.4442    1.4713   -1.9934 H   0  0  0  0  0  0  0  0  0  0  0  0
    0.7917    2.2742   -0.4543 C   0  0  0  0  0  0  0  0  0  0  0  0
    1.7650    2.0986    0.0037 H   0  0  0  0  0  0  0  0  0  0  0  0
    0.8102    3.2473   -0.9455 H   0  0  0  0  0  0  0  0  0  0  0  0
    0.0216    2.2817    0.3178 H   0  0  0  0  0  0  0  0  0  0  0  0
   -0.3971    1.3008    1.0689 C   0  0  0  0  0  0  0  0  0  0  0  0
   -1.3643    1.9819    0.7311 O   0  0  0  0  0  0  0  0  0  0  0  0
    0.5522    1.7647    1.8915 N   0  0  0  0  0  0  0  0  0  0  0  0
    1.3093    1.1450    2.1332 H   0  0  0  0  0  0  0  0  0  0  0  0
    0.5577    3.1119    2.4582 C   0  0  0  0  0  0  0  0  0  0  0  0
   -0.3986    3.3098    2.9475 H   0  0  0  0  0  0  0  0  0  0  0  0
    1.3619    3.2123    3.1886 H   0  0  0  0  0  0  0  0  0  0  0  0
    0.6974    3.8450    1.6614 H   0  0  0  0  0  0  0  0  0  0  0  0
  5  6  2  0  0  0  0
  5  7  1  0  0  0  0
  2  3  1  0  0  0  0
  2  4  1  0  0  0  0
  2  5  1  0  0  0  0
  1  2  1  0  0  0  0
 24 25  2  0  0  0  0
 24 26  1  0  0  0  0
 20 21  1  0  0  0  0
 20 22  1  0  0  0  0
 20 23  1  0  0  0  0
 17 18  1  0  0  0  0
 17 19  1  0  0  0  0
 17 20  1  0  0  0  0
 13 14  1  0  0  0  0
 13 15  1  0  0  0  0
 13 16  1  0  0  0  0
 11 12  1  0  0  0  0
 11 13  1  0  0  0  0
 11 17  1  0  0  0  0
  9 10  1  0  0  0  0
  9 11  1  0  0  0  0
  9 24  1  0  0  0  0
  7  8  1  0  0  0  0
  7  9  1  0  0  0  0
 28 29  1  0  0  0  0
 28 30  1  0  0  0  0
 28 31  1  0  0  0  0
 26 27  1  0  0  0  0
 26 28  1  0  0  0  0
M  END
$$$$
default_name
  -OEChem-02102213163D

 31 30  0     1  0  0  0  0  0999 V2000
   -3.0760   -3.6390    1.5496 H   0  0  0  0  0  0  0  0  0  0  0  0
   -3.0940   -2.6290    1.1426 C   0  0  0  0  0  0  0  0  0  0  0  0
   -3.7160   -1.9930    1.7706 H   0  0  0  0  0  0  0  0  0  0  0  0
   -3.4880   -2.6500    0.1286 H   0  0  0  0  0  0  0  0  0  0  0  0
   -1.6860   -2.0850    1.1196 C   0  0  0  0  0  0  0  0  0  0  0  0
   -0.7540   -2.7700    1.5226 O   0  0  0  0  0  0  0  0  0  0  0  0
   -1.5320   -0.8490    0.6496 N   0  0  0  0  0  0  0  0  0  0  0  0
   -2.3500   -0.3360    0.3566 H   0  0  0  0  0  0  0  0  0  0  0  0
   -0.2470   -0.1410    0.5576 C   0  0  1  0  0  0  0  0  0  0  0  0
    0.4572   -0.6505    1.2162 H   0  0  0  0  0  0  0  0  0  0  0  0
    0.3091   -0.2220   -0.8868 C   0  0  1  0  0  0  0  0  0  0  0  0
    1.3012   -0.6733   -0.8246 H   0  0  0  0  0  0  0  0  0  0  0  0
   -0.5544   -1.1123   -1.8008 C   0  0  0  0  0  0  0  0  0  0  0  0
   -1.5369   -0.6634   -1.9569 H   0  0  0  0  0  0  0  0  0  0  0  0
   -0.0681   -1.2483   -2.7655 H   0  0  0  0  0  0  0  0  0  0  0  0
   -0.6851   -2.0977   -1.3521 H   0  0  0  0  0  0  0  0  0  0  0  0
    0.4823    1.1884   -1.4938 C   0  0  0  0  0  0  0  0  0  0  0  0
    1.0799    1.1308   -2.4046 H   0  0  0  0  0  0  0  0  0  0  0  0
   -0.5006    1.5812   -1.7540 H   0  0  0  0  0  0  0  0  0  0  0  0
    1.1395    2.1947   -0.5396 C   0  0  0  0  0  0  0  0  0  0  0  0
    2.1691    1.9058   -0.3291 H   0  0  0  0  0  0  0  0  0  0  0  0
    1.1444    3.1808   -1.0047 H   0  0  0  0  0  0  0  0  0  0  0  0
    0.5773    2.2460    0.3935 H   0  0  0  0  0  0  0  0  0  0  0  0
   -0.3971    1.3008    1.0689 C   0  0  0  0  0  0  0  0  0  0  0  0
   -1.3643    1.9819    0.7311 O   0  0  0  0  0  0  0  0  0  0  0  0
    0.5522    1.7647    1.8915 N   0  0  0  0  0  0  0  0  0  0  0  0
    1.3093    1.1450    2.1332 H   0  0  0  0  0  0  0  0  0  0  0  0
    0.5577    3.1119    2.4582 C   0  0  0  0  0  0  0  0  0  0  0  0
   -0.3986    3.3098    2.9475 H   0  0  0  0  0  0  0  0  0  0  0  0
    1.3619    3.2123    3.1886 H   0  0  0  0  0  0  0  0  0  0  0  0
    0.6974    3.8450    1.6614 H   0  0  0  0  0  0  0  0  0  0  0  0
  5  6  2  0  0  0  0
  5  7  1  0  0  0  0
  2  3  1  0  0  0  0
  2  4  1  0  0  0  0
  2  5  1  0  0  0  0
  1  2  1  0  0  0  0
 24 25  2  0  0  0  0
 24 26  1  0  0  0  0
 20 21  1  0  0  0  0
 20 22  1  0  0  0  0
 20 23  1  0  0  0  0
 17 18  1  0  0  0  0
 17 19  1  0  0  0  0
 17 20  1  0  0  0  0
 13 14  1  0  0  0  0
 13 15  1  0  0  0  0
 13 16  1  0  0  0  0
 11 12  1  0  0  0  0
 11 13  1  0  0  0  0
 11 17  1  0  0  0  0
  9 10  1  0  0  0  0
  9 11  1  0  0  0  0
  9 24  1  0  0  0  0
  7  8  1  0  0  0  0
  7  9  1  0  0  0  0
 28 29  1  0  0  0  0
 28 30  1  0  0  0  0
 28 31  1  0  0  0  0
 26 27  1  0  0  0  0
 26 28  1  0  0  0  0
M  END
$$$$
default_name
  -OEChem-02102213163D

 31 30  0     1  0  0  0  0  0999 V2000
   -3.0760   -3.6390    1.5496 H   0  0  0  0  0  0  0  0  0  0  0  0
   -3.0940   -2.6290    1.1426 C   0  0  0  0  0  0  0  0  0  0  0  0
   -3.7160   -1.9930    1.7706 H   0  0  0  0  0  0  0  0  0  0  0  0
   -3.4880   -2.6500    0.1286 H   0  0  0  0  0  0  0  0  0  0  0  0
   -1.6860   -2.0850    1.1196 C   0  0  0  0  0  0  0  0  0  0  0  0
   -0.7540   -2.7700    1.5226 O   0  0  0  0  0  0  0  0  0  0  0  0
   -1.5320   -0.8490    0.6496 N   0  0  0  0  0  0  0  0  0  0  0  0
   -2.3500   -0.3360    0.3566 H   0  0  0  0  0  0  0  0  0  0  0  0
   -0.2470   -0.1410    0.5576 C   0  0  1  0  0  0  0  0  0  0  0  0
    0.4572   -0.6505    1.2162 H   0  0  0  0  0  0  0  0  0  0  0  0
    0.3091   -0.2220   -0.8868 C   0  0  1  0  0  0  0  0  0  0  0  0
    1.3012   -0.6733   -0.8246 H   0  0  0  0  0  0  0  0  0  0  0  0
   -0.5544   -1.1123   -1.8008 C   0  0  0  0  0  0  0  0  0  0  0  0
   -1.5369   -0.6634   -1.9569 H   0  0  0  0  0  0  0  0  0  0  0  0
   -0.0681   -1.2483   -2.7655 H   0  0  0  0  0  0  0  0  0  0  0  0
   -0.6851   -2.0977   -1.3521 H   0  0  0  0  0  0  0  0  0  0  0  0
    0.4823    1.1884   -1.4938 C   0  0  0  0  0  0  0  0  0  0  0  0
    0.8400    1.1100   -2.5214 H   0  0  0  0  0  0  0  0  0  0  0  0
   -0.4873    1.6862   -1.5063 H   0  0  0  0  0  0  0  0  0  0  0  0
    1.4472    2.0852   -0.7065 C   0  0  0  0  0  0  0  0  0  0  0  0
    2.4611    1.6881   -0.7517 H   0  0  0  0  0  0  0  0  0  0  0  0
    1.4465    3.0843   -1.1428 H   0  0  0  0  0  0  0  0  0  0  0  0
    1.1284    2.1529    0.3342 H   0  0  0  0  0  0  0  0  0  0  0  0
   -0.3971    1.3008    1.0689 C   0  0  0  0  0  0  0  0  0  0  0  0
   -1.3643    1.9819    0.7311 O   0  0  0  0  0  0  0  0  0  0  0  0
    0.5522    1.7647    1.8915 N   0  0  0  0  0  0  0  0  0  0  0  0
    1.3093    1.1450    2.1332 H   0  0  0  0  0  0  0  0  0  0  0  0
    0.5577    3.1119    2.4582 C   0  0  0  0  0  0  0  0  0  0  0  0
   -0.3986    3.3098    2.9475 H   0  0  0  0  0  0  0  0  0  0  0  0
    1.3619    3.2123    3.1886 H   0  0  0  0  0  0  0  0  0  0  0  0
    0.6974    3.8450    1.6614 H   0  0  0  0  0  0  0  0  0  0  0  0
  5  6  2  0  0  0  0
  5  7  1  0  0  0  0
  2  3  1  0  0  0  0
  2  4  1  0  0  0  0
  2  5  1  0  0  0  0
  1  2  1  0  0  0  0
 24 25  2  0  0  0  0
 24 26  1  0  0  0  0
 20 21  1  0  0  0  0
 20 22  1  0  0  0  0
 20 23  1  0  0  0  0
 17 18  1  0  0  0  0
 17 19  1  0  0  0  0
 17 20  1  0  0  0  0
 13 14  1  0  0  0  0
 13 15  1  0  0  0  0
 13 16  1  0  0  0  0
 11 12  1  0  0  0  0
 11 13  1  0  0  0  0
 11 17  1  0  0  0  0
  9 10  1  0  0  0  0
  9 11  1  0  0  0  0
  9 24  1  0  0  0  0
  7  8  1  0  0  0  0
  7  9  1  0  0  0  0
 28 29  1  0  0  0  0
 28 30  1  0  0  0  0
 28 31  1  0  0  0  0
 26 27  1  0  0  0  0
 26 28  1  0  0  0  0
M  END
$$$$
default_name
  -OEChem-02102213163D

 31 30  0     1  0  0  0  0  0999 V2000
   -3.0760   -3.6390    1.5496 H   0  0  0  0  0  0  0  0  0  0  0  0
   -3.0940   -2.6290    1.1426 C   0  0  0  0  0  0  0  0  0  0  0  0
   -3.7160   -1.9930    1.7706 H   0  0  0  0  0  0  0  0  0  0  0  0
   -3.4880   -2.6500    0.1286 H   0  0  0  0  0  0  0  0  0  0  0  0
   -1.6860   -2.0850    1.1196 C   0  0  0  0  0  0  0  0  0  0  0  0
   -0.7540   -2.7700    1.5226 O   0  0  0  0  0  0  0  0  0  0  0  0
   -1.5320   -0.8490    0.6496 N   0  0  0  0  0  0  0  0  0  0  0  0
   -2.3500   -0.3360    0.3566 H   0  0  0  0  0  0  0  0  0  0  0  0
   -0.2470   -0.1410    0.5576 C   0  0  1  0  0  0  0  0  0  0  0  0
    0.4572   -0.6505    1.2162 H   0  0  0  0  0  0  0  0  0  0  0  0
    0.3091   -0.2220   -0.8868 C   0  0  1  0  0  0  0  0  0  0  0  0
    1.3012   -0.6733   -0.8246 H   0  0  0  0  0  0  0  0  0  0  0  0
   -0.5544   -1.1123   -1.8008 C   0  0  0  0  0  0  0  0  0  0  0  0
   -1.5369   -0.6634   -1.9569 H   0  0  0  0  0  0  0  0  0  0  0  0
   -0.0681   -1.2483   -2.7655 H   0  0  0  0  0  0  0  0  0  0  0  0
   -0.6851   -2.0977   -1.3521 H   0  0  0  0  0  0  0  0  0  0  0  0
    0.4823    1.1884   -1.4938 C   0  0  0  0  0  0  0  0  0  0  0  0
    0.5785    1.1176   -2.5781 H   0  0  0  0  0  0  0  0  0  0  0  0
   -0.4052    1.7791   -1.2671 H   0  0  0  0  0  0  0  0  0  0  0  0
    1.6939    1.9529   -0.9435 C   0  0  0  0  0  0  0  0  0  0  0  0
    2.6213    1.4603   -1.2351 H   0  0  0  0  0  0  0  0  0  0  0  0
    1.6958    2.9643   -1.3503 H   0  0  0  0  0  0  0  0  0  0  0  0
    1.6372    2.0086    0.1442 H   0  0  0  0  0  0  0  0  0  0  0  0
   -0.3971    1.3008    1.0689 C   0  0  0  0  0  0  0  0  0  0  0  0
   -1.3643    1.9819    0.7311 O   0  0  0  0  0  0  0  0  0  0  0  0
    0.5522    1.7647    1.8915 N   0  0  0  0  0  0  0  0  0  0  0  0
    1.3093    1.1450    2.1332 H   0  0  0  0  0  0  0  0  0  0  0  0
    0.5577    3.1119    2.4582 C   0  0  0  0  0  0  0  0  0  0  0  0
   -0.3986    3.3098    2.9475 H   0  0  0  0  0  0  0  0  0  0  0  0
    1.3619    3.2123    3.1886 H   0  0  0  0  0  0  0  0  0  0  0  0
    0.6974    3.8450    1.6614 H   0  0  0  0  0  0  0  0  0  0  0  0
  5  6  2  0  0  0  0
  5  7  1  0  0  0  0
  2  3  1  0  0  0  0
  2  4  1  0  0  0  0
  2  5  1  0  0  0  0
  1  2  1  0  0  0  0
 24 25  2  0  0  0  0
 24 26  1  0  0  0  0
 20 21  1  0  0  0  0
 20 22  1  0  0  0  0
 20 23  1  0  0  0  0
 17 18  1  0  0  0  0
 17 19  1  0  0  0  0
 17 20  1  0  0  0  0
 13 14  1  0  0  0  0
 13 15  1  0  0  0  0
 13 16  1  0  0  0  0
 11 12  1  0  0  0  0
 11 13  1  0  0  0  0
 11 17  1  0  0  0  0
  9 10  1  0  0  0  0
  9 11  1  0  0  0  0
  9 24  1  0  0  0  0
  7  8  1  0  0  0  0
  7  9  1  0  0  0  0
 28 29  1  0  0  0  0
 28 30  1  0  0  0  0
 28 31  1  0  0  0  0
 26 27  1  0  0  0  0
 26 28  1  0  0  0  0
M  END
$$$$
default_name
  -OEChem-02102213163D

 31 30  0     1  0  0  0  0  0999 V2000
   -3.0760   -3.6390    1.5496 H   0  0  0  0  0  0  0  0  0  0  0  0
   -3.0940   -2.6290    1.1426 C   0  0  0  0  0  0  0  0  0  0  0  0
   -3.7160   -1.9930    1.7706 H   0  0  0  0  0  0  0  0  0  0  0  0
   -3.4880   -2.6500    0.1286 H   0  0  0  0  0  0  0  0  0  0  0  0
   -1.6860   -2.0850    1.1196 C   0  0  0  0  0  0  0  0  0  0  0  0
   -0.7540   -2.7700    1.5226 O   0  0  0  0  0  0  0  0  0  0  0  0
   -1.5320   -0.8490    0.6496 N   0  0  0  0  0  0  0  0  0  0  0  0
   -2.3500   -0.3360    0.3566 H   0  0  0  0  0  0  0  0  0  0  0  0
   -0.2470   -0.1410    0.5576 C   0  0  1  0  0  0  0  0  0  0  0  0
    0.4572   -0.6505    1.2162 H   0  0  0  0  0  0  0  0  0  0  0  0
    0.3091   -0.2220   -0.8868 C   0  0  1  0  0  0  0  0  0  0  0  0
    1.3012   -0.6733   -0.8246 H   0  0  0  0  0  0  0  0  0  0  0  0
   -0.5544   -1.1123   -1.8008 C   0  0  0  0  0  0  0  0  0  0  0  0
   -1.5369   -0.6634   -1.9569 H   0  0  0  0  0  0  0  0  0  0  0  0
   -0.0681   -1.2483   -2.7655 H   0  0  0  0  0  0  0  0  0  0  0  0
   -0.6851   -2.0977   -1.3521 H   0  0  0  0  0  0  0  0  0  0  0  0
    0.4823    1.1884   -1.4938 C   0  0  0  0  0  0  0  0  0  0  0  0
    0.3133    1.1533   -2.5709 H   0  0  0  0  0  0  0  0  0  0  0  0
   -0.2600    1.8535   -1.0527 H   0  0  0  0  0  0  0  0  0  0  0  0
    1.8627    1.8069   -1.2346 C   0  0  0  0  0  0  0  0  0  0  0  0
    2.6387    1.2381   -1.7465 H   0  0  0  0  0  0  0  0  0  0  0  0
    1.8754    2.8292   -1.6131 H   0  0  0  0  0  0  0  0  0  0  0  0
    2.0691    1.8230   -0.1638 H   0  0  0  0  0  0  0  0  0  0  0  0
   -0.3971    1.3008    1.0689 C   0  0  0  0  0  0  0  0  0  0  0  0
   -1.3643    1.9819    0.7311 O   0  0  0  0  0  0  0  0  0  0  0  0
    0.5522    1.7647    1.8915 N   0  0  0  0  0  0  0  0  0  0  0  0
    1.3093    1.1450    2.1332 H   0  0  0  0  0  0  0  0  0  0  0  0
    0.5577    3.1119    2.4582 C   0  0  0  0  0  0  0  0  0  0  0  0
   -0.3986    3.3098    2.9475 H   0  0  0  0  0  0  0  0  0  0  0  0
    1.3619    3.2123    3.1886 H   0  0  0  0  0  0  0  0  0  0  0  0
    0.6974    3.8450    1.6614 H   0  0  0  0  0  0  0  0  0  0  0  0
  5  6  2  0  0  0  0
  5  7  1  0  0  0  0
  2  3  1  0  0  0  0
  2  4  1  0  0  0  0
  2  5  1  0  0  0  0
  1  2  1  0  0  0  0
 24 25  2  0  0  0  0
 24 26  1  0  0  0  0
 20 21  1  0  0  0  0
 20 22  1  0  0  0  0
 20 23  1  0  0  0  0
 17 18  1  0  0  0  0
 17 19  1  0  0  0  0
 17 20  1  0  0  0  0
 13 14  1  0  0  0  0
 13 15  1  0  0  0  0
 13 16  1  0  0  0  0
 11 12  1  0  0  0  0
 11 13  1  0  0  0  0
 11 17  1  0  0  0  0
  9 10  1  0  0  0  0
  9 11  1  0  0  0  0
  9 24  1  0  0  0  0
  7  8  1  0  0  0  0
  7  9  1  0  0  0  0
 28 29  1  0  0  0  0
 28 30  1  0  0  0  0
 28 31  1  0  0  0  0
 26 27  1  0  0  0  0
 26 28  1  0  0  0  0
M  END
$$$$
default_name
  -OEChem-02102213163D

 31 30  0     1  0  0  0  0  0999 V2000
   -3.0760   -3.6390    1.5496 H   0  0  0  0  0  0  0  0  0  0  0  0
   -3.0940   -2.6290    1.1426 C   0  0  0  0  0  0  0  0  0  0  0  0
   -3.7160   -1.9930    1.7706 H   0  0  0  0  0  0  0  0  0  0  0  0
   -3.4880   -2.6500    0.1286 H   0  0  0  0  0  0  0  0  0  0  0  0
   -1.6860   -2.0850    1.1196 C   0  0  0  0  0  0  0  0  0  0  0  0
   -0.7540   -2.7700    1.5226 O   0  0  0  0  0  0  0  0  0  0  0  0
   -1.5320   -0.8490    0.6496 N   0  0  0  0  0  0  0  0  0  0  0  0
   -2.3500   -0.3360    0.3566 H   0  0  0  0  0  0  0  0  0  0  0  0
   -0.2470   -0.1410    0.5576 C   0  0  1  0  0  0  0  0  0  0  0  0
    0.4572   -0.6505    1.2162 H   0  0  0  0  0  0  0  0  0  0  0  0
    0.3091   -0.2220   -0.8868 C   0  0  1  0  0  0  0  0  0  0  0  0
    1.3012   -0.6733   -0.8246 H   0  0  0  0  0  0  0  0  0  0  0  0
   -0.5544   -1.1123   -1.8008 C   0  0  0  0  0  0  0  0  0  0  0  0
   -1.5369   -0.6634   -1.9569 H   0  0  0  0  0  0  0  0  0  0  0  0
   -0.0681   -1.2483   -2.7655 H   0  0  0  0  0  0  0  0  0  0  0  0
   -0.6851   -2.0977   -1.3521 H   0  0  0  0  0  0  0  0  0  0  0  0
    0.4823    1.1884   -1.4938 C   0  0  0  0  0  0  0  0  0  0  0  0
    0.0625    1.2145   -2.5003 H   0  0  0  0  0  0  0  0  0  0  0  0
   -0.0615    1.9045   -0.8778 H   0  0  0  0  0  0  0  0  0  0  0  0
    1.9422    1.6571   -1.5598 C   0  0  0  0  0  0  0  0  0  0  0  0
    2.5120    1.0365   -2.2511 H   0  0  0  0  0  0  0  0  0  0  0  0
    1.9731    2.6880   -1.9134 H   0  0  0  0  0  0  0  0  0  0  0  0
    2.3946    1.6088   -0.5688 H   0  0  0  0  0  0  0  0  0  0  0  0
   -0.3971    1.3008    1.0689 C   0  0  0  0  0  0  0  0  0  0  0  0
   -1.3643    1.9819    0.7311 O   0  0  0  0  0  0  0  0  0  0  0  0
    0.5522    1.7647    1.8915 N   0  0  0  0  0  0  0  0  0  0  0  0
    1.3093    1.1450    2.1332 H   0  0  0  0  0  0  0  0  0  0  0  0
    0.5577    3.1119    2.4582 C   0  0  0  0  0  0  0  0  0  0  0  0
   -0.3986    3.3098    2.9475 H   0  0  0  0  0  0  0  0  0  0  0  0
    1.3619    3.2123    3.1886 H   0  0  0  0  0  0  0  0  0  0  0  0
    0.6974    3.8450    1.6614 H   0  0  0  0  0  0  0  0  0  0  0  0
  5  6  2  0  0  0  0
  5  7  1  0  0  0  0
  2  3  1  0  0  0  0
  2  4  1  0  0  0  0
  2  5  1  0  0  0  0
  1  2  1  0  0  0  0
 24 25  2  0  0  0  0
 24 26  1  0  0  0  0
 20 21  1  0  0  0  0
 20 22  1  0  0  0  0
 20 23  1  0  0  0  0
 17 18  1  0  0  0  0
 17 19  1  0  0  0  0
 17 20  1  0  0  0  0
 13 14  1  0  0  0  0
 13 15  1  0  0  0  0
 13 16  1  0  0  0  0
 11 12  1  0  0  0  0
 11 13  1  0  0  0  0
 11 17  1  0  0  0  0
  9 10  1  0  0  0  0
  9 11  1  0  0  0  0
  9 24  1  0  0  0  0
  7  8  1  0  0  0  0
  7  9  1  0  0  0  0
 28 29  1  0  0  0  0
 28 30  1  0  0  0  0
 28 31  1  0  0  0  0
 26 27  1  0  0  0  0
 26 28  1  0  0  0  0
M  END
$$$$
default_name
  -OEChem-02102213163D

 31 30  0     1  0  0  0  0  0999 V2000
   -3.0760   -3.6390    1.5496 H   0  0  0  0  0  0  0  0  0  0  0  0
   -3.0940   -2.6290    1.1426 C   0  0  0  0  0  0  0  0  0  0  0  0
   -3.7160   -1.9930    1.7706 H   0  0  0  0  0  0  0  0  0  0  0  0
   -3.4880   -2.6500    0.1286 H   0  0  0  0  0  0  0  0  0  0  0  0
   -1.6860   -2.0850    1.1196 C   0  0  0  0  0  0  0  0  0  0  0  0
   -0.7540   -2.7700    1.5226 O   0  0  0  0  0  0  0  0  0  0  0  0
   -1.5320   -0.8490    0.6496 N   0  0  0  0  0  0  0  0  0  0  0  0
   -2.3500   -0.3360    0.3566 H   0  0  0  0  0  0  0  0  0  0  0  0
   -0.2470   -0.1410    0.5576 C   0  0  1  0  0  0  0  0  0  0  0  0
    0.4572   -0.6505    1.2162 H   0  0  0  0  0  0  0  0  0  0  0  0
    0.3091   -0.2220   -0.8868 C   0  0  1  0  0  0  0  0  0  0  0  0
    1.3012   -0.6733   -0.8246 H   0  0  0  0  0  0  0  0  0  0  0  0
   -0.5544   -1.1123   -1.8008 C   0  0  0  0  0  0  0  0  0  0  0  0
   -1.5369   -0.6634   -1.9569 H   0  0  0  0  0  0  0  0  0  0  0  0
   -0.0681   -1.2483   -2.7655 H   0  0  0  0  0  0  0  0  0  0  0  0
   -0.6851   -2.0977   -1.3521 H   0  0  0  0  0  0  0  0  0  0  0  0
    0.4823    1.1884   -1.4938 C   0  0  0  0  0  0  0  0  0  0  0  0
   -0.1569    1.2970   -2.3711 H   0  0  0  0  0  0  0  0  0  0  0  0
    0.1767    1.9284   -0.7542 H   0  0  0  0  0  0  0  0  0  0  0  0
    1.9268    1.5138   -1.8971 C   0  0  0  0  0  0  0  0  0  0  0  0
    2.2500    0.8693   -2.7144 H   0  0  0  0  0  0  0  0  0  0  0  0
    1.9821    2.5504   -2.2305 H   0  0  0  0  0  0  0  0  0  0  0  0
    2.5917    1.3805   -1.0430 H   0  0  0  0  0  0  0  0  0  0  0  0
   -0.3971    1.3008    1.0689 C   0  0  0  0  0  0  0  0  0  0  0  0
   -1.3643    1.9819    0.7311 O   0  0  0  0  0  0  0  0  0  0  0  0
    0.5522    1.7647    1.8915 N   0  0  0  0  0  0  0  0  0  0  0  0
    1.3093    1.1450    2.1332 H   0  0  0  0  0  0  0  0  0  0  0  0
    0.5577    3.1119    2.4582 C   0  0  0  0  0  0  0  0  0  0  0  0
   -0.3986    3.3098    2.9475 H   0  0  0  0  0  0  0  0  0  0  0  0
    1.3619    3.2123    3.1886 H   0  0  0  0  0  0  0  0  0  0  0  0
    0.6974    3.8450    1.6614 H   0  0  0  0  0  0  0  0  0  0  0  0
  5  6  2  0  0  0  0
  5  7  1  0  0  0  0
  2  3  1  0  0  0  0
  2  4  1  0  0  0  0
  2  5  1  0  0  0  0
  1  2  1  0  0  0  0
 24 25  2  0  0  0  0
 24 26  1  0  0  0  0
 20 21  1  0  0  0  0
 20 22  1  0  0  0  0
 20 23  1  0  0  0  0
 17 18  1  0  0  0  0
 17 19  1  0  0  0  0
 17 20  1  0  0  0  0
 13 14  1  0  0  0  0
 13 15  1  0  0  0  0
 13 16  1  0  0  0  0
 11 12  1  0  0  0  0
 11 13  1  0  0  0  0
 11 17  1  0  0  0  0
  9 10  1  0  0  0  0
  9 11  1  0  0  0  0
  9 24  1  0  0  0  0
  7  8  1  0  0  0  0
  7  9  1  0  0  0  0
 28 29  1  0  0  0  0
 28 30  1  0  0  0  0
 28 31  1  0  0  0  0
 26 27  1  0  0  0  0
 26 28  1  0  0  0  0
M  END
$$$$
default_name
  -OEChem-02102213163D

 31 30  0     1  0  0  0  0  0999 V2000
   -3.0760   -3.6390    1.5496 H   0  0  0  0  0  0  0  0  0  0  0  0
   -3.0940   -2.6290    1.1426 C   0  0  0  0  0  0  0  0  0  0  0  0
   -3.7160   -1.9930    1.7706 H   0  0  0  0  0  0  0  0  0  0  0  0
   -3.4880   -2.6500    0.1286 H   0  0  0  0  0  0  0  0  0  0  0  0
   -1.6860   -2.0850    1.1196 C   0  0  0  0  0  0  0  0  0  0  0  0
   -0.7540   -2.7700    1.5226 O   0  0  0  0  0  0  0  0  0  0  0  0
   -1.5320   -0.8490    0.6496 N   0  0  0  0  0  0  0  0  0  0  0  0
   -2.3500   -0.3360    0.3566 H   0  0  0  0  0  0  0  0  0  0  0  0
   -0.2470   -0.1410    0.5576 C   0  0  1  0  0  0  0  0  0  0  0  0
    0.4572   -0.6505    1.2162 H   0  0  0  0  0  0  0  0  0  0  0  0
    0.3091   -0.2220   -0.8868 C   0  0  1  0  0  0  0  0  0  0  0  0
    1.3012   -0.6733   -0.8246 H   0  0  0  0  0  0  0  0  0  0  0  0
   -0.5544   -1.1123   -1.8008 C   0  0  0  0  0  0  0  0  0  0  0  0
   -1.5369   -0.6634   -1.9569 H   0  0  0  0  0  0  0  0  0  0  0  0
   -0.0681   -1.2483   -2.7655 H   0  0  0  0  0  0  0  0  0  0  0  0
   -0.6851   -2.0977   -1.3521 H   0  0  0  0  0  0  0  0  0  0  0  0
    0.4823    1.1884   -1.4938 C   0  0  0  0  0  0  0  0  0  0  0  0
   -0.3299    1.3953   -2.1920 H   0  0  0  0  0  0  0  0  0  0  0  0
    0.4384    1.9237   -0.6905 H   0  0  0  0  0  0  0  0  0  0  0  0
    1.8178    1.3868   -2.2235 C   0  0  0  0  0  0  0  0  0  0  0  0
    1.8705    0.7478   -3.1048 H   0  0  0  0  0  0  0  0  0  0  0  0
    1.9020    2.4257   -2.5430 H   0  0  0  0  0  0  0  0  0  0  0  0
    2.6467    1.1537   -1.5542 H   0  0  0  0  0  0  0  0  0  0  0  0
   -0.3971    1.3008    1.0689 C   0  0  0  0  0  0  0  0  0  0  0  0
   -1.3643    1.9819    0.7311 O   0  0  0  0  0  0  0  0  0  0  0  0
    0.5522    1.7647    1.8915 N   0  0  0  0  0  0  0  0  0  0  0  0
    1.3093    1.1450    2.1332 H   0  0  0  0  0  0  0  0  0  0  0  0
    0.5577    3.1119    2.4582 C   0  0  0  0  0  0  0  0  0  0  0  0
   -0.3986    3.3098    2.9475 H   0  0  0  0  0  0  0  0  0  0  0  0
    1.3619    3.2123    3.1886 H   0  0  0  0  0  0  0  0  0  0  0  0
    0.6974    3.8450    1.6614 H   0  0  0  0  0  0  0  0  0  0  0  0
  5  6  2  0  0  0  0
  5  7  1  0  0  0  0
  2  3  1  0  0  0  0
  2  4  1  0  0  0  0
  2  5  1  0  0  0  0
  1  2  1  0  0  0  0
 24 25  2  0  0  0  0
 24 26  1  0  0  0  0
 20 21  1  0  0  0  0
 20 22  1  0  0  0  0
 20 23  1  0  0  0  0
 17 18  1  0  0  0  0
 17 19  1  0  0  0  0
 17 20  1  0  0  0  0
 13 14  1  0  0  0  0
 13 15  1  0  0  0  0
 13 16  1  0  0  0  0
 11 12  1  0  0  0  0
 11 13  1  0  0  0  0
 11 17  1  0  0  0  0
  9 10  1  0  0  0  0
  9 11  1  0  0  0  0
  9 24  1  0  0  0  0
  7  8  1  0  0  0  0
  7  9  1  0  0  0  0
 28 29  1  0  0  0  0
 28 30  1  0  0  0  0
 28 31  1  0  0  0  0
 26 27  1  0  0  0  0
 26 28  1  0  0  0  0
M  END
$$$$
default_name
  -OEChem-02102213163D

 31 30  0     1  0  0  0  0  0999 V2000
   -3.0760   -3.6390    1.5496 H   0  0  0  0  0  0  0  0  0  0  0  0
   -3.0940   -2.6290    1.1426 C   0  0  0  0  0  0  0  0  0  0  0  0
   -3.7160   -1.9930    1.7706 H   0  0  0  0  0  0  0  0  0  0  0  0
   -3.4880   -2.6500    0.1286 H   0  0  0  0  0  0  0  0  0  0  0  0
   -1.6860   -2.0850    1.1196 C   0  0  0  0  0  0  0  0  0  0  0  0
   -0.7540   -2.7700    1.5226 O   0  0  0  0  0  0  0  0  0  0  0  0
   -1.5320   -0.8490    0.6496 N   0  0  0  0  0  0  0  0  0  0  0  0
   -2.3500   -0.3360    0.3566 H   0  0  0  0  0  0  0  0  0  0  0  0
   -0.2470   -0.1410    0.5576 C   0  0  1  0  0  0  0  0  0  0  0  0
    0.4572   -0.6505    1.2162 H   0  0  0  0  0  0  0  0  0  0  0  0
    0.3091   -0.2220   -0.8868 C   0  0  1  0  0  0  0  0  0  0  0  0
    1.3012   -0.6733   -0.8246 H   0  0  0  0  0  0  0  0  0  0  0  0
   -0.5544   -1.1123   -1.8008 C   0  0  0  0  0  0  0  0  0  0  0  0
   -1.5369   -0.6634   -1.9569 H   0  0  0  0  0  0  0  0  0  0  0  0
   -0.0681   -1.2483   -2.7655 H   0  0  0  0  0  0  0  0  0  0  0  0
   -0.6851   -2.0977   -1.3521 H   0  0  0  0  0  0  0  0  0  0  0  0
    0.4823    1.1884   -1.4938 C   0  0  0  0  0  0  0  0  0  0  0  0
   -0.4447    1.5027   -1.9753 H   0  0  0  0  0  0  0  0  0  0  0  0
    0.7058    1.8907   -0.6908 H   0  0  0  0  0  0  0  0  0  0  0  0
    1.6224    1.2846   -2.5166 C   0  0  0  0  0  0  0  0  0  0  0  0
    1.3993    0.6804   -3.3958 H   0  0  0  0  0  0  0  0  0  0  0  0
    1.7381    2.3225   -2.8295 H   0  0  0  0  0  0  0  0  0  0  0  0
    2.5561    0.9439   -2.0677 H   0  0  0  0  0  0  0  0  0  0  0  0
   -0.3971    1.3008    1.0689 C   0  0  0  0  0  0  0  0  0  0  0  0
   -1.3643    1.9819    0.7311 O   0  0  0  0  0  0  0  0  0  0  0  0
    0.5522    1.7647    1.8915 N   0  0  0  0  0  0  0  0  0  0  0  0
    1.3093    1.1450    2.1332 H   0  0  0  0  0  0  0  0  0  0  0  0
    0.5577    3.1119    2.4582 C   0  0  0  0  0  0  0  0  0  0  0  0
   -0.3986    3.3098    2.9475 H   0  0  0  0  0  0  0  0  0  0  0  0
    1.3619    3.2123    3.1886 H   0  0  0  0  0  0  0  0  0  0  0  0
    0.6974    3.8450    1.6614 H   0  0  0  0  0  0  0  0  0  0  0  0
  5  6  2  0  0  0  0
  5  7  1  0  0  0  0
  2  3  1  0  0  0  0
  2  4  1  0  0  0  0
  2  5  1  0  0  0  0
  1  2  1  0  0  0  0
 24 25  2  0  0  0  0
 24 26  1  0  0  0  0
 20 21  1  0  0  0  0
 20 22  1  0  0  0  0
 20 23  1  0  0  0  0
 17 18  1  0  0  0  0
 17 19  1  0  0  0  0
 17 20  1  0  0  0  0
 13 14  1  0  0  0  0
 13 15  1  0  0  0  0
 13 16  1  0  0  0  0
 11 12  1  0  0  0  0
 11 13  1  0  0  0  0
 11 17  1  0  0  0  0
  9 10  1  0  0  0  0
  9 11  1  0  0  0  0
  9 24  1  0  0  0  0
  7  8  1  0  0  0  0
  7  9  1  0  0  0  0
 28 29  1  0  0  0  0
 28 30  1  0  0  0  0
 28 31  1  0  0  0  0
 26 27  1  0  0  0  0
 26 28  1  0  0  0  0
M  END
$$$$
default_name
  -OEChem-02102213163D

 31 30  0     1  0  0  0  0  0999 V2000
   -3.0760   -3.6390    1.5496 H   0  0  0  0  0  0  0  0  0  0  0  0
   -3.0940   -2.6290    1.1426 C   0  0  0  0  0  0  0  0  0  0  0  0
   -3.7160   -1.9930    1.7706 H   0  0  0  0  0  0  0  0  0  0  0  0
   -3.4880   -2.6500    0.1286 H   0  0  0  0  0  0  0  0  0  0  0  0
   -1.6860   -2.0850    1.1196 C   0  0  0  0  0  0  0  0  0  0  0  0
   -0.7540   -2.7700    1.5226 O   0  0  0  0  0  0  0  0  0  0  0  0
   -1.5320   -0.8490    0.6496 N   0  0  0  0  0  0  0  0  0  0  0  0
   -2.3500   -0.3360    0.3566 H   0  0  0  0  0  0  0  0  0  0  0  0
   -0.2470   -0.1410    0.5576 C   0  0  1  0  0  0  0  0  0  0  0  0
    0.4572   -0.6505    1.2162 H   0  0  0  0  0  0  0  0  0  0  0  0
    0.3091   -0.2220   -0.8868 C   0  0  1  0  0  0  0  0  0  0  0  0
    1.3012   -0.6733   -0.8246 H   0  0  0  0  0  0  0  0  0  0  0  0
   -0.5544   -1.1123   -1.8008 C   0  0  0  0  0  0  0  0  0  0  0  0
   -1.5369   -0.6634   -1.9569 H   0  0  0  0  0  0  0  0  0  0  0  0
   -0.0681   -1.2483   -2.7655 H   0  0  0  0  0  0  0  0  0  0  0  0
   -0.6851   -2.0977   -1.3521 H   0  0  0  0  0  0  0  0  0  0  0  0
    0.4823    1.1884   -1.4938 C   0  0  0  0  0  0  0  0  0  0  0  0
   -0.4935    1.6118   -1.7358 H   0  0  0  0  0  0  0  0  0  0  0  0
    0.9606    1.8317   -0.7553 H   0  0  0  0  0  0  0  0  0  0  0  0
    1.3541    1.2142   -2.7566 C   0  0  0  0  0  0  0  0  0  0  0  0
    0.8686    0.6717   -3.5675 H   0  0  0  0  0  0  0  0  0  0  0  0
    1.5015    2.2478   -3.0705 H   0  0  0  0  0  0  0  0  0  0  0  0
    2.3259    0.7653   -2.5482 H   0  0  0  0  0  0  0  0  0  0  0  0
   -0.3971    1.3008    1.0689 C   0  0  0  0  0  0  0  0  0  0  0  0
   -1.3643    1.9819    0.7311 O   0  0  0  0  0  0  0  0  0  0  0  0
    0.5522    1.7647    1.8915 N   0  0  0  0  0  0  0  0  0  0  0  0
    1.3093    1.1450    2.1332 H   0  0  0  0  0  0  0  0  0  0  0  0
    0.5577    3.1119    2.4582 C   0  0  0  0  0  0  0  0  0  0  0  0
   -0.3986    3.3098    2.9475 H   0  0  0  0  0  0  0  0  0  0  0  0
    1.3619    3.2123    3.1886 H   0  0  0  0  0  0  0  0  0  0  0  0
    0.6974    3.8450    1.6614 H   0  0  0  0  0  0  0  0  0  0  0  0
  5  6  2  0  0  0  0
  5  7  1  0  0  0  0
  2  3  1  0  0  0  0
  2  4  1  0  0  0  0
  2  5  1  0  0  0  0
  1  2  1  0  0  0  0
 24 25  2  0  0  0  0
 24 26  1  0  0  0  0
 20 21  1  0  0  0  0
 20 22  1  0  0  0  0
 20 23  1  0  0  0  0
 17 18  1  0  0  0  0
 17 19  1  0  0  0  0
 17 20  1  0  0  0  0
 13 14  1  0  0  0  0
 13 15  1  0  0  0  0
 13 16  1  0  0  0  0
 11 12  1  0  0  0  0
 11 13  1  0  0  0  0
 11 17  1  0  0  0  0
  9 10  1  0  0  0  0
  9 11  1  0  0  0  0
  9 24  1  0  0  0  0
  7  8  1  0  0  0  0
  7  9  1  0  0  0  0
 28 29  1  0  0  0  0
 28 30  1  0  0  0  0
 28 31  1  0  0  0  0
 26 27  1  0  0  0  0
 26 28  1  0  0  0  0
M  END
$$$$
default_name
  -OEChem-02102213163D

 31 30  0     1  0  0  0  0  0999 V2000
   -3.0760   -3.6390    1.5496 H   0  0  0  0  0  0  0  0  0  0  0  0
   -3.0940   -2.6290    1.1426 C   0  0  0  0  0  0  0  0  0  0  0  0
   -3.7160   -1.9930    1.7706 H   0  0  0  0  0  0  0  0  0  0  0  0
   -3.4880   -2.6500    0.1286 H   0  0  0  0  0  0  0  0  0  0  0  0
   -1.6860   -2.0850    1.1196 C   0  0  0  0  0  0  0  0  0  0  0  0
   -0.7540   -2.7700    1.5226 O   0  0  0  0  0  0  0  0  0  0  0  0
   -1.5320   -0.8490    0.6496 N   0  0  0  0  0  0  0  0  0  0  0  0
   -2.3500   -0.3360    0.3566 H   0  0  0  0  0  0  0  0  0  0  0  0
   -0.2470   -0.1410    0.5576 C   0  0  1  0  0  0  0  0  0  0  0  0
    0.4572   -0.6505    1.2162 H   0  0  0  0  0  0  0  0  0  0  0  0
    0.3091   -0.2220   -0.8868 C   0  0  1  0  0  0  0  0  0  0  0  0
    1.1617   -0.9036   -0.8655 H   0  0  0  0  0  0  0  0  0  0  0  0
   -0.7201   -0.7898   -1.8827 C   0  0  0  0  0  0  0  0  0  0  0  0
   -1.5617   -0.1044   -1.9978 H   0  0  0  0  0  0  0  0  0  0  0  0
   -0.2569   -0.9508   -2.8549 H   0  0  0  0  0  0  0  0  0  0  0  0
   -1.0953   -1.7511   -1.5295 H   0  0  0  0  0  0  0  0  0  0  0  0
    0.8316    1.1539   -1.3574 C   0  0  0  0  0  0  0  0  0  0  0  0
    0.0313    1.8934   -1.3056 H   0  0  0  0  0  0  0  0  0  0  0  0
    1.6339    1.4709   -0.6912 H   0  0  0  0  0  0  0  0  0  0  0  0
    1.3979    1.1444   -2.7838 C   0  0  0  0  0  0  0  0  0  0  0  0
    0.6093    0.9370   -3.5068 H   0  0  0  0  0  0  0  0  0  0  0  0
    1.8250    2.1222   -3.0075 H   0  0  0  0  0  0  0  0  0  0  0  0
    2.1792    0.3885   -2.8699 H   0  0  0  0  0  0  0  0  0  0  0  0
   -0.3971    1.3008    1.0689 C   0  0  0  0  0  0  0  0  0  0  0  0
   -1.3643    1.9819    0.7311 O   0  0  0  0  0  0  0  0  0  0  0  0
    0.5522    1.7647    1.8915 N   0  0  0  0  0  0  0  0  0  0  0  0
    1.3093    1.1450    2.1332 H   0  0  0  0  0  0  0  0  0  0  0  0
    0.5577    3.1119    2.4582 C   0  0  0  0  0  0  0  0  0  0  0  0
   -0.3986    3.3098    2.9475 H   0  0  0  0  0  0  0  0  0  0  0  0
    1.3619    3.2123    3.1886 H   0  0  0  0  0  0  0  0  0  0  0  0
    0.6974    3.8450    1.6614 H   0  0  0  0  0  0  0  0  0  0  0  0
  5  6  2  0  0  0  0
  5  7  1  0  0  0  0
  2  3  1  0  0  0  0
  2  4  1  0  0  0  0
  2  5  1  0  0  0  0
  1  2  1  0  0  0  0
 24 25  2  0  0  0  0
 24 26  1  0  0  0  0
 20 21  1  0  0  0  0
 20 22  1  0  0  0  0
 20 23  1  0  0  0  0
 17 18  1  0  0  0  0
 17 19  1  0  0  0  0
 17 20  1  0  0  0  0
 13 14  1  0  0  0  0
 13 15  1  0  0  0  0
 13 16  1  0  0  0  0
 11 12  1  0  0  0  0
 11 13  1  0  0  0  0
 11 17  1  0  0  0  0
  9 10  1  0  0  0  0
  9 11  1  0  0  0  0
  9 24  1  0  0  0  0
  7  8  1  0  0  0  0
  7  9  1  0  0  0  0
 28 29  1  0  0  0  0
 28 30  1  0  0  0  0
 28 31  1  0  0  0  0
 26 27  1  0  0  0  0
 26 28  1  0  0  0  0
M  END
$$$$
default_name
  -OEChem-02102213163D

 31 30  0     1  0  0  0  0  0999 V2000
   -3.0760   -3.6390    1.5496 H   0  0  0  0  0  0  0  0  0  0  0  0
   -3.0940   -2.6290    1.1426 C   0  0  0  0  0  0  0  0  0  0  0  0
   -3.7160   -1.9930    1.7706 H   0  0  0  0  0  0  0  0  0  0  0  0
   -3.4880   -2.6500    0.1286 H   0  0  0  0  0  0  0  0  0  0  0  0
   -1.6860   -2.0850    1.1196 C   0  0  0  0  0  0  0  0  0  0  0  0
   -0.7540   -2.7700    1.5226 O   0  0  0  0  0  0  0  0  0  0  0  0
   -1.5320   -0.8490    0.6496 N   0  0  0  0  0  0  0  0  0  0  0  0
   -2.3500   -0.3360    0.3566 H   0  0  0  0  0  0  0  0  0  0  0  0
   -0.2470   -0.1410    0.5576 C   0  0  1  0  0  0  0  0  0  0  0  0
    0.4572   -0.6505    1.2162 H   0  0  0  0  0  0  0  0  0  0  0  0
    0.3091   -0.2220   -0.8868 C   0  0  1  0  0  0  0  0  0  0  0  0
    1.1617   -0.9036   -0.8655 H   0  0  0  0  0  0  0  0  0  0  0  0
   -0.7201   -0.7898   -1.8827 C   0  0  0  0  0  0  0  0  0  0  0  0
   -1.5617   -0.1044   -1.9978 H   0  0  0  0  0  0  0  0  0  0  0  0
   -0.2569   -0.9508   -2.8549 H   0  0  0  0  0  0  0  0  0  0  0  0
   -1.0953   -1.7511   -1.5295 H   0  0  0  0  0  0  0  0  0  0  0  0
    0.8316    1.1539   -1.3574 C   0  0  0  0  0  0  0  0  0  0  0  0
    0.1331    1.9381   -1.0621 H   0  0  0  0  0  0  0  0  0  0  0  0
    1.7891    1.3492   -0.8747 H   0  0  0  0  0  0  0  0  0  0  0  0
    1.0562    1.2436   -2.8729 C   0  0  0  0  0  0  0  0  0  0  0  0
    0.1088    1.1617   -3.4053 H   0  0  0  0  0  0  0  0  0  0  0  0
    1.5067    2.2069   -3.1132 H   0  0  0  0  0  0  0  0  0  0  0  0
    1.7271    0.4478   -3.1983 H   0  0  0  0  0  0  0  0  0  0  0  0
   -0.3971    1.3008    1.0689 C   0  0  0  0  0  0  0  0  0  0  0  0
   -1.3643    1.9819    0.7311 O   0  0  0  0  0  0  0  0  0  0  0  0
    0.5522    1.7647    1.8915 N   0  0  0  0  0  0  0  0  0  0  0  0
    1.3093    1.1450    2.1332 H   0  0  0  0  0  0  0  0  0  0  0  0
    0.5577    3.1119    2.4582 C   0  0  0  0  0  0  0  0  0  0  0  0
   -0.3986    3.3098    2.9475 H   0  0  0  0  0  0  0  0  0  0  0  0
    1.3619    3.2123    3.1886 H   0  0  0  0  0  0  0  0  0  0  0  0
    0.6974    3.8450    1.6614 H   0  0  0  0  0  0  0  0  0  0  0  0
  5  6  2  0  0  0  0
  5  7  1  0  0  0  0
  2  3  1  0  0  0  0
  2  4  1  0  0  0  0
  2  5  1  0  0  0  0
  1  2  1  0  0  0  0
 24 25  2  0  0  0  0
 24 26  1  0  0  0  0
 20 21  1  0  0  0  0
 20 22  1  0  0  0  0
 20 23  1  0  0  0  0
 17 18  1  0  0  0  0
 17 19  1  0  0  0  0
 17 20  1  0  0  0  0
 13 14  1  0  0  0  0
 13 15  1  0  0  0  0
 13 16  1  0  0  0  0
 11 12  1  0  0  0  0
 11 13  1  0  0  0  0
 11 17  1  0  0  0  0
  9 10  1  0  0  0  0
  9 11  1  0  0  0  0
  9 24  1  0  0  0  0
  7  8  1  0  0  0  0
  7  9  1  0  0  0  0
 28 29  1  0  0  0  0
 28 30  1  0  0  0  0
 28 31  1  0  0  0  0
 26 27  1  0  0  0  0
 26 28  1  0  0  0  0
M  END
$$$$
default_name
  -OEChem-02102213163D

 31 30  0     1  0  0  0  0  0999 V2000
   -3.0760   -3.6390    1.5496 H   0  0  0  0  0  0  0  0  0  0  0  0
   -3.0940   -2.6290    1.1426 C   0  0  0  0  0  0  0  0  0  0  0  0
   -3.7160   -1.9930    1.7706 H   0  0  0  0  0  0  0  0  0  0  0  0
   -3.4880   -2.6500    0.1286 H   0  0  0  0  0  0  0  0  0  0  0  0
   -1.6860   -2.0850    1.1196 C   0  0  0  0  0  0  0  0  0  0  0  0
   -0.7540   -2.7700    1.5226 O   0  0  0  0  0  0  0  0  0  0  0  0
   -1.5320   -0.8490    0.6496 N   0  0  0  0  0  0  0  0  0  0  0  0
   -2.3500   -0.3360    0.3566 H   0  0  0  0  0  0  0  0  0  0  0  0
   -0.2470   -0.1410    0.5576 C   0  0  1  0  0  0  0  0  0  0  0  0
    0.4572   -0.6505    1.2162 H   0  0  0  0  0  0  0  0  0  0  0  0
    0.3091   -0.2220   -0.8868 C   0  0  1  0  0  0  0  0  0  0  0  0
    1.1617   -0.9036   -0.8655 H   0  0  0  0  0  0  0  0  0  0  0  0
   -0.7201   -0.7898   -1.8827 C   0  0  0  0  0  0  0  0  0  0  0  0
   -1.5617   -0.1044   -1.9978 H   0  0  0  0  0  0  0  0  0  0  0  0
   -0.2569   -0.9508   -2.8549 H   0  0  0  0  0  0  0  0  0  0  0  0
   -1.0953   -1.7511   -1.5295 H   0  0  0  0  0  0  0  0  0  0  0  0
    0.8316    1.1539   -1.3574 C   0  0  0  0  0  0  0  0  0  0  0  0
    0.2911    1.9519   -0.8464 H   0  0  0  0  0  0  0  0  0  0  0  0
    1.8872    1.2355   -1.0984 H   0  0  0  0  0  0  0  0  0  0  0  0
    0.7135    1.3742   -2.8716 C   0  0  0  0  0  0  0  0  0  0  0  0
   -0.3335    1.4094   -3.1723 H   0  0  0  0  0  0  0  0  0  0  0  0
    1.1817    2.3230   -3.1345 H   0  0  0  0  0  0  0  0  0  0  0  0
    1.2193    0.5695   -3.4062 H   0  0  0  0  0  0  0  0  0  0  0  0
   -0.3971    1.3008    1.0689 C   0  0  0  0  0  0  0  0  0  0  0  0
   -1.3643    1.9819    0.7311 O   0  0  0  0  0  0  0  0  0  0  0  0
    0.5522    1.7647    1.8915 N   0  0  0  0  0  0  0  0  0  0  0  0
    1.3093    1.1450    2.1332 H   0  0  0  0  0  0  0  0  0  0  0  0
    0.5577    3.1119    2.4582 C   0  0  0  0  0  0  0  0  0  0  0  0
   -0.3986    3.3098    2.9475 H   0  0  0  0  0  0  0  0  0  0  0  0
    1.3619    3.2123    3.1886 H   0  0  0  0  0  0  0  0  0  0  0  0
    0.6974    3.8450    1.6614 H   0  0  0  0  0  0  0  0  0  0  0  0
  5  6  2  0  0  0  0
  5  7  1  0  0  0  0
  2  3  1  0  0  0  0
  2  4  1  0  0  0  0
  2  5  1  0  0  0  0
  1  2  1  0  0  0  0
 24 25  2  0  0  0  0
 24 26  1  0  0  0  0
 20 21  1  0  0  0  0
 20 22  1  0  0  0  0
 20 23  1  0  0  0  0
 17 18  1  0  0  0  0
 17 19  1  0  0  0  0
 17 20  1  0  0  0  0
 13 14  1  0  0  0  0
 13 15  1  0  0  0  0
 13 16  1  0  0  0  0
 11 12  1  0  0  0  0
 11 13  1  0  0  0  0
 11 17  1  0  0  0  0
  9 10  1  0  0  0  0
  9 11  1  0  0  0  0
  9 24  1  0  0  0  0
  7  8  1  0  0  0  0
  7  9  1  0  0  0  0
 28 29  1  0  0  0  0
 28 30  1  0  0  0  0
 28 31  1  0  0  0  0
 26 27  1  0  0  0  0
 26 28  1  0  0  0  0
M  END
$$$$
default_name
  -OEChem-02102213163D

 31 30  0     1  0  0  0  0  0999 V2000
   -3.0760   -3.6390    1.5496 H   0  0  0  0  0  0  0  0  0  0  0  0
   -3.0940   -2.6290    1.1426 C   0  0  0  0  0  0  0  0  0  0  0  0
   -3.7160   -1.9930    1.7706 H   0  0  0  0  0  0  0  0  0  0  0  0
   -3.4880   -2.6500    0.1286 H   0  0  0  0  0  0  0  0  0  0  0  0
   -1.6860   -2.0850    1.1196 C   0  0  0  0  0  0  0  0  0  0  0  0
   -0.7540   -2.7700    1.5226 O   0  0  0  0  0  0  0  0  0  0  0  0
   -1.5320   -0.8490    0.6496 N   0  0  0  0  0  0  0  0  0  0  0  0
   -2.3500   -0.3360    0.3566 H   0  0  0  0  0  0  0  0  0  0  0  0
   -0.2470   -0.1410    0.5576 C   0  0  1  0  0  0  0  0  0  0  0  0
    0.4572   -0.6505    1.2162 H   0  0  0  0  0  0  0  0  0  0  0  0
    0.3091   -0.2220   -0.8868 C   0  0  1  0  0  0  0  0  0  0  0  0
    1.1617   -0.9036   -0.8655 H   0  0  0  0  0  0  0  0  0  0  0  0
   -0.7201   -0.7898   -1.8827 C   0  0  0  0  0  0  0  0  0  0  0  0
   -1.5617   -0.1044   -1.9978 H   0  0  0  0  0  0  0  0  0  0  0  0
   -0.2569   -0.9508   -2.8549 H   0  0  0  0  0  0  0  0  0  0  0  0
   -1.0953   -1.7511   -1.5295 H   0  0  0  0  0  0  0  0  0  0  0  0
    0.8316    1.1539   -1.3574 C   0  0  0  0  0  0  0  0  0  0  0  0
    0.4945    1.9338   -0.6733 H   0  0  0  0  0  0  0  0  0  0  0  0
    1.9213    1.1375   -1.3470 H   0  0  0  0  0  0  0  0  0  0  0  0
    0.3930    1.5272   -2.7800 C   0  0  0  0  0  0  0  0  0  0  0  0
   -0.6875    1.6630   -2.8236 H   0  0  0  0  0  0  0  0  0  0  0  0
    0.8719    2.4627   -3.0700 H   0  0  0  0  0  0  0  0  0  0  0  0
    0.6906    0.7452   -3.4794 H   0  0  0  0  0  0  0  0  0  0  0  0
   -0.3971    1.3008    1.0689 C   0  0  0  0  0  0  0  0  0  0  0  0
   -1.3643    1.9819    0.7311 O   0  0  0  0  0  0  0  0  0  0  0  0
    0.5522    1.7647    1.8915 N   0  0  0  0  0  0  0  0  0  0  0  0
    1.3093    1.1450    2.1332 H   0  0  0  0  0  0  0  0  0  0  0  0
    0.5577    3.1119    2.4582 C   0  0  0  0  0  0  0  0  0  0  0  0
   -0.3986    3.3098    2.9475 H   0  0  0  0  0  0  0  0  0  0  0  0
    1.3619    3.2123    3.1886 H   0  0  0  0  0  0  0  0  0  0  0  0
    0.6974    3.8450    1.6614 H   0  0  0  0  0  0  0  0  0  0  0  0
  5  6  2  0  0  0  0
  5  7  1  0  0  0  0
  2  3  1  0  0  0  0
  2  4  1  0  0  0  0
  2  5  1  0  0  0  0
  1  2  1  0  0  0  0
 24 25  2  0  0  0  0
 24 26  1  0  0  0  0
 20 21  1  0  0  0  0
 20 22  1  0  0  0  0
 20 23  1  0  0  0  0
 17 18  1  0  0  0  0
 17 19  1  0  0  0  0
 17 20  1  0  0  0  0
 13 14  1  0  0  0  0
 13 15  1  0  0  0  0
 13 16  1  0  0  0  0
 11 12  1  0  0  0  0
 11 13  1  0  0  0  0
 11 17  1  0  0  0  0
  9 10  1  0  0  0  0
  9 11  1  0  0  0  0
  9 24  1  0  0  0  0
  7  8  1  0  0  0  0
  7  9  1  0  0  0  0
 28 29  1  0  0  0  0
 28 30  1  0  0  0  0
 28 31  1  0  0  0  0
 26 27  1  0  0  0  0
 26 28  1  0  0  0  0
M  END
$$$$
default_name
  -OEChem-02102213163D

 31 30  0     1  0  0  0  0  0999 V2000
   -3.0760   -3.6390    1.5496 H   0  0  0  0  0  0  0  0  0  0  0  0
   -3.0940   -2.6290    1.1426 C   0  0  0  0  0  0  0  0  0  0  0  0
   -3.7160   -1.9930    1.7706 H   0  0  0  0  0  0  0  0  0  0  0  0
   -3.4880   -2.6500    0.1286 H   0  0  0  0  0  0  0  0  0  0  0  0
   -1.6860   -2.0850    1.1196 C   0  0  0  0  0  0  0  0  0  0  0  0
   -0.7540   -2.7700    1.5226 O   0  0  0  0  0  0  0  0  0  0  0  0
   -1.5320   -0.8490    0.6496 N   0  0  0  0  0  0  0  0  0  0  0  0
   -2.3500   -0.3360    0.3566 H   0  0  0  0  0  0  0  0  0  0  0  0
   -0.2470   -0.1410    0.5576 C   0  0  1  0  0  0  0  0  0  0  0  0
    0.4572   -0.6505    1.2162 H   0  0  0  0  0  0  0  0  0  0  0  0
    0.3091   -0.2220   -0.8868 C   0  0  1  0  0  0  0  0  0  0  0  0
    1.1617   -0.9036   -0.8655 H   0  0  0  0  0  0  0  0  0  0  0  0
   -0.7201   -0.7898   -1.8827 C   0  0  0  0  0  0  0  0  0  0  0  0
   -1.5617   -0.1044   -1.9978 H   0  0  0  0  0  0  0  0  0  0  0  0
   -0.2569   -0.9508   -2.8549 H   0  0  0  0  0  0  0  0  0  0  0  0
   -1.0953   -1.7511   -1.5295 H   0  0  0  0  0  0  0  0  0  0  0  0
    0.8316    1.1539   -1.3574 C   0  0  0  0  0  0  0  0  0  0  0  0
    0.7294    1.8853   -0.5545 H   0  0  0  0  0  0  0  0  0  0  0  0
    1.8894    1.0619   -1.6036 H   0  0  0  0  0  0  0  0  0  0  0  0
    0.1166    1.6923   -2.6042 C   0  0  0  0  0  0  0  0  0  0  0  0
   -0.9291    1.9054   -2.3830 H   0  0  0  0  0  0  0  0  0  0  0  0
    0.5986    2.6164   -2.9240 H   0  0  0  0  0  0  0  0  0  0  0  0
    0.1768    0.9630   -3.4128 H   0  0  0  0  0  0  0  0  0  0  0  0
   -0.3971    1.3008    1.0689 C   0  0  0  0  0  0  0  0  0  0  0  0
   -1.3643    1.9819    0.7311 O   0  0  0  0  0  0  0  0  0  0  0  0
    0.5522    1.7647    1.8915 N   0  0  0  0  0  0  0  0  0  0  0  0
    1.3093    1.1450    2.1332 H   0  0  0  0  0  0  0  0  0  0  0  0
    0.5577    3.1119    2.4582 C   0  0  0  0  0  0  0  0  0  0  0  0
   -0.3986    3.3098    2.9475 H   0  0  0  0  0  0  0  0  0  0  0  0
    1.3619    3.2123    3.1886 H   0  0  0  0  0  0  0  0  0  0  0  0
    0.6974    3.8450    1.6614 H   0  0  0  0  0  0  0  0  0  0  0  0
  5  6  2  0  0  0  0
  5  7  1  0  0  0  0
  2  3  1  0  0  0  0
  2  4  1  0  0  0  0
  2  5  1  0  0  0  0
  1  2  1  0  0  0  0
 24 25  2  0  0  0  0
 24 26  1  0  0  0  0
 20 21  1  0  0  0  0
 20 22  1  0  0  0  0
 20 23  1  0  0  0  0
 17 18  1  0  0  0  0
 17 19  1  0  0  0  0
 17 20  1  0  0  0  0
 13 14  1  0  0  0  0
 13 15  1  0  0  0  0
 13 16  1  0  0  0  0
 11 12  1  0  0  0  0
 11 13  1  0  0  0  0
 11 17  1  0  0  0  0
  9 10  1  0  0  0  0
  9 11  1  0  0  0  0
  9 24  1  0  0  0  0
  7  8  1  0  0  0  0
  7  9  1  0  0  0  0
 28 29  1  0  0  0  0
 28 30  1  0  0  0  0
 28 31  1  0  0  0  0
 26 27  1  0  0  0  0
 26 28  1  0  0  0  0
M  END
$$$$
default_name
  -OEChem-02102213163D

 31 30  0     1  0  0  0  0  0999 V2000
   -3.0760   -3.6390    1.5496 H   0  0  0  0  0  0  0  0  0  0  0  0
   -3.0940   -2.6290    1.1426 C   0  0  0  0  0  0  0  0  0  0  0  0
   -3.7160   -1.9930    1.7706 H   0  0  0  0  0  0  0  0  0  0  0  0
   -3.4880   -2.6500    0.1286 H   0  0  0  0  0  0  0  0  0  0  0  0
   -1.6860   -2.0850    1.1196 C   0  0  0  0  0  0  0  0  0  0  0  0
   -0.7540   -2.7700    1.5226 O   0  0  0  0  0  0  0  0  0  0  0  0
   -1.5320   -0.8490    0.6496 N   0  0  0  0  0  0  0  0  0  0  0  0
   -2.3500   -0.3360    0.3566 H   0  0  0  0  0  0  0  0  0  0  0  0
   -0.2470   -0.1410    0.5576 C   0  0  1  0  0  0  0  0  0  0  0  0
    0.4572   -0.6505    1.2162 H   0  0  0  0  0  0  0  0  0  0  0  0
    0.3091   -0.2220   -0.8868 C   0  0  1  0  0  0  0  0  0  0  0  0
    1.1617   -0.9036   -0.8655 H   0  0  0  0  0  0  0  0  0  0  0  0
   -0.7201   -0.7898   -1.8827 C   0  0  0  0  0  0  0  0  0  0  0  0
   -1.5617   -0.1044   -1.9978 H   0  0  0  0  0  0  0  0  0  0  0  0
   -0.2569   -0.9508   -2.8549 H   0  0  0  0  0  0  0  0  0  0  0  0
   -1.0953   -1.7511   -1.5295 H   0  0  0  0  0  0  0  0  0  0  0  0
    0.8316    1.1539   -1.3574 C   0  0  0  0  0  0  0  0  0  0  0  0
    0.9798    1.8094   -0.4982 H   0  0  0  0  0  0  0  0  0  0  0  0
    1.7934    1.0138   -1.8507 H   0  0  0  0  0  0  0  0  0  0  0  0
   -0.0968    1.8581   -2.3562 C   0  0  0  0  0  0  0  0  0  0  0  0
   -1.0418    2.1201   -1.8806 H   0  0  0  0  0  0  0  0  0  0  0  0
    0.3804    2.7736   -2.7067 H   0  0  0  0  0  0  0  0  0  0  0  0
   -0.2869    1.2081   -3.2110 H   0  0  0  0  0  0  0  0  0  0  0  0
   -0.3971    1.3008    1.0689 C   0  0  0  0  0  0  0  0  0  0  0  0
   -1.3643    1.9819    0.7311 O   0  0  0  0  0  0  0  0  0  0  0  0
    0.5522    1.7647    1.8915 N   0  0  0  0  0  0  0  0  0  0  0  0
    1.3093    1.1450    2.1332 H   0  0  0  0  0  0  0  0  0  0  0  0
    0.5577    3.1119    2.4582 C   0  0  0  0  0  0  0  0  0  0  0  0
   -0.3986    3.3098    2.9475 H   0  0  0  0  0  0  0  0  0  0  0  0
    1.3619    3.2123    3.1886 H   0  0  0  0  0  0  0  0  0  0  0  0
    0.6974    3.8450    1.6614 H   0  0  0  0  0  0  0  0  0  0  0  0
  5  6  2  0  0  0  0
  5  7  1  0  0  0  0
  2  3  1  0  0  0  0
  2  4  1  0  0  0  0
  2  5  1  0  0  0  0
  1  2  1  0  0  0  0
 24 25  2  0  0  0  0
 24 26  1  0  0  0  0
 20 21  1  0  0  0  0
 20 22  1  0  0  0  0
 20 23  1  0  0  0  0
 17 18  1  0  0  0  0
 17 19  1  0  0  0  0
 17 20  1  0  0  0  0
 13 14  1  0  0  0  0
 13 15  1  0  0  0  0
 13 16  1  0  0  0  0
 11 12  1  0  0  0  0
 11 13  1  0  0  0  0
 11 17  1  0  0  0  0
  9 10  1  0  0  0  0
  9 11  1  0  0  0  0
  9 24  1  0  0  0  0
  7  8  1  0  0  0  0
  7  9  1  0  0  0  0
 28 29  1  0  0  0  0
 28 30  1  0  0  0  0
 28 31  1  0  0  0  0
 26 27  1  0  0  0  0
 26 28  1  0  0  0  0
M  END
$$$$
default_name
  -OEChem-02102213163D

 31 30  0     1  0  0  0  0  0999 V2000
   -3.0760   -3.6390    1.5496 H   0  0  0  0  0  0  0  0  0  0  0  0
   -3.0940   -2.6290    1.1426 C   0  0  0  0  0  0  0  0  0  0  0  0
   -3.7160   -1.9930    1.7706 H   0  0  0  0  0  0  0  0  0  0  0  0
   -3.4880   -2.6500    0.1286 H   0  0  0  0  0  0  0  0  0  0  0  0
   -1.6860   -2.0850    1.1196 C   0  0  0  0  0  0  0  0  0  0  0  0
   -0.7540   -2.7700    1.5226 O   0  0  0  0  0  0  0  0  0  0  0  0
   -1.5320   -0.8490    0.6496 N   0  0  0  0  0  0  0  0  0  0  0  0
   -2.3500   -0.3360    0.3566 H   0  0  0  0  0  0  0  0  0  0  0  0
   -0.2470   -0.1410    0.5576 C   0  0  1  0  0  0  0  0  0  0  0  0
    0.4572   -0.6505    1.2162 H   0  0  0  0  0  0  0  0  0  0  0  0
    0.3091   -0.2220   -0.8868 C   0  0  1  0  0  0  0  0  0  0  0  0
    1.1617   -0.9036   -0.8655 H   0  0  0  0  0  0  0  0  0  0  0  0
   -0.7201   -0.7898   -1.8827 C   0  0  0  0  0  0  0  0  0  0  0  0
   -1.5617   -0.1044   -1.9978 H   0  0  0  0  0  0  0  0  0  0  0  0
   -0.2569   -0.9508   -2.8549 H   0  0  0  0  0  0  0  0  0  0  0  0
   -1.0953   -1.7511   -1.5295 H   0  0  0  0  0  0  0  0  0  0  0  0
    0.8316    1.1539   -1.3574 C   0  0  0  0  0  0  0  0  0  0  0  0
    1.2288    1.7115   -0.5082 H   0  0  0  0  0  0  0  0  0  0  0  0
    1.6399    0.9966   -2.0715 H   0  0  0  0  0  0  0  0  0  0  0  0
   -0.2328    2.0134   -2.0530 C   0  0  0  0  0  0  0  0  0  0  0  0
   -1.0179    2.2923   -1.3505 H   0  0  0  0  0  0  0  0  0  0  0  0
    0.2320    2.9236   -2.4326 H   0  0  0  0  0  0  0  0  0  0  0  0
   -0.6690    1.4638   -2.8877 H   0  0  0  0  0  0  0  0  0  0  0  0
   -0.3971    1.3008    1.0689 C   0  0  0  0  0  0  0  0  0  0  0  0
   -1.3643    1.9819    0.7311 O   0  0  0  0  0  0  0  0  0  0  0  0
    0.5522    1.7647    1.8915 N   0  0  0  0  0  0  0  0  0  0  0  0
    1.3093    1.1450    2.1332 H   0  0  0  0  0  0  0  0  0  0  0  0
    0.5577    3.1119    2.4582 C   0  0  0  0  0  0  0  0  0  0  0  0
   -0.3986    3.3098    2.9475 H   0  0  0  0  0  0  0  0  0  0  0  0
    1.3619    3.2123    3.1886 H   0  0  0  0  0  0  0  0  0  0  0  0
    0.6974    3.8450    1.6614 H   0  0  0  0  0  0  0  0  0  0  0  0
  5  6  2  0  0  0  0
  5  7  1  0  0  0  0
  2  3  1  0  0  0  0
  2  4  1  0  0  0  0
  2  5  1  0  0  0  0
  1  2  1  0  0  0  0
 24 25  2  0  0  0  0
 24 26  1  0  0  0  0
 20 21  1  0  0  0  0
 20 22  1  0  0  0  0
 20 23  1  0  0  0  0
 17 18  1  0  0  0  0
 17 19  1  0  0  0  0
 17 20  1  0  0  0  0
 13 14  1  0  0  0  0
 13 15  1  0  0  0  0
 13 16  1  0  0  0  0
 11 12  1  0  0  0  0
 11 13  1  0  0  0  0
 11 17  1  0  0  0  0
  9 10  1  0  0  0  0
  9 11  1  0  0  0  0
  9 24  1  0  0  0  0
  7  8  1  0  0  0  0
  7  9  1  0  0  0  0
 28 29  1  0  0  0  0
 28 30  1  0  0  0  0
 28 31  1  0  0  0  0
 26 27  1  0  0  0  0
 26 28  1  0  0  0  0
M  END
$$$$
default_name
  -OEChem-02102213163D

 31 30  0     1  0  0  0  0  0999 V2000
   -3.0760   -3.6390    1.5496 H   0  0  0  0  0  0  0  0  0  0  0  0
   -3.0940   -2.6290    1.1426 C   0  0  0  0  0  0  0  0  0  0  0  0
   -3.7160   -1.9930    1.7706 H   0  0  0  0  0  0  0  0  0  0  0  0
   -3.4880   -2.6500    0.1286 H   0  0  0  0  0  0  0  0  0  0  0  0
   -1.6860   -2.0850    1.1196 C   0  0  0  0  0  0  0  0  0  0  0  0
   -0.7540   -2.7700    1.5226 O   0  0  0  0  0  0  0  0  0  0  0  0
   -1.5320   -0.8490    0.6496 N   0  0  0  0  0  0  0  0  0  0  0  0
   -2.3500   -0.3360    0.3566 H   0  0  0  0  0  0  0  0  0  0  0  0
   -0.2470   -0.1410    0.5576 C   0  0  1  0  0  0  0  0  0  0  0  0
    0.4572   -0.6505    1.2162 H   0  0  0  0  0  0  0  0  0  0  0  0
    0.3091   -0.2220   -0.8868 C   0  0  1  0  0  0  0  0  0  0  0  0
    1.1617   -0.9036   -0.8655 H   0  0  0  0  0  0  0  0  0  0  0  0
   -0.7201   -0.7898   -1.8827 C   0  0  0  0  0  0  0  0  0  0  0  0
   -1.5617   -0.1044   -1.9978 H   0  0  0  0  0  0  0  0  0  0  0  0
   -0.2569   -0.9508   -2.8549 H   0  0  0  0  0  0  0  0  0  0  0  0
   -1.0953   -1.7511   -1.5295 H   0  0  0  0  0  0  0  0  0  0  0  0
    0.8316    1.1539   -1.3574 C   0  0  0  0  0  0  0  0  0  0  0  0
    1.4592    1.5982   -0.5837 H   0  0  0  0  0  0  0  0  0  0  0  0
    1.4394    1.0114   -2.2509 H   0  0  0  0  0  0  0  0  0  0  0  0
   -0.2819    2.1476   -1.7152 C   0  0  0  0  0  0  0  0  0  0  0  0
   -0.8591    2.4104   -0.8288 H   0  0  0  0  0  0  0  0  0  0  0  0
    0.1637    3.0563   -2.1206 H   0  0  0  0  0  0  0  0  0  0  0  0
   -0.9435    1.7125   -2.4651 H   0  0  0  0  0  0  0  0  0  0  0  0
   -0.3971    1.3008    1.0689 C   0  0  0  0  0  0  0  0  0  0  0  0
   -1.3643    1.9819    0.7311 O   0  0  0  0  0  0  0  0  0  0  0  0
    0.5522    1.7647    1.8915 N   0  0  0  0  0  0  0  0  0  0  0  0
    1.3093    1.1450    2.1332 H   0  0  0  0  0  0  0  0  0  0  0  0
    0.5577    3.1119    2.4582 C   0  0  0  0  0  0  0  0  0  0  0  0
   -0.3986    3.3098    2.9475 H   0  0  0  0  0  0  0  0  0  0  0  0
    1.3619    3.2123    3.1886 H   0  0  0  0  0  0  0  0  0  0  0  0
    0.6974    3.8450    1.6614 H   0  0  0  0  0  0  0  0  0  0  0  0
  5  6  2  0  0  0  0
  5  7  1  0  0  0  0
  2  3  1  0  0  0  0
  2  4  1  0  0  0  0
  2  5  1  0  0  0  0
  1  2  1  0  0  0  0
 24 25  2  0  0  0  0
 24 26  1  0  0  0  0
 20 21  1  0  0  0  0
 20 22  1  0  0  0  0
 20 23  1  0  0  0  0
 17 18  1  0  0  0  0
 17 19  1  0  0  0  0
 17 20  1  0  0  0  0
 13 14  1  0  0  0  0
 13 15  1  0  0  0  0
 13 16  1  0  0  0  0
 11 12  1  0  0  0  0
 11 13  1  0  0  0  0
 11 17  1  0  0  0  0
  9 10  1  0  0  0  0
  9 11  1  0  0  0  0
  9 24  1  0  0  0  0
  7  8  1  0  0  0  0
  7  9  1  0  0  0  0
 28 29  1  0  0  0  0
 28 30  1  0  0  0  0
 28 31  1  0  0  0  0
 26 27  1  0  0  0  0
 26 28  1  0  0  0  0
M  END
$$$$
default_name
  -OEChem-02102213163D

 31 30  0     1  0  0  0  0  0999 V2000
   -3.0760   -3.6390    1.5496 H   0  0  0  0  0  0  0  0  0  0  0  0
   -3.0940   -2.6290    1.1426 C   0  0  0  0  0  0  0  0  0  0  0  0
   -3.7160   -1.9930    1.7706 H   0  0  0  0  0  0  0  0  0  0  0  0
   -3.4880   -2.6500    0.1286 H   0  0  0  0  0  0  0  0  0  0  0  0
   -1.6860   -2.0850    1.1196 C   0  0  0  0  0  0  0  0  0  0  0  0
   -0.7540   -2.7700    1.5226 O   0  0  0  0  0  0  0  0  0  0  0  0
   -1.5320   -0.8490    0.6496 N   0  0  0  0  0  0  0  0  0  0  0  0
   -2.3500   -0.3360    0.3566 H   0  0  0  0  0  0  0  0  0  0  0  0
   -0.2470   -0.1410    0.5576 C   0  0  1  0  0  0  0  0  0  0  0  0
    0.4572   -0.6505    1.2162 H   0  0  0  0  0  0  0  0  0  0  0  0
    0.3091   -0.2220   -0.8868 C   0  0  1  0  0  0  0  0  0  0  0  0
    1.1617   -0.9036   -0.8655 H   0  0  0  0  0  0  0  0  0  0  0  0
   -0.7201   -0.7898   -1.8827 C   0  0  0  0  0  0  0  0  0  0  0  0
   -1.5617   -0.1044   -1.9978 H   0  0  0  0  0  0  0  0  0  0  0  0
   -0.2569   -0.9508   -2.8549 H   0  0  0  0  0  0  0  0  0  0  0  0
   -1.0953   -1.7511   -1.5295 H   0  0  0  0  0  0  0  0  0  0  0  0
    0.8316    1.1539   -1.3574 C   0  0  0  0  0  0  0  0  0  0  0  0
    1.6554    1.4772   -0.7197 H   0  0  0  0  0  0  0  0  0  0  0  0
    1.2056    1.0571   -2.3766 H   0  0  0  0  0  0  0  0  0  0  0  0
   -0.2410    2.2516   -1.3658 C   0  0  0  0  0  0  0  0  0  0  0  0
   -0.5762    2.4663   -0.3513 H   0  0  0  0  0  0  0  0  0  0  0  0
    0.1802    3.1625   -1.7919 H   0  0  0  0  0  0  0  0  0  0  0  0
   -1.0915    1.9374   -1.9718 H   0  0  0  0  0  0  0  0  0  0  0  0
   -0.3971    1.3008    1.0689 C   0  0  0  0  0  0  0  0  0  0  0  0
   -1.3643    1.9819    0.7311 O   0  0  0  0  0  0  0  0  0  0  0  0
    0.5522    1.7647    1.8915 N   0  0  0  0  0  0  0  0  0  0  0  0
    1.3093    1.1450    2.1332 H   0  0  0  0  0  0  0  0  0  0  0  0
    0.5577    3.1119    2.4582 C   0  0  0  0  0  0  0  0  0  0  0  0
   -0.3986    3.3098    2.9475 H   0  0  0  0  0  0  0  0  0  0  0  0
    1.3619    3.2123    3.1886 H   0  0  0  0  0  0  0  0  0  0  0  0
    0.6974    3.8450    1.6614 H   0  0  0  0  0  0  0  0  0  0  0  0
  5  6  2  0  0  0  0
  5  7  1  0  0  0  0
  2  3  1  0  0  0  0
  2  4  1  0  0  0  0
  2  5  1  0  0  0  0
  1  2  1  0  0  0  0
 24 25  2  0  0  0  0
 24 26  1  0  0  0  0
 20 21  1  0  0  0  0
 20 22  1  0  0  0  0
 20 23  1  0  0  0  0
 17 18  1  0  0  0  0
 17 19  1  0  0  0  0
 17 20  1  0  0  0  0
 13 14  1  0  0  0  0
 13 15  1  0  0  0  0
 13 16  1  0  0  0  0
 11 12  1  0  0  0  0
 11 13  1  0  0  0  0
 11 17  1  0  0  0  0
  9 10  1  0  0  0  0
  9 11  1  0  0  0  0
  9 24  1  0  0  0  0
  7  8  1  0  0  0  0
  7  9  1  0  0  0  0
 28 29  1  0  0  0  0
 28 30  1  0  0  0  0
 28 31  1  0  0  0  0
 26 27  1  0  0  0  0
 26 28  1  0  0  0  0
M  END
$$$$
default_name
  -OEChem-02102213163D

 31 30  0     1  0  0  0  0  0999 V2000
   -3.0760   -3.6390    1.5496 H   0  0  0  0  0  0  0  0  0  0  0  0
   -3.0940   -2.6290    1.1426 C   0  0  0  0  0  0  0  0  0  0  0  0
   -3.7160   -1.9930    1.7706 H   0  0  0  0  0  0  0  0  0  0  0  0
   -3.4880   -2.6500    0.1286 H   0  0  0  0  0  0  0  0  0  0  0  0
   -1.6860   -2.0850    1.1196 C   0  0  0  0  0  0  0  0  0  0  0  0
   -0.7540   -2.7700    1.5226 O   0  0  0  0  0  0  0  0  0  0  0  0
   -1.5320   -0.8490    0.6496 N   0  0  0  0  0  0  0  0  0  0  0  0
   -2.3500   -0.3360    0.3566 H   0  0  0  0  0  0  0  0  0  0  0  0
   -0.2470   -0.1410    0.5576 C   0  0  1  0  0  0  0  0  0  0  0  0
    0.4572   -0.6505    1.2162 H   0  0  0  0  0  0  0  0  0  0  0  0
    0.3091   -0.2220   -0.8868 C   0  0  1  0  0  0  0  0  0  0  0  0
    1.1617   -0.9036   -0.8655 H   0  0  0  0  0  0  0  0  0  0  0  0
   -0.7201   -0.7898   -1.8827 C   0  0  0  0  0  0  0  0  0  0  0  0
   -1.5617   -0.1044   -1.9978 H   0  0  0  0  0  0  0  0  0  0  0  0
   -0.2569   -0.9508   -2.8549 H   0  0  0  0  0  0  0  0  0  0  0  0
   -1.0953   -1.7511   -1.5295 H   0  0  0  0  0  0  0  0  0  0  0  0
    0.8316    1.1539   -1.3574 C   0  0  0  0  0  0  0  0  0  0  0  0
    1.8041    1.3567   -0.9069 H   0  0  0  0  0  0  0  0  0  0  0  0
    0.9544    1.1308   -2.4402 H   0  0  0  0  0  0  0  0  0  0  0  0
   -0.1128    2.3182   -1.0287 C   0  0  0  0  0  0  0  0  0  0  0  0
   -0.1884    2.4563    0.0497 H   0  0  0  0  0  0  0  0  0  0  0  0
    0.2801    3.2350   -1.4688 H   0  0  0  0  0  0  0  0  0  0  0  0
   -1.1031    2.1232   -1.4415 H   0  0  0  0  0  0  0  0  0  0  0  0
   -0.3971    1.3008    1.0689 C   0  0  0  0  0  0  0  0  0  0  0  0
   -1.3643    1.9819    0.7311 O   0  0  0  0  0  0  0  0  0  0  0  0
    0.5522    1.7647    1.8915 N   0  0  0  0  0  0  0  0  0  0  0  0
    1.3093    1.1450    2.1332 H   0  0  0  0  0  0  0  0  0  0  0  0
    0.5577    3.1119    2.4582 C   0  0  0  0  0  0  0  0  0  0  0  0
   -0.3986    3.3098    2.9475 H   0  0  0  0  0  0  0  0  0  0  0  0
    1.3619    3.2123    3.1886 H   0  0  0  0  0  0  0  0  0  0  0  0
    0.6974    3.8450    1.6614 H   0  0  0  0  0  0  0  0  0  0  0  0
  5  6  2  0  0  0  0
  5  7  1  0  0  0  0
  2  3  1  0  0  0  0
  2  4  1  0  0  0  0
  2  5  1  0  0  0  0
  1  2  1  0  0  0  0
 24 25  2  0  0  0  0
 24 26  1  0  0  0  0
 20 21  1  0  0  0  0
 20 22  1  0  0  0  0
 20 23  1  0  0  0  0
 17 18  1  0  0  0  0
 17 19  1  0  0  0  0
 17 20  1  0  0  0  0
 13 14  1  0  0  0  0
 13 15  1  0  0  0  0
 13 16  1  0  0  0  0
 11 12  1  0  0  0  0
 11 13  1  0  0  0  0
 11 17  1  0  0  0  0
  9 10  1  0  0  0  0
  9 11  1  0  0  0  0
  9 24  1  0  0  0  0
  7  8  1  0  0  0  0
  7  9  1  0  0  0  0
 28 29  1  0  0  0  0
 28 30  1  0  0  0  0
 28 31  1  0  0  0  0
 26 27  1  0  0  0  0
 26 28  1  0  0  0  0
M  END
$$$$
default_name
  -OEChem-02102213163D

 31 30  0     1  0  0  0  0  0999 V2000
   -3.0760   -3.6390    1.5496 H   0  0  0  0  0  0  0  0  0  0  0  0
   -3.0940   -2.6290    1.1426 C   0  0  0  0  0  0  0  0  0  0  0  0
   -3.7160   -1.9930    1.7706 H   0  0  0  0  0  0  0  0  0  0  0  0
   -3.4880   -2.6500    0.1286 H   0  0  0  0  0  0  0  0  0  0  0  0
   -1.6860   -2.0850    1.1196 C   0  0  0  0  0  0  0  0  0  0  0  0
   -0.7540   -2.7700    1.5226 O   0  0  0  0  0  0  0  0  0  0  0  0
   -1.5320   -0.8490    0.6496 N   0  0  0  0  0  0  0  0  0  0  0  0
   -2.3500   -0.3360    0.3566 H   0  0  0  0  0  0  0  0  0  0  0  0
   -0.2470   -0.1410    0.5576 C   0  0  1  0  0  0  0  0  0  0  0  0
    0.4572   -0.6505    1.2162 H   0  0  0  0  0  0  0  0  0  0  0  0
    0.3091   -0.2220   -0.8868 C   0  0  1  0  0  0  0  0  0  0  0  0
    1.1617   -0.9036   -0.8655 H   0  0  0  0  0  0  0  0  0  0  0  0
   -0.7201   -0.7898   -1.8827 C   0  0  0  0  0  0  0  0  0  0  0  0
   -1.5617   -0.1044   -1.9978 H   0  0  0  0  0  0  0  0  0  0  0  0
   -0.2569   -0.9508   -2.8549 H   0  0  0  0  0  0  0  0  0  0  0  0
   -1.0953   -1.7511   -1.5295 H   0  0  0  0  0  0  0  0  0  0  0  0
    0.8316    1.1539   -1.3574 C   0  0  0  0  0  0  0  0  0  0  0  0
    1.8950    1.2450   -1.1325 H   0  0  0  0  0  0  0  0  0  0  0  0
    0.7028    1.2273   -2.4373 H   0  0  0  0  0  0  0  0  0  0  0  0
    0.0941    2.3429   -0.7268 C   0  0  0  0  0  0  0  0  0  0  0  0
    0.2778    2.3809    0.3468 H   0  0  0  0  0  0  0  0  0  0  0  0
    0.4569    3.2689   -1.1735 H   0  0  0  0  0  0  0  0  0  0  0  0
   -0.9775    2.2572   -0.9104 H   0  0  0  0  0  0  0  0  0  0  0  0
   -0.3971    1.3008    1.0689 C   0  0  0  0  0  0  0  0  0  0  0  0
   -1.3643    1.9819    0.7311 O   0  0  0  0  0  0  0  0  0  0  0  0
    0.5522    1.7647    1.8915 N   0  0  0  0  0  0  0  0  0  0  0  0
    1.3093    1.1450    2.1332 H   0  0  0  0  0  0  0  0  0  0  0  0
    0.5577    3.1119    2.4582 C   0  0  0  0  0  0  0  0  0  0  0  0
   -0.3986    3.3098    2.9475 H   0  0  0  0  0  0  0  0  0  0  0  0
    1.3619    3.2123    3.1886 H   0  0  0  0  0  0  0  0  0  0  0  0
    0.6974    3.8450    1.6614 H   0  0  0  0  0  0  0  0  0  0  0  0
  5  6  2  0  0  0  0
  5  7  1  0  0  0  0
  2  3  1  0  0  0  0
  2  4  1  0  0  0  0
  2  5  1  0  0  0  0
  1  2  1  0  0  0  0
 24 25  2  0  0  0  0
 24 26  1  0  0  0  0
 20 21  1  0  0  0  0
 20 22  1  0  0  0  0
 20 23  1  0  0  0  0
 17 18  1  0  0  0  0
 17 19  1  0  0  0  0
 17 20  1  0  0  0  0
 13 14  1  0  0  0  0
 13 15  1  0  0  0  0
 13 16  1  0  0  0  0
 11 12  1  0  0  0  0
 11 13  1  0  0  0  0
 11 17  1  0  0  0  0
  9 10  1  0  0  0  0
  9 11  1  0  0  0  0
  9 24  1  0  0  0  0
  7  8  1  0  0  0  0
  7  9  1  0  0  0  0
 28 29  1  0  0  0  0
 28 30  1  0  0  0  0
 28 31  1  0  0  0  0
 26 27  1  0  0  0  0
 26 28  1  0  0  0  0
M  END
$$$$
default_name
  -OEChem-02102213163D

 31 30  0     1  0  0  0  0  0999 V2000
   -3.0760   -3.6390    1.5496 H   0  0  0  0  0  0  0  0  0  0  0  0
   -3.0940   -2.6290    1.1426 C   0  0  0  0  0  0  0  0  0  0  0  0
   -3.7160   -1.9930    1.7706 H   0  0  0  0  0  0  0  0  0  0  0  0
   -3.4880   -2.6500    0.1286 H   0  0  0  0  0  0  0  0  0  0  0  0
   -1.6860   -2.0850    1.1196 C   0  0  0  0  0  0  0  0  0  0  0  0
   -0.7540   -2.7700    1.5226 O   0  0  0  0  0  0  0  0  0  0  0  0
   -1.5320   -0.8490    0.6496 N   0  0  0  0  0  0  0  0  0  0  0  0
   -2.3500   -0.3360    0.3566 H   0  0  0  0  0  0  0  0  0  0  0  0
   -0.2470   -0.1410    0.5576 C   0  0  1  0  0  0  0  0  0  0  0  0
    0.4572   -0.6505    1.2162 H   0  0  0  0  0  0  0  0  0  0  0  0
    0.3091   -0.2220   -0.8868 C   0  0  1  0  0  0  0  0  0  0  0  0
    1.1617   -0.9036   -0.8655 H   0  0  0  0  0  0  0  0  0  0  0  0
   -0.7201   -0.7898   -1.8827 C   0  0  0  0  0  0  0  0  0  0  0  0
   -1.5617   -0.1044   -1.9978 H   0  0  0  0  0  0  0  0  0  0  0  0
   -0.2569   -0.9508   -2.8549 H   0  0  0  0  0  0  0  0  0  0  0  0
   -1.0953   -1.7511   -1.5295 H   0  0  0  0  0  0  0  0  0  0  0  0
    0.8316    1.1539   -1.3574 C   0  0  0  0  0  0  0  0  0  0  0  0
    1.9221    1.1497   -1.3812 H   0  0  0  0  0  0  0  0  0  0  0  0
    0.4682    1.3400   -2.3680 H   0  0  0  0  0  0  0  0  0  0  0  0
    0.3654    2.3241   -0.4807 C   0  0  0  0  0  0  0  0  0  0  0  0
    0.7906    2.2453    0.5197 H   0  0  0  0  0  0  0  0  0  0  0  0
    0.6984    3.2619   -0.9260 H   0  0  0  0  0  0  0  0  0  0  0  0
   -0.7232    2.3302   -0.4146 H   0  0  0  0  0  0  0  0  0  0  0  0
   -0.3971    1.3008    1.0689 C   0  0  0  0  0  0  0  0  0  0  0  0
   -1.3643    1.9819    0.7311 O   0  0  0  0  0  0  0  0  0  0  0  0
    0.5522    1.7647    1.8915 N   0  0  0  0  0  0  0  0  0  0  0  0
    1.3093    1.1450    2.1332 H   0  0  0  0  0  0  0  0  0  0  0  0
    0.5577    3.1119    2.4582 C   0  0  0  0  0  0  0  0  0  0  0  0
   -0.3986    3.3098    2.9475 H   0  0  0  0  0  0  0  0  0  0  0  0
    1.3619    3.2123    3.1886 H   0  0  0  0  0  0  0  0  0  0  0  0
    0.6974    3.8450    1.6614 H   0  0  0  0  0  0  0  0  0  0  0  0
  5  6  2  0  0  0  0
  5  7  1  0  0  0  0
  2  3  1  0  0  0  0
  2  4  1  0  0  0  0
  2  5  1  0  0  0  0
  1  2  1  0  0  0  0
 24 25  2  0  0  0  0
 24 26  1  0  0  0  0
 20 21  1  0  0  0  0
 20 22  1  0  0  0  0
 20 23  1  0  0  0  0
 17 18  1  0  0  0  0
 17 19  1  0  0  0  0
 17 20  1  0  0  0  0
 13 14  1  0  0  0  0
 13 15  1  0  0  0  0
 13 16  1  0  0  0  0
 11 12  1  0  0  0  0
 11 13  1  0  0  0  0
 11 17  1  0  0  0  0
  9 10  1  0  0  0  0
  9 11  1  0  0  0  0
  9 24  1  0  0  0  0
  7  8  1  0  0  0  0
  7  9  1  0  0  0  0
 28 29  1  0  0  0  0
 28 30  1  0  0  0  0
 28 31  1  0  0  0  0
 26 27  1  0  0  0  0
 26 28  1  0  0  0  0
M  END
$$$$
default_name
  -OEChem-02102213163D

 31 30  0     1  0  0  0  0  0999 V2000
   -3.0760   -3.6390    1.5496 H   0  0  0  0  0  0  0  0  0  0  0  0
   -3.0940   -2.6290    1.1426 C   0  0  0  0  0  0  0  0  0  0  0  0
   -3.7160   -1.9930    1.7706 H   0  0  0  0  0  0  0  0  0  0  0  0
   -3.4880   -2.6500    0.1286 H   0  0  0  0  0  0  0  0  0  0  0  0
   -1.6860   -2.0850    1.1196 C   0  0  0  0  0  0  0  0  0  0  0  0
   -0.7540   -2.7700    1.5226 O   0  0  0  0  0  0  0  0  0  0  0  0
   -1.5320   -0.8490    0.6496 N   0  0  0  0  0  0  0  0  0  0  0  0
   -2.3500   -0.3360    0.3566 H   0  0  0  0  0  0  0  0  0  0  0  0
   -0.2470   -0.1410    0.5576 C   0  0  1  0  0  0  0  0  0  0  0  0
    0.4572   -0.6505    1.2162 H   0  0  0  0  0  0  0  0  0  0  0  0
    0.3091   -0.2220   -0.8868 C   0  0  1  0  0  0  0  0  0  0  0  0
    1.1617   -0.9036   -0.8655 H   0  0  0  0  0  0  0  0  0  0  0  0
   -0.7201   -0.7898   -1.8827 C   0  0  0  0  0  0  0  0  0  0  0  0
   -1.5617   -0.1044   -1.9978 H   0  0  0  0  0  0  0  0  0  0  0  0
   -0.2569   -0.9508   -2.8549 H   0  0  0  0  0  0  0  0  0  0  0  0
   -1.0953   -1.7511   -1.5295 H   0  0  0  0  0  0  0  0  0  0  0  0
    0.8316    1.1539   -1.3574 C   0  0  0  0  0  0  0  0  0  0  0  0
    1.8834    1.0772   -1.6360 H   0  0  0  0  0  0  0  0  0  0  0  0
    0.2663    1.4614   -2.2372 H   0  0  0  0  0  0  0  0  0  0  0  0
    0.6827    2.2630   -0.3071 C   0  0  0  0  0  0  0  0  0  0  0  0
    1.3151    2.0588    0.5567 H   0  0  0  0  0  0  0  0  0  0  0  0
    0.9881    3.2144   -0.7432 H   0  0  0  0  0  0  0  0  0  0  0  0
   -0.3575    2.3373    0.0121 H   0  0  0  0  0  0  0  0  0  0  0  0
   -0.3971    1.3008    1.0689 C   0  0  0  0  0  0  0  0  0  0  0  0
   -1.3643    1.9819    0.7311 O   0  0  0  0  0  0  0  0  0  0  0  0
    0.5522    1.7647    1.8915 N   0  0  0  0  0  0  0  0  0  0  0  0
    1.3093    1.1450    2.1332 H   0  0  0  0  0  0  0  0  0  0  0  0
    0.5577    3.1119    2.4582 C   0  0  0  0  0  0  0  0  0  0  0  0
   -0.3986    3.3098    2.9475 H   0  0  0  0  0  0  0  0  0  0  0  0
    1.3619    3.2123    3.1886 H   0  0  0  0  0  0  0  0  0  0  0  0
    0.6974    3.8450    1.6614 H   0  0  0  0  0  0  0  0  0  0  0  0
  5  6  2  0  0  0  0
  5  7  1  0  0  0  0
  2  3  1  0  0  0  0
  2  4  1  0  0  0  0
  2  5  1  0  0  0  0
  1  2  1  0  0  0  0
 24 25  2  0  0  0  0
 24 26  1  0  0  0  0
 20 21  1  0  0  0  0
 20 22  1  0  0  0  0
 20 23  1  0  0  0  0
 17 18  1  0  0  0  0
 17 19  1  0  0  0  0
 17 20  1  0  0  0  0
 13 14  1  0  0  0  0
 13 15  1  0  0  0  0
 13 16  1  0  0  0  0
 11 12  1  0  0  0  0
 11 13  1  0  0  0  0
 11 17  1  0  0  0  0
  9 10  1  0  0  0  0
  9 11  1  0  0  0  0
  9 24  1  0  0  0  0
  7  8  1  0  0  0  0
  7  9  1  0  0  0  0
 28 29  1  0  0  0  0
 28 30  1  0  0  0  0
 28 31  1  0  0  0  0
 26 27  1  0  0  0  0
 26 28  1  0  0  0  0
M  END
$$$$
default_name
  -OEChem-02102213163D

 31 30  0     1  0  0  0  0  0999 V2000
   -3.0760   -3.6390    1.5496 H   0  0  0  0  0  0  0  0  0  0  0  0
   -3.0940   -2.6290    1.1426 C   0  0  0  0  0  0  0  0  0  0  0  0
   -3.7160   -1.9930    1.7706 H   0  0  0  0  0  0  0  0  0  0  0  0
   -3.4880   -2.6500    0.1286 H   0  0  0  0  0  0  0  0  0  0  0  0
   -1.6860   -2.0850    1.1196 C   0  0  0  0  0  0  0  0  0  0  0  0
   -0.7540   -2.7700    1.5226 O   0  0  0  0  0  0  0  0  0  0  0  0
   -1.5320   -0.8490    0.6496 N   0  0  0  0  0  0  0  0  0  0  0  0
   -2.3500   -0.3360    0.3566 H   0  0  0  0  0  0  0  0  0  0  0  0
   -0.2470   -0.1410    0.5576 C   0  0  1  0  0  0  0  0  0  0  0  0
    0.4572   -0.6505    1.2162 H   0  0  0  0  0  0  0  0  0  0  0  0
    0.3091   -0.2220   -0.8868 C   0  0  1  0  0  0  0  0  0  0  0  0
    1.1617   -0.9036   -0.8655 H   0  0  0  0  0  0  0  0  0  0  0  0
   -0.7201   -0.7898   -1.8827 C   0  0  0  0  0  0  0  0  0  0  0  0
   -1.5617   -0.1044   -1.9978 H   0  0  0  0  0  0  0  0  0  0  0  0
   -0.2569   -0.9508   -2.8549 H   0  0  0  0  0  0  0  0  0  0  0  0
   -1.0953   -1.7511   -1.5295 H   0  0  0  0  0  0  0  0  0  0  0  0
    0.8316    1.1539   -1.3574 C   0  0  0  0  0  0  0  0  0  0  0  0
    1.7816    1.0326   -1.8795 H   0  0  0  0  0  0  0  0  0  0  0  0
    0.1111    1.5831   -2.0537 H   0  0  0  0  0  0  0  0  0  0  0  0
    1.0243    2.1638   -0.2180 C   0  0  0  0  0  0  0  0  0  0  0  0
    1.8155    1.8341    0.4552 H   0  0  0  0  0  0  0  0  0  0  0  0
    1.3063    3.1297   -0.6375 H   0  0  0  0  0  0  0  0  0  0  0  0
    0.0947    2.2779    0.3406 H   0  0  0  0  0  0  0  0  0  0  0  0
   -0.3971    1.3008    1.0689 C   0  0  0  0  0  0  0  0  0  0  0  0
   -1.3643    1.9819    0.7311 O   0  0  0  0  0  0  0  0  0  0  0  0
    0.5522    1.7647    1.8915 N   0  0  0  0  0  0  0  0  0  0  0  0
    1.3093    1.1450    2.1332 H   0  0  0  0  0  0  0  0  0  0  0  0
    0.5577    3.1119    2.4582 C   0  0  0  0  0  0  0  0  0  0  0  0
   -0.3986    3.3098    2.9475 H   0  0  0  0  0  0  0  0  0  0  0  0
    1.3619    3.2123    3.1886 H   0  0  0  0  0  0  0  0  0  0  0  0
    0.6974    3.8450    1.6614 H   0  0  0  0  0  0  0  0  0  0  0  0
  5  6  2  0  0  0  0
  5  7  1  0  0  0  0
  2  3  1  0  0  0  0
  2  4  1  0  0  0  0
  2  5  1  0  0  0  0
  1  2  1  0  0  0  0
 24 25  2  0  0  0  0
 24 26  1  0  0  0  0
 20 21  1  0  0  0  0
 20 22  1  0  0  0  0
 20 23  1  0  0  0  0
 17 18  1  0  0  0  0
 17 19  1  0  0  0  0
 17 20  1  0  0  0  0
 13 14  1  0  0  0  0
 13 15  1  0  0  0  0
 13 16  1  0  0  0  0
 11 12  1  0  0  0  0
 11 13  1  0  0  0  0
 11 17  1  0  0  0  0
  9 10  1  0  0  0  0
  9 11  1  0  0  0  0
  9 24  1  0  0  0  0
  7  8  1  0  0  0  0
  7  9  1  0  0  0  0
 28 29  1  0  0  0  0
 28 30  1  0  0  0  0
 28 31  1  0  0  0  0
 26 27  1  0  0  0  0
 26 28  1  0  0  0  0
M  END
$$$$
default_name
  -OEChem-02102213163D

 31 30  0     1  0  0  0  0  0999 V2000
   -3.0760   -3.6390    1.5496 H   0  0  0  0  0  0  0  0  0  0  0  0
   -3.0940   -2.6290    1.1426 C   0  0  0  0  0  0  0  0  0  0  0  0
   -3.7160   -1.9930    1.7706 H   0  0  0  0  0  0  0  0  0  0  0  0
   -3.4880   -2.6500    0.1286 H   0  0  0  0  0  0  0  0  0  0  0  0
   -1.6860   -2.0850    1.1196 C   0  0  0  0  0  0  0  0  0  0  0  0
   -0.7540   -2.7700    1.5226 O   0  0  0  0  0  0  0  0  0  0  0  0
   -1.5320   -0.8490    0.6496 N   0  0  0  0  0  0  0  0  0  0  0  0
   -2.3500   -0.3360    0.3566 H   0  0  0  0  0  0  0  0  0  0  0  0
   -0.2470   -0.1410    0.5576 C   0  0  1  0  0  0  0  0  0  0  0  0
    0.4572   -0.6505    1.2162 H   0  0  0  0  0  0  0  0  0  0  0  0
    0.3091   -0.2220   -0.8868 C   0  0  1  0  0  0  0  0  0  0  0  0
    1.1617   -0.9036   -0.8655 H   0  0  0  0  0  0  0  0  0  0  0  0
   -0.7201   -0.7898   -1.8827 C   0  0  0  0  0  0  0  0  0  0  0  0
   -1.5617   -0.1044   -1.9978 H   0  0  0  0  0  0  0  0  0  0  0  0
   -0.2569   -0.9508   -2.8549 H   0  0  0  0  0  0  0  0  0  0  0  0
   -1.0953   -1.7511   -1.5295 H   0  0  0  0  0  0  0  0  0  0  0  0
    0.8316    1.1539   -1.3574 C   0  0  0  0  0  0  0  0  0  0  0  0
    1.6237    1.0188   -2.0951 H   0  0  0  0  0  0  0  0  0  0  0  0
    0.0131    1.6969   -1.8300 H   0  0  0  0  0  0  0  0  0  0  0  0
    1.3671    2.0332   -0.2192 C   0  0  0  0  0  0  0  0  0  0  0  0
    2.2578    1.5865    0.2222 H   0  0  0  0  0  0  0  0  0  0  0  0
    1.6314    3.0136   -0.6162 H   0  0  0  0  0  0  0  0  0  0  0  0
    0.6024    2.1563    0.5485 H   0  0  0  0  0  0  0  0  0  0  0  0
   -0.3971    1.3008    1.0689 C   0  0  0  0  0  0  0  0  0  0  0  0
   -1.3643    1.9819    0.7311 O   0  0  0  0  0  0  0  0  0  0  0  0
    0.5522    1.7647    1.8915 N   0  0  0  0  0  0  0  0  0  0  0  0
    1.3093    1.1450    2.1332 H   0  0  0  0  0  0  0  0  0  0  0  0
    0.5577    3.1119    2.4582 C   0  0  0  0  0  0  0  0  0  0  0  0
   -0.3986    3.3098    2.9475 H   0  0  0  0  0  0  0  0  0  0  0  0
    1.3619    3.2123    3.1886 H   0  0  0  0  0  0  0  0  0  0  0  0
    0.6974    3.8450    1.6614 H   0  0  0  0  0  0  0  0  0  0  0  0
  5  6  2  0  0  0  0
  5  7  1  0  0  0  0
  2  3  1  0  0  0  0
  2  4  1  0  0  0  0
  2  5  1  0  0  0  0
  1  2  1  0  0  0  0
 24 25  2  0  0  0  0
 24 26  1  0  0  0  0
 20 21  1  0  0  0  0
 20 22  1  0  0  0  0
 20 23  1  0  0  0  0
 17 18  1  0  0  0  0
 17 19  1  0  0  0  0
 17 20  1  0  0  0  0
 13 14  1  0  0  0  0
 13 15  1  0  0  0  0
 13 16  1  0  0  0  0
 11 12  1  0  0  0  0
 11 13  1  0  0  0  0
 11 17  1  0  0  0  0
  9 10  1  0  0  0  0
  9 11  1  0  0  0  0
  9 24  1  0  0  0  0
  7  8  1  0  0  0  0
  7  9  1  0  0  0  0
 28 29  1  0  0  0  0
 28 30  1  0  0  0  0
 28 31  1  0  0  0  0
 26 27  1  0  0  0  0
 26 28  1  0  0  0  0
M  END
$$$$
default_name
  -OEChem-02102213163D

 31 30  0     1  0  0  0  0  0999 V2000
   -3.0760   -3.6390    1.5496 H   0  0  0  0  0  0  0  0  0  0  0  0
   -3.0940   -2.6290    1.1426 C   0  0  0  0  0  0  0  0  0  0  0  0
   -3.7160   -1.9930    1.7706 H   0  0  0  0  0  0  0  0  0  0  0  0
   -3.4880   -2.6500    0.1286 H   0  0  0  0  0  0  0  0  0  0  0  0
   -1.6860   -2.0850    1.1196 C   0  0  0  0  0  0  0  0  0  0  0  0
   -0.7540   -2.7700    1.5226 O   0  0  0  0  0  0  0  0  0  0  0  0
   -1.5320   -0.8490    0.6496 N   0  0  0  0  0  0  0  0  0  0  0  0
   -2.3500   -0.3360    0.3566 H   0  0  0  0  0  0  0  0  0  0  0  0
   -0.2470   -0.1410    0.5576 C   0  0  1  0  0  0  0  0  0  0  0  0
    0.4572   -0.6505    1.2162 H   0  0  0  0  0  0  0  0  0  0  0  0
    0.3091   -0.2220   -0.8868 C   0  0  1  0  0  0  0  0  0  0  0  0
    1.1617   -0.9036   -0.8655 H   0  0  0  0  0  0  0  0  0  0  0  0
   -0.7201   -0.7898   -1.8827 C   0  0  0  0  0  0  0  0  0  0  0  0
   -1.5617   -0.1044   -1.9978 H   0  0  0  0  0  0  0  0  0  0  0  0
   -0.2569   -0.9508   -2.8549 H   0  0  0  0  0  0  0  0  0  0  0  0
   -1.0953   -1.7511   -1.5295 H   0  0  0  0  0  0  0  0  0  0  0  0
    0.8316    1.1539   -1.3574 C   0  0  0  0  0  0  0  0  0  0  0  0
    1.4203    1.0368   -2.2682 H   0  0  0  0  0  0  0  0  0  0  0  0
   -0.0211    1.7949   -1.5814 H   0  0  0  0  0  0  0  0  0  0  0  0
    1.6876    1.8801   -0.3109 C   0  0  0  0  0  0  0  0  0  0  0  0
    2.6118    1.3328   -0.1265 H   0  0  0  0  0  0  0  0  0  0  0  0
    1.9411    2.8739   -0.6807 H   0  0  0  0  0  0  0  0  0  0  0  0
    1.1312    1.9805    0.6216 H   0  0  0  0  0  0  0  0  0  0  0  0
   -0.3971    1.3008    1.0689 C   0  0  0  0  0  0  0  0  0  0  0  0
   -1.3643    1.9819    0.7311 O   0  0  0  0  0  0  0  0  0  0  0  0
    0.5522    1.7647    1.8915 N   0  0  0  0  0  0  0  0  0  0  0  0
    1.3093    1.1450    2.1332 H   0  0  0  0  0  0  0  0  0  0  0  0
    0.5577    3.1119    2.4582 C   0  0  0  0  0  0  0  0  0  0  0  0
   -0.3986    3.3098    2.9475 H   0  0  0  0  0  0  0  0  0  0  0  0
    1.3619    3.2123    3.1886 H   0  0  0  0  0  0  0  0  0  0  0  0
    0.6974    3.8450    1.6614 H   0  0  0  0  0  0  0  0  0  0  0  0
  5  6  2  0  0  0  0
  5  7  1  0  0  0  0
  2  3  1  0  0  0  0
  2  4  1  0  0  0  0
  2  5  1  0  0  0  0
  1  2  1  0  0  0  0
 24 25  2  0  0  0  0
 24 26  1  0  0  0  0
 20 21  1  0  0  0  0
 20 22  1  0  0  0  0
 20 23  1  0  0  0  0
 17 18  1  0  0  0  0
 17 19  1  0  0  0  0
 17 20  1  0  0  0  0
 13 14  1  0  0  0  0
 13 15  1  0  0  0  0
 13 16  1  0  0  0  0
 11 12  1  0  0  0  0
 11 13  1  0  0  0  0
 11 17  1  0  0  0  0
  9 10  1  0  0  0  0
  9 11  1  0  0  0  0
  9 24  1  0  0  0  0
  7  8  1  0  0  0  0
  7  9  1  0  0  0  0
 28 29  1  0  0  0  0
 28 30  1  0  0  0  0
 28 31  1  0  0  0  0
 26 27  1  0  0  0  0
 26 28  1  0  0  0  0
M  END
$$$$
default_name
  -OEChem-02102213163D

 31 30  0     1  0  0  0  0  0999 V2000
   -3.0760   -3.6390    1.5496 H   0  0  0  0  0  0  0  0  0  0  0  0
   -3.0940   -2.6290    1.1426 C   0  0  0  0  0  0  0  0  0  0  0  0
   -3.7160   -1.9930    1.7706 H   0  0  0  0  0  0  0  0  0  0  0  0
   -3.4880   -2.6500    0.1286 H   0  0  0  0  0  0  0  0  0  0  0  0
   -1.6860   -2.0850    1.1196 C   0  0  0  0  0  0  0  0  0  0  0  0
   -0.7540   -2.7700    1.5226 O   0  0  0  0  0  0  0  0  0  0  0  0
   -1.5320   -0.8490    0.6496 N   0  0  0  0  0  0  0  0  0  0  0  0
   -2.3500   -0.3360    0.3566 H   0  0  0  0  0  0  0  0  0  0  0  0
   -0.2470   -0.1410    0.5576 C   0  0  1  0  0  0  0  0  0  0  0  0
    0.4572   -0.6505    1.2162 H   0  0  0  0  0  0  0  0  0  0  0  0
    0.3091   -0.2220   -0.8868 C   0  0  1  0  0  0  0  0  0  0  0  0
    1.1617   -0.9036   -0.8655 H   0  0  0  0  0  0  0  0  0  0  0  0
   -0.7201   -0.7898   -1.8827 C   0  0  0  0  0  0  0  0  0  0  0  0
   -1.5617   -0.1044   -1.9978 H   0  0  0  0  0  0  0  0  0  0  0  0
   -0.2569   -0.9508   -2.8549 H   0  0  0  0  0  0  0  0  0  0  0  0
   -1.0953   -1.7511   -1.5295 H   0  0  0  0  0  0  0  0  0  0  0  0
    0.8316    1.1539   -1.3574 C   0  0  0  0  0  0  0  0  0  0  0  0
    1.1854    1.0854   -2.3870 H   0  0  0  0  0  0  0  0  0  0  0  0
    0.0109    1.8705   -1.3248 H   0  0  0  0  0  0  0  0  0  0  0  0
    1.9640    1.7151   -0.4867 C   0  0  0  0  0  0  0  0  0  0  0  0
    2.8534    1.0904   -0.5671 H   0  0  0  0  0  0  0  0  0  0  0  0
    2.2144    2.7202   -0.8267 H   0  0  0  0  0  0  0  0  0  0  0  0
    1.6449    1.7627    0.5550 H   0  0  0  0  0  0  0  0  0  0  0  0
   -0.3971    1.3008    1.0689 C   0  0  0  0  0  0  0  0  0  0  0  0
   -1.3643    1.9819    0.7311 O   0  0  0  0  0  0  0  0  0  0  0  0
    0.5522    1.7647    1.8915 N   0  0  0  0  0  0  0  0  0  0  0  0
    1.3093    1.1450    2.1332 H   0  0  0  0  0  0  0  0  0  0  0  0
    0.5577    3.1119    2.4582 C   0  0  0  0  0  0  0  0  0  0  0  0
   -0.3986    3.3098    2.9475 H   0  0  0  0  0  0  0  0  0  0  0  0
    1.3619    3.2123    3.1886 H   0  0  0  0  0  0  0  0  0  0  0  0
    0.6974    3.8450    1.6614 H   0  0  0  0  0  0  0  0  0  0  0  0
  5  6  2  0  0  0  0
  5  7  1  0  0  0  0
  2  3  1  0  0  0  0
  2  4  1  0  0  0  0
  2  5  1  0  0  0  0
  1  2  1  0  0  0  0
 24 25  2  0  0  0  0
 24 26  1  0  0  0  0
 20 21  1  0  0  0  0
 20 22  1  0  0  0  0
 20 23  1  0  0  0  0
 17 18  1  0  0  0  0
 17 19  1  0  0  0  0
 17 20  1  0  0  0  0
 13 14  1  0  0  0  0
 13 15  1  0  0  0  0
 13 16  1  0  0  0  0
 11 12  1  0  0  0  0
 11 13  1  0  0  0  0
 11 17  1  0  0  0  0
  9 10  1  0  0  0  0
  9 11  1  0  0  0  0
  9 24  1  0  0  0  0
  7  8  1  0  0  0  0
  7  9  1  0  0  0  0
 28 29  1  0  0  0  0
 28 30  1  0  0  0  0
 28 31  1  0  0  0  0
 26 27  1  0  0  0  0
 26 28  1  0  0  0  0
M  END
$$$$
default_name
  -OEChem-02102213163D

 31 30  0     1  0  0  0  0  0999 V2000
   -3.0760   -3.6390    1.5496 H   0  0  0  0  0  0  0  0  0  0  0  0
   -3.0940   -2.6290    1.1426 C   0  0  0  0  0  0  0  0  0  0  0  0
   -3.7160   -1.9930    1.7706 H   0  0  0  0  0  0  0  0  0  0  0  0
   -3.4880   -2.6500    0.1286 H   0  0  0  0  0  0  0  0  0  0  0  0
   -1.6860   -2.0850    1.1196 C   0  0  0  0  0  0  0  0  0  0  0  0
   -0.7540   -2.7700    1.5226 O   0  0  0  0  0  0  0  0  0  0  0  0
   -1.5320   -0.8490    0.6496 N   0  0  0  0  0  0  0  0  0  0  0  0
   -2.3500   -0.3360    0.3566 H   0  0  0  0  0  0  0  0  0  0  0  0
   -0.2470   -0.1410    0.5576 C   0  0  1  0  0  0  0  0  0  0  0  0
    0.4572   -0.6505    1.2162 H   0  0  0  0  0  0  0  0  0  0  0  0
    0.3091   -0.2220   -0.8868 C   0  0  1  0  0  0  0  0  0  0  0  0
    1.1617   -0.9036   -0.8655 H   0  0  0  0  0  0  0  0  0  0  0  0
   -0.7201   -0.7898   -1.8827 C   0  0  0  0  0  0  0  0  0  0  0  0
   -1.5617   -0.1044   -1.9978 H   0  0  0  0  0  0  0  0  0  0  0  0
   -0.2569   -0.9508   -2.8549 H   0  0  0  0  0  0  0  0  0  0  0  0
   -1.0953   -1.7511   -1.5295 H   0  0  0  0  0  0  0  0  0  0  0  0
    0.8316    1.1539   -1.3574 C   0  0  0  0  0  0  0  0  0  0  0  0
    0.9349    1.1612   -2.4433 H   0  0  0  0  0  0  0  0  0  0  0  0
    0.1069    1.9185   -1.0777 H   0  0  0  0  0  0  0  0  0  0  0  0
    2.1774    1.5492   -0.7347 C   0  0  0  0  0  0  0  0  0  0  0  0
    2.9661    0.8758   -1.0696 H   0  0  0  0  0  0  0  0  0  0  0  0
    2.4327    2.5630   -1.0441 H   0  0  0  0  0  0  0  0  0  0  0  0
    2.1087    1.5176    0.3532 H   0  0  0  0  0  0  0  0  0  0  0  0
   -0.3971    1.3008    1.0689 C   0  0  0  0  0  0  0  0  0  0  0  0
   -1.3643    1.9819    0.7311 O   0  0  0  0  0  0  0  0  0  0  0  0
    0.5522    1.7647    1.8915 N   0  0  0  0  0  0  0  0  0  0  0  0
    1.3093    1.1450    2.1332 H   0  0  0  0  0  0  0  0  0  0  0  0
    0.5577    3.1119    2.4582 C   0  0  0  0  0  0  0  0  0  0  0  0
   -0.3986    3.3098    2.9475 H   0  0  0  0  0  0  0  0  0  0  0  0
    1.3619    3.2123    3.1886 H   0  0  0  0  0  0  0  0  0  0  0  0
    0.6974    3.8450    1.6614 H   0  0  0  0  0  0  0  0  0  0  0  0
  5  6  2  0  0  0  0
  5  7  1  0  0  0  0
  2  3  1  0  0  0  0
  2  4  1  0  0  0  0
  2  5  1  0  0  0  0
  1  2  1  0  0  0  0
 24 25  2  0  0  0  0
 24 26  1  0  0  0  0
 20 21  1  0  0  0  0
 20 22  1  0  0  0  0
 20 23  1  0  0  0  0
 17 18  1  0  0  0  0
 17 19  1  0  0  0  0
 17 20  1  0  0  0  0
 13 14  1  0  0  0  0
 13 15  1  0  0  0  0
 13 16  1  0  0  0  0
 11 12  1  0  0  0  0
 11 13  1  0  0  0  0
 11 17  1  0  0  0  0
  9 10  1  0  0  0  0
  9 11  1  0  0  0  0
  9 24  1  0  0  0  0
  7  8  1  0  0  0  0
  7  9  1  0  0  0  0
 28 29  1  0  0  0  0
 28 30  1  0  0  0  0
 28 31  1  0  0  0  0
 26 27  1  0  0  0  0
 26 28  1  0  0  0  0
M  END
$$$$
default_name
  -OEChem-02102213163D

 31 30  0     1  0  0  0  0  0999 V2000
   -3.0760   -3.6390    1.5496 H   0  0  0  0  0  0  0  0  0  0  0  0
   -3.0940   -2.6290    1.1426 C   0  0  0  0  0  0  0  0  0  0  0  0
   -3.7160   -1.9930    1.7706 H   0  0  0  0  0  0  0  0  0  0  0  0
   -3.4880   -2.6500    0.1286 H   0  0  0  0  0  0  0  0  0  0  0  0
   -1.6860   -2.0850    1.1196 C   0  0  0  0  0  0  0  0  0  0  0  0
   -0.7540   -2.7700    1.5226 O   0  0  0  0  0  0  0  0  0  0  0  0
   -1.5320   -0.8490    0.6496 N   0  0  0  0  0  0  0  0  0  0  0  0
   -2.3500   -0.3360    0.3566 H   0  0  0  0  0  0  0  0  0  0  0  0
   -0.2470   -0.1410    0.5576 C   0  0  1  0  0  0  0  0  0  0  0  0
    0.4572   -0.6505    1.2162 H   0  0  0  0  0  0  0  0  0  0  0  0
    0.3091   -0.2220   -0.8868 C   0  0  1  0  0  0  0  0  0  0  0  0
    1.1617   -0.9036   -0.8655 H   0  0  0  0  0  0  0  0  0  0  0  0
   -0.7201   -0.7898   -1.8827 C   0  0  0  0  0  0  0  0  0  0  0  0
   -1.5617   -0.1044   -1.9978 H   0  0  0  0  0  0  0  0  0  0  0  0
   -0.2569   -0.9508   -2.8549 H   0  0  0  0  0  0  0  0  0  0  0  0
   -1.0953   -1.7511   -1.5295 H   0  0  0  0  0  0  0  0  0  0  0  0
    0.8316    1.1539   -1.3574 C   0  0  0  0  0  0  0  0  0  0  0  0
    0.6860    1.2592   -2.4334 H   0  0  0  0  0  0  0  0  0  0  0  0
    0.2603    1.9358   -0.8570 H   0  0  0  0  0  0  0  0  0  0  0  0
    2.3133    1.3939   -1.0379 C   0  0  0  0  0  0  0  0  0  0  0  0
    2.9422    0.7035   -1.5997 H   0  0  0  0  0  0  0  0  0  0  0  0
    2.5810    2.4130   -1.3181 H   0  0  0  0  0  0  0  0  0  0  0  0
    2.4908    1.2620    0.0300 H   0  0  0  0  0  0  0  0  0  0  0  0
   -0.3971    1.3008    1.0689 C   0  0  0  0  0  0  0  0  0  0  0  0
   -1.3643    1.9819    0.7311 O   0  0  0  0  0  0  0  0  0  0  0  0
    0.5522    1.7647    1.8915 N   0  0  0  0  0  0  0  0  0  0  0  0
    1.3093    1.1450    2.1332 H   0  0  0  0  0  0  0  0  0  0  0  0
    0.5577    3.1119    2.4582 C   0  0  0  0  0  0  0  0  0  0  0  0
   -0.3986    3.3098    2.9475 H   0  0  0  0  0  0  0  0  0  0  0  0
    1.3619    3.2123    3.1886 H   0  0  0  0  0  0  0  0  0  0  0  0
    0.6974    3.8450    1.6614 H   0  0  0  0  0  0  0  0  0  0  0  0
  5  6  2  0  0  0  0
  5  7  1  0  0  0  0
  2  3  1  0  0  0  0
  2  4  1  0  0  0  0
  2  5  1  0  0  0  0
  1  2  1  0  0  0  0
 24 25  2  0  0  0  0
 24 26  1  0  0  0  0
 20 21  1  0  0  0  0
 20 22  1  0  0  0  0
 20 23  1  0  0  0  0
 17 18  1  0  0  0  0
 17 19  1  0  0  0  0
 17 20  1  0  0  0  0
 13 14  1  0  0  0  0
 13 15  1  0  0  0  0
 13 16  1  0  0  0  0
 11 12  1  0  0  0  0
 11 13  1  0  0  0  0
 11 17  1  0  0  0  0
  9 10  1  0  0  0  0
  9 11  1  0  0  0  0
  9 24  1  0  0  0  0
  7  8  1  0  0  0  0
  7  9  1  0  0  0  0
 28 29  1  0  0  0  0
 28 30  1  0  0  0  0
 28 31  1  0  0  0  0
 26 27  1  0  0  0  0
 26 28  1  0  0  0  0
M  END
$$$$
default_name
  -OEChem-02102213163D

 31 30  0     1  0  0  0  0  0999 V2000
   -3.0760   -3.6390    1.5496 H   0  0  0  0  0  0  0  0  0  0  0  0
   -3.0940   -2.6290    1.1426 C   0  0  0  0  0  0  0  0  0  0  0  0
   -3.7160   -1.9930    1.7706 H   0  0  0  0  0  0  0  0  0  0  0  0
   -3.4880   -2.6500    0.1286 H   0  0  0  0  0  0  0  0  0  0  0  0
   -1.6860   -2.0850    1.1196 C   0  0  0  0  0  0  0  0  0  0  0  0
   -0.7540   -2.7700    1.5226 O   0  0  0  0  0  0  0  0  0  0  0  0
   -1.5320   -0.8490    0.6496 N   0  0  0  0  0  0  0  0  0  0  0  0
   -2.3500   -0.3360    0.3566 H   0  0  0  0  0  0  0  0  0  0  0  0
   -0.2470   -0.1410    0.5576 C   0  0  1  0  0  0  0  0  0  0  0  0
    0.4572   -0.6505    1.2162 H   0  0  0  0  0  0  0  0  0  0  0  0
    0.3091   -0.2220   -0.8868 C   0  0  1  0  0  0  0  0  0  0  0  0
    1.1617   -0.9036   -0.8655 H   0  0  0  0  0  0  0  0  0  0  0  0
   -0.7201   -0.7898   -1.8827 C   0  0  0  0  0  0  0  0  0  0  0  0
   -1.5617   -0.1044   -1.9978 H   0  0  0  0  0  0  0  0  0  0  0  0
   -0.2569   -0.9508   -2.8549 H   0  0  0  0  0  0  0  0  0  0  0  0
   -1.0953   -1.7511   -1.5295 H   0  0  0  0  0  0  0  0  0  0  0  0
    0.8316    1.1539   -1.3574 C   0  0  0  0  0  0  0  0  0  0  0  0
    0.4556    1.3725   -2.3578 H   0  0  0  0  0  0  0  0  0  0  0  0
    0.4608    1.9210   -0.6776 H   0  0  0  0  0  0  0  0  0  0  0  0
    2.3625    1.2597   -1.3757 C   0  0  0  0  0  0  0  0  0  0  0  0
    2.7834    0.5854   -2.1213 H   0  0  0  0  0  0  0  0  0  0  0  0
    2.6493    2.2803   -1.6301 H   0  0  0  0  0  0  0  0  0  0  0  0
    2.7652    1.0132   -0.3927 H   0  0  0  0  0  0  0  0  0  0  0  0
   -0.3971    1.3008    1.0689 C   0  0  0  0  0  0  0  0  0  0  0  0
   -1.3643    1.9819    0.7311 O   0  0  0  0  0  0  0  0  0  0  0  0
    0.5522    1.7647    1.8915 N   0  0  0  0  0  0  0  0  0  0  0  0
    1.3093    1.1450    2.1332 H   0  0  0  0  0  0  0  0  0  0  0  0
    0.5577    3.1119    2.4582 C   0  0  0  0  0  0  0  0  0  0  0  0
   -0.3986    3.3098    2.9475 H   0  0  0  0  0  0  0  0  0  0  0  0
    1.3619    3.2123    3.1886 H   0  0  0  0  0  0  0  0  0  0  0  0
    0.6974    3.8450    1.6614 H   0  0  0  0  0  0  0  0  0  0  0  0
  5  6  2  0  0  0  0
  5  7  1  0  0  0  0
  2  3  1  0  0  0  0
  2  4  1  0  0  0  0
  2  5  1  0  0  0  0
  1  2  1  0  0  0  0
 24 25  2  0  0  0  0
 24 26  1  0  0  0  0
 20 21  1  0  0  0  0
 20 22  1  0  0  0  0
 20 23  1  0  0  0  0
 17 18  1  0  0  0  0
 17 19  1  0  0  0  0
 17 20  1  0  0  0  0
 13 14  1  0  0  0  0
 13 15  1  0  0  0  0
 13 16  1  0  0  0  0
 11 12  1  0  0  0  0
 11 13  1  0  0  0  0
 11 17  1  0  0  0  0
  9 10  1  0  0  0  0
  9 11  1  0  0  0  0
  9 24  1  0  0  0  0
  7  8  1  0  0  0  0
  7  9  1  0  0  0  0
 28 29  1  0  0  0  0
 28 30  1  0  0  0  0
 28 31  1  0  0  0  0
 26 27  1  0  0  0  0
 26 28  1  0  0  0  0
M  END
$$$$
default_name
  -OEChem-02102213163D

 31 30  0     1  0  0  0  0  0999 V2000
   -3.0760   -3.6390    1.5496 H   0  0  0  0  0  0  0  0  0  0  0  0
   -3.0940   -2.6290    1.1426 C   0  0  0  0  0  0  0  0  0  0  0  0
   -3.7160   -1.9930    1.7706 H   0  0  0  0  0  0  0  0  0  0  0  0
   -3.4880   -2.6500    0.1286 H   0  0  0  0  0  0  0  0  0  0  0  0
   -1.6860   -2.0850    1.1196 C   0  0  0  0  0  0  0  0  0  0  0  0
   -0.7540   -2.7700    1.5226 O   0  0  0  0  0  0  0  0  0  0  0  0
   -1.5320   -0.8490    0.6496 N   0  0  0  0  0  0  0  0  0  0  0  0
   -2.3500   -0.3360    0.3566 H   0  0  0  0  0  0  0  0  0  0  0  0
   -0.2470   -0.1410    0.5576 C   0  0  1  0  0  0  0  0  0  0  0  0
    0.4572   -0.6505    1.2162 H   0  0  0  0  0  0  0  0  0  0  0  0
    0.3091   -0.2220   -0.8868 C   0  0  1  0  0  0  0  0  0  0  0  0
    1.1617   -0.9036   -0.8655 H   0  0  0  0  0  0  0  0  0  0  0  0
   -0.7201   -0.7898   -1.8827 C   0  0  0  0  0  0  0  0  0  0  0  0
   -1.5617   -0.1044   -1.9978 H   0  0  0  0  0  0  0  0  0  0  0  0
   -0.2569   -0.9508   -2.8549 H   0  0  0  0  0  0  0  0  0  0  0  0
   -1.0953   -1.7511   -1.5295 H   0  0  0  0  0  0  0  0  0  0  0  0
    0.8316    1.1539   -1.3574 C   0  0  0  0  0  0  0  0  0  0  0  0
    0.2593    1.4935   -2.2218 H   0  0  0  0  0  0  0  0  0  0  0  0
    0.6946    1.8752   -0.5518 H   0  0  0  0  0  0  0  0  0  0  0  0
    2.3216    1.1558   -1.7251 C   0  0  0  0  0  0  0  0  0  0  0  0
    2.5005    0.5295   -2.5989 H   0  0  0  0  0  0  0  0  0  0  0  0
    2.6329    2.1741   -1.9588 H   0  0  0  0  0  0  0  0  0  0  0  0
    2.9133    0.7883   -0.8859 H   0  0  0  0  0  0  0  0  0  0  0  0
   -0.3971    1.3008    1.0689 C   0  0  0  0  0  0  0  0  0  0  0  0
   -1.3643    1.9819    0.7311 O   0  0  0  0  0  0  0  0  0  0  0  0
    0.5522    1.7647    1.8915 N   0  0  0  0  0  0  0  0  0  0  0  0
    1.3093    1.1450    2.1332 H   0  0  0  0  0  0  0  0  0  0  0  0
    0.5577    3.1119    2.4582 C   0  0  0  0  0  0  0  0  0  0  0  0
   -0.3986    3.3098    2.9475 H   0  0  0  0  0  0  0  0  0  0  0  0
    1.3619    3.2123    3.1886 H   0  0  0  0  0  0  0  0  0  0  0  0
    0.6974    3.8450    1.6614 H   0  0  0  0  0  0  0  0  0  0  0  0
  5  6  2  0  0  0  0
  5  7  1  0  0  0  0
  2  3  1  0  0  0  0
  2  4  1  0  0  0  0
  2  5  1  0  0  0  0
  1  2  1  0  0  0  0
 24 25  2  0  0  0  0
 24 26  1  0  0  0  0
 20 21  1  0  0  0  0
 20 22  1  0  0  0  0
 20 23  1  0  0  0  0
 17 18  1  0  0  0  0
 17 19  1  0  0  0  0
 17 20  1  0  0  0  0
 13 14  1  0  0  0  0
 13 15  1  0  0  0  0
 13 16  1  0  0  0  0
 11 12  1  0  0  0  0
 11 13  1  0  0  0  0
 11 17  1  0  0  0  0
  9 10  1  0  0  0  0
  9 11  1  0  0  0  0
  9 24  1  0  0  0  0
  7  8  1  0  0  0  0
  7  9  1  0  0  0  0
 28 29  1  0  0  0  0
 28 30  1  0  0  0  0
 28 31  1  0  0  0  0
 26 27  1  0  0  0  0
 26 28  1  0  0  0  0
M  END
$$$$
default_name
  -OEChem-02102213163D

 31 30  0     1  0  0  0  0  0999 V2000
   -3.0760   -3.6390    1.5496 H   0  0  0  0  0  0  0  0  0  0  0  0
   -3.0940   -2.6290    1.1426 C   0  0  0  0  0  0  0  0  0  0  0  0
   -3.7160   -1.9930    1.7706 H   0  0  0  0  0  0  0  0  0  0  0  0
   -3.4880   -2.6500    0.1286 H   0  0  0  0  0  0  0  0  0  0  0  0
   -1.6860   -2.0850    1.1196 C   0  0  0  0  0  0  0  0  0  0  0  0
   -0.7540   -2.7700    1.5226 O   0  0  0  0  0  0  0  0  0  0  0  0
   -1.5320   -0.8490    0.6496 N   0  0  0  0  0  0  0  0  0  0  0  0
   -2.3500   -0.3360    0.3566 H   0  0  0  0  0  0  0  0  0  0  0  0
   -0.2470   -0.1410    0.5576 C   0  0  1  0  0  0  0  0  0  0  0  0
    0.4572   -0.6505    1.2162 H   0  0  0  0  0  0  0  0  0  0  0  0
    0.3091   -0.2220   -0.8868 C   0  0  1  0  0  0  0  0  0  0  0  0
    1.1617   -0.9036   -0.8655 H   0  0  0  0  0  0  0  0  0  0  0  0
   -0.7201   -0.7898   -1.8827 C   0  0  0  0  0  0  0  0  0  0  0  0
   -1.5617   -0.1044   -1.9978 H   0  0  0  0  0  0  0  0  0  0  0  0
   -0.2569   -0.9508   -2.8549 H   0  0  0  0  0  0  0  0  0  0  0  0
   -1.0953   -1.7511   -1.5295 H   0  0  0  0  0  0  0  0  0  0  0  0
    0.8316    1.1539   -1.3574 C   0  0  0  0  0  0  0  0  0  0  0  0
    0.1107    1.6140   -2.0346 H   0  0  0  0  0  0  0  0  0  0  0  0
    0.9459    1.8016   -0.4882 H   0  0  0  0  0  0  0  0  0  0  0  0
    2.1933    1.0892   -2.0622 C   0  0  0  0  0  0  0  0  0  0  0  0
    2.1127    0.5396   -2.9999 H   0  0  0  0  0  0  0  0  0  0  0  0
    2.5329    2.1016   -2.2819 H   0  0  0  0  0  0  0  0  0  0  0  0
    2.9249    0.6025   -1.4162 H   0  0  0  0  0  0  0  0  0  0  0  0
   -0.3971    1.3008    1.0689 C   0  0  0  0  0  0  0  0  0  0  0  0
   -1.3643    1.9819    0.7311 O   0  0  0  0  0  0  0  0  0  0  0  0
    0.5522    1.7647    1.8915 N   0  0  0  0  0  0  0  0  0  0  0  0
    1.3093    1.1450    2.1332 H   0  0  0  0  0  0  0  0  0  0  0  0
    0.5577    3.1119    2.4582 C   0  0  0  0  0  0  0  0  0  0  0  0
   -0.3986    3.3098    2.9475 H   0  0  0  0  0  0  0  0  0  0  0  0
    1.3619    3.2123    3.1886 H   0  0  0  0  0  0  0  0  0  0  0  0
    0.6974    3.8450    1.6614 H   0  0  0  0  0  0  0  0  0  0  0  0
  5  6  2  0  0  0  0
  5  7  1  0  0  0  0
  2  3  1  0  0  0  0
  2  4  1  0  0  0  0
  2  5  1  0  0  0  0
  1  2  1  0  0  0  0
 24 25  2  0  0  0  0
 24 26  1  0  0  0  0
 20 21  1  0  0  0  0
 20 22  1  0  0  0  0
 20 23  1  0  0  0  0
 17 18  1  0  0  0  0
 17 19  1  0  0  0  0
 17 20  1  0  0  0  0
 13 14  1  0  0  0  0
 13 15  1  0  0  0  0
 13 16  1  0  0  0  0
 11 12  1  0  0  0  0
 11 13  1  0  0  0  0
 11 17  1  0  0  0  0
  9 10  1  0  0  0  0
  9 11  1  0  0  0  0
  9 24  1  0  0  0  0
  7  8  1  0  0  0  0
  7  9  1  0  0  0  0
 28 29  1  0  0  0  0
 28 30  1  0  0  0  0
 28 31  1  0  0  0  0
 26 27  1  0  0  0  0
 26 28  1  0  0  0  0
M  END
$$$$
default_name
  -OEChem-02102213163D

 31 30  0     1  0  0  0  0  0999 V2000
   -3.0760   -3.6390    1.5496 H   0  0  0  0  0  0  0  0  0  0  0  0
   -3.0940   -2.6290    1.1426 C   0  0  0  0  0  0  0  0  0  0  0  0
   -3.7160   -1.9930    1.7706 H   0  0  0  0  0  0  0  0  0  0  0  0
   -3.4880   -2.6500    0.1286 H   0  0  0  0  0  0  0  0  0  0  0  0
   -1.6860   -2.0850    1.1196 C   0  0  0  0  0  0  0  0  0  0  0  0
   -0.7540   -2.7700    1.5226 O   0  0  0  0  0  0  0  0  0  0  0  0
   -1.5320   -0.8490    0.6496 N   0  0  0  0  0  0  0  0  0  0  0  0
   -2.3500   -0.3360    0.3566 H   0  0  0  0  0  0  0  0  0  0  0  0
   -0.2470   -0.1410    0.5576 C   0  0  1  0  0  0  0  0  0  0  0  0
    0.4572   -0.6505    1.2162 H   0  0  0  0  0  0  0  0  0  0  0  0
    0.3091   -0.2220   -0.8868 C   0  0  1  0  0  0  0  0  0  0  0  0
    1.1617   -0.9036   -0.8655 H   0  0  0  0  0  0  0  0  0  0  0  0
   -0.7201   -0.7898   -1.8827 C   0  0  0  0  0  0  0  0  0  0  0  0
   -1.5617   -0.1044   -1.9978 H   0  0  0  0  0  0  0  0  0  0  0  0
   -0.2569   -0.9508   -2.8549 H   0  0  0  0  0  0  0  0  0  0  0  0
   -1.0953   -1.7511   -1.5295 H   0  0  0  0  0  0  0  0  0  0  0  0
    0.8316    1.1539   -1.3574 C   0  0  0  0  0  0  0  0  0  0  0  0
    0.0197    1.7257   -1.8090 H   0  0  0  0  0  0  0  0  0  0  0  0
    1.1974    1.7051   -0.4912 H   0  0  0  0  0  0  0  0  0  0  0  0
    1.9865    1.0644   -2.3641 C   0  0  0  0  0  0  0  0  0  0  0  0
    1.6466    0.6150   -3.2969 H   0  0  0  0  0  0  0  0  0  0  0  0
    2.3562    2.0677   -2.5772 H   0  0  0  0  0  0  0  0  0  0  0  0
    2.7993    0.4685   -1.9474 H   0  0  0  0  0  0  0  0  0  0  0  0
   -0.3971    1.3008    1.0689 C   0  0  0  0  0  0  0  0  0  0  0  0
   -1.3643    1.9819    0.7311 O   0  0  0  0  0  0  0  0  0  0  0  0
    0.5522    1.7647    1.8915 N   0  0  0  0  0  0  0  0  0  0  0  0
    1.3093    1.1450    2.1332 H   0  0  0  0  0  0  0  0  0  0  0  0
    0.5577    3.1119    2.4582 C   0  0  0  0  0  0  0  0  0  0  0  0
   -0.3986    3.3098    2.9475 H   0  0  0  0  0  0  0  0  0  0  0  0
    1.3619    3.2123    3.1886 H   0  0  0  0  0  0  0  0  0  0  0  0
    0.6974    3.8450    1.6614 H   0  0  0  0  0  0  0  0  0  0  0  0
  5  6  2  0  0  0  0
  5  7  1  0  0  0  0
  2  3  1  0  0  0  0
  2  4  1  0  0  0  0
  2  5  1  0  0  0  0
  1  2  1  0  0  0  0
 24 25  2  0  0  0  0
 24 26  1  0  0  0  0
 20 21  1  0  0  0  0
 20 22  1  0  0  0  0
 20 23  1  0  0  0  0
 17 18  1  0  0  0  0
 17 19  1  0  0  0  0
 17 20  1  0  0  0  0
 13 14  1  0  0  0  0
 13 15  1  0  0  0  0
 13 16  1  0  0  0  0
 11 12  1  0  0  0  0
 11 13  1  0  0  0  0
 11 17  1  0  0  0  0
  9 10  1  0  0  0  0
  9 11  1  0  0  0  0
  9 24  1  0  0  0  0
  7  8  1  0  0  0  0
  7  9  1  0  0  0  0
 28 29  1  0  0  0  0
 28 30  1  0  0  0  0
 28 31  1  0  0  0  0
 26 27  1  0  0  0  0
 26 28  1  0  0  0  0
M  END
$$$$
default_name
  -OEChem-02102213163D

 31 30  0     1  0  0  0  0  0999 V2000
   -3.0760   -3.6390    1.5496 H   0  0  0  0  0  0  0  0  0  0  0  0
   -3.0940   -2.6290    1.1426 C   0  0  0  0  0  0  0  0  0  0  0  0
   -3.7160   -1.9930    1.7706 H   0  0  0  0  0  0  0  0  0  0  0  0
   -3.4880   -2.6500    0.1286 H   0  0  0  0  0  0  0  0  0  0  0  0
   -1.6860   -2.0850    1.1196 C   0  0  0  0  0  0  0  0  0  0  0  0
   -0.7540   -2.7700    1.5226 O   0  0  0  0  0  0  0  0  0  0  0  0
   -1.5320   -0.8490    0.6496 N   0  0  0  0  0  0  0  0  0  0  0  0
   -2.3500   -0.3360    0.3566 H   0  0  0  0  0  0  0  0  0  0  0  0
   -0.2470   -0.1410    0.5576 C   0  0  1  0  0  0  0  0  0  0  0  0
    0.4572   -0.6505    1.2162 H   0  0  0  0  0  0  0  0  0  0  0  0
    0.3091   -0.2220   -0.8868 C   0  0  1  0  0  0  0  0  0  0  0  0
    1.1617   -0.9036   -0.8655 H   0  0  0  0  0  0  0  0  0  0  0  0
   -0.7201   -0.7898   -1.8827 C   0  0  0  0  0  0  0  0  0  0  0  0
   -1.5617   -0.1044   -1.9978 H   0  0  0  0  0  0  0  0  0  0  0  0
   -0.2569   -0.9508   -2.8549 H   0  0  0  0  0  0  0  0  0  0  0  0
   -1.0953   -1.7511   -1.5295 H   0  0  0  0  0  0  0  0  0  0  0  0
    0.8316    1.1539   -1.3574 C   0  0  0  0  0  0  0  0  0  0  0  0
   -0.0073    1.8210   -1.5603 H   0  0  0  0  0  0  0  0  0  0  0  0
    1.4320    1.5923   -0.5604 H   0  0  0  0  0  0  0  0  0  0  0  0
    1.7152    1.0833   -2.6102 C   0  0  0  0  0  0  0  0  0  0  0  0
    1.1338    0.7505   -3.4699 H   0  0  0  0  0  0  0  0  0  0  0  0
    2.1147    2.0747   -2.8247 H   0  0  0  0  0  0  0  0  0  0  0  0
    2.5449    0.3955   -2.4432 H   0  0  0  0  0  0  0  0  0  0  0  0
   -0.3971    1.3008    1.0689 C   0  0  0  0  0  0  0  0  0  0  0  0
   -1.3643    1.9819    0.7311 O   0  0  0  0  0  0  0  0  0  0  0  0
    0.5522    1.7647    1.8915 N   0  0  0  0  0  0  0  0  0  0  0  0
    1.3093    1.1450    2.1332 H   0  0  0  0  0  0  0  0  0  0  0  0
    0.5577    3.1119    2.4582 C   0  0  0  0  0  0  0  0  0  0  0  0
   -0.3986    3.3098    2.9475 H   0  0  0  0  0  0  0  0  0  0  0  0
    1.3619    3.2123    3.1886 H   0  0  0  0  0  0  0  0  0  0  0  0
    0.6974    3.8450    1.6614 H   0  0  0  0  0  0  0  0  0  0  0  0
  5  6  2  0  0  0  0
  5  7  1  0  0  0  0
  2  3  1  0  0  0  0
  2  4  1  0  0  0  0
  2  5  1  0  0  0  0
  1  2  1  0  0  0  0
 24 25  2  0  0  0  0
 24 26  1  0  0  0  0
 20 21  1  0  0  0  0
 20 22  1  0  0  0  0
 20 23  1  0  0  0  0
 17 18  1  0  0  0  0
 17 19  1  0  0  0  0
 17 20  1  0  0  0  0
 13 14  1  0  0  0  0
 13 15  1  0  0  0  0
 13 16  1  0  0  0  0
 11 12  1  0  0  0  0
 11 13  1  0  0  0  0
 11 17  1  0  0  0  0
  9 10  1  0  0  0  0
  9 11  1  0  0  0  0
  9 24  1  0  0  0  0
  7  8  1  0  0  0  0
  7  9  1  0  0  0  0
 28 29  1  0  0  0  0
 28 30  1  0  0  0  0
 28 31  1  0  0  0  0
 26 27  1  0  0  0  0
 26 28  1  0  0  0  0
M  END
$$$$
default_name
  -OEChem-02102213163D

 31 30  0     1  0  0  0  0  0999 V2000
   -3.0760   -3.6390    1.5496 H   0  0  0  0  0  0  0  0  0  0  0  0
   -3.0940   -2.6290    1.1426 C   0  0  0  0  0  0  0  0  0  0  0  0
   -3.7160   -1.9930    1.7706 H   0  0  0  0  0  0  0  0  0  0  0  0
   -3.4880   -2.6500    0.1286 H   0  0  0  0  0  0  0  0  0  0  0  0
   -1.6860   -2.0850    1.1196 C   0  0  0  0  0  0  0  0  0  0  0  0
   -0.7540   -2.7700    1.5226 O   0  0  0  0  0  0  0  0  0  0  0  0
   -1.5320   -0.8490    0.6496 N   0  0  0  0  0  0  0  0  0  0  0  0
   -2.3500   -0.3360    0.3566 H   0  0  0  0  0  0  0  0  0  0  0  0
   -0.2470   -0.1410    0.5576 C   0  0  1  0  0  0  0  0  0  0  0  0
    0.4572   -0.6505    1.2162 H   0  0  0  0  0  0  0  0  0  0  0  0
    0.3091   -0.2220   -0.8868 C   0  0  1  0  0  0  0  0  0  0  0  0
    0.9719   -1.0885   -0.9282 H   0  0  0  0  0  0  0  0  0  0  0  0
   -0.8014   -0.4308   -1.9341 C   0  0  0  0  0  0  0  0  0  0  0  0
   -1.4501    0.4454   -1.9857 H   0  0  0  0  0  0  0  0  0  0  0  0
   -0.3664   -0.6096   -2.9162 H   0  0  0  0  0  0  0  0  0  0  0  0
   -1.4054   -1.3008   -1.6742 H   0  0  0  0  0  0  0  0  0  0  0  0
    1.1588    1.0238   -1.2241 C   0  0  0  0  0  0  0  0  0  0  0  0
    0.5589    1.9269   -1.1043 H   0  0  0  0  0  0  0  0  0  0  0  0
    1.9969    1.0752   -0.5292 H   0  0  0  0  0  0  0  0  0  0  0  0
    1.7415    1.0077   -2.6438 C   0  0  0  0  0  0  0  0  0  0  0  0
    0.9445    1.0640   -3.3849 H   0  0  0  0  0  0  0  0  0  0  0  0
    2.3968    1.8694   -2.7732 H   0  0  0  0  0  0  0  0  0  0  0  0
    2.3200    0.0963   -2.7993 H   0  0  0  0  0  0  0  0  0  0  0  0
   -0.3971    1.3008    1.0689 C   0  0  0  0  0  0  0  0  0  0  0  0
   -1.3643    1.9819    0.7311 O   0  0  0  0  0  0  0  0  0  0  0  0
    0.5522    1.7647    1.8915 N   0  0  0  0  0  0  0  0  0  0  0  0
    1.3093    1.1450    2.1332 H   0  0  0  0  0  0  0  0  0  0  0  0
    0.5577    3.1119    2.4582 C   0  0  0  0  0  0  0  0  0  0  0  0
   -0.3986    3.3098    2.9475 H   0  0  0  0  0  0  0  0  0  0  0  0
    1.3619    3.2123    3.1886 H   0  0  0  0  0  0  0  0  0  0  0  0
    0.6974    3.8450    1.6614 H   0  0  0  0  0  0  0  0  0  0  0  0
  5  6  2  0  0  0  0
  5  7  1  0  0  0  0
  2  3  1  0  0  0  0
  2  4  1  0  0  0  0
  2  5  1  0  0  0  0
  1  2  1  0  0  0  0
 24 25  2  0  0  0  0
 24 26  1  0  0  0  0
 20 21  1  0  0  0  0
 20 22  1  0  0  0  0
 20 23  1  0  0  0  0
 17 18  1  0  0  0  0
 17 19  1  0  0  0  0
 17 20  1  0  0  0  0
 13 14  1  0  0  0  0
 13 15  1  0  0  0  0
 13 16  1  0  0  0  0
 11 12  1  0  0  0  0
 11 13  1  0  0  0  0
 11 17  1  0  0  0  0
  9 10  1  0  0  0  0
  9 11  1  0  0  0  0
  9 24  1  0  0  0  0
  7  8  1  0  0  0  0
  7  9  1  0  0  0  0
 28 29  1  0  0  0  0
 28 30  1  0  0  0  0
 28 31  1  0  0  0  0
 26 27  1  0  0  0  0
 26 28  1  0  0  0  0
M  END
$$$$
default_name
  -OEChem-02102213163D

 31 30  0     1  0  0  0  0  0999 V2000
   -3.0760   -3.6390    1.5496 H   0  0  0  0  0  0  0  0  0  0  0  0
   -3.0940   -2.6290    1.1426 C   0  0  0  0  0  0  0  0  0  0  0  0
   -3.7160   -1.9930    1.7706 H   0  0  0  0  0  0  0  0  0  0  0  0
   -3.4880   -2.6500    0.1286 H   0  0  0  0  0  0  0  0  0  0  0  0
   -1.6860   -2.0850    1.1196 C   0  0  0  0  0  0  0  0  0  0  0  0
   -0.7540   -2.7700    1.5226 O   0  0  0  0  0  0  0  0  0  0  0  0
   -1.5320   -0.8490    0.6496 N   0  0  0  0  0  0  0  0  0  0  0  0
   -2.3500   -0.3360    0.3566 H   0  0  0  0  0  0  0  0  0  0  0  0
   -0.2470   -0.1410    0.5576 C   0  0  1  0  0  0  0  0  0  0  0  0
    0.4572   -0.6505    1.2162 H   0  0  0  0  0  0  0  0  0  0  0  0
    0.3091   -0.2220   -0.8868 C   0  0  1  0  0  0  0  0  0  0  0  0
    0.9719   -1.0885   -0.9282 H   0  0  0  0  0  0  0  0  0  0  0  0
   -0.8014   -0.4308   -1.9341 C   0  0  0  0  0  0  0  0  0  0  0  0
   -1.4501    0.4454   -1.9857 H   0  0  0  0  0  0  0  0  0  0  0  0
   -0.3664   -0.6096   -2.9162 H   0  0  0  0  0  0  0  0  0  0  0  0
   -1.4054   -1.3008   -1.6742 H   0  0  0  0  0  0  0  0  0  0  0  0
    1.1588    1.0238   -1.2241 C   0  0  0  0  0  0  0  0  0  0  0  0
    0.6624    1.9232   -0.8575 H   0  0  0  0  0  0  0  0  0  0  0  0
    2.1228    0.9368   -0.7231 H   0  0  0  0  0  0  0  0  0  0  0  0
    1.4361    1.1943   -2.7239 C   0  0  0  0  0  0  0  0  0  0  0  0
    0.5104    1.3929   -3.2637 H   0  0  0  0  0  0  0  0  0  0  0  0
    2.1110    2.0378   -2.8711 H   0  0  0  0  0  0  0  0  0  0  0  0
    1.9037    0.2929   -3.1216 H   0  0  0  0  0  0  0  0  0  0  0  0
   -0.3971    1.3008    1.0689 C   0  0  0  0  0  0  0  0  0  0  0  0
   -1.3643    1.9819    0.7311 O   0  0  0  0  0  0  0  0  0  0  0  0
    0.5522    1.7647    1.8915 N   0  0  0  0  0  0  0  0  0  0  0  0
    1.3093    1.1450    2.1332 H   0  0  0  0  0  0  0  0  0  0  0  0
    0.5577    3.1119    2.4582 C   0  0  0  0  0  0  0  0  0  0  0  0
   -0.3986    3.3098    2.9475 H   0  0  0  0  0  0  0  0  0  0  0  0
    1.3619    3.2123    3.1886 H   0  0  0  0  0  0  0  0  0  0  0  0
    0.6974    3.8450    1.6614 H   0  0  0  0  0  0  0  0  0  0  0  0
  5  6  2  0  0  0  0
  5  7  1  0  0  0  0
  2  3  1  0  0  0  0
  2  4  1  0  0  0  0
  2  5  1  0  0  0  0
  1  2  1  0  0  0  0
 24 25  2  0  0  0  0
 24 26  1  0  0  0  0
 20 21  1  0  0  0  0
 20 22  1  0  0  0  0
 20 23  1  0  0  0  0
 17 18  1  0  0  0  0
 17 19  1  0  0  0  0
 17 20  1  0  0  0  0
 13 14  1  0  0  0  0
 13 15  1  0  0  0  0
 13 16  1  0  0  0  0
 11 12  1  0  0  0  0
 11 13  1  0  0  0  0
 11 17  1  0  0  0  0
  9 10  1  0  0  0  0
  9 11  1  0  0  0  0
  9 24  1  0  0  0  0
  7  8  1  0  0  0  0
  7  9  1  0  0  0  0
 28 29  1  0  0  0  0
 28 30  1  0  0  0  0
 28 31  1  0  0  0  0
 26 27  1  0  0  0  0
 26 28  1  0  0  0  0
M  END
$$$$
default_name
  -OEChem-02102213163D

 31 30  0     1  0  0  0  0  0999 V2000
   -3.0760   -3.6390    1.5496 H   0  0  0  0  0  0  0  0  0  0  0  0
   -3.0940   -2.6290    1.1426 C   0  0  0  0  0  0  0  0  0  0  0  0
   -3.7160   -1.9930    1.7706 H   0  0  0  0  0  0  0  0  0  0  0  0
   -3.4880   -2.6500    0.1286 H   0  0  0  0  0  0  0  0  0  0  0  0
   -1.6860   -2.0850    1.1196 C   0  0  0  0  0  0  0  0  0  0  0  0
   -0.7540   -2.7700    1.5226 O   0  0  0  0  0  0  0  0  0  0  0  0
   -1.5320   -0.8490    0.6496 N   0  0  0  0  0  0  0  0  0  0  0  0
   -2.3500   -0.3360    0.3566 H   0  0  0  0  0  0  0  0  0  0  0  0
   -0.2470   -0.1410    0.5576 C   0  0  1  0  0  0  0  0  0  0  0  0
    0.4572   -0.6505    1.2162 H   0  0  0  0  0  0  0  0  0  0  0  0
    0.3091   -0.2220   -0.8868 C   0  0  1  0  0  0  0  0  0  0  0  0
    0.9719   -1.0885   -0.9282 H   0  0  0  0  0  0  0  0  0  0  0  0
   -0.8014   -0.4308   -1.9341 C   0  0  0  0  0  0  0  0  0  0  0  0
   -1.4501    0.4454   -1.9857 H   0  0  0  0  0  0  0  0  0  0  0  0
   -0.3664   -0.6096   -2.9162 H   0  0  0  0  0  0  0  0  0  0  0  0
   -1.4054   -1.3008   -1.6742 H   0  0  0  0  0  0  0  0  0  0  0  0
    1.1588    1.0238   -1.2241 C   0  0  0  0  0  0  0  0  0  0  0  0
    0.8136    1.8787   -0.6411 H   0  0  0  0  0  0  0  0  0  0  0  0
    2.1962    0.8237   -0.9563 H   0  0  0  0  0  0  0  0  0  0  0  0
    1.1349    1.4032   -2.7110 C   0  0  0  0  0  0  0  0  0  0  0  0
    0.1350    1.7178   -3.0092 H   0  0  0  0  0  0  0  0  0  0  0  0
    1.8240    2.2305   -2.8820 H   0  0  0  0  0  0  0  0  0  0  0  0
    1.4455    0.5522   -3.3182 H   0  0  0  0  0  0  0  0  0  0  0  0
   -0.3971    1.3008    1.0689 C   0  0  0  0  0  0  0  0  0  0  0  0
   -1.3643    1.9819    0.7311 O   0  0  0  0  0  0  0  0  0  0  0  0
    0.5522    1.7647    1.8915 N   0  0  0  0  0  0  0  0  0  0  0  0
    1.3093    1.1450    2.1332 H   0  0  0  0  0  0  0  0  0  0  0  0
    0.5577    3.1119    2.4582 C   0  0  0  0  0  0  0  0  0  0  0  0
   -0.3986    3.3098    2.9475 H   0  0  0  0  0  0  0  0  0  0  0  0
    1.3619    3.2123    3.1886 H   0  0  0  0  0  0  0  0  0  0  0  0
    0.6974    3.8450    1.6614 H   0  0  0  0  0  0  0  0  0  0  0  0
  5  6  2  0  0  0  0
  5  7  1  0  0  0  0
  2  3  1  0  0  0  0
  2  4  1  0  0  0  0
  2  5  1  0  0  0  0
  1  2  1  0  0  0  0
 24 25  2  0  0  0  0
 24 26  1  0  0  0  0
 20 21  1  0  0  0  0
 20 22  1  0  0  0  0
 20 23  1  0  0  0  0
 17 18  1  0  0  0  0
 17 19  1  0  0  0  0
 17 20  1  0  0  0  0
 13 14  1  0  0  0  0
 13 15  1  0  0  0  0
 13 16  1  0  0  0  0
 11 12  1  0  0  0  0
 11 13  1  0  0  0  0
 11 17  1  0  0  0  0
  9 10  1  0  0  0  0
  9 11  1  0  0  0  0
  9 24  1  0  0  0  0
  7  8  1  0  0  0  0
  7  9  1  0  0  0  0
 28 29  1  0  0  0  0
 28 30  1  0  0  0  0
 28 31  1  0  0  0  0
 26 27  1  0  0  0  0
 26 28  1  0  0  0  0
M  END
$$$$
default_name
  -OEChem-02102213163D

 31 30  0     1  0  0  0  0  0999 V2000
   -3.0760   -3.6390    1.5496 H   0  0  0  0  0  0  0  0  0  0  0  0
   -3.0940   -2.6290    1.1426 C   0  0  0  0  0  0  0  0  0  0  0  0
   -3.7160   -1.9930    1.7706 H   0  0  0  0  0  0  0  0  0  0  0  0
   -3.4880   -2.6500    0.1286 H   0  0  0  0  0  0  0  0  0  0  0  0
   -1.6860   -2.0850    1.1196 C   0  0  0  0  0  0  0  0  0  0  0  0
   -0.7540   -2.7700    1.5226 O   0  0  0  0  0  0  0  0  0  0  0  0
   -1.5320   -0.8490    0.6496 N   0  0  0  0  0  0  0  0  0  0  0  0
   -2.3500   -0.3360    0.3566 H   0  0  0  0  0  0  0  0  0  0  0  0
   -0.2470   -0.1410    0.5576 C   0  0  1  0  0  0  0  0  0  0  0  0
    0.4572   -0.6505    1.2162 H   0  0  0  0  0  0  0  0  0  0  0  0
    0.3091   -0.2220   -0.8868 C   0  0  1  0  0  0  0  0  0  0  0  0
    0.9719   -1.0885   -0.9282 H   0  0  0  0  0  0  0  0  0  0  0  0
   -0.8014   -0.4308   -1.9341 C   0  0  0  0  0  0  0  0  0  0  0  0
   -1.4501    0.4454   -1.9857 H   0  0  0  0  0  0  0  0  0  0  0  0
   -0.3664   -0.6096   -2.9162 H   0  0  0  0  0  0  0  0  0  0  0  0
   -1.4054   -1.3008   -1.6742 H   0  0  0  0  0  0  0  0  0  0  0  0
    1.1588    1.0238   -1.2241 C   0  0  0  0  0  0  0  0  0  0  0  0
    1.0023    1.7963   -0.4701 H   0  0  0  0  0  0  0  0  0  0  0  0
    2.2120    0.7434   -1.2130 H   0  0  0  0  0  0  0  0  0  0  0  0
    0.8585    1.6202   -2.6059 C   0  0  0  0  0  0  0  0  0  0  0  0
   -0.1562    2.0167   -2.6389 H   0  0  0  0  0  0  0  0  0  0  0  0
    1.5555    2.4345   -2.8052 H   0  0  0  0  0  0  0  0  0  0  0  0
    0.9765    0.8566   -3.3755 H   0  0  0  0  0  0  0  0  0  0  0  0
   -0.3971    1.3008    1.0689 C   0  0  0  0  0  0  0  0  0  0  0  0
   -1.3643    1.9819    0.7311 O   0  0  0  0  0  0  0  0  0  0  0  0
    0.5522    1.7647    1.8915 N   0  0  0  0  0  0  0  0  0  0  0  0
    1.3093    1.1450    2.1332 H   0  0  0  0  0  0  0  0  0  0  0  0
    0.5577    3.1119    2.4582 C   0  0  0  0  0  0  0  0  0  0  0  0
   -0.3986    3.3098    2.9475 H   0  0  0  0  0  0  0  0  0  0  0  0
    1.3619    3.2123    3.1886 H   0  0  0  0  0  0  0  0  0  0  0  0
    0.6974    3.8450    1.6614 H   0  0  0  0  0  0  0  0  0  0  0  0
  5  6  2  0  0  0  0
  5  7  1  0  0  0  0
  2  3  1  0  0  0  0
  2  4  1  0  0  0  0
  2  5  1  0  0  0  0
  1  2  1  0  0  0  0
 24 25  2  0  0  0  0
 24 26  1  0  0  0  0
 20 21  1  0  0  0  0
 20 22  1  0  0  0  0
 20 23  1  0  0  0  0
 17 18  1  0  0  0  0
 17 19  1  0  0  0  0
 17 20  1  0  0  0  0
 13 14  1  0  0  0  0
 13 15  1  0  0  0  0
 13 16  1  0  0  0  0
 11 12  1  0  0  0  0
 11 13  1  0  0  0  0
 11 17  1  0  0  0  0
  9 10  1  0  0  0  0
  9 11  1  0  0  0  0
  9 24  1  0  0  0  0
  7  8  1  0  0  0  0
  7  9  1  0  0  0  0
 28 29  1  0  0  0  0
 28 30  1  0  0  0  0
 28 31  1  0  0  0  0
 26 27  1  0  0  0  0
 26 28  1  0  0  0  0
M  END
$$$$
default_name
  -OEChem-02102213163D

 31 30  0     1  0  0  0  0  0999 V2000
   -3.0760   -3.6390    1.5496 H   0  0  0  0  0  0  0  0  0  0  0  0
   -3.0940   -2.6290    1.1426 C   0  0  0  0  0  0  0  0  0  0  0  0
   -3.7160   -1.9930    1.7706 H   0  0  0  0  0  0  0  0  0  0  0  0
   -3.4880   -2.6500    0.1286 H   0  0  0  0  0  0  0  0  0  0  0  0
   -1.6860   -2.0850    1.1196 C   0  0  0  0  0  0  0  0  0  0  0  0
   -0.7540   -2.7700    1.5226 O   0  0  0  0  0  0  0  0  0  0  0  0
   -1.5320   -0.8490    0.6496 N   0  0  0  0  0  0  0  0  0  0  0  0
   -2.3500   -0.3360    0.3566 H   0  0  0  0  0  0  0  0  0  0  0  0
   -0.2470   -0.1410    0.5576 C   0  0  1  0  0  0  0  0  0  0  0  0
    0.4572   -0.6505    1.2162 H   0  0  0  0  0  0  0  0  0  0  0  0
    0.3091   -0.2220   -0.8868 C   0  0  1  0  0  0  0  0  0  0  0  0
    0.9719   -1.0885   -0.9282 H   0  0  0  0  0  0  0  0  0  0  0  0
   -0.8014   -0.4308   -1.9341 C   0  0  0  0  0  0  0  0  0  0  0  0
   -1.4501    0.4454   -1.9857 H   0  0  0  0  0  0  0  0  0  0  0  0
   -0.3664   -0.6096   -2.9162 H   0  0  0  0  0  0  0  0  0  0  0  0
   -1.4054   -1.3008   -1.6742 H   0  0  0  0  0  0  0  0  0  0  0  0
    1.1588    1.0238   -1.2241 C   0  0  0  0  0  0  0  0  0  0  0  0
    1.2156    1.6817   -0.3559 H   0  0  0  0  0  0  0  0  0  0  0  0
    2.1692    0.7015   -1.4757 H   0  0  0  0  0  0  0  0  0  0  0  0
    0.6256    1.8304   -2.4159 C   0  0  0  0  0  0  0  0  0  0  0  0
   -0.3432    2.2691   -2.1779 H   0  0  0  0  0  0  0  0  0  0  0  0
    1.3236    2.6357   -2.6460 H   0  0  0  0  0  0  0  0  0  0  0  0
    0.5288    1.1852   -3.2897 H   0  0  0  0  0  0  0  0  0  0  0  0
   -0.3971    1.3008    1.0689 C   0  0  0  0  0  0  0  0  0  0  0  0
   -1.3643    1.9819    0.7311 O   0  0  0  0  0  0  0  0  0  0  0  0
    0.5522    1.7647    1.8915 N   0  0  0  0  0  0  0  0  0  0  0  0
    1.3093    1.1450    2.1332 H   0  0  0  0  0  0  0  0  0  0  0  0
    0.5577    3.1119    2.4582 C   0  0  0  0  0  0  0  0  0  0  0  0
   -0.3986    3.3098    2.9475 H   0  0  0  0  0  0  0  0  0  0  0  0
    1.3619    3.2123    3.1886 H   0  0  0  0  0  0  0  0  0  0  0  0
    0.6974    3.8450    1.6614 H   0  0  0  0  0  0  0  0  0  0  0  0
  5  6  2  0  0  0  0
  5  7  1  0  0  0  0
  2  3  1  0  0  0  0
  2  4  1  0  0  0  0
  2  5  1  0  0  0  0
  1  2  1  0  0  0  0
 24 25  2  0  0  0  0
 24 26  1  0  0  0  0
 20 21  1  0  0  0  0
 20 22  1  0  0  0  0
 20 23  1  0  0  0  0
 17 18  1  0  0  0  0
 17 19  1  0  0  0  0
 17 20  1  0  0  0  0
 13 14  1  0  0  0  0
 13 15  1  0  0  0  0
 13 16  1  0  0  0  0
 11 12  1  0  0  0  0
 11 13  1  0  0  0  0
 11 17  1  0  0  0  0
  9 10  1  0  0  0  0
  9 11  1  0  0  0  0
  9 24  1  0  0  0  0
  7  8  1  0  0  0  0
  7  9  1  0  0  0  0
 28 29  1  0  0  0  0
 28 30  1  0  0  0  0
 28 31  1  0  0  0  0
 26 27  1  0  0  0  0
 26 28  1  0  0  0  0
M  END
$$$$
default_name
  -OEChem-02102213163D

 31 30  0     1  0  0  0  0  0999 V2000
   -3.0760   -3.6390    1.5496 H   0  0  0  0  0  0  0  0  0  0  0  0
   -3.0940   -2.6290    1.1426 C   0  0  0  0  0  0  0  0  0  0  0  0
   -3.7160   -1.9930    1.7706 H   0  0  0  0  0  0  0  0  0  0  0  0
   -3.4880   -2.6500    0.1286 H   0  0  0  0  0  0  0  0  0  0  0  0
   -1.6860   -2.0850    1.1196 C   0  0  0  0  0  0  0  0  0  0  0  0
   -0.7540   -2.7700    1.5226 O   0  0  0  0  0  0  0  0  0  0  0  0
   -1.5320   -0.8490    0.6496 N   0  0  0  0  0  0  0  0  0  0  0  0
   -2.3500   -0.3360    0.3566 H   0  0  0  0  0  0  0  0  0  0  0  0
   -0.2470   -0.1410    0.5576 C   0  0  1  0  0  0  0  0  0  0  0  0
    0.4572   -0.6505    1.2162 H   0  0  0  0  0  0  0  0  0  0  0  0
    0.3091   -0.2220   -0.8868 C   0  0  1  0  0  0  0  0  0  0  0  0
    0.9719   -1.0885   -0.9282 H   0  0  0  0  0  0  0  0  0  0  0  0
   -0.8014   -0.4308   -1.9341 C   0  0  0  0  0  0  0  0  0  0  0  0
   -1.4501    0.4454   -1.9857 H   0  0  0  0  0  0  0  0  0  0  0  0
   -0.3664   -0.6096   -2.9162 H   0  0  0  0  0  0  0  0  0  0  0  0
   -1.4054   -1.3008   -1.6742 H   0  0  0  0  0  0  0  0  0  0  0  0
    1.1588    1.0238   -1.2241 C   0  0  0  0  0  0  0  0  0  0  0  0
    1.4389    1.5428   -0.3065 H   0  0  0  0  0  0  0  0  0  0  0  0
    2.0706    0.7008   -1.7264 H   0  0  0  0  0  0  0  0  0  0  0  0
    0.4523    2.0196   -2.1538 C   0  0  0  0  0  0  0  0  0  0  0  0
   -0.4135    2.4578   -1.6576 H   0  0  0  0  0  0  0  0  0  0  0  0
    1.1442    2.8206   -2.4152 H   0  0  0  0  0  0  0  0  0  0  0  0
    0.1327    1.5157   -3.0667 H   0  0  0  0  0  0  0  0  0  0  0  0
   -0.3971    1.3008    1.0689 C   0  0  0  0  0  0  0  0  0  0  0  0
   -1.3643    1.9819    0.7311 O   0  0  0  0  0  0  0  0  0  0  0  0
    0.5522    1.7647    1.8915 N   0  0  0  0  0  0  0  0  0  0  0  0
    1.3093    1.1450    2.1332 H   0  0  0  0  0  0  0  0  0  0  0  0
    0.5577    3.1119    2.4582 C   0  0  0  0  0  0  0  0  0  0  0  0
   -0.3986    3.3098    2.9475 H   0  0  0  0  0  0  0  0  0  0  0  0
    1.3619    3.2123    3.1886 H   0  0  0  0  0  0  0  0  0  0  0  0
    0.6974    3.8450    1.6614 H   0  0  0  0  0  0  0  0  0  0  0  0
  5  6  2  0  0  0  0
  5  7  1  0  0  0  0
  2  3  1  0  0  0  0
  2  4  1  0  0  0  0
  2  5  1  0  0  0  0
  1  2  1  0  0  0  0
 24 25  2  0  0  0  0
 24 26  1  0  0  0  0
 20 21  1  0  0  0  0
 20 22  1  0  0  0  0
 20 23  1  0  0  0  0
 17 18  1  0  0  0  0
 17 19  1  0  0  0  0
 17 20  1  0  0  0  0
 13 14  1  0  0  0  0
 13 15  1  0  0  0  0
 13 16  1  0  0  0  0
 11 12  1  0  0  0  0
 11 13  1  0  0  0  0
 11 17  1  0  0  0  0
  9 10  1  0  0  0  0
  9 11  1  0  0  0  0
  9 24  1  0  0  0  0
  7  8  1  0  0  0  0
  7  9  1  0  0  0  0
 28 29  1  0  0  0  0
 28 30  1  0  0  0  0
 28 31  1  0  0  0  0
 26 27  1  0  0  0  0
 26 28  1  0  0  0  0
M  END
$$$$
default_name
  -OEChem-02102213163D

 31 30  0     1  0  0  0  0  0999 V2000
   -3.0760   -3.6390    1.5496 H   0  0  0  0  0  0  0  0  0  0  0  0
   -3.0940   -2.6290    1.1426 C   0  0  0  0  0  0  0  0  0  0  0  0
   -3.7160   -1.9930    1.7706 H   0  0  0  0  0  0  0  0  0  0  0  0
   -3.4880   -2.6500    0.1286 H   0  0  0  0  0  0  0  0  0  0  0  0
   -1.6860   -2.0850    1.1196 C   0  0  0  0  0  0  0  0  0  0  0  0
   -0.7540   -2.7700    1.5226 O   0  0  0  0  0  0  0  0  0  0  0  0
   -1.5320   -0.8490    0.6496 N   0  0  0  0  0  0  0  0  0  0  0  0
   -2.3500   -0.3360    0.3566 H   0  0  0  0  0  0  0  0  0  0  0  0
   -0.2470   -0.1410    0.5576 C   0  0  1  0  0  0  0  0  0  0  0  0
    0.4572   -0.6505    1.2162 H   0  0  0  0  0  0  0  0  0  0  0  0
    0.3091   -0.2220   -0.8868 C   0  0  1  0  0  0  0  0  0  0  0  0
    0.9719   -1.0885   -0.9282 H   0  0  0  0  0  0  0  0  0  0  0  0
   -0.8014   -0.4308   -1.9341 C   0  0  0  0  0  0  0  0  0  0  0  0
   -1.4501    0.4454   -1.9857 H   0  0  0  0  0  0  0  0  0  0  0  0
   -0.3664   -0.6096   -2.9162 H   0  0  0  0  0  0  0  0  0  0  0  0
   -1.4054   -1.3008   -1.6742 H   0  0  0  0  0  0  0  0  0  0  0  0
    1.1588    1.0238   -1.2241 C   0  0  0  0  0  0  0  0  0  0  0  0
    1.6572    1.3889   -0.3251 H   0  0  0  0  0  0  0  0  0  0  0  0
    1.9231    0.7414   -1.9481 H   0  0  0  0  0  0  0  0  0  0  0  0
    0.3502    2.1749   -1.8376 C   0  0  0  0  0  0  0  0  0  0  0  0
   -0.3621    2.5701   -1.1135 H   0  0  0  0  0  0  0  0  0  0  0  0
    1.0296    2.9764   -2.1285 H   0  0  0  0  0  0  0  0  0  0  0  0
   -0.1846    1.8256   -2.7215 H   0  0  0  0  0  0  0  0  0  0  0  0
   -0.3971    1.3008    1.0689 C   0  0  0  0  0  0  0  0  0  0  0  0
   -1.3643    1.9819    0.7311 O   0  0  0  0  0  0  0  0  0  0  0  0
    0.5522    1.7647    1.8915 N   0  0  0  0  0  0  0  0  0  0  0  0
    1.3093    1.1450    2.1332 H   0  0  0  0  0  0  0  0  0  0  0  0
    0.5577    3.1119    2.4582 C   0  0  0  0  0  0  0  0  0  0  0  0
   -0.3986    3.3098    2.9475 H   0  0  0  0  0  0  0  0  0  0  0  0
    1.3619    3.2123    3.1886 H   0  0  0  0  0  0  0  0  0  0  0  0
    0.6974    3.8450    1.6614 H   0  0  0  0  0  0  0  0  0  0  0  0
  5  6  2  0  0  0  0
  5  7  1  0  0  0  0
  2  3  1  0  0  0  0
  2  4  1  0  0  0  0
  2  5  1  0  0  0  0
  1  2  1  0  0  0  0
 24 25  2  0  0  0  0
 24 26  1  0  0  0  0
 20 21  1  0  0  0  0
 20 22  1  0  0  0  0
 20 23  1  0  0  0  0
 17 18  1  0  0  0  0
 17 19  1  0  0  0  0
 17 20  1  0  0  0  0
 13 14  1  0  0  0  0
 13 15  1  0  0  0  0
 13 16  1  0  0  0  0
 11 12  1  0  0  0  0
 11 13  1  0  0  0  0
 11 17  1  0  0  0  0
  9 10  1  0  0  0  0
  9 11  1  0  0  0  0
  9 24  1  0  0  0  0
  7  8  1  0  0  0  0
  7  9  1  0  0  0  0
 28 29  1  0  0  0  0
 28 30  1  0  0  0  0
 28 31  1  0  0  0  0
 26 27  1  0  0  0  0
 26 28  1  0  0  0  0
M  END
$$$$
default_name
  -OEChem-02102213163D

 31 30  0     1  0  0  0  0  0999 V2000
   -3.0760   -3.6390    1.5496 H   0  0  0  0  0  0  0  0  0  0  0  0
   -3.0940   -2.6290    1.1426 C   0  0  0  0  0  0  0  0  0  0  0  0
   -3.7160   -1.9930    1.7706 H   0  0  0  0  0  0  0  0  0  0  0  0
   -3.4880   -2.6500    0.1286 H   0  0  0  0  0  0  0  0  0  0  0  0
   -1.6860   -2.0850    1.1196 C   0  0  0  0  0  0  0  0  0  0  0  0
   -0.7540   -2.7700    1.5226 O   0  0  0  0  0  0  0  0  0  0  0  0
   -1.5320   -0.8490    0.6496 N   0  0  0  0  0  0  0  0  0  0  0  0
   -2.3500   -0.3360    0.3566 H   0  0  0  0  0  0  0  0  0  0  0  0
   -0.2470   -0.1410    0.5576 C   0  0  1  0  0  0  0  0  0  0  0  0
    0.4572   -0.6505    1.2162 H   0  0  0  0  0  0  0  0  0  0  0  0
    0.3091   -0.2220   -0.8868 C   0  0  1  0  0  0  0  0  0  0  0  0
    0.9719   -1.0885   -0.9282 H   0  0  0  0  0  0  0  0  0  0  0  0
   -0.8014   -0.4308   -1.9341 C   0  0  0  0  0  0  0  0  0  0  0  0
   -1.4501    0.4454   -1.9857 H   0  0  0  0  0  0  0  0  0  0  0  0
   -0.3664   -0.6096   -2.9162 H   0  0  0  0  0  0  0  0  0  0  0  0
   -1.4054   -1.3008   -1.6742 H   0  0  0  0  0  0  0  0  0  0  0  0
    1.1588    1.0238   -1.2241 C   0  0  0  0  0  0  0  0  0  0  0  0
    1.8554    1.2306   -0.4106 H   0  0  0  0  0  0  0  0  0  0  0  0
    1.7366    0.8205   -2.1257 H   0  0  0  0  0  0  0  0  0  0  0  0
    0.3263    2.2856   -1.4887 C   0  0  0  0  0  0  0  0  0  0  0  0
   -0.1926    2.5982   -0.5828 H   0  0  0  0  0  0  0  0  0  0  0  0
    0.9874    3.0926   -1.8055 H   0  0  0  0  0  0  0  0  0  0  0  0
   -0.4016    2.0937   -2.2778 H   0  0  0  0  0  0  0  0  0  0  0  0
   -0.3971    1.3008    1.0689 C   0  0  0  0  0  0  0  0  0  0  0  0
   -1.3643    1.9819    0.7311 O   0  0  0  0  0  0  0  0  0  0  0  0
    0.5522    1.7647    1.8915 N   0  0  0  0  0  0  0  0  0  0  0  0
    1.3093    1.1450    2.1332 H   0  0  0  0  0  0  0  0  0  0  0  0
    0.5577    3.1119    2.4582 C   0  0  0  0  0  0  0  0  0  0  0  0
   -0.3986    3.3098    2.9475 H   0  0  0  0  0  0  0  0  0  0  0  0
    1.3619    3.2123    3.1886 H   0  0  0  0  0  0  0  0  0  0  0  0
    0.6974    3.8450    1.6614 H   0  0  0  0  0  0  0  0  0  0  0  0
  5  6  2  0  0  0  0
  5  7  1  0  0  0  0
  2  3  1  0  0  0  0
  2  4  1  0  0  0  0
  2  5  1  0  0  0  0
  1  2  1  0  0  0  0
 24 25  2  0  0  0  0
 24 26  1  0  0  0  0
 20 21  1  0  0  0  0
 20 22  1  0  0  0  0
 20 23  1  0  0  0  0
 17 18  1  0  0  0  0
 17 19  1  0  0  0  0
 17 20  1  0  0  0  0
 13 14  1  0  0  0  0
 13 15  1  0  0  0  0
 13 16  1  0  0  0  0
 11 12  1  0  0  0  0
 11 13  1  0  0  0  0
 11 17  1  0  0  0  0
  9 10  1  0  0  0  0
  9 11  1  0  0  0  0
  9 24  1  0  0  0  0
  7  8  1  0  0  0  0
  7  9  1  0  0  0  0
 28 29  1  0  0  0  0
 28 30  1  0  0  0  0
 28 31  1  0  0  0  0
 26 27  1  0  0  0  0
 26 28  1  0  0  0  0
M  END
$$$$
default_name
  -OEChem-02102213163D

 31 30  0     1  0  0  0  0  0999 V2000
   -3.0760   -3.6390    1.5496 H   0  0  0  0  0  0  0  0  0  0  0  0
   -3.0940   -2.6290    1.1426 C   0  0  0  0  0  0  0  0  0  0  0  0
   -3.7160   -1.9930    1.7706 H   0  0  0  0  0  0  0  0  0  0  0  0
   -3.4880   -2.6500    0.1286 H   0  0  0  0  0  0  0  0  0  0  0  0
   -1.6860   -2.0850    1.1196 C   0  0  0  0  0  0  0  0  0  0  0  0
   -0.7540   -2.7700    1.5226 O   0  0  0  0  0  0  0  0  0  0  0  0
   -1.5320   -0.8490    0.6496 N   0  0  0  0  0  0  0  0  0  0  0  0
   -2.3500   -0.3360    0.3566 H   0  0  0  0  0  0  0  0  0  0  0  0
   -0.2470   -0.1410    0.5576 C   0  0  1  0  0  0  0  0  0  0  0  0
    0.4572   -0.6505    1.2162 H   0  0  0  0  0  0  0  0  0  0  0  0
    0.3091   -0.2220   -0.8868 C   0  0  1  0  0  0  0  0  0  0  0  0
    0.9719   -1.0885   -0.9282 H   0  0  0  0  0  0  0  0  0  0  0  0
   -0.8014   -0.4308   -1.9341 C   0  0  0  0  0  0  0  0  0  0  0  0
   -1.4501    0.4454   -1.9857 H   0  0  0  0  0  0  0  0  0  0  0  0
   -0.3664   -0.6096   -2.9162 H   0  0  0  0  0  0  0  0  0  0  0  0
   -1.4054   -1.3008   -1.6742 H   0  0  0  0  0  0  0  0  0  0  0  0
    1.1588    1.0238   -1.2241 C   0  0  0  0  0  0  0  0  0  0  0  0
    2.0201    1.0786   -0.5570 H   0  0  0  0  0  0  0  0  0  0  0  0
    1.5238    0.9328   -2.2471 H   0  0  0  0  0  0  0  0  0  0  0  0
    0.3823    2.3443   -1.1310 C   0  0  0  0  0  0  0  0  0  0  0  0
    0.0835    2.5402   -0.1014 H   0  0  0  0  0  0  0  0  0  0  0  0
    1.0207    3.1612   -1.4681 H   0  0  0  0  0  0  0  0  0  0  0  0
   -0.5034    2.3018   -1.7658 H   0  0  0  0  0  0  0  0  0  0  0  0
   -0.3971    1.3008    1.0689 C   0  0  0  0  0  0  0  0  0  0  0  0
   -1.3643    1.9819    0.7311 O   0  0  0  0  0  0  0  0  0  0  0  0
    0.5522    1.7647    1.8915 N   0  0  0  0  0  0  0  0  0  0  0  0
    1.3093    1.1450    2.1332 H   0  0  0  0  0  0  0  0  0  0  0  0
    0.5577    3.1119    2.4582 C   0  0  0  0  0  0  0  0  0  0  0  0
   -0.3986    3.3098    2.9475 H   0  0  0  0  0  0  0  0  0  0  0  0
    1.3619    3.2123    3.1886 H   0  0  0  0  0  0  0  0  0  0  0  0
    0.6974    3.8450    1.6614 H   0  0  0  0  0  0  0  0  0  0  0  0
  5  6  2  0  0  0  0
  5  7  1  0  0  0  0
  2  3  1  0  0  0  0
  2  4  1  0  0  0  0
  2  5  1  0  0  0  0
  1  2  1  0  0  0  0
 24 25  2  0  0  0  0
 24 26  1  0  0  0  0
 20 21  1  0  0  0  0
 20 22  1  0  0  0  0
 20 23  1  0  0  0  0
 17 18  1  0  0  0  0
 17 19  1  0  0  0  0
 17 20  1  0  0  0  0
 13 14  1  0  0  0  0
 13 15  1  0  0  0  0
 13 16  1  0  0  0  0
 11 12  1  0  0  0  0
 11 13  1  0  0  0  0
 11 17  1  0  0  0  0
  9 10  1  0  0  0  0
  9 11  1  0  0  0  0
  9 24  1  0  0  0  0
  7  8  1  0  0  0  0
  7  9  1  0  0  0  0
 28 29  1  0  0  0  0
 28 30  1  0  0  0  0
 28 31  1  0  0  0  0
 26 27  1  0  0  0  0
 26 28  1  0  0  0  0
M  END
$$$$
default_name
  -OEChem-02102213163D

 31 30  0     1  0  0  0  0  0999 V2000
   -3.0760   -3.6390    1.5496 H   0  0  0  0  0  0  0  0  0  0  0  0
   -3.0940   -2.6290    1.1426 C   0  0  0  0  0  0  0  0  0  0  0  0
   -3.7160   -1.9930    1.7706 H   0  0  0  0  0  0  0  0  0  0  0  0
   -3.4880   -2.6500    0.1286 H   0  0  0  0  0  0  0  0  0  0  0  0
   -1.6860   -2.0850    1.1196 C   0  0  0  0  0  0  0  0  0  0  0  0
   -0.7540   -2.7700    1.5226 O   0  0  0  0  0  0  0  0  0  0  0  0
   -1.5320   -0.8490    0.6496 N   0  0  0  0  0  0  0  0  0  0  0  0
   -2.3500   -0.3360    0.3566 H   0  0  0  0  0  0  0  0  0  0  0  0
   -0.2470   -0.1410    0.5576 C   0  0  1  0  0  0  0  0  0  0  0  0
    0.4572   -0.6505    1.2162 H   0  0  0  0  0  0  0  0  0  0  0  0
    0.3091   -0.2220   -0.8868 C   0  0  1  0  0  0  0  0  0  0  0  0
    0.9719   -1.0885   -0.9282 H   0  0  0  0  0  0  0  0  0  0  0  0
   -0.8014   -0.4308   -1.9341 C   0  0  0  0  0  0  0  0  0  0  0  0
   -1.4501    0.4454   -1.9857 H   0  0  0  0  0  0  0  0  0  0  0  0
   -0.3664   -0.6096   -2.9162 H   0  0  0  0  0  0  0  0  0  0  0  0
   -1.4054   -1.3008   -1.6742 H   0  0  0  0  0  0  0  0  0  0  0  0
    1.1588    1.0238   -1.2241 C   0  0  0  0  0  0  0  0  0  0  0  0
    2.1400    0.9434   -0.7544 H   0  0  0  0  0  0  0  0  0  0  0  0
    1.2993    1.0704   -2.3040 H   0  0  0  0  0  0  0  0  0  0  0  0
    0.5144    2.3469   -0.7888 C   0  0  0  0  0  0  0  0  0  0  0  0
    0.4473    2.4002    0.2976 H   0  0  0  0  0  0  0  0  0  0  0  0
    1.1271    3.1776   -1.1395 H   0  0  0  0  0  0  0  0  0  0  0  0
   -0.4832    2.4357   -1.2204 H   0  0  0  0  0  0  0  0  0  0  0  0
   -0.3971    1.3008    1.0689 C   0  0  0  0  0  0  0  0  0  0  0  0
   -1.3643    1.9819    0.7311 O   0  0  0  0  0  0  0  0  0  0  0  0
    0.5522    1.7647    1.8915 N   0  0  0  0  0  0  0  0  0  0  0  0
    1.3093    1.1450    2.1332 H   0  0  0  0  0  0  0  0  0  0  0  0
    0.5577    3.1119    2.4582 C   0  0  0  0  0  0  0  0  0  0  0  0
   -0.3986    3.3098    2.9475 H   0  0  0  0  0  0  0  0  0  0  0  0
    1.3619    3.2123    3.1886 H   0  0  0  0  0  0  0  0  0  0  0  0
    0.6974    3.8450    1.6614 H   0  0  0  0  0  0  0  0  0  0  0  0
  5  6  2  0  0  0  0
  5  7  1  0  0  0  0
  2  3  1  0  0  0  0
  2  4  1  0  0  0  0
  2  5  1  0  0  0  0
  1  2  1  0  0  0  0
 24 25  2  0  0  0  0
 24 26  1  0  0  0  0
 20 21  1  0  0  0  0
 20 22  1  0  0  0  0
 20 23  1  0  0  0  0
 17 18  1  0  0  0  0
 17 19  1  0  0  0  0
 17 20  1  0  0  0  0
 13 14  1  0  0  0  0
 13 15  1  0  0  0  0
 13 16  1  0  0  0  0
 11 12  1  0  0  0  0
 11 13  1  0  0  0  0
 11 17  1  0  0  0  0
  9 10  1  0  0  0  0
  9 11  1  0  0  0  0
  9 24  1  0  0  0  0
  7  8  1  0  0  0  0
  7  9  1  0  0  0  0
 28 29  1  0  0  0  0
 28 30  1  0  0  0  0
 28 31  1  0  0  0  0
 26 27  1  0  0  0  0
 26 28  1  0  0  0  0
M  END
$$$$
default_name
  -OEChem-02102213163D

 31 30  0     1  0  0  0  0  0999 V2000
   -3.0760   -3.6390    1.5496 H   0  0  0  0  0  0  0  0  0  0  0  0
   -3.0940   -2.6290    1.1426 C   0  0  0  0  0  0  0  0  0  0  0  0
   -3.7160   -1.9930    1.7706 H   0  0  0  0  0  0  0  0  0  0  0  0
   -3.4880   -2.6500    0.1286 H   0  0  0  0  0  0  0  0  0  0  0  0
   -1.6860   -2.0850    1.1196 C   0  0  0  0  0  0  0  0  0  0  0  0
   -0.7540   -2.7700    1.5226 O   0  0  0  0  0  0  0  0  0  0  0  0
   -1.5320   -0.8490    0.6496 N   0  0  0  0  0  0  0  0  0  0  0  0
   -2.3500   -0.3360    0.3566 H   0  0  0  0  0  0  0  0  0  0  0  0
   -0.2470   -0.1410    0.5576 C   0  0  1  0  0  0  0  0  0  0  0  0
    0.4572   -0.6505    1.2162 H   0  0  0  0  0  0  0  0  0  0  0  0
    0.3091   -0.2220   -0.8868 C   0  0  1  0  0  0  0  0  0  0  0  0
    0.9719   -1.0885   -0.9282 H   0  0  0  0  0  0  0  0  0  0  0  0
   -0.8014   -0.4308   -1.9341 C   0  0  0  0  0  0  0  0  0  0  0  0
   -1.4501    0.4454   -1.9857 H   0  0  0  0  0  0  0  0  0  0  0  0
   -0.3664   -0.6096   -2.9162 H   0  0  0  0  0  0  0  0  0  0  0  0
   -1.4054   -1.3008   -1.6742 H   0  0  0  0  0  0  0  0  0  0  0  0
    1.1588    1.0238   -1.2241 C   0  0  0  0  0  0  0  0  0  0  0  0
    2.2070    0.8340   -0.9894 H   0  0  0  0  0  0  0  0  0  0  0  0
    1.0784    1.2242   -2.2925 H   0  0  0  0  0  0  0  0  0  0  0  0
    0.7135    2.2932   -0.4855 C   0  0  0  0  0  0  0  0  0  0  0  0
    0.8741    2.1875    0.5873 H   0  0  0  0  0  0  0  0  0  0  0  0
    1.2994    3.1407   -0.8419 H   0  0  0  0  0  0  0  0  0  0  0  0
   -0.3423    2.4862   -0.6787 H   0  0  0  0  0  0  0  0  0  0  0  0
   -0.3971    1.3008    1.0689 C   0  0  0  0  0  0  0  0  0  0  0  0
   -1.3643    1.9819    0.7311 O   0  0  0  0  0  0  0  0  0  0  0  0
    0.5522    1.7647    1.8915 N   0  0  0  0  0  0  0  0  0  0  0  0
    1.3093    1.1450    2.1332 H   0  0  0  0  0  0  0  0  0  0  0  0
    0.5577    3.1119    2.4582 C   0  0  0  0  0  0  0  0  0  0  0  0
   -0.3986    3.3098    2.9475 H   0  0  0  0  0  0  0  0  0  0  0  0
    1.3619    3.2123    3.1886 H   0  0  0  0  0  0  0  0  0  0  0  0
    0.6974    3.8450    1.6614 H   0  0  0  0  0  0  0  0  0  0  0  0
  5  6  2  0  0  0  0
  5  7  1  0  0  0  0
  2  3  1  0  0  0  0
  2  4  1  0  0  0  0
  2  5  1  0  0  0  0
  1  2  1  0  0  0  0
 24 25  2  0  0  0  0
 24 26  1  0  0  0  0
 20 21  1  0  0  0  0
 20 22  1  0  0  0  0
 20 23  1  0  0  0  0
 17 18  1  0  0  0  0
 17 19  1  0  0  0  0
 17 20  1  0  0  0  0
 13 14  1  0  0  0  0
 13 15  1  0  0  0  0
 13 16  1  0  0  0  0
 11 12  1  0  0  0  0
 11 13  1  0  0  0  0
 11 17  1  0  0  0  0
  9 10  1  0  0  0  0
  9 11  1  0  0  0  0
  9 24  1  0  0  0  0
  7  8  1  0  0  0  0
  7  9  1  0  0  0  0
 28 29  1  0  0  0  0
 28 30  1  0  0  0  0
 28 31  1  0  0  0  0
 26 27  1  0  0  0  0
 26 28  1  0  0  0  0
M  END
$$$$
default_name
  -OEChem-02102213163D

 31 30  0     1  0  0  0  0  0999 V2000
   -3.0760   -3.6390    1.5496 H   0  0  0  0  0  0  0  0  0  0  0  0
   -3.0940   -2.6290    1.1426 C   0  0  0  0  0  0  0  0  0  0  0  0
   -3.7160   -1.9930    1.7706 H   0  0  0  0  0  0  0  0  0  0  0  0
   -3.4880   -2.6500    0.1286 H   0  0  0  0  0  0  0  0  0  0  0  0
   -1.6860   -2.0850    1.1196 C   0  0  0  0  0  0  0  0  0  0  0  0
   -0.7540   -2.7700    1.5226 O   0  0  0  0  0  0  0  0  0  0  0  0
   -1.5320   -0.8490    0.6496 N   0  0  0  0  0  0  0  0  0  0  0  0
   -2.3500   -0.3360    0.3566 H   0  0  0  0  0  0  0  0  0  0  0  0
   -0.2470   -0.1410    0.5576 C   0  0  1  0  0  0  0  0  0  0  0  0
    0.4572   -0.6505    1.2162 H   0  0  0  0  0  0  0  0  0  0  0  0
    0.3091   -0.2220   -0.8868 C   0  0  1  0  0  0  0  0  0  0  0  0
    0.9719   -1.0885   -0.9282 H   0  0  0  0  0  0  0  0  0  0  0  0
   -0.8014   -0.4308   -1.9341 C   0  0  0  0  0  0  0  0  0  0  0  0
   -1.4501    0.4454   -1.9857 H   0  0  0  0  0  0  0  0  0  0  0  0
   -0.3664   -0.6096   -2.9162 H   0  0  0  0  0  0  0  0  0  0  0  0
   -1.4054   -1.3008   -1.6742 H   0  0  0  0  0  0  0  0  0  0  0  0
    1.1588    1.0238   -1.2241 C   0  0  0  0  0  0  0  0  0  0  0  0
    2.2165    0.7581   -1.2459 H   0  0  0  0  0  0  0  0  0  0  0  0
    0.8761    1.3836   -2.2134 H   0  0  0  0  0  0  0  0  0  0  0  0
    0.9661    2.1869   -0.2417 C   0  0  0  0  0  0  0  0  0  0  0  0
    1.3348    1.9168    0.7477 H   0  0  0  0  0  0  0  0  0  0  0  0
    1.5259    3.0529   -0.5956 H   0  0  0  0  0  0  0  0  0  0  0  0
   -0.0903    2.4500   -0.1776 H   0  0  0  0  0  0  0  0  0  0  0  0
   -0.3971    1.3008    1.0689 C   0  0  0  0  0  0  0  0  0  0  0  0
   -1.3643    1.9819    0.7311 O   0  0  0  0  0  0  0  0  0  0  0  0
    0.5522    1.7647    1.8915 N   0  0  0  0  0  0  0  0  0  0  0  0
    1.3093    1.1450    2.1332 H   0  0  0  0  0  0  0  0  0  0  0  0
    0.5577    3.1119    2.4582 C   0  0  0  0  0  0  0  0  0  0  0  0
   -0.3986    3.3098    2.9475 H   0  0  0  0  0  0  0  0  0  0  0  0
    1.3619    3.2123    3.1886 H   0  0  0  0  0  0  0  0  0  0  0  0
    0.6974    3.8450    1.6614 H   0  0  0  0  0  0  0  0  0  0  0  0
  5  6  2  0  0  0  0
  5  7  1  0  0  0  0
  2  3  1  0  0  0  0
  2  4  1  0  0  0  0
  2  5  1  0  0  0  0
  1  2  1  0  0  0  0
 24 25  2  0  0  0  0
 24 26  1  0  0  0  0
 20 21  1  0  0  0  0
 20 22  1  0  0  0  0
 20 23  1  0  0  0  0
 17 18  1  0  0  0  0
 17 19  1  0  0  0  0
 17 20  1  0  0  0  0
 13 14  1  0  0  0  0
 13 15  1  0  0  0  0
 13 16  1  0  0  0  0
 11 12  1  0  0  0  0
 11 13  1  0  0  0  0
 11 17  1  0  0  0  0
  9 10  1  0  0  0  0
  9 11  1  0  0  0  0
  9 24  1  0  0  0  0
  7  8  1  0  0  0  0
  7  9  1  0  0  0  0
 28 29  1  0  0  0  0
 28 30  1  0  0  0  0
 28 31  1  0  0  0  0
 26 27  1  0  0  0  0
 26 28  1  0  0  0  0
M  END
$$$$
default_name
  -OEChem-02102213163D

 31 30  0     1  0  0  0  0  0999 V2000
   -3.0760   -3.6390    1.5496 H   0  0  0  0  0  0  0  0  0  0  0  0
   -3.0940   -2.6290    1.1426 C   0  0  0  0  0  0  0  0  0  0  0  0
   -3.7160   -1.9930    1.7706 H   0  0  0  0  0  0  0  0  0  0  0  0
   -3.4880   -2.6500    0.1286 H   0  0  0  0  0  0  0  0  0  0  0  0
   -1.6860   -2.0850    1.1196 C   0  0  0  0  0  0  0  0  0  0  0  0
   -0.7540   -2.7700    1.5226 O   0  0  0  0  0  0  0  0  0  0  0  0
   -1.5320   -0.8490    0.6496 N   0  0  0  0  0  0  0  0  0  0  0  0
   -2.3500   -0.3360    0.3566 H   0  0  0  0  0  0  0  0  0  0  0  0
   -0.2470   -0.1410    0.5576 C   0  0  1  0  0  0  0  0  0  0  0  0
    0.4572   -0.6505    1.2162 H   0  0  0  0  0  0  0  0  0  0  0  0
    0.3091   -0.2220   -0.8868 C   0  0  1  0  0  0  0  0  0  0  0  0
    0.9719   -1.0885   -0.9282 H   0  0  0  0  0  0  0  0  0  0  0  0
   -0.8014   -0.4308   -1.9341 C   0  0  0  0  0  0  0  0  0  0  0  0
   -1.4501    0.4454   -1.9857 H   0  0  0  0  0  0  0  0  0  0  0  0
   -0.3664   -0.6096   -2.9162 H   0  0  0  0  0  0  0  0  0  0  0  0
   -1.4054   -1.3008   -1.6742 H   0  0  0  0  0  0  0  0  0  0  0  0
    1.1588    1.0238   -1.2241 C   0  0  0  0  0  0  0  0  0  0  0  0
    2.1679    0.7207   -1.5064 H   0  0  0  0  0  0  0  0  0  0  0  0
    0.7062    1.5377   -2.0721 H   0  0  0  0  0  0  0  0  0  0  0  0
    1.2549    2.0353   -0.0740 C   0  0  0  0  0  0  0  0  0  0  0  0
    1.7979    1.6064    0.7680 H   0  0  0  0  0  0  0  0  0  0  0  0
    1.7910    2.9203   -0.4175 H   0  0  0  0  0  0  0  0  0  0  0  0
    0.2556    2.3295    0.2486 H   0  0  0  0  0  0  0  0  0  0  0  0
   -0.3971    1.3008    1.0689 C   0  0  0  0  0  0  0  0  0  0  0  0
   -1.3643    1.9819    0.7311 O   0  0  0  0  0  0  0  0  0  0  0  0
    0.5522    1.7647    1.8915 N   0  0  0  0  0  0  0  0  0  0  0  0
    1.3093    1.1450    2.1332 H   0  0  0  0  0  0  0  0  0  0  0  0
    0.5577    3.1119    2.4582 C   0  0  0  0  0  0  0  0  0  0  0  0
   -0.3986    3.3098    2.9475 H   0  0  0  0  0  0  0  0  0  0  0  0
    1.3619    3.2123    3.1886 H   0  0  0  0  0  0  0  0  0  0  0  0
    0.6974    3.8450    1.6614 H   0  0  0  0  0  0  0  0  0  0  0  0
  5  6  2  0  0  0  0
  5  7  1  0  0  0  0
  2  3  1  0  0  0  0
  2  4  1  0  0  0  0
  2  5  1  0  0  0  0
  1  2  1  0  0  0  0
 24 25  2  0  0  0  0
 24 26  1  0  0  0  0
 20 21  1  0  0  0  0
 20 22  1  0  0  0  0
 20 23  1  0  0  0  0
 17 18  1  0  0  0  0
 17 19  1  0  0  0  0
 17 20  1  0  0  0  0
 13 14  1  0  0  0  0
 13 15  1  0  0  0  0
 13 16  1  0  0  0  0
 11 12  1  0  0  0  0
 11 13  1  0  0  0  0
 11 17  1  0  0  0  0
  9 10  1  0  0  0  0
  9 11  1  0  0  0  0
  9 24  1  0  0  0  0
  7  8  1  0  0  0  0
  7  9  1  0  0  0  0
 28 29  1  0  0  0  0
 28 30  1  0  0  0  0
 28 31  1  0  0  0  0
 26 27  1  0  0  0  0
 26 28  1  0  0  0  0
M  END
$$$$
default_name
  -OEChem-02102213163D

 31 30  0     1  0  0  0  0  0999 V2000
   -3.0760   -3.6390    1.5496 H   0  0  0  0  0  0  0  0  0  0  0  0
   -3.0940   -2.6290    1.1426 C   0  0  0  0  0  0  0  0  0  0  0  0
   -3.7160   -1.9930    1.7706 H   0  0  0  0  0  0  0  0  0  0  0  0
   -3.4880   -2.6500    0.1286 H   0  0  0  0  0  0  0  0  0  0  0  0
   -1.6860   -2.0850    1.1196 C   0  0  0  0  0  0  0  0  0  0  0  0
   -0.7540   -2.7700    1.5226 O   0  0  0  0  0  0  0  0  0  0  0  0
   -1.5320   -0.8490    0.6496 N   0  0  0  0  0  0  0  0  0  0  0  0
   -2.3500   -0.3360    0.3566 H   0  0  0  0  0  0  0  0  0  0  0  0
   -0.2470   -0.1410    0.5576 C   0  0  1  0  0  0  0  0  0  0  0  0
    0.4572   -0.6505    1.2162 H   0  0  0  0  0  0  0  0  0  0  0  0
    0.3091   -0.2220   -0.8868 C   0  0  1  0  0  0  0  0  0  0  0  0
    0.9719   -1.0885   -0.9282 H   0  0  0  0  0  0  0  0  0  0  0  0
   -0.8014   -0.4308   -1.9341 C   0  0  0  0  0  0  0  0  0  0  0  0
   -1.4501    0.4454   -1.9857 H   0  0  0  0  0  0  0  0  0  0  0  0
   -0.3664   -0.6096   -2.9162 H   0  0  0  0  0  0  0  0  0  0  0  0
   -1.4054   -1.3008   -1.6742 H   0  0  0  0  0  0  0  0  0  0  0  0
    1.1588    1.0238   -1.2241 C   0  0  0  0  0  0  0  0  0  0  0  0
    2.0645    0.7244   -1.7533 H   0  0  0  0  0  0  0  0  0  0  0  0
    0.5803    1.6761   -1.8782 H   0  0  0  0  0  0  0  0  0  0  0  0
    1.5604    1.8487    0.0061 C   0  0  0  0  0  0  0  0  0  0  0  0
    2.2320    1.2775    0.6468 H   0  0  0  0  0  0  0  0  0  0  0  0
    2.0768    2.7519   -0.3197 H   0  0  0  0  0  0  0  0  0  0  0  0
    0.6718    2.1329    0.5709 H   0  0  0  0  0  0  0  0  0  0  0  0
   -0.3971    1.3008    1.0689 C   0  0  0  0  0  0  0  0  0  0  0  0
   -1.3643    1.9819    0.7311 O   0  0  0  0  0  0  0  0  0  0  0  0
    0.5522    1.7647    1.8915 N   0  0  0  0  0  0  0  0  0  0  0  0
    1.3093    1.1450    2.1332 H   0  0  0  0  0  0  0  0  0  0  0  0
    0.5577    3.1119    2.4582 C   0  0  0  0  0  0  0  0  0  0  0  0
   -0.3986    3.3098    2.9475 H   0  0  0  0  0  0  0  0  0  0  0  0
    1.3619    3.2123    3.1886 H   0  0  0  0  0  0  0  0  0  0  0  0
    0.6974    3.8450    1.6614 H   0  0  0  0  0  0  0  0  0  0  0  0
  5  6  2  0  0  0  0
  5  7  1  0  0  0  0
  2  3  1  0  0  0  0
  2  4  1  0  0  0  0
  2  5  1  0  0  0  0
  1  2  1  0  0  0  0
 24 25  2  0  0  0  0
 24 26  1  0  0  0  0
 20 21  1  0  0  0  0
 20 22  1  0  0  0  0
 20 23  1  0  0  0  0
 17 18  1  0  0  0  0
 17 19  1  0  0  0  0
 17 20  1  0  0  0  0
 13 14  1  0  0  0  0
 13 15  1  0  0  0  0
 13 16  1  0  0  0  0
 11 12  1  0  0  0  0
 11 13  1  0  0  0  0
 11 17  1  0  0  0  0
  9 10  1  0  0  0  0
  9 11  1  0  0  0  0
  9 24  1  0  0  0  0
  7  8  1  0  0  0  0
  7  9  1  0  0  0  0
 28 29  1  0  0  0  0
 28 30  1  0  0  0  0
 28 31  1  0  0  0  0
 26 27  1  0  0  0  0
 26 28  1  0  0  0  0
M  END
$$$$
default_name
  -OEChem-02102213163D

 31 30  0     1  0  0  0  0  0999 V2000
   -3.0760   -3.6390    1.5496 H   0  0  0  0  0  0  0  0  0  0  0  0
   -3.0940   -2.6290    1.1426 C   0  0  0  0  0  0  0  0  0  0  0  0
   -3.7160   -1.9930    1.7706 H   0  0  0  0  0  0  0  0  0  0  0  0
   -3.4880   -2.6500    0.1286 H   0  0  0  0  0  0  0  0  0  0  0  0
   -1.6860   -2.0850    1.1196 C   0  0  0  0  0  0  0  0  0  0  0  0
   -0.7540   -2.7700    1.5226 O   0  0  0  0  0  0  0  0  0  0  0  0
   -1.5320   -0.8490    0.6496 N   0  0  0  0  0  0  0  0  0  0  0  0
   -2.3500   -0.3360    0.3566 H   0  0  0  0  0  0  0  0  0  0  0  0
   -0.2470   -0.1410    0.5576 C   0  0  1  0  0  0  0  0  0  0  0  0
    0.4572   -0.6505    1.2162 H   0  0  0  0  0  0  0  0  0  0  0  0
    0.3091   -0.2220   -0.8868 C   0  0  1  0  0  0  0  0  0  0  0  0
    0.9719   -1.0885   -0.9282 H   0  0  0  0  0  0  0  0  0  0  0  0
   -0.8014   -0.4308   -1.9341 C   0  0  0  0  0  0  0  0  0  0  0  0
   -1.4501    0.4454   -1.9857 H   0  0  0  0  0  0  0  0  0  0  0  0
   -0.3664   -0.6096   -2.9162 H   0  0  0  0  0  0  0  0  0  0  0  0
   -1.4054   -1.3008   -1.6742 H   0  0  0  0  0  0  0  0  0  0  0  0
    1.1588    1.0238   -1.2241 C   0  0  0  0  0  0  0  0  0  0  0  0
    1.9132    0.7690   -1.9696 H   0  0  0  0  0  0  0  0  0  0  0  0
    0.5070    1.7893   -1.6450 H   0  0  0  0  0  0  0  0  0  0  0  0
    1.8616    1.6398   -0.0068 C   0  0  0  0  0  0  0  0  0  0  0  0
    2.6074    0.9526    0.3923 H   0  0  0  0  0  0  0  0  0  0  0  0
    2.3637    2.5592   -0.3088 H   0  0  0  0  0  0  0  0  0  0  0  0
    1.1300    1.8736    0.7675 H   0  0  0  0  0  0  0  0  0  0  0  0
   -0.3971    1.3008    1.0689 C   0  0  0  0  0  0  0  0  0  0  0  0
   -1.3643    1.9819    0.7311 O   0  0  0  0  0  0  0  0  0  0  0  0
    0.5522    1.7647    1.8915 N   0  0  0  0  0  0  0  0  0  0  0  0
    1.3093    1.1450    2.1332 H   0  0  0  0  0  0  0  0  0  0  0  0
    0.5577    3.1119    2.4582 C   0  0  0  0  0  0  0  0  0  0  0  0
   -0.3986    3.3098    2.9475 H   0  0  0  0  0  0  0  0  0  0  0  0
    1.3619    3.2123    3.1886 H   0  0  0  0  0  0  0  0  0  0  0  0
    0.6974    3.8450    1.6614 H   0  0  0  0  0  0  0  0  0  0  0  0
  5  6  2  0  0  0  0
  5  7  1  0  0  0  0
  2  3  1  0  0  0  0
  2  4  1  0  0  0  0
  2  5  1  0  0  0  0
  1  2  1  0  0  0  0
 24 25  2  0  0  0  0
 24 26  1  0  0  0  0
 20 21  1  0  0  0  0
 20 22  1  0  0  0  0
 20 23  1  0  0  0  0
 17 18  1  0  0  0  0
 17 19  1  0  0  0  0
 17 20  1  0  0  0  0
 13 14  1  0  0  0  0
 13 15  1  0  0  0  0
 13 16  1  0  0  0  0
 11 12  1  0  0  0  0
 11 13  1  0  0  0  0
 11 17  1  0  0  0  0
  9 10  1  0  0  0  0
  9 11  1  0  0  0  0
  9 24  1  0  0  0  0
  7  8  1  0  0  0  0
  7  9  1  0  0  0  0
 28 29  1  0  0  0  0
 28 30  1  0  0  0  0
 28 31  1  0  0  0  0
 26 27  1  0  0  0  0
 26 28  1  0  0  0  0
M  END
$$$$
default_name
  -OEChem-02102213163D

 31 30  0     1  0  0  0  0  0999 V2000
   -3.0760   -3.6390    1.5496 H   0  0  0  0  0  0  0  0  0  0  0  0
   -3.0940   -2.6290    1.1426 C   0  0  0  0  0  0  0  0  0  0  0  0
   -3.7160   -1.9930    1.7706 H   0  0  0  0  0  0  0  0  0  0  0  0
   -3.4880   -2.6500    0.1286 H   0  0  0  0  0  0  0  0  0  0  0  0
   -1.6860   -2.0850    1.1196 C   0  0  0  0  0  0  0  0  0  0  0  0
   -0.7540   -2.7700    1.5226 O   0  0  0  0  0  0  0  0  0  0  0  0
   -1.5320   -0.8490    0.6496 N   0  0  0  0  0  0  0  0  0  0  0  0
   -2.3500   -0.3360    0.3566 H   0  0  0  0  0  0  0  0  0  0  0  0
   -0.2470   -0.1410    0.5576 C   0  0  1  0  0  0  0  0  0  0  0  0
    0.4572   -0.6505    1.2162 H   0  0  0  0  0  0  0  0  0  0  0  0
    0.3091   -0.2220   -0.8868 C   0  0  1  0  0  0  0  0  0  0  0  0
    0.9719   -1.0885   -0.9282 H   0  0  0  0  0  0  0  0  0  0  0  0
   -0.8014   -0.4308   -1.9341 C   0  0  0  0  0  0  0  0  0  0  0  0
   -1.4501    0.4454   -1.9857 H   0  0  0  0  0  0  0  0  0  0  0  0
   -0.3664   -0.6096   -2.9162 H   0  0  0  0  0  0  0  0  0  0  0  0
   -1.4054   -1.3008   -1.6742 H   0  0  0  0  0  0  0  0  0  0  0  0
    1.1588    1.0238   -1.2241 C   0  0  0  0  0  0  0  0  0  0  0  0
    1.7246    0.8513   -2.1407 H   0  0  0  0  0  0  0  0  0  0  0  0
    0.4912    1.8696   -1.3883 H   0  0  0  0  0  0  0  0  0  0  0  0
    2.1380    1.4228   -0.1118 C   0  0  0  0  0  0  0  0  0  0  0  0
    2.8985    0.6537    0.0220 H   0  0  0  0  0  0  0  0  0  0  0  0
    2.6323    2.3552   -0.3855 H   0  0  0  0  0  0  0  0  0  0  0  0
    1.5990    1.5693    0.8248 H   0  0  0  0  0  0  0  0  0  0  0  0
   -0.3971    1.3008    1.0689 C   0  0  0  0  0  0  0  0  0  0  0  0
   -1.3643    1.9819    0.7311 O   0  0  0  0  0  0  0  0  0  0  0  0
    0.5522    1.7647    1.8915 N   0  0  0  0  0  0  0  0  0  0  0  0
    1.3093    1.1450    2.1332 H   0  0  0  0  0  0  0  0  0  0  0  0
    0.5577    3.1119    2.4582 C   0  0  0  0  0  0  0  0  0  0  0  0
   -0.3986    3.3098    2.9475 H   0  0  0  0  0  0  0  0  0  0  0  0
    1.3619    3.2123    3.1886 H   0  0  0  0  0  0  0  0  0  0  0  0
    0.6974    3.8450    1.6614 H   0  0  0  0  0  0  0  0  0  0  0  0
  5  6  2  0  0  0  0
  5  7  1  0  0  0  0
  2  3  1  0  0  0  0
  2  4  1  0  0  0  0
  2  5  1  0  0  0  0
  1  2  1  0  0  0  0
 24 25  2  0  0  0  0
 24 26  1  0  0  0  0
 20 21  1  0  0  0  0
 20 22  1  0  0  0  0
 20 23  1  0  0  0  0
 17 18  1  0  0  0  0
 17 19  1  0  0  0  0
 17 20  1  0  0  0  0
 13 14  1  0  0  0  0
 13 15  1  0  0  0  0
 13 16  1  0  0  0  0
 11 12  1  0  0  0  0
 11 13  1  0  0  0  0
 11 17  1  0  0  0  0
  9 10  1  0  0  0  0
  9 11  1  0  0  0  0
  9 24  1  0  0  0  0
  7  8  1  0  0  0  0
  7  9  1  0  0  0  0
 28 29  1  0  0  0  0
 28 30  1  0  0  0  0
 28 31  1  0  0  0  0
 26 27  1  0  0  0  0
 26 28  1  0  0  0  0
M  END
$$$$
default_name
  -OEChem-02102213163D

 31 30  0     1  0  0  0  0  0999 V2000
   -3.0760   -3.6390    1.5496 H   0  0  0  0  0  0  0  0  0  0  0  0
   -3.0940   -2.6290    1.1426 C   0  0  0  0  0  0  0  0  0  0  0  0
   -3.7160   -1.9930    1.7706 H   0  0  0  0  0  0  0  0  0  0  0  0
   -3.4880   -2.6500    0.1286 H   0  0  0  0  0  0  0  0  0  0  0  0
   -1.6860   -2.0850    1.1196 C   0  0  0  0  0  0  0  0  0  0  0  0
   -0.7540   -2.7700    1.5226 O   0  0  0  0  0  0  0  0  0  0  0  0
   -1.5320   -0.8490    0.6496 N   0  0  0  0  0  0  0  0  0  0  0  0
   -2.3500   -0.3360    0.3566 H   0  0  0  0  0  0  0  0  0  0  0  0
   -0.2470   -0.1410    0.5576 C   0  0  1  0  0  0  0  0  0  0  0  0
    0.4572   -0.6505    1.2162 H   0  0  0  0  0  0  0  0  0  0  0  0
    0.3091   -0.2220   -0.8868 C   0  0  1  0  0  0  0  0  0  0  0  0
    0.9719   -1.0885   -0.9282 H   0  0  0  0  0  0  0  0  0  0  0  0
   -0.8014   -0.4308   -1.9341 C   0  0  0  0  0  0  0  0  0  0  0  0
   -1.4501    0.4454   -1.9857 H   0  0  0  0  0  0  0  0  0  0  0  0
   -0.3664   -0.6096   -2.9162 H   0  0  0  0  0  0  0  0  0  0  0  0
   -1.4054   -1.3008   -1.6742 H   0  0  0  0  0  0  0  0  0  0  0  0
    1.1588    1.0238   -1.2241 C   0  0  0  0  0  0  0  0  0  0  0  0
    1.5113    0.9659   -2.2548 H   0  0  0  0  0  0  0  0  0  0  0  0
    0.5340    1.9115   -1.1257 H   0  0  0  0  0  0  0  0  0  0  0  0
    2.3708    1.2125   -0.3019 C   0  0  0  0  0  0  0  0  0  0  0  0
    3.0856    0.4013   -0.4390 H   0  0  0  0  0  0  0  0  0  0  0  0
    2.8642    2.1540   -0.5447 H   0  0  0  0  0  0  0  0  0  0  0  0
    2.0468    1.2407    0.7390 H   0  0  0  0  0  0  0  0  0  0  0  0
   -0.3971    1.3008    1.0689 C   0  0  0  0  0  0  0  0  0  0  0  0
   -1.3643    1.9819    0.7311 O   0  0  0  0  0  0  0  0  0  0  0  0
    0.5522    1.7647    1.8915 N   0  0  0  0  0  0  0  0  0  0  0  0
    1.3093    1.1450    2.1332 H   0  0  0  0  0  0  0  0  0  0  0  0
    0.5577    3.1119    2.4582 C   0  0  0  0  0  0  0  0  0  0  0  0
   -0.3986    3.3098    2.9475 H   0  0  0  0  0  0  0  0  0  0  0  0
    1.3619    3.2123    3.1886 H   0  0  0  0  0  0  0  0  0  0  0  0
    0.6974    3.8450    1.6614 H   0  0  0  0  0  0  0  0  0  0  0  0
  5  6  2  0  0  0  0
  5  7  1  0  0  0  0
  2  3  1  0  0  0  0
  2  4  1  0  0  0  0
  2  5  1  0  0  0  0
  1  2  1  0  0  0  0
 24 25  2  0  0  0  0
 24 26  1  0  0  0  0
 20 21  1  0  0  0  0
 20 22  1  0  0  0  0
 20 23  1  0  0  0  0
 17 18  1  0  0  0  0
 17 19  1  0  0  0  0
 17 20  1  0  0  0  0
 13 14  1  0  0  0  0
 13 15  1  0  0  0  0
 13 16  1  0  0  0  0
 11 12  1  0  0  0  0
 11 13  1  0  0  0  0
 11 17  1  0  0  0  0
  9 10  1  0  0  0  0
  9 11  1  0  0  0  0
  9 24  1  0  0  0  0
  7  8  1  0  0  0  0
  7  9  1  0  0  0  0
 28 29  1  0  0  0  0
 28 30  1  0  0  0  0
 28 31  1  0  0  0  0
 26 27  1  0  0  0  0
 26 28  1  0  0  0  0
M  END
$$$$
default_name
  -OEChem-02102213163D

 31 30  0     1  0  0  0  0  0999 V2000
   -3.0760   -3.6390    1.5496 H   0  0  0  0  0  0  0  0  0  0  0  0
   -3.0940   -2.6290    1.1426 C   0  0  0  0  0  0  0  0  0  0  0  0
   -3.7160   -1.9930    1.7706 H   0  0  0  0  0  0  0  0  0  0  0  0
   -3.4880   -2.6500    0.1286 H   0  0  0  0  0  0  0  0  0  0  0  0
   -1.6860   -2.0850    1.1196 C   0  0  0  0  0  0  0  0  0  0  0  0
   -0.7540   -2.7700    1.5226 O   0  0  0  0  0  0  0  0  0  0  0  0
   -1.5320   -0.8490    0.6496 N   0  0  0  0  0  0  0  0  0  0  0  0
   -2.3500   -0.3360    0.3566 H   0  0  0  0  0  0  0  0  0  0  0  0
   -0.2470   -0.1410    0.5576 C   0  0  1  0  0  0  0  0  0  0  0  0
    0.4572   -0.6505    1.2162 H   0  0  0  0  0  0  0  0  0  0  0  0
    0.3091   -0.2220   -0.8868 C   0  0  1  0  0  0  0  0  0  0  0  0
    0.9719   -1.0885   -0.9282 H   0  0  0  0  0  0  0  0  0  0  0  0
   -0.8014   -0.4308   -1.9341 C   0  0  0  0  0  0  0  0  0  0  0  0
   -1.4501    0.4454   -1.9857 H   0  0  0  0  0  0  0  0  0  0  0  0
   -0.3664   -0.6096   -2.9162 H   0  0  0  0  0  0  0  0  0  0  0  0
   -1.4054   -1.3008   -1.6742 H   0  0  0  0  0  0  0  0  0  0  0  0
    1.1588    1.0238   -1.2241 C   0  0  0  0  0  0  0  0  0  0  0  0
    1.2879    1.1049   -2.3042 H   0  0  0  0  0  0  0  0  0  0  0  0
    0.6326    1.9121   -0.8749 H   0  0  0  0  0  0  0  0  0  0  0  0
    2.5442    1.0233   -0.5639 C   0  0  0  0  0  0  0  0  0  0  0  0
    3.1558    0.2126   -0.9593 H   0  0  0  0  0  0  0  0  0  0  0  0
    3.0435    1.9691   -0.7755 H   0  0  0  0  0  0  0  0  0  0  0  0
    2.4428    0.9102    0.5160 H   0  0  0  0  0  0  0  0  0  0  0  0
   -0.3971    1.3008    1.0689 C   0  0  0  0  0  0  0  0  0  0  0  0
   -1.3643    1.9819    0.7311 O   0  0  0  0  0  0  0  0  0  0  0  0
    0.5522    1.7647    1.8915 N   0  0  0  0  0  0  0  0  0  0  0  0
    1.3093    1.1450    2.1332 H   0  0  0  0  0  0  0  0  0  0  0  0
    0.5577    3.1119    2.4582 C   0  0  0  0  0  0  0  0  0  0  0  0
   -0.3986    3.3098    2.9475 H   0  0  0  0  0  0  0  0  0  0  0  0
    1.3619    3.2123    3.1886 H   0  0  0  0  0  0  0  0  0  0  0  0
    0.6974    3.8450    1.6614 H   0  0  0  0  0  0  0  0  0  0  0  0
  5  6  2  0  0  0  0
  5  7  1  0  0  0  0
  2  3  1  0  0  0  0
  2  4  1  0  0  0  0
  2  5  1  0  0  0  0
  1  2  1  0  0  0  0
 24 25  2  0  0  0  0
 24 26  1  0  0  0  0
 20 21  1  0  0  0  0
 20 22  1  0  0  0  0
 20 23  1  0  0  0  0
 17 18  1  0  0  0  0
 17 19  1  0  0  0  0
 17 20  1  0  0  0  0
 13 14  1  0  0  0  0
 13 15  1  0  0  0  0
 13 16  1  0  0  0  0
 11 12  1  0  0  0  0
 11 13  1  0  0  0  0
 11 17  1  0  0  0  0
  9 10  1  0  0  0  0
  9 11  1  0  0  0  0
  9 24  1  0  0  0  0
  7  8  1  0  0  0  0
  7  9  1  0  0  0  0
 28 29  1  0  0  0  0
 28 30  1  0  0  0  0
 28 31  1  0  0  0  0
 26 27  1  0  0  0  0
 26 28  1  0  0  0  0
M  END
$$$$
default_name
  -OEChem-02102213163D

 31 30  0     1  0  0  0  0  0999 V2000
   -3.0760   -3.6390    1.5496 H   0  0  0  0  0  0  0  0  0  0  0  0
   -3.0940   -2.6290    1.1426 C   0  0  0  0  0  0  0  0  0  0  0  0
   -3.7160   -1.9930    1.7706 H   0  0  0  0  0  0  0  0  0  0  0  0
   -3.4880   -2.6500    0.1286 H   0  0  0  0  0  0  0  0  0  0  0  0
   -1.6860   -2.0850    1.1196 C   0  0  0  0  0  0  0  0  0  0  0  0
   -0.7540   -2.7700    1.5226 O   0  0  0  0  0  0  0  0  0  0  0  0
   -1.5320   -0.8490    0.6496 N   0  0  0  0  0  0  0  0  0  0  0  0
   -2.3500   -0.3360    0.3566 H   0  0  0  0  0  0  0  0  0  0  0  0
   -0.2470   -0.1410    0.5576 C   0  0  1  0  0  0  0  0  0  0  0  0
    0.4572   -0.6505    1.2162 H   0  0  0  0  0  0  0  0  0  0  0  0
    0.3091   -0.2220   -0.8868 C   0  0  1  0  0  0  0  0  0  0  0  0
    0.9719   -1.0885   -0.9282 H   0  0  0  0  0  0  0  0  0  0  0  0
   -0.8014   -0.4308   -1.9341 C   0  0  0  0  0  0  0  0  0  0  0  0
   -1.4501    0.4454   -1.9857 H   0  0  0  0  0  0  0  0  0  0  0  0
   -0.3664   -0.6096   -2.9162 H   0  0  0  0  0  0  0  0  0  0  0  0
   -1.4054   -1.3008   -1.6742 H   0  0  0  0  0  0  0  0  0  0  0  0
    1.1588    1.0238   -1.2241 C   0  0  0  0  0  0  0  0  0  0  0  0
    1.0697    1.2588   -2.2856 H   0  0  0  0  0  0  0  0  0  0  0  0
    0.7801    1.8715   -0.6532 H   0  0  0  0  0  0  0  0  0  0  0  0
    2.6463    0.8681   -0.8802 C   0  0  0  0  0  0  0  0  0  0  0  0
    3.1044    0.1003   -1.5034 H   0  0  0  0  0  0  0  0  0  0  0  0
    3.1582    1.8133   -1.0622 H   0  0  0  0  0  0  0  0  0  0  0  0
    2.7601    0.6003    0.1708 H   0  0  0  0  0  0  0  0  0  0  0  0
   -0.3971    1.3008    1.0689 C   0  0  0  0  0  0  0  0  0  0  0  0
   -1.3643    1.9819    0.7311 O   0  0  0  0  0  0  0  0  0  0  0  0
    0.5522    1.7647    1.8915 N   0  0  0  0  0  0  0  0  0  0  0  0
    1.3093    1.1450    2.1332 H   0  0  0  0  0  0  0  0  0  0  0  0
    0.5577    3.1119    2.4582 C   0  0  0  0  0  0  0  0  0  0  0  0
   -0.3986    3.3098    2.9475 H   0  0  0  0  0  0  0  0  0  0  0  0
    1.3619    3.2123    3.1886 H   0  0  0  0  0  0  0  0  0  0  0  0
    0.6974    3.8450    1.6614 H   0  0  0  0  0  0  0  0  0  0  0  0
  5  6  2  0  0  0  0
  5  7  1  0  0  0  0
  2  3  1  0  0  0  0
  2  4  1  0  0  0  0
  2  5  1  0  0  0  0
  1  2  1  0  0  0  0
 24 25  2  0  0  0  0
 24 26  1  0  0  0  0
 20 21  1  0  0  0  0
 20 22  1  0  0  0  0
 20 23  1  0  0  0  0
 17 18  1  0  0  0  0
 17 19  1  0  0  0  0
 17 20  1  0  0  0  0
 13 14  1  0  0  0  0
 13 15  1  0  0  0  0
 13 16  1  0  0  0  0
 11 12  1  0  0  0  0
 11 13  1  0  0  0  0
 11 17  1  0  0  0  0
  9 10  1  0  0  0  0
  9 11  1  0  0  0  0
  9 24  1  0  0  0  0
  7  8  1  0  0  0  0
  7  9  1  0  0  0  0
 28 29  1  0  0  0  0
 28 30  1  0  0  0  0
 28 31  1  0  0  0  0
 26 27  1  0  0  0  0
 26 28  1  0  0  0  0
M  END
$$$$
default_name
  -OEChem-02102213163D

 31 30  0     1  0  0  0  0  0999 V2000
   -3.0760   -3.6390    1.5496 H   0  0  0  0  0  0  0  0  0  0  0  0
   -3.0940   -2.6290    1.1426 C   0  0  0  0  0  0  0  0  0  0  0  0
   -3.7160   -1.9930    1.7706 H   0  0  0  0  0  0  0  0  0  0  0  0
   -3.4880   -2.6500    0.1286 H   0  0  0  0  0  0  0  0  0  0  0  0
   -1.6860   -2.0850    1.1196 C   0  0  0  0  0  0  0  0  0  0  0  0
   -0.7540   -2.7700    1.5226 O   0  0  0  0  0  0  0  0  0  0  0  0
   -1.5320   -0.8490    0.6496 N   0  0  0  0  0  0  0  0  0  0  0  0
   -2.3500   -0.3360    0.3566 H   0  0  0  0  0  0  0  0  0  0  0  0
   -0.2470   -0.1410    0.5576 C   0  0  1  0  0  0  0  0  0  0  0  0
    0.4572   -0.6505    1.2162 H   0  0  0  0  0  0  0  0  0  0  0  0
    0.3091   -0.2220   -0.8868 C   0  0  1  0  0  0  0  0  0  0  0  0
    0.9719   -1.0885   -0.9282 H   0  0  0  0  0  0  0  0  0  0  0  0
   -0.8014   -0.4308   -1.9341 C   0  0  0  0  0  0  0  0  0  0  0  0
   -1.4501    0.4454   -1.9857 H   0  0  0  0  0  0  0  0  0  0  0  0
   -0.3664   -0.6096   -2.9162 H   0  0  0  0  0  0  0  0  0  0  0  0
   -1.4054   -1.3008   -1.6742 H   0  0  0  0  0  0  0  0  0  0  0  0
    1.1588    1.0238   -1.2241 C   0  0  0  0  0  0  0  0  0  0  0  0
    0.8715    1.4171   -2.2002 H   0  0  0  0  0  0  0  0  0  0  0  0
    0.9666    1.7924   -0.4756 H   0  0  0  0  0  0  0  0  0  0  0  0
    2.6702    0.7574   -1.2291 C   0  0  0  0  0  0  0  0  0  0  0  0
    2.9349    0.0722   -2.0342 H   0  0  0  0  0  0  0  0  0  0  0  0
    3.2003    1.6971   -1.3852 H   0  0  0  0  0  0  0  0  0  0  0  0
    2.9771    0.3322   -0.2729 H   0  0  0  0  0  0  0  0  0  0  0  0
   -0.3971    1.3008    1.0689 C   0  0  0  0  0  0  0  0  0  0  0  0
   -1.3643    1.9819    0.7311 O   0  0  0  0  0  0  0  0  0  0  0  0
    0.5522    1.7647    1.8915 N   0  0  0  0  0  0  0  0  0  0  0  0
    1.3093    1.1450    2.1332 H   0  0  0  0  0  0  0  0  0  0  0  0
    0.5577    3.1119    2.4582 C   0  0  0  0  0  0  0  0  0  0  0  0
   -0.3986    3.3098    2.9475 H   0  0  0  0  0  0  0  0  0  0  0  0
    1.3619    3.2123    3.1886 H   0  0  0  0  0  0  0  0  0  0  0  0
    0.6974    3.8450    1.6614 H   0  0  0  0  0  0  0  0  0  0  0  0
  5  6  2  0  0  0  0
  5  7  1  0  0  0  0
  2  3  1  0  0  0  0
  2  4  1  0  0  0  0
  2  5  1  0  0  0  0
  1  2  1  0  0  0  0
 24 25  2  0  0  0  0
 24 26  1  0  0  0  0
 20 21  1  0  0  0  0
 20 22  1  0  0  0  0
 20 23  1  0  0  0  0
 17 18  1  0  0  0  0
 17 19  1  0  0  0  0
 17 20  1  0  0  0  0
 13 14  1  0  0  0  0
 13 15  1  0  0  0  0
 13 16  1  0  0  0  0
 11 12  1  0  0  0  0
 11 13  1  0  0  0  0
 11 17  1  0  0  0  0
  9 10  1  0  0  0  0
  9 11  1  0  0  0  0
  9 24  1  0  0  0  0
  7  8  1  0  0  0  0
  7  9  1  0  0  0  0
 28 29  1  0  0  0  0
 28 30  1  0  0  0  0
 28 31  1  0  0  0  0
 26 27  1  0  0  0  0
 26 28  1  0  0  0  0
M  END
$$$$
default_name
  -OEChem-02102213163D

 31 30  0     1  0  0  0  0  0999 V2000
   -3.0760   -3.6390    1.5496 H   0  0  0  0  0  0  0  0  0  0  0  0
   -3.0940   -2.6290    1.1426 C   0  0  0  0  0  0  0  0  0  0  0  0
   -3.7160   -1.9930    1.7706 H   0  0  0  0  0  0  0  0  0  0  0  0
   -3.4880   -2.6500    0.1286 H   0  0  0  0  0  0  0  0  0  0  0  0
   -1.6860   -2.0850    1.1196 C   0  0  0  0  0  0  0  0  0  0  0  0
   -0.7540   -2.7700    1.5226 O   0  0  0  0  0  0  0  0  0  0  0  0
   -1.5320   -0.8490    0.6496 N   0  0  0  0  0  0  0  0  0  0  0  0
   -2.3500   -0.3360    0.3566 H   0  0  0  0  0  0  0  0  0  0  0  0
   -0.2470   -0.1410    0.5576 C   0  0  1  0  0  0  0  0  0  0  0  0
    0.4572   -0.6505    1.2162 H   0  0  0  0  0  0  0  0  0  0  0  0
    0.3091   -0.2220   -0.8868 C   0  0  1  0  0  0  0  0  0  0  0  0
    0.9719   -1.0885   -0.9282 H   0  0  0  0  0  0  0  0  0  0  0  0
   -0.8014   -0.4308   -1.9341 C   0  0  0  0  0  0  0  0  0  0  0  0
   -1.4501    0.4454   -1.9857 H   0  0  0  0  0  0  0  0  0  0  0  0
   -0.3664   -0.6096   -2.9162 H   0  0  0  0  0  0  0  0  0  0  0  0
   -1.4054   -1.3008   -1.6742 H   0  0  0  0  0  0  0  0  0  0  0  0
    1.1588    1.0238   -1.2241 C   0  0  0  0  0  0  0  0  0  0  0  0
    0.7068    1.5690   -2.0538 H   0  0  0  0  0  0  0  0  0  0  0  0
    1.1794    1.6802   -0.3542 H   0  0  0  0  0  0  0  0  0  0  0  0
    2.6142    0.6987   -1.5868 C   0  0  0  0  0  0  0  0  0  0  0  0
    2.6589    0.1302   -2.5155 H   0  0  0  0  0  0  0  0  0  0  0  0
    3.1670    1.6285   -1.7226 H   0  0  0  0  0  0  0  0  0  0  0  0
    3.0790    0.1241   -0.7849 H   0  0  0  0  0  0  0  0  0  0  0  0
   -0.3971    1.3008    1.0689 C   0  0  0  0  0  0  0  0  0  0  0  0
   -1.3643    1.9819    0.7311 O   0  0  0  0  0  0  0  0  0  0  0  0
    0.5522    1.7647    1.8915 N   0  0  0  0  0  0  0  0  0  0  0  0
    1.3093    1.1450    2.1332 H   0  0  0  0  0  0  0  0  0  0  0  0
    0.5577    3.1119    2.4582 C   0  0  0  0  0  0  0  0  0  0  0  0
   -0.3986    3.3098    2.9475 H   0  0  0  0  0  0  0  0  0  0  0  0
    1.3619    3.2123    3.1886 H   0  0  0  0  0  0  0  0  0  0  0  0
    0.6974    3.8450    1.6614 H   0  0  0  0  0  0  0  0  0  0  0  0
  5  6  2  0  0  0  0
  5  7  1  0  0  0  0
  2  3  1  0  0  0  0
  2  4  1  0  0  0  0
  2  5  1  0  0  0  0
  1  2  1  0  0  0  0
 24 25  2  0  0  0  0
 24 26  1  0  0  0  0
 20 21  1  0  0  0  0
 20 22  1  0  0  0  0
 20 23  1  0  0  0  0
 17 18  1  0  0  0  0
 17 19  1  0  0  0  0
 17 20  1  0  0  0  0
 13 14  1  0  0  0  0
 13 15  1  0  0  0  0
 13 16  1  0  0  0  0
 11 12  1  0  0  0  0
 11 13  1  0  0  0  0
 11 17  1  0  0  0  0
  9 10  1  0  0  0  0
  9 11  1  0  0  0  0
  9 24  1  0  0  0  0
  7  8  1  0  0  0  0
  7  9  1  0  0  0  0
 28 29  1  0  0  0  0
 28 30  1  0  0  0  0
 28 31  1  0  0  0  0
 26 27  1  0  0  0  0
 26 28  1  0  0  0  0
M  END
$$$$
default_name
  -OEChem-02102213163D

 31 30  0     1  0  0  0  0  0999 V2000
   -3.0760   -3.6390    1.5496 H   0  0  0  0  0  0  0  0  0  0  0  0
   -3.0940   -2.6290    1.1426 C   0  0  0  0  0  0  0  0  0  0  0  0
   -3.7160   -1.9930    1.7706 H   0  0  0  0  0  0  0  0  0  0  0  0
   -3.4880   -2.6500    0.1286 H   0  0  0  0  0  0  0  0  0  0  0  0
   -1.6860   -2.0850    1.1196 C   0  0  0  0  0  0  0  0  0  0  0  0
   -0.7540   -2.7700    1.5226 O   0  0  0  0  0  0  0  0  0  0  0  0
   -1.5320   -0.8490    0.6496 N   0  0  0  0  0  0  0  0  0  0  0  0
   -2.3500   -0.3360    0.3566 H   0  0  0  0  0  0  0  0  0  0  0  0
   -0.2470   -0.1410    0.5576 C   0  0  1  0  0  0  0  0  0  0  0  0
    0.4572   -0.6505    1.2162 H   0  0  0  0  0  0  0  0  0  0  0  0
    0.3091   -0.2220   -0.8868 C   0  0  1  0  0  0  0  0  0  0  0  0
    0.9719   -1.0885   -0.9282 H   0  0  0  0  0  0  0  0  0  0  0  0
   -0.8014   -0.4308   -1.9341 C   0  0  0  0  0  0  0  0  0  0  0  0
   -1.4501    0.4454   -1.9857 H   0  0  0  0  0  0  0  0  0  0  0  0
   -0.3664   -0.6096   -2.9162 H   0  0  0  0  0  0  0  0  0  0  0  0
   -1.4054   -1.3008   -1.6742 H   0  0  0  0  0  0  0  0  0  0  0  0
    1.1588    1.0238   -1.2241 C   0  0  0  0  0  0  0  0  0  0  0  0
    0.5868    1.7043   -1.8563 H   0  0  0  0  0  0  0  0  0  0  0  0
    1.4038    1.5425   -0.2974 H   0  0  0  0  0  0  0  0  0  0  0  0
    2.4821    0.6961   -1.9290 C   0  0  0  0  0  0  0  0  0  0  0  0
    2.2950    0.2702   -2.9145 H   0  0  0  0  0  0  0  0  0  0  0  0
    3.0606    1.6121   -2.0512 H   0  0  0  0  0  0  0  0  0  0  0  0
    3.0588   -0.0098   -1.3303 H   0  0  0  0  0  0  0  0  0  0  0  0
   -0.3971    1.3008    1.0689 C   0  0  0  0  0  0  0  0  0  0  0  0
   -1.3643    1.9819    0.7311 O   0  0  0  0  0  0  0  0  0  0  0  0
    0.5522    1.7647    1.8915 N   0  0  0  0  0  0  0  0  0  0  0  0
    1.3093    1.1450    2.1332 H   0  0  0  0  0  0  0  0  0  0  0  0
    0.5577    3.1119    2.4582 C   0  0  0  0  0  0  0  0  0  0  0  0
   -0.3986    3.3098    2.9475 H   0  0  0  0  0  0  0  0  0  0  0  0
    1.3619    3.2123    3.1886 H   0  0  0  0  0  0  0  0  0  0  0  0
    0.6974    3.8450    1.6614 H   0  0  0  0  0  0  0  0  0  0  0  0
  5  6  2  0  0  0  0
  5  7  1  0  0  0  0
  2  3  1  0  0  0  0
  2  4  1  0  0  0  0
  2  5  1  0  0  0  0
  1  2  1  0  0  0  0
 24 25  2  0  0  0  0
 24 26  1  0  0  0  0
 20 21  1  0  0  0  0
 20 22  1  0  0  0  0
 20 23  1  0  0  0  0
 17 18  1  0  0  0  0
 17 19  1  0  0  0  0
 17 20  1  0  0  0  0
 13 14  1  0  0  0  0
 13 15  1  0  0  0  0
 13 16  1  0  0  0  0
 11 12  1  0  0  0  0
 11 13  1  0  0  0  0
 11 17  1  0  0  0  0
  9 10  1  0  0  0  0
  9 11  1  0  0  0  0
  9 24  1  0  0  0  0
  7  8  1  0  0  0  0
  7  9  1  0  0  0  0
 28 29  1  0  0  0  0
 28 30  1  0  0  0  0
 28 31  1  0  0  0  0
 26 27  1  0  0  0  0
 26 28  1  0  0  0  0
M  END
$$$$
default_name
  -OEChem-02102213163D

 31 30  0     1  0  0  0  0  0999 V2000
   -3.0760   -3.6390    1.5496 H   0  0  0  0  0  0  0  0  0  0  0  0
   -3.0940   -2.6290    1.1426 C   0  0  0  0  0  0  0  0  0  0  0  0
   -3.7160   -1.9930    1.7706 H   0  0  0  0  0  0  0  0  0  0  0  0
   -3.4880   -2.6500    0.1286 H   0  0  0  0  0  0  0  0  0  0  0  0
   -1.6860   -2.0850    1.1196 C   0  0  0  0  0  0  0  0  0  0  0  0
   -0.7540   -2.7700    1.5226 O   0  0  0  0  0  0  0  0  0  0  0  0
   -1.5320   -0.8490    0.6496 N   0  0  0  0  0  0  0  0  0  0  0  0
   -2.3500   -0.3360    0.3566 H   0  0  0  0  0  0  0  0  0  0  0  0
   -0.2470   -0.1410    0.5576 C   0  0  1  0  0  0  0  0  0  0  0  0
    0.4572   -0.6505    1.2162 H   0  0  0  0  0  0  0  0  0  0  0  0
    0.3091   -0.2220   -0.8868 C   0  0  1  0  0  0  0  0  0  0  0  0
    0.9719   -1.0885   -0.9282 H   0  0  0  0  0  0  0  0  0  0  0  0
   -0.8014   -0.4308   -1.9341 C   0  0  0  0  0  0  0  0  0  0  0  0
   -1.4501    0.4454   -1.9857 H   0  0  0  0  0  0  0  0  0  0  0  0
   -0.3664   -0.6096   -2.9162 H   0  0  0  0  0  0  0  0  0  0  0  0
   -1.4054   -1.3008   -1.6742 H   0  0  0  0  0  0  0  0  0  0  0  0
    1.1588    1.0238   -1.2241 C   0  0  0  0  0  0  0  0  0  0  0  0
    0.5198    1.8136   -1.6214 H   0  0  0  0  0  0  0  0  0  0  0  0
    1.6247    1.3887   -0.3089 H   0  0  0  0  0  0  0  0  0  0  0  0
    2.2830    0.7498   -2.2323 C   0  0  0  0  0  0  0  0  0  0  0  0
    1.8683    0.4829   -3.2042 H   0  0  0  0  0  0  0  0  0  0  0  0
    2.8883    1.6490   -2.3488 H   0  0  0  0  0  0  0  0  0  0  0  0
    2.9179   -0.0604   -1.8720 H   0  0  0  0  0  0  0  0  0  0  0  0
   -0.3971    1.3008    1.0689 C   0  0  0  0  0  0  0  0  0  0  0  0
   -1.3643    1.9819    0.7311 O   0  0  0  0  0  0  0  0  0  0  0  0
    0.5522    1.7647    1.8915 N   0  0  0  0  0  0  0  0  0  0  0  0
    1.3093    1.1450    2.1332 H   0  0  0  0  0  0  0  0  0  0  0  0
    0.5577    3.1119    2.4582 C   0  0  0  0  0  0  0  0  0  0  0  0
   -0.3986    3.3098    2.9475 H   0  0  0  0  0  0  0  0  0  0  0  0
    1.3619    3.2123    3.1886 H   0  0  0  0  0  0  0  0  0  0  0  0
    0.6974    3.8450    1.6614 H   0  0  0  0  0  0  0  0  0  0  0  0
  5  6  2  0  0  0  0
  5  7  1  0  0  0  0
  2  3  1  0  0  0  0
  2  4  1  0  0  0  0
  2  5  1  0  0  0  0
  1  2  1  0  0  0  0
 24 25  2  0  0  0  0
 24 26  1  0  0  0  0
 20 21  1  0  0  0  0
 20 22  1  0  0  0  0
 20 23  1  0  0  0  0
 17 18  1  0  0  0  0
 17 19  1  0  0  0  0
 17 20  1  0  0  0  0
 13 14  1  0  0  0  0
 13 15  1  0  0  0  0
 13 16  1  0  0  0  0
 11 12  1  0  0  0  0
 11 13  1  0  0  0  0
 11 17  1  0  0  0  0
  9 10  1  0  0  0  0
  9 11  1  0  0  0  0
  9 24  1  0  0  0  0
  7  8  1  0  0  0  0
  7  9  1  0  0  0  0
 28 29  1  0  0  0  0
 28 30  1  0  0  0  0
 28 31  1  0  0  0  0
 26 27  1  0  0  0  0
 26 28  1  0  0  0  0
M  END
$$$$
default_name
  -OEChem-02102213163D

 31 30  0     1  0  0  0  0  0999 V2000
   -3.0760   -3.6390    1.5496 H   0  0  0  0  0  0  0  0  0  0  0  0
   -3.0940   -2.6290    1.1426 C   0  0  0  0  0  0  0  0  0  0  0  0
   -3.7160   -1.9930    1.7706 H   0  0  0  0  0  0  0  0  0  0  0  0
   -3.4880   -2.6500    0.1286 H   0  0  0  0  0  0  0  0  0  0  0  0
   -1.6860   -2.0850    1.1196 C   0  0  0  0  0  0  0  0  0  0  0  0
   -0.7540   -2.7700    1.5226 O   0  0  0  0  0  0  0  0  0  0  0  0
   -1.5320   -0.8490    0.6496 N   0  0  0  0  0  0  0  0  0  0  0  0
   -2.3500   -0.3360    0.3566 H   0  0  0  0  0  0  0  0  0  0  0  0
   -0.2470   -0.1410    0.5576 C   0  0  1  0  0  0  0  0  0  0  0  0
    0.4572   -0.6505    1.2162 H   0  0  0  0  0  0  0  0  0  0  0  0
    0.3091   -0.2220   -0.8868 C   0  0  1  0  0  0  0  0  0  0  0  0
    0.9719   -1.0885   -0.9282 H   0  0  0  0  0  0  0  0  0  0  0  0
   -0.8014   -0.4308   -1.9341 C   0  0  0  0  0  0  0  0  0  0  0  0
   -1.4501    0.4454   -1.9857 H   0  0  0  0  0  0  0  0  0  0  0  0
   -0.3664   -0.6096   -2.9162 H   0  0  0  0  0  0  0  0  0  0  0  0
   -1.4054   -1.3008   -1.6742 H   0  0  0  0  0  0  0  0  0  0  0  0
    1.1588    1.0238   -1.2241 C   0  0  0  0  0  0  0  0  0  0  0  0
    0.5103    1.8895   -1.3649 H   0  0  0  0  0  0  0  0  0  0  0  0
    1.8270    1.2293   -0.3879 H   0  0  0  0  0  0  0  0  0  0  0  0
    2.0304    0.8561   -2.4761 C   0  0  0  0  0  0  0  0  0  0  0  0
    1.4076    0.7537   -3.3646 H   0  0  0  0  0  0  0  0  0  0  0  0
    2.6619    1.7368   -2.5951 H   0  0  0  0  0  0  0  0  0  0  0  0
    2.6659   -0.0242   -2.3730 H   0  0  0  0  0  0  0  0  0  0  0  0
   -0.3971    1.3008    1.0689 C   0  0  0  0  0  0  0  0  0  0  0  0
   -1.3643    1.9819    0.7311 O   0  0  0  0  0  0  0  0  0  0  0  0
    0.5522    1.7647    1.8915 N   0  0  0  0  0  0  0  0  0  0  0  0
    1.3093    1.1450    2.1332 H   0  0  0  0  0  0  0  0  0  0  0  0
    0.5577    3.1119    2.4582 C   0  0  0  0  0  0  0  0  0  0  0  0
   -0.3986    3.3098    2.9475 H   0  0  0  0  0  0  0  0  0  0  0  0
    1.3619    3.2123    3.1886 H   0  0  0  0  0  0  0  0  0  0  0  0
    0.6974    3.8450    1.6614 H   0  0  0  0  0  0  0  0  0  0  0  0
  5  6  2  0  0  0  0
  5  7  1  0  0  0  0
  2  3  1  0  0  0  0
  2  4  1  0  0  0  0
  2  5  1  0  0  0  0
  1  2  1  0  0  0  0
 24 25  2  0  0  0  0
 24 26  1  0  0  0  0
 20 21  1  0  0  0  0
 20 22  1  0  0  0  0
 20 23  1  0  0  0  0
 17 18  1  0  0  0  0
 17 19  1  0  0  0  0
 17 20  1  0  0  0  0
 13 14  1  0  0  0  0
 13 15  1  0  0  0  0
 13 16  1  0  0  0  0
 11 12  1  0  0  0  0
 11 13  1  0  0  0  0
 11 17  1  0  0  0  0
  9 10  1  0  0  0  0
  9 11  1  0  0  0  0
  9 24  1  0  0  0  0
  7  8  1  0  0  0  0
  7  9  1  0  0  0  0
 28 29  1  0  0  0  0
 28 30  1  0  0  0  0
 28 31  1  0  0  0  0
 26 27  1  0  0  0  0
 26 28  1  0  0  0  0
M  END
$$$$
default_name
  -OEChem-02102213163D

 31 30  0     1  0  0  0  0  0999 V2000
   -3.0760   -3.6390    1.5496 H   0  0  0  0  0  0  0  0  0  0  0  0
   -3.0940   -2.6290    1.1426 C   0  0  0  0  0  0  0  0  0  0  0  0
   -3.7160   -1.9930    1.7706 H   0  0  0  0  0  0  0  0  0  0  0  0
   -3.4880   -2.6500    0.1286 H   0  0  0  0  0  0  0  0  0  0  0  0
   -1.6860   -2.0850    1.1196 C   0  0  0  0  0  0  0  0  0  0  0  0
   -0.7540   -2.7700    1.5226 O   0  0  0  0  0  0  0  0  0  0  0  0
   -1.5320   -0.8490    0.6496 N   0  0  0  0  0  0  0  0  0  0  0  0
   -2.3500   -0.3360    0.3566 H   0  0  0  0  0  0  0  0  0  0  0  0
   -0.2470   -0.1410    0.5576 C   0  0  1  0  0  0  0  0  0  0  0  0
    0.4572   -0.6505    1.2162 H   0  0  0  0  0  0  0  0  0  0  0  0
    0.3091   -0.2220   -0.8868 C   0  0  1  0  0  0  0  0  0  0  0  0
    0.7447   -1.2156   -1.0085 H   0  0  0  0  0  0  0  0  0  0  0  0
   -0.7925   -0.0596   -1.9515 C   0  0  0  0  0  0  0  0  0  0  0  0
   -1.2100    0.9484   -1.9214 H   0  0  0  0  0  0  0  0  0  0  0  0
   -0.3890   -0.2480   -2.9452 H   0  0  0  0  0  0  0  0  0  0  0  0
   -1.5944   -0.7777   -1.7763 H   0  0  0  0  0  0  0  0  0  0  0  0
    1.4416    0.8067   -1.1030 C   0  0  0  0  0  0  0  0  0  0  0  0
    1.0739    1.8133   -0.8997 H   0  0  0  0  0  0  0  0  0  0  0  0
    2.2500    0.5903   -0.4046 H   0  0  0  0  0  0  0  0  0  0  0  0
    2.0386    0.7797   -2.5166 C   0  0  0  0  0  0  0  0  0  0  0  0
    1.2972    1.0945   -3.2508 H   0  0  0  0  0  0  0  0  0  0  0  0
    2.8849    1.4655   -2.5626 H   0  0  0  0  0  0  0  0  0  0  0  0
    2.3845   -0.2264   -2.7563 H   0  0  0  0  0  0  0  0  0  0  0  0
   -0.3971    1.3008    1.0689 C   0  0  0  0  0  0  0  0  0  0  0  0
   -1.3643    1.9819    0.7311 O   0  0  0  0  0  0  0  0  0  0  0  0
    0.5522    1.7647    1.8915 N   0  0  0  0  0  0  0  0  0  0  0  0
    1.3093    1.1450    2.1332 H   0  0  0  0  0  0  0  0  0  0  0  0
    0.5577    3.1119    2.4582 C   0  0  0  0  0  0  0  0  0  0  0  0
   -0.3986    3.3098    2.9475 H   0  0  0  0  0  0  0  0  0  0  0  0
    1.3619    3.2123    3.1886 H   0  0  0  0  0  0  0  0  0  0  0  0
    0.6974    3.8450    1.6614 H   0  0  0  0  0  0  0  0  0  0  0  0
  5  6  2  0  0  0  0
  5  7  1  0  0  0  0
  2  3  1  0  0  0  0
  2  4  1  0  0  0  0
  2  5  1  0  0  0  0
  1  2  1  0  0  0  0
 24 25  2  0  0  0  0
 24 26  1  0  0  0  0
 20 21  1  0  0  0  0
 20 22  1  0  0  0  0
 20 23  1  0  0  0  0
 17 18  1  0  0  0  0
 17 19  1  0  0  0  0
 17 20  1  0  0  0  0
 13 14  1  0  0  0  0
 13 15  1  0  0  0  0
 13 16  1  0  0  0  0
 11 12  1  0  0  0  0
 11 13  1  0  0  0  0
 11 17  1  0  0  0  0
  9 10  1  0  0  0  0
  9 11  1  0  0  0  0
  9 24  1  0  0  0  0
  7  8  1  0  0  0  0
  7  9  1  0  0  0  0
 28 29  1  0  0  0  0
 28 30  1  0  0  0  0
 28 31  1  0  0  0  0
 26 27  1  0  0  0  0
 26 28  1  0  0  0  0
M  END
$$$$
default_name
  -OEChem-02102213163D

 31 30  0     1  0  0  0  0  0999 V2000
   -3.0760   -3.6390    1.5496 H   0  0  0  0  0  0  0  0  0  0  0  0
   -3.0940   -2.6290    1.1426 C   0  0  0  0  0  0  0  0  0  0  0  0
   -3.7160   -1.9930    1.7706 H   0  0  0  0  0  0  0  0  0  0  0  0
   -3.4880   -2.6500    0.1286 H   0  0  0  0  0  0  0  0  0  0  0  0
   -1.6860   -2.0850    1.1196 C   0  0  0  0  0  0  0  0  0  0  0  0
   -0.7540   -2.7700    1.5226 O   0  0  0  0  0  0  0  0  0  0  0  0
   -1.5320   -0.8490    0.6496 N   0  0  0  0  0  0  0  0  0  0  0  0
   -2.3500   -0.3360    0.3566 H   0  0  0  0  0  0  0  0  0  0  0  0
   -0.2470   -0.1410    0.5576 C   0  0  1  0  0  0  0  0  0  0  0  0
    0.4572   -0.6505    1.2162 H   0  0  0  0  0  0  0  0  0  0  0  0
    0.3091   -0.2220   -0.8868 C   0  0  1  0  0  0  0  0  0  0  0  0
    0.7447   -1.2156   -1.0085 H   0  0  0  0  0  0  0  0  0  0  0  0
   -0.7925   -0.0596   -1.9515 C   0  0  0  0  0  0  0  0  0  0  0  0
   -1.2100    0.9484   -1.9214 H   0  0  0  0  0  0  0  0  0  0  0  0
   -0.3890   -0.2480   -2.9452 H   0  0  0  0  0  0  0  0  0  0  0  0
   -1.5944   -0.7777   -1.7763 H   0  0  0  0  0  0  0  0  0  0  0  0
    1.4416    0.8067   -1.1030 C   0  0  0  0  0  0  0  0  0  0  0  0
    1.1672    1.7622   -0.6540 H   0  0  0  0  0  0  0  0  0  0  0  0
    2.3437    0.4439   -0.6104 H   0  0  0  0  0  0  0  0  0  0  0  0
    1.7891    1.0412   -2.5794 C   0  0  0  0  0  0  0  0  0  0  0  0
    0.9521    1.5061   -3.0999 H   0  0  0  0  0  0  0  0  0  0  0  0
    2.6506    1.7062   -2.6447 H   0  0  0  0  0  0  0  0  0  0  0  0
    2.0360    0.0936   -3.0595 H   0  0  0  0  0  0  0  0  0  0  0  0
   -0.3971    1.3008    1.0689 C   0  0  0  0  0  0  0  0  0  0  0  0
   -1.3643    1.9819    0.7311 O   0  0  0  0  0  0  0  0  0  0  0  0
    0.5522    1.7647    1.8915 N   0  0  0  0  0  0  0  0  0  0  0  0
    1.3093    1.1450    2.1332 H   0  0  0  0  0  0  0  0  0  0  0  0
    0.5577    3.1119    2.4582 C   0  0  0  0  0  0  0  0  0  0  0  0
   -0.3986    3.3098    2.9475 H   0  0  0  0  0  0  0  0  0  0  0  0
    1.3619    3.2123    3.1886 H   0  0  0  0  0  0  0  0  0  0  0  0
    0.6974    3.8450    1.6614 H   0  0  0  0  0  0  0  0  0  0  0  0
  5  6  2  0  0  0  0
  5  7  1  0  0  0  0
  2  3  1  0  0  0  0
  2  4  1  0  0  0  0
  2  5  1  0  0  0  0
  1  2  1  0  0  0  0
 24 25  2  0  0  0  0
 24 26  1  0  0  0  0
 20 21  1  0  0  0  0
 20 22  1  0  0  0  0
 20 23  1  0  0  0  0
 17 18  1  0  0  0  0
 17 19  1  0  0  0  0
 17 20  1  0  0  0  0
 13 14  1  0  0  0  0
 13 15  1  0  0  0  0
 13 16  1  0  0  0  0
 11 12  1  0  0  0  0
 11 13  1  0  0  0  0
 11 17  1  0  0  0  0
  9 10  1  0  0  0  0
  9 11  1  0  0  0  0
  9 24  1  0  0  0  0
  7  8  1  0  0  0  0
  7  9  1  0  0  0  0
 28 29  1  0  0  0  0
 28 30  1  0  0  0  0
 28 31  1  0  0  0  0
 26 27  1  0  0  0  0
 26 28  1  0  0  0  0
M  END
$$$$
default_name
  -OEChem-02102213163D

 31 30  0     1  0  0  0  0  0999 V2000
   -3.0760   -3.6390    1.5496 H   0  0  0  0  0  0  0  0  0  0  0  0
   -3.0940   -2.6290    1.1426 C   0  0  0  0  0  0  0  0  0  0  0  0
   -3.7160   -1.9930    1.7706 H   0  0  0  0  0  0  0  0  0  0  0  0
   -3.4880   -2.6500    0.1286 H   0  0  0  0  0  0  0  0  0  0  0  0
   -1.6860   -2.0850    1.1196 C   0  0  0  0  0  0  0  0  0  0  0  0
   -0.7540   -2.7700    1.5226 O   0  0  0  0  0  0  0  0  0  0  0  0
   -1.5320   -0.8490    0.6496 N   0  0  0  0  0  0  0  0  0  0  0  0
   -2.3500   -0.3360    0.3566 H   0  0  0  0  0  0  0  0  0  0  0  0
   -0.2470   -0.1410    0.5576 C   0  0  1  0  0  0  0  0  0  0  0  0
    0.4572   -0.6505    1.2162 H   0  0  0  0  0  0  0  0  0  0  0  0
    0.3091   -0.2220   -0.8868 C   0  0  1  0  0  0  0  0  0  0  0  0
    0.7447   -1.2156   -1.0085 H   0  0  0  0  0  0  0  0  0  0  0  0
   -0.7925   -0.0596   -1.9515 C   0  0  0  0  0  0  0  0  0  0  0  0
   -1.2100    0.9484   -1.9214 H   0  0  0  0  0  0  0  0  0  0  0  0
   -0.3890   -0.2480   -2.9452 H   0  0  0  0  0  0  0  0  0  0  0  0
   -1.5944   -0.7777   -1.7763 H   0  0  0  0  0  0  0  0  0  0  0  0
    1.4416    0.8067   -1.1030 C   0  0  0  0  0  0  0  0  0  0  0  0
    1.2978    1.6629   -0.4426 H   0  0  0  0  0  0  0  0  0  0  0  0
    2.3935    0.3381   -0.8531 H   0  0  0  0  0  0  0  0  0  0  0  0
    1.5468    1.3147   -2.5474 C   0  0  0  0  0  0  0  0  0  0  0  0
    0.6597    1.8876   -2.8167 H   0  0  0  0  0  0  0  0  0  0  0  0
    2.4188    1.9628   -2.6379 H   0  0  0  0  0  0  0  0  0  0  0  0
    1.6586    0.4729   -3.2317 H   0  0  0  0  0  0  0  0  0  0  0  0
   -0.3971    1.3008    1.0689 C   0  0  0  0  0  0  0  0  0  0  0  0
   -1.3643    1.9819    0.7311 O   0  0  0  0  0  0  0  0  0  0  0  0
    0.5522    1.7647    1.8915 N   0  0  0  0  0  0  0  0  0  0  0  0
    1.3093    1.1450    2.1332 H   0  0  0  0  0  0  0  0  0  0  0  0
    0.5577    3.1119    2.4582 C   0  0  0  0  0  0  0  0  0  0  0  0
   -0.3986    3.3098    2.9475 H   0  0  0  0  0  0  0  0  0  0  0  0
    1.3619    3.2123    3.1886 H   0  0  0  0  0  0  0  0  0  0  0  0
    0.6974    3.8450    1.6614 H   0  0  0  0  0  0  0  0  0  0  0  0
  5  6  2  0  0  0  0
  5  7  1  0  0  0  0
  2  3  1  0  0  0  0
  2  4  1  0  0  0  0
  2  5  1  0  0  0  0
  1  2  1  0  0  0  0
 24 25  2  0  0  0  0
 24 26  1  0  0  0  0
 20 21  1  0  0  0  0
 20 22  1  0  0  0  0
 20 23  1  0  0  0  0
 17 18  1  0  0  0  0
 17 19  1  0  0  0  0
 17 20  1  0  0  0  0
 13 14  1  0  0  0  0
 13 15  1  0  0  0  0
 13 16  1  0  0  0  0
 11 12  1  0  0  0  0
 11 13  1  0  0  0  0
 11 17  1  0  0  0  0
  9 10  1  0  0  0  0
  9 11  1  0  0  0  0
  9 24  1  0  0  0  0
  7  8  1  0  0  0  0
  7  9  1  0  0  0  0
 28 29  1  0  0  0  0
 28 30  1  0  0  0  0
 28 31  1  0  0  0  0
 26 27  1  0  0  0  0
 26 28  1  0  0  0  0
M  END
$$$$
default_name
  -OEChem-02102213163D

 31 30  0     1  0  0  0  0  0999 V2000
   -3.0760   -3.6390    1.5496 H   0  0  0  0  0  0  0  0  0  0  0  0
   -3.0940   -2.6290    1.1426 C   0  0  0  0  0  0  0  0  0  0  0  0
   -3.7160   -1.9930    1.7706 H   0  0  0  0  0  0  0  0  0  0  0  0
   -3.4880   -2.6500    0.1286 H   0  0  0  0  0  0  0  0  0  0  0  0
   -1.6860   -2.0850    1.1196 C   0  0  0  0  0  0  0  0  0  0  0  0
   -0.7540   -2.7700    1.5226 O   0  0  0  0  0  0  0  0  0  0  0  0
   -1.5320   -0.8490    0.6496 N   0  0  0  0  0  0  0  0  0  0  0  0
   -2.3500   -0.3360    0.3566 H   0  0  0  0  0  0  0  0  0  0  0  0
   -0.2470   -0.1410    0.5576 C   0  0  1  0  0  0  0  0  0  0  0  0
    0.4572   -0.6505    1.2162 H   0  0  0  0  0  0  0  0  0  0  0  0
    0.3091   -0.2220   -0.8868 C   0  0  1  0  0  0  0  0  0  0  0  0
    0.7447   -1.2156   -1.0085 H   0  0  0  0  0  0  0  0  0  0  0  0
   -0.7925   -0.0596   -1.9515 C   0  0  0  0  0  0  0  0  0  0  0  0
   -1.2100    0.9484   -1.9214 H   0  0  0  0  0  0  0  0  0  0  0  0
   -0.3890   -0.2480   -2.9452 H   0  0  0  0  0  0  0  0  0  0  0  0
   -1.5944   -0.7777   -1.7763 H   0  0  0  0  0  0  0  0  0  0  0  0
    1.4416    0.8067   -1.1030 C   0  0  0  0  0  0  0  0  0  0  0  0
    1.4568    1.5221   -0.2797 H   0  0  0  0  0  0  0  0  0  0  0  0
    2.3959    0.2801   -1.1162 H   0  0  0  0  0  0  0  0  0  0  0  0
    1.3282    1.5815   -2.4229 C   0  0  0  0  0  0  0  0  0  0  0  0
    0.4399    2.2129   -2.4204 H   0  0  0  0  0  0  0  0  0  0  0  0
    2.2053    2.2178   -2.5428 H   0  0  0  0  0  0  0  0  0  0  0  0
    1.2782    0.8855   -3.2610 H   0  0  0  0  0  0  0  0  0  0  0  0
   -0.3971    1.3008    1.0689 C   0  0  0  0  0  0  0  0  0  0  0  0
   -1.3643    1.9819    0.7311 O   0  0  0  0  0  0  0  0  0  0  0  0
    0.5522    1.7647    1.8915 N   0  0  0  0  0  0  0  0  0  0  0  0
    1.3093    1.1450    2.1332 H   0  0  0  0  0  0  0  0  0  0  0  0
    0.5577    3.1119    2.4582 C   0  0  0  0  0  0  0  0  0  0  0  0
   -0.3986    3.3098    2.9475 H   0  0  0  0  0  0  0  0  0  0  0  0
    1.3619    3.2123    3.1886 H   0  0  0  0  0  0  0  0  0  0  0  0
    0.6974    3.8450    1.6614 H   0  0  0  0  0  0  0  0  0  0  0  0
  5  6  2  0  0  0  0
  5  7  1  0  0  0  0
  2  3  1  0  0  0  0
  2  4  1  0  0  0  0
  2  5  1  0  0  0  0
  1  2  1  0  0  0  0
 24 25  2  0  0  0  0
 24 26  1  0  0  0  0
 20 21  1  0  0  0  0
 20 22  1  0  0  0  0
 20 23  1  0  0  0  0
 17 18  1  0  0  0  0
 17 19  1  0  0  0  0
 17 20  1  0  0  0  0
 13 14  1  0  0  0  0
 13 15  1  0  0  0  0
 13 16  1  0  0  0  0
 11 12  1  0  0  0  0
 11 13  1  0  0  0  0
 11 17  1  0  0  0  0
  9 10  1  0  0  0  0
  9 11  1  0  0  0  0
  9 24  1  0  0  0  0
  7  8  1  0  0  0  0
  7  9  1  0  0  0  0
 28 29  1  0  0  0  0
 28 30  1  0  0  0  0
 28 31  1  0  0  0  0
 26 27  1  0  0  0  0
 26 28  1  0  0  0  0
M  END
$$$$
default_name
  -OEChem-02102213163D

 31 30  0     1  0  0  0  0  0999 V2000
   -3.0760   -3.6390    1.5496 H   0  0  0  0  0  0  0  0  0  0  0  0
   -3.0940   -2.6290    1.1426 C   0  0  0  0  0  0  0  0  0  0  0  0
   -3.7160   -1.9930    1.7706 H   0  0  0  0  0  0  0  0  0  0  0  0
   -3.4880   -2.6500    0.1286 H   0  0  0  0  0  0  0  0  0  0  0  0
   -1.6860   -2.0850    1.1196 C   0  0  0  0  0  0  0  0  0  0  0  0
   -0.7540   -2.7700    1.5226 O   0  0  0  0  0  0  0  0  0  0  0  0
   -1.5320   -0.8490    0.6496 N   0  0  0  0  0  0  0  0  0  0  0  0
   -2.3500   -0.3360    0.3566 H   0  0  0  0  0  0  0  0  0  0  0  0
   -0.2470   -0.1410    0.5576 C   0  0  1  0  0  0  0  0  0  0  0  0
    0.4572   -0.6505    1.2162 H   0  0  0  0  0  0  0  0  0  0  0  0
    0.3091   -0.2220   -0.8868 C   0  0  1  0  0  0  0  0  0  0  0  0
    0.7447   -1.2156   -1.0085 H   0  0  0  0  0  0  0  0  0  0  0  0
   -0.7925   -0.0596   -1.9515 C   0  0  0  0  0  0  0  0  0  0  0  0
   -1.2100    0.9484   -1.9214 H   0  0  0  0  0  0  0  0  0  0  0  0
   -0.3890   -0.2480   -2.9452 H   0  0  0  0  0  0  0  0  0  0  0  0
   -1.5944   -0.7777   -1.7763 H   0  0  0  0  0  0  0  0  0  0  0  0
    1.4416    0.8067   -1.1030 C   0  0  0  0  0  0  0  0  0  0  0  0
    1.6334    1.3494   -0.1764 H   0  0  0  0  0  0  0  0  0  0  0  0
    2.3508    0.2740   -1.3818 H   0  0  0  0  0  0  0  0  0  0  0  0
    1.1481    1.8236   -2.2144 C   0  0  0  0  0  0  0  0  0  0  0  0
    0.3076    2.4600   -1.9380 H   0  0  0  0  0  0  0  0  0  0  0  0
    2.0248    2.4538   -2.3658 H   0  0  0  0  0  0  0  0  0  0  0  0
    0.9207    1.3034   -3.1455 H   0  0  0  0  0  0  0  0  0  0  0  0
   -0.3971    1.3008    1.0689 C   0  0  0  0  0  0  0  0  0  0  0  0
   -1.3643    1.9819    0.7311 O   0  0  0  0  0  0  0  0  0  0  0  0
    0.5522    1.7647    1.8915 N   0  0  0  0  0  0  0  0  0  0  0  0
    1.3093    1.1450    2.1332 H   0  0  0  0  0  0  0  0  0  0  0  0
    0.5577    3.1119    2.4582 C   0  0  0  0  0  0  0  0  0  0  0  0
   -0.3986    3.3098    2.9475 H   0  0  0  0  0  0  0  0  0  0  0  0
    1.3619    3.2123    3.1886 H   0  0  0  0  0  0  0  0  0  0  0  0
    0.6974    3.8450    1.6614 H   0  0  0  0  0  0  0  0  0  0  0  0
  5  6  2  0  0  0  0
  5  7  1  0  0  0  0
  2  3  1  0  0  0  0
  2  4  1  0  0  0  0
  2  5  1  0  0  0  0
  1  2  1  0  0  0  0
 24 25  2  0  0  0  0
 24 26  1  0  0  0  0
 20 21  1  0  0  0  0
 20 22  1  0  0  0  0
 20 23  1  0  0  0  0
 17 18  1  0  0  0  0
 17 19  1  0  0  0  0
 17 20  1  0  0  0  0
 13 14  1  0  0  0  0
 13 15  1  0  0  0  0
 13 16  1  0  0  0  0
 11 12  1  0  0  0  0
 11 13  1  0  0  0  0
 11 17  1  0  0  0  0
  9 10  1  0  0  0  0
  9 11  1  0  0  0  0
  9 24  1  0  0  0  0
  7  8  1  0  0  0  0
  7  9  1  0  0  0  0
 28 29  1  0  0  0  0
 28 30  1  0  0  0  0
 28 31  1  0  0  0  0
 26 27  1  0  0  0  0
 26 28  1  0  0  0  0
M  END
$$$$
default_name
  -OEChem-02102213163D

 31 30  0     1  0  0  0  0  0999 V2000
   -3.0760   -3.6390    1.5496 H   0  0  0  0  0  0  0  0  0  0  0  0
   -3.0940   -2.6290    1.1426 C   0  0  0  0  0  0  0  0  0  0  0  0
   -3.7160   -1.9930    1.7706 H   0  0  0  0  0  0  0  0  0  0  0  0
   -3.4880   -2.6500    0.1286 H   0  0  0  0  0  0  0  0  0  0  0  0
   -1.6860   -2.0850    1.1196 C   0  0  0  0  0  0  0  0  0  0  0  0
   -0.7540   -2.7700    1.5226 O   0  0  0  0  0  0  0  0  0  0  0  0
   -1.5320   -0.8490    0.6496 N   0  0  0  0  0  0  0  0  0  0  0  0
   -2.3500   -0.3360    0.3566 H   0  0  0  0  0  0  0  0  0  0  0  0
   -0.2470   -0.1410    0.5576 C   0  0  1  0  0  0  0  0  0  0  0  0
    0.4572   -0.6505    1.2162 H   0  0  0  0  0  0  0  0  0  0  0  0
    0.3091   -0.2220   -0.8868 C   0  0  1  0  0  0  0  0  0  0  0  0
    0.7447   -1.2156   -1.0085 H   0  0  0  0  0  0  0  0  0  0  0  0
   -0.7925   -0.0596   -1.9515 C   0  0  0  0  0  0  0  0  0  0  0  0
   -1.2100    0.9484   -1.9214 H   0  0  0  0  0  0  0  0  0  0  0  0
   -0.3890   -0.2480   -2.9452 H   0  0  0  0  0  0  0  0  0  0  0  0
   -1.5944   -0.7777   -1.7763 H   0  0  0  0  0  0  0  0  0  0  0  0
    1.4416    0.8067   -1.1030 C   0  0  0  0  0  0  0  0  0  0  0  0
    1.8155    1.1566   -0.1399 H   0  0  0  0  0  0  0  0  0  0  0  0
    2.2612    0.3200   -1.6317 H   0  0  0  0  0  0  0  0  0  0  0  0
    1.0188    2.0244   -1.9359 C   0  0  0  0  0  0  0  0  0  0  0  0
    0.2719    2.6118   -1.4023 H   0  0  0  0  0  0  0  0  0  0  0  0
    1.8895    2.6546   -2.1189 H   0  0  0  0  0  0  0  0  0  0  0  0
    0.6103    1.6981   -2.8930 H   0  0  0  0  0  0  0  0  0  0  0  0
   -0.3971    1.3008    1.0689 C   0  0  0  0  0  0  0  0  0  0  0  0
   -1.3643    1.9819    0.7311 O   0  0  0  0  0  0  0  0  0  0  0  0
    0.5522    1.7647    1.8915 N   0  0  0  0  0  0  0  0  0  0  0  0
    1.3093    1.1450    2.1332 H   0  0  0  0  0  0  0  0  0  0  0  0
    0.5577    3.1119    2.4582 C   0  0  0  0  0  0  0  0  0  0  0  0
   -0.3986    3.3098    2.9475 H   0  0  0  0  0  0  0  0  0  0  0  0
    1.3619    3.2123    3.1886 H   0  0  0  0  0  0  0  0  0  0  0  0
    0.6974    3.8450    1.6614 H   0  0  0  0  0  0  0  0  0  0  0  0
  5  6  2  0  0  0  0
  5  7  1  0  0  0  0
  2  3  1  0  0  0  0
  2  4  1  0  0  0  0
  2  5  1  0  0  0  0
  1  2  1  0  0  0  0
 24 25  2  0  0  0  0
 24 26  1  0  0  0  0
 20 21  1  0  0  0  0
 20 22  1  0  0  0  0
 20 23  1  0  0  0  0
 17 18  1  0  0  0  0
 17 19  1  0  0  0  0
 17 20  1  0  0  0  0
 13 14  1  0  0  0  0
 13 15  1  0  0  0  0
 13 16  1  0  0  0  0
 11 12  1  0  0  0  0
 11 13  1  0  0  0  0
 11 17  1  0  0  0  0
  9 10  1  0  0  0  0
  9 11  1  0  0  0  0
  9 24  1  0  0  0  0
  7  8  1  0  0  0  0
  7  9  1  0  0  0  0
 28 29  1  0  0  0  0
 28 30  1  0  0  0  0
 28 31  1  0  0  0  0
 26 27  1  0  0  0  0
 26 28  1  0  0  0  0
M  END
$$$$
default_name
  -OEChem-02102213163D

 31 30  0     1  0  0  0  0  0999 V2000
   -3.0760   -3.6390    1.5496 H   0  0  0  0  0  0  0  0  0  0  0  0
   -3.0940   -2.6290    1.1426 C   0  0  0  0  0  0  0  0  0  0  0  0
   -3.7160   -1.9930    1.7706 H   0  0  0  0  0  0  0  0  0  0  0  0
   -3.4880   -2.6500    0.1286 H   0  0  0  0  0  0  0  0  0  0  0  0
   -1.6860   -2.0850    1.1196 C   0  0  0  0  0  0  0  0  0  0  0  0
   -0.7540   -2.7700    1.5226 O   0  0  0  0  0  0  0  0  0  0  0  0
   -1.5320   -0.8490    0.6496 N   0  0  0  0  0  0  0  0  0  0  0  0
   -2.3500   -0.3360    0.3566 H   0  0  0  0  0  0  0  0  0  0  0  0
   -0.2470   -0.1410    0.5576 C   0  0  1  0  0  0  0  0  0  0  0  0
    0.4572   -0.6505    1.2162 H   0  0  0  0  0  0  0  0  0  0  0  0
    0.3091   -0.2220   -0.8868 C   0  0  1  0  0  0  0  0  0  0  0  0
    0.7447   -1.2156   -1.0085 H   0  0  0  0  0  0  0  0  0  0  0  0
   -0.7925   -0.0596   -1.9515 C   0  0  0  0  0  0  0  0  0  0  0  0
   -1.2100    0.9484   -1.9214 H   0  0  0  0  0  0  0  0  0  0  0  0
   -0.3890   -0.2480   -2.9452 H   0  0  0  0  0  0  0  0  0  0  0  0
   -1.5944   -0.7777   -1.7763 H   0  0  0  0  0  0  0  0  0  0  0  0
    1.4416    0.8067   -1.1030 C   0  0  0  0  0  0  0  0  0  0  0  0
    1.9907    0.9569   -0.1725 H   0  0  0  0  0  0  0  0  0  0  0  0
    2.1334    0.4152   -1.8489 H   0  0  0  0  0  0  0  0  0  0  0  0
    0.9492    2.1702   -1.6067 C   0  0  0  0  0  0  0  0  0  0  0  0
    0.3352    2.6582   -0.8500 H   0  0  0  0  0  0  0  0  0  0  0  0
    1.8085    2.8067   -1.8190 H   0  0  0  0  0  0  0  0  0  0  0  0
    0.3684    2.0427   -2.5208 H   0  0  0  0  0  0  0  0  0  0  0  0
   -0.3971    1.3008    1.0689 C   0  0  0  0  0  0  0  0  0  0  0  0
   -1.3643    1.9819    0.7311 O   0  0  0  0  0  0  0  0  0  0  0  0
    0.5522    1.7647    1.8915 N   0  0  0  0  0  0  0  0  0  0  0  0
    1.3093    1.1450    2.1332 H   0  0  0  0  0  0  0  0  0  0  0  0
    0.5577    3.1119    2.4582 C   0  0  0  0  0  0  0  0  0  0  0  0
   -0.3986    3.3098    2.9475 H   0  0  0  0  0  0  0  0  0  0  0  0
    1.3619    3.2123    3.1886 H   0  0  0  0  0  0  0  0  0  0  0  0
    0.6974    3.8450    1.6614 H   0  0  0  0  0  0  0  0  0  0  0  0
  5  6  2  0  0  0  0
  5  7  1  0  0  0  0
  2  3  1  0  0  0  0
  2  4  1  0  0  0  0
  2  5  1  0  0  0  0
  1  2  1  0  0  0  0
 24 25  2  0  0  0  0
 24 26  1  0  0  0  0
 20 21  1  0  0  0  0
 20 22  1  0  0  0  0
 20 23  1  0  0  0  0
 17 18  1  0  0  0  0
 17 19  1  0  0  0  0
 17 20  1  0  0  0  0
 13 14  1  0  0  0  0
 13 15  1  0  0  0  0
 13 16  1  0  0  0  0
 11 12  1  0  0  0  0
 11 13  1  0  0  0  0
 11 17  1  0  0  0  0
  9 10  1  0  0  0  0
  9 11  1  0  0  0  0
  9 24  1  0  0  0  0
  7  8  1  0  0  0  0
  7  9  1  0  0  0  0
 28 29  1  0  0  0  0
 28 30  1  0  0  0  0
 28 31  1  0  0  0  0
 26 27  1  0  0  0  0
 26 28  1  0  0  0  0
M  END
$$$$
default_name
  -OEChem-02102213163D

 31 30  0     1  0  0  0  0  0999 V2000
   -3.0760   -3.6390    1.5496 H   0  0  0  0  0  0  0  0  0  0  0  0
   -3.0940   -2.6290    1.1426 C   0  0  0  0  0  0  0  0  0  0  0  0
   -3.7160   -1.9930    1.7706 H   0  0  0  0  0  0  0  0  0  0  0  0
   -3.4880   -2.6500    0.1286 H   0  0  0  0  0  0  0  0  0  0  0  0
   -1.6860   -2.0850    1.1196 C   0  0  0  0  0  0  0  0  0  0  0  0
   -0.7540   -2.7700    1.5226 O   0  0  0  0  0  0  0  0  0  0  0  0
   -1.5320   -0.8490    0.6496 N   0  0  0  0  0  0  0  0  0  0  0  0
   -2.3500   -0.3360    0.3566 H   0  0  0  0  0  0  0  0  0  0  0  0
   -0.2470   -0.1410    0.5576 C   0  0  1  0  0  0  0  0  0  0  0  0
    0.4572   -0.6505    1.2162 H   0  0  0  0  0  0  0  0  0  0  0  0
    0.3091   -0.2220   -0.8868 C   0  0  1  0  0  0  0  0  0  0  0  0
    0.7447   -1.2156   -1.0085 H   0  0  0  0  0  0  0  0  0  0  0  0
   -0.7925   -0.0596   -1.9515 C   0  0  0  0  0  0  0  0  0  0  0  0
   -1.2100    0.9484   -1.9214 H   0  0  0  0  0  0  0  0  0  0  0  0
   -0.3890   -0.2480   -2.9452 H   0  0  0  0  0  0  0  0  0  0  0  0
   -1.5944   -0.7777   -1.7763 H   0  0  0  0  0  0  0  0  0  0  0  0
    1.4416    0.8067   -1.1030 C   0  0  0  0  0  0  0  0  0  0  0  0
    2.1470    0.7638   -0.2721 H   0  0  0  0  0  0  0  0  0  0  0  0
    1.9758    0.5529   -2.0186 H   0  0  0  0  0  0  0  0  0  0  0  0
    0.9440    2.2512   -1.2489 C   0  0  0  0  0  0  0  0  0  0  0  0
    0.4932    2.5960   -0.3186 H   0  0  0  0  0  0  0  0  0  0  0  0
    1.7876    2.8997   -1.4866 H   0  0  0  0  0  0  0  0  0  0  0  0
    0.2113    2.3137   -2.0542 H   0  0  0  0  0  0  0  0  0  0  0  0
   -0.3971    1.3008    1.0689 C   0  0  0  0  0  0  0  0  0  0  0  0
   -1.3643    1.9819    0.7311 O   0  0  0  0  0  0  0  0  0  0  0  0
    0.5522    1.7647    1.8915 N   0  0  0  0  0  0  0  0  0  0  0  0
    1.3093    1.1450    2.1332 H   0  0  0  0  0  0  0  0  0  0  0  0
    0.5577    3.1119    2.4582 C   0  0  0  0  0  0  0  0  0  0  0  0
   -0.3986    3.3098    2.9475 H   0  0  0  0  0  0  0  0  0  0  0  0
    1.3619    3.2123    3.1886 H   0  0  0  0  0  0  0  0  0  0  0  0
    0.6974    3.8450    1.6614 H   0  0  0  0  0  0  0  0  0  0  0  0
  5  6  2  0  0  0  0
  5  7  1  0  0  0  0
  2  3  1  0  0  0  0
  2  4  1  0  0  0  0
  2  5  1  0  0  0  0
  1  2  1  0  0  0  0
 24 25  2  0  0  0  0
 24 26  1  0  0  0  0
 20 21  1  0  0  0  0
 20 22  1  0  0  0  0
 20 23  1  0  0  0  0
 17 18  1  0  0  0  0
 17 19  1  0  0  0  0
 17 20  1  0  0  0  0
 13 14  1  0  0  0  0
 13 15  1  0  0  0  0
 13 16  1  0  0  0  0
 11 12  1  0  0  0  0
 11 13  1  0  0  0  0
 11 17  1  0  0  0  0
  9 10  1  0  0  0  0
  9 11  1  0  0  0  0
  9 24  1  0  0  0  0
  7  8  1  0  0  0  0
  7  9  1  0  0  0  0
 28 29  1  0  0  0  0
 28 30  1  0  0  0  0
 28 31  1  0  0  0  0
 26 27  1  0  0  0  0
 26 28  1  0  0  0  0
M  END
$$$$
default_name
  -OEChem-02102213163D

 31 30  0     1  0  0  0  0  0999 V2000
   -3.0760   -3.6390    1.5496 H   0  0  0  0  0  0  0  0  0  0  0  0
   -3.0940   -2.6290    1.1426 C   0  0  0  0  0  0  0  0  0  0  0  0
   -3.7160   -1.9930    1.7706 H   0  0  0  0  0  0  0  0  0  0  0  0
   -3.4880   -2.6500    0.1286 H   0  0  0  0  0  0  0  0  0  0  0  0
   -1.6860   -2.0850    1.1196 C   0  0  0  0  0  0  0  0  0  0  0  0
   -0.7540   -2.7700    1.5226 O   0  0  0  0  0  0  0  0  0  0  0  0
   -1.5320   -0.8490    0.6496 N   0  0  0  0  0  0  0  0  0  0  0  0
   -2.3500   -0.3360    0.3566 H   0  0  0  0  0  0  0  0  0  0  0  0
   -0.2470   -0.1410    0.5576 C   0  0  1  0  0  0  0  0  0  0  0  0
    0.4572   -0.6505    1.2162 H   0  0  0  0  0  0  0  0  0  0  0  0
    0.3091   -0.2220   -0.8868 C   0  0  1  0  0  0  0  0  0  0  0  0
    0.7447   -1.2156   -1.0085 H   0  0  0  0  0  0  0  0  0  0  0  0
   -0.7925   -0.0596   -1.9515 C   0  0  0  0  0  0  0  0  0  0  0  0
   -1.2100    0.9484   -1.9214 H   0  0  0  0  0  0  0  0  0  0  0  0
   -0.3890   -0.2480   -2.9452 H   0  0  0  0  0  0  0  0  0  0  0  0
   -1.5944   -0.7777   -1.7763 H   0  0  0  0  0  0  0  0  0  0  0  0
    1.4416    0.8067   -1.1030 C   0  0  0  0  0  0  0  0  0  0  0  0
    2.2739    0.5905   -0.4319 H   0  0  0  0  0  0  0  0  0  0  0  0
    1.7994    0.7238   -2.1293 H   0  0  0  0  0  0  0  0  0  0  0  0
    1.0036    2.2616   -0.8872 C   0  0  0  0  0  0  0  0  0  0  0  0
    0.7351    2.4293    0.1557 H   0  0  0  0  0  0  0  0  0  0  0  0
    1.8280    2.9272   -1.1442 H   0  0  0  0  0  0  0  0  0  0  0  0
    0.1497    2.4927   -1.5250 H   0  0  0  0  0  0  0  0  0  0  0  0
   -0.3971    1.3008    1.0689 C   0  0  0  0  0  0  0  0  0  0  0  0
   -1.3643    1.9819    0.7311 O   0  0  0  0  0  0  0  0  0  0  0  0
    0.5522    1.7647    1.8915 N   0  0  0  0  0  0  0  0  0  0  0  0
    1.3093    1.1450    2.1332 H   0  0  0  0  0  0  0  0  0  0  0  0
    0.5577    3.1119    2.4582 C   0  0  0  0  0  0  0  0  0  0  0  0
   -0.3986    3.3098    2.9475 H   0  0  0  0  0  0  0  0  0  0  0  0
    1.3619    3.2123    3.1886 H   0  0  0  0  0  0  0  0  0  0  0  0
    0.6974    3.8450    1.6614 H   0  0  0  0  0  0  0  0  0  0  0  0
  5  6  2  0  0  0  0
  5  7  1  0  0  0  0
  2  3  1  0  0  0  0
  2  4  1  0  0  0  0
  2  5  1  0  0  0  0
  1  2  1  0  0  0  0
 24 25  2  0  0  0  0
 24 26  1  0  0  0  0
 20 21  1  0  0  0  0
 20 22  1  0  0  0  0
 20 23  1  0  0  0  0
 17 18  1  0  0  0  0
 17 19  1  0  0  0  0
 17 20  1  0  0  0  0
 13 14  1  0  0  0  0
 13 15  1  0  0  0  0
 13 16  1  0  0  0  0
 11 12  1  0  0  0  0
 11 13  1  0  0  0  0
 11 17  1  0  0  0  0
  9 10  1  0  0  0  0
  9 11  1  0  0  0  0
  9 24  1  0  0  0  0
  7  8  1  0  0  0  0
  7  9  1  0  0  0  0
 28 29  1  0  0  0  0
 28 30  1  0  0  0  0
 28 31  1  0  0  0  0
 26 27  1  0  0  0  0
 26 28  1  0  0  0  0
M  END
$$$$
default_name
  -OEChem-02102213163D

 31 30  0     1  0  0  0  0  0999 V2000
   -3.0760   -3.6390    1.5496 H   0  0  0  0  0  0  0  0  0  0  0  0
   -3.0940   -2.6290    1.1426 C   0  0  0  0  0  0  0  0  0  0  0  0
   -3.7160   -1.9930    1.7706 H   0  0  0  0  0  0  0  0  0  0  0  0
   -3.4880   -2.6500    0.1286 H   0  0  0  0  0  0  0  0  0  0  0  0
   -1.6860   -2.0850    1.1196 C   0  0  0  0  0  0  0  0  0  0  0  0
   -0.7540   -2.7700    1.5226 O   0  0  0  0  0  0  0  0  0  0  0  0
   -1.5320   -0.8490    0.6496 N   0  0  0  0  0  0  0  0  0  0  0  0
   -2.3500   -0.3360    0.3566 H   0  0  0  0  0  0  0  0  0  0  0  0
   -0.2470   -0.1410    0.5576 C   0  0  1  0  0  0  0  0  0  0  0  0
    0.4572   -0.6505    1.2162 H   0  0  0  0  0  0  0  0  0  0  0  0
    0.3091   -0.2220   -0.8868 C   0  0  1  0  0  0  0  0  0  0  0  0
    0.7447   -1.2156   -1.0085 H   0  0  0  0  0  0  0  0  0  0  0  0
   -0.7925   -0.0596   -1.9515 C   0  0  0  0  0  0  0  0  0  0  0  0
   -1.2100    0.9484   -1.9214 H   0  0  0  0  0  0  0  0  0  0  0  0
   -0.3890   -0.2480   -2.9452 H   0  0  0  0  0  0  0  0  0  0  0  0
   -1.5944   -0.7777   -1.7763 H   0  0  0  0  0  0  0  0  0  0  0  0
    1.4416    0.8067   -1.1030 C   0  0  0  0  0  0  0  0  0  0  0  0
    2.3627    0.4489   -0.6409 H   0  0  0  0  0  0  0  0  0  0  0  0
    1.6162    0.9163   -2.1733 H   0  0  0  0  0  0  0  0  0  0  0  0
    1.1238    2.2010   -0.5460 C   0  0  0  0  0  0  0  0  0  0  0  0
    1.0445    2.1696    0.5405 H   0  0  0  0  0  0  0  0  0  0  0  0
    1.9270    2.8873   -0.8152 H   0  0  0  0  0  0  0  0  0  0  0  0
    0.1880    2.5674   -0.9693 H   0  0  0  0  0  0  0  0  0  0  0  0
   -0.3971    1.3008    1.0689 C   0  0  0  0  0  0  0  0  0  0  0  0
   -1.3643    1.9819    0.7311 O   0  0  0  0  0  0  0  0  0  0  0  0
    0.5522    1.7647    1.8915 N   0  0  0  0  0  0  0  0  0  0  0  0
    1.3093    1.1450    2.1332 H   0  0  0  0  0  0  0  0  0  0  0  0
    0.5577    3.1119    2.4582 C   0  0  0  0  0  0  0  0  0  0  0  0
   -0.3986    3.3098    2.9475 H   0  0  0  0  0  0  0  0  0  0  0  0
    1.3619    3.2123    3.1886 H   0  0  0  0  0  0  0  0  0  0  0  0
    0.6974    3.8450    1.6614 H   0  0  0  0  0  0  0  0  0  0  0  0
  5  6  2  0  0  0  0
  5  7  1  0  0  0  0
  2  3  1  0  0  0  0
  2  4  1  0  0  0  0
  2  5  1  0  0  0  0
  1  2  1  0  0  0  0
 24 25  2  0  0  0  0
 24 26  1  0  0  0  0
 20 21  1  0  0  0  0
 20 22  1  0  0  0  0
 20 23  1  0  0  0  0
 17 18  1  0  0  0  0
 17 19  1  0  0  0  0
 17 20  1  0  0  0  0
 13 14  1  0  0  0  0
 13 15  1  0  0  0  0
 13 16  1  0  0  0  0
 11 12  1  0  0  0  0
 11 13  1  0  0  0  0
 11 17  1  0  0  0  0
  9 10  1  0  0  0  0
  9 11  1  0  0  0  0
  9 24  1  0  0  0  0
  7  8  1  0  0  0  0
  7  9  1  0  0  0  0
 28 29  1  0  0  0  0
 28 30  1  0  0  0  0
 28 31  1  0  0  0  0
 26 27  1  0  0  0  0
 26 28  1  0  0  0  0
M  END
$$$$
default_name
  -OEChem-02102213163D

 31 30  0     1  0  0  0  0  0999 V2000
   -3.0760   -3.6390    1.5496 H   0  0  0  0  0  0  0  0  0  0  0  0
   -3.0940   -2.6290    1.1426 C   0  0  0  0  0  0  0  0  0  0  0  0
   -3.7160   -1.9930    1.7706 H   0  0  0  0  0  0  0  0  0  0  0  0
   -3.4880   -2.6500    0.1286 H   0  0  0  0  0  0  0  0  0  0  0  0
   -1.6860   -2.0850    1.1196 C   0  0  0  0  0  0  0  0  0  0  0  0
   -0.7540   -2.7700    1.5226 O   0  0  0  0  0  0  0  0  0  0  0  0
   -1.5320   -0.8490    0.6496 N   0  0  0  0  0  0  0  0  0  0  0  0
   -2.3500   -0.3360    0.3566 H   0  0  0  0  0  0  0  0  0  0  0  0
   -0.2470   -0.1410    0.5576 C   0  0  1  0  0  0  0  0  0  0  0  0
    0.4572   -0.6505    1.2162 H   0  0  0  0  0  0  0  0  0  0  0  0
    0.3091   -0.2220   -0.8868 C   0  0  1  0  0  0  0  0  0  0  0  0
    0.7447   -1.2156   -1.0085 H   0  0  0  0  0  0  0  0  0  0  0  0
   -0.7925   -0.0596   -1.9515 C   0  0  0  0  0  0  0  0  0  0  0  0
   -1.2100    0.9484   -1.9214 H   0  0  0  0  0  0  0  0  0  0  0  0
   -0.3890   -0.2480   -2.9452 H   0  0  0  0  0  0  0  0  0  0  0  0
   -1.5944   -0.7777   -1.7763 H   0  0  0  0  0  0  0  0  0  0  0  0
    1.4416    0.8067   -1.1030 C   0  0  0  0  0  0  0  0  0  0  0  0
    2.4073    0.3485   -0.8850 H   0  0  0  0  0  0  0  0  0  0  0  0
    1.4385    1.1172   -2.1478 H   0  0  0  0  0  0  0  0  0  0  0  0
    1.2965    2.0733   -0.2487 C   0  0  0  0  0  0  0  0  0  0  0  0
    1.4002    1.8345    0.8096 H   0  0  0  0  0  0  0  0  0  0  0  0
    2.0779    2.7828   -0.5221 H   0  0  0  0  0  0  0  0  0  0  0  0
    0.3233    2.5328   -0.4250 H   0  0  0  0  0  0  0  0  0  0  0  0
   -0.3971    1.3008    1.0689 C   0  0  0  0  0  0  0  0  0  0  0  0
   -1.3643    1.9819    0.7311 O   0  0  0  0  0  0  0  0  0  0  0  0
    0.5522    1.7647    1.8915 N   0  0  0  0  0  0  0  0  0  0  0  0
    1.3093    1.1450    2.1332 H   0  0  0  0  0  0  0  0  0  0  0  0
    0.5577    3.1119    2.4582 C   0  0  0  0  0  0  0  0  0  0  0  0
   -0.3986    3.3098    2.9475 H   0  0  0  0  0  0  0  0  0  0  0  0
    1.3619    3.2123    3.1886 H   0  0  0  0  0  0  0  0  0  0  0  0
    0.6974    3.8450    1.6614 H   0  0  0  0  0  0  0  0  0  0  0  0
  5  6  2  0  0  0  0
  5  7  1  0  0  0  0
  2  3  1  0  0  0  0
  2  4  1  0  0  0  0
  2  5  1  0  0  0  0
  1  2  1  0  0  0  0
 24 25  2  0  0  0  0
 24 26  1  0  0  0  0
 20 21  1  0  0  0  0
 20 22  1  0  0  0  0
 20 23  1  0  0  0  0
 17 18  1  0  0  0  0
 17 19  1  0  0  0  0
 17 20  1  0  0  0  0
 13 14  1  0  0  0  0
 13 15  1  0  0  0  0
 13 16  1  0  0  0  0
 11 12  1  0  0  0  0
 11 13  1  0  0  0  0
 11 17  1  0  0  0  0
  9 10  1  0  0  0  0
  9 11  1  0  0  0  0
  9 24  1  0  0  0  0
  7  8  1  0  0  0  0
  7  9  1  0  0  0  0
 28 29  1  0  0  0  0
 28 30  1  0  0  0  0
 28 31  1  0  0  0  0
 26 27  1  0  0  0  0
 26 28  1  0  0  0  0
M  END
$$$$
default_name
  -OEChem-02102213163D

 31 30  0     1  0  0  0  0  0999 V2000
   -3.0760   -3.6390    1.5496 H   0  0  0  0  0  0  0  0  0  0  0  0
   -3.0940   -2.6290    1.1426 C   0  0  0  0  0  0  0  0  0  0  0  0
   -3.7160   -1.9930    1.7706 H   0  0  0  0  0  0  0  0  0  0  0  0
   -3.4880   -2.6500    0.1286 H   0  0  0  0  0  0  0  0  0  0  0  0
   -1.6860   -2.0850    1.1196 C   0  0  0  0  0  0  0  0  0  0  0  0
   -0.7540   -2.7700    1.5226 O   0  0  0  0  0  0  0  0  0  0  0  0
   -1.5320   -0.8490    0.6496 N   0  0  0  0  0  0  0  0  0  0  0  0
   -2.3500   -0.3360    0.3566 H   0  0  0  0  0  0  0  0  0  0  0  0
   -0.2470   -0.1410    0.5576 C   0  0  1  0  0  0  0  0  0  0  0  0
    0.4572   -0.6505    1.2162 H   0  0  0  0  0  0  0  0  0  0  0  0
    0.3091   -0.2220   -0.8868 C   0  0  1  0  0  0  0  0  0  0  0  0
    0.7447   -1.2156   -1.0085 H   0  0  0  0  0  0  0  0  0  0  0  0
   -0.7925   -0.0596   -1.9515 C   0  0  0  0  0  0  0  0  0  0  0  0
   -1.2100    0.9484   -1.9214 H   0  0  0  0  0  0  0  0  0  0  0  0
   -0.3890   -0.2480   -2.9452 H   0  0  0  0  0  0  0  0  0  0  0  0
   -1.5944   -0.7777   -1.7763 H   0  0  0  0  0  0  0  0  0  0  0  0
    1.4416    0.8067   -1.1030 C   0  0  0  0  0  0  0  0  0  0  0  0
    2.4046    0.2962   -1.1475 H   0  0  0  0  0  0  0  0  0  0  0  0
    1.2786    1.3129   -2.0545 H   0  0  0  0  0  0  0  0  0  0  0  0
    1.5100    1.8874   -0.0155 C   0  0  0  0  0  0  0  0  0  0  0  0
    1.7781    1.4469    0.9447 H   0  0  0  0  0  0  0  0  0  0  0  0
    2.2703    2.6208   -0.2848 H   0  0  0  0  0  0  0  0  0  0  0  0
    0.5466    2.3912    0.0709 H   0  0  0  0  0  0  0  0  0  0  0  0
   -0.3971    1.3008    1.0689 C   0  0  0  0  0  0  0  0  0  0  0  0
   -1.3643    1.9819    0.7311 O   0  0  0  0  0  0  0  0  0  0  0  0
    0.5522    1.7647    1.8915 N   0  0  0  0  0  0  0  0  0  0  0  0
    1.3093    1.1450    2.1332 H   0  0  0  0  0  0  0  0  0  0  0  0
    0.5577    3.1119    2.4582 C   0  0  0  0  0  0  0  0  0  0  0  0
   -0.3986    3.3098    2.9475 H   0  0  0  0  0  0  0  0  0  0  0  0
    1.3619    3.2123    3.1886 H   0  0  0  0  0  0  0  0  0  0  0  0
    0.6974    3.8450    1.6614 H   0  0  0  0  0  0  0  0  0  0  0  0
  5  6  2  0  0  0  0
  5  7  1  0  0  0  0
  2  3  1  0  0  0  0
  2  4  1  0  0  0  0
  2  5  1  0  0  0  0
  1  2  1  0  0  0  0
 24 25  2  0  0  0  0
 24 26  1  0  0  0  0
 20 21  1  0  0  0  0
 20 22  1  0  0  0  0
 20 23  1  0  0  0  0
 17 18  1  0  0  0  0
 17 19  1  0  0  0  0
 17 20  1  0  0  0  0
 13 14  1  0  0  0  0
 13 15  1  0  0  0  0
 13 16  1  0  0  0  0
 11 12  1  0  0  0  0
 11 13  1  0  0  0  0
 11 17  1  0  0  0  0
  9 10  1  0  0  0  0
  9 11  1  0  0  0  0
  9 24  1  0  0  0  0
  7  8  1  0  0  0  0
  7  9  1  0  0  0  0
 28 29  1  0  0  0  0
 28 30  1  0  0  0  0
 28 31  1  0  0  0  0
 26 27  1  0  0  0  0
 26 28  1  0  0  0  0
M  END
$$$$
default_name
  -OEChem-02102213163D

 31 30  0     1  0  0  0  0  0999 V2000
   -3.0760   -3.6390    1.5496 H   0  0  0  0  0  0  0  0  0  0  0  0
   -3.0940   -2.6290    1.1426 C   0  0  0  0  0  0  0  0  0  0  0  0
   -3.7160   -1.9930    1.7706 H   0  0  0  0  0  0  0  0  0  0  0  0
   -3.4880   -2.6500    0.1286 H   0  0  0  0  0  0  0  0  0  0  0  0
   -1.6860   -2.0850    1.1196 C   0  0  0  0  0  0  0  0  0  0  0  0
   -0.7540   -2.7700    1.5226 O   0  0  0  0  0  0  0  0  0  0  0  0
   -1.5320   -0.8490    0.6496 N   0  0  0  0  0  0  0  0  0  0  0  0
   -2.3500   -0.3360    0.3566 H   0  0  0  0  0  0  0  0  0  0  0  0
   -0.2470   -0.1410    0.5576 C   0  0  1  0  0  0  0  0  0  0  0  0
    0.4572   -0.6505    1.2162 H   0  0  0  0  0  0  0  0  0  0  0  0
    0.3091   -0.2220   -0.8868 C   0  0  1  0  0  0  0  0  0  0  0  0
    0.7447   -1.2156   -1.0085 H   0  0  0  0  0  0  0  0  0  0  0  0
   -0.7925   -0.0596   -1.9515 C   0  0  0  0  0  0  0  0  0  0  0  0
   -1.2100    0.9484   -1.9214 H   0  0  0  0  0  0  0  0  0  0  0  0
   -0.3890   -0.2480   -2.9452 H   0  0  0  0  0  0  0  0  0  0  0  0
   -1.5944   -0.7777   -1.7763 H   0  0  0  0  0  0  0  0  0  0  0  0
    1.4416    0.8067   -1.1030 C   0  0  0  0  0  0  0  0  0  0  0  0
    2.3549    0.2957   -1.4106 H   0  0  0  0  0  0  0  0  0  0  0  0
    1.1473    1.4900   -1.8996 H   0  0  0  0  0  0  0  0  0  0  0  0
    1.7496    1.6558    0.1378 C   0  0  0  0  0  0  0  0  0  0  0  0
    2.1523    1.0333    0.9366 H   0  0  0  0  0  0  0  0  0  0  0  0
    2.4912    2.4124   -0.1194 H   0  0  0  0  0  0  0  0  0  0  0  0
    0.8427    2.1522    0.4846 H   0  0  0  0  0  0  0  0  0  0  0  0
   -0.3971    1.3008    1.0689 C   0  0  0  0  0  0  0  0  0  0  0  0
   -1.3643    1.9819    0.7311 O   0  0  0  0  0  0  0  0  0  0  0  0
    0.5522    1.7647    1.8915 N   0  0  0  0  0  0  0  0  0  0  0  0
    1.3093    1.1450    2.1332 H   0  0  0  0  0  0  0  0  0  0  0  0
    0.5577    3.1119    2.4582 C   0  0  0  0  0  0  0  0  0  0  0  0
   -0.3986    3.3098    2.9475 H   0  0  0  0  0  0  0  0  0  0  0  0
    1.3619    3.2123    3.1886 H   0  0  0  0  0  0  0  0  0  0  0  0
    0.6974    3.8450    1.6614 H   0  0  0  0  0  0  0  0  0  0  0  0
  5  6  2  0  0  0  0
  5  7  1  0  0  0  0
  2  3  1  0  0  0  0
  2  4  1  0  0  0  0
  2  5  1  0  0  0  0
  1  2  1  0  0  0  0
 24 25  2  0  0  0  0
 24 26  1  0  0  0  0
 20 21  1  0  0  0  0
 20 22  1  0  0  0  0
 20 23  1  0  0  0  0
 17 18  1  0  0  0  0
 17 19  1  0  0  0  0
 17 20  1  0  0  0  0
 13 14  1  0  0  0  0
 13 15  1  0  0  0  0
 13 16  1  0  0  0  0
 11 12  1  0  0  0  0
 11 13  1  0  0  0  0
 11 17  1  0  0  0  0
  9 10  1  0  0  0  0
  9 11  1  0  0  0  0
  9 24  1  0  0  0  0
  7  8  1  0  0  0  0
  7  9  1  0  0  0  0
 28 29  1  0  0  0  0
 28 30  1  0  0  0  0
 28 31  1  0  0  0  0
 26 27  1  0  0  0  0
 26 28  1  0  0  0  0
M  END
$$$$
default_name
  -OEChem-02102213163D

 31 30  0     1  0  0  0  0  0999 V2000
   -3.0760   -3.6390    1.5496 H   0  0  0  0  0  0  0  0  0  0  0  0
   -3.0940   -2.6290    1.1426 C   0  0  0  0  0  0  0  0  0  0  0  0
   -3.7160   -1.9930    1.7706 H   0  0  0  0  0  0  0  0  0  0  0  0
   -3.4880   -2.6500    0.1286 H   0  0  0  0  0  0  0  0  0  0  0  0
   -1.6860   -2.0850    1.1196 C   0  0  0  0  0  0  0  0  0  0  0  0
   -0.7540   -2.7700    1.5226 O   0  0  0  0  0  0  0  0  0  0  0  0
   -1.5320   -0.8490    0.6496 N   0  0  0  0  0  0  0  0  0  0  0  0
   -2.3500   -0.3360    0.3566 H   0  0  0  0  0  0  0  0  0  0  0  0
   -0.2470   -0.1410    0.5576 C   0  0  1  0  0  0  0  0  0  0  0  0
    0.4572   -0.6505    1.2162 H   0  0  0  0  0  0  0  0  0  0  0  0
    0.3091   -0.2220   -0.8868 C   0  0  1  0  0  0  0  0  0  0  0  0
    0.7447   -1.2156   -1.0085 H   0  0  0  0  0  0  0  0  0  0  0  0
   -0.7925   -0.0596   -1.9515 C   0  0  0  0  0  0  0  0  0  0  0  0
   -1.2100    0.9484   -1.9214 H   0  0  0  0  0  0  0  0  0  0  0  0
   -0.3890   -0.2480   -2.9452 H   0  0  0  0  0  0  0  0  0  0  0  0
   -1.5944   -0.7777   -1.7763 H   0  0  0  0  0  0  0  0  0  0  0  0
    1.4416    0.8067   -1.1030 C   0  0  0  0  0  0  0  0  0  0  0  0
    2.2616    0.3468   -1.6562 H   0  0  0  0  0  0  0  0  0  0  0  0
    1.0536    1.6365   -1.6938 H   0  0  0  0  0  0  0  0  0  0  0  0
    1.9991    1.3943    0.2005 C   0  0  0  0  0  0  0  0  0  0  0  0
    2.4974    0.6217    0.7858 H   0  0  0  0  0  0  0  0  0  0  0  0
    2.7256    2.1716   -0.0373 H   0  0  0  0  0  0  0  0  0  0  0  0
    1.1912    1.8322    0.7878 H   0  0  0  0  0  0  0  0  0  0  0  0
   -0.3971    1.3008    1.0689 C   0  0  0  0  0  0  0  0  0  0  0  0
   -1.3643    1.9819    0.7311 O   0  0  0  0  0  0  0  0  0  0  0  0
    0.5522    1.7647    1.8915 N   0  0  0  0  0  0  0  0  0  0  0  0
    1.3093    1.1450    2.1332 H   0  0  0  0  0  0  0  0  0  0  0  0
    0.5577    3.1119    2.4582 C   0  0  0  0  0  0  0  0  0  0  0  0
   -0.3986    3.3098    2.9475 H   0  0  0  0  0  0  0  0  0  0  0  0
    1.3619    3.2123    3.1886 H   0  0  0  0  0  0  0  0  0  0  0  0
    0.6974    3.8450    1.6614 H   0  0  0  0  0  0  0  0  0  0  0  0
  5  6  2  0  0  0  0
  5  7  1  0  0  0  0
  2  3  1  0  0  0  0
  2  4  1  0  0  0  0
  2  5  1  0  0  0  0
  1  2  1  0  0  0  0
 24 25  2  0  0  0  0
 24 26  1  0  0  0  0
 20 21  1  0  0  0  0
 20 22  1  0  0  0  0
 20 23  1  0  0  0  0
 17 18  1  0  0  0  0
 17 19  1  0  0  0  0
 17 20  1  0  0  0  0
 13 14  1  0  0  0  0
 13 15  1  0  0  0  0
 13 16  1  0  0  0  0
 11 12  1  0  0  0  0
 11 13  1  0  0  0  0
 11 17  1  0  0  0  0
  9 10  1  0  0  0  0
  9 11  1  0  0  0  0
  9 24  1  0  0  0  0
  7  8  1  0  0  0  0
  7  9  1  0  0  0  0
 28 29  1  0  0  0  0
 28 30  1  0  0  0  0
 28 31  1  0  0  0  0
 26 27  1  0  0  0  0
 26 28  1  0  0  0  0
M  END
$$$$
default_name
  -OEChem-02102213163D

 31 30  0     1  0  0  0  0  0999 V2000
   -3.0760   -3.6390    1.5496 H   0  0  0  0  0  0  0  0  0  0  0  0
   -3.0940   -2.6290    1.1426 C   0  0  0  0  0  0  0  0  0  0  0  0
   -3.7160   -1.9930    1.7706 H   0  0  0  0  0  0  0  0  0  0  0  0
   -3.4880   -2.6500    0.1286 H   0  0  0  0  0  0  0  0  0  0  0  0
   -1.6860   -2.0850    1.1196 C   0  0  0  0  0  0  0  0  0  0  0  0
   -0.7540   -2.7700    1.5226 O   0  0  0  0  0  0  0  0  0  0  0  0
   -1.5320   -0.8490    0.6496 N   0  0  0  0  0  0  0  0  0  0  0  0
   -2.3500   -0.3360    0.3566 H   0  0  0  0  0  0  0  0  0  0  0  0
   -0.2470   -0.1410    0.5576 C   0  0  1  0  0  0  0  0  0  0  0  0
    0.4572   -0.6505    1.2162 H   0  0  0  0  0  0  0  0  0  0  0  0
    0.3091   -0.2220   -0.8868 C   0  0  1  0  0  0  0  0  0  0  0  0
    0.7447   -1.2156   -1.0085 H   0  0  0  0  0  0  0  0  0  0  0  0
   -0.7925   -0.0596   -1.9515 C   0  0  0  0  0  0  0  0  0  0  0  0
   -1.2100    0.9484   -1.9214 H   0  0  0  0  0  0  0  0  0  0  0  0
   -0.3890   -0.2480   -2.9452 H   0  0  0  0  0  0  0  0  0  0  0  0
   -1.5944   -0.7777   -1.7763 H   0  0  0  0  0  0  0  0  0  0  0  0
    1.4416    0.8067   -1.1030 C   0  0  0  0  0  0  0  0  0  0  0  0
    2.1310    0.4461   -1.8677 H   0  0  0  0  0  0  0  0  0  0  0  0
    1.0038    1.7423   -1.4511 H   0  0  0  0  0  0  0  0  0  0  0  0
    2.2414    1.1208    0.1686 C   0  0  0  0  0  0  0  0  0  0  0  0
    2.7898    0.2402    0.5025 H   0  0  0  0  0  0  0  0  0  0  0  0
    2.9574    1.9150   -0.0440 H   0  0  0  0  0  0  0  0  0  0  0  0
    1.5686    1.4530    0.9599 H   0  0  0  0  0  0  0  0  0  0  0  0
   -0.3971    1.3008    1.0689 C   0  0  0  0  0  0  0  0  0  0  0  0
   -1.3643    1.9819    0.7311 O   0  0  0  0  0  0  0  0  0  0  0  0
    0.5522    1.7647    1.8915 N   0  0  0  0  0  0  0  0  0  0  0  0
    1.3093    1.1450    2.1332 H   0  0  0  0  0  0  0  0  0  0  0  0
    0.5577    3.1119    2.4582 C   0  0  0  0  0  0  0  0  0  0  0  0
   -0.3986    3.3098    2.9475 H   0  0  0  0  0  0  0  0  0  0  0  0
    1.3619    3.2123    3.1886 H   0  0  0  0  0  0  0  0  0  0  0  0
    0.6974    3.8450    1.6614 H   0  0  0  0  0  0  0  0  0  0  0  0
  5  6  2  0  0  0  0
  5  7  1  0  0  0  0
  2  3  1  0  0  0  0
  2  4  1  0  0  0  0
  2  5  1  0  0  0  0
  1  2  1  0  0  0  0
 24 25  2  0  0  0  0
 24 26  1  0  0  0  0
 20 21  1  0  0  0  0
 20 22  1  0  0  0  0
 20 23  1  0  0  0  0
 17 18  1  0  0  0  0
 17 19  1  0  0  0  0
 17 20  1  0  0  0  0
 13 14  1  0  0  0  0
 13 15  1  0  0  0  0
 13 16  1  0  0  0  0
 11 12  1  0  0  0  0
 11 13  1  0  0  0  0
 11 17  1  0  0  0  0
  9 10  1  0  0  0  0
  9 11  1  0  0  0  0
  9 24  1  0  0  0  0
  7  8  1  0  0  0  0
  7  9  1  0  0  0  0
 28 29  1  0  0  0  0
 28 30  1  0  0  0  0
 28 31  1  0  0  0  0
 26 27  1  0  0  0  0
 26 28  1  0  0  0  0
M  END
$$$$
default_name
  -OEChem-02102213163D

 31 30  0     1  0  0  0  0  0999 V2000
   -3.0760   -3.6390    1.5496 H   0  0  0  0  0  0  0  0  0  0  0  0
   -3.0940   -2.6290    1.1426 C   0  0  0  0  0  0  0  0  0  0  0  0
   -3.7160   -1.9930    1.7706 H   0  0  0  0  0  0  0  0  0  0  0  0
   -3.4880   -2.6500    0.1286 H   0  0  0  0  0  0  0  0  0  0  0  0
   -1.6860   -2.0850    1.1196 C   0  0  0  0  0  0  0  0  0  0  0  0
   -0.7540   -2.7700    1.5226 O   0  0  0  0  0  0  0  0  0  0  0  0
   -1.5320   -0.8490    0.6496 N   0  0  0  0  0  0  0  0  0  0  0  0
   -2.3500   -0.3360    0.3566 H   0  0  0  0  0  0  0  0  0  0  0  0
   -0.2470   -0.1410    0.5576 C   0  0  1  0  0  0  0  0  0  0  0  0
    0.4572   -0.6505    1.2162 H   0  0  0  0  0  0  0  0  0  0  0  0
    0.3091   -0.2220   -0.8868 C   0  0  1  0  0  0  0  0  0  0  0  0
    0.7447   -1.2156   -1.0085 H   0  0  0  0  0  0  0  0  0  0  0  0
   -0.7925   -0.0596   -1.9515 C   0  0  0  0  0  0  0  0  0  0  0  0
   -1.2100    0.9484   -1.9214 H   0  0  0  0  0  0  0  0  0  0  0  0
   -0.3890   -0.2480   -2.9452 H   0  0  0  0  0  0  0  0  0  0  0  0
   -1.5944   -0.7777   -1.7763 H   0  0  0  0  0  0  0  0  0  0  0  0
    1.4416    0.8067   -1.1030 C   0  0  0  0  0  0  0  0  0  0  0  0
    1.9720    0.5869   -2.0306 H   0  0  0  0  0  0  0  0  0  0  0  0
    1.0014    1.8002   -1.1880 H   0  0  0  0  0  0  0  0  0  0  0  0
    2.4601    0.8539    0.0441 C   0  0  0  0  0  0  0  0  0  0  0  0
    3.0097   -0.0851    0.1062 H   0  0  0  0  0  0  0  0  0  0  0  0
    3.1708    1.6601   -0.1392 H   0  0  0  0  0  0  0  0  0  0  0  0
    1.9490    1.0403    0.9892 H   0  0  0  0  0  0  0  0  0  0  0  0
   -0.3971    1.3008    1.0689 C   0  0  0  0  0  0  0  0  0  0  0  0
   -1.3643    1.9819    0.7311 O   0  0  0  0  0  0  0  0  0  0  0  0
    0.5522    1.7647    1.8915 N   0  0  0  0  0  0  0  0  0  0  0  0
    1.3093    1.1450    2.1332 H   0  0  0  0  0  0  0  0  0  0  0  0
    0.5577    3.1119    2.4582 C   0  0  0  0  0  0  0  0  0  0  0  0
   -0.3986    3.3098    2.9475 H   0  0  0  0  0  0  0  0  0  0  0  0
    1.3619    3.2123    3.1886 H   0  0  0  0  0  0  0  0  0  0  0  0
    0.6974    3.8450    1.6614 H   0  0  0  0  0  0  0  0  0  0  0  0
  5  6  2  0  0  0  0
  5  7  1  0  0  0  0
  2  3  1  0  0  0  0
  2  4  1  0  0  0  0
  2  5  1  0  0  0  0
  1  2  1  0  0  0  0
 24 25  2  0  0  0  0
 24 26  1  0  0  0  0
 20 21  1  0  0  0  0
 20 22  1  0  0  0  0
 20 23  1  0  0  0  0
 17 18  1  0  0  0  0
 17 19  1  0  0  0  0
 17 20  1  0  0  0  0
 13 14  1  0  0  0  0
 13 15  1  0  0  0  0
 13 16  1  0  0  0  0
 11 12  1  0  0  0  0
 11 13  1  0  0  0  0
 11 17  1  0  0  0  0
  9 10  1  0  0  0  0
  9 11  1  0  0  0  0
  9 24  1  0  0  0  0
  7  8  1  0  0  0  0
  7  9  1  0  0  0  0
 28 29  1  0  0  0  0
 28 30  1  0  0  0  0
 28 31  1  0  0  0  0
 26 27  1  0  0  0  0
 26 28  1  0  0  0  0
M  END
$$$$
default_name
  -OEChem-02102213163D

 31 30  0     1  0  0  0  0  0999 V2000
   -3.0760   -3.6390    1.5496 H   0  0  0  0  0  0  0  0  0  0  0  0
   -3.0940   -2.6290    1.1426 C   0  0  0  0  0  0  0  0  0  0  0  0
   -3.7160   -1.9930    1.7706 H   0  0  0  0  0  0  0  0  0  0  0  0
   -3.4880   -2.6500    0.1286 H   0  0  0  0  0  0  0  0  0  0  0  0
   -1.6860   -2.0850    1.1196 C   0  0  0  0  0  0  0  0  0  0  0  0
   -0.7540   -2.7700    1.5226 O   0  0  0  0  0  0  0  0  0  0  0  0
   -1.5320   -0.8490    0.6496 N   0  0  0  0  0  0  0  0  0  0  0  0
   -2.3500   -0.3360    0.3566 H   0  0  0  0  0  0  0  0  0  0  0  0
   -0.2470   -0.1410    0.5576 C   0  0  1  0  0  0  0  0  0  0  0  0
    0.4572   -0.6505    1.2162 H   0  0  0  0  0  0  0  0  0  0  0  0
    0.3091   -0.2220   -0.8868 C   0  0  1  0  0  0  0  0  0  0  0  0
    0.7447   -1.2156   -1.0085 H   0  0  0  0  0  0  0  0  0  0  0  0
   -0.7925   -0.0596   -1.9515 C   0  0  0  0  0  0  0  0  0  0  0  0
   -1.2100    0.9484   -1.9214 H   0  0  0  0  0  0  0  0  0  0  0  0
   -0.3890   -0.2480   -2.9452 H   0  0  0  0  0  0  0  0  0  0  0  0
   -1.5944   -0.7777   -1.7763 H   0  0  0  0  0  0  0  0  0  0  0  0
    1.4416    0.8067   -1.1030 C   0  0  0  0  0  0  0  0  0  0  0  0
    1.7954    0.7596   -2.1338 H   0  0  0  0  0  0  0  0  0  0  0  0
    1.0465    1.8064   -0.9224 H   0  0  0  0  0  0  0  0  0  0  0  0
    2.6402    0.6118   -0.1645 C   0  0  0  0  0  0  0  0  0  0  0  0
    3.1420   -0.3322   -0.3762 H   0  0  0  0  0  0  0  0  0  0  0  0
    3.3514    1.4241   -0.3162 H   0  0  0  0  0  0  0  0  0  0  0  0
    2.3065    0.6224    0.8737 H   0  0  0  0  0  0  0  0  0  0  0  0
   -0.3971    1.3008    1.0689 C   0  0  0  0  0  0  0  0  0  0  0  0
   -1.3643    1.9819    0.7311 O   0  0  0  0  0  0  0  0  0  0  0  0
    0.5522    1.7647    1.8915 N   0  0  0  0  0  0  0  0  0  0  0  0
    1.3093    1.1450    2.1332 H   0  0  0  0  0  0  0  0  0  0  0  0
    0.5577    3.1119    2.4582 C   0  0  0  0  0  0  0  0  0  0  0  0
   -0.3986    3.3098    2.9475 H   0  0  0  0  0  0  0  0  0  0  0  0
    1.3619    3.2123    3.1886 H   0  0  0  0  0  0  0  0  0  0  0  0
    0.6974    3.8450    1.6614 H   0  0  0  0  0  0  0  0  0  0  0  0
  5  6  2  0  0  0  0
  5  7  1  0  0  0  0
  2  3  1  0  0  0  0
  2  4  1  0  0  0  0
  2  5  1  0  0  0  0
  1  2  1  0  0  0  0
 24 25  2  0  0  0  0
 24 26  1  0  0  0  0
 20 21  1  0  0  0  0
 20 22  1  0  0  0  0
 20 23  1  0  0  0  0
 17 18  1  0  0  0  0
 17 19  1  0  0  0  0
 17 20  1  0  0  0  0
 13 14  1  0  0  0  0
 13 15  1  0  0  0  0
 13 16  1  0  0  0  0
 11 12  1  0  0  0  0
 11 13  1  0  0  0  0
 11 17  1  0  0  0  0
  9 10  1  0  0  0  0
  9 11  1  0  0  0  0
  9 24  1  0  0  0  0
  7  8  1  0  0  0  0
  7  9  1  0  0  0  0
 28 29  1  0  0  0  0
 28 30  1  0  0  0  0
 28 31  1  0  0  0  0
 26 27  1  0  0  0  0
 26 28  1  0  0  0  0
M  END
$$$$
default_name
  -OEChem-02102213163D

 31 30  0     1  0  0  0  0  0999 V2000
   -3.0760   -3.6390    1.5496 H   0  0  0  0  0  0  0  0  0  0  0  0
   -3.0940   -2.6290    1.1426 C   0  0  0  0  0  0  0  0  0  0  0  0
   -3.7160   -1.9930    1.7706 H   0  0  0  0  0  0  0  0  0  0  0  0
   -3.4880   -2.6500    0.1286 H   0  0  0  0  0  0  0  0  0  0  0  0
   -1.6860   -2.0850    1.1196 C   0  0  0  0  0  0  0  0  0  0  0  0
   -0.7540   -2.7700    1.5226 O   0  0  0  0  0  0  0  0  0  0  0  0
   -1.5320   -0.8490    0.6496 N   0  0  0  0  0  0  0  0  0  0  0  0
   -2.3500   -0.3360    0.3566 H   0  0  0  0  0  0  0  0  0  0  0  0
   -0.2470   -0.1410    0.5576 C   0  0  1  0  0  0  0  0  0  0  0  0
    0.4572   -0.6505    1.2162 H   0  0  0  0  0  0  0  0  0  0  0  0
    0.3091   -0.2220   -0.8868 C   0  0  1  0  0  0  0  0  0  0  0  0
    0.7447   -1.2156   -1.0085 H   0  0  0  0  0  0  0  0  0  0  0  0
   -0.7925   -0.0596   -1.9515 C   0  0  0  0  0  0  0  0  0  0  0  0
   -1.2100    0.9484   -1.9214 H   0  0  0  0  0  0  0  0  0  0  0  0
   -0.3890   -0.2480   -2.9452 H   0  0  0  0  0  0  0  0  0  0  0  0
   -1.5944   -0.7777   -1.7763 H   0  0  0  0  0  0  0  0  0  0  0  0
    1.4416    0.8067   -1.1030 C   0  0  0  0  0  0  0  0  0  0  0  0
    1.6134    0.9524   -2.1704 H   0  0  0  0  0  0  0  0  0  0  0  0
    1.1361    1.7603   -0.6726 H   0  0  0  0  0  0  0  0  0  0  0  0
    2.7694    0.4110   -0.4429 C   0  0  0  0  0  0  0  0  0  0  0  0
    3.1777   -0.4840   -0.9118 H   0  0  0  0  0  0  0  0  0  0  0  0
    3.4867    1.2232   -0.5631 H   0  0  0  0  0  0  0  0  0  0  0  0
    2.6169    0.2277    0.6213 H   0  0  0  0  0  0  0  0  0  0  0  0
   -0.3971    1.3008    1.0689 C   0  0  0  0  0  0  0  0  0  0  0  0
   -1.3643    1.9819    0.7311 O   0  0  0  0  0  0  0  0  0  0  0  0
    0.5522    1.7647    1.8915 N   0  0  0  0  0  0  0  0  0  0  0  0
    1.3093    1.1450    2.1332 H   0  0  0  0  0  0  0  0  0  0  0  0
    0.5577    3.1119    2.4582 C   0  0  0  0  0  0  0  0  0  0  0  0
   -0.3986    3.3098    2.9475 H   0  0  0  0  0  0  0  0  0  0  0  0
    1.3619    3.2123    3.1886 H   0  0  0  0  0  0  0  0  0  0  0  0
    0.6974    3.8450    1.6614 H   0  0  0  0  0  0  0  0  0  0  0  0
  5  6  2  0  0  0  0
  5  7  1  0  0  0  0
  2  3  1  0  0  0  0
  2  4  1  0  0  0  0
  2  5  1  0  0  0  0
  1  2  1  0  0  0  0
 24 25  2  0  0  0  0
 24 26  1  0  0  0  0
 20 21  1  0  0  0  0
 20 22  1  0  0  0  0
 20 23  1  0  0  0  0
 17 18  1  0  0  0  0
 17 19  1  0  0  0  0
 17 20  1  0  0  0  0
 13 14  1  0  0  0  0
 13 15  1  0  0  0  0
 13 16  1  0  0  0  0
 11 12  1  0  0  0  0
 11 13  1  0  0  0  0
 11 17  1  0  0  0  0
  9 10  1  0  0  0  0
  9 11  1  0  0  0  0
  9 24  1  0  0  0  0
  7  8  1  0  0  0  0
  7  9  1  0  0  0  0
 28 29  1  0  0  0  0
 28 30  1  0  0  0  0
 28 31  1  0  0  0  0
 26 27  1  0  0  0  0
 26 28  1  0  0  0  0
M  END
$$$$
default_name
  -OEChem-02102213163D

 31 30  0     1  0  0  0  0  0999 V2000
   -3.0760   -3.6390    1.5496 H   0  0  0  0  0  0  0  0  0  0  0  0
   -3.0940   -2.6290    1.1426 C   0  0  0  0  0  0  0  0  0  0  0  0
   -3.7160   -1.9930    1.7706 H   0  0  0  0  0  0  0  0  0  0  0  0
   -3.4880   -2.6500    0.1286 H   0  0  0  0  0  0  0  0  0  0  0  0
   -1.6860   -2.0850    1.1196 C   0  0  0  0  0  0  0  0  0  0  0  0
   -0.7540   -2.7700    1.5226 O   0  0  0  0  0  0  0  0  0  0  0  0
   -1.5320   -0.8490    0.6496 N   0  0  0  0  0  0  0  0  0  0  0  0
   -2.3500   -0.3360    0.3566 H   0  0  0  0  0  0  0  0  0  0  0  0
   -0.2470   -0.1410    0.5576 C   0  0  1  0  0  0  0  0  0  0  0  0
    0.4572   -0.6505    1.2162 H   0  0  0  0  0  0  0  0  0  0  0  0
    0.3091   -0.2220   -0.8868 C   0  0  1  0  0  0  0  0  0  0  0  0
    0.7447   -1.2156   -1.0085 H   0  0  0  0  0  0  0  0  0  0  0  0
   -0.7925   -0.0596   -1.9515 C   0  0  0  0  0  0  0  0  0  0  0  0
   -1.2100    0.9484   -1.9214 H   0  0  0  0  0  0  0  0  0  0  0  0
   -0.3890   -0.2480   -2.9452 H   0  0  0  0  0  0  0  0  0  0  0  0
   -1.5944   -0.7777   -1.7763 H   0  0  0  0  0  0  0  0  0  0  0  0
    1.4416    0.8067   -1.1030 C   0  0  0  0  0  0  0  0  0  0  0  0
    1.4382    1.1521   -2.1377 H   0  0  0  0  0  0  0  0  0  0  0  0
    1.2639    1.6652   -0.4554 H   0  0  0  0  0  0  0  0  0  0  0  0
    2.8390    0.2652   -0.7722 C   0  0  0  0  0  0  0  0  0  0  0  0
    3.1144   -0.5304   -1.4642 H   0  0  0  0  0  0  0  0  0  0  0  0
    3.5676    1.0711   -0.8630 H   0  0  0  0  0  0  0  0  0  0  0  0
    2.8588   -0.1169    0.2490 H   0  0  0  0  0  0  0  0  0  0  0  0
   -0.3971    1.3008    1.0689 C   0  0  0  0  0  0  0  0  0  0  0  0
   -1.3643    1.9819    0.7311 O   0  0  0  0  0  0  0  0  0  0  0  0
    0.5522    1.7647    1.8915 N   0  0  0  0  0  0  0  0  0  0  0  0
    1.3093    1.1450    2.1332 H   0  0  0  0  0  0  0  0  0  0  0  0
    0.5577    3.1119    2.4582 C   0  0  0  0  0  0  0  0  0  0  0  0
   -0.3986    3.3098    2.9475 H   0  0  0  0  0  0  0  0  0  0  0  0
    1.3619    3.2123    3.1886 H   0  0  0  0  0  0  0  0  0  0  0  0
    0.6974    3.8450    1.6614 H   0  0  0  0  0  0  0  0  0  0  0  0
  5  6  2  0  0  0  0
  5  7  1  0  0  0  0
  2  3  1  0  0  0  0
  2  4  1  0  0  0  0
  2  5  1  0  0  0  0
  1  2  1  0  0  0  0
 24 25  2  0  0  0  0
 24 26  1  0  0  0  0
 20 21  1  0  0  0  0
 20 22  1  0  0  0  0
 20 23  1  0  0  0  0
 17 18  1  0  0  0  0
 17 19  1  0  0  0  0
 17 20  1  0  0  0  0
 13 14  1  0  0  0  0
 13 15  1  0  0  0  0
 13 16  1  0  0  0  0
 11 12  1  0  0  0  0
 11 13  1  0  0  0  0
 11 17  1  0  0  0  0
  9 10  1  0  0  0  0
  9 11  1  0  0  0  0
  9 24  1  0  0  0  0
  7  8  1  0  0  0  0
  7  9  1  0  0  0  0
 28 29  1  0  0  0  0
 28 30  1  0  0  0  0
 28 31  1  0  0  0  0
 26 27  1  0  0  0  0
 26 28  1  0  0  0  0
M  END
$$$$
default_name
  -OEChem-02102213163D

 31 30  0     1  0  0  0  0  0999 V2000
   -3.0760   -3.6390    1.5496 H   0  0  0  0  0  0  0  0  0  0  0  0
   -3.0940   -2.6290    1.1426 C   0  0  0  0  0  0  0  0  0  0  0  0
   -3.7160   -1.9930    1.7706 H   0  0  0  0  0  0  0  0  0  0  0  0
   -3.4880   -2.6500    0.1286 H   0  0  0  0  0  0  0  0  0  0  0  0
   -1.6860   -2.0850    1.1196 C   0  0  0  0  0  0  0  0  0  0  0  0
   -0.7540   -2.7700    1.5226 O   0  0  0  0  0  0  0  0  0  0  0  0
   -1.5320   -0.8490    0.6496 N   0  0  0  0  0  0  0  0  0  0  0  0
   -2.3500   -0.3360    0.3566 H   0  0  0  0  0  0  0  0  0  0  0  0
   -0.2470   -0.1410    0.5576 C   0  0  1  0  0  0  0  0  0  0  0  0
    0.4572   -0.6505    1.2162 H   0  0  0  0  0  0  0  0  0  0  0  0
    0.3091   -0.2220   -0.8868 C   0  0  1  0  0  0  0  0  0  0  0  0
    0.7447   -1.2156   -1.0085 H   0  0  0  0  0  0  0  0  0  0  0  0
   -0.7925   -0.0596   -1.9515 C   0  0  0  0  0  0  0  0  0  0  0  0
   -1.2100    0.9484   -1.9214 H   0  0  0  0  0  0  0  0  0  0  0  0
   -0.3890   -0.2480   -2.9452 H   0  0  0  0  0  0  0  0  0  0  0  0
   -1.5944   -0.7777   -1.7763 H   0  0  0  0  0  0  0  0  0  0  0  0
    1.4416    0.8067   -1.1030 C   0  0  0  0  0  0  0  0  0  0  0  0
    1.2818    1.3452   -2.0381 H   0  0  0  0  0  0  0  0  0  0  0  0
    1.4214    1.5274   -0.2856 H   0  0  0  0  0  0  0  0  0  0  0  0
    2.8442    0.1843   -1.1299 C   0  0  0  0  0  0  0  0  0  0  0  0
    2.9564   -0.4682   -1.9956 H   0  0  0  0  0  0  0  0  0  0  0  0
    3.5886    0.9782   -1.1954 H   0  0  0  0  0  0  0  0  0  0  0  0
    3.0159   -0.3879   -0.2175 H   0  0  0  0  0  0  0  0  0  0  0  0
   -0.3971    1.3008    1.0689 C   0  0  0  0  0  0  0  0  0  0  0  0
   -1.3643    1.9819    0.7311 O   0  0  0  0  0  0  0  0  0  0  0  0
    0.5522    1.7647    1.8915 N   0  0  0  0  0  0  0  0  0  0  0  0
    1.3093    1.1450    2.1332 H   0  0  0  0  0  0  0  0  0  0  0  0
    0.5577    3.1119    2.4582 C   0  0  0  0  0  0  0  0  0  0  0  0
   -0.3986    3.3098    2.9475 H   0  0  0  0  0  0  0  0  0  0  0  0
    1.3619    3.2123    3.1886 H   0  0  0  0  0  0  0  0  0  0  0  0
    0.6974    3.8450    1.6614 H   0  0  0  0  0  0  0  0  0  0  0  0
  5  6  2  0  0  0  0
  5  7  1  0  0  0  0
  2  3  1  0  0  0  0
  2  4  1  0  0  0  0
  2  5  1  0  0  0  0
  1  2  1  0  0  0  0
 24 25  2  0  0  0  0
 24 26  1  0  0  0  0
 20 21  1  0  0  0  0
 20 22  1  0  0  0  0
 20 23  1  0  0  0  0
 17 18  1  0  0  0  0
 17 19  1  0  0  0  0
 17 20  1  0  0  0  0
 13 14  1  0  0  0  0
 13 15  1  0  0  0  0
 13 16  1  0  0  0  0
 11 12  1  0  0  0  0
 11 13  1  0  0  0  0
 11 17  1  0  0  0  0
  9 10  1  0  0  0  0
  9 11  1  0  0  0  0
  9 24  1  0  0  0  0
  7  8  1  0  0  0  0
  7  9  1  0  0  0  0
 28 29  1  0  0  0  0
 28 30  1  0  0  0  0
 28 31  1  0  0  0  0
 26 27  1  0  0  0  0
 26 28  1  0  0  0  0
M  END
$$$$
default_name
  -OEChem-02102213163D

 31 30  0     1  0  0  0  0  0999 V2000
   -3.0760   -3.6390    1.5496 H   0  0  0  0  0  0  0  0  0  0  0  0
   -3.0940   -2.6290    1.1426 C   0  0  0  0  0  0  0  0  0  0  0  0
   -3.7160   -1.9930    1.7706 H   0  0  0  0  0  0  0  0  0  0  0  0
   -3.4880   -2.6500    0.1286 H   0  0  0  0  0  0  0  0  0  0  0  0
   -1.6860   -2.0850    1.1196 C   0  0  0  0  0  0  0  0  0  0  0  0
   -0.7540   -2.7700    1.5226 O   0  0  0  0  0  0  0  0  0  0  0  0
   -1.5320   -0.8490    0.6496 N   0  0  0  0  0  0  0  0  0  0  0  0
   -2.3500   -0.3360    0.3566 H   0  0  0  0  0  0  0  0  0  0  0  0
   -0.2470   -0.1410    0.5576 C   0  0  1  0  0  0  0  0  0  0  0  0
    0.4572   -0.6505    1.2162 H   0  0  0  0  0  0  0  0  0  0  0  0
    0.3091   -0.2220   -0.8868 C   0  0  1  0  0  0  0  0  0  0  0  0
    0.7447   -1.2156   -1.0085 H   0  0  0  0  0  0  0  0  0  0  0  0
   -0.7925   -0.0596   -1.9515 C   0  0  0  0  0  0  0  0  0  0  0  0
   -1.2100    0.9484   -1.9214 H   0  0  0  0  0  0  0  0  0  0  0  0
   -0.3890   -0.2480   -2.9452 H   0  0  0  0  0  0  0  0  0  0  0  0
   -1.5944   -0.7777   -1.7763 H   0  0  0  0  0  0  0  0  0  0  0  0
    1.4416    0.8067   -1.1030 C   0  0  0  0  0  0  0  0  0  0  0  0
    1.1549    1.5184   -1.8784 H   0  0  0  0  0  0  0  0  0  0  0  0
    1.5978    1.3565   -0.1750 H   0  0  0  0  0  0  0  0  0  0  0  0
    2.7847    0.1738   -1.4917 C   0  0  0  0  0  0  0  0  0  0  0  0
    2.7144   -0.3015   -2.4699 H   0  0  0  0  0  0  0  0  0  0  0  0
    3.5482    0.9507   -1.5378 H   0  0  0  0  0  0  0  0  0  0  0  0
    3.0775   -0.5669   -0.7467 H   0  0  0  0  0  0  0  0  0  0  0  0
   -0.3971    1.3008    1.0689 C   0  0  0  0  0  0  0  0  0  0  0  0
   -1.3643    1.9819    0.7311 O   0  0  0  0  0  0  0  0  0  0  0  0
    0.5522    1.7647    1.8915 N   0  0  0  0  0  0  0  0  0  0  0  0
    1.3093    1.1450    2.1332 H   0  0  0  0  0  0  0  0  0  0  0  0
    0.5577    3.1119    2.4582 C   0  0  0  0  0  0  0  0  0  0  0  0
   -0.3986    3.3098    2.9475 H   0  0  0  0  0  0  0  0  0  0  0  0
    1.3619    3.2123    3.1886 H   0  0  0  0  0  0  0  0  0  0  0  0
    0.6974    3.8450    1.6614 H   0  0  0  0  0  0  0  0  0  0  0  0
  5  6  2  0  0  0  0
  5  7  1  0  0  0  0
  2  3  1  0  0  0  0
  2  4  1  0  0  0  0
  2  5  1  0  0  0  0
  1  2  1  0  0  0  0
 24 25  2  0  0  0  0
 24 26  1  0  0  0  0
 20 21  1  0  0  0  0
 20 22  1  0  0  0  0
 20 23  1  0  0  0  0
 17 18  1  0  0  0  0
 17 19  1  0  0  0  0
 17 20  1  0  0  0  0
 13 14  1  0  0  0  0
 13 15  1  0  0  0  0
 13 16  1  0  0  0  0
 11 12  1  0  0  0  0
 11 13  1  0  0  0  0
 11 17  1  0  0  0  0
  9 10  1  0  0  0  0
  9 11  1  0  0  0  0
  9 24  1  0  0  0  0
  7  8  1  0  0  0  0
  7  9  1  0  0  0  0
 28 29  1  0  0  0  0
 28 30  1  0  0  0  0
 28 31  1  0  0  0  0
 26 27  1  0  0  0  0
 26 28  1  0  0  0  0
M  END
$$$$
default_name
  -OEChem-02102213163D

 31 30  0     1  0  0  0  0  0999 V2000
   -3.0760   -3.6390    1.5496 H   0  0  0  0  0  0  0  0  0  0  0  0
   -3.0940   -2.6290    1.1426 C   0  0  0  0  0  0  0  0  0  0  0  0
   -3.7160   -1.9930    1.7706 H   0  0  0  0  0  0  0  0  0  0  0  0
   -3.4880   -2.6500    0.1286 H   0  0  0  0  0  0  0  0  0  0  0  0
   -1.6860   -2.0850    1.1196 C   0  0  0  0  0  0  0  0  0  0  0  0
   -0.7540   -2.7700    1.5226 O   0  0  0  0  0  0  0  0  0  0  0  0
   -1.5320   -0.8490    0.6496 N   0  0  0  0  0  0  0  0  0  0  0  0
   -2.3500   -0.3360    0.3566 H   0  0  0  0  0  0  0  0  0  0  0  0
   -0.2470   -0.1410    0.5576 C   0  0  1  0  0  0  0  0  0  0  0  0
    0.4572   -0.6505    1.2162 H   0  0  0  0  0  0  0  0  0  0  0  0
    0.3091   -0.2220   -0.8868 C   0  0  1  0  0  0  0  0  0  0  0  0
    0.7447   -1.2156   -1.0085 H   0  0  0  0  0  0  0  0  0  0  0  0
   -0.7925   -0.0596   -1.9515 C   0  0  0  0  0  0  0  0  0  0  0  0
   -1.2100    0.9484   -1.9214 H   0  0  0  0  0  0  0  0  0  0  0  0
   -0.3890   -0.2480   -2.9452 H   0  0  0  0  0  0  0  0  0  0  0  0
   -1.5944   -0.7777   -1.7763 H   0  0  0  0  0  0  0  0  0  0  0  0
    1.4416    0.8067   -1.1030 C   0  0  0  0  0  0  0  0  0  0  0  0
    1.0662    1.6601   -1.6693 H   0  0  0  0  0  0  0  0  0  0  0  0
    1.7811    1.1640   -0.1309 H   0  0  0  0  0  0  0  0  0  0  0  0
    2.6644    0.2345   -1.8329 C   0  0  0  0  0  0  0  0  0  0  0  0
    2.4050   -0.0418   -2.8547 H   0  0  0  0  0  0  0  0  0  0  0  0
    3.4492    0.9905   -1.8668 H   0  0  0  0  0  0  0  0  0  0  0  0
    3.0392   -0.6416   -1.3024 H   0  0  0  0  0  0  0  0  0  0  0  0
   -0.3971    1.3008    1.0689 C   0  0  0  0  0  0  0  0  0  0  0  0
   -1.3643    1.9819    0.7311 O   0  0  0  0  0  0  0  0  0  0  0  0
    0.5522    1.7647    1.8915 N   0  0  0  0  0  0  0  0  0  0  0  0
    1.3093    1.1450    2.1332 H   0  0  0  0  0  0  0  0  0  0  0  0
    0.5577    3.1119    2.4582 C   0  0  0  0  0  0  0  0  0  0  0  0
   -0.3986    3.3098    2.9475 H   0  0  0  0  0  0  0  0  0  0  0  0
    1.3619    3.2123    3.1886 H   0  0  0  0  0  0  0  0  0  0  0  0
    0.6974    3.8450    1.6614 H   0  0  0  0  0  0  0  0  0  0  0  0
  5  6  2  0  0  0  0
  5  7  1  0  0  0  0
  2  3  1  0  0  0  0
  2  4  1  0  0  0  0
  2  5  1  0  0  0  0
  1  2  1  0  0  0  0
 24 25  2  0  0  0  0
 24 26  1  0  0  0  0
 20 21  1  0  0  0  0
 20 22  1  0  0  0  0
 20 23  1  0  0  0  0
 17 18  1  0  0  0  0
 17 19  1  0  0  0  0
 17 20  1  0  0  0  0
 13 14  1  0  0  0  0
 13 15  1  0  0  0  0
 13 16  1  0  0  0  0
 11 12  1  0  0  0  0
 11 13  1  0  0  0  0
 11 17  1  0  0  0  0
  9 10  1  0  0  0  0
  9 11  1  0  0  0  0
  9 24  1  0  0  0  0
  7  8  1  0  0  0  0
  7  9  1  0  0  0  0
 28 29  1  0  0  0  0
 28 30  1  0  0  0  0
 28 31  1  0  0  0  0
 26 27  1  0  0  0  0
 26 28  1  0  0  0  0
M  END
$$$$
default_name
  -OEChem-02102213163D

 31 30  0     1  0  0  0  0  0999 V2000
   -3.0760   -3.6390    1.5496 H   0  0  0  0  0  0  0  0  0  0  0  0
   -3.0940   -2.6290    1.1426 C   0  0  0  0  0  0  0  0  0  0  0  0
   -3.7160   -1.9930    1.7706 H   0  0  0  0  0  0  0  0  0  0  0  0
   -3.4880   -2.6500    0.1286 H   0  0  0  0  0  0  0  0  0  0  0  0
   -1.6860   -2.0850    1.1196 C   0  0  0  0  0  0  0  0  0  0  0  0
   -0.7540   -2.7700    1.5226 O   0  0  0  0  0  0  0  0  0  0  0  0
   -1.5320   -0.8490    0.6496 N   0  0  0  0  0  0  0  0  0  0  0  0
   -2.3500   -0.3360    0.3566 H   0  0  0  0  0  0  0  0  0  0  0  0
   -0.2470   -0.1410    0.5576 C   0  0  1  0  0  0  0  0  0  0  0  0
    0.4572   -0.6505    1.2162 H   0  0  0  0  0  0  0  0  0  0  0  0
    0.3091   -0.2220   -0.8868 C   0  0  1  0  0  0  0  0  0  0  0  0
    0.7447   -1.2156   -1.0085 H   0  0  0  0  0  0  0  0  0  0  0  0
   -0.7925   -0.0596   -1.9515 C   0  0  0  0  0  0  0  0  0  0  0  0
   -1.2100    0.9484   -1.9214 H   0  0  0  0  0  0  0  0  0  0  0  0
   -0.3890   -0.2480   -2.9452 H   0  0  0  0  0  0  0  0  0  0  0  0
   -1.5944   -0.7777   -1.7763 H   0  0  0  0  0  0  0  0  0  0  0  0
    1.4416    0.8067   -1.1030 C   0  0  0  0  0  0  0  0  0  0  0  0
    1.0216    1.7605   -1.4252 H   0  0  0  0  0  0  0  0  0  0  0  0
    1.9587    0.9631   -0.1564 H   0  0  0  0  0  0  0  0  0  0  0  0
    2.4917    0.3621   -2.1302 C   0  0  0  0  0  0  0  0  0  0  0  0
    2.0493    0.2933   -3.1238 H   0  0  0  0  0  0  0  0  0  0  0  0
    3.2983    1.0950   -2.1599 H   0  0  0  0  0  0  0  0  0  0  0  0
    2.9039   -0.6069   -1.8468 H   0  0  0  0  0  0  0  0  0  0  0  0
   -0.3971    1.3008    1.0689 C   0  0  0  0  0  0  0  0  0  0  0  0
   -1.3643    1.9819    0.7311 O   0  0  0  0  0  0  0  0  0  0  0  0
    0.5522    1.7647    1.8915 N   0  0  0  0  0  0  0  0  0  0  0  0
    1.3093    1.1450    2.1332 H   0  0  0  0  0  0  0  0  0  0  0  0
    0.5577    3.1119    2.4582 C   0  0  0  0  0  0  0  0  0  0  0  0
   -0.3986    3.3098    2.9475 H   0  0  0  0  0  0  0  0  0  0  0  0
    1.3619    3.2123    3.1886 H   0  0  0  0  0  0  0  0  0  0  0  0
    0.6974    3.8450    1.6614 H   0  0  0  0  0  0  0  0  0  0  0  0
  5  6  2  0  0  0  0
  5  7  1  0  0  0  0
  2  3  1  0  0  0  0
  2  4  1  0  0  0  0
  2  5  1  0  0  0  0
  1  2  1  0  0  0  0
 24 25  2  0  0  0  0
 24 26  1  0  0  0  0
 20 21  1  0  0  0  0
 20 22  1  0  0  0  0
 20 23  1  0  0  0  0
 17 18  1  0  0  0  0
 17 19  1  0  0  0  0
 17 20  1  0  0  0  0
 13 14  1  0  0  0  0
 13 15  1  0  0  0  0
 13 16  1  0  0  0  0
 11 12  1  0  0  0  0
 11 13  1  0  0  0  0
 11 17  1  0  0  0  0
  9 10  1  0  0  0  0
  9 11  1  0  0  0  0
  9 24  1  0  0  0  0
  7  8  1  0  0  0  0
  7  9  1  0  0  0  0
 28 29  1  0  0  0  0
 28 30  1  0  0  0  0
 28 31  1  0  0  0  0
 26 27  1  0  0  0  0
 26 28  1  0  0  0  0
M  END
$$$$
default_name
  -OEChem-02102213163D

 31 30  0     1  0  0  0  0  0999 V2000
   -3.0760   -3.6390    1.5496 H   0  0  0  0  0  0  0  0  0  0  0  0
   -3.0940   -2.6290    1.1426 C   0  0  0  0  0  0  0  0  0  0  0  0
   -3.7160   -1.9930    1.7706 H   0  0  0  0  0  0  0  0  0  0  0  0
   -3.4880   -2.6500    0.1286 H   0  0  0  0  0  0  0  0  0  0  0  0
   -1.6860   -2.0850    1.1196 C   0  0  0  0  0  0  0  0  0  0  0  0
   -0.7540   -2.7700    1.5226 O   0  0  0  0  0  0  0  0  0  0  0  0
   -1.5320   -0.8490    0.6496 N   0  0  0  0  0  0  0  0  0  0  0  0
   -2.3500   -0.3360    0.3566 H   0  0  0  0  0  0  0  0  0  0  0  0
   -0.2470   -0.1410    0.5576 C   0  0  1  0  0  0  0  0  0  0  0  0
    0.4572   -0.6505    1.2162 H   0  0  0  0  0  0  0  0  0  0  0  0
    0.3091   -0.2220   -0.8868 C   0  0  1  0  0  0  0  0  0  0  0  0
    0.7447   -1.2156   -1.0085 H   0  0  0  0  0  0  0  0  0  0  0  0
   -0.7925   -0.0596   -1.9515 C   0  0  0  0  0  0  0  0  0  0  0  0
   -1.2100    0.9484   -1.9214 H   0  0  0  0  0  0  0  0  0  0  0  0
   -0.3890   -0.2480   -2.9452 H   0  0  0  0  0  0  0  0  0  0  0  0
   -1.5944   -0.7777   -1.7763 H   0  0  0  0  0  0  0  0  0  0  0  0
    1.4416    0.8067   -1.1030 C   0  0  0  0  0  0  0  0  0  0  0  0
    1.0242    1.8127   -1.1627 H   0  0  0  0  0  0  0  0  0  0  0  0
    2.1187    0.7674   -0.2497 H   0  0  0  0  0  0  0  0  0  0  0  0
    2.2783    0.5481   -2.3634 C   0  0  0  0  0  0  0  0  0  0  0  0
    1.6715    0.6808   -3.2589 H   0  0  0  0  0  0  0  0  0  0  0  0
    3.1058    1.2570   -2.3972 H   0  0  0  0  0  0  0  0  0  0  0  0
    2.6806   -0.4653   -2.3427 H   0  0  0  0  0  0  0  0  0  0  0  0
   -0.3971    1.3008    1.0689 C   0  0  0  0  0  0  0  0  0  0  0  0
   -1.3643    1.9819    0.7311 O   0  0  0  0  0  0  0  0  0  0  0  0
    0.5522    1.7647    1.8915 N   0  0  0  0  0  0  0  0  0  0  0  0
    1.3093    1.1450    2.1332 H   0  0  0  0  0  0  0  0  0  0  0  0
    0.5577    3.1119    2.4582 C   0  0  0  0  0  0  0  0  0  0  0  0
   -0.3986    3.3098    2.9475 H   0  0  0  0  0  0  0  0  0  0  0  0
    1.3619    3.2123    3.1886 H   0  0  0  0  0  0  0  0  0  0  0  0
    0.6974    3.8450    1.6614 H   0  0  0  0  0  0  0  0  0  0  0  0
  5  6  2  0  0  0  0
  5  7  1  0  0  0  0
  2  3  1  0  0  0  0
  2  4  1  0  0  0  0
  2  5  1  0  0  0  0
  1  2  1  0  0  0  0
 24 25  2  0  0  0  0
 24 26  1  0  0  0  0
 20 21  1  0  0  0  0
 20 22  1  0  0  0  0
 20 23  1  0  0  0  0
 17 18  1  0  0  0  0
 17 19  1  0  0  0  0
 17 20  1  0  0  0  0
 13 14  1  0  0  0  0
 13 15  1  0  0  0  0
 13 16  1  0  0  0  0
 11 12  1  0  0  0  0
 11 13  1  0  0  0  0
 11 17  1  0  0  0  0
  9 10  1  0  0  0  0
  9 11  1  0  0  0  0
  9 24  1  0  0  0  0
  7  8  1  0  0  0  0
  7  9  1  0  0  0  0
 28 29  1  0  0  0  0
 28 30  1  0  0  0  0
 28 31  1  0  0  0  0
 26 27  1  0  0  0  0
 26 28  1  0  0  0  0
M  END
$$$$
