
  -OEChem-03222214053D

 31 30  0     1  0  0  0  0  0999 V2000
   -2.4851   -4.2692    0.3480 H   0  0  0  0  0  0  0  0  0  0  0  0
   -2.5155   -3.2454   -0.0357 C   0  0  0  0  0  0  0  0  0  0  0  0
   -3.2359   -2.6711    0.5515 H   0  0  0  0  0  0  0  0  0  0  0  0
   -2.8413   -3.2716   -1.0782 H   0  0  0  0  0  0  0  0  0  0  0  0
   -1.1414   -2.6101    0.0632 C   0  0  0  0  0  0  0  0  0  0  0  0
   -0.2235   -3.2302    0.5675 O   0  0  0  0  0  0  0  0  0  0  0  0
   -0.9455   -1.3299   -0.4170 N   0  0  0  0  0  0  0  0  0  0  0  0
   -1.7258   -0.9033   -0.9068 H   0  0  0  0  0  0  0  0  0  0  0  0
    0.3614   -0.6431   -0.4681 C   0  0  1  0  0  0  0  0  0  0  0  0
    1.0492   -1.2746   -1.0418 H   0  0  0  0  0  0  0  0  0  0  0  0
    0.1994    0.6971   -1.2471 C   0  0  1  0  0  0  0  0  0  0  0  0
   -0.1186    0.4513   -2.2659 H   0  0  0  0  0  0  0  0  0  0  0  0
   -0.8846    1.6030   -0.6186 C   0  0  0  0  0  0  0  0  0  0  0  0
   -0.5452    2.0023    0.3421 H   0  0  0  0  0  0  0  0  0  0  0  0
   -1.1123    2.4440   -1.2798 H   0  0  0  0  0  0  0  0  0  0  0  0
   -1.8204    1.0620   -0.4574 H   0  0  0  0  0  0  0  0  0  0  0  0
    1.5481    1.4556   -1.3325 C   0  0  0  0  0  0  0  0  0  0  0  0
    1.9283    1.6727   -0.3297 H   0  0  0  0  0  0  0  0  0  0  0  0
    2.2811    0.8120   -1.8302 H   0  0  0  0  0  0  0  0  0  0  0  0
    1.4645    2.7849   -2.0899 C   0  0  0  0  0  0  0  0  0  0  0  0
    0.8854    3.5232   -1.5279 H   0  0  0  0  0  0  0  0  0  0  0  0
    2.4703    3.1892   -2.2394 H   0  0  0  0  0  0  0  0  0  0  0  0
    1.0008    2.6401   -3.0705 H   0  0  0  0  0  0  0  0  0  0  0  0
    1.0137   -0.4810    0.9286 C   0  0  0  0  0  0  0  0  0  0  0  0
    2.2268   -0.5880    1.0565 O   0  0  0  0  0  0  0  0  0  0  0  0
    0.2613   -0.0554    2.0089 N   0  0  0  0  0  0  0  0  0  0  0  0
   -0.7453   -0.0800    1.8893 H   0  0  0  0  0  0  0  0  0  0  0  0
    0.8069    0.0563    3.3555 C   0  0  0  0  0  0  0  0  0  0  0  0
    1.6449    0.7611    3.3730 H   0  0  0  0  0  0  0  0  0  0  0  0
    0.0389    0.4175    4.0459 H   0  0  0  0  0  0  0  0  0  0  0  0
    1.1594   -0.9193    3.7065 H   0  0  0  0  0  0  0  0  0  0  0  0
  1  2  1  0  0  0  0
  2  3  1  0  0  0  0
  2  4  1  0  0  0  0
  2  5  1  0  0  0  0
  5  6  2  0  0  0  0
  5  7  1  0  0  0  0
  7  8  1  0  0  0  0
  7  9  1  0  0  0  0
  9 10  1  0  0  0  0
  9 11  1  0  0  0  0
  9 24  1  0  0  0  0
 11 12  1  0  0  0  0
 11 13  1  0  0  0  0
 11 17  1  0  0  0  0
 13 14  1  0  0  0  0
 13 15  1  0  0  0  0
 13 16  1  0  0  0  0
 17 18  1  0  0  0  0
 17 19  1  0  0  0  0
 17 20  1  0  0  0  0
 20 21  1  0  0  0  0
 20 22  1  0  0  0  0
 20 23  1  0  0  0  0
 24 25  2  0  0  0  0
 24 26  1  0  0  0  0
 26 27  1  0  0  0  0
 26 28  1  0  0  0  0
 28 29  1  0  0  0  0
 28 30  1  0  0  0  0
 28 31  1  0  0  0  0
M  END
$$$$

  -OEChem-03222214053D

 31 30  0     1  0  0  0  0  0999 V2000
   -2.4852   -4.2577    0.3678 H   0  0  0  0  0  0  0  0  0  0  0  0
   -2.5132   -3.2346   -0.0182 C   0  0  0  0  0  0  0  0  0  0  0  0
   -3.2254   -2.6549    0.5737 H   0  0  0  0  0  0  0  0  0  0  0  0
   -2.8479   -3.2614   -1.0579 H   0  0  0  0  0  0  0  0  0  0  0  0
   -1.1347   -2.6069    0.0680 C   0  0  0  0  0  0  0  0  0  0  0  0
   -0.2156   -3.2338    0.5613 O   0  0  0  0  0  0  0  0  0  0  0  0
   -0.9365   -1.3271   -0.4129 N   0  0  0  0  0  0  0  0  0  0  0  0
   -1.7192   -0.8965   -0.8951 H   0  0  0  0  0  0  0  0  0  0  0  0
    0.3717   -0.6412   -0.4664 C   0  0  1  0  0  0  0  0  0  0  0  0
    1.0617   -1.2718   -1.0384 H   0  0  0  0  0  0  0  0  0  0  0  0
    0.2066    0.6992   -1.2511 C   0  0  1  0  0  0  0  0  0  0  0  0
   -0.1157    0.4554   -2.2689 H   0  0  0  0  0  0  0  0  0  0  0  0
   -0.8915    1.5875   -0.6173 C   0  0  0  0  0  0  0  0  0  0  0  0
   -0.5584    1.9834    0.3470 H   0  0  0  0  0  0  0  0  0  0  0  0
   -1.1298    2.4299   -1.2732 H   0  0  0  0  0  0  0  0  0  0  0  0
   -1.8220    1.0365   -0.4614 H   0  0  0  0  0  0  0  0  0  0  0  0
    1.5519    1.4739   -1.3513 C   0  0  0  0  0  0  0  0  0  0  0  0
    2.0645    1.4826   -0.3864 H   0  0  0  0  0  0  0  0  0  0  0  0
    2.2007    0.9476   -2.0591 H   0  0  0  0  0  0  0  0  0  0  0  0
    1.4281    2.9404   -1.7820 C   0  0  0  0  0  0  0  0  0  0  0  0
    0.9434    3.5410   -1.0063 H   0  0  0  0  0  0  0  0  0  0  0  0
    2.4239    3.3589   -1.9577 H   0  0  0  0  0  0  0  0  0  0  0  0
    0.8520    3.0206   -2.7090 H   0  0  0  0  0  0  0  0  0  0  0  0
    1.0143   -0.4856    0.9367 C   0  0  0  0  0  0  0  0  0  0  0  0
    2.2226   -0.6233    1.0803 O   0  0  0  0  0  0  0  0  0  0  0  0
    0.2560   -0.0623    2.0141 N   0  0  0  0  0  0  0  0  0  0  0  0
   -0.7495   -0.0676    1.8830 H   0  0  0  0  0  0  0  0  0  0  0  0
    0.7888    0.0256    3.3676 C   0  0  0  0  0  0  0  0  0  0  0  0
    1.6360    0.7186    3.4024 H   0  0  0  0  0  0  0  0  0  0  0  0
    0.0187    0.3888    4.0547 H   0  0  0  0  0  0  0  0  0  0  0  0
    1.1248   -0.9591    3.7099 H   0  0  0  0  0  0  0  0  0  0  0  0
  1  2  1  0  0  0  0
  2  3  1  0  0  0  0
  2  4  1  0  0  0  0
  2  5  1  0  0  0  0
  5  6  2  0  0  0  0
  5  7  1  0  0  0  0
  7  8  1  0  0  0  0
  7  9  1  0  0  0  0
  9 10  1  0  0  0  0
  9 11  1  0  0  0  0
  9 24  1  0  0  0  0
 11 12  1  0  0  0  0
 11 13  1  0  0  0  0
 11 17  1  0  0  0  0
 13 14  1  0  0  0  0
 13 15  1  0  0  0  0
 13 16  1  0  0  0  0
 17 18  1  0  0  0  0
 17 19  1  0  0  0  0
 17 20  1  0  0  0  0
 20 21  1  0  0  0  0
 20 22  1  0  0  0  0
 20 23  1  0  0  0  0
 24 25  2  0  0  0  0
 24 26  1  0  0  0  0
 26 27  1  0  0  0  0
 26 28  1  0  0  0  0
 28 29  1  0  0  0  0
 28 30  1  0  0  0  0
 28 31  1  0  0  0  0
M  END
$$$$

  -OEChem-03222214053D

 31 30  0     1  0  0  0  0  0999 V2000
   -2.4857   -4.2479    0.3906 H   0  0  0  0  0  0  0  0  0  0  0  0
   -2.5111   -3.2260    0.0015 C   0  0  0  0  0  0  0  0  0  0  0  0
   -3.2161   -2.6408    0.5965 H   0  0  0  0  0  0  0  0  0  0  0  0
   -2.8536   -3.2545   -1.0355 H   0  0  0  0  0  0  0  0  0  0  0  0
   -1.1288   -2.6052    0.0758 C   0  0  0  0  0  0  0  0  0  0  0  0
   -0.2081   -3.2377    0.5589 O   0  0  0  0  0  0  0  0  0  0  0  0
   -0.9288   -1.3264   -0.4076 N   0  0  0  0  0  0  0  0  0  0  0  0
   -1.7139   -0.8928   -0.8830 H   0  0  0  0  0  0  0  0  0  0  0  0
    0.3801   -0.6413   -0.4665 C   0  0  1  0  0  0  0  0  0  0  0  0
    1.0705   -1.2704   -1.0398 H   0  0  0  0  0  0  0  0  0  0  0  0
    0.2096    0.7027   -1.2487 C   0  0  1  0  0  0  0  0  0  0  0  0
   -0.1118    0.4568   -2.2664 H   0  0  0  0  0  0  0  0  0  0  0  0
   -0.9106    1.5711   -0.6222 C   0  0  0  0  0  0  0  0  0  0  0  0
   -0.6122    1.9366    0.3649 H   0  0  0  0  0  0  0  0  0  0  0  0
   -1.1309    2.4325   -1.2593 H   0  0  0  0  0  0  0  0  0  0  0  0
   -1.8450    1.0152   -0.5149 H   0  0  0  0  0  0  0  0  0  0  0  0
    1.5527    1.4909   -1.3640 C   0  0  0  0  0  0  0  0  0  0  0  0
    2.2025    1.2784   -0.5138 H   0  0  0  0  0  0  0  0  0  0  0  0
    2.0778    1.1333   -2.2558 H   0  0  0  0  0  0  0  0  0  0  0  0
    1.4447    3.0196   -1.4373 C   0  0  0  0  0  0  0  0  0  0  0  0
    1.0461    3.4329   -0.5060 H   0  0  0  0  0  0  0  0  0  0  0  0
    2.4372    3.4513   -1.5988 H   0  0  0  0  0  0  0  0  0  0  0  0
    0.8018    3.3214   -2.2696 H   0  0  0  0  0  0  0  0  0  0  0  0
    1.0165   -0.4898    0.9411 C   0  0  0  0  0  0  0  0  0  0  0  0
    2.2199   -0.6530    1.0974 O   0  0  0  0  0  0  0  0  0  0  0  0
    0.2547   -0.0675    2.0164 N   0  0  0  0  0  0  0  0  0  0  0  0
   -0.7498   -0.0624    1.8781 H   0  0  0  0  0  0  0  0  0  0  0  0
    0.7785    0.0024    3.3745 C   0  0  0  0  0  0  0  0  0  0  0  0
    1.6333    0.6855    3.4215 H   0  0  0  0  0  0  0  0  0  0  0  0
    0.0078    0.3681    4.0595 H   0  0  0  0  0  0  0  0  0  0  0  0
    1.1013   -0.9888    3.7106 H   0  0  0  0  0  0  0  0  0  0  0  0
  1  2  1  0  0  0  0
  2  3  1  0  0  0  0
  2  4  1  0  0  0  0
  2  5  1  0  0  0  0
  5  6  2  0  0  0  0
  5  7  1  0  0  0  0
  7  8  1  0  0  0  0
  7  9  1  0  0  0  0
  9 10  1  0  0  0  0
  9 11  1  0  0  0  0
  9 24  1  0  0  0  0
 11 12  1  0  0  0  0
 11 13  1  0  0  0  0
 11 17  1  0  0  0  0
 13 14  1  0  0  0  0
 13 15  1  0  0  0  0
 13 16  1  0  0  0  0
 17 18  1  0  0  0  0
 17 19  1  0  0  0  0
 17 20  1  0  0  0  0
 20 21  1  0  0  0  0
 20 22  1  0  0  0  0
 20 23  1  0  0  0  0
 24 25  2  0  0  0  0
 24 26  1  0  0  0  0
 26 27  1  0  0  0  0
 26 28  1  0  0  0  0
 28 29  1  0  0  0  0
 28 30  1  0  0  0  0
 28 31  1  0  0  0  0
M  END
$$$$

  -OEChem-03222214053D

 31 30  0     1  0  0  0  0  0999 V2000
   -2.4842   -4.2460    0.4090 H   0  0  0  0  0  0  0  0  0  0  0  0
   -2.5093   -3.2264    0.0134 C   0  0  0  0  0  0  0  0  0  0  0  0
   -3.2114   -2.6364    0.6072 H   0  0  0  0  0  0  0  0  0  0  0  0
   -2.8555   -3.2608   -1.0223 H   0  0  0  0  0  0  0  0  0  0  0  0
   -1.1255   -2.6077    0.0791 C   0  0  0  0  0  0  0  0  0  0  0  0
   -0.2035   -3.2415    0.5579 O   0  0  0  0  0  0  0  0  0  0  0  0
   -0.9260   -1.3301   -0.4075 N   0  0  0  0  0  0  0  0  0  0  0  0
   -1.7139   -0.8941   -0.8760 H   0  0  0  0  0  0  0  0  0  0  0  0
    0.3829   -0.6464   -0.4717 C   0  0  1  0  0  0  0  0  0  0  0  0
    1.0720   -1.2713   -1.0510 H   0  0  0  0  0  0  0  0  0  0  0  0
    0.2061    0.7051   -1.2372 C   0  0  1  0  0  0  0  0  0  0  0  0
   -0.1056    0.4556   -2.2571 H   0  0  0  0  0  0  0  0  0  0  0  0
   -0.9352    1.5607   -0.6320 C   0  0  0  0  0  0  0  0  0  0  0  0
   -0.6858    1.8891    0.3809 H   0  0  0  0  0  0  0  0  0  0  0  0
   -1.1195    2.4443   -1.2496 H   0  0  0  0  0  0  0  0  0  0  0  0
   -1.8760    1.0065   -0.5899 H   0  0  0  0  0  0  0  0  0  0  0  0
    1.5510    1.4935   -1.3577 C   0  0  0  0  0  0  0  0  0  0  0  0
    2.3171    1.0607   -0.7124 H   0  0  0  0  0  0  0  0  0  0  0  0
    1.9154    1.3667   -2.3823 H   0  0  0  0  0  0  0  0  0  0  0  0
    1.5124    2.9980   -1.0588 C   0  0  0  0  0  0  0  0  0  0  0  0
    1.2117    3.1843   -0.0235 H   0  0  0  0  0  0  0  0  0  0  0  0
    2.5092    3.4264   -1.2019 H   0  0  0  0  0  0  0  0  0  0  0  0
    0.8234    3.5132   -1.7345 H   0  0  0  0  0  0  0  0  0  0  0  0
    1.0211   -0.4941    0.9359 C   0  0  0  0  0  0  0  0  0  0  0  0
    2.2230   -0.6643    1.0968 O   0  0  0  0  0  0  0  0  0  0  0  0
    0.2582   -0.0696    2.0095 N   0  0  0  0  0  0  0  0  0  0  0  0
   -0.7457   -0.0576    1.8680 H   0  0  0  0  0  0  0  0  0  0  0  0
    0.7785    0.0072    3.3684 C   0  0  0  0  0  0  0  0  0  0  0  0
    1.6341    0.6893    3.4133 H   0  0  0  0  0  0  0  0  0  0  0  0
    0.0064    0.3787    4.0488 H   0  0  0  0  0  0  0  0  0  0  0  0
    1.0980   -0.9827    3.7114 H   0  0  0  0  0  0  0  0  0  0  0  0
  1  2  1  0  0  0  0
  2  3  1  0  0  0  0
  2  4  1  0  0  0  0
  2  5  1  0  0  0  0
  5  6  2  0  0  0  0
  5  7  1  0  0  0  0
  7  8  1  0  0  0  0
  7  9  1  0  0  0  0
  9 10  1  0  0  0  0
  9 11  1  0  0  0  0
  9 24  1  0  0  0  0
 11 12  1  0  0  0  0
 11 13  1  0  0  0  0
 11 17  1  0  0  0  0
 13 14  1  0  0  0  0
 13 15  1  0  0  0  0
 13 16  1  0  0  0  0
 17 18  1  0  0  0  0
 17 19  1  0  0  0  0
 17 20  1  0  0  0  0
 20 21  1  0  0  0  0
 20 22  1  0  0  0  0
 20 23  1  0  0  0  0
 24 25  2  0  0  0  0
 24 26  1  0  0  0  0
 26 27  1  0  0  0  0
 26 28  1  0  0  0  0
 28 29  1  0  0  0  0
 28 30  1  0  0  0  0
 28 31  1  0  0  0  0
M  END
$$$$

  -OEChem-03222214053D

 31 30  0     1  0  0  0  0  0999 V2000
   -2.4905   -4.2526    0.4011 H   0  0  0  0  0  0  0  0  0  0  0  0
   -2.5155   -3.2319    0.0087 C   0  0  0  0  0  0  0  0  0  0  0  0
   -3.2190   -2.6438    0.6031 H   0  0  0  0  0  0  0  0  0  0  0  0
   -2.8597   -3.2635   -1.0278 H   0  0  0  0  0  0  0  0  0  0  0  0
   -1.1323   -2.6123    0.0786 C   0  0  0  0  0  0  0  0  0  0  0  0
   -0.2113   -3.2427    0.5640 O   0  0  0  0  0  0  0  0  0  0  0  0
   -0.9323   -1.3358   -0.4100 N   0  0  0  0  0  0  0  0  0  0  0  0
   -1.7188   -0.9013   -0.8820 H   0  0  0  0  0  0  0  0  0  0  0  0
    0.3764   -0.6522   -0.4729 C   0  0  1  0  0  0  0  0  0  0  0  0
    1.0640   -1.2765   -1.0546 H   0  0  0  0  0  0  0  0  0  0  0  0
    0.2022    0.7032   -1.2253 C   0  0  1  0  0  0  0  0  0  0  0  0
   -0.0889    0.4458   -2.2496 H   0  0  0  0  0  0  0  0  0  0  0  0
   -0.9533    1.5599   -0.6544 C   0  0  0  0  0  0  0  0  0  0  0  0
   -0.7544    1.8580    0.3786 H   0  0  0  0  0  0  0  0  0  0  0  0
   -1.0897    2.4620   -1.2579 H   0  0  0  0  0  0  0  0  0  0  0  0
   -1.9010    1.0160   -0.6769 H   0  0  0  0  0  0  0  0  0  0  0  0
    1.5516    1.4806   -1.3353 C   0  0  0  0  0  0  0  0  0  0  0  0
    2.3765    0.8835   -0.9386 H   0  0  0  0  0  0  0  0  0  0  0  0
    1.7662    1.6147   -2.4005 H   0  0  0  0  0  0  0  0  0  0  0  0
    1.6083    2.8709   -0.6889 C   0  0  0  0  0  0  0  0  0  0  0  0
    1.3987    2.8056    0.3831 H   0  0  0  0  0  0  0  0  0  0  0  0
    2.6100    3.2935   -0.8131 H   0  0  0  0  0  0  0  0  0  0  0  0
    0.8946    3.5560   -1.1552 H   0  0  0  0  0  0  0  0  0  0  0  0
    1.0229   -0.4908    0.9294 C   0  0  0  0  0  0  0  0  0  0  0  0
    2.2289   -0.6398    1.0788 O   0  0  0  0  0  0  0  0  0  0  0  0
    0.2678   -0.0610    2.0065 N   0  0  0  0  0  0  0  0  0  0  0  0
   -0.7377   -0.0625    1.8770 H   0  0  0  0  0  0  0  0  0  0  0  0
    0.8029    0.0319    3.3588 C   0  0  0  0  0  0  0  0  0  0  0  0
    1.6526    0.7223    3.3889 H   0  0  0  0  0  0  0  0  0  0  0  0
    0.0356    0.4006    4.0461 H   0  0  0  0  0  0  0  0  0  0  0  0
    1.1362   -0.9522    3.7050 H   0  0  0  0  0  0  0  0  0  0  0  0
  1  2  1  0  0  0  0
  2  3  1  0  0  0  0
  2  4  1  0  0  0  0
  2  5  1  0  0  0  0
  5  6  2  0  0  0  0
  5  7  1  0  0  0  0
  7  8  1  0  0  0  0
  7  9  1  0  0  0  0
  9 10  1  0  0  0  0
  9 11  1  0  0  0  0
  9 24  1  0  0  0  0
 11 12  1  0  0  0  0
 11 13  1  0  0  0  0
 11 17  1  0  0  0  0
 13 14  1  0  0  0  0
 13 15  1  0  0  0  0
 13 16  1  0  0  0  0
 17 18  1  0  0  0  0
 17 19  1  0  0  0  0
 17 20  1  0  0  0  0
 20 21  1  0  0  0  0
 20 22  1  0  0  0  0
 20 23  1  0  0  0  0
 24 25  2  0  0  0  0
 24 26  1  0  0  0  0
 26 27  1  0  0  0  0
 26 28  1  0  0  0  0
 28 29  1  0  0  0  0
 28 30  1  0  0  0  0
 28 31  1  0  0  0  0
M  END
$$$$

  -OEChem-03222214053D

 31 30  0     1  0  0  0  0  0999 V2000
   -2.4971   -4.2614    0.3852 H   0  0  0  0  0  0  0  0  0  0  0  0
   -2.5228   -3.2420   -0.0105 C   0  0  0  0  0  0  0  0  0  0  0  0
   -3.2376   -2.6570    0.5730 H   0  0  0  0  0  0  0  0  0  0  0  0
   -2.8524   -3.2776   -1.0516 H   0  0  0  0  0  0  0  0  0  0  0  0
   -1.1442   -2.6148    0.0759 C   0  0  0  0  0  0  0  0  0  0  0  0
   -0.2244   -3.2430    0.5664 O   0  0  0  0  0  0  0  0  0  0  0  0
   -0.9447   -1.3355   -0.4055 N   0  0  0  0  0  0  0  0  0  0  0  0
   -1.7295   -0.8990   -0.8788 H   0  0  0  0  0  0  0  0  0  0  0  0
    0.3654   -0.6556   -0.4655 C   0  0  1  0  0  0  0  0  0  0  0  0
    1.0469   -1.2837   -1.0506 H   0  0  0  0  0  0  0  0  0  0  0  0
    0.2009    0.6977   -1.2179 C   0  0  1  0  0  0  0  0  0  0  0  0
   -0.0796    0.4360   -2.2440 H   0  0  0  0  0  0  0  0  0  0  0  0
   -0.9482    1.5704   -0.6655 C   0  0  0  0  0  0  0  0  0  0  0  0
   -0.7808    1.8345    0.3824 H   0  0  0  0  0  0  0  0  0  0  0  0
   -1.0315    2.4935   -1.2475 H   0  0  0  0  0  0  0  0  0  0  0  0
   -1.9076    1.0516   -0.7389 H   0  0  0  0  0  0  0  0  0  0  0  0
    1.5511    1.4647   -1.3202 C   0  0  0  0  0  0  0  0  0  0  0  0
    2.3882    0.7755   -1.1689 H   0  0  0  0  0  0  0  0  0  0  0  0
    1.6438    1.8397   -2.3447 H   0  0  0  0  0  0  0  0  0  0  0  0
    1.7216    2.6700   -0.3854 C   0  0  0  0  0  0  0  0  0  0  0  0
    1.5996    2.3685    0.6594 H   0  0  0  0  0  0  0  0  0  0  0  0
    2.7256    3.0886   -0.5043 H   0  0  0  0  0  0  0  0  0  0  0  0
    0.9993    3.4580   -0.6163 H   0  0  0  0  0  0  0  0  0  0  0  0
    1.0253   -0.4985    0.9293 C   0  0  0  0  0  0  0  0  0  0  0  0
    2.2370   -0.6187    1.0578 O   0  0  0  0  0  0  0  0  0  0  0  0
    0.2788   -0.0698    2.0127 N   0  0  0  0  0  0  0  0  0  0  0  0
   -0.7282   -0.0838    1.8959 H   0  0  0  0  0  0  0  0  0  0  0  0
    0.8310    0.0554    3.3552 C   0  0  0  0  0  0  0  0  0  0  0  0
    1.6671    0.7625    3.3614 H   0  0  0  0  0  0  0  0  0  0  0  0
    0.0660    0.4213    4.0463 H   0  0  0  0  0  0  0  0  0  0  0  0
    1.1881   -0.9159    3.7134 H   0  0  0  0  0  0  0  0  0  0  0  0
  1  2  1  0  0  0  0
  2  3  1  0  0  0  0
  2  4  1  0  0  0  0
  2  5  1  0  0  0  0
  5  6  2  0  0  0  0
  5  7  1  0  0  0  0
  7  8  1  0  0  0  0
  7  9  1  0  0  0  0
  9 10  1  0  0  0  0
  9 11  1  0  0  0  0
  9 24  1  0  0  0  0
 11 12  1  0  0  0  0
 11 13  1  0  0  0  0
 11 17  1  0  0  0  0
 13 14  1  0  0  0  0
 13 15  1  0  0  0  0
 13 16  1  0  0  0  0
 17 18  1  0  0  0  0
 17 19  1  0  0  0  0
 17 20  1  0  0  0  0
 20 21  1  0  0  0  0
 20 22  1  0  0  0  0
 20 23  1  0  0  0  0
 24 25  2  0  0  0  0
 24 26  1  0  0  0  0
 26 27  1  0  0  0  0
 26 28  1  0  0  0  0
 28 29  1  0  0  0  0
 28 30  1  0  0  0  0
 28 31  1  0  0  0  0
M  END
$$$$

  -OEChem-03222214053D

 31 30  0     1  0  0  0  0  0999 V2000
   -2.5183   -4.2547    0.3658 H   0  0  0  0  0  0  0  0  0  0  0  0
   -2.5359   -3.2307   -0.0189 C   0  0  0  0  0  0  0  0  0  0  0  0
   -3.2458   -2.6463    0.5710 H   0  0  0  0  0  0  0  0  0  0  0  0
   -2.8665   -3.2532   -1.0600 H   0  0  0  0  0  0  0  0  0  0  0  0
   -1.1523   -2.6152    0.0739 C   0  0  0  0  0  0  0  0  0  0  0  0
   -0.2383   -3.2545    0.5610 O   0  0  0  0  0  0  0  0  0  0  0  0
   -0.9427   -1.3321   -0.3929 N   0  0  0  0  0  0  0  0  0  0  0  0
   -1.7242   -0.8831   -0.8600 H   0  0  0  0  0  0  0  0  0  0  0  0
    0.3715   -0.6589   -0.4383 C   0  0  1  0  0  0  0  0  0  0  0  0
    1.0523   -1.2960   -1.0143 H   0  0  0  0  0  0  0  0  0  0  0  0
    0.2198    0.6799   -1.2214 C   0  0  1  0  0  0  0  0  0  0  0  0
   -0.0561    0.4008   -2.2441 H   0  0  0  0  0  0  0  0  0  0  0  0
   -0.9196    1.5692   -0.6807 C   0  0  0  0  0  0  0  0  0  0  0  0
   -0.7679    1.8102    0.3752 H   0  0  0  0  0  0  0  0  0  0  0  0
   -0.9650    2.5053   -1.2462 H   0  0  0  0  0  0  0  0  0  0  0  0
   -1.8888    1.0739   -0.7845 H   0  0  0  0  0  0  0  0  0  0  0  0
    1.5493    1.4752   -1.3348 C   0  0  0  0  0  0  0  0  0  0  0  0
    2.3820    0.7664   -1.4006 H   0  0  0  0  0  0  0  0  0  0  0  0
    1.5314    2.0320   -2.2772 H   0  0  0  0  0  0  0  0  0  0  0  0
    1.8524    2.4835   -0.2140 C   0  0  0  0  0  0  0  0  0  0  0  0
    1.8434    2.0113    0.7702 H   0  0  0  0  0  0  0  0  0  0  0  0
    2.8451    2.9161   -0.3710 H   0  0  0  0  0  0  0  0  0  0  0  0
    1.1255    3.3007   -0.2156 H   0  0  0  0  0  0  0  0  0  0  0  0
    1.0277   -0.5175    0.9565 C   0  0  0  0  0  0  0  0  0  0  0  0
    2.2388   -0.6487    1.0815 O   0  0  0  0  0  0  0  0  0  0  0  0
    0.2821   -0.0946    2.0427 N   0  0  0  0  0  0  0  0  0  0  0  0
   -0.7249   -0.1073    1.9259 H   0  0  0  0  0  0  0  0  0  0  0  0
    0.8334    0.0061    3.3878 C   0  0  0  0  0  0  0  0  0  0  0  0
    1.6774    0.7039    3.4057 H   0  0  0  0  0  0  0  0  0  0  0  0
    0.0712    0.3706    4.0829 H   0  0  0  0  0  0  0  0  0  0  0  0
    1.1795   -0.9739    3.7330 H   0  0  0  0  0  0  0  0  0  0  0  0
  1  2  1  0  0  0  0
  2  3  1  0  0  0  0
  2  4  1  0  0  0  0
  2  5  1  0  0  0  0
  5  6  2  0  0  0  0
  5  7  1  0  0  0  0
  7  8  1  0  0  0  0
  7  9  1  0  0  0  0
  9 10  1  0  0  0  0
  9 11  1  0  0  0  0
  9 24  1  0  0  0  0
 11 12  1  0  0  0  0
 11 13  1  0  0  0  0
 11 17  1  0  0  0  0
 13 14  1  0  0  0  0
 13 15  1  0  0  0  0
 13 16  1  0  0  0  0
 17 18  1  0  0  0  0
 17 19  1  0  0  0  0
 17 20  1  0  0  0  0
 20 21  1  0  0  0  0
 20 22  1  0  0  0  0
 20 23  1  0  0  0  0
 24 25  2  0  0  0  0
 24 26  1  0  0  0  0
 26 27  1  0  0  0  0
 26 28  1  0  0  0  0
 28 29  1  0  0  0  0
 28 30  1  0  0  0  0
 28 31  1  0  0  0  0
M  END
$$$$

  -OEChem-03222214053D

 31 30  0     1  0  0  0  0  0999 V2000
   -2.5593   -4.2221    0.3664 H   0  0  0  0  0  0  0  0  0  0  0  0
   -2.5546   -3.1966   -0.0139 C   0  0  0  0  0  0  0  0  0  0  0  0
   -3.2544   -2.6000    0.5759 H   0  0  0  0  0  0  0  0  0  0  0  0
   -2.8815   -3.2076   -1.0562 H   0  0  0  0  0  0  0  0  0  0  0  0
   -1.1592   -2.6101    0.0859 C   0  0  0  0  0  0  0  0  0  0  0  0
   -0.2603   -3.2710    0.5718 O   0  0  0  0  0  0  0  0  0  0  0  0
   -0.9226   -1.3312   -0.3798 N   0  0  0  0  0  0  0  0  0  0  0  0
   -1.6953   -0.8657   -0.8448 H   0  0  0  0  0  0  0  0  0  0  0  0
    0.4017   -0.6758   -0.4092 C   0  0  1  0  0  0  0  0  0  0  0  0
    1.0862   -1.3219   -0.9709 H   0  0  0  0  0  0  0  0  0  0  0  0
    0.2550    0.6503   -1.2215 C   0  0  1  0  0  0  0  0  0  0  0  0
   -0.0286    0.3518   -2.2366 H   0  0  0  0  0  0  0  0  0  0  0  0
   -0.8802    1.5478   -0.6841 C   0  0  0  0  0  0  0  0  0  0  0  0
   -0.7371    1.7752    0.3758 H   0  0  0  0  0  0  0  0  0  0  0  0
   -0.9087    2.4919   -1.2373 H   0  0  0  0  0  0  0  0  0  0  0  0
   -1.8545    1.0664   -0.8047 H   0  0  0  0  0  0  0  0  0  0  0  0
    1.5486    1.4970   -1.3743 C   0  0  0  0  0  0  0  0  0  0  0  0
    2.3593    0.8307   -1.6877 H   0  0  0  0  0  0  0  0  0  0  0  0
    1.3864    2.2082   -2.1911 H   0  0  0  0  0  0  0  0  0  0  0  0
    2.0389    2.3023   -0.1585 C   0  0  0  0  0  0  0  0  0  0  0  0
    2.3603    1.6645    0.6634 H   0  0  0  0  0  0  0  0  0  0  0  0
    2.9000    2.9096   -0.4533 H   0  0  0  0  0  0  0  0  0  0  0  0
    1.2613    2.9784    0.2065 H   0  0  0  0  0  0  0  0  0  0  0  0
    1.0307   -0.5461    0.9977 C   0  0  0  0  0  0  0  0  0  0  0  0
    2.2202   -0.7852    1.1631 O   0  0  0  0  0  0  0  0  0  0  0  0
    0.2731   -0.1129    2.0713 N   0  0  0  0  0  0  0  0  0  0  0  0
   -0.7285   -0.0634    1.9223 H   0  0  0  0  0  0  0  0  0  0  0  0
    0.7854   -0.0795    3.4347 C   0  0  0  0  0  0  0  0  0  0  0  0
    1.6588    0.5780    3.4998 H   0  0  0  0  0  0  0  0  0  0  0  0
    0.0188    0.2973    4.1183 H   0  0  0  0  0  0  0  0  0  0  0  0
    1.0763   -1.0850    3.7571 H   0  0  0  0  0  0  0  0  0  0  0  0
  1  2  1  0  0  0  0
  2  3  1  0  0  0  0
  2  4  1  0  0  0  0
  2  5  1  0  0  0  0
  5  6  2  0  0  0  0
  5  7  1  0  0  0  0
  7  8  1  0  0  0  0
  7  9  1  0  0  0  0
  9 10  1  0  0  0  0
  9 11  1  0  0  0  0
  9 24  1  0  0  0  0
 11 12  1  0  0  0  0
 11 13  1  0  0  0  0
 11 17  1  0  0  0  0
 13 14  1  0  0  0  0
 13 15  1  0  0  0  0
 13 16  1  0  0  0  0
 17 18  1  0  0  0  0
 17 19  1  0  0  0  0
 17 20  1  0  0  0  0
 20 21  1  0  0  0  0
 20 22  1  0  0  0  0
 20 23  1  0  0  0  0
 24 25  2  0  0  0  0
 24 26  1  0  0  0  0
 26 27  1  0  0  0  0
 26 28  1  0  0  0  0
 28 29  1  0  0  0  0
 28 30  1  0  0  0  0
 28 31  1  0  0  0  0
M  END
$$$$

  -OEChem-03222214053D

 31 30  0     1  0  0  0  0  0999 V2000
   -2.5901   -4.1939    0.3902 H   0  0  0  0  0  0  0  0  0  0  0  0
   -2.5691   -3.1695    0.0071 C   0  0  0  0  0  0  0  0  0  0  0  0
   -3.2554   -2.5591    0.5985 H   0  0  0  0  0  0  0  0  0  0  0  0
   -2.9015   -3.1777   -1.0336 H   0  0  0  0  0  0  0  0  0  0  0  0
   -1.1629   -2.6073    0.0992 C   0  0  0  0  0  0  0  0  0  0  0  0
   -0.2748   -3.2825    0.5852 O   0  0  0  0  0  0  0  0  0  0  0  0
   -0.9053   -1.3374   -0.3806 N   0  0  0  0  0  0  0  0  0  0  0  0
   -1.6728   -0.8627   -0.8450 H   0  0  0  0  0  0  0  0  0  0  0  0
    0.4270   -0.6963   -0.4079 C   0  0  1  0  0  0  0  0  0  0  0  0
    1.1143   -1.3471   -0.9599 H   0  0  0  0  0  0  0  0  0  0  0  0
    0.2790    0.6285   -1.2275 C   0  0  1  0  0  0  0  0  0  0  0  0
   -0.0269    0.3309   -2.2363 H   0  0  0  0  0  0  0  0  0  0  0  0
   -0.8404    1.5373   -0.6689 C   0  0  0  0  0  0  0  0  0  0  0  0
   -0.6537    1.8027    0.3747 H   0  0  0  0  0  0  0  0  0  0  0  0
   -0.9030    2.4633   -1.2492 H   0  0  0  0  0  0  0  0  0  0  0  0
   -1.8165    1.0488   -0.7303 H   0  0  0  0  0  0  0  0  0  0  0  0
    1.5552    1.4972   -1.4097 C   0  0  0  0  0  0  0  0  0  0  0  0
    2.2895    0.9114   -1.9727 H   0  0  0  0  0  0  0  0  0  0  0  0
    1.2888    2.3540   -2.0373 H   0  0  0  0  0  0  0  0  0  0  0  0
    2.2585    2.0423   -0.1596 C   0  0  0  0  0  0  0  0  0  0  0  0
    2.9100    1.2899    0.2869 H   0  0  0  0  0  0  0  0  0  0  0  0
    2.8911    2.8900   -0.4399 H   0  0  0  0  0  0  0  0  0  0  0  0
    1.5413    2.3880    0.5892 H   0  0  0  0  0  0  0  0  0  0  0  0
    1.0273   -0.5648    1.0141 C   0  0  0  0  0  0  0  0  0  0  0  0
    2.1921   -0.8761    1.2254 O   0  0  0  0  0  0  0  0  0  0  0  0
    0.2521   -0.1143    2.0684 N   0  0  0  0  0  0  0  0  0  0  0  0
   -0.7411   -0.0212    1.8877 H   0  0  0  0  0  0  0  0  0  0  0  0
    0.7206   -0.1142    3.4482 C   0  0  0  0  0  0  0  0  0  0  0  0
    1.6066    0.5209    3.5515 H   0  0  0  0  0  0  0  0  0  0  0  0
   -0.0586    0.2707    4.1127 H   0  0  0  0  0  0  0  0  0  0  0  0
    0.9768   -1.1310    3.7645 H   0  0  0  0  0  0  0  0  0  0  0  0
  1  2  1  0  0  0  0
  2  3  1  0  0  0  0
  2  4  1  0  0  0  0
  2  5  1  0  0  0  0
  5  6  2  0  0  0  0
  5  7  1  0  0  0  0
  7  8  1  0  0  0  0
  7  9  1  0  0  0  0
  9 10  1  0  0  0  0
  9 11  1  0  0  0  0
  9 24  1  0  0  0  0
 11 12  1  0  0  0  0
 11 13  1  0  0  0  0
 11 17  1  0  0  0  0
 13 14  1  0  0  0  0
 13 15  1  0  0  0  0
 13 16  1  0  0  0  0
 17 18  1  0  0  0  0
 17 19  1  0  0  0  0
 17 20  1  0  0  0  0
 20 21  1  0  0  0  0
 20 22  1  0  0  0  0
 20 23  1  0  0  0  0
 24 25  2  0  0  0  0
 24 26  1  0  0  0  0
 26 27  1  0  0  0  0
 26 28  1  0  0  0  0
 28 29  1  0  0  0  0
 28 30  1  0  0  0  0
 28 31  1  0  0  0  0
M  END
$$$$

  -OEChem-03222214053D

 31 30  0     1  0  0  0  0  0999 V2000
   -2.6017   -4.1811    0.4221 H   0  0  0  0  0  0  0  0  0  0  0  0
   -2.5720   -3.1634    0.0222 C   0  0  0  0  0  0  0  0  0  0  0  0
   -3.2585   -2.5391    0.5989 H   0  0  0  0  0  0  0  0  0  0  0  0
   -2.8972   -3.1869   -1.0206 H   0  0  0  0  0  0  0  0  0  0  0  0
   -1.1626   -2.6092    0.1148 C   0  0  0  0  0  0  0  0  0  0  0  0
   -0.2815   -3.2882    0.6076 O   0  0  0  0  0  0  0  0  0  0  0  0
   -0.8939   -1.3459   -0.3774 N   0  0  0  0  0  0  0  0  0  0  0  0
   -1.6531   -0.8773   -0.8613 H   0  0  0  0  0  0  0  0  0  0  0  0
    0.4437   -0.7140   -0.4118 C   0  0  1  0  0  0  0  0  0  0  0  0
    1.1330   -1.3664   -0.9597 H   0  0  0  0  0  0  0  0  0  0  0  0
    0.2875    0.6143   -1.2328 C   0  0  1  0  0  0  0  0  0  0  0  0
   -0.0619    0.3252   -2.2299 H   0  0  0  0  0  0  0  0  0  0  0  0
   -0.7946    1.5351   -0.6177 C   0  0  0  0  0  0  0  0  0  0  0  0
   -0.4914    1.8877    0.3722 H   0  0  0  0  0  0  0  0  0  0  0  0
   -0.9546    2.4109   -1.2542 H   0  0  0  0  0  0  0  0  0  0  0  0
   -1.7575    1.0270   -0.5238 H   0  0  0  0  0  0  0  0  0  0  0  0
    1.5464    1.5053   -1.4494 C   0  0  0  0  0  0  0  0  0  0  0  0
    2.1581    1.0269   -2.2211 H   0  0  0  0  0  0  0  0  0  0  0  0
    1.2272    2.4681   -1.8614 H   0  0  0  0  0  0  0  0  0  0  0  0
    2.4725    1.7887   -0.2655 C   0  0  0  0  0  0  0  0  0  0  0  0
    3.1145    0.9292   -0.0617 H   0  0  0  0  0  0  0  0  0  0  0  0
    3.1266    2.6323   -0.5058 H   0  0  0  0  0  0  0  0  0  0  0  0
    1.9035    2.0456    0.6325 H   0  0  0  0  0  0  0  0  0  0  0  0
    1.0209   -0.5850    1.0227 C   0  0  0  0  0  0  0  0  0  0  0  0
    2.1704   -0.9268    1.2675 O   0  0  0  0  0  0  0  0  0  0  0  0
    0.2283   -0.1250    2.0603 N   0  0  0  0  0  0  0  0  0  0  0  0
   -0.7571   -0.0080    1.8532 H   0  0  0  0  0  0  0  0  0  0  0  0
    0.6567   -0.1507    3.4527 C   0  0  0  0  0  0  0  0  0  0  0  0
    1.5633    0.4489    3.5859 H   0  0  0  0  0  0  0  0  0  0  0  0
   -0.1257    0.2604    4.0974 H   0  0  0  0  0  0  0  0  0  0  0  0
    0.8642   -1.1785    3.7691 H   0  0  0  0  0  0  0  0  0  0  0  0
  1  2  1  0  0  0  0
  2  3  1  0  0  0  0
  2  4  1  0  0  0  0
  2  5  1  0  0  0  0
  5  6  2  0  0  0  0
  5  7  1  0  0  0  0
  7  8  1  0  0  0  0
  7  9  1  0  0  0  0
  9 10  1  0  0  0  0
  9 11  1  0  0  0  0
  9 24  1  0  0  0  0
 11 12  1  0  0  0  0
 11 13  1  0  0  0  0
 11 17  1  0  0  0  0
 13 14  1  0  0  0  0
 13 15  1  0  0  0  0
 13 16  1  0  0  0  0
 17 18  1  0  0  0  0
 17 19  1  0  0  0  0
 17 20  1  0  0  0  0
 20 21  1  0  0  0  0
 20 22  1  0  0  0  0
 20 23  1  0  0  0  0
 24 25  2  0  0  0  0
 24 26  1  0  0  0  0
 26 27  1  0  0  0  0
 26 28  1  0  0  0  0
 28 29  1  0  0  0  0
 28 30  1  0  0  0  0
 28 31  1  0  0  0  0
M  END
$$$$

  -OEChem-03222214053D

 31 30  0     1  0  0  0  0  0999 V2000
   -2.6221   -4.1655    0.4453 H   0  0  0  0  0  0  0  0  0  0  0  0
   -2.5811   -3.1519    0.0362 C   0  0  0  0  0  0  0  0  0  0  0  0
   -3.2606   -2.5150    0.6071 H   0  0  0  0  0  0  0  0  0  0  0  0
   -2.9067   -3.1811   -1.0063 H   0  0  0  0  0  0  0  0  0  0  0  0
   -1.1660   -2.6118    0.1233 C   0  0  0  0  0  0  0  0  0  0  0  0
   -0.2907   -3.2969    0.6179 O   0  0  0  0  0  0  0  0  0  0  0  0
   -0.8871   -1.3545   -0.3782 N   0  0  0  0  0  0  0  0  0  0  0  0
   -1.6439   -0.8833   -0.8633 H   0  0  0  0  0  0  0  0  0  0  0  0
    0.4539   -0.7293   -0.4155 C   0  0  1  0  0  0  0  0  0  0  0  0
    1.1447   -1.3836   -0.9588 H   0  0  0  0  0  0  0  0  0  0  0  0
    0.2969    0.6013   -1.2371 C   0  0  1  0  0  0  0  0  0  0  0  0
   -0.0732    0.3150   -2.2278 H   0  0  0  0  0  0  0  0  0  0  0  0
   -0.7696    1.5259   -0.5991 C   0  0  0  0  0  0  0  0  0  0  0  0
   -0.4177    1.9164    0.3607 H   0  0  0  0  0  0  0  0  0  0  0  0
   -0.9757    2.3766   -1.2567 H   0  0  0  0  0  0  0  0  0  0  0  0
   -1.7198    1.0115   -0.4366 H   0  0  0  0  0  0  0  0  0  0  0  0
    1.5492    1.5038   -1.4717 C   0  0  0  0  0  0  0  0  0  0  0  0
    2.0110    1.1681   -2.4060 H   0  0  0  0  0  0  0  0  0  0  0  0
    1.2311    2.5374   -1.6430 H   0  0  0  0  0  0  0  0  0  0  0  0
    2.6648    1.5272   -0.4299 C   0  0  0  0  0  0  0  0  0  0  0  0
    3.1865    0.5672   -0.4019 H   0  0  0  0  0  0  0  0  0  0  0  0
    3.3998    2.2930   -0.6956 H   0  0  0  0  0  0  0  0  0  0  0  0
    2.2714    1.7672    0.5620 H   0  0  0  0  0  0  0  0  0  0  0  0
    1.0141   -0.5988    1.0279 C   0  0  0  0  0  0  0  0  0  0  0  0
    2.1559   -0.9500    1.2951 O   0  0  0  0  0  0  0  0  0  0  0  0
    0.2097   -0.1305    2.0528 N   0  0  0  0  0  0  0  0  0  0  0  0
   -0.7720   -0.0100    1.8306 H   0  0  0  0  0  0  0  0  0  0  0  0
    0.6148   -0.1618    3.4524 C   0  0  0  0  0  0  0  0  0  0  0  0
    1.5295    0.4218    3.6001 H   0  0  0  0  0  0  0  0  0  0  0  0
   -0.1709    0.2639    4.0835 H   0  0  0  0  0  0  0  0  0  0  0  0
    0.7991   -1.1927    3.7733 H   0  0  0  0  0  0  0  0  0  0  0  0
  1  2  1  0  0  0  0
  2  3  1  0  0  0  0
  2  4  1  0  0  0  0
  2  5  1  0  0  0  0
  5  6  2  0  0  0  0
  5  7  1  0  0  0  0
  7  8  1  0  0  0  0
  7  9  1  0  0  0  0
  9 10  1  0  0  0  0
  9 11  1  0  0  0  0
  9 24  1  0  0  0  0
 11 12  1  0  0  0  0
 11 13  1  0  0  0  0
 11 17  1  0  0  0  0
 13 14  1  0  0  0  0
 13 15  1  0  0  0  0
 13 16  1  0  0  0  0
 17 18  1  0  0  0  0
 17 19  1  0  0  0  0
 17 20  1  0  0  0  0
 20 21  1  0  0  0  0
 20 22  1  0  0  0  0
 20 23  1  0  0  0  0
 24 25  2  0  0  0  0
 24 26  1  0  0  0  0
 26 27  1  0  0  0  0
 26 28  1  0  0  0  0
 28 29  1  0  0  0  0
 28 30  1  0  0  0  0
 28 31  1  0  0  0  0
M  END
$$$$

  -OEChem-03222214053D

 31 30  0     1  0  0  0  0  0999 V2000
   -2.6296   -4.1606    0.4643 H   0  0  0  0  0  0  0  0  0  0  0  0
   -2.5855   -3.1516    0.0440 C   0  0  0  0  0  0  0  0  0  0  0  0
   -3.2603   -2.5053    0.6101 H   0  0  0  0  0  0  0  0  0  0  0  0
   -2.9151   -3.1912   -0.9969 H   0  0  0  0  0  0  0  0  0  0  0  0
   -1.1679   -2.6164    0.1201 C   0  0  0  0  0  0  0  0  0  0  0  0
   -0.2912   -3.3040    0.6085 O   0  0  0  0  0  0  0  0  0  0  0  0
   -0.8876   -1.3608   -0.3848 N   0  0  0  0  0  0  0  0  0  0  0  0
   -1.6454   -0.8874   -0.8660 H   0  0  0  0  0  0  0  0  0  0  0  0
    0.4540   -0.7369   -0.4231 C   0  0  1  0  0  0  0  0  0  0  0  0
    1.1435   -1.3908   -0.9687 H   0  0  0  0  0  0  0  0  0  0  0  0
    0.2978    0.6003   -1.2336 C   0  0  1  0  0  0  0  0  0  0  0  0
   -0.0651    0.3123   -2.2263 H   0  0  0  0  0  0  0  0  0  0  0  0
   -0.7823    1.5174   -0.6086 C   0  0  0  0  0  0  0  0  0  0  0  0
   -0.4469    1.9045    0.3585 H   0  0  0  0  0  0  0  0  0  0  0  0
   -0.9795    2.3698   -1.2668 H   0  0  0  0  0  0  0  0  0  0  0  0
   -1.7332    0.9992   -0.4639 H   0  0  0  0  0  0  0  0  0  0  0  0
    1.5514    1.5060   -1.4680 C   0  0  0  0  0  0  0  0  0  0  0  0
    1.8467    1.3676   -2.5134 H   0  0  0  0  0  0  0  0  0  0  0  0
    1.2817    2.5622   -1.3642 H   0  0  0  0  0  0  0  0  0  0  0  0
    2.8096    1.2734   -0.6356 C   0  0  0  0  0  0  0  0  0  0  0  0
    3.1692    0.2470   -0.7524 H   0  0  0  0  0  0  0  0  0  0  0  0
    3.6038    1.9463   -0.9726 H   0  0  0  0  0  0  0  0  0  0  0  0
    2.6218    1.4844    0.4209 H   0  0  0  0  0  0  0  0  0  0  0  0
    1.0148   -0.6022    1.0203 C   0  0  0  0  0  0  0  0  0  0  0  0
    2.1538   -0.9608    1.2904 O   0  0  0  0  0  0  0  0  0  0  0  0
    0.2114   -0.1297    2.0441 N   0  0  0  0  0  0  0  0  0  0  0  0
   -0.7685    0.0017    1.8203 H   0  0  0  0  0  0  0  0  0  0  0  0
    0.6163   -0.1547    3.4440 C   0  0  0  0  0  0  0  0  0  0  0  0
    1.5387    0.4181    3.5867 H   0  0  0  0  0  0  0  0  0  0  0  0
   -0.1633    0.2868    4.0716 H   0  0  0  0  0  0  0  0  0  0  0  0
    0.7871   -1.1851    3.7734 H   0  0  0  0  0  0  0  0  0  0  0  0
  1  2  1  0  0  0  0
  2  3  1  0  0  0  0
  2  4  1  0  0  0  0
  2  5  1  0  0  0  0
  5  6  2  0  0  0  0
  5  7  1  0  0  0  0
  7  8  1  0  0  0  0
  7  9  1  0  0  0  0
  9 10  1  0  0  0  0
  9 11  1  0  0  0  0
  9 24  1  0  0  0  0
 11 12  1  0  0  0  0
 11 13  1  0  0  0  0
 11 17  1  0  0  0  0
 13 14  1  0  0  0  0
 13 15  1  0  0  0  0
 13 16  1  0  0  0  0
 17 18  1  0  0  0  0
 17 19  1  0  0  0  0
 17 20  1  0  0  0  0
 20 21  1  0  0  0  0
 20 22  1  0  0  0  0
 20 23  1  0  0  0  0
 24 25  2  0  0  0  0
 24 26  1  0  0  0  0
 26 27  1  0  0  0  0
 26 28  1  0  0  0  0
 28 29  1  0  0  0  0
 28 30  1  0  0  0  0
 28 31  1  0  0  0  0
M  END
$$$$

  -OEChem-03222214053D

 31 30  0     1  0  0  0  0  0999 V2000
   -2.6058   -4.1816    0.4899 H   0  0  0  0  0  0  0  0  0  0  0  0
   -2.5747   -3.1708    0.0727 C   0  0  0  0  0  0  0  0  0  0  0  0
   -3.2532   -2.5335    0.6446 H   0  0  0  0  0  0  0  0  0  0  0  0
   -2.9092   -3.2104   -0.9668 H   0  0  0  0  0  0  0  0  0  0  0  0
   -1.1622   -2.6212    0.1442 C   0  0  0  0  0  0  0  0  0  0  0  0
   -0.2809   -3.2941    0.6449 O   0  0  0  0  0  0  0  0  0  0  0  0
   -0.8918   -1.3692   -0.3752 N   0  0  0  0  0  0  0  0  0  0  0  0
   -1.6528   -0.9069   -0.8622 H   0  0  0  0  0  0  0  0  0  0  0  0
    0.4467   -0.7403   -0.4252 C   0  0  1  0  0  0  0  0  0  0  0  0
    1.1316   -1.3980   -0.9718 H   0  0  0  0  0  0  0  0  0  0  0  0
    0.2856    0.5939   -1.2346 C   0  0  1  0  0  0  0  0  0  0  0  0
   -0.0577    0.2877   -2.2289 H   0  0  0  0  0  0  0  0  0  0  0  0
   -0.8143    1.5087   -0.6460 C   0  0  0  0  0  0  0  0  0  0  0  0
   -0.5238    1.8771    0.3425 H   0  0  0  0  0  0  0  0  0  0  0  0
   -0.9706    2.3737   -1.2987 H   0  0  0  0  0  0  0  0  0  0  0  0
   -1.7739    0.9933   -0.5574 H   0  0  0  0  0  0  0  0  0  0  0  0
    1.5395    1.4963   -1.4733 C   0  0  0  0  0  0  0  0  0  0  0  0
    1.6606    1.5910   -2.5574 H   0  0  0  0  0  0  0  0  0  0  0  0
    1.3578    2.5072   -1.0927 H   0  0  0  0  0  0  0  0  0  0  0  0
    2.8888    1.0500   -0.9119 C   0  0  0  0  0  0  0  0  0  0  0  0
    3.0876   -0.0003   -1.1452 H   0  0  0  0  0  0  0  0  0  0  0  0
    3.6879    1.6512   -1.3559 H   0  0  0  0  0  0  0  0  0  0  0  0
    2.9271    1.2025    0.1696 H   0  0  0  0  0  0  0  0  0  0  0  0
    1.0240   -0.5829    1.0087 C   0  0  0  0  0  0  0  0  0  0  0  0
    2.1666   -0.9362    1.2696 O   0  0  0  0  0  0  0  0  0  0  0  0
    0.2307   -0.1001    2.0353 N   0  0  0  0  0  0  0  0  0  0  0  0
   -0.7523    0.0231    1.8209 H   0  0  0  0  0  0  0  0  0  0  0  0
    0.6498   -0.1092    3.4311 C   0  0  0  0  0  0  0  0  0  0  0  0
    1.5629    0.4811    3.5614 H   0  0  0  0  0  0  0  0  0  0  0  0
   -0.1320    0.3217    4.0635 H   0  0  0  0  0  0  0  0  0  0  0  0
    0.8424   -1.1343    3.7653 H   0  0  0  0  0  0  0  0  0  0  0  0
  1  2  1  0  0  0  0
  2  3  1  0  0  0  0
  2  4  1  0  0  0  0
  2  5  1  0  0  0  0
  5  6  2  0  0  0  0
  5  7  1  0  0  0  0
  7  8  1  0  0  0  0
  7  9  1  0  0  0  0
  9 10  1  0  0  0  0
  9 11  1  0  0  0  0
  9 24  1  0  0  0  0
 11 12  1  0  0  0  0
 11 13  1  0  0  0  0
 11 17  1  0  0  0  0
 13 14  1  0  0  0  0
 13 15  1  0  0  0  0
 13 16  1  0  0  0  0
 17 18  1  0  0  0  0
 17 19  1  0  0  0  0
 17 20  1  0  0  0  0
 20 21  1  0  0  0  0
 20 22  1  0  0  0  0
 20 23  1  0  0  0  0
 24 25  2  0  0  0  0
 24 26  1  0  0  0  0
 26 27  1  0  0  0  0
 26 28  1  0  0  0  0
 28 29  1  0  0  0  0
 28 30  1  0  0  0  0
 28 31  1  0  0  0  0
M  END
$$$$

  -OEChem-03222214053D

 31 30  0     1  0  0  0  0  0999 V2000
   -2.6250   -4.1681    0.4709 H   0  0  0  0  0  0  0  0  0  0  0  0
   -2.5900   -3.1572    0.0546 C   0  0  0  0  0  0  0  0  0  0  0  0
   -3.2706   -2.5192    0.6232 H   0  0  0  0  0  0  0  0  0  0  0  0
   -2.9188   -3.1954   -0.9867 H   0  0  0  0  0  0  0  0  0  0  0  0
   -1.1773   -2.6097    0.1334 C   0  0  0  0  0  0  0  0  0  0  0  0
   -0.2984   -3.2831    0.6376 O   0  0  0  0  0  0  0  0  0  0  0  0
   -0.9032   -1.3582   -0.3842 N   0  0  0  0  0  0  0  0  0  0  0  0
   -1.6610   -0.8953   -0.8756 H   0  0  0  0  0  0  0  0  0  0  0  0
    0.4374   -0.7356   -0.4350 C   0  0  1  0  0  0  0  0  0  0  0  0
    1.1137   -1.3967   -0.9873 H   0  0  0  0  0  0  0  0  0  0  0  0
    0.2834    0.6060   -1.2271 C   0  0  1  0  0  0  0  0  0  0  0  0
   -0.0470    0.3035   -2.2270 H   0  0  0  0  0  0  0  0  0  0  0  0
   -0.8159    1.5272   -0.6511 C   0  0  0  0  0  0  0  0  0  0  0  0
   -0.5514    1.8684    0.3540 H   0  0  0  0  0  0  0  0  0  0  0  0
   -0.9354    2.4096   -1.2882 H   0  0  0  0  0  0  0  0  0  0  0  0
   -1.7853    1.0243   -0.6043 H   0  0  0  0  0  0  0  0  0  0  0  0
    1.5464    1.4910   -1.4526 C   0  0  0  0  0  0  0  0  0  0  0  0
    1.5162    1.8442   -2.4888 H   0  0  0  0  0  0  0  0  0  0  0  0
    1.4959    2.3797   -0.8143 H   0  0  0  0  0  0  0  0  0  0  0  0
    2.9202    0.8608   -1.2124 C   0  0  0  0  0  0  0  0  0  0  0  0
    2.9674   -0.1547   -1.6161 H   0  0  0  0  0  0  0  0  0  0  0  0
    3.6896    1.4595   -1.7094 H   0  0  0  0  0  0  0  0  0  0  0  0
    3.1620    0.8447   -0.1484 H   0  0  0  0  0  0  0  0  0  0  0  0
    1.0282   -0.5785    0.9925 C   0  0  0  0  0  0  0  0  0  0  0  0
    2.1748   -0.9256    1.2418 O   0  0  0  0  0  0  0  0  0  0  0  0
    0.2455   -0.0914    2.0254 N   0  0  0  0  0  0  0  0  0  0  0  0
   -0.7414    0.0211    1.8226 H   0  0  0  0  0  0  0  0  0  0  0  0
    0.6794   -0.1009    3.4167 C   0  0  0  0  0  0  0  0  0  0  0  0
    1.5962    0.4859    3.5362 H   0  0  0  0  0  0  0  0  0  0  0  0
   -0.0934    0.3337    4.0575 H   0  0  0  0  0  0  0  0  0  0  0  0
    0.8715   -1.1264    3.7495 H   0  0  0  0  0  0  0  0  0  0  0  0
  1  2  1  0  0  0  0
  2  3  1  0  0  0  0
  2  4  1  0  0  0  0
  2  5  1  0  0  0  0
  5  6  2  0  0  0  0
  5  7  1  0  0  0  0
  7  8  1  0  0  0  0
  7  9  1  0  0  0  0
  9 10  1  0  0  0  0
  9 11  1  0  0  0  0
  9 24  1  0  0  0  0
 11 12  1  0  0  0  0
 11 13  1  0  0  0  0
 11 17  1  0  0  0  0
 13 14  1  0  0  0  0
 13 15  1  0  0  0  0
 13 16  1  0  0  0  0
 17 18  1  0  0  0  0
 17 19  1  0  0  0  0
 17 20  1  0  0  0  0
 20 21  1  0  0  0  0
 20 22  1  0  0  0  0
 20 23  1  0  0  0  0
 24 25  2  0  0  0  0
 24 26  1  0  0  0  0
 26 27  1  0  0  0  0
 26 28  1  0  0  0  0
 28 29  1  0  0  0  0
 28 30  1  0  0  0  0
 28 31  1  0  0  0  0
M  END
$$$$

  -OEChem-03222214053D

 31 30  0     1  0  0  0  0  0999 V2000
   -2.6000   -4.1785    0.4676 H   0  0  0  0  0  0  0  0  0  0  0  0
   -2.5735   -3.1682    0.0489 C   0  0  0  0  0  0  0  0  0  0  0  0
   -3.2568   -2.5340    0.6186 H   0  0  0  0  0  0  0  0  0  0  0  0
   -2.9057   -3.2111   -0.9911 H   0  0  0  0  0  0  0  0  0  0  0  0
   -1.1644   -2.6103    0.1219 C   0  0  0  0  0  0  0  0  0  0  0  0
   -0.2795   -3.2752    0.6270 O   0  0  0  0  0  0  0  0  0  0  0  0
   -0.9002   -1.3578   -0.3987 N   0  0  0  0  0  0  0  0  0  0  0  0
   -1.6622   -0.9001   -0.8885 H   0  0  0  0  0  0  0  0  0  0  0  0
    0.4361   -0.7272   -0.4545 C   0  0  1  0  0  0  0  0  0  0  0  0
    1.1163   -1.3800   -1.0121 H   0  0  0  0  0  0  0  0  0  0  0  0
    0.2740    0.6228   -1.2253 C   0  0  1  0  0  0  0  0  0  0  0  0
   -0.0586    0.3369   -2.2292 H   0  0  0  0  0  0  0  0  0  0  0  0
   -0.8131    1.5471   -0.6354 C   0  0  0  0  0  0  0  0  0  0  0  0
   -0.5410    1.8811    0.3699 H   0  0  0  0  0  0  0  0  0  0  0  0
   -0.9302    2.4345   -1.2657 H   0  0  0  0  0  0  0  0  0  0  0  0
   -1.7844    1.0482   -0.5860 H   0  0  0  0  0  0  0  0  0  0  0  0
    1.5466    1.4881   -1.4327 C   0  0  0  0  0  0  0  0  0  0  0  0
    1.4069    2.0833   -2.3411 H   0  0  0  0  0  0  0  0  0  0  0  0
    1.6497    2.1899   -0.5979 H   0  0  0  0  0  0  0  0  0  0  0  0
    2.8753    0.7341   -1.5474 C   0  0  0  0  0  0  0  0  0  0  0  0
    2.7772   -0.1223   -2.2211 H   0  0  0  0  0  0  0  0  0  0  0  0
    3.6400    1.4025   -1.9542 H   0  0  0  0  0  0  0  0  0  0  0  0
    3.2318    0.3885   -0.5782 H   0  0  0  0  0  0  0  0  0  0  0  0
    1.0297   -0.5646    0.9726 C   0  0  0  0  0  0  0  0  0  0  0  0
    2.1899   -0.8647    1.2171 O   0  0  0  0  0  0  0  0  0  0  0  0
    0.2447   -0.0815    2.0056 N   0  0  0  0  0  0  0  0  0  0  0  0
   -0.7459    0.0058    1.8090 H   0  0  0  0  0  0  0  0  0  0  0  0
    0.6896   -0.0582    3.3933 C   0  0  0  0  0  0  0  0  0  0  0  0
    1.5904    0.5557    3.4968 H   0  0  0  0  0  0  0  0  0  0  0  0
   -0.0901    0.3640    4.0340 H   0  0  0  0  0  0  0  0  0  0  0  0
    0.9133   -1.0728    3.7399 H   0  0  0  0  0  0  0  0  0  0  0  0
  1  2  1  0  0  0  0
  2  3  1  0  0  0  0
  2  4  1  0  0  0  0
  2  5  1  0  0  0  0
  5  6  2  0  0  0  0
  5  7  1  0  0  0  0
  7  8  1  0  0  0  0
  7  9  1  0  0  0  0
  9 10  1  0  0  0  0
  9 11  1  0  0  0  0
  9 24  1  0  0  0  0
 11 12  1  0  0  0  0
 11 13  1  0  0  0  0
 11 17  1  0  0  0  0
 13 14  1  0  0  0  0
 13 15  1  0  0  0  0
 13 16  1  0  0  0  0
 17 18  1  0  0  0  0
 17 19  1  0  0  0  0
 17 20  1  0  0  0  0
 20 21  1  0  0  0  0
 20 22  1  0  0  0  0
 20 23  1  0  0  0  0
 24 25  2  0  0  0  0
 24 26  1  0  0  0  0
 26 27  1  0  0  0  0
 26 28  1  0  0  0  0
 28 29  1  0  0  0  0
 28 30  1  0  0  0  0
 28 31  1  0  0  0  0
M  END
$$$$

  -OEChem-03222214053D

 31 30  0     1  0  0  0  0  0999 V2000
   -2.5531   -4.2272    0.4177 H   0  0  0  0  0  0  0  0  0  0  0  0
   -2.5522   -3.2108    0.0136 C   0  0  0  0  0  0  0  0  0  0  0  0
   -3.2491   -2.6014    0.5937 H   0  0  0  0  0  0  0  0  0  0  0  0
   -2.8862   -3.2472   -1.0261 H   0  0  0  0  0  0  0  0  0  0  0  0
   -1.1569   -2.6201    0.0920 C   0  0  0  0  0  0  0  0  0  0  0  0
   -0.2575   -3.2638    0.5998 O   0  0  0  0  0  0  0  0  0  0  0  0
   -0.9203   -1.3573   -0.4166 N   0  0  0  0  0  0  0  0  0  0  0  0
   -1.6896   -0.9123   -0.9071 H   0  0  0  0  0  0  0  0  0  0  0  0
    0.4049   -0.7056   -0.4714 C   0  0  1  0  0  0  0  0  0  0  0  0
    1.0839   -1.3526   -1.0372 H   0  0  0  0  0  0  0  0  0  0  0  0
    0.2472    0.6477   -1.2306 C   0  0  1  0  0  0  0  0  0  0  0  0
   -0.0885    0.3891   -2.2407 H   0  0  0  0  0  0  0  0  0  0  0  0
   -0.8191    1.5786   -0.6175 C   0  0  0  0  0  0  0  0  0  0  0  0
   -0.5204    1.9151    0.3794 H   0  0  0  0  0  0  0  0  0  0  0  0
   -0.9481    2.4643   -1.2479 H   0  0  0  0  0  0  0  0  0  0  0  0
   -1.7901    1.0819   -0.5420 H   0  0  0  0  0  0  0  0  0  0  0  0
    1.5461    1.4743   -1.3928 C   0  0  0  0  0  0  0  0  0  0  0  0
    1.3686    2.2691   -2.1245 H   0  0  0  0  0  0  0  0  0  0  0  0
    1.7921    1.9545   -0.4395 H   0  0  0  0  0  0  0  0  0  0  0  0
    2.7701    0.6646   -1.8389 C   0  0  0  0  0  0  0  0  0  0  0  0
    2.5471    0.1193   -2.7610 H   0  0  0  0  0  0  0  0  0  0  0  0
    3.6079    1.3410   -2.0328 H   0  0  0  0  0  0  0  0  0  0  0  0
    3.0909   -0.0513   -1.0814 H   0  0  0  0  0  0  0  0  0  0  0  0
    1.0218   -0.5401    0.9453 C   0  0  0  0  0  0  0  0  0  0  0  0
    2.2162   -0.7189    1.1410 O   0  0  0  0  0  0  0  0  0  0  0  0
    0.2470   -0.0770    1.9949 N   0  0  0  0  0  0  0  0  0  0  0  0
   -0.7538   -0.0539    1.8348 H   0  0  0  0  0  0  0  0  0  0  0  0
    0.7422    0.0201    3.3621 C   0  0  0  0  0  0  0  0  0  0  0  0
    1.6030    0.6954    3.4108 H   0  0  0  0  0  0  0  0  0  0  0  0
   -0.0391    0.4101    4.0212 H   0  0  0  0  0  0  0  0  0  0  0  0
    1.0466   -0.9661    3.7286 H   0  0  0  0  0  0  0  0  0  0  0  0
  1  2  1  0  0  0  0
  2  3  1  0  0  0  0
  2  4  1  0  0  0  0
  2  5  1  0  0  0  0
  5  6  2  0  0  0  0
  5  7  1  0  0  0  0
  7  8  1  0  0  0  0
  7  9  1  0  0  0  0
  9 10  1  0  0  0  0
  9 11  1  0  0  0  0
  9 24  1  0  0  0  0
 11 12  1  0  0  0  0
 11 13  1  0  0  0  0
 11 17  1  0  0  0  0
 13 14  1  0  0  0  0
 13 15  1  0  0  0  0
 13 16  1  0  0  0  0
 17 18  1  0  0  0  0
 17 19  1  0  0  0  0
 17 20  1  0  0  0  0
 20 21  1  0  0  0  0
 20 22  1  0  0  0  0
 20 23  1  0  0  0  0
 24 25  2  0  0  0  0
 24 26  1  0  0  0  0
 26 27  1  0  0  0  0
 26 28  1  0  0  0  0
 28 29  1  0  0  0  0
 28 30  1  0  0  0  0
 28 31  1  0  0  0  0
M  END
$$$$

  -OEChem-03222214053D

 31 30  0     1  0  0  0  0  0999 V2000
   -2.5249   -4.2647    0.3442 H   0  0  0  0  0  0  0  0  0  0  0  0
   -2.5409   -3.2450   -0.0516 C   0  0  0  0  0  0  0  0  0  0  0  0
   -3.2684   -2.6590    0.5151 H   0  0  0  0  0  0  0  0  0  0  0  0
   -2.8470   -3.2813   -1.0999 H   0  0  0  0  0  0  0  0  0  0  0  0
   -1.1642   -2.6185    0.0664 C   0  0  0  0  0  0  0  0  0  0  0  0
   -0.2577   -3.2444    0.5844 O   0  0  0  0  0  0  0  0  0  0  0  0
   -0.9504   -1.3427   -0.4182 N   0  0  0  0  0  0  0  0  0  0  0  0
   -1.7219   -0.9094   -0.9159 H   0  0  0  0  0  0  0  0  0  0  0  0
    0.3656   -0.6733   -0.4640 C   0  0  1  0  0  0  0  0  0  0  0  0
    1.0398   -1.3220   -1.0331 H   0  0  0  0  0  0  0  0  0  0  0  0
    0.2179    0.6686   -1.2414 C   0  0  1  0  0  0  0  0  0  0  0  0
   -0.1157    0.4214   -2.2549 H   0  0  0  0  0  0  0  0  0  0  0  0
   -0.8368    1.6046   -0.6189 C   0  0  0  0  0  0  0  0  0  0  0  0
   -0.5264    1.9367    0.3762 H   0  0  0  0  0  0  0  0  0  0  0  0
   -0.9677    2.4920   -1.2461 H   0  0  0  0  0  0  0  0  0  0  0  0
   -1.8089    1.1115   -0.5348 H   0  0  0  0  0  0  0  0  0  0  0  0
    1.5367    1.4666   -1.3613 C   0  0  0  0  0  0  0  0  0  0  0  0
    1.3437    2.3897   -1.9175 H   0  0  0  0  0  0  0  0  0  0  0  0
    1.8994    1.7556   -0.3692 H   0  0  0  0  0  0  0  0  0  0  0  0
    2.6385    0.6942   -2.0936 C   0  0  0  0  0  0  0  0  0  0  0  0
    2.2845    0.3581   -3.0729 H   0  0  0  0  0  0  0  0  0  0  0  0
    3.5087    1.3406   -2.2425 H   0  0  0  0  0  0  0  0  0  0  0  0
    2.9616   -0.1776   -1.5180 H   0  0  0  0  0  0  0  0  0  0  0  0
    1.0187   -0.5093    0.9328 C   0  0  0  0  0  0  0  0  0  0  0  0
    2.2311   -0.6155    1.0645 O   0  0  0  0  0  0  0  0  0  0  0  0
    0.2693   -0.0672    2.0088 N   0  0  0  0  0  0  0  0  0  0  0  0
   -0.7375   -0.0938    1.8922 H   0  0  0  0  0  0  0  0  0  0  0  0
    0.8178    0.0653    3.3523 C   0  0  0  0  0  0  0  0  0  0  0  0
    1.6546    0.7717    3.3572 H   0  0  0  0  0  0  0  0  0  0  0  0
    0.0511    0.4356    4.0392 H   0  0  0  0  0  0  0  0  0  0  0  0
    1.1728   -0.9044    3.7170 H   0  0  0  0  0  0  0  0  0  0  0  0
  1  2  1  0  0  0  0
  2  3  1  0  0  0  0
  2  4  1  0  0  0  0
  2  5  1  0  0  0  0
  5  6  2  0  0  0  0
  5  7  1  0  0  0  0
  7  8  1  0  0  0  0
  7  9  1  0  0  0  0
  9 10  1  0  0  0  0
  9 11  1  0  0  0  0
  9 24  1  0  0  0  0
 11 12  1  0  0  0  0
 11 13  1  0  0  0  0
 11 17  1  0  0  0  0
 13 14  1  0  0  0  0
 13 15  1  0  0  0  0
 13 16  1  0  0  0  0
 17 18  1  0  0  0  0
 17 19  1  0  0  0  0
 17 20  1  0  0  0  0
 20 21  1  0  0  0  0
 20 22  1  0  0  0  0
 20 23  1  0  0  0  0
 24 25  2  0  0  0  0
 24 26  1  0  0  0  0
 26 27  1  0  0  0  0
 26 28  1  0  0  0  0
 28 29  1  0  0  0  0
 28 30  1  0  0  0  0
 28 31  1  0  0  0  0
M  END
$$$$

  -OEChem-03222214053D

 31 30  0     1  0  0  0  0  0999 V2000
   -2.5042   -4.2624    0.3374 H   0  0  0  0  0  0  0  0  0  0  0  0
   -2.5253   -3.2398   -0.0507 C   0  0  0  0  0  0  0  0  0  0  0  0
   -3.2467   -2.6588    0.5289 H   0  0  0  0  0  0  0  0  0  0  0  0
   -2.8433   -3.2680   -1.0956 H   0  0  0  0  0  0  0  0  0  0  0  0
   -1.1479   -2.6125    0.0558 C   0  0  0  0  0  0  0  0  0  0  0  0
   -0.2357   -3.2389    0.5630 O   0  0  0  0  0  0  0  0  0  0  0  0
   -0.9420   -1.3328   -0.4218 N   0  0  0  0  0  0  0  0  0  0  0  0
   -1.7180   -0.8986   -0.9116 H   0  0  0  0  0  0  0  0  0  0  0  0
    0.3693   -0.6541   -0.4625 C   0  0  1  0  0  0  0  0  0  0  0  0
    1.0527   -1.2967   -1.0277 H   0  0  0  0  0  0  0  0  0  0  0  0
    0.2150    0.6797   -1.2542 C   0  0  1  0  0  0  0  0  0  0  0  0
   -0.1267    0.4334   -2.2652 H   0  0  0  0  0  0  0  0  0  0  0  0
   -0.8394    1.6110   -0.6220 C   0  0  0  0  0  0  0  0  0  0  0  0
   -0.5167    1.9509    0.3665 H   0  0  0  0  0  0  0  0  0  0  0  0
   -0.9877    2.4935   -1.2523 H   0  0  0  0  0  0  0  0  0  0  0  0
   -1.8065    1.1116   -0.5208 H   0  0  0  0  0  0  0  0  0  0  0  0
    1.5357    1.4781   -1.3636 C   0  0  0  0  0  0  0  0  0  0  0  0
    1.3159    2.4937   -1.7086 H   0  0  0  0  0  0  0  0  0  0  0  0
    2.0275    1.5740   -0.3913 H   0  0  0  0  0  0  0  0  0  0  0  0
    2.4947    0.8484   -2.3761 C   0  0  0  0  0  0  0  0  0  0  0  0
    2.0192    0.7632   -3.3581 H   0  0  0  0  0  0  0  0  0  0  0  0
    3.3903    1.4688   -2.4774 H   0  0  0  0  0  0  0  0  0  0  0  0
    2.8051   -0.1478   -2.0467 H   0  0  0  0  0  0  0  0  0  0  0  0
    1.0184   -0.4936    0.9358 C   0  0  0  0  0  0  0  0  0  0  0  0
    2.2301   -0.6097    1.0684 O   0  0  0  0  0  0  0  0  0  0  0  0
    0.2664   -0.0627    2.0144 N   0  0  0  0  0  0  0  0  0  0  0  0
   -0.7402   -0.0875    1.8946 H   0  0  0  0  0  0  0  0  0  0  0  0
    0.8112    0.0509    3.3613 C   0  0  0  0  0  0  0  0  0  0  0  0
    1.6530    0.7513    3.3775 H   0  0  0  0  0  0  0  0  0  0  0  0
    0.0446    0.4189    4.0497 H   0  0  0  0  0  0  0  0  0  0  0  0
    1.1585   -0.9254    3.7159 H   0  0  0  0  0  0  0  0  0  0  0  0
  1  2  1  0  0  0  0
  2  3  1  0  0  0  0
  2  4  1  0  0  0  0
  2  5  1  0  0  0  0
  5  6  2  0  0  0  0
  5  7  1  0  0  0  0
  7  8  1  0  0  0  0
  7  9  1  0  0  0  0
  9 10  1  0  0  0  0
  9 11  1  0  0  0  0
  9 24  1  0  0  0  0
 11 12  1  0  0  0  0
 11 13  1  0  0  0  0
 11 17  1  0  0  0  0
 13 14  1  0  0  0  0
 13 15  1  0  0  0  0
 13 16  1  0  0  0  0
 17 18  1  0  0  0  0
 17 19  1  0  0  0  0
 17 20  1  0  0  0  0
 20 21  1  0  0  0  0
 20 22  1  0  0  0  0
 20 23  1  0  0  0  0
 24 25  2  0  0  0  0
 24 26  1  0  0  0  0
 26 27  1  0  0  0  0
 26 28  1  0  0  0  0
 28 29  1  0  0  0  0
 28 30  1  0  0  0  0
 28 31  1  0  0  0  0
M  END
$$$$

  -OEChem-03222214053D

 31 30  0     1  0  0  0  0  0999 V2000
   -2.4938   -4.2527    0.3453 H   0  0  0  0  0  0  0  0  0  0  0  0
   -2.5133   -3.2321   -0.0481 C   0  0  0  0  0  0  0  0  0  0  0  0
   -3.2377   -2.6482    0.5248 H   0  0  0  0  0  0  0  0  0  0  0  0
   -2.8267   -3.2661   -1.0942 H   0  0  0  0  0  0  0  0  0  0  0  0
   -1.1362   -2.6047    0.0620 C   0  0  0  0  0  0  0  0  0  0  0  0
   -0.2259   -3.2330    0.5699 O   0  0  0  0  0  0  0  0  0  0  0  0
   -0.9274   -1.3267   -0.4193 N   0  0  0  0  0  0  0  0  0  0  0  0
   -1.7035   -0.8920   -0.9083 H   0  0  0  0  0  0  0  0  0  0  0  0
    0.3848   -0.6485   -0.4613 C   0  0  1  0  0  0  0  0  0  0  0  0
    1.0752   -1.2844   -1.0266 H   0  0  0  0  0  0  0  0  0  0  0  0
    0.2227    0.6847   -1.2543 C   0  0  1  0  0  0  0  0  0  0  0  0
   -0.1324    0.4381   -2.2608 H   0  0  0  0  0  0  0  0  0  0  0  0
   -0.8319    1.6099   -0.6118 C   0  0  0  0  0  0  0  0  0  0  0  0
   -0.4979    1.9586    0.3700 H   0  0  0  0  0  0  0  0  0  0  0  0
   -0.9974    2.4871   -1.2455 H   0  0  0  0  0  0  0  0  0  0  0  0
   -1.7934    1.1033   -0.4937 H   0  0  0  0  0  0  0  0  0  0  0  0
    1.5434    1.4886   -1.3705 C   0  0  0  0  0  0  0  0  0  0  0  0
    1.3225    2.5575   -1.4566 H   0  0  0  0  0  0  0  0  0  0  0  0
    2.1754    1.3720   -0.4873 H   0  0  0  0  0  0  0  0  0  0  0  0
    2.3213    1.0841   -2.6233 C   0  0  0  0  0  0  0  0  0  0  0  0
    1.7281    1.2705   -3.5239 H   0  0  0  0  0  0  0  0  0  0  0  0
    3.2467    1.6641   -2.6923 H   0  0  0  0  0  0  0  0  0  0  0  0
    2.5814    0.0217   -2.5855 H   0  0  0  0  0  0  0  0  0  0  0  0
    1.0208   -0.4907    0.9449 C   0  0  0  0  0  0  0  0  0  0  0  0
    2.2276   -0.6321    1.0960 O   0  0  0  0  0  0  0  0  0  0  0  0
    0.2592   -0.0596    2.0169 N   0  0  0  0  0  0  0  0  0  0  0  0
   -0.7458   -0.0673    1.8824 H   0  0  0  0  0  0  0  0  0  0  0  0
    0.7861    0.0374    3.3721 C   0  0  0  0  0  0  0  0  0  0  0  0
    1.6342    0.7294    3.4057 H   0  0  0  0  0  0  0  0  0  0  0  0
    0.0137    0.4072    4.0528 H   0  0  0  0  0  0  0  0  0  0  0  0
    1.1184   -0.9451    3.7236 H   0  0  0  0  0  0  0  0  0  0  0  0
  1  2  1  0  0  0  0
  2  3  1  0  0  0  0
  2  4  1  0  0  0  0
  2  5  1  0  0  0  0
  5  6  2  0  0  0  0
  5  7  1  0  0  0  0
  7  8  1  0  0  0  0
  7  9  1  0  0  0  0
  9 10  1  0  0  0  0
  9 11  1  0  0  0  0
  9 24  1  0  0  0  0
 11 12  1  0  0  0  0
 11 13  1  0  0  0  0
 11 17  1  0  0  0  0
 13 14  1  0  0  0  0
 13 15  1  0  0  0  0
 13 16  1  0  0  0  0
 17 18  1  0  0  0  0
 17 19  1  0  0  0  0
 17 20  1  0  0  0  0
 20 21  1  0  0  0  0
 20 22  1  0  0  0  0
 20 23  1  0  0  0  0
 24 25  2  0  0  0  0
 24 26  1  0  0  0  0
 26 27  1  0  0  0  0
 26 28  1  0  0  0  0
 28 29  1  0  0  0  0
 28 30  1  0  0  0  0
 28 31  1  0  0  0  0
M  END
$$$$

  -OEChem-03222214053D

 31 30  0     1  0  0  0  0  0999 V2000
   -2.4940   -4.2405    0.3631 H   0  0  0  0  0  0  0  0  0  0  0  0
   -2.5112   -3.2187   -0.0270 C   0  0  0  0  0  0  0  0  0  0  0  0
   -3.2219   -2.6306    0.5586 H   0  0  0  0  0  0  0  0  0  0  0  0
   -2.8410   -3.2467   -1.0682 H   0  0  0  0  0  0  0  0  0  0  0  0
   -1.1272   -2.6032    0.0639 C   0  0  0  0  0  0  0  0  0  0  0  0
   -0.2166   -3.2367    0.5647 O   0  0  0  0  0  0  0  0  0  0  0  0
   -0.9141   -1.3273   -0.4211 N   0  0  0  0  0  0  0  0  0  0  0  0
   -1.6923   -0.8863   -0.9010 H   0  0  0  0  0  0  0  0  0  0  0  0
    0.3988   -0.6507   -0.4639 C   0  0  1  0  0  0  0  0  0  0  0  0
    1.0924   -1.2824   -1.0302 H   0  0  0  0  0  0  0  0  0  0  0  0
    0.2324    0.6864   -1.2491 C   0  0  1  0  0  0  0  0  0  0  0  0
   -0.1195    0.4315   -2.2548 H   0  0  0  0  0  0  0  0  0  0  0  0
   -0.8345    1.6066   -0.6195 C   0  0  0  0  0  0  0  0  0  0  0  0
   -0.5210    1.9469    0.3719 H   0  0  0  0  0  0  0  0  0  0  0  0
   -0.9850    2.4890   -1.2499 H   0  0  0  0  0  0  0  0  0  0  0  0
   -1.7986    1.0997   -0.5260 H   0  0  0  0  0  0  0  0  0  0  0  0
    1.5540    1.4939   -1.3687 C   0  0  0  0  0  0  0  0  0  0  0  0
    1.3775    2.5539   -1.1576 H   0  0  0  0  0  0  0  0  0  0  0  0
    2.3054    1.1531   -0.6536 H   0  0  0  0  0  0  0  0  0  0  0  0
    2.1366    1.3840   -2.7783 C   0  0  0  0  0  0  0  0  0  0  0  0
    1.4383    1.7902   -3.5167 H   0  0  0  0  0  0  0  0  0  0  0  0
    3.0729    1.9470   -2.8413 H   0  0  0  0  0  0  0  0  0  0  0  0
    2.3442    0.3382   -3.0262 H   0  0  0  0  0  0  0  0  0  0  0  0
    1.0249   -0.4935    0.9474 C   0  0  0  0  0  0  0  0  0  0  0  0
    2.2281   -0.6475    1.1135 O   0  0  0  0  0  0  0  0  0  0  0  0
    0.2545   -0.0606    2.0124 N   0  0  0  0  0  0  0  0  0  0  0  0
   -0.7489   -0.0671    1.8677 H   0  0  0  0  0  0  0  0  0  0  0  0
    0.7669    0.0241    3.3739 C   0  0  0  0  0  0  0  0  0  0  0  0
    1.6213    0.7075    3.4202 H   0  0  0  0  0  0  0  0  0  0  0  0
   -0.0097    0.3977    4.0479 H   0  0  0  0  0  0  0  0  0  0  0  0
    1.0859   -0.9636    3.7233 H   0  0  0  0  0  0  0  0  0  0  0  0
  1  2  1  0  0  0  0
  2  3  1  0  0  0  0
  2  4  1  0  0  0  0
  2  5  1  0  0  0  0
  5  6  2  0  0  0  0
  5  7  1  0  0  0  0
  7  8  1  0  0  0  0
  7  9  1  0  0  0  0
  9 10  1  0  0  0  0
  9 11  1  0  0  0  0
  9 24  1  0  0  0  0
 11 12  1  0  0  0  0
 11 13  1  0  0  0  0
 11 17  1  0  0  0  0
 13 14  1  0  0  0  0
 13 15  1  0  0  0  0
 13 16  1  0  0  0  0
 17 18  1  0  0  0  0
 17 19  1  0  0  0  0
 17 20  1  0  0  0  0
 20 21  1  0  0  0  0
 20 22  1  0  0  0  0
 20 23  1  0  0  0  0
 24 25  2  0  0  0  0
 24 26  1  0  0  0  0
 26 27  1  0  0  0  0
 26 28  1  0  0  0  0
 28 29  1  0  0  0  0
 28 30  1  0  0  0  0
 28 31  1  0  0  0  0
M  END
$$$$

  -OEChem-03222214053D

 31 30  0     1  0  0  0  0  0999 V2000
   -2.5022   -4.2427    0.3623 H   0  0  0  0  0  0  0  0  0  0  0  0
   -2.5172   -3.2221   -0.0312 C   0  0  0  0  0  0  0  0  0  0  0  0
   -3.2321   -2.6330    0.5480 H   0  0  0  0  0  0  0  0  0  0  0  0
   -2.8396   -3.2535   -1.0747 H   0  0  0  0  0  0  0  0  0  0  0  0
   -1.1346   -2.6046    0.0668 C   0  0  0  0  0  0  0  0  0  0  0  0
   -0.2255   -3.2369    0.5718 O   0  0  0  0  0  0  0  0  0  0  0  0
   -0.9200   -1.3295   -0.4199 N   0  0  0  0  0  0  0  0  0  0  0  0
   -1.6965   -0.8904   -0.9044 H   0  0  0  0  0  0  0  0  0  0  0  0
    0.3944   -0.6558   -0.4652 C   0  0  1  0  0  0  0  0  0  0  0  0
    1.0848   -1.2873   -1.0358 H   0  0  0  0  0  0  0  0  0  0  0  0
    0.2309    0.6871   -1.2369 C   0  0  1  0  0  0  0  0  0  0  0  0
   -0.1078    0.4254   -2.2454 H   0  0  0  0  0  0  0  0  0  0  0  0
   -0.8431    1.6099   -0.6263 C   0  0  0  0  0  0  0  0  0  0  0  0
   -0.5597    1.9288    0.3810 H   0  0  0  0  0  0  0  0  0  0  0  0
   -0.9608    2.5049   -1.2457 H   0  0  0  0  0  0  0  0  0  0  0  0
   -1.8148    1.1117   -0.5738 H   0  0  0  0  0  0  0  0  0  0  0  0
    1.5589    1.4831   -1.3515 C   0  0  0  0  0  0  0  0  0  0  0  0
    1.4791    2.4525   -0.8480 H   0  0  0  0  0  0  0  0  0  0  0  0
    2.3817    0.9440   -0.8755 H   0  0  0  0  0  0  0  0  0  0  0  0
    1.9477    1.7035   -2.8146 C   0  0  0  0  0  0  0  0  0  0  0  0
    1.1728    2.2746   -3.3354 H   0  0  0  0  0  0  0  0  0  0  0  0
    2.8876    2.2609   -2.8730 H   0  0  0  0  0  0  0  0  0  0  0  0
    2.0825    0.7444   -3.3246 H   0  0  0  0  0  0  0  0  0  0  0  0
    1.0271   -0.4961    0.9431 C   0  0  0  0  0  0  0  0  0  0  0  0
    2.2323   -0.6406    1.1026 O   0  0  0  0  0  0  0  0  0  0  0  0
    0.2621   -0.0590    2.0103 N   0  0  0  0  0  0  0  0  0  0  0  0
   -0.7422   -0.0643    1.8708 H   0  0  0  0  0  0  0  0  0  0  0  0
    0.7819    0.0386    3.3684 C   0  0  0  0  0  0  0  0  0  0  0  0
    1.6324    0.7275    3.4057 H   0  0  0  0  0  0  0  0  0  0  0  0
    0.0069    0.4125    4.0441 H   0  0  0  0  0  0  0  0  0  0  0  0
    1.1093   -0.9443    3.7234 H   0  0  0  0  0  0  0  0  0  0  0  0
  1  2  1  0  0  0  0
  2  3  1  0  0  0  0
  2  4  1  0  0  0  0
  2  5  1  0  0  0  0
  5  6  2  0  0  0  0
  5  7  1  0  0  0  0
  7  8  1  0  0  0  0
  7  9  1  0  0  0  0
  9 10  1  0  0  0  0
  9 11  1  0  0  0  0
  9 24  1  0  0  0  0
 11 12  1  0  0  0  0
 11 13  1  0  0  0  0
 11 17  1  0  0  0  0
 13 14  1  0  0  0  0
 13 15  1  0  0  0  0
 13 16  1  0  0  0  0
 17 18  1  0  0  0  0
 17 19  1  0  0  0  0
 17 20  1  0  0  0  0
 20 21  1  0  0  0  0
 20 22  1  0  0  0  0
 20 23  1  0  0  0  0
 24 25  2  0  0  0  0
 24 26  1  0  0  0  0
 26 27  1  0  0  0  0
 26 28  1  0  0  0  0
 28 29  1  0  0  0  0
 28 30  1  0  0  0  0
 28 31  1  0  0  0  0
M  END
$$$$

  -OEChem-03222214053D

 31 30  0     1  0  0  0  0  0999 V2000
   -2.5061   -4.2525    0.3507 H   0  0  0  0  0  0  0  0  0  0  0  0
   -2.5242   -3.2312   -0.0406 C   0  0  0  0  0  0  0  0  0  0  0  0
   -3.2434   -2.6461    0.5373 H   0  0  0  0  0  0  0  0  0  0  0  0
   -2.8425   -3.2617   -1.0854 H   0  0  0  0  0  0  0  0  0  0  0  0
   -1.1448   -2.6082    0.0639 C   0  0  0  0  0  0  0  0  0  0  0  0
   -0.2350   -3.2353    0.5744 O   0  0  0  0  0  0  0  0  0  0  0  0
   -0.9343   -1.3317   -0.4202 N   0  0  0  0  0  0  0  0  0  0  0  0
   -1.7101   -0.8961   -0.9090 H   0  0  0  0  0  0  0  0  0  0  0  0
    0.3790   -0.6574   -0.4660 C   0  0  1  0  0  0  0  0  0  0  0  0
    1.0649   -1.2896   -1.0411 H   0  0  0  0  0  0  0  0  0  0  0  0
    0.2207    0.6880   -1.2295 C   0  0  1  0  0  0  0  0  0  0  0  0
   -0.1023    0.4245   -2.2426 H   0  0  0  0  0  0  0  0  0  0  0  0
   -0.8549    1.6163   -0.6324 C   0  0  0  0  0  0  0  0  0  0  0  0
   -0.5904    1.9214    0.3842 H   0  0  0  0  0  0  0  0  0  0  0  0
   -0.9502    2.5191   -1.2440 H   0  0  0  0  0  0  0  0  0  0  0  0
   -1.8318    1.1259   -0.6061 H   0  0  0  0  0  0  0  0  0  0  0  0
    1.5567    1.4649   -1.3298 C   0  0  0  0  0  0  0  0  0  0  0  0
    1.5897    2.2789   -0.5980 H   0  0  0  0  0  0  0  0  0  0  0  0
    2.3983    0.8003   -1.1119 H   0  0  0  0  0  0  0  0  0  0  0  0
    1.7781    2.0161   -2.7398 C   0  0  0  0  0  0  0  0  0  0  0  0
    0.9700    2.7006   -3.0156 H   0  0  0  0  0  0  0  0  0  0  0  0
    2.7254    2.5623   -2.7840 H   0  0  0  0  0  0  0  0  0  0  0  0
    1.8149    1.2016   -3.4700 H   0  0  0  0  0  0  0  0  0  0  0  0
    1.0251   -0.4949    0.9346 C   0  0  0  0  0  0  0  0  0  0  0  0
    2.2357   -0.6127    1.0741 O   0  0  0  0  0  0  0  0  0  0  0  0
    0.2703   -0.0579    2.0088 N   0  0  0  0  0  0  0  0  0  0  0  0
   -0.7359   -0.0789    1.8850 H   0  0  0  0  0  0  0  0  0  0  0  0
    0.8098    0.0618    3.3572 C   0  0  0  0  0  0  0  0  0  0  0  0
    1.6501    0.7637    3.3733 H   0  0  0  0  0  0  0  0  0  0  0  0
    0.0402    0.4309    4.0415 H   0  0  0  0  0  0  0  0  0  0  0  0
    1.1576   -0.9123    3.7171 H   0  0  0  0  0  0  0  0  0  0  0  0
  1  2  1  0  0  0  0
  2  3  1  0  0  0  0
  2  4  1  0  0  0  0
  2  5  1  0  0  0  0
  5  6  2  0  0  0  0
  5  7  1  0  0  0  0
  7  8  1  0  0  0  0
  7  9  1  0  0  0  0
  9 10  1  0  0  0  0
  9 11  1  0  0  0  0
  9 24  1  0  0  0  0
 11 12  1  0  0  0  0
 11 13  1  0  0  0  0
 11 17  1  0  0  0  0
 13 14  1  0  0  0  0
 13 15  1  0  0  0  0
 13 16  1  0  0  0  0
 17 18  1  0  0  0  0
 17 19  1  0  0  0  0
 17 20  1  0  0  0  0
 20 21  1  0  0  0  0
 20 22  1  0  0  0  0
 20 23  1  0  0  0  0
 24 25  2  0  0  0  0
 24 26  1  0  0  0  0
 26 27  1  0  0  0  0
 26 28  1  0  0  0  0
 28 29  1  0  0  0  0
 28 30  1  0  0  0  0
 28 31  1  0  0  0  0
M  END
$$$$

  -OEChem-03222214053D

 31 30  0     1  0  0  0  0  0999 V2000
   -2.5030   -4.2678    0.3330 H   0  0  0  0  0  0  0  0  0  0  0  0
   -2.5271   -3.2449   -0.0539 C   0  0  0  0  0  0  0  0  0  0  0  0
   -3.2555   -2.6682    0.5211 H   0  0  0  0  0  0  0  0  0  0  0  0
   -2.8376   -3.2738   -1.1011 H   0  0  0  0  0  0  0  0  0  0  0  0
   -1.1541   -2.6100    0.0631 C   0  0  0  0  0  0  0  0  0  0  0  0
   -0.2429   -3.2296    0.5805 O   0  0  0  0  0  0  0  0  0  0  0  0
   -0.9507   -1.3312   -0.4175 N   0  0  0  0  0  0  0  0  0  0  0  0
   -1.7260   -0.9030   -0.9140 H   0  0  0  0  0  0  0  0  0  0  0  0
    0.3600   -0.6523   -0.4650 C   0  0  1  0  0  0  0  0  0  0  0  0
    1.0430   -1.2867   -1.0414 H   0  0  0  0  0  0  0  0  0  0  0  0
    0.2047    0.6909   -1.2317 C   0  0  1  0  0  0  0  0  0  0  0  0
   -0.1096    0.4325   -2.2487 H   0  0  0  0  0  0  0  0  0  0  0  0
   -0.8698    1.6181   -0.6283 C   0  0  0  0  0  0  0  0  0  0  0  0
   -0.5948    1.9303    0.3833 H   0  0  0  0  0  0  0  0  0  0  0  0
   -0.9826    2.5171   -1.2410 H   0  0  0  0  0  0  0  0  0  0  0  0
   -1.8430    1.1215   -0.5866 H   0  0  0  0  0  0  0  0  0  0  0  0
    1.5494    1.4490   -1.3175 C   0  0  0  0  0  0  0  0  0  0  0  0
    1.6950    2.0740   -0.4298 H   0  0  0  0  0  0  0  0  0  0  0  0
    2.3747    0.7297   -1.3486 H   0  0  0  0  0  0  0  0  0  0  0  0
    1.6433    2.3058   -2.5825 C   0  0  0  0  0  0  0  0  0  0  0  0
    0.8604    3.0694   -2.5951 H   0  0  0  0  0  0  0  0  0  0  0  0
    2.6144    2.8084   -2.6211 H   0  0  0  0  0  0  0  0  0  0  0  0
    1.5419    1.6833   -3.4769 H   0  0  0  0  0  0  0  0  0  0  0  0
    1.0197   -0.4868    0.9282 C   0  0  0  0  0  0  0  0  0  0  0  0
    2.2350   -0.5766    1.0467 O   0  0  0  0  0  0  0  0  0  0  0  0
    0.2751   -0.0533    2.0107 N   0  0  0  0  0  0  0  0  0  0  0  0
   -0.7324   -0.0944    1.9039 H   0  0  0  0  0  0  0  0  0  0  0  0
    0.8346    0.0823    3.3495 C   0  0  0  0  0  0  0  0  0  0  0  0
    1.6639    0.7975    3.3480 H   0  0  0  0  0  0  0  0  0  0  0  0
    0.0704    0.4431    4.0442 H   0  0  0  0  0  0  0  0  0  0  0  0
    1.2032   -0.8844    3.7088 H   0  0  0  0  0  0  0  0  0  0  0  0
  1  2  1  0  0  0  0
  2  3  1  0  0  0  0
  2  4  1  0  0  0  0
  2  5  1  0  0  0  0
  5  6  2  0  0  0  0
  5  7  1  0  0  0  0
  7  8  1  0  0  0  0
  7  9  1  0  0  0  0
  9 10  1  0  0  0  0
  9 11  1  0  0  0  0
  9 24  1  0  0  0  0
 11 12  1  0  0  0  0
 11 13  1  0  0  0  0
 11 17  1  0  0  0  0
 13 14  1  0  0  0  0
 13 15  1  0  0  0  0
 13 16  1  0  0  0  0
 17 18  1  0  0  0  0
 17 19  1  0  0  0  0
 17 20  1  0  0  0  0
 20 21  1  0  0  0  0
 20 22  1  0  0  0  0
 20 23  1  0  0  0  0
 24 25  2  0  0  0  0
 24 26  1  0  0  0  0
 26 27  1  0  0  0  0
 26 28  1  0  0  0  0
 28 29  1  0  0  0  0
 28 30  1  0  0  0  0
 28 31  1  0  0  0  0
M  END
$$$$

  -OEChem-03222214053D

 31 30  0     1  0  0  0  0  0999 V2000
   -2.4912   -4.2762    0.3383 H   0  0  0  0  0  0  0  0  0  0  0  0
   -2.5209   -3.2538   -0.0496 C   0  0  0  0  0  0  0  0  0  0  0  0
   -3.2492   -2.6798    0.5280 H   0  0  0  0  0  0  0  0  0  0  0  0
   -2.8362   -3.2848   -1.0952 H   0  0  0  0  0  0  0  0  0  0  0  0
   -1.1500   -2.6133    0.0604 C   0  0  0  0  0  0  0  0  0  0  0  0
   -0.2331   -3.2307    0.5700 O   0  0  0  0  0  0  0  0  0  0  0  0
   -0.9543   -1.3326   -0.4190 N   0  0  0  0  0  0  0  0  0  0  0  0
   -1.7352   -0.9045   -0.9066 H   0  0  0  0  0  0  0  0  0  0  0  0
    0.3530   -0.6467   -0.4690 C   0  0  1  0  0  0  0  0  0  0  0  0
    1.0383   -1.2789   -1.0450 H   0  0  0  0  0  0  0  0  0  0  0  0
    0.1952    0.6953   -1.2401 C   0  0  1  0  0  0  0  0  0  0  0  0
   -0.1189    0.4459   -2.2593 H   0  0  0  0  0  0  0  0  0  0  0  0
   -0.8809    1.6136   -0.6209 C   0  0  0  0  0  0  0  0  0  0  0  0
   -0.5640    1.9771    0.3611 H   0  0  0  0  0  0  0  0  0  0  0  0
   -1.0617    2.4798   -1.2633 H   0  0  0  0  0  0  0  0  0  0  0  0
   -1.8339    1.0906   -0.5059 H   0  0  0  0  0  0  0  0  0  0  0  0
    1.5459    1.4446   -1.3181 C   0  0  0  0  0  0  0  0  0  0  0  0
    1.8062    1.8640   -0.3403 H   0  0  0  0  0  0  0  0  0  0  0  0
    2.3330    0.7331   -1.5902 H   0  0  0  0  0  0  0  0  0  0  0  0
    1.5436    2.5690   -2.3581 C   0  0  0  0  0  0  0  0  0  0  0  0
    0.8589    3.3713   -2.0698 H   0  0  0  0  0  0  0  0  0  0  0  0
    2.5478    2.9951   -2.4448 H   0  0  0  0  0  0  0  0  0  0  0  0
    1.2456    2.1851   -3.3386 H   0  0  0  0  0  0  0  0  0  0  0  0
    1.0136   -0.4807    0.9233 C   0  0  0  0  0  0  0  0  0  0  0  0
    2.2295   -0.5661    1.0394 O   0  0  0  0  0  0  0  0  0  0  0  0
    0.2677   -0.0528    2.0072 N   0  0  0  0  0  0  0  0  0  0  0  0
   -0.7398   -0.0941    1.9000 H   0  0  0  0  0  0  0  0  0  0  0  0
    0.8276    0.0828    3.3457 C   0  0  0  0  0  0  0  0  0  0  0  0
    1.6562    0.7987    3.3443 H   0  0  0  0  0  0  0  0  0  0  0  0
    0.0637    0.4428    4.0412 H   0  0  0  0  0  0  0  0  0  0  0  0
    1.1980   -0.8834    3.7042 H   0  0  0  0  0  0  0  0  0  0  0  0
  1  2  1  0  0  0  0
  2  3  1  0  0  0  0
  2  4  1  0  0  0  0
  2  5  1  0  0  0  0
  5  6  2  0  0  0  0
  5  7  1  0  0  0  0
  7  8  1  0  0  0  0
  7  9  1  0  0  0  0
  9 10  1  0  0  0  0
  9 11  1  0  0  0  0
  9 24  1  0  0  0  0
 11 12  1  0  0  0  0
 11 13  1  0  0  0  0
 11 17  1  0  0  0  0
 13 14  1  0  0  0  0
 13 15  1  0  0  0  0
 13 16  1  0  0  0  0
 17 18  1  0  0  0  0
 17 19  1  0  0  0  0
 17 20  1  0  0  0  0
 20 21  1  0  0  0  0
 20 22  1  0  0  0  0
 20 23  1  0  0  0  0
 24 25  2  0  0  0  0
 24 26  1  0  0  0  0
 26 27  1  0  0  0  0
 26 28  1  0  0  0  0
 28 29  1  0  0  0  0
 28 30  1  0  0  0  0
 28 31  1  0  0  0  0
M  END
$$$$

  -OEChem-03222214053D

 31 30  0     1  0  0  0  0  0999 V2000
   -2.5049   -4.2579    0.3144 H   0  0  0  0  0  0  0  0  0  0  0  0
   -2.5316   -3.2317   -0.0632 C   0  0  0  0  0  0  0  0  0  0  0  0
   -3.2519   -2.6588    0.5258 H   0  0  0  0  0  0  0  0  0  0  0  0
   -2.8544   -3.2508   -1.1069 H   0  0  0  0  0  0  0  0  0  0  0  0
   -1.1557   -2.6014    0.0431 C   0  0  0  0  0  0  0  0  0  0  0  0
   -0.2389   -3.2286    0.5410 O   0  0  0  0  0  0  0  0  0  0  0  0
   -0.9555   -1.3164   -0.4215 N   0  0  0  0  0  0  0  0  0  0  0  0
   -1.7378   -0.8731   -0.8931 H   0  0  0  0  0  0  0  0  0  0  0  0
    0.3535   -0.6347   -0.4579 C   0  0  1  0  0  0  0  0  0  0  0  0
    1.0317   -1.2736   -1.0351 H   0  0  0  0  0  0  0  0  0  0  0  0
    0.1911    0.6974   -1.2398 C   0  0  1  0  0  0  0  0  0  0  0  0
   -0.3454    0.4727   -2.1680 H   0  0  0  0  0  0  0  0  0  0  0  0
   -0.6455    1.7287   -0.4565 C   0  0  0  0  0  0  0  0  0  0  0  0
   -0.0672    2.1480    0.3728 H   0  0  0  0  0  0  0  0  0  0  0  0
   -0.9525    2.5495   -1.1113 H   0  0  0  0  0  0  0  0  0  0  0  0
   -1.5530    1.2720   -0.0519 H   0  0  0  0  0  0  0  0  0  0  0  0
    1.5754    1.2638   -1.6325 C   0  0  0  0  0  0  0  0  0  0  0  0
    2.1810    1.4336   -0.7363 H   0  0  0  0  0  0  0  0  0  0  0  0
    2.0982    0.5245   -2.2481 H   0  0  0  0  0  0  0  0  0  0  0  0
    1.4971    2.5807   -2.4112 C   0  0  0  0  0  0  0  0  0  0  0  0
    1.1236    3.3905   -1.7778 H   0  0  0  0  0  0  0  0  0  0  0  0
    2.4935    2.8613   -2.7658 H   0  0  0  0  0  0  0  0  0  0  0  0
    0.8381    2.4755   -3.2786 H   0  0  0  0  0  0  0  0  0  0  0  0
    1.0233   -0.4773    0.9307 C   0  0  0  0  0  0  0  0  0  0  0  0
    2.2399   -0.5631    1.0370 O   0  0  0  0  0  0  0  0  0  0  0  0
    0.2862   -0.0543    2.0229 N   0  0  0  0  0  0  0  0  0  0  0  0
   -0.7222   -0.0930    1.9232 H   0  0  0  0  0  0  0  0  0  0  0  0
    0.8555    0.0744    3.3580 C   0  0  0  0  0  0  0  0  0  0  0  0
    1.6860    0.7883    3.3543 H   0  0  0  0  0  0  0  0  0  0  0  0
    0.0969    0.4329    4.0601 H   0  0  0  0  0  0  0  0  0  0  0  0
    1.2247   -0.8948    3.7098 H   0  0  0  0  0  0  0  0  0  0  0  0
  1  2  1  0  0  0  0
  2  3  1  0  0  0  0
  2  4  1  0  0  0  0
  2  5  1  0  0  0  0
  5  6  2  0  0  0  0
  5  7  1  0  0  0  0
  7  8  1  0  0  0  0
  7  9  1  0  0  0  0
  9 10  1  0  0  0  0
  9 11  1  0  0  0  0
  9 24  1  0  0  0  0
 11 12  1  0  0  0  0
 11 13  1  0  0  0  0
 11 17  1  0  0  0  0
 13 14  1  0  0  0  0
 13 15  1  0  0  0  0
 13 16  1  0  0  0  0
 17 18  1  0  0  0  0
 17 19  1  0  0  0  0
 17 20  1  0  0  0  0
 20 21  1  0  0  0  0
 20 22  1  0  0  0  0
 20 23  1  0  0  0  0
 24 25  2  0  0  0  0
 24 26  1  0  0  0  0
 26 27  1  0  0  0  0
 26 28  1  0  0  0  0
 28 29  1  0  0  0  0
 28 30  1  0  0  0  0
 28 31  1  0  0  0  0
M  END
$$$$

  -OEChem-03222214053D

 31 30  0     1  0  0  0  0  0999 V2000
   -2.5038   -4.2498    0.3176 H   0  0  0  0  0  0  0  0  0  0  0  0
   -2.5287   -3.2221   -0.0564 C   0  0  0  0  0  0  0  0  0  0  0  0
   -3.2491   -2.6505    0.5336 H   0  0  0  0  0  0  0  0  0  0  0  0
   -2.8504   -3.2368   -1.1005 H   0  0  0  0  0  0  0  0  0  0  0  0
   -1.1521   -2.5938    0.0536 C   0  0  0  0  0  0  0  0  0  0  0  0
   -0.2387   -3.2221    0.5559 O   0  0  0  0  0  0  0  0  0  0  0  0
   -0.9474   -1.3106   -0.4145 N   0  0  0  0  0  0  0  0  0  0  0  0
   -1.7269   -0.8692   -0.8922 H   0  0  0  0  0  0  0  0  0  0  0  0
    0.3634   -0.6317   -0.4538 C   0  0  1  0  0  0  0  0  0  0  0  0
    1.0432   -1.2698   -1.0300 H   0  0  0  0  0  0  0  0  0  0  0  0
    0.1950    0.6978   -1.2427 C   0  0  1  0  0  0  0  0  0  0  0  0
   -0.3442    0.4741   -2.1695 H   0  0  0  0  0  0  0  0  0  0  0  0
   -0.6565    1.7144   -0.4528 C   0  0  0  0  0  0  0  0  0  0  0  0
   -0.0883    2.1285    0.3861 H   0  0  0  0  0  0  0  0  0  0  0  0
   -0.9661    2.5401   -1.1004 H   0  0  0  0  0  0  0  0  0  0  0  0
   -1.5643    1.2477   -0.0603 H   0  0  0  0  0  0  0  0  0  0  0  0
    1.5769    1.2731   -1.6477 C   0  0  0  0  0  0  0  0  0  0  0  0
    2.2712    1.2152   -0.8047 H   0  0  0  0  0  0  0  0  0  0  0  0
    1.9898    0.6553   -2.4518 H   0  0  0  0  0  0  0  0  0  0  0  0
    1.5492    2.7353   -2.1066 C   0  0  0  0  0  0  0  0  0  0  0  0
    1.2954    3.4039   -1.2785 H   0  0  0  0  0  0  0  0  0  0  0  0
    2.5353    3.0240   -2.4829 H   0  0  0  0  0  0  0  0  0  0  0  0
    0.8196    2.8709   -2.9110 H   0  0  0  0  0  0  0  0  0  0  0  0
    1.0275   -0.4763    0.9391 C   0  0  0  0  0  0  0  0  0  0  0  0
    2.2405   -0.5908    1.0585 O   0  0  0  0  0  0  0  0  0  0  0  0
    0.2876   -0.0510    2.0286 N   0  0  0  0  0  0  0  0  0  0  0  0
   -0.7202   -0.0670    1.9180 H   0  0  0  0  0  0  0  0  0  0  0  0
    0.8460    0.0525    3.3706 C   0  0  0  0  0  0  0  0  0  0  0  0
    1.6828    0.7589    3.3854 H   0  0  0  0  0  0  0  0  0  0  0  0
    0.0840    0.4068    4.0711 H   0  0  0  0  0  0  0  0  0  0  0  0
    1.2039   -0.9250    3.7111 H   0  0  0  0  0  0  0  0  0  0  0  0
  1  2  1  0  0  0  0
  2  3  1  0  0  0  0
  2  4  1  0  0  0  0
  2  5  1  0  0  0  0
  5  6  2  0  0  0  0
  5  7  1  0  0  0  0
  7  8  1  0  0  0  0
  7  9  1  0  0  0  0
  9 10  1  0  0  0  0
  9 11  1  0  0  0  0
  9 24  1  0  0  0  0
 11 12  1  0  0  0  0
 11 13  1  0  0  0  0
 11 17  1  0  0  0  0
 13 14  1  0  0  0  0
 13 15  1  0  0  0  0
 13 16  1  0  0  0  0
 17 18  1  0  0  0  0
 17 19  1  0  0  0  0
 17 20  1  0  0  0  0
 20 21  1  0  0  0  0
 20 22  1  0  0  0  0
 20 23  1  0  0  0  0
 24 25  2  0  0  0  0
 24 26  1  0  0  0  0
 26 27  1  0  0  0  0
 26 28  1  0  0  0  0
 28 29  1  0  0  0  0
 28 30  1  0  0  0  0
 28 31  1  0  0  0  0
M  END
$$$$

  -OEChem-03222214053D

 31 30  0     1  0  0  0  0  0999 V2000
   -2.5048   -4.2420    0.3367 H   0  0  0  0  0  0  0  0  0  0  0  0
   -2.5274   -3.2156   -0.0407 C   0  0  0  0  0  0  0  0  0  0  0  0
   -3.2399   -2.6381    0.5530 H   0  0  0  0  0  0  0  0  0  0  0  0
   -2.8579   -3.2326   -1.0819 H   0  0  0  0  0  0  0  0  0  0  0  0
   -1.1470   -2.5938    0.0562 C   0  0  0  0  0  0  0  0  0  0  0  0
   -0.2312   -3.2271    0.5478 O   0  0  0  0  0  0  0  0  0  0  0  0
   -0.9418   -1.3109   -0.4123 N   0  0  0  0  0  0  0  0  0  0  0  0
   -1.7251   -0.8644   -0.8790 H   0  0  0  0  0  0  0  0  0  0  0  0
    0.3690   -0.6318   -0.4540 C   0  0  1  0  0  0  0  0  0  0  0  0
    1.0493   -1.2683   -1.0317 H   0  0  0  0  0  0  0  0  0  0  0  0
    0.1981    0.6999   -1.2412 C   0  0  1  0  0  0  0  0  0  0  0  0
   -0.3374    0.4740   -2.1696 H   0  0  0  0  0  0  0  0  0  0  0  0
   -0.6785    1.7011   -0.4566 C   0  0  0  0  0  0  0  0  0  0  0  0
   -0.1432    2.0928    0.4137 H   0  0  0  0  0  0  0  0  0  0  0  0
   -0.9629    2.5428   -1.0950 H   0  0  0  0  0  0  0  0  0  0  0  0
   -1.6011    1.2282   -0.1089 H   0  0  0  0  0  0  0  0  0  0  0  0
    1.5798    1.2835   -1.6545 C   0  0  0  0  0  0  0  0  0  0  0  0
    2.3451    0.9877   -0.9324 H   0  0  0  0  0  0  0  0  0  0  0  0
    1.8646    0.8427   -2.6155 H   0  0  0  0  0  0  0  0  0  0  0  0
    1.6528    2.8111   -1.7701 C   0  0  0  0  0  0  0  0  0  0  0  0
    1.4997    3.2886   -0.7978 H   0  0  0  0  0  0  0  0  0  0  0  0
    2.6401    3.1066   -2.1382 H   0  0  0  0  0  0  0  0  0  0  0  0
    0.9004    3.1804   -2.4736 H   0  0  0  0  0  0  0  0  0  0  0  0
    1.0295   -0.4791    0.9416 C   0  0  0  0  0  0  0  0  0  0  0  0
    2.2408   -0.6033    1.0683 O   0  0  0  0  0  0  0  0  0  0  0  0
    0.2874   -0.0554    2.0303 N   0  0  0  0  0  0  0  0  0  0  0  0
   -0.7200   -0.0693    1.9166 H   0  0  0  0  0  0  0  0  0  0  0  0
    0.8415    0.0393    3.3749 C   0  0  0  0  0  0  0  0  0  0  0  0
    1.6832    0.7396    3.3949 H   0  0  0  0  0  0  0  0  0  0  0  0
    0.0797    0.3967    4.0742 H   0  0  0  0  0  0  0  0  0  0  0  0
    1.1916   -0.9418    3.7131 H   0  0  0  0  0  0  0  0  0  0  0  0
  1  2  1  0  0  0  0
  2  3  1  0  0  0  0
  2  4  1  0  0  0  0
  2  5  1  0  0  0  0
  5  6  2  0  0  0  0
  5  7  1  0  0  0  0
  7  8  1  0  0  0  0
  7  9  1  0  0  0  0
  9 10  1  0  0  0  0
  9 11  1  0  0  0  0
  9 24  1  0  0  0  0
 11 12  1  0  0  0  0
 11 13  1  0  0  0  0
 11 17  1  0  0  0  0
 13 14  1  0  0  0  0
 13 15  1  0  0  0  0
 13 16  1  0  0  0  0
 17 18  1  0  0  0  0
 17 19  1  0  0  0  0
 17 20  1  0  0  0  0
 20 21  1  0  0  0  0
 20 22  1  0  0  0  0
 20 23  1  0  0  0  0
 24 25  2  0  0  0  0
 24 26  1  0  0  0  0
 26 27  1  0  0  0  0
 26 28  1  0  0  0  0
 28 29  1  0  0  0  0
 28 30  1  0  0  0  0
 28 31  1  0  0  0  0
M  END
$$$$

  -OEChem-03222214053D

 31 30  0     1  0  0  0  0  0999 V2000
   -2.5070   -4.2450    0.3430 H   0  0  0  0  0  0  0  0  0  0  0  0
   -2.5297   -3.2197   -0.0373 C   0  0  0  0  0  0  0  0  0  0  0  0
   -3.2427   -2.6407    0.5544 H   0  0  0  0  0  0  0  0  0  0  0  0
   -2.8599   -3.2389   -1.0787 H   0  0  0  0  0  0  0  0  0  0  0  0
   -1.1493   -2.5979    0.0583 C   0  0  0  0  0  0  0  0  0  0  0  0
   -0.2326   -3.2308    0.5490 O   0  0  0  0  0  0  0  0  0  0  0  0
   -0.9458   -1.3147   -0.4098 N   0  0  0  0  0  0  0  0  0  0  0  0
   -1.7304   -0.8682   -0.8744 H   0  0  0  0  0  0  0  0  0  0  0  0
    0.3649   -0.6358   -0.4544 C   0  0  1  0  0  0  0  0  0  0  0  0
    1.0413   -1.2725   -1.0362 H   0  0  0  0  0  0  0  0  0  0  0  0
    0.1983    0.7020   -1.2306 C   0  0  1  0  0  0  0  0  0  0  0  0
   -0.3263    0.4695   -2.1636 H   0  0  0  0  0  0  0  0  0  0  0  0
   -0.7040    1.6962   -0.4665 C   0  0  0  0  0  0  0  0  0  0  0  0
   -0.2121    2.0642    0.4383 H   0  0  0  0  0  0  0  0  0  0  0  0
   -0.9490    2.5529   -1.1011 H   0  0  0  0  0  0  0  0  0  0  0  0
   -1.6464    1.2243   -0.1755 H   0  0  0  0  0  0  0  0  0  0  0  0
    1.5837    1.2841   -1.6448 C   0  0  0  0  0  0  0  0  0  0  0  0
    2.3872    0.7619   -1.1180 H   0  0  0  0  0  0  0  0  0  0  0  0
    1.7302    1.0807   -2.7105 H   0  0  0  0  0  0  0  0  0  0  0  0
    1.7938    2.7854   -1.4121 C   0  0  0  0  0  0  0  0  0  0  0  0
    1.7385    3.0279   -0.3467 H   0  0  0  0  0  0  0  0  0  0  0  0
    2.7844    3.0782   -1.7730 H   0  0  0  0  0  0  0  0  0  0  0  0
    1.0475    3.3726   -1.9552 H   0  0  0  0  0  0  0  0  0  0  0  0
    1.0314   -0.4831    0.9381 C   0  0  0  0  0  0  0  0  0  0  0  0
    2.2444   -0.5967    1.0585 O   0  0  0  0  0  0  0  0  0  0  0  0
    0.2922   -0.0596    2.0285 N   0  0  0  0  0  0  0  0  0  0  0  0
   -0.7157   -0.0807    1.9199 H   0  0  0  0  0  0  0  0  0  0  0  0
    0.8529    0.0488    3.3690 C   0  0  0  0  0  0  0  0  0  0  0  0
    1.6907    0.7540    3.3785 H   0  0  0  0  0  0  0  0  0  0  0  0
    0.0928    0.4082    4.0690 H   0  0  0  0  0  0  0  0  0  0  0  0
    1.2102   -0.9274    3.7136 H   0  0  0  0  0  0  0  0  0  0  0  0
  1  2  1  0  0  0  0
  2  3  1  0  0  0  0
  2  4  1  0  0  0  0
  2  5  1  0  0  0  0
  5  6  2  0  0  0  0
  5  7  1  0  0  0  0
  7  8  1  0  0  0  0
  7  9  1  0  0  0  0
  9 10  1  0  0  0  0
  9 11  1  0  0  0  0
  9 24  1  0  0  0  0
 11 12  1  0  0  0  0
 11 13  1  0  0  0  0
 11 17  1  0  0  0  0
 13 14  1  0  0  0  0
 13 15  1  0  0  0  0
 13 16  1  0  0  0  0
 17 18  1  0  0  0  0
 17 19  1  0  0  0  0
 17 20  1  0  0  0  0
 20 21  1  0  0  0  0
 20 22  1  0  0  0  0
 20 23  1  0  0  0  0
 24 25  2  0  0  0  0
 24 26  1  0  0  0  0
 26 27  1  0  0  0  0
 26 28  1  0  0  0  0
 28 29  1  0  0  0  0
 28 30  1  0  0  0  0
 28 31  1  0  0  0  0
M  END
$$$$

  -OEChem-03222214053D

 31 30  0     1  0  0  0  0  0999 V2000
   -2.5171   -4.2507    0.3358 H   0  0  0  0  0  0  0  0  0  0  0  0
   -2.5382   -3.2248   -0.0426 C   0  0  0  0  0  0  0  0  0  0  0  0
   -3.2514   -2.6467    0.5495 H   0  0  0  0  0  0  0  0  0  0  0  0
   -2.8671   -3.2420   -1.0843 H   0  0  0  0  0  0  0  0  0  0  0  0
   -1.1577   -2.6036    0.0559 C   0  0  0  0  0  0  0  0  0  0  0  0
   -0.2426   -3.2357    0.5506 O   0  0  0  0  0  0  0  0  0  0  0  0
   -0.9529   -1.3202   -0.4107 N   0  0  0  0  0  0  0  0  0  0  0  0
   -1.7364   -0.8731   -0.8764 H   0  0  0  0  0  0  0  0  0  0  0  0
    0.3582   -0.6429   -0.4538 C   0  0  1  0  0  0  0  0  0  0  0  0
    1.0298   -1.2823   -1.0380 H   0  0  0  0  0  0  0  0  0  0  0  0
    0.2008    0.6993   -1.2201 C   0  0  1  0  0  0  0  0  0  0  0  0
   -0.3072    0.4564   -2.1597 H   0  0  0  0  0  0  0  0  0  0  0  0
   -0.7200    1.6981   -0.4864 C   0  0  0  0  0  0  0  0  0  0  0  0
   -0.2695    2.0490    0.4462 H   0  0  0  0  0  0  0  0  0  0  0  0
   -0.9184    2.5655   -1.1231 H   0  0  0  0  0  0  0  0  0  0  0  0
   -1.6819    1.2362   -0.2475 H   0  0  0  0  0  0  0  0  0  0  0  0
    1.5900    1.2746   -1.6272 C   0  0  0  0  0  0  0  0  0  0  0  0
    2.3869    0.5809   -1.3411 H   0  0  0  0  0  0  0  0  0  0  0  0
    1.6189    1.3447   -2.7194 H   0  0  0  0  0  0  0  0  0  0  0  0
    1.9424    2.6579   -1.0671 C   0  0  0  0  0  0  0  0  0  0  0  0
    1.9513    2.6389    0.0272 H   0  0  0  0  0  0  0  0  0  0  0  0
    2.9397    2.9508   -1.4092 H   0  0  0  0  0  0  0  0  0  0  0  0
    1.2314    3.4157   -1.4087 H   0  0  0  0  0  0  0  0  0  0  0  0
    1.0350   -0.4858    0.9320 C   0  0  0  0  0  0  0  0  0  0  0  0
    2.2516   -0.5750    1.0355 O   0  0  0  0  0  0  0  0  0  0  0  0
    0.3041   -0.0592    2.0268 N   0  0  0  0  0  0  0  0  0  0  0  0
   -0.7047   -0.0933    1.9306 H   0  0  0  0  0  0  0  0  0  0  0  0
    0.8793    0.0696    3.3597 C   0  0  0  0  0  0  0  0  0  0  0  0
    1.7103    0.7828    3.3524 H   0  0  0  0  0  0  0  0  0  0  0  0
    0.1237    0.4292    4.0644 H   0  0  0  0  0  0  0  0  0  0  0  0
    1.2498   -0.8995    3.7106 H   0  0  0  0  0  0  0  0  0  0  0  0
  1  2  1  0  0  0  0
  2  3  1  0  0  0  0
  2  4  1  0  0  0  0
  2  5  1  0  0  0  0
  5  6  2  0  0  0  0
  5  7  1  0  0  0  0
  7  8  1  0  0  0  0
  7  9  1  0  0  0  0
  9 10  1  0  0  0  0
  9 11  1  0  0  0  0
  9 24  1  0  0  0  0
 11 12  1  0  0  0  0
 11 13  1  0  0  0  0
 11 17  1  0  0  0  0
 13 14  1  0  0  0  0
 13 15  1  0  0  0  0
 13 16  1  0  0  0  0
 17 18  1  0  0  0  0
 17 19  1  0  0  0  0
 17 20  1  0  0  0  0
 20 21  1  0  0  0  0
 20 22  1  0  0  0  0
 20 23  1  0  0  0  0
 24 25  2  0  0  0  0
 24 26  1  0  0  0  0
 26 27  1  0  0  0  0
 26 28  1  0  0  0  0
 28 29  1  0  0  0  0
 28 30  1  0  0  0  0
 28 31  1  0  0  0  0
M  END
$$$$

  -OEChem-03222214053D

 31 30  0     1  0  0  0  0  0999 V2000
   -2.5232   -4.2544    0.3297 H   0  0  0  0  0  0  0  0  0  0  0  0
   -2.5448   -3.2294   -0.0518 C   0  0  0  0  0  0  0  0  0  0  0  0
   -3.2644   -2.6519    0.5333 H   0  0  0  0  0  0  0  0  0  0  0  0
   -2.8652   -3.2503   -1.0962 H   0  0  0  0  0  0  0  0  0  0  0  0
   -1.1666   -2.6044    0.0558 C   0  0  0  0  0  0  0  0  0  0  0  0
   -0.2527   -3.2364    0.5528 O   0  0  0  0  0  0  0  0  0  0  0  0
   -0.9600   -1.3196   -0.4066 N   0  0  0  0  0  0  0  0  0  0  0  0
   -1.7391   -0.8728   -0.8798 H   0  0  0  0  0  0  0  0  0  0  0  0
    0.3537   -0.6474   -0.4466 C   0  0  1  0  0  0  0  0  0  0  0  0
    1.0205   -1.2926   -1.0298 H   0  0  0  0  0  0  0  0  0  0  0  0
    0.2056    0.6931   -1.2162 C   0  0  1  0  0  0  0  0  0  0  0  0
   -0.2933    0.4417   -2.1585 H   0  0  0  0  0  0  0  0  0  0  0  0
   -0.7126    1.7062   -0.5022 C   0  0  0  0  0  0  0  0  0  0  0  0
   -0.2890    2.0295    0.4527 H   0  0  0  0  0  0  0  0  0  0  0  0
   -0.8567    2.5894   -1.1322 H   0  0  0  0  0  0  0  0  0  0  0  0
   -1.6958    1.2683   -0.3091 H   0  0  0  0  0  0  0  0  0  0  0  0
    1.5918    1.2679   -1.6213 C   0  0  0  0  0  0  0  0  0  0  0  0
    2.3501    0.4788   -1.5834 H   0  0  0  0  0  0  0  0  0  0  0  0
    1.5313    1.5969   -2.6637 H   0  0  0  0  0  0  0  0  0  0  0  0
    2.0874    2.4608   -0.7942 C   0  0  0  0  0  0  0  0  0  0  0  0
    2.1402    2.1995    0.2671 H   0  0  0  0  0  0  0  0  0  0  0  0
    3.0901    2.7477   -1.1251 H   0  0  0  0  0  0  0  0  0  0  0  0
    1.4305    3.3271   -0.9160 H   0  0  0  0  0  0  0  0  0  0  0  0
    1.0373   -0.4944    0.9346 C   0  0  0  0  0  0  0  0  0  0  0  0
    2.2548   -0.5834    1.0275 O   0  0  0  0  0  0  0  0  0  0  0  0
    0.3140   -0.0666    2.0340 N   0  0  0  0  0  0  0  0  0  0  0  0
   -0.6958   -0.0995    1.9457 H   0  0  0  0  0  0  0  0  0  0  0  0
    0.9010    0.0756    3.3601 C   0  0  0  0  0  0  0  0  0  0  0  0
    1.7281    0.7929    3.3385 H   0  0  0  0  0  0  0  0  0  0  0  0
    0.1505    0.4373    4.0691 H   0  0  0  0  0  0  0  0  0  0  0  0
    1.2800   -0.8885    3.7154 H   0  0  0  0  0  0  0  0  0  0  0  0
  1  2  1  0  0  0  0
  2  3  1  0  0  0  0
  2  4  1  0  0  0  0
  2  5  1  0  0  0  0
  5  6  2  0  0  0  0
  5  7  1  0  0  0  0
  7  8  1  0  0  0  0
  7  9  1  0  0  0  0
  9 10  1  0  0  0  0
  9 11  1  0  0  0  0
  9 24  1  0  0  0  0
 11 12  1  0  0  0  0
 11 13  1  0  0  0  0
 11 17  1  0  0  0  0
 13 14  1  0  0  0  0
 13 15  1  0  0  0  0
 13 16  1  0  0  0  0
 17 18  1  0  0  0  0
 17 19  1  0  0  0  0
 17 20  1  0  0  0  0
 20 21  1  0  0  0  0
 20 22  1  0  0  0  0
 20 23  1  0  0  0  0
 24 25  2  0  0  0  0
 24 26  1  0  0  0  0
 26 27  1  0  0  0  0
 26 28  1  0  0  0  0
 28 29  1  0  0  0  0
 28 30  1  0  0  0  0
 28 31  1  0  0  0  0
M  END
$$$$

  -OEChem-03222214053D

 31 30  0     1  0  0  0  0  0999 V2000
   -2.5380   -4.2322    0.3384 H   0  0  0  0  0  0  0  0  0  0  0  0
   -2.5470   -3.2067   -0.0422 C   0  0  0  0  0  0  0  0  0  0  0  0
   -3.2597   -2.6209    0.5429 H   0  0  0  0  0  0  0  0  0  0  0  0
   -2.8677   -3.2234   -1.0866 H   0  0  0  0  0  0  0  0  0  0  0  0
   -1.1614   -2.5985    0.0662 C   0  0  0  0  0  0  0  0  0  0  0  0
   -0.2549   -3.2444    0.5587 O   0  0  0  0  0  0  0  0  0  0  0  0
   -0.9403   -1.3155   -0.3952 N   0  0  0  0  0  0  0  0  0  0  0  0
   -1.7172   -0.8571   -0.8609 H   0  0  0  0  0  0  0  0  0  0  0  0
    0.3789   -0.6525   -0.4278 C   0  0  1  0  0  0  0  0  0  0  0  0
    1.0499   -1.3020   -1.0014 H   0  0  0  0  0  0  0  0  0  0  0  0
    0.2255    0.6749   -1.2240 C   0  0  1  0  0  0  0  0  0  0  0  0
   -0.2774    0.4059   -2.1594 H   0  0  0  0  0  0  0  0  0  0  0  0
   -0.6813    1.7020   -0.5185 C   0  0  0  0  0  0  0  0  0  0  0  0
   -0.2620    2.0146    0.4420 H   0  0  0  0  0  0  0  0  0  0  0  0
   -0.7983    2.5905   -1.1470 H   0  0  0  0  0  0  0  0  0  0  0  0
   -1.6752    1.2830   -0.3380 H   0  0  0  0  0  0  0  0  0  0  0  0
    1.5875    1.2827   -1.6498 C   0  0  0  0  0  0  0  0  0  0  0  0
    2.2954    0.4715   -1.8496 H   0  0  0  0  0  0  0  0  0  0  0  0
    1.4419    1.8190   -2.5931 H   0  0  0  0  0  0  0  0  0  0  0  0
    2.2342    2.2618   -0.6589 C   0  0  0  0  0  0  0  0  0  0  0  0
    2.3605    1.8121    0.3279 H   0  0  0  0  0  0  0  0  0  0  0  0
    3.2223    2.5553   -1.0259 H   0  0  0  0  0  0  0  0  0  0  0  0
    1.6302    3.1678   -0.5548 H   0  0  0  0  0  0  0  0  0  0  0  0
    1.0453   -0.5087    0.9619 C   0  0  0  0  0  0  0  0  0  0  0  0
    2.2530   -0.6693    1.0820 O   0  0  0  0  0  0  0  0  0  0  0  0
    0.3132   -0.0772    2.0539 N   0  0  0  0  0  0  0  0  0  0  0  0
   -0.6947   -0.0731    1.9435 H   0  0  0  0  0  0  0  0  0  0  0  0
    0.8743    0.0102    3.3960 C   0  0  0  0  0  0  0  0  0  0  0  0
    1.7285    0.6952    3.4106 H   0  0  0  0  0  0  0  0  0  0  0  0
    0.1221    0.3832    4.0975 H   0  0  0  0  0  0  0  0  0  0  0  0
    1.2077   -0.9762    3.7353 H   0  0  0  0  0  0  0  0  0  0  0  0
  1  2  1  0  0  0  0
  2  3  1  0  0  0  0
  2  4  1  0  0  0  0
  2  5  1  0  0  0  0
  5  6  2  0  0  0  0
  5  7  1  0  0  0  0
  7  8  1  0  0  0  0
  7  9  1  0  0  0  0
  9 10  1  0  0  0  0
  9 11  1  0  0  0  0
  9 24  1  0  0  0  0
 11 12  1  0  0  0  0
 11 13  1  0  0  0  0
 11 17  1  0  0  0  0
 13 14  1  0  0  0  0
 13 15  1  0  0  0  0
 13 16  1  0  0  0  0
 17 18  1  0  0  0  0
 17 19  1  0  0  0  0
 17 20  1  0  0  0  0
 20 21  1  0  0  0  0
 20 22  1  0  0  0  0
 20 23  1  0  0  0  0
 24 25  2  0  0  0  0
 24 26  1  0  0  0  0
 26 27  1  0  0  0  0
 26 28  1  0  0  0  0
 28 29  1  0  0  0  0
 28 30  1  0  0  0  0
 28 31  1  0  0  0  0
M  END
$$$$

  -OEChem-03222214053D

 31 30  0     1  0  0  0  0  0999 V2000
   -2.5632   -4.1930    0.3752 H   0  0  0  0  0  0  0  0  0  0  0  0
   -2.5525   -3.1683   -0.0076 C   0  0  0  0  0  0  0  0  0  0  0  0
   -3.2437   -2.5649    0.5854 H   0  0  0  0  0  0  0  0  0  0  0  0
   -2.8866   -3.1794   -1.0478 H   0  0  0  0  0  0  0  0  0  0  0  0
   -1.1516   -2.5924    0.0824 C   0  0  0  0  0  0  0  0  0  0  0  0
   -0.2558   -3.2588    0.5668 O   0  0  0  0  0  0  0  0  0  0  0  0
   -0.9060   -1.3178   -0.3905 N   0  0  0  0  0  0  0  0  0  0  0  0
   -1.6779   -0.8436   -0.8485 H   0  0  0  0  0  0  0  0  0  0  0  0
    0.4217   -0.6698   -0.4154 C   0  0  1  0  0  0  0  0  0  0  0  0
    1.1020   -1.3209   -0.9759 H   0  0  0  0  0  0  0  0  0  0  0  0
    0.2587    0.6490   -1.2299 C   0  0  1  0  0  0  0  0  0  0  0  0
   -0.2570    0.3688   -2.1552 H   0  0  0  0  0  0  0  0  0  0  0  0
   -0.6394    1.6804   -0.5192 C   0  0  0  0  0  0  0  0  0  0  0  0
   -0.2084    1.9972    0.4342 H   0  0  0  0  0  0  0  0  0  0  0  0
   -0.7625    2.5669   -1.1494 H   0  0  0  0  0  0  0  0  0  0  0  0
   -1.6321    1.2646   -0.3250 H   0  0  0  0  0  0  0  0  0  0  0  0
    1.5871    1.3025   -1.6915 C   0  0  0  0  0  0  0  0  0  0  0  0
    2.2162    0.5291   -2.1444 H   0  0  0  0  0  0  0  0  0  0  0  0
    1.3485    2.0235   -2.4801 H   0  0  0  0  0  0  0  0  0  0  0  0
    2.4221    2.0394   -0.6346 C   0  0  0  0  0  0  0  0  0  0  0  0
    2.8056    1.3614    0.1269 H   0  0  0  0  0  0  0  0  0  0  0  0
    3.2834    2.5102   -1.1180 H   0  0  0  0  0  0  0  0  0  0  0  0
    1.8404    2.8259   -0.1470 H   0  0  0  0  0  0  0  0  0  0  0  0
    1.0484   -0.5305    0.9945 C   0  0  0  0  0  0  0  0  0  0  0  0
    2.2280   -0.8009    1.1771 O   0  0  0  0  0  0  0  0  0  0  0  0
    0.2904   -0.0844    2.0630 N   0  0  0  0  0  0  0  0  0  0  0  0
   -0.7087   -0.0153    1.9060 H   0  0  0  0  0  0  0  0  0  0  0  0
    0.7901   -0.0645    3.4314 C   0  0  0  0  0  0  0  0  0  0  0  0
    1.6739    0.5778    3.5070 H   0  0  0  0  0  0  0  0  0  0  0  0
    0.0237    0.3233    4.1090 H   0  0  0  0  0  0  0  0  0  0  0  0
    1.0604   -1.0759    3.7534 H   0  0  0  0  0  0  0  0  0  0  0  0
  1  2  1  0  0  0  0
  2  3  1  0  0  0  0
  2  4  1  0  0  0  0
  2  5  1  0  0  0  0
  5  6  2  0  0  0  0
  5  7  1  0  0  0  0
  7  8  1  0  0  0  0
  7  9  1  0  0  0  0
  9 10  1  0  0  0  0
  9 11  1  0  0  0  0
  9 24  1  0  0  0  0
 11 12  1  0  0  0  0
 11 13  1  0  0  0  0
 11 17  1  0  0  0  0
 13 14  1  0  0  0  0
 13 15  1  0  0  0  0
 13 16  1  0  0  0  0
 17 18  1  0  0  0  0
 17 19  1  0  0  0  0
 17 20  1  0  0  0  0
 20 21  1  0  0  0  0
 20 22  1  0  0  0  0
 20 23  1  0  0  0  0
 24 25  2  0  0  0  0
 24 26  1  0  0  0  0
 26 27  1  0  0  0  0
 26 28  1  0  0  0  0
 28 29  1  0  0  0  0
 28 30  1  0  0  0  0
 28 31  1  0  0  0  0
M  END
$$$$

  -OEChem-03222214053D

 31 30  0     1  0  0  0  0  0999 V2000
   -2.5866   -4.1740    0.4009 H   0  0  0  0  0  0  0  0  0  0  0  0
   -2.5642   -3.1522    0.0108 C   0  0  0  0  0  0  0  0  0  0  0  0
   -3.2486   -2.5364    0.5991 H   0  0  0  0  0  0  0  0  0  0  0  0
   -2.8979   -3.1670   -1.0296 H   0  0  0  0  0  0  0  0  0  0  0  0
   -1.1568   -2.5918    0.0970 C   0  0  0  0  0  0  0  0  0  0  0  0
   -0.2693   -3.2646    0.5872 O   0  0  0  0  0  0  0  0  0  0  0  0
   -0.8957   -1.3262   -0.3918 N   0  0  0  0  0  0  0  0  0  0  0  0
   -1.6627   -0.8484   -0.8541 H   0  0  0  0  0  0  0  0  0  0  0  0
    0.4381   -0.6894   -0.4189 C   0  0  1  0  0  0  0  0  0  0  0  0
    1.1217   -1.3425   -0.9728 H   0  0  0  0  0  0  0  0  0  0  0  0
    0.2739    0.6305   -1.2342 C   0  0  1  0  0  0  0  0  0  0  0  0
   -0.2622    0.3597   -2.1505 H   0  0  0  0  0  0  0  0  0  0  0  0
   -0.6000    1.6709   -0.5046 C   0  0  0  0  0  0  0  0  0  0  0  0
   -0.1232    2.0220    0.4142 H   0  0  0  0  0  0  0  0  0  0  0  0
   -0.7704    2.5381   -1.1503 H   0  0  0  0  0  0  0  0  0  0  0  0
   -1.5755    1.2497   -0.2461 H   0  0  0  0  0  0  0  0  0  0  0  0
    1.5889    1.2965   -1.7157 C   0  0  0  0  0  0  0  0  0  0  0  0
    2.0965    0.6084   -2.3998 H   0  0  0  0  0  0  0  0  0  0  0  0
    1.3211    2.1836   -2.2991 H   0  0  0  0  0  0  0  0  0  0  0  0
    2.6013    1.7293   -0.6502 C   0  0  0  0  0  0  0  0  0  0  0  0
    3.1687    0.8718   -0.2841 H   0  0  0  0  0  0  0  0  0  0  0  0
    3.3179    2.4298   -1.0895 H   0  0  0  0  0  0  0  0  0  0  0  0
    2.1146    2.2253    0.1933 H   0  0  0  0  0  0  0  0  0  0  0  0
    1.0420   -0.5445    1.0030 C   0  0  0  0  0  0  0  0  0  0  0  0
    2.2094   -0.8402    1.2197 O   0  0  0  0  0  0  0  0  0  0  0  0
    0.2687   -0.0820    2.0540 N   0  0  0  0  0  0  0  0  0  0  0  0
   -0.7248    0.0093    1.8739 H   0  0  0  0  0  0  0  0  0  0  0  0
    0.7381   -0.0680    3.4337 C   0  0  0  0  0  0  0  0  0  0  0  0
    1.6279    0.5633    3.5294 H   0  0  0  0  0  0  0  0  0  0  0  0
   -0.0383    0.3290    4.0943 H   0  0  0  0  0  0  0  0  0  0  0  0
    0.9889   -1.0824    3.7620 H   0  0  0  0  0  0  0  0  0  0  0  0
  1  2  1  0  0  0  0
  2  3  1  0  0  0  0
  2  4  1  0  0  0  0
  2  5  1  0  0  0  0
  5  6  2  0  0  0  0
  5  7  1  0  0  0  0
  7  8  1  0  0  0  0
  7  9  1  0  0  0  0
  9 10  1  0  0  0  0
  9 11  1  0  0  0  0
  9 24  1  0  0  0  0
 11 12  1  0  0  0  0
 11 13  1  0  0  0  0
 11 17  1  0  0  0  0
 13 14  1  0  0  0  0
 13 15  1  0  0  0  0
 13 16  1  0  0  0  0
 17 18  1  0  0  0  0
 17 19  1  0  0  0  0
 17 20  1  0  0  0  0
 20 21  1  0  0  0  0
 20 22  1  0  0  0  0
 20 23  1  0  0  0  0
 24 25  2  0  0  0  0
 24 26  1  0  0  0  0
 26 27  1  0  0  0  0
 26 28  1  0  0  0  0
 28 29  1  0  0  0  0
 28 30  1  0  0  0  0
 28 31  1  0  0  0  0
M  END
$$$$

  -OEChem-03222214053D

 31 30  0     1  0  0  0  0  0999 V2000
   -2.6000   -4.1662    0.4163 H   0  0  0  0  0  0  0  0  0  0  0  0
   -2.5719   -3.1456    0.0236 C   0  0  0  0  0  0  0  0  0  0  0  0
   -3.2470   -2.5226    0.6150 H   0  0  0  0  0  0  0  0  0  0  0  0
   -2.9128   -3.1599   -1.0145 H   0  0  0  0  0  0  0  0  0  0  0  0
   -1.1593   -2.5976    0.0998 C   0  0  0  0  0  0  0  0  0  0  0  0
   -0.2755   -3.2770    0.5875 O   0  0  0  0  0  0  0  0  0  0  0  0
   -0.8897   -1.3363   -0.3955 N   0  0  0  0  0  0  0  0  0  0  0  0
   -1.6552   -0.8530   -0.8546 H   0  0  0  0  0  0  0  0  0  0  0  0
    0.4474   -0.7058   -0.4229 C   0  0  1  0  0  0  0  0  0  0  0  0
    1.1327   -1.3606   -0.9723 H   0  0  0  0  0  0  0  0  0  0  0  0
    0.2809    0.6145   -1.2428 C   0  0  1  0  0  0  0  0  0  0  0  0
   -0.2839    0.3559   -2.1456 H   0  0  0  0  0  0  0  0  0  0  0  0
   -0.5525    1.6620   -0.4766 C   0  0  0  0  0  0  0  0  0  0  0  0
    0.0016    2.0533    0.3817 H   0  0  0  0  0  0  0  0  0  0  0  0
   -0.7976    2.5027   -1.1331 H   0  0  0  0  0  0  0  0  0  0  0  0
   -1.4928    1.2341   -0.1178 H   0  0  0  0  0  0  0  0  0  0  0  0
    1.5815    1.2992   -1.7428 C   0  0  0  0  0  0  0  0  0  0  0  0
    1.9523    0.7310   -2.6023 H   0  0  0  0  0  0  0  0  0  0  0  0
    1.3318    2.2997   -2.1110 H   0  0  0  0  0  0  0  0  0  0  0  0
    2.7411    1.4317   -0.7556 C   0  0  0  0  0  0  0  0  0  0  0  0
    3.2257    0.4649   -0.5994 H   0  0  0  0  0  0  0  0  0  0  0  0
    3.4935    2.1154   -1.1601 H   0  0  0  0  0  0  0  0  0  0  0  0
    2.4002    1.8289    0.2049 H   0  0  0  0  0  0  0  0  0  0  0  0
    1.0333   -0.5630    1.0092 C   0  0  0  0  0  0  0  0  0  0  0  0
    2.1947   -0.8648    1.2485 O   0  0  0  0  0  0  0  0  0  0  0  0
    0.2469   -0.0950    2.0482 N   0  0  0  0  0  0  0  0  0  0  0  0
   -0.7424    0.0064    1.8523 H   0  0  0  0  0  0  0  0  0  0  0  0
    0.6960   -0.0760    3.4346 C   0  0  0  0  0  0  0  0  0  0  0  0
    1.5818    0.5591    3.5408 H   0  0  0  0  0  0  0  0  0  0  0  0
   -0.0919    0.3195    4.0826 H   0  0  0  0  0  0  0  0  0  0  0  0
    0.9459   -1.0886    3.7691 H   0  0  0  0  0  0  0  0  0  0  0  0
  1  2  1  0  0  0  0
  2  3  1  0  0  0  0
  2  4  1  0  0  0  0
  2  5  1  0  0  0  0
  5  6  2  0  0  0  0
  5  7  1  0  0  0  0
  7  8  1  0  0  0  0
  7  9  1  0  0  0  0
  9 10  1  0  0  0  0
  9 11  1  0  0  0  0
  9 24  1  0  0  0  0
 11 12  1  0  0  0  0
 11 13  1  0  0  0  0
 11 17  1  0  0  0  0
 13 14  1  0  0  0  0
 13 15  1  0  0  0  0
 13 16  1  0  0  0  0
 17 18  1  0  0  0  0
 17 19  1  0  0  0  0
 17 20  1  0  0  0  0
 20 21  1  0  0  0  0
 20 22  1  0  0  0  0
 20 23  1  0  0  0  0
 24 25  2  0  0  0  0
 24 26  1  0  0  0  0
 26 27  1  0  0  0  0
 26 28  1  0  0  0  0
 28 29  1  0  0  0  0
 28 30  1  0  0  0  0
 28 31  1  0  0  0  0
M  END
$$$$

  -OEChem-03222214053D

 31 30  0     1  0  0  0  0  0999 V2000
   -2.6136   -4.1661    0.4182 H   0  0  0  0  0  0  0  0  0  0  0  0
   -2.5809   -3.1461    0.0243 C   0  0  0  0  0  0  0  0  0  0  0  0
   -3.2575   -2.5211    0.6117 H   0  0  0  0  0  0  0  0  0  0  0  0
   -2.9168   -3.1611   -1.0153 H   0  0  0  0  0  0  0  0  0  0  0  0
   -1.1673   -2.6006    0.1057 C   0  0  0  0  0  0  0  0  0  0  0  0
   -0.2869   -3.2804    0.5991 O   0  0  0  0  0  0  0  0  0  0  0  0
   -0.8927   -1.3414   -0.3930 N   0  0  0  0  0  0  0  0  0  0  0  0
   -1.6552   -0.8586   -0.8575 H   0  0  0  0  0  0  0  0  0  0  0  0
    0.4464   -0.7143   -0.4210 C   0  0  1  0  0  0  0  0  0  0  0  0
    1.1297   -1.3738   -0.9674 H   0  0  0  0  0  0  0  0  0  0  0  0
    0.2833    0.6053   -1.2459 C   0  0  1  0  0  0  0  0  0  0  0  0
   -0.2922    0.3488   -2.1422 H   0  0  0  0  0  0  0  0  0  0  0  0
   -0.5394    1.6532   -0.4691 C   0  0  0  0  0  0  0  0  0  0  0  0
    0.0389    2.0578    0.3676 H   0  0  0  0  0  0  0  0  0  0  0  0
   -0.8112    2.4844   -1.1276 H   0  0  0  0  0  0  0  0  0  0  0  0
   -1.4656    1.2230   -0.0777 H   0  0  0  0  0  0  0  0  0  0  0  0
    1.5778    1.3013   -1.7567 C   0  0  0  0  0  0  0  0  0  0  0  0
    1.7987    0.8915   -2.7478 H   0  0  0  0  0  0  0  0  0  0  0  0
    1.3890    2.3706   -1.8972 H   0  0  0  0  0  0  0  0  0  0  0  0
    2.8505    1.1461   -0.9266 C   0  0  0  0  0  0  0  0  0  0  0  0
    3.1744    0.1020   -0.9020 H   0  0  0  0  0  0  0  0  0  0  0  0
    3.6573    1.7344   -1.3740 H   0  0  0  0  0  0  0  0  0  0  0  0
    2.6942    1.5067    0.0944 H   0  0  0  0  0  0  0  0  0  0  0  0
    1.0289   -0.5698    1.0136 C   0  0  0  0  0  0  0  0  0  0  0  0
    2.1890   -0.8731    1.2585 O   0  0  0  0  0  0  0  0  0  0  0  0
    0.2401   -0.0975    2.0488 N   0  0  0  0  0  0  0  0  0  0  0  0
   -0.7491    0.0003    1.8500 H   0  0  0  0  0  0  0  0  0  0  0  0
    0.6827   -0.0821    3.4373 C   0  0  0  0  0  0  0  0  0  0  0  0
    1.5707    0.5489    3.5494 H   0  0  0  0  0  0  0  0  0  0  0  0
   -0.1064    0.3160    4.0821 H   0  0  0  0  0  0  0  0  0  0  0  0
    0.9266   -1.0961    3.7721 H   0  0  0  0  0  0  0  0  0  0  0  0
  1  2  1  0  0  0  0
  2  3  1  0  0  0  0
  2  4  1  0  0  0  0
  2  5  1  0  0  0  0
  5  6  2  0  0  0  0
  5  7  1  0  0  0  0
  7  8  1  0  0  0  0
  7  9  1  0  0  0  0
  9 10  1  0  0  0  0
  9 11  1  0  0  0  0
  9 24  1  0  0  0  0
 11 12  1  0  0  0  0
 11 13  1  0  0  0  0
 11 17  1  0  0  0  0
 13 14  1  0  0  0  0
 13 15  1  0  0  0  0
 13 16  1  0  0  0  0
 17 18  1  0  0  0  0
 17 19  1  0  0  0  0
 17 20  1  0  0  0  0
 20 21  1  0  0  0  0
 20 22  1  0  0  0  0
 20 23  1  0  0  0  0
 24 25  2  0  0  0  0
 24 26  1  0  0  0  0
 26 27  1  0  0  0  0
 26 28  1  0  0  0  0
 28 29  1  0  0  0  0
 28 30  1  0  0  0  0
 28 31  1  0  0  0  0
M  END
$$$$

  -OEChem-03222214053D

 31 30  0     1  0  0  0  0  0999 V2000
   -2.6272   -4.1696    0.4154 H   0  0  0  0  0  0  0  0  0  0  0  0
   -2.5938   -3.1493    0.0224 C   0  0  0  0  0  0  0  0  0  0  0  0
   -3.2716   -2.5245    0.6089 H   0  0  0  0  0  0  0  0  0  0  0  0
   -2.9277   -3.1637   -1.0178 H   0  0  0  0  0  0  0  0  0  0  0  0
   -1.1805   -2.6037    0.1073 C   0  0  0  0  0  0  0  0  0  0  0  0
   -0.3022   -3.2815    0.6071 O   0  0  0  0  0  0  0  0  0  0  0  0
   -0.9044   -1.3453   -0.3923 N   0  0  0  0  0  0  0  0  0  0  0  0
   -1.6648   -0.8638   -0.8618 H   0  0  0  0  0  0  0  0  0  0  0  0
    0.4358   -0.7207   -0.4195 C   0  0  1  0  0  0  0  0  0  0  0  0
    1.1102   -1.3882   -0.9669 H   0  0  0  0  0  0  0  0  0  0  0  0
    0.2831    0.6008   -1.2425 C   0  0  1  0  0  0  0  0  0  0  0  0
   -0.2846    0.3379   -2.1422 H   0  0  0  0  0  0  0  0  0  0  0  0
   -0.5552    1.6466   -0.4801 C   0  0  0  0  0  0  0  0  0  0  0  0
    0.0072    2.0509    0.3675 H   0  0  0  0  0  0  0  0  0  0  0  0
   -0.8147    2.4776   -1.1437 H   0  0  0  0  0  0  0  0  0  0  0  0
   -1.4879    1.2149   -0.1064 H   0  0  0  0  0  0  0  0  0  0  0  0
    1.5791    1.3008   -1.7538 C   0  0  0  0  0  0  0  0  0  0  0  0
    1.6479    1.1030   -2.8286 H   0  0  0  0  0  0  0  0  0  0  0  0
    1.4888    2.3866   -1.6440 H   0  0  0  0  0  0  0  0  0  0  0  0
    2.9173    0.8796   -1.1475 C   0  0  0  0  0  0  0  0  0  0  0  0
    3.0747   -0.1988   -1.2384 H   0  0  0  0  0  0  0  0  0  0  0  0
    3.7340    1.3840   -1.6726 H   0  0  0  0  0  0  0  0  0  0  0  0
    2.9690    1.1698   -0.0945 H   0  0  0  0  0  0  0  0  0  0  0  0
    1.0283   -0.5711    1.0095 C   0  0  0  0  0  0  0  0  0  0  0  0
    2.1896   -0.8761    1.2458 O   0  0  0  0  0  0  0  0  0  0  0  0
    0.2479   -0.0935    2.0485 N   0  0  0  0  0  0  0  0  0  0  0  0
   -0.7425    0.0043    1.8563 H   0  0  0  0  0  0  0  0  0  0  0  0
    0.6997   -0.0763    3.4339 C   0  0  0  0  0  0  0  0  0  0  0  0
    1.5897    0.5530    3.5389 H   0  0  0  0  0  0  0  0  0  0  0  0
   -0.0847    0.3245    4.0827 H   0  0  0  0  0  0  0  0  0  0  0  0
    0.9435   -1.0904    3.7683 H   0  0  0  0  0  0  0  0  0  0  0  0
  1  2  1  0  0  0  0
  2  3  1  0  0  0  0
  2  4  1  0  0  0  0
  2  5  1  0  0  0  0
  5  6  2  0  0  0  0
  5  7  1  0  0  0  0
  7  8  1  0  0  0  0
  7  9  1  0  0  0  0
  9 10  1  0  0  0  0
  9 11  1  0  0  0  0
  9 24  1  0  0  0  0
 11 12  1  0  0  0  0
 11 13  1  0  0  0  0
 11 17  1  0  0  0  0
 13 14  1  0  0  0  0
 13 15  1  0  0  0  0
 13 16  1  0  0  0  0
 17 18  1  0  0  0  0
 17 19  1  0  0  0  0
 17 20  1  0  0  0  0
 20 21  1  0  0  0  0
 20 22  1  0  0  0  0
 20 23  1  0  0  0  0
 24 25  2  0  0  0  0
 24 26  1  0  0  0  0
 26 27  1  0  0  0  0
 26 28  1  0  0  0  0
 28 29  1  0  0  0  0
 28 30  1  0  0  0  0
 28 31  1  0  0  0  0
M  END
$$$$

  -OEChem-03222214053D

 31 30  0     1  0  0  0  0  0999 V2000
   -2.6426   -4.1657    0.4305 H   0  0  0  0  0  0  0  0  0  0  0  0
   -2.6073   -3.1482    0.0304 C   0  0  0  0  0  0  0  0  0  0  0  0
   -3.2815   -2.5174    0.6146 H   0  0  0  0  0  0  0  0  0  0  0  0
   -2.9440   -3.1681   -1.0088 H   0  0  0  0  0  0  0  0  0  0  0  0
   -1.1921   -2.6068    0.1078 C   0  0  0  0  0  0  0  0  0  0  0  0
   -0.3131   -3.2855    0.6053 O   0  0  0  0  0  0  0  0  0  0  0  0
   -0.9144   -1.3499   -0.3939 N   0  0  0  0  0  0  0  0  0  0  0  0
   -1.6746   -0.8668   -0.8620 H   0  0  0  0  0  0  0  0  0  0  0  0
    0.4274   -0.7300   -0.4239 C   0  0  1  0  0  0  0  0  0  0  0  0
    1.0923   -1.4047   -0.9725 H   0  0  0  0  0  0  0  0  0  0  0  0
    0.2845    0.5992   -1.2334 C   0  0  1  0  0  0  0  0  0  0  0  0
   -0.2677    0.3269   -2.1397 H   0  0  0  0  0  0  0  0  0  0  0  0
   -0.5746    1.6428   -0.4917 C   0  0  0  0  0  0  0  0  0  0  0  0
   -0.0418    2.0385    0.3785 H   0  0  0  0  0  0  0  0  0  0  0  0
   -0.8059    2.4800   -1.1581 H   0  0  0  0  0  0  0  0  0  0  0  0
   -1.5214    1.2119   -0.1546 H   0  0  0  0  0  0  0  0  0  0  0  0
    1.5815    1.2989   -1.7444 C   0  0  0  0  0  0  0  0  0  0  0  0
    1.5038    1.3740   -2.8342 H   0  0  0  0  0  0  0  0  0  0  0  0
    1.6249    2.3245   -1.3632 H   0  0  0  0  0  0  0  0  0  0  0  0
    2.9308    0.6486   -1.4296 C   0  0  0  0  0  0  0  0  0  0  0  0
    2.9389   -0.4110   -1.6988 H   0  0  0  0  0  0  0  0  0  0  0  0
    3.7187    1.1465   -2.0027 H   0  0  0  0  0  0  0  0  0  0  0  0
    3.1764    0.7599   -0.3715 H   0  0  0  0  0  0  0  0  0  0  0  0
    1.0296   -0.5773    0.9993 C   0  0  0  0  0  0  0  0  0  0  0  0
    2.1956   -0.8704    1.2257 O   0  0  0  0  0  0  0  0  0  0  0  0
    0.2557   -0.0941    2.0407 N   0  0  0  0  0  0  0  0  0  0  0  0
   -0.7365   -0.0001    1.8553 H   0  0  0  0  0  0  0  0  0  0  0  0
    0.7206   -0.0549    3.4214 C   0  0  0  0  0  0  0  0  0  0  0  0
    1.6124    0.5748    3.5071 H   0  0  0  0  0  0  0  0  0  0  0  0
   -0.0563    0.3581    4.0715 H   0  0  0  0  0  0  0  0  0  0  0  0
    0.9664   -1.0635    3.7702 H   0  0  0  0  0  0  0  0  0  0  0  0
  1  2  1  0  0  0  0
  2  3  1  0  0  0  0
  2  4  1  0  0  0  0
  2  5  1  0  0  0  0
  5  6  2  0  0  0  0
  5  7  1  0  0  0  0
  7  8  1  0  0  0  0
  7  9  1  0  0  0  0
  9 10  1  0  0  0  0
  9 11  1  0  0  0  0
  9 24  1  0  0  0  0
 11 12  1  0  0  0  0
 11 13  1  0  0  0  0
 11 17  1  0  0  0  0
 13 14  1  0  0  0  0
 13 15  1  0  0  0  0
 13 16  1  0  0  0  0
 17 18  1  0  0  0  0
 17 19  1  0  0  0  0
 17 20  1  0  0  0  0
 20 21  1  0  0  0  0
 20 22  1  0  0  0  0
 20 23  1  0  0  0  0
 24 25  2  0  0  0  0
 24 26  1  0  0  0  0
 26 27  1  0  0  0  0
 26 28  1  0  0  0  0
 28 29  1  0  0  0  0
 28 30  1  0  0  0  0
 28 31  1  0  0  0  0
M  END
$$$$

  -OEChem-03222214053D

 31 30  0     1  0  0  0  0  0999 V2000
   -2.6371   -4.1707    0.4401 H   0  0  0  0  0  0  0  0  0  0  0  0
   -2.6049   -3.1555    0.0342 C   0  0  0  0  0  0  0  0  0  0  0  0
   -3.2831   -2.5242    0.6129 H   0  0  0  0  0  0  0  0  0  0  0  0
   -2.9393   -3.1826   -1.0057 H   0  0  0  0  0  0  0  0  0  0  0  0
   -1.1920   -2.6079    0.1118 C   0  0  0  0  0  0  0  0  0  0  0  0
   -0.3116   -3.2795    0.6166 O   0  0  0  0  0  0  0  0  0  0  0  0
   -0.9182   -1.3525   -0.3960 N   0  0  0  0  0  0  0  0  0  0  0  0
   -1.6772   -0.8795   -0.8765 H   0  0  0  0  0  0  0  0  0  0  0  0
    0.4230   -0.7319   -0.4352 C   0  0  1  0  0  0  0  0  0  0  0  0
    1.0855   -1.4059   -0.9868 H   0  0  0  0  0  0  0  0  0  0  0  0
    0.2800    0.6071   -1.2258 C   0  0  1  0  0  0  0  0  0  0  0  0
   -0.2667    0.3360   -2.1359 H   0  0  0  0  0  0  0  0  0  0  0  0
   -0.5790    1.6535   -0.4904 C   0  0  0  0  0  0  0  0  0  0  0  0
   -0.0589    2.0359    0.3933 H   0  0  0  0  0  0  0  0  0  0  0  0
   -0.7871    2.4993   -1.1534 H   0  0  0  0  0  0  0  0  0  0  0  0
   -1.5362    1.2289   -0.1749 H   0  0  0  0  0  0  0  0  0  0  0  0
    1.5785    1.2976   -1.7352 C   0  0  0  0  0  0  0  0  0  0  0  0
    1.3919    1.6585   -2.7521 H   0  0  0  0  0  0  0  0  0  0  0  0
    1.7848    2.1783   -1.1177 H   0  0  0  0  0  0  0  0  0  0  0  0
    2.8643    0.4661   -1.7505 C   0  0  0  0  0  0  0  0  0  0  0  0
    2.7092   -0.4844   -2.2691 H   0  0  0  0  0  0  0  0  0  0  0  0
    3.6483    1.0161   -2.2794 H   0  0  0  0  0  0  0  0  0  0  0  0
    3.2266    0.2728   -0.7407 H   0  0  0  0  0  0  0  0  0  0  0  0
    1.0323   -0.5740    0.9848 C   0  0  0  0  0  0  0  0  0  0  0  0
    2.2089   -0.8275    1.2018 O   0  0  0  0  0  0  0  0  0  0  0  0
    0.2612   -0.0880    2.0270 N   0  0  0  0  0  0  0  0  0  0  0  0
   -0.7346   -0.0175    1.8511 H   0  0  0  0  0  0  0  0  0  0  0  0
    0.7380   -0.0246    3.4027 C   0  0  0  0  0  0  0  0  0  0  0  0
    1.6231    0.6165    3.4721 H   0  0  0  0  0  0  0  0  0  0  0  0
   -0.0380    0.3884    4.0539 H   0  0  0  0  0  0  0  0  0  0  0  0
    0.9985   -1.0255    3.7630 H   0  0  0  0  0  0  0  0  0  0  0  0
  1  2  1  0  0  0  0
  2  3  1  0  0  0  0
  2  4  1  0  0  0  0
  2  5  1  0  0  0  0
  5  6  2  0  0  0  0
  5  7  1  0  0  0  0
  7  8  1  0  0  0  0
  7  9  1  0  0  0  0
  9 10  1  0  0  0  0
  9 11  1  0  0  0  0
  9 24  1  0  0  0  0
 11 12  1  0  0  0  0
 11 13  1  0  0  0  0
 11 17  1  0  0  0  0
 13 14  1  0  0  0  0
 13 15  1  0  0  0  0
 13 16  1  0  0  0  0
 17 18  1  0  0  0  0
 17 19  1  0  0  0  0
 17 20  1  0  0  0  0
 20 21  1  0  0  0  0
 20 22  1  0  0  0  0
 20 23  1  0  0  0  0
 24 25  2  0  0  0  0
 24 26  1  0  0  0  0
 26 27  1  0  0  0  0
 26 28  1  0  0  0  0
 28 29  1  0  0  0  0
 28 30  1  0  0  0  0
 28 31  1  0  0  0  0
M  END
$$$$

  -OEChem-03222214053D

 31 30  0     1  0  0  0  0  0999 V2000
   -2.6096   -4.2085    0.3942 H   0  0  0  0  0  0  0  0  0  0  0  0
   -2.5951   -3.1895   -0.0033 C   0  0  0  0  0  0  0  0  0  0  0  0
   -3.2914   -2.5769    0.5742 H   0  0  0  0  0  0  0  0  0  0  0  0
   -2.9195   -3.2158   -1.0463 H   0  0  0  0  0  0  0  0  0  0  0  0
   -1.1951   -2.6130    0.0918 C   0  0  0  0  0  0  0  0  0  0  0  0
   -0.3071   -3.2657    0.6083 O   0  0  0  0  0  0  0  0  0  0  0  0
   -0.9412   -1.3496   -0.4058 N   0  0  0  0  0  0  0  0  0  0  0  0
   -1.7029   -0.8897   -0.8948 H   0  0  0  0  0  0  0  0  0  0  0  0
    0.3925   -0.7154   -0.4464 C   0  0  1  0  0  0  0  0  0  0  0  0
    1.0507   -1.3871   -1.0064 H   0  0  0  0  0  0  0  0  0  0  0  0
    0.2555    0.6277   -1.2243 C   0  0  1  0  0  0  0  0  0  0  0  0
   -0.2876    0.3725   -2.1410 H   0  0  0  0  0  0  0  0  0  0  0  0
   -0.5879    1.6810   -0.4833 C   0  0  0  0  0  0  0  0  0  0  0  0
   -0.0610    2.0556    0.3996 H   0  0  0  0  0  0  0  0  0  0  0  0
   -0.7889    2.5307   -1.1435 H   0  0  0  0  0  0  0  0  0  0  0  0
   -1.5480    1.2644   -0.1661 H   0  0  0  0  0  0  0  0  0  0  0  0
    1.5740    1.2890   -1.7049 C   0  0  0  0  0  0  0  0  0  0  0  0
    1.3551    1.8951   -2.5902 H   0  0  0  0  0  0  0  0  0  0  0  0
    1.9346    1.9692   -0.9261 H   0  0  0  0  0  0  0  0  0  0  0  0
    2.7300    0.3379   -2.0344 C   0  0  0  0  0  0  0  0  0  0  0  0
    2.4091   -0.4173   -2.7583 H   0  0  0  0  0  0  0  0  0  0  0  0
    3.5580    0.9033   -2.4723 H   0  0  0  0  0  0  0  0  0  0  0  0
    3.1088   -0.1649   -1.1432 H   0  0  0  0  0  0  0  0  0  0  0  0
    1.0286   -0.5551    0.9608 C   0  0  0  0  0  0  0  0  0  0  0  0
    2.2292   -0.7175    1.1295 O   0  0  0  0  0  0  0  0  0  0  0  0
    0.2742   -0.0827    2.0211 N   0  0  0  0  0  0  0  0  0  0  0  0
   -0.7299   -0.0655    1.8816 H   0  0  0  0  0  0  0  0  0  0  0  0
    0.7974    0.0279    3.3771 C   0  0  0  0  0  0  0  0  0  0  0  0
    1.6557    0.7076    3.4029 H   0  0  0  0  0  0  0  0  0  0  0  0
    0.0279    0.4196    4.0489 H   0  0  0  0  0  0  0  0  0  0  0  0
    1.1140   -0.9538    3.7451 H   0  0  0  0  0  0  0  0  0  0  0  0
  1  2  1  0  0  0  0
  2  3  1  0  0  0  0
  2  4  1  0  0  0  0
  2  5  1  0  0  0  0
  5  6  2  0  0  0  0
  5  7  1  0  0  0  0
  7  8  1  0  0  0  0
  7  9  1  0  0  0  0
  9 10  1  0  0  0  0
  9 11  1  0  0  0  0
  9 24  1  0  0  0  0
 11 12  1  0  0  0  0
 11 13  1  0  0  0  0
 11 17  1  0  0  0  0
 13 14  1  0  0  0  0
 13 15  1  0  0  0  0
 13 16  1  0  0  0  0
 17 18  1  0  0  0  0
 17 19  1  0  0  0  0
 17 20  1  0  0  0  0
 20 21  1  0  0  0  0
 20 22  1  0  0  0  0
 20 23  1  0  0  0  0
 24 25  2  0  0  0  0
 24 26  1  0  0  0  0
 26 27  1  0  0  0  0
 26 28  1  0  0  0  0
 28 29  1  0  0  0  0
 28 30  1  0  0  0  0
 28 31  1  0  0  0  0
M  END
$$$$

  -OEChem-03222214053D

 31 30  0     1  0  0  0  0  0999 V2000
   -2.5826   -4.2479    0.3264 H   0  0  0  0  0  0  0  0  0  0  0  0
   -2.5872   -3.2246   -0.0601 C   0  0  0  0  0  0  0  0  0  0  0  0
   -3.3066   -2.6352    0.5133 H   0  0  0  0  0  0  0  0  0  0  0  0
   -2.8955   -3.2473   -1.1080 H   0  0  0  0  0  0  0  0  0  0  0  0
   -1.2027   -2.6161    0.0609 C   0  0  0  0  0  0  0  0  0  0  0  0
   -0.3046   -3.2549    0.5779 O   0  0  0  0  0  0  0  0  0  0  0  0
   -0.9717   -1.3400   -0.4141 N   0  0  0  0  0  0  0  0  0  0  0  0
   -1.7388   -0.8876   -0.9019 H   0  0  0  0  0  0  0  0  0  0  0  0
    0.3527   -0.6883   -0.4480 C   0  0  1  0  0  0  0  0  0  0  0  0
    1.0045   -1.3603   -1.0142 H   0  0  0  0  0  0  0  0  0  0  0  0
    0.2233    0.6501   -1.2292 C   0  0  1  0  0  0  0  0  0  0  0  0
   -0.3167    0.4122   -2.1520 H   0  0  0  0  0  0  0  0  0  0  0  0
   -0.6012    1.7099   -0.4786 C   0  0  0  0  0  0  0  0  0  0  0  0
   -0.0642    2.0737    0.4027 H   0  0  0  0  0  0  0  0  0  0  0  0
   -0.7961    2.5653   -1.1330 H   0  0  0  0  0  0  0  0  0  0  0  0
   -1.5639    1.3019   -0.1576 H   0  0  0  0  0  0  0  0  0  0  0  0
    1.5670    1.2785   -1.6698 C   0  0  0  0  0  0  0  0  0  0  0  0
    1.3594    2.0694   -2.3980 H   0  0  0  0  0  0  0  0  0  0  0  0
    2.0487    1.7473   -0.8050 H   0  0  0  0  0  0  0  0  0  0  0  0
    2.5677    0.2969   -2.2891 C   0  0  0  0  0  0  0  0  0  0  0  0
    2.0956   -0.2742   -3.0944 H   0  0  0  0  0  0  0  0  0  0  0  0
    3.4156    0.8479   -2.7069 H   0  0  0  0  0  0  0  0  0  0  0  0
    2.9580   -0.3989   -1.5412 H   0  0  0  0  0  0  0  0  0  0  0  0
    1.0253   -0.5290    0.9385 C   0  0  0  0  0  0  0  0  0  0  0  0
    2.2413   -0.6178    1.0461 O   0  0  0  0  0  0  0  0  0  0  0  0
    0.2955   -0.0773    2.0241 N   0  0  0  0  0  0  0  0  0  0  0  0
   -0.7136   -0.1055    1.9266 H   0  0  0  0  0  0  0  0  0  0  0  0
    0.8692    0.0719    3.3553 C   0  0  0  0  0  0  0  0  0  0  0  0
    1.7026    0.7820    3.3368 H   0  0  0  0  0  0  0  0  0  0  0  0
    0.1139    0.4458    4.0530 H   0  0  0  0  0  0  0  0  0  0  0  0
    1.2360   -0.8922    3.7233 H   0  0  0  0  0  0  0  0  0  0  0  0
  1  2  1  0  0  0  0
  2  3  1  0  0  0  0
  2  4  1  0  0  0  0
  2  5  1  0  0  0  0
  5  6  2  0  0  0  0
  5  7  1  0  0  0  0
  7  8  1  0  0  0  0
  7  9  1  0  0  0  0
  9 10  1  0  0  0  0
  9 11  1  0  0  0  0
  9 24  1  0  0  0  0
 11 12  1  0  0  0  0
 11 13  1  0  0  0  0
 11 17  1  0  0  0  0
 13 14  1  0  0  0  0
 13 15  1  0  0  0  0
 13 16  1  0  0  0  0
 17 18  1  0  0  0  0
 17 19  1  0  0  0  0
 17 20  1  0  0  0  0
 20 21  1  0  0  0  0
 20 22  1  0  0  0  0
 20 23  1  0  0  0  0
 24 25  2  0  0  0  0
 24 26  1  0  0  0  0
 26 27  1  0  0  0  0
 26 28  1  0  0  0  0
 28 29  1  0  0  0  0
 28 30  1  0  0  0  0
 28 31  1  0  0  0  0
M  END
$$$$

  -OEChem-03222214053D

 31 30  0     1  0  0  0  0  0999 V2000
   -2.5560   -4.2605    0.2936 H   0  0  0  0  0  0  0  0  0  0  0  0
   -2.5704   -3.2345   -0.0858 C   0  0  0  0  0  0  0  0  0  0  0  0
   -3.2992   -2.6579    0.4886 H   0  0  0  0  0  0  0  0  0  0  0  0
   -2.8739   -3.2529   -1.1353 H   0  0  0  0  0  0  0  0  0  0  0  0
   -1.1938   -2.6106    0.0463 C   0  0  0  0  0  0  0  0  0  0  0  0
   -0.2904   -3.2412    0.5640 O   0  0  0  0  0  0  0  0  0  0  0  0
   -0.9769   -1.3282   -0.4181 N   0  0  0  0  0  0  0  0  0  0  0  0
   -1.7470   -0.8827   -0.9072 H   0  0  0  0  0  0  0  0  0  0  0  0
    0.3412   -0.6645   -0.4494 C   0  0  1  0  0  0  0  0  0  0  0  0
    0.9975   -1.3309   -1.0164 H   0  0  0  0  0  0  0  0  0  0  0  0
    0.2048    0.6675   -1.2388 C   0  0  1  0  0  0  0  0  0  0  0  0
   -0.3431    0.4414   -2.1600 H   0  0  0  0  0  0  0  0  0  0  0  0
   -0.6034    1.7287   -0.4727 C   0  0  0  0  0  0  0  0  0  0  0  0
   -0.0472    2.0935    0.3965 H   0  0  0  0  0  0  0  0  0  0  0  0
   -0.8126    2.5833   -1.1238 H   0  0  0  0  0  0  0  0  0  0  0  0
   -1.5590    1.3214   -0.1304 H   0  0  0  0  0  0  0  0  0  0  0  0
    1.5608    1.2779   -1.6595 C   0  0  0  0  0  0  0  0  0  0  0  0
    1.3717    2.2096   -2.2027 H   0  0  0  0  0  0  0  0  0  0  0  0
    2.1496    1.5325   -0.7718 H   0  0  0  0  0  0  0  0  0  0  0  0
    2.3921    0.3633   -2.5642 C   0  0  0  0  0  0  0  0  0  0  0  0
    1.7938    0.0109   -3.4098 H   0  0  0  0  0  0  0  0  0  0  0  0
    3.2540    0.9126   -2.9547 H   0  0  0  0  0  0  0  0  0  0  0  0
    2.7693   -0.5015   -2.0107 H   0  0  0  0  0  0  0  0  0  0  0  0
    1.0239   -0.5068    0.9313 C   0  0  0  0  0  0  0  0  0  0  0  0
    2.2424   -0.5839    1.0216 O   0  0  0  0  0  0  0  0  0  0  0  0
    0.3009   -0.0687    2.0269 N   0  0  0  0  0  0  0  0  0  0  0  0
   -0.7087   -0.1088    1.9404 H   0  0  0  0  0  0  0  0  0  0  0  0
    0.8877    0.0783    3.3526 C   0  0  0  0  0  0  0  0  0  0  0  0
    1.7140    0.7964    3.3292 H   0  0  0  0  0  0  0  0  0  0  0  0
    0.1367    0.4412    4.0606 H   0  0  0  0  0  0  0  0  0  0  0  0
    1.2674   -0.8846    3.7104 H   0  0  0  0  0  0  0  0  0  0  0  0
  1  2  1  0  0  0  0
  2  3  1  0  0  0  0
  2  4  1  0  0  0  0
  2  5  1  0  0  0  0
  5  6  2  0  0  0  0
  5  7  1  0  0  0  0
  7  8  1  0  0  0  0
  7  9  1  0  0  0  0
  9 10  1  0  0  0  0
  9 11  1  0  0  0  0
  9 24  1  0  0  0  0
 11 12  1  0  0  0  0
 11 13  1  0  0  0  0
 11 17  1  0  0  0  0
 13 14  1  0  0  0  0
 13 15  1  0  0  0  0
 13 16  1  0  0  0  0
 17 18  1  0  0  0  0
 17 19  1  0  0  0  0
 17 20  1  0  0  0  0
 20 21  1  0  0  0  0
 20 22  1  0  0  0  0
 20 23  1  0  0  0  0
 24 25  2  0  0  0  0
 24 26  1  0  0  0  0
 26 27  1  0  0  0  0
 26 28  1  0  0  0  0
 28 29  1  0  0  0  0
 28 30  1  0  0  0  0
 28 31  1  0  0  0  0
M  END
$$$$

  -OEChem-03222214053D

 31 30  0     1  0  0  0  0  0999 V2000
   -2.5288   -4.2544    0.3071 H   0  0  0  0  0  0  0  0  0  0  0  0
   -2.5478   -3.2294   -0.0741 C   0  0  0  0  0  0  0  0  0  0  0  0
   -3.2687   -2.6505    0.5079 H   0  0  0  0  0  0  0  0  0  0  0  0
   -2.8654   -3.2503   -1.1193 H   0  0  0  0  0  0  0  0  0  0  0  0
   -1.1691   -2.6063    0.0386 C   0  0  0  0  0  0  0  0  0  0  0  0
   -0.2584   -3.2389    0.5410 O   0  0  0  0  0  0  0  0  0  0  0  0
   -0.9589   -1.3224   -0.4251 N   0  0  0  0  0  0  0  0  0  0  0  0
   -1.7357   -0.8752   -0.9017 H   0  0  0  0  0  0  0  0  0  0  0  0
    0.3545   -0.6491   -0.4569 C   0  0  1  0  0  0  0  0  0  0  0  0
    1.0256   -1.3013   -1.0246 H   0  0  0  0  0  0  0  0  0  0  0  0
    0.2011    0.6804   -1.2494 C   0  0  1  0  0  0  0  0  0  0  0  0
   -0.3606    0.4630   -2.1643 H   0  0  0  0  0  0  0  0  0  0  0  0
   -0.5959    1.7366   -0.4640 C   0  0  0  0  0  0  0  0  0  0  0  0
   -0.0202    2.1050    0.3909 H   0  0  0  0  0  0  0  0  0  0  0  0
   -0.8268    2.5899   -1.1095 H   0  0  0  0  0  0  0  0  0  0  0  0
   -1.5403    1.3230   -0.0989 H   0  0  0  0  0  0  0  0  0  0  0  0
    1.5604    1.2862   -1.6650 C   0  0  0  0  0  0  0  0  0  0  0  0
    1.4077    2.3216   -1.9866 H   0  0  0  0  0  0  0  0  0  0  0  0
    2.2494    1.3118   -0.8152 H   0  0  0  0  0  0  0  0  0  0  0  0
    2.2040    0.5307   -2.8309 C   0  0  0  0  0  0  0  0  0  0  0  0
    1.5248    0.4925   -3.6881 H   0  0  0  0  0  0  0  0  0  0  0  0
    3.1225    1.0388   -3.1404 H   0  0  0  0  0  0  0  0  0  0  0  0
    2.4632   -0.4914   -2.5405 H   0  0  0  0  0  0  0  0  0  0  0  0
    1.0244   -0.4939    0.9316 C   0  0  0  0  0  0  0  0  0  0  0  0
    2.2404   -0.5857    1.0385 O   0  0  0  0  0  0  0  0  0  0  0  0
    0.2899   -0.0652    2.0234 N   0  0  0  0  0  0  0  0  0  0  0  0
   -0.7187   -0.0963    1.9233 H   0  0  0  0  0  0  0  0  0  0  0  0
    0.8605    0.0649    3.3580 C   0  0  0  0  0  0  0  0  0  0  0  0
    1.6932    0.7760    3.3521 H   0  0  0  0  0  0  0  0  0  0  0  0
    0.1036    0.4281    4.0595 H   0  0  0  0  0  0  0  0  0  0  0  0
    1.2272   -0.9043    3.7121 H   0  0  0  0  0  0  0  0  0  0  0  0
  1  2  1  0  0  0  0
  2  3  1  0  0  0  0
  2  4  1  0  0  0  0
  2  5  1  0  0  0  0
  5  6  2  0  0  0  0
  5  7  1  0  0  0  0
  7  8  1  0  0  0  0
  7  9  1  0  0  0  0
  9 10  1  0  0  0  0
  9 11  1  0  0  0  0
  9 24  1  0  0  0  0
 11 12  1  0  0  0  0
 11 13  1  0  0  0  0
 11 17  1  0  0  0  0
 13 14  1  0  0  0  0
 13 15  1  0  0  0  0
 13 16  1  0  0  0  0
 17 18  1  0  0  0  0
 17 19  1  0  0  0  0
 17 20  1  0  0  0  0
 20 21  1  0  0  0  0
 20 22  1  0  0  0  0
 20 23  1  0  0  0  0
 24 25  2  0  0  0  0
 24 26  1  0  0  0  0
 26 27  1  0  0  0  0
 26 28  1  0  0  0  0
 28 29  1  0  0  0  0
 28 30  1  0  0  0  0
 28 31  1  0  0  0  0
M  END
$$$$

  -OEChem-03222214053D

 31 30  0     1  0  0  0  0  0999 V2000
   -2.5091   -4.2514    0.3021 H   0  0  0  0  0  0  0  0  0  0  0  0
   -2.5301   -3.2259   -0.0780 C   0  0  0  0  0  0  0  0  0  0  0  0
   -3.2557   -2.6509    0.5019 H   0  0  0  0  0  0  0  0  0  0  0  0
   -2.8423   -3.2464   -1.1249 H   0  0  0  0  0  0  0  0  0  0  0  0
   -1.1545   -2.5973    0.0417 C   0  0  0  0  0  0  0  0  0  0  0  0
   -0.2440   -3.2270    0.5477 O   0  0  0  0  0  0  0  0  0  0  0  0
   -0.9466   -1.3138   -0.4240 N   0  0  0  0  0  0  0  0  0  0  0  0
   -1.7238   -0.8709   -0.9041 H   0  0  0  0  0  0  0  0  0  0  0  0
    0.3656   -0.6378   -0.4576 C   0  0  1  0  0  0  0  0  0  0  0  0
    1.0449   -1.2788   -1.0306 H   0  0  0  0  0  0  0  0  0  0  0  0
    0.2005    0.6896   -1.2503 C   0  0  1  0  0  0  0  0  0  0  0  0
   -0.3708    0.4732   -2.1597 H   0  0  0  0  0  0  0  0  0  0  0  0
   -0.5952    1.7421   -0.4577 C   0  0  0  0  0  0  0  0  0  0  0  0
   -0.0157    2.1104    0.3948 H   0  0  0  0  0  0  0  0  0  0  0  0
   -0.8324    2.5957   -1.1005 H   0  0  0  0  0  0  0  0  0  0  0  0
   -1.5365    1.3255   -0.0880 H   0  0  0  0  0  0  0  0  0  0  0  0
    1.5644    1.2898   -1.6654 C   0  0  0  0  0  0  0  0  0  0  0  0
    1.4832    2.3794   -1.7370 H   0  0  0  0  0  0  0  0  0  0  0  0
    2.3351    1.0764   -0.9196 H   0  0  0  0  0  0  0  0  0  0  0  0
    2.0100    0.7688   -3.0331 C   0  0  0  0  0  0  0  0  0  0  0  0
    1.2792    1.0326   -3.8038 H   0  0  0  0  0  0  0  0  0  0  0  0
    2.9735    1.2104   -3.3052 H   0  0  0  0  0  0  0  0  0  0  0  0
    2.1224   -0.3195   -3.0122 H   0  0  0  0  0  0  0  0  0  0  0  0
    1.0274   -0.4840    0.9365 C   0  0  0  0  0  0  0  0  0  0  0  0
    2.2408   -0.5926    1.0572 O   0  0  0  0  0  0  0  0  0  0  0  0
    0.2862   -0.0579    2.0249 N   0  0  0  0  0  0  0  0  0  0  0  0
   -0.7216   -0.0805    1.9160 H   0  0  0  0  0  0  0  0  0  0  0  0
    0.8452    0.0575    3.3658 C   0  0  0  0  0  0  0  0  0  0  0  0
    1.6789    0.7676    3.3742 H   0  0  0  0  0  0  0  0  0  0  0  0
    0.0827    0.4141    4.0647 H   0  0  0  0  0  0  0  0  0  0  0  0
    1.2075   -0.9158    3.7134 H   0  0  0  0  0  0  0  0  0  0  0  0
  1  2  1  0  0  0  0
  2  3  1  0  0  0  0
  2  4  1  0  0  0  0
  2  5  1  0  0  0  0
  5  6  2  0  0  0  0
  5  7  1  0  0  0  0
  7  8  1  0  0  0  0
  7  9  1  0  0  0  0
  9 10  1  0  0  0  0
  9 11  1  0  0  0  0
  9 24  1  0  0  0  0
 11 12  1  0  0  0  0
 11 13  1  0  0  0  0
 11 17  1  0  0  0  0
 13 14  1  0  0  0  0
 13 15  1  0  0  0  0
 13 16  1  0  0  0  0
 17 18  1  0  0  0  0
 17 19  1  0  0  0  0
 17 20  1  0  0  0  0
 20 21  1  0  0  0  0
 20 22  1  0  0  0  0
 20 23  1  0  0  0  0
 24 25  2  0  0  0  0
 24 26  1  0  0  0  0
 26 27  1  0  0  0  0
 26 28  1  0  0  0  0
 28 29  1  0  0  0  0
 28 30  1  0  0  0  0
 28 31  1  0  0  0  0
M  END
$$$$

  -OEChem-03222214053D

 31 30  0     1  0  0  0  0  0999 V2000
   -2.5101   -4.2481    0.3032 H   0  0  0  0  0  0  0  0  0  0  0  0
   -2.5305   -3.2209   -0.0726 C   0  0  0  0  0  0  0  0  0  0  0  0
   -3.2540   -2.6472    0.5114 H   0  0  0  0  0  0  0  0  0  0  0  0
   -2.8455   -3.2365   -1.1187 H   0  0  0  0  0  0  0  0  0  0  0  0
   -1.1533   -2.5952    0.0460 C   0  0  0  0  0  0  0  0  0  0  0  0
   -0.2444   -3.2249    0.5550 O   0  0  0  0  0  0  0  0  0  0  0  0
   -0.9436   -1.3126   -0.4213 N   0  0  0  0  0  0  0  0  0  0  0  0
   -1.7196   -0.8703   -0.9039 H   0  0  0  0  0  0  0  0  0  0  0  0
    0.3689   -0.6375   -0.4562 C   0  0  1  0  0  0  0  0  0  0  0  0
    1.0483   -1.2767   -1.0317 H   0  0  0  0  0  0  0  0  0  0  0  0
    0.2049    0.6915   -1.2444 C   0  0  1  0  0  0  0  0  0  0  0  0
   -0.3637    0.4662   -2.1536 H   0  0  0  0  0  0  0  0  0  0  0  0
   -0.6037    1.7423   -0.4628 C   0  0  0  0  0  0  0  0  0  0  0  0
   -0.0412    2.1057    0.4029 H   0  0  0  0  0  0  0  0  0  0  0  0
   -0.8254    2.5989   -1.1074 H   0  0  0  0  0  0  0  0  0  0  0  0
   -1.5532    1.3260   -0.1141 H   0  0  0  0  0  0  0  0  0  0  0  0
    1.5727    1.2897   -1.6599 C   0  0  0  0  0  0  0  0  0  0  0  0
    1.5936    2.3659   -1.4586 H   0  0  0  0  0  0  0  0  0  0  0  0
    2.3897    0.8437   -1.0857 H   0  0  0  0  0  0  0  0  0  0  0  0
    1.8414    1.0789   -3.1508 C   0  0  0  0  0  0  0  0  0  0  0  0
    1.0720    1.5701   -3.7547 H   0  0  0  0  0  0  0  0  0  0  0  0
    2.8144    1.5017   -3.4195 H   0  0  0  0  0  0  0  0  0  0  0  0
    1.8498    0.0109   -3.3902 H   0  0  0  0  0  0  0  0  0  0  0  0
    1.0290   -0.4837    0.9390 C   0  0  0  0  0  0  0  0  0  0  0  0
    2.2426   -0.5877    1.0614 O   0  0  0  0  0  0  0  0  0  0  0  0
    0.2860   -0.0566    2.0258 N   0  0  0  0  0  0  0  0  0  0  0  0
   -0.7216   -0.0882    1.9169 H   0  0  0  0  0  0  0  0  0  0  0  0
    0.8434    0.0549    3.3676 C   0  0  0  0  0  0  0  0  0  0  0  0
    1.6772    0.7648    3.3784 H   0  0  0  0  0  0  0  0  0  0  0  0
    0.0802    0.4095    4.0666 H   0  0  0  0  0  0  0  0  0  0  0  0
    1.2053   -0.9196    3.7125 H   0  0  0  0  0  0  0  0  0  0  0  0
  1  2  1  0  0  0  0
  2  3  1  0  0  0  0
  2  4  1  0  0  0  0
  2  5  1  0  0  0  0
  5  6  2  0  0  0  0
  5  7  1  0  0  0  0
  7  8  1  0  0  0  0
  7  9  1  0  0  0  0
  9 10  1  0  0  0  0
  9 11  1  0  0  0  0
  9 24  1  0  0  0  0
 11 12  1  0  0  0  0
 11 13  1  0  0  0  0
 11 17  1  0  0  0  0
 13 14  1  0  0  0  0
 13 15  1  0  0  0  0
 13 16  1  0  0  0  0
 17 18  1  0  0  0  0
 17 19  1  0  0  0  0
 17 20  1  0  0  0  0
 20 21  1  0  0  0  0
 20 22  1  0  0  0  0
 20 23  1  0  0  0  0
 24 25  2  0  0  0  0
 24 26  1  0  0  0  0
 26 27  1  0  0  0  0
 26 28  1  0  0  0  0
 28 29  1  0  0  0  0
 28 30  1  0  0  0  0
 28 31  1  0  0  0  0
M  END
$$$$

  -OEChem-03222214053D

 31 30  0     1  0  0  0  0  0999 V2000
   -2.5189   -4.2551    0.3034 H   0  0  0  0  0  0  0  0  0  0  0  0
   -2.5393   -3.2288   -0.0747 C   0  0  0  0  0  0  0  0  0  0  0  0
   -3.2653   -2.6546    0.5061 H   0  0  0  0  0  0  0  0  0  0  0  0
   -2.8511   -3.2475   -1.1218 H   0  0  0  0  0  0  0  0  0  0  0  0
   -1.1634   -2.6005    0.0463 C   0  0  0  0  0  0  0  0  0  0  0  0
   -0.2537   -3.2296    0.5546 O   0  0  0  0  0  0  0  0  0  0  0  0
   -0.9543   -1.3171   -0.4197 N   0  0  0  0  0  0  0  0  0  0  0  0
   -1.7303   -0.8741   -0.9019 H   0  0  0  0  0  0  0  0  0  0  0  0
    0.3594   -0.6440   -0.4555 C   0  0  1  0  0  0  0  0  0  0  0  0
    1.0332   -1.2859   -1.0347 H   0  0  0  0  0  0  0  0  0  0  0  0
    0.2053    0.6913   -1.2326 C   0  0  1  0  0  0  0  0  0  0  0  0
   -0.3515    0.4577   -2.1469 H   0  0  0  0  0  0  0  0  0  0  0  0
   -0.6138    1.7454   -0.4673 C   0  0  0  0  0  0  0  0  0  0  0  0
   -0.0738    2.0974    0.4171 H   0  0  0  0  0  0  0  0  0  0  0  0
   -0.8074    2.6082   -1.1125 H   0  0  0  0  0  0  0  0  0  0  0  0
   -1.5766    1.3360   -0.1484 H   0  0  0  0  0  0  0  0  0  0  0  0
    1.5791    1.2802   -1.6426 C   0  0  0  0  0  0  0  0  0  0  0  0
    1.7310    2.2602   -1.1782 H   0  0  0  0  0  0  0  0  0  0  0  0
    2.3943    0.6361   -1.2982 H   0  0  0  0  0  0  0  0  0  0  0  0
    1.6978    1.4219   -3.1612 C   0  0  0  0  0  0  0  0  0  0  0  0
    0.9205    2.0895   -3.5459 H   0  0  0  0  0  0  0  0  0  0  0  0
    2.6745    1.8401   -3.4237 H   0  0  0  0  0  0  0  0  0  0  0  0
    1.5975    0.4461   -3.6466 H   0  0  0  0  0  0  0  0  0  0  0  0
    1.0285   -0.4898    0.9344 C   0  0  0  0  0  0  0  0  0  0  0  0
    2.2448   -0.5744    1.0436 O   0  0  0  0  0  0  0  0  0  0  0  0
    0.2916   -0.0612    2.0247 N   0  0  0  0  0  0  0  0  0  0  0  0
   -0.7167   -0.0991    1.9243 H   0  0  0  0  0  0  0  0  0  0  0  0
    0.8602    0.0727    3.3599 C   0  0  0  0  0  0  0  0  0  0  0  0
    1.6863    0.7915    3.3549 H   0  0  0  0  0  0  0  0  0  0  0  0
    0.0992    0.4281    4.0610 H   0  0  0  0  0  0  0  0  0  0  0  0
    1.2357   -0.8933    3.7137 H   0  0  0  0  0  0  0  0  0  0  0  0
  1  2  1  0  0  0  0
  2  3  1  0  0  0  0
  2  4  1  0  0  0  0
  2  5  1  0  0  0  0
  5  6  2  0  0  0  0
  5  7  1  0  0  0  0
  7  8  1  0  0  0  0
  7  9  1  0  0  0  0
  9 10  1  0  0  0  0
  9 11  1  0  0  0  0
  9 24  1  0  0  0  0
 11 12  1  0  0  0  0
 11 13  1  0  0  0  0
 11 17  1  0  0  0  0
 13 14  1  0  0  0  0
 13 15  1  0  0  0  0
 13 16  1  0  0  0  0
 17 18  1  0  0  0  0
 17 19  1  0  0  0  0
 17 20  1  0  0  0  0
 20 21  1  0  0  0  0
 20 22  1  0  0  0  0
 20 23  1  0  0  0  0
 24 25  2  0  0  0  0
 24 26  1  0  0  0  0
 26 27  1  0  0  0  0
 26 28  1  0  0  0  0
 28 29  1  0  0  0  0
 28 30  1  0  0  0  0
 28 31  1  0  0  0  0
M  END
$$$$

  -OEChem-03222214053D

 31 30  0     1  0  0  0  0  0999 V2000
   -2.5239   -4.2617    0.3001 H   0  0  0  0  0  0  0  0  0  0  0  0
   -2.5465   -3.2364   -0.0802 C   0  0  0  0  0  0  0  0  0  0  0  0
   -3.2754   -2.6632    0.4976 H   0  0  0  0  0  0  0  0  0  0  0  0
   -2.8562   -3.2582   -1.1278 H   0  0  0  0  0  0  0  0  0  0  0  0
   -1.1724   -2.6049    0.0429 C   0  0  0  0  0  0  0  0  0  0  0  0
   -0.2616   -3.2322    0.5516 O   0  0  0  0  0  0  0  0  0  0  0  0
   -0.9652   -1.3201   -0.4194 N   0  0  0  0  0  0  0  0  0  0  0  0
   -1.7404   -0.8779   -0.9034 H   0  0  0  0  0  0  0  0  0  0  0  0
    0.3481   -0.6471   -0.4539 C   0  0  1  0  0  0  0  0  0  0  0  0
    1.0170   -1.2917   -1.0357 H   0  0  0  0  0  0  0  0  0  0  0  0
    0.2009    0.6908   -1.2244 C   0  0  1  0  0  0  0  0  0  0  0  0
   -0.3423    0.4519   -2.1454 H   0  0  0  0  0  0  0  0  0  0  0  0
   -0.6236    1.7495   -0.4726 C   0  0  0  0  0  0  0  0  0  0  0  0
   -0.0974    2.0970    0.4217 H   0  0  0  0  0  0  0  0  0  0  0  0
   -0.8007    2.6142   -1.1196 H   0  0  0  0  0  0  0  0  0  0  0  0
   -1.5940    1.3451   -0.1709 H   0  0  0  0  0  0  0  0  0  0  0  0
    1.5797    1.2682   -1.6243 C   0  0  0  0  0  0  0  0  0  0  0  0
    1.8620    2.0855   -0.9524 H   0  0  0  0  0  0  0  0  0  0  0  0
    2.3542    0.4993   -1.5338 H   0  0  0  0  0  0  0  0  0  0  0  0
    1.5842    1.7612   -3.0724 C   0  0  0  0  0  0  0  0  0  0  0  0
    0.8331    2.5446   -3.2127 H   0  0  0  0  0  0  0  0  0  0  0  0
    2.5662    2.1731   -3.3243 H   0  0  0  0  0  0  0  0  0  0  0  0
    1.3680    0.9376   -3.7600 H   0  0  0  0  0  0  0  0  0  0  0  0
    1.0277   -0.4916    0.9296 C   0  0  0  0  0  0  0  0  0  0  0  0
    2.2467   -0.5560    1.0220 O   0  0  0  0  0  0  0  0  0  0  0  0
    0.2987   -0.0633    2.0251 N   0  0  0  0  0  0  0  0  0  0  0  0
   -0.7104   -0.1099    1.9359 H   0  0  0  0  0  0  0  0  0  0  0  0
    0.8805    0.0902    3.3522 C   0  0  0  0  0  0  0  0  0  0  0  0
    1.6989    0.8176    3.3304 H   0  0  0  0  0  0  0  0  0  0  0  0
    0.1239    0.4450    4.0584 H   0  0  0  0  0  0  0  0  0  0  0  0
    1.2696   -0.8684    3.7116 H   0  0  0  0  0  0  0  0  0  0  0  0
  1  2  1  0  0  0  0
  2  3  1  0  0  0  0
  2  4  1  0  0  0  0
  2  5  1  0  0  0  0
  5  6  2  0  0  0  0
  5  7  1  0  0  0  0
  7  8  1  0  0  0  0
  7  9  1  0  0  0  0
  9 10  1  0  0  0  0
  9 11  1  0  0  0  0
  9 24  1  0  0  0  0
 11 12  1  0  0  0  0
 11 13  1  0  0  0  0
 11 17  1  0  0  0  0
 13 14  1  0  0  0  0
 13 15  1  0  0  0  0
 13 16  1  0  0  0  0
 17 18  1  0  0  0  0
 17 19  1  0  0  0  0
 17 20  1  0  0  0  0
 20 21  1  0  0  0  0
 20 22  1  0  0  0  0
 20 23  1  0  0  0  0
 24 25  2  0  0  0  0
 24 26  1  0  0  0  0
 26 27  1  0  0  0  0
 26 28  1  0  0  0  0
 28 29  1  0  0  0  0
 28 30  1  0  0  0  0
 28 31  1  0  0  0  0
M  END
$$$$

  -OEChem-03222214053D

 31 30  0     1  0  0  0  0  0999 V2000
   -2.5234   -4.2696    0.2817 H   0  0  0  0  0  0  0  0  0  0  0  0
   -2.5473   -3.2419   -0.0921 C   0  0  0  0  0  0  0  0  0  0  0  0
   -3.2838   -2.6753    0.4826 H   0  0  0  0  0  0  0  0  0  0  0  0
   -2.8469   -3.2579   -1.1427 H   0  0  0  0  0  0  0  0  0  0  0  0
   -1.1777   -2.6044    0.0465 C   0  0  0  0  0  0  0  0  0  0  0  0
   -0.2688   -3.2266    0.5651 O   0  0  0  0  0  0  0  0  0  0  0  0
   -0.9732   -1.3190   -0.4149 N   0  0  0  0  0  0  0  0  0  0  0  0
   -1.7468   -0.8818   -0.9060 H   0  0  0  0  0  0  0  0  0  0  0  0
    0.3390   -0.6443   -0.4502 C   0  0  1  0  0  0  0  0  0  0  0  0
    1.0066   -1.2914   -1.0305 H   0  0  0  0  0  0  0  0  0  0  0  0
    0.1923    0.6916   -1.2239 C   0  0  1  0  0  0  0  0  0  0  0  0
   -0.3434    0.4538   -2.1493 H   0  0  0  0  0  0  0  0  0  0  0  0
   -0.6333    1.7480   -0.4678 C   0  0  0  0  0  0  0  0  0  0  0  0
   -0.0970    2.1070    0.4158 H   0  0  0  0  0  0  0  0  0  0  0  0
   -0.8334    2.6069   -1.1150 H   0  0  0  0  0  0  0  0  0  0  0  0
   -1.5940    1.3344   -0.1480 H   0  0  0  0  0  0  0  0  0  0  0  0
    1.5750    1.2582   -1.6166 C   0  0  0  0  0  0  0  0  0  0  0  0
    1.9752    1.8756   -0.8053 H   0  0  0  0  0  0  0  0  0  0  0  0
    2.2825    0.4375   -1.7756 H   0  0  0  0  0  0  0  0  0  0  0  0
    1.5118    2.0742   -2.9101 C   0  0  0  0  0  0  0  0  0  0  0  0
    0.8409    2.9307   -2.7966 H   0  0  0  0  0  0  0  0  0  0  0  0
    2.5085    2.4485   -3.1634 H   0  0  0  0  0  0  0  0  0  0  0  0
    1.1548    1.4551   -3.7391 H   0  0  0  0  0  0  0  0  0  0  0  0
    1.0249   -0.4862    0.9291 C   0  0  0  0  0  0  0  0  0  0  0  0
    2.2452   -0.5415    1.0114 O   0  0  0  0  0  0  0  0  0  0  0  0
    0.3017   -0.0582    2.0284 N   0  0  0  0  0  0  0  0  0  0  0  0
   -0.7078   -0.1145    1.9482 H   0  0  0  0  0  0  0  0  0  0  0  0
    0.8947    0.1022    3.3500 C   0  0  0  0  0  0  0  0  0  0  0  0
    1.7064    0.8368    3.3197 H   0  0  0  0  0  0  0  0  0  0  0  0
    0.1418    0.4510    4.0630 H   0  0  0  0  0  0  0  0  0  0  0  0
    1.2966   -0.8522    3.7067 H   0  0  0  0  0  0  0  0  0  0  0  0
  1  2  1  0  0  0  0
  2  3  1  0  0  0  0
  2  4  1  0  0  0  0
  2  5  1  0  0  0  0
  5  6  2  0  0  0  0
  5  7  1  0  0  0  0
  7  8  1  0  0  0  0
  7  9  1  0  0  0  0
  9 10  1  0  0  0  0
  9 11  1  0  0  0  0
  9 24  1  0  0  0  0
 11 12  1  0  0  0  0
 11 13  1  0  0  0  0
 11 17  1  0  0  0  0
 13 14  1  0  0  0  0
 13 15  1  0  0  0  0
 13 16  1  0  0  0  0
 17 18  1  0  0  0  0
 17 19  1  0  0  0  0
 17 20  1  0  0  0  0
 20 21  1  0  0  0  0
 20 22  1  0  0  0  0
 20 23  1  0  0  0  0
 24 25  2  0  0  0  0
 24 26  1  0  0  0  0
 26 27  1  0  0  0  0
 26 28  1  0  0  0  0
 28 29  1  0  0  0  0
 28 30  1  0  0  0  0
 28 31  1  0  0  0  0
M  END
$$$$

  -OEChem-03222214053D

 31 30  0     1  0  0  0  0  0999 V2000
   -2.5126   -4.2689    0.2937 H   0  0  0  0  0  0  0  0  0  0  0  0
   -2.5406   -3.2413   -0.0801 C   0  0  0  0  0  0  0  0  0  0  0  0
   -3.2707   -2.6751    0.5031 H   0  0  0  0  0  0  0  0  0  0  0  0
   -2.8530   -3.2577   -1.1270 H   0  0  0  0  0  0  0  0  0  0  0  0
   -1.1689   -2.6044    0.0430 C   0  0  0  0  0  0  0  0  0  0  0  0
   -0.2561   -3.2262    0.5549 O   0  0  0  0  0  0  0  0  0  0  0  0
   -0.9678   -1.3188   -0.4194 N   0  0  0  0  0  0  0  0  0  0  0  0
   -1.7450   -0.8806   -0.9038 H   0  0  0  0  0  0  0  0  0  0  0  0
    0.3417   -0.6383   -0.4541 C   0  0  1  0  0  0  0  0  0  0  0  0
    1.0149   -1.2814   -1.0320 H   0  0  0  0  0  0  0  0  0  0  0  0
    0.1886    0.6954   -1.2323 C   0  0  1  0  0  0  0  0  0  0  0  0
   -0.3449    0.4641   -2.1606 H   0  0  0  0  0  0  0  0  0  0  0  0
   -0.6406    1.7400   -0.4618 C   0  0  0  0  0  0  0  0  0  0  0  0
   -0.0767    2.1351    0.3890 H   0  0  0  0  0  0  0  0  0  0  0  0
   -0.9044    2.5768   -1.1147 H   0  0  0  0  0  0  0  0  0  0  0  0
   -1.5708    1.3017   -0.0896 H   0  0  0  0  0  0  0  0  0  0  0  0
    1.5738    1.2585   -1.6200 C   0  0  0  0  0  0  0  0  0  0  0  0
    2.0798    1.6559   -0.7336 H   0  0  0  0  0  0  0  0  0  0  0  0
    2.1962    0.4493   -2.0162 H   0  0  0  0  0  0  0  0  0  0  0  0
    1.4862    2.3549   -2.6852 C   0  0  0  0  0  0  0  0  0  0  0  0
    0.9594    3.2333   -2.3019 H   0  0  0  0  0  0  0  0  0  0  0  0
    2.4927    2.6647   -2.9825 H   0  0  0  0  0  0  0  0  0  0  0  0
    0.9613    1.9877   -3.5725 H   0  0  0  0  0  0  0  0  0  0  0  0
    1.0220   -0.4777    0.9278 C   0  0  0  0  0  0  0  0  0  0  0  0
    2.2416   -0.5378    1.0167 O   0  0  0  0  0  0  0  0  0  0  0  0
    0.2939   -0.0528    2.0250 N   0  0  0  0  0  0  0  0  0  0  0  0
   -0.7150   -0.1120    1.9403 H   0  0  0  0  0  0  0  0  0  0  0  0
    0.8801    0.0938    3.3511 C   0  0  0  0  0  0  0  0  0  0  0  0
    1.7003    0.8191    3.3305 H   0  0  0  0  0  0  0  0  0  0  0  0
    0.1266    0.4469    4.0613 H   0  0  0  0  0  0  0  0  0  0  0  0
    1.2687   -0.8673    3.7041 H   0  0  0  0  0  0  0  0  0  0  0  0
  1  2  1  0  0  0  0
  2  3  1  0  0  0  0
  2  4  1  0  0  0  0
  2  5  1  0  0  0  0
  5  6  2  0  0  0  0
  5  7  1  0  0  0  0
  7  8  1  0  0  0  0
  7  9  1  0  0  0  0
  9 10  1  0  0  0  0
  9 11  1  0  0  0  0
  9 24  1  0  0  0  0
 11 12  1  0  0  0  0
 11 13  1  0  0  0  0
 11 17  1  0  0  0  0
 13 14  1  0  0  0  0
 13 15  1  0  0  0  0
 13 16  1  0  0  0  0
 17 18  1  0  0  0  0
 17 19  1  0  0  0  0
 17 20  1  0  0  0  0
 20 21  1  0  0  0  0
 20 22  1  0  0  0  0
 20 23  1  0  0  0  0
 24 25  2  0  0  0  0
 24 26  1  0  0  0  0
 26 27  1  0  0  0  0
 26 28  1  0  0  0  0
 28 29  1  0  0  0  0
 28 30  1  0  0  0  0
 28 31  1  0  0  0  0
M  END
$$$$

  -OEChem-03222214053D

 31 30  0     1  0  0  0  0  0999 V2000
   -2.5098   -4.2670    0.2813 H   0  0  0  0  0  0  0  0  0  0  0  0
   -2.5425   -3.2373   -0.0865 C   0  0  0  0  0  0  0  0  0  0  0  0
   -3.2677   -2.6750    0.5064 H   0  0  0  0  0  0  0  0  0  0  0  0
   -2.8639   -3.2481   -1.1307 H   0  0  0  0  0  0  0  0  0  0  0  0
   -1.1707   -2.5995    0.0281 C   0  0  0  0  0  0  0  0  0  0  0  0
   -0.2486   -3.2284    0.5143 O   0  0  0  0  0  0  0  0  0  0  0  0
   -0.9781   -1.3057   -0.4147 N   0  0  0  0  0  0  0  0  0  0  0  0
   -1.7646   -0.8567   -0.8739 H   0  0  0  0  0  0  0  0  0  0  0  0
    0.3286   -0.6202   -0.4449 C   0  0  1  0  0  0  0  0  0  0  0  0
    0.9955   -1.2690   -1.0241 H   0  0  0  0  0  0  0  0  0  0  0  0
    0.1753    0.7081   -1.2361 C   0  0  1  0  0  0  0  0  0  0  0  0
   -0.5545    0.5379   -2.0351 H   0  0  0  0  0  0  0  0  0  0  0  0
   -0.3667    1.8540   -0.3626 C   0  0  0  0  0  0  0  0  0  0  0  0
    0.3982    2.2054    0.3376 H   0  0  0  0  0  0  0  0  0  0  0  0
   -0.6775    2.6984   -0.9846 H   0  0  0  0  0  0  0  0  0  0  0  0
   -1.2395    1.5226    0.2078 H   0  0  0  0  0  0  0  0  0  0  0  0
    1.5101    1.0661   -1.9271 C   0  0  0  0  0  0  0  0  0  0  0  0
    2.3018    1.1598   -1.1762 H   0  0  0  0  0  0  0  0  0  0  0  0
    1.7914    0.2521   -2.6035 H   0  0  0  0  0  0  0  0  0  0  0  0
    1.4476    2.3664   -2.7338 C   0  0  0  0  0  0  0  0  0  0  0  0
    1.3189    3.2308   -2.0758 H   0  0  0  0  0  0  0  0  0  0  0  0
    2.3791    2.5020   -3.2916 H   0  0  0  0  0  0  0  0  0  0  0  0
    0.6180    2.3366   -3.4468 H   0  0  0  0  0  0  0  0  0  0  0  0
    1.0240   -0.4744    0.9317 C   0  0  0  0  0  0  0  0  0  0  0  0
    2.2451   -0.5200    1.0038 O   0  0  0  0  0  0  0  0  0  0  0  0
    0.3068   -0.0673    2.0433 N   0  0  0  0  0  0  0  0  0  0  0  0
   -0.7030   -0.1226    1.9690 H   0  0  0  0  0  0  0  0  0  0  0  0
    0.9078    0.0800    3.3627 C   0  0  0  0  0  0  0  0  0  0  0  0
    1.7186    0.8156    3.3355 H   0  0  0  0  0  0  0  0  0  0  0  0
    0.1588    0.4206    4.0836 H   0  0  0  0  0  0  0  0  0  0  0  0
    1.3123   -0.8776    3.7072 H   0  0  0  0  0  0  0  0  0  0  0  0
  1  2  1  0  0  0  0
  2  3  1  0  0  0  0
  2  4  1  0  0  0  0
  2  5  1  0  0  0  0
  5  6  2  0  0  0  0
  5  7  1  0  0  0  0
  7  8  1  0  0  0  0
  7  9  1  0  0  0  0
  9 10  1  0  0  0  0
  9 11  1  0  0  0  0
  9 24  1  0  0  0  0
 11 12  1  0  0  0  0
 11 13  1  0  0  0  0
 11 17  1  0  0  0  0
 13 14  1  0  0  0  0
 13 15  1  0  0  0  0
 13 16  1  0  0  0  0
 17 18  1  0  0  0  0
 17 19  1  0  0  0  0
 17 20  1  0  0  0  0
 20 21  1  0  0  0  0
 20 22  1  0  0  0  0
 20 23  1  0  0  0  0
 24 25  2  0  0  0  0
 24 26  1  0  0  0  0
 26 27  1  0  0  0  0
 26 28  1  0  0  0  0
 28 29  1  0  0  0  0
 28 30  1  0  0  0  0
 28 31  1  0  0  0  0
M  END
$$$$

  -OEChem-03222214053D

 31 30  0     1  0  0  0  0  0999 V2000
   -2.5062   -4.2618    0.2846 H   0  0  0  0  0  0  0  0  0  0  0  0
   -2.5384   -3.2320   -0.0828 C   0  0  0  0  0  0  0  0  0  0  0  0
   -3.2634   -2.6695    0.5103 H   0  0  0  0  0  0  0  0  0  0  0  0
   -2.8599   -3.2419   -1.1270 H   0  0  0  0  0  0  0  0  0  0  0  0
   -1.1663   -2.5948    0.0319 C   0  0  0  0  0  0  0  0  0  0  0  0
   -0.2448   -3.2242    0.5186 O   0  0  0  0  0  0  0  0  0  0  0  0
   -0.9735   -1.3011   -0.4112 N   0  0  0  0  0  0  0  0  0  0  0  0
   -1.7605   -0.8518   -0.8691 H   0  0  0  0  0  0  0  0  0  0  0  0
    0.3331   -0.6155   -0.4433 C   0  0  1  0  0  0  0  0  0  0  0  0
    1.0014   -1.2621   -1.0241 H   0  0  0  0  0  0  0  0  0  0  0  0
    0.1744    0.7106   -1.2386 C   0  0  1  0  0  0  0  0  0  0  0  0
   -0.5547    0.5437   -2.0388 H   0  0  0  0  0  0  0  0  0  0  0  0
   -0.3830    1.8452   -0.3580 C   0  0  0  0  0  0  0  0  0  0  0  0
    0.3724    2.1939    0.3536 H   0  0  0  0  0  0  0  0  0  0  0  0
   -0.6934    2.6941   -0.9744 H   0  0  0  0  0  0  0  0  0  0  0  0
   -1.2593    1.5031    0.2003 H   0  0  0  0  0  0  0  0  0  0  0  0
    1.5110    1.0683   -1.9338 C   0  0  0  0  0  0  0  0  0  0  0  0
    2.3409    0.9192   -1.2353 H   0  0  0  0  0  0  0  0  0  0  0  0
    1.6648    0.3832   -2.7741 H   0  0  0  0  0  0  0  0  0  0  0  0
    1.5937    2.5101   -2.4451 C   0  0  0  0  0  0  0  0  0  0  0  0
    1.6014    3.2222   -1.6145 H   0  0  0  0  0  0  0  0  0  0  0  0
    2.5162    2.6480   -3.0171 H   0  0  0  0  0  0  0  0  0  0  0  0
    0.7450    2.7339   -3.0986 H   0  0  0  0  0  0  0  0  0  0  0  0
    1.0256   -0.4720    0.9359 C   0  0  0  0  0  0  0  0  0  0  0  0
    2.2458   -0.5292    1.0145 O   0  0  0  0  0  0  0  0  0  0  0  0
    0.3067   -0.0663    2.0468 N   0  0  0  0  0  0  0  0  0  0  0  0
   -0.7030   -0.1195    1.9699 H   0  0  0  0  0  0  0  0  0  0  0  0
    0.9049    0.0709    3.3687 C   0  0  0  0  0  0  0  0  0  0  0  0
    1.7183    0.8037    3.3475 H   0  0  0  0  0  0  0  0  0  0  0  0
    0.1555    0.4098    4.0902 H   0  0  0  0  0  0  0  0  0  0  0  0
    1.3053   -0.8901    3.7084 H   0  0  0  0  0  0  0  0  0  0  0  0
  1  2  1  0  0  0  0
  2  3  1  0  0  0  0
  2  4  1  0  0  0  0
  2  5  1  0  0  0  0
  5  6  2  0  0  0  0
  5  7  1  0  0  0  0
  7  8  1  0  0  0  0
  7  9  1  0  0  0  0
  9 10  1  0  0  0  0
  9 11  1  0  0  0  0
  9 24  1  0  0  0  0
 11 12  1  0  0  0  0
 11 13  1  0  0  0  0
 11 17  1  0  0  0  0
 13 14  1  0  0  0  0
 13 15  1  0  0  0  0
 13 16  1  0  0  0  0
 17 18  1  0  0  0  0
 17 19  1  0  0  0  0
 17 20  1  0  0  0  0
 20 21  1  0  0  0  0
 20 22  1  0  0  0  0
 20 23  1  0  0  0  0
 24 25  2  0  0  0  0
 24 26  1  0  0  0  0
 26 27  1  0  0  0  0
 26 28  1  0  0  0  0
 28 29  1  0  0  0  0
 28 30  1  0  0  0  0
 28 31  1  0  0  0  0
M  END
$$$$

  -OEChem-03222214053D

 31 30  0     1  0  0  0  0  0999 V2000
   -2.5084   -4.2594    0.2839 H   0  0  0  0  0  0  0  0  0  0  0  0
   -2.5395   -3.2290   -0.0819 C   0  0  0  0  0  0  0  0  0  0  0  0
   -3.2658   -2.6673    0.5103 H   0  0  0  0  0  0  0  0  0  0  0  0
   -2.8582   -3.2372   -1.1271 H   0  0  0  0  0  0  0  0  0  0  0  0
   -1.1676   -2.5924    0.0373 C   0  0  0  0  0  0  0  0  0  0  0  0
   -0.2475   -3.2217    0.5267 O   0  0  0  0  0  0  0  0  0  0  0  0
   -0.9734   -1.2993   -0.4064 N   0  0  0  0  0  0  0  0  0  0  0  0
   -1.7593   -0.8505   -0.8665 H   0  0  0  0  0  0  0  0  0  0  0  0
    0.3342   -0.6161   -0.4400 C   0  0  1  0  0  0  0  0  0  0  0  0
    0.9994   -1.2647   -1.0218 H   0  0  0  0  0  0  0  0  0  0  0  0
    0.1777    0.7107   -1.2356 C   0  0  1  0  0  0  0  0  0  0  0  0
   -0.5475    0.5407   -2.0390 H   0  0  0  0  0  0  0  0  0  0  0  0
   -0.4059    1.8344   -0.3561 C   0  0  0  0  0  0  0  0  0  0  0  0
    0.3229    2.1709    0.3880 H   0  0  0  0  0  0  0  0  0  0  0  0
   -0.6943    2.6928   -0.9701 H   0  0  0  0  0  0  0  0  0  0  0  0
   -1.3011    1.4853    0.1671 H   0  0  0  0  0  0  0  0  0  0  0  0
    1.5156    1.0722   -1.9367 C   0  0  0  0  0  0  0  0  0  0  0  0
    2.3545    0.6822   -1.3513 H   0  0  0  0  0  0  0  0  0  0  0  0
    1.5445    0.5730   -2.9108 H   0  0  0  0  0  0  0  0  0  0  0  0
    1.7742    2.5698   -2.1358 C   0  0  0  0  0  0  0  0  0  0  0  0
    1.8818    3.0817   -1.1748 H   0  0  0  0  0  0  0  0  0  0  0  0
    2.7010    2.7127   -2.6996 H   0  0  0  0  0  0  0  0  0  0  0  0
    0.9561    3.0305   -2.6976 H   0  0  0  0  0  0  0  0  0  0  0  0
    1.0289   -0.4734    0.9382 C   0  0  0  0  0  0  0  0  0  0  0  0
    2.2490   -0.5334    1.0161 O   0  0  0  0  0  0  0  0  0  0  0  0
    0.3121   -0.0661    2.0499 N   0  0  0  0  0  0  0  0  0  0  0  0
   -0.6978   -0.1183    1.9743 H   0  0  0  0  0  0  0  0  0  0  0  0
    0.9123    0.0694    3.3710 C   0  0  0  0  0  0  0  0  0  0  0  0
    1.7248    0.8033    3.3499 H   0  0  0  0  0  0  0  0  0  0  0  0
    0.1636    0.4061    4.0943 H   0  0  0  0  0  0  0  0  0  0  0  0
    1.3145   -0.8919    3.7079 H   0  0  0  0  0  0  0  0  0  0  0  0
  1  2  1  0  0  0  0
  2  3  1  0  0  0  0
  2  4  1  0  0  0  0
  2  5  1  0  0  0  0
  5  6  2  0  0  0  0
  5  7  1  0  0  0  0
  7  8  1  0  0  0  0
  7  9  1  0  0  0  0
  9 10  1  0  0  0  0
  9 11  1  0  0  0  0
  9 24  1  0  0  0  0
 11 12  1  0  0  0  0
 11 13  1  0  0  0  0
 11 17  1  0  0  0  0
 13 14  1  0  0  0  0
 13 15  1  0  0  0  0
 13 16  1  0  0  0  0
 17 18  1  0  0  0  0
 17 19  1  0  0  0  0
 17 20  1  0  0  0  0
 20 21  1  0  0  0  0
 20 22  1  0  0  0  0
 20 23  1  0  0  0  0
 24 25  2  0  0  0  0
 24 26  1  0  0  0  0
 26 27  1  0  0  0  0
 26 28  1  0  0  0  0
 28 29  1  0  0  0  0
 28 30  1  0  0  0  0
 28 31  1  0  0  0  0
M  END
$$$$

  -OEChem-03222214053D

 31 30  0     1  0  0  0  0  0999 V2000
   -2.5173   -4.2592    0.2895 H   0  0  0  0  0  0  0  0  0  0  0  0
   -2.5464   -3.2294   -0.0786 C   0  0  0  0  0  0  0  0  0  0  0  0
   -3.2705   -2.6646    0.5133 H   0  0  0  0  0  0  0  0  0  0  0  0
   -2.8664   -3.2392   -1.1233 H   0  0  0  0  0  0  0  0  0  0  0  0
   -1.1727   -2.5959    0.0376 C   0  0  0  0  0  0  0  0  0  0  0  0
   -0.2533   -3.2276    0.5250 O   0  0  0  0  0  0  0  0  0  0  0  0
   -0.9752   -1.3031   -0.4062 N   0  0  0  0  0  0  0  0  0  0  0  0
   -1.7605   -0.8507   -0.8637 H   0  0  0  0  0  0  0  0  0  0  0  0
    0.3344   -0.6234   -0.4393 C   0  0  1  0  0  0  0  0  0  0  0  0
    0.9934   -1.2773   -1.0220 H   0  0  0  0  0  0  0  0  0  0  0  0
    0.1879    0.7080   -1.2291 C   0  0  1  0  0  0  0  0  0  0  0  0
   -0.5281    0.5296   -2.0389 H   0  0  0  0  0  0  0  0  0  0  0  0
   -0.4269    1.8265   -0.3630 C   0  0  0  0  0  0  0  0  0  0  0  0
    0.2673    2.1546    0.4165 H   0  0  0  0  0  0  0  0  0  0  0  0
   -0.6863    2.6908   -0.9815 H   0  0  0  0  0  0  0  0  0  0  0  0
   -1.3441    1.4747    0.1187 H   0  0  0  0  0  0  0  0  0  0  0  0
    1.5274    1.0740   -1.9329 C   0  0  0  0  0  0  0  0  0  0  0  0
    2.3401    0.4617   -1.5288 H   0  0  0  0  0  0  0  0  0  0  0  0
    1.4399    0.8228   -2.9950 H   0  0  0  0  0  0  0  0  0  0  0  0
    1.9729    2.5358   -1.8139 C   0  0  0  0  0  0  0  0  0  0  0  0
    2.1552    2.8040   -0.7689 H   0  0  0  0  0  0  0  0  0  0  0  0
    2.9051    2.6835   -2.3675 H   0  0  0  0  0  0  0  0  0  0  0  0
    1.2181    3.2082   -2.2321 H   0  0  0  0  0  0  0  0  0  0  0  0
    1.0332   -0.4798    0.9359 C   0  0  0  0  0  0  0  0  0  0  0  0
    2.2540   -0.5337    1.0072 O   0  0  0  0  0  0  0  0  0  0  0  0
    0.3197   -0.0690    2.0483 N   0  0  0  0  0  0  0  0  0  0  0  0
   -0.6905   -0.1179    1.9753 H   0  0  0  0  0  0  0  0  0  0  0  0
    0.9244    0.0781    3.3659 C   0  0  0  0  0  0  0  0  0  0  0  0
    1.7354    0.8133    3.3359 H   0  0  0  0  0  0  0  0  0  0  0  0
    0.1777    0.4193    4.0890 H   0  0  0  0  0  0  0  0  0  0  0  0
    1.3294   -0.8797    3.7091 H   0  0  0  0  0  0  0  0  0  0  0  0
  1  2  1  0  0  0  0
  2  3  1  0  0  0  0
  2  4  1  0  0  0  0
  2  5  1  0  0  0  0
  5  6  2  0  0  0  0
  5  7  1  0  0  0  0
  7  8  1  0  0  0  0
  7  9  1  0  0  0  0
  9 10  1  0  0  0  0
  9 11  1  0  0  0  0
  9 24  1  0  0  0  0
 11 12  1  0  0  0  0
 11 13  1  0  0  0  0
 11 17  1  0  0  0  0
 13 14  1  0  0  0  0
 13 15  1  0  0  0  0
 13 16  1  0  0  0  0
 17 18  1  0  0  0  0
 17 19  1  0  0  0  0
 17 20  1  0  0  0  0
 20 21  1  0  0  0  0
 20 22  1  0  0  0  0
 20 23  1  0  0  0  0
 24 25  2  0  0  0  0
 24 26  1  0  0  0  0
 26 27  1  0  0  0  0
 26 28  1  0  0  0  0
 28 29  1  0  0  0  0
 28 30  1  0  0  0  0
 28 31  1  0  0  0  0
M  END
$$$$

  -OEChem-03222214053D

 31 30  0     1  0  0  0  0  0999 V2000
   -2.5313   -4.2573    0.2920 H   0  0  0  0  0  0  0  0  0  0  0  0
   -2.5567   -3.2283   -0.0780 C   0  0  0  0  0  0  0  0  0  0  0  0
   -3.2795   -2.6605    0.5125 H   0  0  0  0  0  0  0  0  0  0  0  0
   -2.8764   -3.2393   -1.1227 H   0  0  0  0  0  0  0  0  0  0  0  0
   -1.1808   -2.5993    0.0379 C   0  0  0  0  0  0  0  0  0  0  0  0
   -0.2645   -3.2329    0.5288 O   0  0  0  0  0  0  0  0  0  0  0  0
   -0.9777   -1.3078   -0.4069 N   0  0  0  0  0  0  0  0  0  0  0  0
   -1.7603   -0.8523   -0.8660 H   0  0  0  0  0  0  0  0  0  0  0  0
    0.3348   -0.6334   -0.4381 C   0  0  1  0  0  0  0  0  0  0  0  0
    0.9882   -1.2950   -1.0181 H   0  0  0  0  0  0  0  0  0  0  0  0
    0.2015    0.7012   -1.2225 C   0  0  1  0  0  0  0  0  0  0  0  0
   -0.5023    0.5080   -2.0395 H   0  0  0  0  0  0  0  0  0  0  0  0
   -0.4384    1.8238   -0.3817 C   0  0  0  0  0  0  0  0  0  0  0  0
    0.2242    2.1495    0.4256 H   0  0  0  0  0  0  0  0  0  0  0  0
   -0.6650    2.6880   -1.0135 H   0  0  0  0  0  0  0  0  0  0  0  0
   -1.3763    1.4783    0.0630 H   0  0  0  0  0  0  0  0  0  0  0  0
    1.5401    1.0720   -1.9268 C   0  0  0  0  0  0  0  0  0  0  0  0
    2.2880    0.2908   -1.7565 H   0  0  0  0  0  0  0  0  0  0  0  0
    1.3617    1.1081   -3.0065 H   0  0  0  0  0  0  0  0  0  0  0  0
    2.1663    2.4073   -1.5095 C   0  0  0  0  0  0  0  0  0  0  0  0
    2.3919    2.4075   -0.4385 H   0  0  0  0  0  0  0  0  0  0  0  0
    3.1032    2.5616   -2.0534 H   0  0  0  0  0  0  0  0  0  0  0  0
    1.5003    3.2446   -1.7371 H   0  0  0  0  0  0  0  0  0  0  0  0
    1.0383   -0.4871    0.9330 C   0  0  0  0  0  0  0  0  0  0  0  0
    2.2600   -0.5320    0.9957 O   0  0  0  0  0  0  0  0  0  0  0  0
    0.3300   -0.0701    2.0464 N   0  0  0  0  0  0  0  0  0  0  0  0
   -0.6805   -0.1265    1.9812 H   0  0  0  0  0  0  0  0  0  0  0  0
    0.9429    0.0884    3.3588 C   0  0  0  0  0  0  0  0  0  0  0  0
    1.7539    0.8231    3.3171 H   0  0  0  0  0  0  0  0  0  0  0  0
    0.2009    0.4360    4.0838 H   0  0  0  0  0  0  0  0  0  0  0  0
    1.3500   -0.8666    3.7076 H   0  0  0  0  0  0  0  0  0  0  0  0
  1  2  1  0  0  0  0
  2  3  1  0  0  0  0
  2  4  1  0  0  0  0
  2  5  1  0  0  0  0
  5  6  2  0  0  0  0
  5  7  1  0  0  0  0
  7  8  1  0  0  0  0
  7  9  1  0  0  0  0
  9 10  1  0  0  0  0
  9 11  1  0  0  0  0
  9 24  1  0  0  0  0
 11 12  1  0  0  0  0
 11 13  1  0  0  0  0
 11 17  1  0  0  0  0
 13 14  1  0  0  0  0
 13 15  1  0  0  0  0
 13 16  1  0  0  0  0
 17 18  1  0  0  0  0
 17 19  1  0  0  0  0
 17 20  1  0  0  0  0
 20 21  1  0  0  0  0
 20 22  1  0  0  0  0
 20 23  1  0  0  0  0
 24 25  2  0  0  0  0
 24 26  1  0  0  0  0
 26 27  1  0  0  0  0
 26 28  1  0  0  0  0
 28 29  1  0  0  0  0
 28 30  1  0  0  0  0
 28 31  1  0  0  0  0
M  END
$$$$

  -OEChem-03222214053D

 31 30  0     1  0  0  0  0  0999 V2000
   -2.5399   -4.2500    0.2992 H   0  0  0  0  0  0  0  0  0  0  0  0
   -2.5593   -3.2219   -0.0735 C   0  0  0  0  0  0  0  0  0  0  0  0
   -3.2807   -2.6489    0.5139 H   0  0  0  0  0  0  0  0  0  0  0  0
   -2.8767   -3.2342   -1.1190 H   0  0  0  0  0  0  0  0  0  0  0  0
   -1.1806   -2.5991    0.0440 C   0  0  0  0  0  0  0  0  0  0  0  0
   -0.2681   -3.2370    0.5366 O   0  0  0  0  0  0  0  0  0  0  0  0
   -0.9708   -1.3097   -0.4044 N   0  0  0  0  0  0  0  0  0  0  0  0
   -1.7509   -0.8514   -0.8652 H   0  0  0  0  0  0  0  0  0  0  0  0
    0.3451   -0.6418   -0.4361 C   0  0  1  0  0  0  0  0  0  0  0  0
    0.9972   -1.3069   -1.0128 H   0  0  0  0  0  0  0  0  0  0  0  0
    0.2129    0.6923   -1.2223 C   0  0  1  0  0  0  0  0  0  0  0  0
   -0.4878    0.4873   -2.0390 H   0  0  0  0  0  0  0  0  0  0  0  0
   -0.4261    1.8266   -0.3990 C   0  0  0  0  0  0  0  0  0  0  0  0
    0.2177    2.1352    0.4299 H   0  0  0  0  0  0  0  0  0  0  0  0
   -0.6075    2.6975   -1.0366 H   0  0  0  0  0  0  0  0  0  0  0  0
   -1.3860    1.5028    0.0139 H   0  0  0  0  0  0  0  0  0  0  0  0
    1.5416    1.0717   -1.9336 C   0  0  0  0  0  0  0  0  0  0  0  0
    2.1930    0.1960   -2.0159 H   0  0  0  0  0  0  0  0  0  0  0  0
    1.3049    1.3873   -2.9551 H   0  0  0  0  0  0  0  0  0  0  0  0
    2.3369    2.2051   -1.2750 C   0  0  0  0  0  0  0  0  0  0  0  0
    2.5750    1.9552   -0.2364 H   0  0  0  0  0  0  0  0  0  0  0  0
    3.2768    2.3586   -1.8137 H   0  0  0  0  0  0  0  0  0  0  0  0
    1.7776    3.1448   -1.2962 H   0  0  0  0  0  0  0  0  0  0  0  0
    1.0460   -0.4958    0.9357 C   0  0  0  0  0  0  0  0  0  0  0  0
    2.2661   -0.5657    1.0054 O   0  0  0  0  0  0  0  0  0  0  0  0
    0.3372   -0.0721    2.0461 N   0  0  0  0  0  0  0  0  0  0  0  0
   -0.6735   -0.1145    1.9753 H   0  0  0  0  0  0  0  0  0  0  0  0
    0.9452    0.0783    3.3617 C   0  0  0  0  0  0  0  0  0  0  0  0
    1.7644    0.8043    3.3257 H   0  0  0  0  0  0  0  0  0  0  0  0
    0.2029    0.4328    4.0831 H   0  0  0  0  0  0  0  0  0  0  0  0
    1.3407   -0.8813    3.7111 H   0  0  0  0  0  0  0  0  0  0  0  0
  1  2  1  0  0  0  0
  2  3  1  0  0  0  0
  2  4  1  0  0  0  0
  2  5  1  0  0  0  0
  5  6  2  0  0  0  0
  5  7  1  0  0  0  0
  7  8  1  0  0  0  0
  7  9  1  0  0  0  0
  9 10  1  0  0  0  0
  9 11  1  0  0  0  0
  9 24  1  0  0  0  0
 11 12  1  0  0  0  0
 11 13  1  0  0  0  0
 11 17  1  0  0  0  0
 13 14  1  0  0  0  0
 13 15  1  0  0  0  0
 13 16  1  0  0  0  0
 17 18  1  0  0  0  0
 17 19  1  0  0  0  0
 17 20  1  0  0  0  0
 20 21  1  0  0  0  0
 20 22  1  0  0  0  0
 20 23  1  0  0  0  0
 24 25  2  0  0  0  0
 24 26  1  0  0  0  0
 26 27  1  0  0  0  0
 26 28  1  0  0  0  0
 28 29  1  0  0  0  0
 28 30  1  0  0  0  0
 28 31  1  0  0  0  0
M  END
$$$$

  -OEChem-03222214053D

 31 30  0     1  0  0  0  0  0999 V2000
   -2.5449   -4.2211    0.3359 H   0  0  0  0  0  0  0  0  0  0  0  0
   -2.5514   -3.1944   -0.0413 C   0  0  0  0  0  0  0  0  0  0  0  0
   -3.2553   -2.6064    0.5526 H   0  0  0  0  0  0  0  0  0  0  0  0
   -2.8818   -3.2058   -1.0826 H   0  0  0  0  0  0  0  0  0  0  0  0
   -1.1614   -2.5939    0.0558 C   0  0  0  0  0  0  0  0  0  0  0  0
   -0.2533   -3.2450    0.5386 O   0  0  0  0  0  0  0  0  0  0  0  0
   -0.9383   -1.3099   -0.4018 N   0  0  0  0  0  0  0  0  0  0  0  0
   -1.7186   -0.8429   -0.8532 H   0  0  0  0  0  0  0  0  0  0  0  0
    0.3818   -0.6482   -0.4316 C   0  0  1  0  0  0  0  0  0  0  0  0
    1.0454   -1.3090   -1.0004 H   0  0  0  0  0  0  0  0  0  0  0  0
    0.2316    0.6772   -1.2345 C   0  0  1  0  0  0  0  0  0  0  0  0
   -0.4769    0.4607   -2.0417 H   0  0  0  0  0  0  0  0  0  0  0  0
   -0.3913    1.8222   -0.4155 C   0  0  0  0  0  0  0  0  0  0  0  0
    0.2567    2.1233    0.4129 H   0  0  0  0  0  0  0  0  0  0  0  0
   -0.5558    2.6944   -1.0560 H   0  0  0  0  0  0  0  0  0  0  0  0
   -1.3569    1.5152   -0.0029 H   0  0  0  0  0  0  0  0  0  0  0  0
    1.5362    1.0858   -1.9660 C   0  0  0  0  0  0  0  0  0  0  0  0
    2.0760    0.1884   -2.2841 H   0  0  0  0  0  0  0  0  0  0  0  0
    1.2624    1.6312   -2.8749 H   0  0  0  0  0  0  0  0  0  0  0  0
    2.4931    1.9789   -1.1663 C   0  0  0  0  0  0  0  0  0  0  0  0
    2.7691    1.5146   -0.2172 H   0  0  0  0  0  0  0  0  0  0  0  0
    3.4087    2.1457   -1.7417 H   0  0  0  0  0  0  0  0  0  0  0  0
    2.0404    2.9534   -0.9623 H   0  0  0  0  0  0  0  0  0  0  0  0
    1.0543   -0.5054    0.9559 C   0  0  0  0  0  0  0  0  0  0  0  0
    2.2630   -0.6582    1.0721 O   0  0  0  0  0  0  0  0  0  0  0  0
    0.3258   -0.0745    2.0509 N   0  0  0  0  0  0  0  0  0  0  0  0
   -0.6825   -0.0705    1.9446 H   0  0  0  0  0  0  0  0  0  0  0  0
    0.8921    0.0134    3.3906 C   0  0  0  0  0  0  0  0  0  0  0  0
    1.7447    0.7007    3.4018 H   0  0  0  0  0  0  0  0  0  0  0  0
    0.1417    0.3843    4.0951 H   0  0  0  0  0  0  0  0  0  0  0  0
    1.2291   -0.9726    3.7280 H   0  0  0  0  0  0  0  0  0  0  0  0
  1  2  1  0  0  0  0
  2  3  1  0  0  0  0
  2  4  1  0  0  0  0
  2  5  1  0  0  0  0
  5  6  2  0  0  0  0
  5  7  1  0  0  0  0
  7  8  1  0  0  0  0
  7  9  1  0  0  0  0
  9 10  1  0  0  0  0
  9 11  1  0  0  0  0
  9 24  1  0  0  0  0
 11 12  1  0  0  0  0
 11 13  1  0  0  0  0
 11 17  1  0  0  0  0
 13 14  1  0  0  0  0
 13 15  1  0  0  0  0
 13 16  1  0  0  0  0
 17 18  1  0  0  0  0
 17 19  1  0  0  0  0
 17 20  1  0  0  0  0
 20 21  1  0  0  0  0
 20 22  1  0  0  0  0
 20 23  1  0  0  0  0
 24 25  2  0  0  0  0
 24 26  1  0  0  0  0
 26 27  1  0  0  0  0
 26 28  1  0  0  0  0
 28 29  1  0  0  0  0
 28 30  1  0  0  0  0
 28 31  1  0  0  0  0
M  END
$$$$

  -OEChem-03222214053D

 31 30  0     1  0  0  0  0  0999 V2000
   -2.5532   -4.1929    0.3758 H   0  0  0  0  0  0  0  0  0  0  0  0
   -2.5477   -3.1686   -0.0079 C   0  0  0  0  0  0  0  0  0  0  0  0
   -3.2377   -2.5663    0.5877 H   0  0  0  0  0  0  0  0  0  0  0  0
   -2.8871   -3.1816   -1.0464 H   0  0  0  0  0  0  0  0  0  0  0  0
   -1.1481   -2.5889    0.0748 C   0  0  0  0  0  0  0  0  0  0  0  0
   -0.2477   -3.2508    0.5571 O   0  0  0  0  0  0  0  0  0  0  0  0
   -0.9091   -1.3135   -0.3990 N   0  0  0  0  0  0  0  0  0  0  0  0
   -1.6859   -0.8401   -0.8496 H   0  0  0  0  0  0  0  0  0  0  0  0
    0.4165   -0.6620   -0.4295 C   0  0  1  0  0  0  0  0  0  0  0  0
    1.0898   -1.3184   -0.9919 H   0  0  0  0  0  0  0  0  0  0  0  0
    0.2522    0.6591   -1.2404 C   0  0  1  0  0  0  0  0  0  0  0  0
   -0.4708    0.4433   -2.0348 H   0  0  0  0  0  0  0  0  0  0  0  0
   -0.3501    1.8088   -0.4136 C   0  0  0  0  0  0  0  0  0  0  0  0
    0.3132    2.1088    0.4027 H   0  0  0  0  0  0  0  0  0  0  0  0
   -0.5213    2.6812   -1.0519 H   0  0  0  0  0  0  0  0  0  0  0  0
   -1.3098    1.5073    0.0165 H   0  0  0  0  0  0  0  0  0  0  0  0
    1.5315    1.0953   -1.9966 C   0  0  0  0  0  0  0  0  0  0  0  0
    1.9326    0.2351   -2.5423 H   0  0  0  0  0  0  0  0  0  0  0  0
    1.2428    1.8418   -2.7437 H   0  0  0  0  0  0  0  0  0  0  0  0
    2.6574    1.7017   -1.1507 C   0  0  0  0  0  0  0  0  0  0  0  0
    3.0697    0.9697   -0.4556 H   0  0  0  0  0  0  0  0  0  0  0  0
    3.4698    2.0301   -1.8061 H   0  0  0  0  0  0  0  0  0  0  0  0
    2.3086    2.5705   -0.5865 H   0  0  0  0  0  0  0  0  0  0  0  0
    1.0545   -0.5189    0.9770 C   0  0  0  0  0  0  0  0  0  0  0  0
    2.2449   -0.7440    1.1481 O   0  0  0  0  0  0  0  0  0  0  0  0
    0.3004   -0.0743    2.0495 N   0  0  0  0  0  0  0  0  0  0  0  0
   -0.7015   -0.0242    1.9026 H   0  0  0  0  0  0  0  0  0  0  0  0
    0.8144   -0.0284    3.4123 C   0  0  0  0  0  0  0  0  0  0  0  0
    1.6870    0.6308    3.4706 H   0  0  0  0  0  0  0  0  0  0  0  0
    0.0480    0.3535    4.0934 H   0  0  0  0  0  0  0  0  0  0  0  0
    1.1065   -1.0305    3.7442 H   0  0  0  0  0  0  0  0  0  0  0  0
  1  2  1  0  0  0  0
  2  3  1  0  0  0  0
  2  4  1  0  0  0  0
  2  5  1  0  0  0  0
  5  6  2  0  0  0  0
  5  7  1  0  0  0  0
  7  8  1  0  0  0  0
  7  9  1  0  0  0  0
  9 10  1  0  0  0  0
  9 11  1  0  0  0  0
  9 24  1  0  0  0  0
 11 12  1  0  0  0  0
 11 13  1  0  0  0  0
 11 17  1  0  0  0  0
 13 14  1  0  0  0  0
 13 15  1  0  0  0  0
 13 16  1  0  0  0  0
 17 18  1  0  0  0  0
 17 19  1  0  0  0  0
 17 20  1  0  0  0  0
 20 21  1  0  0  0  0
 20 22  1  0  0  0  0
 20 23  1  0  0  0  0
 24 25  2  0  0  0  0
 24 26  1  0  0  0  0
 26 27  1  0  0  0  0
 26 28  1  0  0  0  0
 28 29  1  0  0  0  0
 28 30  1  0  0  0  0
 28 31  1  0  0  0  0
M  END
$$$$

  -OEChem-03222214053D

 31 30  0     1  0  0  0  0  0999 V2000
   -2.5660   -4.1850    0.3960 H   0  0  0  0  0  0  0  0  0  0  0  0
   -2.5549   -3.1627    0.0072 C   0  0  0  0  0  0  0  0  0  0  0  0
   -3.2381   -2.5524    0.6027 H   0  0  0  0  0  0  0  0  0  0  0  0
   -2.8985   -3.1783   -1.0298 H   0  0  0  0  0  0  0  0  0  0  0  0
   -1.1510   -2.5924    0.0808 C   0  0  0  0  0  0  0  0  0  0  0  0
   -0.2528   -3.2584    0.5613 O   0  0  0  0  0  0  0  0  0  0  0  0
   -0.9053   -1.3218   -0.4023 N   0  0  0  0  0  0  0  0  0  0  0  0
   -1.6814   -0.8452   -0.8506 H   0  0  0  0  0  0  0  0  0  0  0  0
    0.4225   -0.6747   -0.4348 C   0  0  1  0  0  0  0  0  0  0  0  0
    1.0993   -1.3299   -0.9949 H   0  0  0  0  0  0  0  0  0  0  0  0
    0.2578    0.6470   -1.2459 C   0  0  1  0  0  0  0  0  0  0  0  0
   -0.4793    0.4449   -2.0308 H   0  0  0  0  0  0  0  0  0  0  0  0
   -0.3143    1.8044   -0.4078 C   0  0  0  0  0  0  0  0  0  0  0  0
    0.3841    2.1199    0.3724 H   0  0  0  0  0  0  0  0  0  0  0  0
   -0.5199    2.6677   -1.0482 H   0  0  0  0  0  0  0  0  0  0  0  0
   -1.2523    1.5037    0.0681 H   0  0  0  0  0  0  0  0  0  0  0  0
    1.5286    1.0897   -2.0106 C   0  0  0  0  0  0  0  0  0  0  0  0
    1.7795    0.3216   -2.7494 H   0  0  0  0  0  0  0  0  0  0  0  0
    1.2907    2.0027   -2.5664 H   0  0  0  0  0  0  0  0  0  0  0  0
    2.7766    1.3615   -1.1665 C   0  0  0  0  0  0  0  0  0  0  0  0
    3.2147    0.4245   -0.8150 H   0  0  0  0  0  0  0  0  0  0  0  0
    3.5295    1.8697   -1.7761 H   0  0  0  0  0  0  0  0  0  0  0  0
    2.5498    1.9964   -0.3061 H   0  0  0  0  0  0  0  0  0  0  0  0
    1.0470   -0.5280    0.9796 C   0  0  0  0  0  0  0  0  0  0  0  0
    2.2346   -0.7518    1.1694 O   0  0  0  0  0  0  0  0  0  0  0  0
    0.2827   -0.0757    2.0419 N   0  0  0  0  0  0  0  0  0  0  0  0
   -0.7175   -0.0242    1.8849 H   0  0  0  0  0  0  0  0  0  0  0  0
    0.7839   -0.0200    3.4093 C   0  0  0  0  0  0  0  0  0  0  0  0
    1.6548    0.6411    3.4716 H   0  0  0  0  0  0  0  0  0  0  0  0
    0.0107    0.3646    4.0811 H   0  0  0  0  0  0  0  0  0  0  0  0
    1.0750   -1.0195    3.7498 H   0  0  0  0  0  0  0  0  0  0  0  0
  1  2  1  0  0  0  0
  2  3  1  0  0  0  0
  2  4  1  0  0  0  0
  2  5  1  0  0  0  0
  5  6  2  0  0  0  0
  5  7  1  0  0  0  0
  7  8  1  0  0  0  0
  7  9  1  0  0  0  0
  9 10  1  0  0  0  0
  9 11  1  0  0  0  0
  9 24  1  0  0  0  0
 11 12  1  0  0  0  0
 11 13  1  0  0  0  0
 11 17  1  0  0  0  0
 13 14  1  0  0  0  0
 13 15  1  0  0  0  0
 13 16  1  0  0  0  0
 17 18  1  0  0  0  0
 17 19  1  0  0  0  0
 17 20  1  0  0  0  0
 20 21  1  0  0  0  0
 20 22  1  0  0  0  0
 20 23  1  0  0  0  0
 24 25  2  0  0  0  0
 24 26  1  0  0  0  0
 26 27  1  0  0  0  0
 26 28  1  0  0  0  0
 28 29  1  0  0  0  0
 28 30  1  0  0  0  0
 28 31  1  0  0  0  0
M  END
$$$$

  -OEChem-03222214053D

 31 30  0     1  0  0  0  0  0999 V2000
   -2.5745   -4.1885    0.3980 H   0  0  0  0  0  0  0  0  0  0  0  0
   -2.5624   -3.1664    0.0085 C   0  0  0  0  0  0  0  0  0  0  0  0
   -3.2464   -2.5555    0.6023 H   0  0  0  0  0  0  0  0  0  0  0  0
   -2.9043   -3.1827   -1.0292 H   0  0  0  0  0  0  0  0  0  0  0  0
   -1.1585   -2.5967    0.0846 C   0  0  0  0  0  0  0  0  0  0  0  0
   -0.2621   -3.2622    0.5691 O   0  0  0  0  0  0  0  0  0  0  0  0
   -0.9103   -1.3273   -0.4006 N   0  0  0  0  0  0  0  0  0  0  0  0
   -1.6843   -0.8515   -0.8536 H   0  0  0  0  0  0  0  0  0  0  0  0
    0.4189   -0.6828   -0.4326 C   0  0  1  0  0  0  0  0  0  0  0  0
    1.0932   -1.3435   -0.9890 H   0  0  0  0  0  0  0  0  0  0  0  0
    0.2568    0.6347   -1.2551 C   0  0  1  0  0  0  0  0  0  0  0  0
   -0.4983    0.4452   -2.0259 H   0  0  0  0  0  0  0  0  0  0  0  0
   -0.2730    1.7987   -0.3999 C   0  0  0  0  0  0  0  0  0  0  0  0
    0.4753    2.1252    0.3289 H   0  0  0  0  0  0  0  0  0  0  0  0
   -0.5218    2.6534   -1.0366 H   0  0  0  0  0  0  0  0  0  0  0  0
   -1.1793    1.5023    0.1362 H   0  0  0  0  0  0  0  0  0  0  0  0
    1.5192    1.0915   -2.0289 C   0  0  0  0  0  0  0  0  0  0  0  0
    1.6266    0.4550   -2.9134 H   0  0  0  0  0  0  0  0  0  0  0  0
    1.3648    2.1137   -2.3894 H   0  0  0  0  0  0  0  0  0  0  0  0
    2.8433    1.0419   -1.2651 C   0  0  0  0  0  0  0  0  0  0  0  0
    3.1515    0.0078   -1.0883 H   0  0  0  0  0  0  0  0  0  0  0  0
    3.6278    1.5275   -1.8531 H   0  0  0  0  0  0  0  0  0  0  0  0
    2.7622    1.5630   -0.3066 H   0  0  0  0  0  0  0  0  0  0  0  0
    1.0383   -0.5368    0.9859 C   0  0  0  0  0  0  0  0  0  0  0  0
    2.2261   -0.7556    1.1814 O   0  0  0  0  0  0  0  0  0  0  0  0
    0.2704   -0.0825    2.0448 N   0  0  0  0  0  0  0  0  0  0  0  0
   -0.7294   -0.0336    1.8848 H   0  0  0  0  0  0  0  0  0  0  0  0
    0.7662   -0.0244    3.4140 C   0  0  0  0  0  0  0  0  0  0  0  0
    1.6357    0.6383    3.4786 H   0  0  0  0  0  0  0  0  0  0  0  0
   -0.0102    0.3600    4.0821 H   0  0  0  0  0  0  0  0  0  0  0  0
    1.0575   -1.0229    3.7571 H   0  0  0  0  0  0  0  0  0  0  0  0
  1  2  1  0  0  0  0
  2  3  1  0  0  0  0
  2  4  1  0  0  0  0
  2  5  1  0  0  0  0
  5  6  2  0  0  0  0
  5  7  1  0  0  0  0
  7  8  1  0  0  0  0
  7  9  1  0  0  0  0
  9 10  1  0  0  0  0
  9 11  1  0  0  0  0
  9 24  1  0  0  0  0
 11 12  1  0  0  0  0
 11 13  1  0  0  0  0
 11 17  1  0  0  0  0
 13 14  1  0  0  0  0
 13 15  1  0  0  0  0
 13 16  1  0  0  0  0
 17 18  1  0  0  0  0
 17 19  1  0  0  0  0
 17 20  1  0  0  0  0
 20 21  1  0  0  0  0
 20 22  1  0  0  0  0
 20 23  1  0  0  0  0
 24 25  2  0  0  0  0
 24 26  1  0  0  0  0
 26 27  1  0  0  0  0
 26 28  1  0  0  0  0
 28 29  1  0  0  0  0
 28 30  1  0  0  0  0
 28 31  1  0  0  0  0
M  END
$$$$

  -OEChem-03222214053D

 31 30  0     1  0  0  0  0  0999 V2000
   -2.5963   -4.1928    0.3884 H   0  0  0  0  0  0  0  0  0  0  0  0
   -2.5812   -3.1703    0.0001 C   0  0  0  0  0  0  0  0  0  0  0  0
   -3.2684   -2.5596    0.5904 H   0  0  0  0  0  0  0  0  0  0  0  0
   -2.9166   -3.1856   -1.0397 H   0  0  0  0  0  0  0  0  0  0  0  0
   -1.1774   -2.6014    0.0858 C   0  0  0  0  0  0  0  0  0  0  0  0
   -0.2853   -3.2673    0.5779 O   0  0  0  0  0  0  0  0  0  0  0  0
   -0.9244   -1.3321   -0.3972 N   0  0  0  0  0  0  0  0  0  0  0  0
   -1.6953   -0.8537   -0.8525 H   0  0  0  0  0  0  0  0  0  0  0  0
    0.4069   -0.6916   -0.4235 C   0  0  1  0  0  0  0  0  0  0  0  0
    1.0704   -1.3658   -0.9750 H   0  0  0  0  0  0  0  0  0  0  0  0
    0.2589    0.6223   -1.2569 C   0  0  1  0  0  0  0  0  0  0  0  0
   -0.4991    0.4344   -2.0253 H   0  0  0  0  0  0  0  0  0  0  0  0
   -0.2675    1.7859   -0.3990 C   0  0  0  0  0  0  0  0  0  0  0  0
    0.4919    2.1177    0.3167 H   0  0  0  0  0  0  0  0  0  0  0  0
   -0.5311    2.6369   -1.0348 H   0  0  0  0  0  0  0  0  0  0  0  0
   -1.1645    1.4866    0.1512 H   0  0  0  0  0  0  0  0  0  0  0  0
    1.5191    1.0944   -2.0341 C   0  0  0  0  0  0  0  0  0  0  0  0
    1.4854    0.6352   -3.0276 H   0  0  0  0  0  0  0  0  0  0  0  0
    1.4737    2.1778   -2.1859 H   0  0  0  0  0  0  0  0  0  0  0  0
    2.8820    0.7469   -1.4327 C   0  0  0  0  0  0  0  0  0  0  0  0
    3.0299   -0.3348   -1.3724 H   0  0  0  0  0  0  0  0  0  0  0  0
    3.6774    1.1586   -2.0610 H   0  0  0  0  0  0  0  0  0  0  0  0
    2.9809    1.1814   -0.4337 H   0  0  0  0  0  0  0  0  0  0  0  0
    1.0316   -0.5439    0.9917 C   0  0  0  0  0  0  0  0  0  0  0  0
    2.2211   -0.7604    1.1798 O   0  0  0  0  0  0  0  0  0  0  0  0
    0.2694   -0.0858    2.0529 N   0  0  0  0  0  0  0  0  0  0  0  0
   -0.7315   -0.0411    1.8984 H   0  0  0  0  0  0  0  0  0  0  0  0
    0.7722   -0.0245    3.4194 C   0  0  0  0  0  0  0  0  0  0  0  0
    1.6435    0.6362    3.4778 H   0  0  0  0  0  0  0  0  0  0  0  0
   -0.0004    0.3635    4.0899 H   0  0  0  0  0  0  0  0  0  0  0  0
    1.0631   -1.0225    3.7643 H   0  0  0  0  0  0  0  0  0  0  0  0
  1  2  1  0  0  0  0
  2  3  1  0  0  0  0
  2  4  1  0  0  0  0
  2  5  1  0  0  0  0
  5  6  2  0  0  0  0
  5  7  1  0  0  0  0
  7  8  1  0  0  0  0
  7  9  1  0  0  0  0
  9 10  1  0  0  0  0
  9 11  1  0  0  0  0
  9 24  1  0  0  0  0
 11 12  1  0  0  0  0
 11 13  1  0  0  0  0
 11 17  1  0  0  0  0
 13 14  1  0  0  0  0
 13 15  1  0  0  0  0
 13 16  1  0  0  0  0
 17 18  1  0  0  0  0
 17 19  1  0  0  0  0
 17 20  1  0  0  0  0
 20 21  1  0  0  0  0
 20 22  1  0  0  0  0
 20 23  1  0  0  0  0
 24 25  2  0  0  0  0
 24 26  1  0  0  0  0
 26 27  1  0  0  0  0
 26 28  1  0  0  0  0
 28 29  1  0  0  0  0
 28 30  1  0  0  0  0
 28 31  1  0  0  0  0
M  END
$$$$

  -OEChem-03222214053D

 31 30  0     1  0  0  0  0  0999 V2000
   -2.6262   -4.1905    0.3867 H   0  0  0  0  0  0  0  0  0  0  0  0
   -2.6042   -3.1689   -0.0039 C   0  0  0  0  0  0  0  0  0  0  0  0
   -3.2980   -2.5559    0.5764 H   0  0  0  0  0  0  0  0  0  0  0  0
   -2.9265   -3.1858   -1.0478 H   0  0  0  0  0  0  0  0  0  0  0  0
   -1.2003   -2.6022    0.0973 C   0  0  0  0  0  0  0  0  0  0  0  0
   -0.3157   -3.2662    0.6053 O   0  0  0  0  0  0  0  0  0  0  0  0
   -0.9389   -1.3356   -0.3882 N   0  0  0  0  0  0  0  0  0  0  0  0
   -1.7018   -0.8610   -0.8608 H   0  0  0  0  0  0  0  0  0  0  0  0
    0.3966   -0.7039   -0.4134 C   0  0  1  0  0  0  0  0  0  0  0  0
    1.0472   -1.3935   -0.9587 H   0  0  0  0  0  0  0  0  0  0  0  0
    0.2650    0.6105   -1.2494 C   0  0  1  0  0  0  0  0  0  0  0  0
   -0.4874    0.4136   -2.0213 H   0  0  0  0  0  0  0  0  0  0  0  0
   -0.2828    1.7734   -0.4035 C   0  0  0  0  0  0  0  0  0  0  0  0
    0.4635    2.1119    0.3227 H   0  0  0  0  0  0  0  0  0  0  0  0
   -0.5419    2.6206   -1.0468 H   0  0  0  0  0  0  0  0  0  0  0  0
   -1.1860    1.4705    0.1343 H   0  0  0  0  0  0  0  0  0  0  0  0
    1.5224    1.0934   -2.0332 C   0  0  0  0  0  0  0  0  0  0  0  0
    1.3505    0.8765   -3.0925 H   0  0  0  0  0  0  0  0  0  0  0  0
    1.6148    2.1812   -1.9488 H   0  0  0  0  0  0  0  0  0  0  0  0
    2.8781    0.4802   -1.6716 C   0  0  0  0  0  0  0  0  0  0  0  0
    2.8761   -0.6069   -1.7851 H   0  0  0  0  0  0  0  0  0  0  0  0
    3.6501    0.8826   -2.3342 H   0  0  0  0  0  0  0  0  0  0  0  0
    3.1529    0.7380   -0.6457 H   0  0  0  0  0  0  0  0  0  0  0  0
    1.0287   -0.5526    0.9966 C   0  0  0  0  0  0  0  0  0  0  0  0
    2.2199   -0.7663    1.1756 O   0  0  0  0  0  0  0  0  0  0  0  0
    0.2745   -0.0847    2.0591 N   0  0  0  0  0  0  0  0  0  0  0  0
   -0.7278   -0.0452    1.9118 H   0  0  0  0  0  0  0  0  0  0  0  0
    0.7869   -0.0159    3.4219 C   0  0  0  0  0  0  0  0  0  0  0  0
    1.6613    0.6418    3.4700 H   0  0  0  0  0  0  0  0  0  0  0  0
    0.0209    0.3805    4.0950 H   0  0  0  0  0  0  0  0  0  0  0  0
    1.0758   -1.0126    3.7720 H   0  0  0  0  0  0  0  0  0  0  0  0
  1  2  1  0  0  0  0
  2  3  1  0  0  0  0
  2  4  1  0  0  0  0
  2  5  1  0  0  0  0
  5  6  2  0  0  0  0
  5  7  1  0  0  0  0
  7  8  1  0  0  0  0
  7  9  1  0  0  0  0
  9 10  1  0  0  0  0
  9 11  1  0  0  0  0
  9 24  1  0  0  0  0
 11 12  1  0  0  0  0
 11 13  1  0  0  0  0
 11 17  1  0  0  0  0
 13 14  1  0  0  0  0
 13 15  1  0  0  0  0
 13 16  1  0  0  0  0
 17 18  1  0  0  0  0
 17 19  1  0  0  0  0
 17 20  1  0  0  0  0
 20 21  1  0  0  0  0
 20 22  1  0  0  0  0
 20 23  1  0  0  0  0
 24 25  2  0  0  0  0
 24 26  1  0  0  0  0
 26 27  1  0  0  0  0
 26 28  1  0  0  0  0
 28 29  1  0  0  0  0
 28 30  1  0  0  0  0
 28 31  1  0  0  0  0
M  END
$$$$

  -OEChem-03222214053D

 31 30  0     1  0  0  0  0  0999 V2000
   -2.6429   -4.1870    0.4029 H   0  0  0  0  0  0  0  0  0  0  0  0
   -2.6166   -3.1688    0.0039 C   0  0  0  0  0  0  0  0  0  0  0  0
   -3.3104   -2.5489    0.5767 H   0  0  0  0  0  0  0  0  0  0  0  0
   -2.9355   -3.1934   -1.0409 H   0  0  0  0  0  0  0  0  0  0  0  0
   -1.2116   -2.6054    0.1053 C   0  0  0  0  0  0  0  0  0  0  0  0
   -0.3302   -3.2697    0.6183 O   0  0  0  0  0  0  0  0  0  0  0  0
   -0.9448   -1.3422   -0.3862 N   0  0  0  0  0  0  0  0  0  0  0  0
   -1.7049   -0.8670   -0.8626 H   0  0  0  0  0  0  0  0  0  0  0  0
    0.3939   -0.7175   -0.4169 C   0  0  1  0  0  0  0  0  0  0  0  0
    1.0398   -1.4122   -0.9602 H   0  0  0  0  0  0  0  0  0  0  0  0
    0.2713    0.6074   -1.2369 C   0  0  1  0  0  0  0  0  0  0  0  0
   -0.4717    0.3992   -2.0149 H   0  0  0  0  0  0  0  0  0  0  0  0
   -0.2992    1.7673   -0.4027 C   0  0  0  0  0  0  0  0  0  0  0  0
    0.4261    2.1056    0.3444 H   0  0  0  0  0  0  0  0  0  0  0  0
   -0.5408    2.6151   -1.0516 H   0  0  0  0  0  0  0  0  0  0  0  0
   -1.2156    1.4612    0.1105 H   0  0  0  0  0  0  0  0  0  0  0  0
    1.5234    1.0956   -2.0275 C   0  0  0  0  0  0  0  0  0  0  0  0
    1.2423    1.1837   -3.0821 H   0  0  0  0  0  0  0  0  0  0  0  0
    1.7932    2.1017   -1.6899 H   0  0  0  0  0  0  0  0  0  0  0  0
    2.7978    0.2490   -1.9567 C   0  0  0  0  0  0  0  0  0  0  0  0
    2.6180   -0.7689   -2.3141 H   0  0  0  0  0  0  0  0  0  0  0  0
    3.5682    0.6949   -2.5930 H   0  0  0  0  0  0  0  0  0  0  0  0
    3.1895    0.2128   -0.9385 H   0  0  0  0  0  0  0  0  0  0  0  0
    1.0301   -0.5631    0.9906 C   0  0  0  0  0  0  0  0  0  0  0  0
    2.2264   -0.7520    1.1620 O   0  0  0  0  0  0  0  0  0  0  0  0
    0.2796   -0.0867    2.0522 N   0  0  0  0  0  0  0  0  0  0  0  0
   -0.7239   -0.0547    1.9110 H   0  0  0  0  0  0  0  0  0  0  0  0
    0.8009    0.0087    3.4097 C   0  0  0  0  0  0  0  0  0  0  0  0
    1.6698    0.6745    3.4411 H   0  0  0  0  0  0  0  0  0  0  0  0
    0.0361    0.4091    4.0818 H   0  0  0  0  0  0  0  0  0  0  0  0
    1.1013   -0.9798    3.7730 H   0  0  0  0  0  0  0  0  0  0  0  0
  1  2  1  0  0  0  0
  2  3  1  0  0  0  0
  2  4  1  0  0  0  0
  2  5  1  0  0  0  0
  5  6  2  0  0  0  0
  5  7  1  0  0  0  0
  7  8  1  0  0  0  0
  7  9  1  0  0  0  0
  9 10  1  0  0  0  0
  9 11  1  0  0  0  0
  9 24  1  0  0  0  0
 11 12  1  0  0  0  0
 11 13  1  0  0  0  0
 11 17  1  0  0  0  0
 13 14  1  0  0  0  0
 13 15  1  0  0  0  0
 13 16  1  0  0  0  0
 17 18  1  0  0  0  0
 17 19  1  0  0  0  0
 17 20  1  0  0  0  0
 20 21  1  0  0  0  0
 20 22  1  0  0  0  0
 20 23  1  0  0  0  0
 24 25  2  0  0  0  0
 24 26  1  0  0  0  0
 26 27  1  0  0  0  0
 26 28  1  0  0  0  0
 28 29  1  0  0  0  0
 28 30  1  0  0  0  0
 28 31  1  0  0  0  0
M  END
$$$$

  -OEChem-03222214053D

 31 30  0     1  0  0  0  0  0999 V2000
   -2.6371   -4.2098    0.3777 H   0  0  0  0  0  0  0  0  0  0  0  0
   -2.6208   -3.1885   -0.0136 C   0  0  0  0  0  0  0  0  0  0  0  0
   -3.3202   -2.5797    0.5642 H   0  0  0  0  0  0  0  0  0  0  0  0
   -2.9397   -3.2083   -1.0585 H   0  0  0  0  0  0  0  0  0  0  0  0
   -1.2212   -2.6129    0.0914 C   0  0  0  0  0  0  0  0  0  0  0  0
   -0.3343   -3.2690    0.6059 O   0  0  0  0  0  0  0  0  0  0  0  0
   -0.9655   -1.3446   -0.3923 N   0  0  0  0  0  0  0  0  0  0  0  0
   -1.7271   -0.8764   -0.8736 H   0  0  0  0  0  0  0  0  0  0  0  0
    0.3700   -0.7146   -0.4246 C   0  0  1  0  0  0  0  0  0  0  0  0
    1.0092   -1.4113   -0.9729 H   0  0  0  0  0  0  0  0  0  0  0  0
    0.2583    0.6181   -1.2299 C   0  0  1  0  0  0  0  0  0  0  0  0
   -0.4758    0.4126   -2.0169 H   0  0  0  0  0  0  0  0  0  0  0  0
   -0.3124    1.7811   -0.4016 C   0  0  0  0  0  0  0  0  0  0  0  0
    0.4050    2.1117    0.3566 H   0  0  0  0  0  0  0  0  0  0  0  0
   -0.5363    2.6322   -1.0524 H   0  0  0  0  0  0  0  0  0  0  0  0
   -1.2382    1.4814    0.0982 H   0  0  0  0  0  0  0  0  0  0  0  0
    1.5205    1.0931   -2.0056 C   0  0  0  0  0  0  0  0  0  0  0  0
    1.2028    1.4705   -2.9829 H   0  0  0  0  0  0  0  0  0  0  0  0
    1.9676    1.9355   -1.4673 H   0  0  0  0  0  0  0  0  0  0  0  0
    2.6430    0.0730   -2.2220 C   0  0  0  0  0  0  0  0  0  0  0  0
    2.2704   -0.8027   -2.7616 H   0  0  0  0  0  0  0  0  0  0  0  0
    3.4415    0.5254   -2.8178 H   0  0  0  0  0  0  0  0  0  0  0  0
    3.0771   -0.2481   -1.2723 H   0  0  0  0  0  0  0  0  0  0  0  0
    1.0286   -0.5601    0.9709 C   0  0  0  0  0  0  0  0  0  0  0  0
    2.2378   -0.6894    1.1050 O   0  0  0  0  0  0  0  0  0  0  0  0
    0.2927   -0.0908    2.0453 N   0  0  0  0  0  0  0  0  0  0  0  0
   -0.7146   -0.0886    1.9301 H   0  0  0  0  0  0  0  0  0  0  0  0
    0.8473    0.0445    3.3861 C   0  0  0  0  0  0  0  0  0  0  0  0
    1.6954    0.7373    3.3821 H   0  0  0  0  0  0  0  0  0  0  0  0
    0.0886    0.4331    4.0719 H   0  0  0  0  0  0  0  0  0  0  0  0
    1.1882   -0.9275    3.7581 H   0  0  0  0  0  0  0  0  0  0  0  0
  1  2  1  0  0  0  0
  2  3  1  0  0  0  0
  2  4  1  0  0  0  0
  2  5  1  0  0  0  0
  5  6  2  0  0  0  0
  5  7  1  0  0  0  0
  7  8  1  0  0  0  0
  7  9  1  0  0  0  0
  9 10  1  0  0  0  0
  9 11  1  0  0  0  0
  9 24  1  0  0  0  0
 11 12  1  0  0  0  0
 11 13  1  0  0  0  0
 11 17  1  0  0  0  0
 13 14  1  0  0  0  0
 13 15  1  0  0  0  0
 13 16  1  0  0  0  0
 17 18  1  0  0  0  0
 17 19  1  0  0  0  0
 17 20  1  0  0  0  0
 20 21  1  0  0  0  0
 20 22  1  0  0  0  0
 20 23  1  0  0  0  0
 24 25  2  0  0  0  0
 24 26  1  0  0  0  0
 26 27  1  0  0  0  0
 26 28  1  0  0  0  0
 28 29  1  0  0  0  0
 28 30  1  0  0  0  0
 28 31  1  0  0  0  0
M  END
$$$$

  -OEChem-03222214053D

 31 30  0     1  0  0  0  0  0999 V2000
   -2.6278   -4.2402    0.3158 H   0  0  0  0  0  0  0  0  0  0  0  0
   -2.6240   -3.2144   -0.0639 C   0  0  0  0  0  0  0  0  0  0  0  0
   -3.3448   -2.6253    0.5080 H   0  0  0  0  0  0  0  0  0  0  0  0
   -2.9246   -3.2284   -1.1143 H   0  0  0  0  0  0  0  0  0  0  0  0
   -1.2370   -2.6143    0.0716 C   0  0  0  0  0  0  0  0  0  0  0  0
   -0.3474   -3.2572    0.5983 O   0  0  0  0  0  0  0  0  0  0  0  0
   -0.9953   -1.3373   -0.3953 N   0  0  0  0  0  0  0  0  0  0  0  0
   -1.7556   -0.8800   -0.8889 H   0  0  0  0  0  0  0  0  0  0  0  0
    0.3349   -0.6980   -0.4237 C   0  0  1  0  0  0  0  0  0  0  0  0
    0.9661   -1.3981   -0.9757 H   0  0  0  0  0  0  0  0  0  0  0  0
    0.2329    0.6336   -1.2277 C   0  0  1  0  0  0  0  0  0  0  0  0
   -0.4950    0.4372   -2.0225 H   0  0  0  0  0  0  0  0  0  0  0  0
   -0.3245    1.8024   -0.4004 C   0  0  0  0  0  0  0  0  0  0  0  0
    0.3955    2.1245    0.3586 H   0  0  0  0  0  0  0  0  0  0  0  0
   -0.5377    2.6559   -1.0515 H   0  0  0  0  0  0  0  0  0  0  0  0
   -1.2539    1.5129    0.0989 H   0  0  0  0  0  0  0  0  0  0  0  0
    1.5133    1.0858   -1.9787 C   0  0  0  0  0  0  0  0  0  0  0  0
    1.2141    1.6972   -2.8362 H   0  0  0  0  0  0  0  0  0  0  0  0
    2.1022    1.7263   -1.3134 H   0  0  0  0  0  0  0  0  0  0  0  0
    2.4490   -0.0231   -2.4705 C   0  0  0  0  0  0  0  0  0  0  0  0
    1.9002   -0.7482   -3.0793 H   0  0  0  0  0  0  0  0  0  0  0  0
    3.2451    0.4093   -3.0839 H   0  0  0  0  0  0  0  0  0  0  0  0
    2.9197   -0.5422   -1.6302 H   0  0  0  0  0  0  0  0  0  0  0  0
    1.0253   -0.5442    0.9532 C   0  0  0  0  0  0  0  0  0  0  0  0
    2.2444   -0.6169    1.0343 O   0  0  0  0  0  0  0  0  0  0  0  0
    0.3138   -0.0878    2.0490 N   0  0  0  0  0  0  0  0  0  0  0  0
   -0.6968   -0.1253    1.9721 H   0  0  0  0  0  0  0  0  0  0  0  0
    0.9131    0.0762    3.3673 C   0  0  0  0  0  0  0  0  0  0  0  0
    1.7395    0.7936    3.3264 H   0  0  0  0  0  0  0  0  0  0  0  0
    0.1694    0.4489    4.0779 H   0  0  0  0  0  0  0  0  0  0  0  0
    1.2960   -0.8821    3.7340 H   0  0  0  0  0  0  0  0  0  0  0  0
  1  2  1  0  0  0  0
  2  3  1  0  0  0  0
  2  4  1  0  0  0  0
  2  5  1  0  0  0  0
  5  6  2  0  0  0  0
  5  7  1  0  0  0  0
  7  8  1  0  0  0  0
  7  9  1  0  0  0  0
  9 10  1  0  0  0  0
  9 11  1  0  0  0  0
  9 24  1  0  0  0  0
 11 12  1  0  0  0  0
 11 13  1  0  0  0  0
 11 17  1  0  0  0  0
 13 14  1  0  0  0  0
 13 15  1  0  0  0  0
 13 16  1  0  0  0  0
 17 18  1  0  0  0  0
 17 19  1  0  0  0  0
 17 20  1  0  0  0  0
 20 21  1  0  0  0  0
 20 22  1  0  0  0  0
 20 23  1  0  0  0  0
 24 25  2  0  0  0  0
 24 26  1  0  0  0  0
 26 27  1  0  0  0  0
 26 28  1  0  0  0  0
 28 29  1  0  0  0  0
 28 30  1  0  0  0  0
 28 31  1  0  0  0  0
M  END
$$$$

  -OEChem-03222214053D

 31 30  0     1  0  0  0  0  0999 V2000
   -2.6074   -4.2537    0.2848 H   0  0  0  0  0  0  0  0  0  0  0  0
   -2.6129   -3.2263   -0.0903 C   0  0  0  0  0  0  0  0  0  0  0  0
   -3.3416   -2.6471    0.4817 H   0  0  0  0  0  0  0  0  0  0  0  0
   -2.9104   -3.2392   -1.1416 H   0  0  0  0  0  0  0  0  0  0  0  0
   -1.2329   -2.6119    0.0526 C   0  0  0  0  0  0  0  0  0  0  0  0
   -0.3368   -3.2498    0.5746 O   0  0  0  0  0  0  0  0  0  0  0  0
   -1.0038   -1.3283   -0.4025 N   0  0  0  0  0  0  0  0  0  0  0  0
   -1.7690   -0.8723   -0.8897 H   0  0  0  0  0  0  0  0  0  0  0  0
    0.3209   -0.6778   -0.4292 C   0  0  1  0  0  0  0  0  0  0  0  0
    0.9560   -1.3710   -0.9847 H   0  0  0  0  0  0  0  0  0  0  0  0
    0.2131    0.6524   -1.2320 C   0  0  1  0  0  0  0  0  0  0  0  0
   -0.5190    0.4708   -2.0262 H   0  0  0  0  0  0  0  0  0  0  0  0
   -0.3217    1.8238   -0.3937 C   0  0  0  0  0  0  0  0  0  0  0  0
    0.4116    2.1385    0.3557 H   0  0  0  0  0  0  0  0  0  0  0  0
   -0.5371    2.6811   -1.0391 H   0  0  0  0  0  0  0  0  0  0  0  0
   -1.2465    1.5402    0.1175 H   0  0  0  0  0  0  0  0  0  0  0  0
    1.5065    1.0835   -1.9652 C   0  0  0  0  0  0  0  0  0  0  0  0
    1.2534    1.8816   -2.6708 H   0  0  0  0  0  0  0  0  0  0  0  0
    2.2090    1.5018   -1.2364 H   0  0  0  0  0  0  0  0  0  0  0  0
    2.2324   -0.0266   -2.7325 C   0  0  0  0  0  0  0  0  0  0  0  0
    1.5306   -0.5812   -3.3627 H   0  0  0  0  0  0  0  0  0  0  0  0
    3.0034    0.4104   -3.3743 H   0  0  0  0  0  0  0  0  0  0  0  0
    2.7256   -0.7220   -2.0466 H   0  0  0  0  0  0  0  0  0  0  0  0
    1.0232   -0.5273    0.9413 C   0  0  0  0  0  0  0  0  0  0  0  0
    2.2446   -0.5790    1.0032 O   0  0  0  0  0  0  0  0  0  0  0  0
    0.3195   -0.0852    2.0479 N   0  0  0  0  0  0  0  0  0  0  0  0
   -0.6912   -0.1395    1.9848 H   0  0  0  0  0  0  0  0  0  0  0  0
    0.9341    0.0847    3.3584 C   0  0  0  0  0  0  0  0  0  0  0  0
    1.7500    0.8135    3.3077 H   0  0  0  0  0  0  0  0  0  0  0  0
    0.1946    0.4457    4.0794 H   0  0  0  0  0  0  0  0  0  0  0  0
    1.3351   -0.8686    3.7187 H   0  0  0  0  0  0  0  0  0  0  0  0
  1  2  1  0  0  0  0
  2  3  1  0  0  0  0
  2  4  1  0  0  0  0
  2  5  1  0  0  0  0
  5  6  2  0  0  0  0
  5  7  1  0  0  0  0
  7  8  1  0  0  0  0
  7  9  1  0  0  0  0
  9 10  1  0  0  0  0
  9 11  1  0  0  0  0
  9 24  1  0  0  0  0
 11 12  1  0  0  0  0
 11 13  1  0  0  0  0
 11 17  1  0  0  0  0
 13 14  1  0  0  0  0
 13 15  1  0  0  0  0
 13 16  1  0  0  0  0
 17 18  1  0  0  0  0
 17 19  1  0  0  0  0
 17 20  1  0  0  0  0
 20 21  1  0  0  0  0
 20 22  1  0  0  0  0
 20 23  1  0  0  0  0
 24 25  2  0  0  0  0
 24 26  1  0  0  0  0
 26 27  1  0  0  0  0
 26 28  1  0  0  0  0
 28 29  1  0  0  0  0
 28 30  1  0  0  0  0
 28 31  1  0  0  0  0
M  END
$$$$

  -OEChem-03222214053D

 31 30  0     1  0  0  0  0  0999 V2000
   -2.5763   -4.2573    0.2838 H   0  0  0  0  0  0  0  0  0  0  0  0
   -2.5904   -3.2301   -0.0921 C   0  0  0  0  0  0  0  0  0  0  0  0
   -3.3168   -2.6543    0.4862 H   0  0  0  0  0  0  0  0  0  0  0  0
   -2.8972   -3.2448   -1.1407 H   0  0  0  0  0  0  0  0  0  0  0  0
   -1.2124   -2.6085    0.0377 C   0  0  0  0  0  0  0  0  0  0  0  0
   -0.3060   -3.2451    0.5431 O   0  0  0  0  0  0  0  0  0  0  0  0
   -0.9961   -1.3210   -0.4125 N   0  0  0  0  0  0  0  0  0  0  0  0
   -1.7704   -0.8652   -0.8850 H   0  0  0  0  0  0  0  0  0  0  0  0
    0.3224   -0.6586   -0.4408 C   0  0  1  0  0  0  0  0  0  0  0  0
    0.9703   -1.3366   -1.0009 H   0  0  0  0  0  0  0  0  0  0  0  0
    0.1986    0.6715   -1.2398 C   0  0  1  0  0  0  0  0  0  0  0  0
   -0.5461    0.5076   -2.0262 H   0  0  0  0  0  0  0  0  0  0  0  0
   -0.3073    1.8415   -0.3815 C   0  0  0  0  0  0  0  0  0  0  0  0
    0.4489    2.1475    0.3486 H   0  0  0  0  0  0  0  0  0  0  0  0
   -0.5351    2.7037   -1.0156 H   0  0  0  0  0  0  0  0  0  0  0  0
   -1.2199    1.5613    0.1530 H   0  0  0  0  0  0  0  0  0  0  0  0
    1.5008    1.0846   -1.9621 C   0  0  0  0  0  0  0  0  0  0  0  0
    1.3234    2.0302   -2.4850 H   0  0  0  0  0  0  0  0  0  0  0  0
    2.2901    1.2613   -1.2234 H   0  0  0  0  0  0  0  0  0  0  0  0
    2.0043    0.0640   -2.9888 C   0  0  0  0  0  0  0  0  0  0  0  0
    1.1946   -0.2385   -3.6598 H   0  0  0  0  0  0  0  0  0  0  0  0
    2.8029    0.5092   -3.5899 H   0  0  0  0  0  0  0  0  0  0  0  0
    2.4127   -0.8249   -2.4998 H   0  0  0  0  0  0  0  0  0  0  0  0
    1.0214   -0.5114    0.9324 C   0  0  0  0  0  0  0  0  0  0  0  0
    2.2429   -0.5593    0.9983 O   0  0  0  0  0  0  0  0  0  0  0  0
    0.3117   -0.0823    2.0404 N   0  0  0  0  0  0  0  0  0  0  0  0
   -0.6987   -0.1381    1.9726 H   0  0  0  0  0  0  0  0  0  0  0  0
    0.9200    0.0800    3.3546 C   0  0  0  0  0  0  0  0  0  0  0  0
    1.7337    0.8117    3.3137 H   0  0  0  0  0  0  0  0  0  0  0  0
    0.1759    0.4333    4.0745 H   0  0  0  0  0  0  0  0  0  0  0  0
    1.3222   -0.8748    3.7093 H   0  0  0  0  0  0  0  0  0  0  0  0
  1  2  1  0  0  0  0
  2  3  1  0  0  0  0
  2  4  1  0  0  0  0
  2  5  1  0  0  0  0
  5  6  2  0  0  0  0
  5  7  1  0  0  0  0
  7  8  1  0  0  0  0
  7  9  1  0  0  0  0
  9 10  1  0  0  0  0
  9 11  1  0  0  0  0
  9 24  1  0  0  0  0
 11 12  1  0  0  0  0
 11 13  1  0  0  0  0
 11 17  1  0  0  0  0
 13 14  1  0  0  0  0
 13 15  1  0  0  0  0
 13 16  1  0  0  0  0
 17 18  1  0  0  0  0
 17 19  1  0  0  0  0
 17 20  1  0  0  0  0
 20 21  1  0  0  0  0
 20 22  1  0  0  0  0
 20 23  1  0  0  0  0
 24 25  2  0  0  0  0
 24 26  1  0  0  0  0
 26 27  1  0  0  0  0
 26 28  1  0  0  0  0
 28 29  1  0  0  0  0
 28 30  1  0  0  0  0
 28 31  1  0  0  0  0
M  END
$$$$

  -OEChem-03222214053D

 31 30  0     1  0  0  0  0  0999 V2000
   -2.5383   -4.2585    0.2876 H   0  0  0  0  0  0  0  0  0  0  0  0
   -2.5618   -3.2307   -0.0858 C   0  0  0  0  0  0  0  0  0  0  0  0
   -3.2806   -2.6584    0.5053 H   0  0  0  0  0  0  0  0  0  0  0  0
   -2.8853   -3.2445   -1.1293 H   0  0  0  0  0  0  0  0  0  0  0  0
   -1.1839   -2.6050    0.0232 C   0  0  0  0  0  0  0  0  0  0  0  0
   -0.2667   -3.2415    0.5088 O   0  0  0  0  0  0  0  0  0  0  0  0
   -0.9805   -1.3140   -0.4231 N   0  0  0  0  0  0  0  0  0  0  0  0
   -1.7642   -0.8576   -0.8795 H   0  0  0  0  0  0  0  0  0  0  0  0
    0.3312   -0.6382   -0.4521 C   0  0  1  0  0  0  0  0  0  0  0  0
    0.9946   -1.2979   -1.0191 H   0  0  0  0  0  0  0  0  0  0  0  0
    0.1873    0.6914   -1.2476 C   0  0  1  0  0  0  0  0  0  0  0  0
   -0.5671    0.5392   -2.0270 H   0  0  0  0  0  0  0  0  0  0  0  0
   -0.3029    1.8577   -0.3747 C   0  0  0  0  0  0  0  0  0  0  0  0
    0.4652    2.1583    0.3452 H   0  0  0  0  0  0  0  0  0  0  0  0
   -0.5390    2.7241   -1.0005 H   0  0  0  0  0  0  0  0  0  0  0  0
   -1.2078    1.5759    0.1717 H   0  0  0  0  0  0  0  0  0  0  0  0
    1.4988    1.0883   -1.9596 C   0  0  0  0  0  0  0  0  0  0  0  0
    1.4331    2.1338   -2.2782 H   0  0  0  0  0  0  0  0  0  0  0  0
    2.3416    1.0121   -1.2647 H   0  0  0  0  0  0  0  0  0  0  0  0
    1.7789    0.2384   -3.2036 C   0  0  0  0  0  0  0  0  0  0  0  0
    0.9422    0.2990   -3.9063 H   0  0  0  0  0  0  0  0  0  0  0  0
    2.6791    0.6042   -3.7067 H   0  0  0  0  0  0  0  0  0  0  0  0
    1.9408   -0.8102   -2.9402 H   0  0  0  0  0  0  0  0  0  0  0  0
    1.0220   -0.4941    0.9267 C   0  0  0  0  0  0  0  0  0  0  0  0
    2.2425   -0.5460    1.0040 O   0  0  0  0  0  0  0  0  0  0  0  0
    0.3027   -0.0788    2.0341 N   0  0  0  0  0  0  0  0  0  0  0  0
   -0.7072   -0.1292    1.9565 H   0  0  0  0  0  0  0  0  0  0  0  0
    0.8998    0.0684    3.3553 C   0  0  0  0  0  0  0  0  0  0  0  0
    1.7168    0.7972    3.3284 H   0  0  0  0  0  0  0  0  0  0  0  0
    0.1512    0.4179    4.0725 H   0  0  0  0  0  0  0  0  0  0  0  0
    1.2950   -0.8914    3.7043 H   0  0  0  0  0  0  0  0  0  0  0  0
  1  2  1  0  0  0  0
  2  3  1  0  0  0  0
  2  4  1  0  0  0  0
  2  5  1  0  0  0  0
  5  6  2  0  0  0  0
  5  7  1  0  0  0  0
  7  8  1  0  0  0  0
  7  9  1  0  0  0  0
  9 10  1  0  0  0  0
  9 11  1  0  0  0  0
  9 24  1  0  0  0  0
 11 12  1  0  0  0  0
 11 13  1  0  0  0  0
 11 17  1  0  0  0  0
 13 14  1  0  0  0  0
 13 15  1  0  0  0  0
 13 16  1  0  0  0  0
 17 18  1  0  0  0  0
 17 19  1  0  0  0  0
 17 20  1  0  0  0  0
 20 21  1  0  0  0  0
 20 22  1  0  0  0  0
 20 23  1  0  0  0  0
 24 25  2  0  0  0  0
 24 26  1  0  0  0  0
 26 27  1  0  0  0  0
 26 28  1  0  0  0  0
 28 29  1  0  0  0  0
 28 30  1  0  0  0  0
 28 31  1  0  0  0  0
M  END
$$$$

  -OEChem-03222214053D

 31 30  0     1  0  0  0  0  0999 V2000
   -2.5170   -4.2658    0.2552 H   0  0  0  0  0  0  0  0  0  0  0  0
   -2.5465   -3.2352   -0.1103 C   0  0  0  0  0  0  0  0  0  0  0  0
   -3.2806   -2.6756    0.4743 H   0  0  0  0  0  0  0  0  0  0  0  0
   -2.8537   -3.2441   -1.1588 H   0  0  0  0  0  0  0  0  0  0  0  0
   -1.1775   -2.5951    0.0243 C   0  0  0  0  0  0  0  0  0  0  0  0
   -0.2616   -3.2239    0.5221 O   0  0  0  0  0  0  0  0  0  0  0  0
   -0.9801   -1.3019   -0.4183 N   0  0  0  0  0  0  0  0  0  0  0  0
   -1.7609   -0.8560   -0.8899 H   0  0  0  0  0  0  0  0  0  0  0  0
    0.3295   -0.6221   -0.4500 C   0  0  1  0  0  0  0  0  0  0  0  0
    0.9945   -1.2722   -1.0297 H   0  0  0  0  0  0  0  0  0  0  0  0
    0.1777    0.7054   -1.2446 C   0  0  1  0  0  0  0  0  0  0  0  0
   -0.5838    0.5579   -2.0184 H   0  0  0  0  0  0  0  0  0  0  0  0
   -0.3052    1.8712   -0.3668 C   0  0  0  0  0  0  0  0  0  0  0  0
    0.4668    2.1684    0.3505 H   0  0  0  0  0  0  0  0  0  0  0  0
   -0.5418    2.7391   -0.9902 H   0  0  0  0  0  0  0  0  0  0  0  0
   -1.2084    1.5908    0.1832 H   0  0  0  0  0  0  0  0  0  0  0  0
    1.4998    1.0829   -1.9499 C   0  0  0  0  0  0  0  0  0  0  0  0
    1.5701    2.1713   -2.0473 H   0  0  0  0  0  0  0  0  0  0  0  0
    2.3607    0.7571   -1.3570 H   0  0  0  0  0  0  0  0  0  0  0  0
    1.5794    0.4832   -3.3554 C   0  0  0  0  0  0  0  0  0  0  0  0
    0.7589    0.8519   -3.9786 H   0  0  0  0  0  0  0  0  0  0  0  0
    2.5255    0.7632   -3.8287 H   0  0  0  0  0  0  0  0  0  0  0  0
    1.5252   -0.6089   -3.3120 H   0  0  0  0  0  0  0  0  0  0  0  0
    1.0236   -0.4820    0.9282 C   0  0  0  0  0  0  0  0  0  0  0  0
    2.2443   -0.5336    1.0041 O   0  0  0  0  0  0  0  0  0  0  0  0
    0.3055   -0.0734    2.0387 N   0  0  0  0  0  0  0  0  0  0  0  0
   -0.7043   -0.1287    1.9634 H   0  0  0  0  0  0  0  0  0  0  0  0
    0.9054    0.0710    3.3589 C   0  0  0  0  0  0  0  0  0  0  0  0
    1.7114    0.8119    3.3350 H   0  0  0  0  0  0  0  0  0  0  0  0
    0.1541    0.4032    4.0815 H   0  0  0  0  0  0  0  0  0  0  0  0
    1.3160   -0.8859    3.6984 H   0  0  0  0  0  0  0  0  0  0  0  0
  1  2  1  0  0  0  0
  2  3  1  0  0  0  0
  2  4  1  0  0  0  0
  2  5  1  0  0  0  0
  5  6  2  0  0  0  0
  5  7  1  0  0  0  0
  7  8  1  0  0  0  0
  7  9  1  0  0  0  0
  9 10  1  0  0  0  0
  9 11  1  0  0  0  0
  9 24  1  0  0  0  0
 11 12  1  0  0  0  0
 11 13  1  0  0  0  0
 11 17  1  0  0  0  0
 13 14  1  0  0  0  0
 13 15  1  0  0  0  0
 13 16  1  0  0  0  0
 17 18  1  0  0  0  0
 17 19  1  0  0  0  0
 17 20  1  0  0  0  0
 20 21  1  0  0  0  0
 20 22  1  0  0  0  0
 20 23  1  0  0  0  0
 24 25  2  0  0  0  0
 24 26  1  0  0  0  0
 26 27  1  0  0  0  0
 26 28  1  0  0  0  0
 28 29  1  0  0  0  0
 28 30  1  0  0  0  0
 28 31  1  0  0  0  0
M  END
$$$$

  -OEChem-03222214053D

 31 30  0     1  0  0  0  0  0999 V2000
   -2.5209   -4.2633    0.2695 H   0  0  0  0  0  0  0  0  0  0  0  0
   -2.5507   -3.2336   -0.0983 C   0  0  0  0  0  0  0  0  0  0  0  0
   -3.2769   -2.6702    0.4922 H   0  0  0  0  0  0  0  0  0  0  0  0
   -2.8682   -3.2439   -1.1438 H   0  0  0  0  0  0  0  0  0  0  0  0
   -1.1784   -2.5982    0.0220 C   0  0  0  0  0  0  0  0  0  0  0  0
   -0.2596   -3.2292    0.5117 O   0  0  0  0  0  0  0  0  0  0  0  0
   -0.9818   -1.3044   -0.4193 N   0  0  0  0  0  0  0  0  0  0  0  0
   -1.7664   -0.8530   -0.8793 H   0  0  0  0  0  0  0  0  0  0  0  0
    0.3275   -0.6239   -0.4495 C   0  0  1  0  0  0  0  0  0  0  0  0
    0.9895   -1.2749   -1.0324 H   0  0  0  0  0  0  0  0  0  0  0  0
    0.1810    0.7054   -1.2408 C   0  0  1  0  0  0  0  0  0  0  0  0
   -0.5775    0.5502   -2.0160 H   0  0  0  0  0  0  0  0  0  0  0  0
   -0.3176    1.8698   -0.3699 C   0  0  0  0  0  0  0  0  0  0  0  0
    0.4406    2.1667    0.3620 H   0  0  0  0  0  0  0  0  0  0  0  0
   -0.5432    2.7380   -0.9970 H   0  0  0  0  0  0  0  0  0  0  0  0
   -1.2303    1.5878    0.1635 H   0  0  0  0  0  0  0  0  0  0  0  0
    1.5081    1.0827   -1.9436 C   0  0  0  0  0  0  0  0  0  0  0  0
    1.7211    2.1470   -1.7976 H   0  0  0  0  0  0  0  0  0  0  0  0
    2.3490    0.5303   -1.5113 H   0  0  0  0  0  0  0  0  0  0  0  0
    1.4427    0.8142   -3.4481 C   0  0  0  0  0  0  0  0  0  0  0  0
    0.6474    1.4071   -3.9105 H   0  0  0  0  0  0  0  0  0  0  0  0
    2.3933    1.0838   -3.9184 H   0  0  0  0  0  0  0  0  0  0  0  0
    1.2494   -0.2461   -3.6392 H   0  0  0  0  0  0  0  0  0  0  0  0
    1.0230   -0.4834    0.9275 C   0  0  0  0  0  0  0  0  0  0  0  0
    2.2441   -0.5291    1.0003 O   0  0  0  0  0  0  0  0  0  0  0  0
    0.3056   -0.0754    2.0387 N   0  0  0  0  0  0  0  0  0  0  0  0
   -0.7042   -0.1318    1.9648 H   0  0  0  0  0  0  0  0  0  0  0  0
    0.9069    0.0705    3.3581 C   0  0  0  0  0  0  0  0  0  0  0  0
    1.7163    0.8078    3.3315 H   0  0  0  0  0  0  0  0  0  0  0  0
    0.1578    0.4084    4.0803 H   0  0  0  0  0  0  0  0  0  0  0  0
    1.3134   -0.8872    3.7002 H   0  0  0  0  0  0  0  0  0  0  0  0
  1  2  1  0  0  0  0
  2  3  1  0  0  0  0
  2  4  1  0  0  0  0
  2  5  1  0  0  0  0
  5  6  2  0  0  0  0
  5  7  1  0  0  0  0
  7  8  1  0  0  0  0
  7  9  1  0  0  0  0
  9 10  1  0  0  0  0
  9 11  1  0  0  0  0
  9 24  1  0  0  0  0
 11 12  1  0  0  0  0
 11 13  1  0  0  0  0
 11 17  1  0  0  0  0
 13 14  1  0  0  0  0
 13 15  1  0  0  0  0
 13 16  1  0  0  0  0
 17 18  1  0  0  0  0
 17 19  1  0  0  0  0
 17 20  1  0  0  0  0
 20 21  1  0  0  0  0
 20 22  1  0  0  0  0
 20 23  1  0  0  0  0
 24 25  2  0  0  0  0
 24 26  1  0  0  0  0
 26 27  1  0  0  0  0
 26 28  1  0  0  0  0
 28 29  1  0  0  0  0
 28 30  1  0  0  0  0
 28 31  1  0  0  0  0
M  END
$$$$

  -OEChem-03222214053D

 31 30  0     1  0  0  0  0  0999 V2000
   -2.5324   -4.2639    0.2761 H   0  0  0  0  0  0  0  0  0  0  0  0
   -2.5596   -3.2339   -0.0916 C   0  0  0  0  0  0  0  0  0  0  0  0
   -3.2828   -2.6681    0.5005 H   0  0  0  0  0  0  0  0  0  0  0  0
   -2.8794   -3.2430   -1.1364 H   0  0  0  0  0  0  0  0  0  0  0  0
   -1.1849   -2.6024    0.0252 C   0  0  0  0  0  0  0  0  0  0  0  0
   -0.2670   -3.2349    0.5149 O   0  0  0  0  0  0  0  0  0  0  0  0
   -0.9853   -1.3093   -0.4165 N   0  0  0  0  0  0  0  0  0  0  0  0
   -1.7691   -0.8548   -0.8749 H   0  0  0  0  0  0  0  0  0  0  0  0
    0.3253   -0.6315   -0.4447 C   0  0  1  0  0  0  0  0  0  0  0  0
    0.9822   -1.2891   -1.0254 H   0  0  0  0  0  0  0  0  0  0  0  0
    0.1873    0.7001   -1.2331 C   0  0  1  0  0  0  0  0  0  0  0  0
   -0.5606    0.5274   -2.0150 H   0  0  0  0  0  0  0  0  0  0  0  0
   -0.3347    1.8669   -0.3791 C   0  0  0  0  0  0  0  0  0  0  0  0
    0.4026    2.1651    0.3733 H   0  0  0  0  0  0  0  0  0  0  0  0
   -0.5414    2.7335   -1.0147 H   0  0  0  0  0  0  0  0  0  0  0  0
   -1.2617    1.5864    0.1299 H   0  0  0  0  0  0  0  0  0  0  0  0
    1.5149    1.0819   -1.9356 C   0  0  0  0  0  0  0  0  0  0  0  0
    1.8781    2.0434   -1.5577 H   0  0  0  0  0  0  0  0  0  0  0  0
    2.2960    0.3460   -1.7181 H   0  0  0  0  0  0  0  0  0  0  0  0
    1.3449    1.1793   -3.4528 C   0  0  0  0  0  0  0  0  0  0  0  0
    0.5963    1.9362   -3.7068 H   0  0  0  0  0  0  0  0  0  0  0  0
    2.2941    1.4603   -3.9192 H   0  0  0  0  0  0  0  0  0  0  0  0
    1.0281    0.2165   -3.8661 H   0  0  0  0  0  0  0  0  0  0  0  0
    1.0251   -0.4875    0.9288 C   0  0  0  0  0  0  0  0  0  0  0  0
    2.2468   -0.5278    0.9944 O   0  0  0  0  0  0  0  0  0  0  0  0
    0.3117   -0.0753    2.0408 N   0  0  0  0  0  0  0  0  0  0  0  0
   -0.6983   -0.1365    1.9718 H   0  0  0  0  0  0  0  0  0  0  0  0
    0.9182    0.0772    3.3570 C   0  0  0  0  0  0  0  0  0  0  0  0
    1.7296    0.8119    3.3237 H   0  0  0  0  0  0  0  0  0  0  0  0
    0.1723    0.4214    4.0796 H   0  0  0  0  0  0  0  0  0  0  0  0
    1.3232   -0.8794    3.7035 H   0  0  0  0  0  0  0  0  0  0  0  0
  1  2  1  0  0  0  0
  2  3  1  0  0  0  0
  2  4  1  0  0  0  0
  2  5  1  0  0  0  0
  5  6  2  0  0  0  0
  5  7  1  0  0  0  0
  7  8  1  0  0  0  0
  7  9  1  0  0  0  0
  9 10  1  0  0  0  0
  9 11  1  0  0  0  0
  9 24  1  0  0  0  0
 11 12  1  0  0  0  0
 11 13  1  0  0  0  0
 11 17  1  0  0  0  0
 13 14  1  0  0  0  0
 13 15  1  0  0  0  0
 13 16  1  0  0  0  0
 17 18  1  0  0  0  0
 17 19  1  0  0  0  0
 17 20  1  0  0  0  0
 20 21  1  0  0  0  0
 20 22  1  0  0  0  0
 20 23  1  0  0  0  0
 24 25  2  0  0  0  0
 24 26  1  0  0  0  0
 26 27  1  0  0  0  0
 26 28  1  0  0  0  0
 28 29  1  0  0  0  0
 28 30  1  0  0  0  0
 28 31  1  0  0  0  0
M  END
$$$$

  -OEChem-03222214053D

 31 30  0     1  0  0  0  0  0999 V2000
   -2.5391   -4.2645    0.2783 H   0  0  0  0  0  0  0  0  0  0  0  0
   -2.5639   -3.2348   -0.0899 C   0  0  0  0  0  0  0  0  0  0  0  0
   -3.2881   -2.6681    0.5000 H   0  0  0  0  0  0  0  0  0  0  0  0
   -2.8811   -3.2440   -1.1355 H   0  0  0  0  0  0  0  0  0  0  0  0
   -1.1887   -2.6051    0.0302 C   0  0  0  0  0  0  0  0  0  0  0  0
   -0.2734   -3.2374    0.5250 O   0  0  0  0  0  0  0  0  0  0  0  0
   -0.9856   -1.3133   -0.4137 N   0  0  0  0  0  0  0  0  0  0  0  0
   -1.7663   -0.8607   -0.8790 H   0  0  0  0  0  0  0  0  0  0  0  0
    0.3265   -0.6380   -0.4415 C   0  0  1  0  0  0  0  0  0  0  0  0
    0.9814   -1.3001   -1.0187 H   0  0  0  0  0  0  0  0  0  0  0  0
    0.1948    0.6958   -1.2271 C   0  0  1  0  0  0  0  0  0  0  0  0
   -0.5438    0.5118   -2.0150 H   0  0  0  0  0  0  0  0  0  0  0  0
   -0.3384    1.8654   -0.3847 C   0  0  0  0  0  0  0  0  0  0  0  0
    0.3893    2.1671    0.3754 H   0  0  0  0  0  0  0  0  0  0  0  0
   -0.5392    2.7298   -1.0252 H   0  0  0  0  0  0  0  0  0  0  0  0
   -1.2708    1.5852    0.1144 H   0  0  0  0  0  0  0  0  0  0  0  0
    1.5201    1.0791   -1.9294 C   0  0  0  0  0  0  0  0  0  0  0  0
    2.0300    1.8684   -1.3669 H   0  0  0  0  0  0  0  0  0  0  0  0
    2.2028    0.2238   -1.9603 H   0  0  0  0  0  0  0  0  0  0  0  0
    1.2830    1.5418   -3.3683 C   0  0  0  0  0  0  0  0  0  0  0  0
    0.6166    2.4096   -3.3872 H   0  0  0  0  0  0  0  0  0  0  0  0
    2.2331    1.8242   -3.8317 H   0  0  0  0  0  0  0  0  0  0  0  0
    0.8337    0.7394   -3.9616 H   0  0  0  0  0  0  0  0  0  0  0  0
    1.0267   -0.4916    0.9306 C   0  0  0  0  0  0  0  0  0  0  0  0
    2.2488   -0.5257    0.9926 O   0  0  0  0  0  0  0  0  0  0  0  0
    0.3143   -0.0753    2.0416 N   0  0  0  0  0  0  0  0  0  0  0  0
   -0.6956   -0.1417    1.9753 H   0  0  0  0  0  0  0  0  0  0  0  0
    0.9231    0.0852    3.3556 C   0  0  0  0  0  0  0  0  0  0  0  0
    1.7328    0.8213    3.3162 H   0  0  0  0  0  0  0  0  0  0  0  0
    0.1780    0.4319    4.0778 H   0  0  0  0  0  0  0  0  0  0  0  0
    1.3308   -0.8687    3.7065 H   0  0  0  0  0  0  0  0  0  0  0  0
  1  2  1  0  0  0  0
  2  3  1  0  0  0  0
  2  4  1  0  0  0  0
  2  5  1  0  0  0  0
  5  6  2  0  0  0  0
  5  7  1  0  0  0  0
  7  8  1  0  0  0  0
  7  9  1  0  0  0  0
  9 10  1  0  0  0  0
  9 11  1  0  0  0  0
  9 24  1  0  0  0  0
 11 12  1  0  0  0  0
 11 13  1  0  0  0  0
 11 17  1  0  0  0  0
 13 14  1  0  0  0  0
 13 15  1  0  0  0  0
 13 16  1  0  0  0  0
 17 18  1  0  0  0  0
 17 19  1  0  0  0  0
 17 20  1  0  0  0  0
 20 21  1  0  0  0  0
 20 22  1  0  0  0  0
 20 23  1  0  0  0  0
 24 25  2  0  0  0  0
 24 26  1  0  0  0  0
 26 27  1  0  0  0  0
 26 28  1  0  0  0  0
 28 29  1  0  0  0  0
 28 30  1  0  0  0  0
 28 31  1  0  0  0  0
M  END
$$$$

  -OEChem-03222214053D

 31 30  0     1  0  0  0  0  0999 V2000
   -2.5340   -4.2688    0.2738 H   0  0  0  0  0  0  0  0  0  0  0  0
   -2.5610   -3.2392   -0.0945 C   0  0  0  0  0  0  0  0  0  0  0  0
   -3.2894   -2.6746    0.4924 H   0  0  0  0  0  0  0  0  0  0  0  0
   -2.8739   -3.2497   -1.1414 H   0  0  0  0  0  0  0  0  0  0  0  0
   -1.1883   -2.6051    0.0309 C   0  0  0  0  0  0  0  0  0  0  0  0
   -0.2725   -3.2354    0.5274 O   0  0  0  0  0  0  0  0  0  0  0  0
   -0.9875   -1.3128   -0.4127 N   0  0  0  0  0  0  0  0  0  0  0  0
   -1.7691   -0.8606   -0.8770 H   0  0  0  0  0  0  0  0  0  0  0  0
    0.3238   -0.6362   -0.4409 C   0  0  1  0  0  0  0  0  0  0  0  0
    0.9803   -1.2975   -1.0170 H   0  0  0  0  0  0  0  0  0  0  0  0
    0.1892    0.6972   -1.2266 C   0  0  1  0  0  0  0  0  0  0  0  0
   -0.5438    0.5138   -2.0199 H   0  0  0  0  0  0  0  0  0  0  0  0
   -0.3438    1.8633   -0.3778 C   0  0  0  0  0  0  0  0  0  0  0  0
    0.3953    2.1779    0.3659 H   0  0  0  0  0  0  0  0  0  0  0  0
   -0.5729    2.7232   -1.0140 H   0  0  0  0  0  0  0  0  0  0  0  0
   -1.2613    1.5712    0.1417 H   0  0  0  0  0  0  0  0  0  0  0  0
    1.5164    1.0722   -1.9244 C   0  0  0  0  0  0  0  0  0  0  0  0
    2.1505    1.6448   -1.2389 H   0  0  0  0  0  0  0  0  0  0  0  0
    2.0705    0.1679   -2.1951 H   0  0  0  0  0  0  0  0  0  0  0  0
    1.2826    1.8697   -3.2098 C   0  0  0  0  0  0  0  0  0  0  0  0
    0.7600    2.8063   -2.9953 H   0  0  0  0  0  0  0  0  0  0  0  0
    2.2415    2.1104   -3.6787 H   0  0  0  0  0  0  0  0  0  0  0  0
    0.6870    1.2888   -3.9208 H   0  0  0  0  0  0  0  0  0  0  0  0
    1.0257   -0.4889    0.9303 C   0  0  0  0  0  0  0  0  0  0  0  0
    2.2479   -0.5213    0.9905 O   0  0  0  0  0  0  0  0  0  0  0  0
    0.3151   -0.0734    2.0426 N   0  0  0  0  0  0  0  0  0  0  0  0
   -0.6952   -0.1338    1.9769 H   0  0  0  0  0  0  0  0  0  0  0  0
    0.9262    0.0922    3.3549 C   0  0  0  0  0  0  0  0  0  0  0  0
    1.7314    0.8333    3.3124 H   0  0  0  0  0  0  0  0  0  0  0  0
    0.1809    0.4350    4.0787 H   0  0  0  0  0  0  0  0  0  0  0  0
    1.3406   -0.8588    3.7058 H   0  0  0  0  0  0  0  0  0  0  0  0
  1  2  1  0  0  0  0
  2  3  1  0  0  0  0
  2  4  1  0  0  0  0
  2  5  1  0  0  0  0
  5  6  2  0  0  0  0
  5  7  1  0  0  0  0
  7  8  1  0  0  0  0
  7  9  1  0  0  0  0
  9 10  1  0  0  0  0
  9 11  1  0  0  0  0
  9 24  1  0  0  0  0
 11 12  1  0  0  0  0
 11 13  1  0  0  0  0
 11 17  1  0  0  0  0
 13 14  1  0  0  0  0
 13 15  1  0  0  0  0
 13 16  1  0  0  0  0
 17 18  1  0  0  0  0
 17 19  1  0  0  0  0
 17 20  1  0  0  0  0
 20 21  1  0  0  0  0
 20 22  1  0  0  0  0
 20 23  1  0  0  0  0
 24 25  2  0  0  0  0
 24 26  1  0  0  0  0
 26 27  1  0  0  0  0
 26 28  1  0  0  0  0
 28 29  1  0  0  0  0
 28 30  1  0  0  0  0
 28 31  1  0  0  0  0
M  END
$$$$

  -OEChem-03222214053D

 31 30  0     1  0  0  0  0  0999 V2000
   -2.5212   -4.2710    0.2748 H   0  0  0  0  0  0  0  0  0  0  0  0
   -2.5520   -3.2412   -0.0927 C   0  0  0  0  0  0  0  0  0  0  0  0
   -3.2800   -2.6792    0.4971 H   0  0  0  0  0  0  0  0  0  0  0  0
   -2.8687   -3.2517   -1.1382 H   0  0  0  0  0  0  0  0  0  0  0  0
   -1.1807   -2.6034    0.0282 C   0  0  0  0  0  0  0  0  0  0  0  0
   -0.2619   -3.2306    0.5230 O   0  0  0  0  0  0  0  0  0  0  0  0
   -0.9854   -1.3100   -0.4145 N   0  0  0  0  0  0  0  0  0  0  0  0
   -1.7698   -0.8605   -0.8771 H   0  0  0  0  0  0  0  0  0  0  0  0
    0.3227   -0.6272   -0.4432 C   0  0  1  0  0  0  0  0  0  0  0  0
    0.9849   -1.2825   -1.0201 H   0  0  0  0  0  0  0  0  0  0  0  0
    0.1795    0.7039   -1.2310 C   0  0  1  0  0  0  0  0  0  0  0  0
   -0.5494    0.5263   -2.0291 H   0  0  0  0  0  0  0  0  0  0  0  0
   -0.3580    1.8603   -0.3702 C   0  0  0  0  0  0  0  0  0  0  0  0
    0.4002    2.2030    0.3413 H   0  0  0  0  0  0  0  0  0  0  0  0
   -0.6440    2.7073   -1.0001 H   0  0  0  0  0  0  0  0  0  0  0  0
   -1.2443    1.5430    0.1870 H   0  0  0  0  0  0  0  0  0  0  0  0
    1.5121    1.0674   -1.9217 C   0  0  0  0  0  0  0  0  0  0  0  0
    2.2391    1.4021   -1.1738 H   0  0  0  0  0  0  0  0  0  0  0  0
    1.9279    0.1785   -2.4071 H   0  0  0  0  0  0  0  0  0  0  0  0
    1.3452    2.1490   -2.9928 C   0  0  0  0  0  0  0  0  0  0  0  0
    1.0308    3.0967   -2.5468 H   0  0  0  0  0  0  0  0  0  0  0  0
    2.2979    2.3137   -3.5053 H   0  0  0  0  0  0  0  0  0  0  0  0
    0.6012    1.8445   -3.7354 H   0  0  0  0  0  0  0  0  0  0  0  0
    1.0228   -0.4788    0.9296 C   0  0  0  0  0  0  0  0  0  0  0  0
    2.2449   -0.5115    0.9920 O   0  0  0  0  0  0  0  0  0  0  0  0
    0.3104   -0.0683    2.0428 N   0  0  0  0  0  0  0  0  0  0  0  0
   -0.6994   -0.1365    1.9773 H   0  0  0  0  0  0  0  0  0  0  0  0
    0.9210    0.0897    3.3565 C   0  0  0  0  0  0  0  0  0  0  0  0
    1.7273    0.8296    3.3185 H   0  0  0  0  0  0  0  0  0  0  0  0
    0.1763    0.4299    4.0821 H   0  0  0  0  0  0  0  0  0  0  0  0
    1.3340   -0.8637    3.7025 H   0  0  0  0  0  0  0  0  0  0  0  0
  1  2  1  0  0  0  0
  2  3  1  0  0  0  0
  2  4  1  0  0  0  0
  2  5  1  0  0  0  0
  5  6  2  0  0  0  0
  5  7  1  0  0  0  0
  7  8  1  0  0  0  0
  7  9  1  0  0  0  0
  9 10  1  0  0  0  0
  9 11  1  0  0  0  0
  9 24  1  0  0  0  0
 11 12  1  0  0  0  0
 11 13  1  0  0  0  0
 11 17  1  0  0  0  0
 13 14  1  0  0  0  0
 13 15  1  0  0  0  0
 13 16  1  0  0  0  0
 17 18  1  0  0  0  0
 17 19  1  0  0  0  0
 17 20  1  0  0  0  0
 20 21  1  0  0  0  0
 20 22  1  0  0  0  0
 20 23  1  0  0  0  0
 24 25  2  0  0  0  0
 24 26  1  0  0  0  0
 26 27  1  0  0  0  0
 26 28  1  0  0  0  0
 28 29  1  0  0  0  0
 28 30  1  0  0  0  0
 28 31  1  0  0  0  0
M  END
$$$$

  -OEChem-03222214053D

 31 30  0     1  0  0  0  0  0999 V2000
   -2.5083   -4.2794    0.2416 H   0  0  0  0  0  0  0  0  0  0  0  0
   -2.5478   -3.2442   -0.1098 C   0  0  0  0  0  0  0  0  0  0  0  0
   -3.2819   -2.6979    0.4872 H   0  0  0  0  0  0  0  0  0  0  0  0
   -2.8622   -3.2408   -1.1563 H   0  0  0  0  0  0  0  0  0  0  0  0
   -1.1826   -2.5958    0.0240 C   0  0  0  0  0  0  0  0  0  0  0  0
   -0.2581   -3.2227    0.5083 O   0  0  0  0  0  0  0  0  0  0  0  0
   -0.9989   -1.2948   -0.4009 N   0  0  0  0  0  0  0  0  0  0  0  0
   -1.7881   -0.8471   -0.8565 H   0  0  0  0  0  0  0  0  0  0  0  0
    0.3047   -0.6039   -0.4326 C   0  0  1  0  0  0  0  0  0  0  0  0
    0.9651   -1.2603   -1.0107 H   0  0  0  0  0  0  0  0  0  0  0  0
    0.1562    0.7252   -1.2327 C   0  0  1  0  0  0  0  0  0  0  0  0
   -0.7399    0.6468   -1.8577 H   0  0  0  0  0  0  0  0  0  0  0  0
   -0.0400    1.9584   -0.3316 C   0  0  0  0  0  0  0  0  0  0  0  0
    0.8814    2.1976    0.2094 H   0  0  0  0  0  0  0  0  0  0  0  0
   -0.3263    2.8303   -0.9265 H   0  0  0  0  0  0  0  0  0  0  0  0
   -0.8391    1.7787    0.3934 H   0  0  0  0  0  0  0  0  0  0  0  0
    1.3490    0.8754   -2.2032 C   0  0  0  0  0  0  0  0  0  0  0  0
    2.2857    0.8639   -1.6346 H   0  0  0  0  0  0  0  0  0  0  0  0
    1.3648    0.0180   -2.8844 H   0  0  0  0  0  0  0  0  0  0  0  0
    1.2997    2.1551   -3.0430 C   0  0  0  0  0  0  0  0  0  0  0  0
    1.4388    3.0408   -2.4165 H   0  0  0  0  0  0  0  0  0  0  0  0
    2.0994    2.1401   -3.7896 H   0  0  0  0  0  0  0  0  0  0  0  0
    0.3409    2.2355   -3.5643 H   0  0  0  0  0  0  0  0  0  0  0  0
    1.0192   -0.4716    0.9349 C   0  0  0  0  0  0  0  0  0  0  0  0
    2.2424   -0.4895    0.9803 O   0  0  0  0  0  0  0  0  0  0  0  0
    0.3176   -0.0822    2.0625 N   0  0  0  0  0  0  0  0  0  0  0  0
   -0.6922   -0.1606    2.0099 H   0  0  0  0  0  0  0  0  0  0  0  0
    0.9442    0.0683    3.3696 C   0  0  0  0  0  0  0  0  0  0  0  0
    1.7329    0.8271    3.3316 H   0  0  0  0  0  0  0  0  0  0  0  0
    0.2027    0.3796    4.1114 H   0  0  0  0  0  0  0  0  0  0  0  0
    1.3837   -0.8808    3.6939 H   0  0  0  0  0  0  0  0  0  0  0  0
  1  2  1  0  0  0  0
  2  3  1  0  0  0  0
  2  4  1  0  0  0  0
  2  5  1  0  0  0  0
  5  6  2  0  0  0  0
  5  7  1  0  0  0  0
  7  8  1  0  0  0  0
  7  9  1  0  0  0  0
  9 10  1  0  0  0  0
  9 11  1  0  0  0  0
  9 24  1  0  0  0  0
 11 12  1  0  0  0  0
 11 13  1  0  0  0  0
 11 17  1  0  0  0  0
 13 14  1  0  0  0  0
 13 15  1  0  0  0  0
 13 16  1  0  0  0  0
 17 18  1  0  0  0  0
 17 19  1  0  0  0  0
 17 20  1  0  0  0  0
 20 21  1  0  0  0  0
 20 22  1  0  0  0  0
 20 23  1  0  0  0  0
 24 25  2  0  0  0  0
 24 26  1  0  0  0  0
 26 27  1  0  0  0  0
 26 28  1  0  0  0  0
 28 29  1  0  0  0  0
 28 30  1  0  0  0  0
 28 31  1  0  0  0  0
M  END
$$$$

  -OEChem-03222214053D

 31 30  0     1  0  0  0  0  0999 V2000
   -2.5008   -4.2730    0.2672 H   0  0  0  0  0  0  0  0  0  0  0  0
   -2.5424   -3.2402   -0.0908 C   0  0  0  0  0  0  0  0  0  0  0  0
   -3.2636   -2.6873    0.5155 H   0  0  0  0  0  0  0  0  0  0  0  0
   -2.8757   -3.2428   -1.1314 H   0  0  0  0  0  0  0  0  0  0  0  0
   -1.1725   -2.5963    0.0151 C   0  0  0  0  0  0  0  0  0  0  0  0
   -0.2410   -3.2274    0.4801 O   0  0  0  0  0  0  0  0  0  0  0  0
   -0.9926   -1.2934   -0.4066 N   0  0  0  0  0  0  0  0  0  0  0  0
   -1.7888   -0.8383   -0.8425 H   0  0  0  0  0  0  0  0  0  0  0  0
    0.3092   -0.5988   -0.4373 C   0  0  1  0  0  0  0  0  0  0  0  0
    0.9698   -1.2526   -1.0184 H   0  0  0  0  0  0  0  0  0  0  0  0
    0.1570    0.7296   -1.2382 C   0  0  1  0  0  0  0  0  0  0  0  0
   -0.7360    0.6544   -1.8678 H   0  0  0  0  0  0  0  0  0  0  0  0
   -0.0576    1.9524   -0.3254 C   0  0  0  0  0  0  0  0  0  0  0  0
    0.8545    2.1898    0.2320 H   0  0  0  0  0  0  0  0  0  0  0  0
   -0.3398    2.8299   -0.9146 H   0  0  0  0  0  0  0  0  0  0  0  0
   -0.8660    1.7608    0.3863 H   0  0  0  0  0  0  0  0  0  0  0  0
    1.3544    0.8799   -2.2084 C   0  0  0  0  0  0  0  0  0  0  0  0
    2.2805    0.6258   -1.6806 H   0  0  0  0  0  0  0  0  0  0  0  0
    1.2364    0.1643   -3.0289 H   0  0  0  0  0  0  0  0  0  0  0  0
    1.5287    2.2845   -2.7944 C   0  0  0  0  0  0  0  0  0  0  0  0
    1.8060    3.0028   -2.0170 H   0  0  0  0  0  0  0  0  0  0  0  0
    2.3235    2.2766   -3.5464 H   0  0  0  0  0  0  0  0  0  0  0  0
    0.6027    2.6171   -3.2735 H   0  0  0  0  0  0  0  0  0  0  0  0
    1.0213   -0.4699    0.9318 C   0  0  0  0  0  0  0  0  0  0  0  0
    2.2442   -0.4915    0.9822 O   0  0  0  0  0  0  0  0  0  0  0  0
    0.3150   -0.0861    2.0584 N   0  0  0  0  0  0  0  0  0  0  0  0
   -0.6950   -0.1580    1.9993 H   0  0  0  0  0  0  0  0  0  0  0  0
    0.9342    0.0573    3.3697 C   0  0  0  0  0  0  0  0  0  0  0  0
    1.7340    0.8046    3.3370 H   0  0  0  0  0  0  0  0  0  0  0  0
    0.1914    0.3807    4.1049 H   0  0  0  0  0  0  0  0  0  0  0  0
    1.3572   -0.8977    3.6989 H   0  0  0  0  0  0  0  0  0  0  0  0
  1  2  1  0  0  0  0
  2  3  1  0  0  0  0
  2  4  1  0  0  0  0
  2  5  1  0  0  0  0
  5  6  2  0  0  0  0
  5  7  1  0  0  0  0
  7  8  1  0  0  0  0
  7  9  1  0  0  0  0
  9 10  1  0  0  0  0
  9 11  1  0  0  0  0
  9 24  1  0  0  0  0
 11 12  1  0  0  0  0
 11 13  1  0  0  0  0
 11 17  1  0  0  0  0
 13 14  1  0  0  0  0
 13 15  1  0  0  0  0
 13 16  1  0  0  0  0
 17 18  1  0  0  0  0
 17 19  1  0  0  0  0
 17 20  1  0  0  0  0
 20 21  1  0  0  0  0
 20 22  1  0  0  0  0
 20 23  1  0  0  0  0
 24 25  2  0  0  0  0
 24 26  1  0  0  0  0
 26 27  1  0  0  0  0
 26 28  1  0  0  0  0
 28 29  1  0  0  0  0
 28 30  1  0  0  0  0
 28 31  1  0  0  0  0
M  END
$$$$

  -OEChem-03222214053D

 31 30  0     1  0  0  0  0  0999 V2000
   -2.5076   -4.2701    0.2661 H   0  0  0  0  0  0  0  0  0  0  0  0
   -2.5469   -3.2374   -0.0923 C   0  0  0  0  0  0  0  0  0  0  0  0
   -3.2701   -2.6837    0.5111 H   0  0  0  0  0  0  0  0  0  0  0  0
   -2.8754   -3.2405   -1.1343 H   0  0  0  0  0  0  0  0  0  0  0  0
   -1.1771   -2.5947    0.0178 C   0  0  0  0  0  0  0  0  0  0  0  0
   -0.2473   -3.2272    0.4842 O   0  0  0  0  0  0  0  0  0  0  0  0
   -0.9943   -1.2924   -0.4041 N   0  0  0  0  0  0  0  0  0  0  0  0
   -1.7884   -0.8359   -0.8422 H   0  0  0  0  0  0  0  0  0  0  0  0
    0.3096   -0.6015   -0.4337 C   0  0  1  0  0  0  0  0  0  0  0  0
    0.9648   -1.2622   -1.0133 H   0  0  0  0  0  0  0  0  0  0  0  0
    0.1645    0.7263   -1.2384 C   0  0  1  0  0  0  0  0  0  0  0  0
   -0.7240    0.6476   -1.8740 H   0  0  0  0  0  0  0  0  0  0  0  0
   -0.0807    1.9415   -0.3218 C   0  0  0  0  0  0  0  0  0  0  0  0
    0.8117    2.1775    0.2670 H   0  0  0  0  0  0  0  0  0  0  0  0
   -0.3488    2.8229   -0.9119 H   0  0  0  0  0  0  0  0  0  0  0  0
   -0.9093    1.7400    0.3635 H   0  0  0  0  0  0  0  0  0  0  0  0
    1.3643    0.8829   -2.2133 C   0  0  0  0  0  0  0  0  0  0  0  0
    2.2468    0.3953   -1.7841 H   0  0  0  0  0  0  0  0  0  0  0  0
    1.1284    0.3637   -3.1480 H   0  0  0  0  0  0  0  0  0  0  0  0
    1.7758    2.3253   -2.5289 C   0  0  0  0  0  0  0  0  0  0  0  0
    2.1350    2.8366   -1.6307 H   0  0  0  0  0  0  0  0  0  0  0  0
    2.5859    2.3263   -3.2647 H   0  0  0  0  0  0  0  0  0  0  0  0
    0.9325    2.8839   -2.9463 H   0  0  0  0  0  0  0  0  0  0  0  0
    1.0247   -0.4721    0.9341 C   0  0  0  0  0  0  0  0  0  0  0  0
    2.2478   -0.4940    0.9811 O   0  0  0  0  0  0  0  0  0  0  0  0
    0.3226   -0.0848    2.0623 N   0  0  0  0  0  0  0  0  0  0  0  0
   -0.6876   -0.1546    2.0069 H   0  0  0  0  0  0  0  0  0  0  0  0
    0.9466    0.0605    3.3712 C   0  0  0  0  0  0  0  0  0  0  0  0
    1.7466    0.8075    3.3347 H   0  0  0  0  0  0  0  0  0  0  0  0
    0.2073    0.3852    4.1093 H   0  0  0  0  0  0  0  0  0  0  0  0
    1.3703   -0.8944    3.6995 H   0  0  0  0  0  0  0  0  0  0  0  0
  1  2  1  0  0  0  0
  2  3  1  0  0  0  0
  2  4  1  0  0  0  0
  2  5  1  0  0  0  0
  5  6  2  0  0  0  0
  5  7  1  0  0  0  0
  7  8  1  0  0  0  0
  7  9  1  0  0  0  0
  9 10  1  0  0  0  0
  9 11  1  0  0  0  0
  9 24  1  0  0  0  0
 11 12  1  0  0  0  0
 11 13  1  0  0  0  0
 11 17  1  0  0  0  0
 13 14  1  0  0  0  0
 13 15  1  0  0  0  0
 13 16  1  0  0  0  0
 17 18  1  0  0  0  0
 17 19  1  0  0  0  0
 17 20  1  0  0  0  0
 20 21  1  0  0  0  0
 20 22  1  0  0  0  0
 20 23  1  0  0  0  0
 24 25  2  0  0  0  0
 24 26  1  0  0  0  0
 26 27  1  0  0  0  0
 26 28  1  0  0  0  0
 28 29  1  0  0  0  0
 28 30  1  0  0  0  0
 28 31  1  0  0  0  0
M  END
$$$$

  -OEChem-03222214053D

 31 30  0     1  0  0  0  0  0999 V2000
   -2.5253   -4.2647    0.2598 H   0  0  0  0  0  0  0  0  0  0  0  0
   -2.5574   -3.2310   -0.0965 C   0  0  0  0  0  0  0  0  0  0  0  0
   -3.2836   -2.6756    0.5017 H   0  0  0  0  0  0  0  0  0  0  0  0
   -2.8772   -3.2301   -1.1412 H   0  0  0  0  0  0  0  0  0  0  0  0
   -1.1858   -2.5944    0.0269 C   0  0  0  0  0  0  0  0  0  0  0  0
   -0.2646   -3.2288    0.5074 O   0  0  0  0  0  0  0  0  0  0  0  0
   -0.9916   -1.2953   -0.3996 N   0  0  0  0  0  0  0  0  0  0  0  0
   -1.7792   -0.8383   -0.8487 H   0  0  0  0  0  0  0  0  0  0  0  0
    0.3174   -0.6136   -0.4280 C   0  0  1  0  0  0  0  0  0  0  0  0
    0.9648   -1.2860   -1.0016 H   0  0  0  0  0  0  0  0  0  0  0  0
    0.1842    0.7150   -1.2352 C   0  0  1  0  0  0  0  0  0  0  0  0
   -0.6980    0.6218   -1.8777 H   0  0  0  0  0  0  0  0  0  0  0  0
   -0.1012    1.9282   -0.3270 C   0  0  0  0  0  0  0  0  0  0  0  0
    0.7636    2.1705    0.2987 H   0  0  0  0  0  0  0  0  0  0  0  0
   -0.3526    2.8073   -0.9275 H   0  0  0  0  0  0  0  0  0  0  0  0
   -0.9538    1.7193    0.3259 H   0  0  0  0  0  0  0  0  0  0  0  0
    1.3803    0.8864   -2.2189 C   0  0  0  0  0  0  0  0  0  0  0  0
    2.1817    0.1882   -1.9558 H   0  0  0  0  0  0  0  0  0  0  0  0
    1.0441    0.6237   -3.2272 H   0  0  0  0  0  0  0  0  0  0  0  0
    2.0221    2.2780   -2.2602 C   0  0  0  0  0  0  0  0  0  0  0  0
    2.4384    2.5449   -1.2841 H   0  0  0  0  0  0  0  0  0  0  0  0
    2.8383    2.2860   -2.9890 H   0  0  0  0  0  0  0  0  0  0  0  0
    1.2915    3.0354   -2.5595 H   0  0  0  0  0  0  0  0  0  0  0  0
    1.0332   -0.4809    0.9380 C   0  0  0  0  0  0  0  0  0  0  0  0
    2.2563   -0.5056    0.9831 O   0  0  0  0  0  0  0  0  0  0  0  0
    0.3336   -0.0827    2.0637 N   0  0  0  0  0  0  0  0  0  0  0  0
   -0.6766   -0.1551    2.0115 H   0  0  0  0  0  0  0  0  0  0  0  0
    0.9612    0.0693    3.3701 C   0  0  0  0  0  0  0  0  0  0  0  0
    1.7606    0.8166    3.3271 H   0  0  0  0  0  0  0  0  0  0  0  0
    0.2239    0.3970    4.1090 H   0  0  0  0  0  0  0  0  0  0  0  0
    1.3871   -0.8837    3.7016 H   0  0  0  0  0  0  0  0  0  0  0  0
  1  2  1  0  0  0  0
  2  3  1  0  0  0  0
  2  4  1  0  0  0  0
  2  5  1  0  0  0  0
  5  6  2  0  0  0  0
  5  7  1  0  0  0  0
  7  8  1  0  0  0  0
  7  9  1  0  0  0  0
  9 10  1  0  0  0  0
  9 11  1  0  0  0  0
  9 24  1  0  0  0  0
 11 12  1  0  0  0  0
 11 13  1  0  0  0  0
 11 17  1  0  0  0  0
 13 14  1  0  0  0  0
 13 15  1  0  0  0  0
 13 16  1  0  0  0  0
 17 18  1  0  0  0  0
 17 19  1  0  0  0  0
 17 20  1  0  0  0  0
 20 21  1  0  0  0  0
 20 22  1  0  0  0  0
 20 23  1  0  0  0  0
 24 25  2  0  0  0  0
 24 26  1  0  0  0  0
 26 27  1  0  0  0  0
 26 28  1  0  0  0  0
 28 29  1  0  0  0  0
 28 30  1  0  0  0  0
 28 31  1  0  0  0  0
M  END
$$$$

  -OEChem-03222214053D

 31 30  0     1  0  0  0  0  0999 V2000
   -2.5417   -4.2588    0.2685 H   0  0  0  0  0  0  0  0  0  0  0  0
   -2.5665   -3.2268   -0.0931 C   0  0  0  0  0  0  0  0  0  0  0  0
   -3.2919   -2.6639    0.4990 H   0  0  0  0  0  0  0  0  0  0  0  0
   -2.8814   -3.2294   -1.1394 H   0  0  0  0  0  0  0  0  0  0  0  0
   -1.1920   -2.5976    0.0342 C   0  0  0  0  0  0  0  0  0  0  0  0
   -0.2772   -3.2339    0.5246 O   0  0  0  0  0  0  0  0  0  0  0  0
   -0.9883   -1.3025   -0.3998 N   0  0  0  0  0  0  0  0  0  0  0  0
   -1.7705   -0.8445   -0.8573 H   0  0  0  0  0  0  0  0  0  0  0  0
    0.3258   -0.6303   -0.4301 C   0  0  1  0  0  0  0  0  0  0  0  0
    0.9691   -1.3105   -0.9979 H   0  0  0  0  0  0  0  0  0  0  0  0
    0.2048    0.7028   -1.2317 C   0  0  1  0  0  0  0  0  0  0  0  0
   -0.6726    0.5949   -1.8785 H   0  0  0  0  0  0  0  0  0  0  0  0
   -0.1052    1.9203   -0.3383 C   0  0  0  0  0  0  0  0  0  0  0  0
    0.7392    2.1663    0.3132 H   0  0  0  0  0  0  0  0  0  0  0  0
   -0.3353    2.7954   -0.9536 H   0  0  0  0  0  0  0  0  0  0  0  0
   -0.9774    1.7157    0.2899 H   0  0  0  0  0  0  0  0  0  0  0  0
    1.3925    0.8873   -2.2245 C   0  0  0  0  0  0  0  0  0  0  0  0
    2.0615    0.0221   -2.1925 H   0  0  0  0  0  0  0  0  0  0  0  0
    0.9876    0.9351   -3.2407 H   0  0  0  0  0  0  0  0  0  0  0  0
    2.2542    2.1358   -2.0032 C   0  0  0  0  0  0  0  0  0  0  0  0
    2.6964    2.1247   -1.0019 H   0  0  0  0  0  0  0  0  0  0  0  0
    3.0681    2.1576   -2.7342 H   0  0  0  0  0  0  0  0  0  0  0  0
    1.6652    3.0493   -2.1260 H   0  0  0  0  0  0  0  0  0  0  0  0
    1.0407   -0.4942    0.9358 C   0  0  0  0  0  0  0  0  0  0  0  0
    2.2637   -0.5226    0.9820 O   0  0  0  0  0  0  0  0  0  0  0  0
    0.3418   -0.0839    2.0577 N   0  0  0  0  0  0  0  0  0  0  0  0
   -0.6687   -0.1528    2.0050 H   0  0  0  0  0  0  0  0  0  0  0  0
    0.9685    0.0801    3.3631 C   0  0  0  0  0  0  0  0  0  0  0  0
    1.7684    0.8265    3.3135 H   0  0  0  0  0  0  0  0  0  0  0  0
    0.2304    0.4154    4.0978 H   0  0  0  0  0  0  0  0  0  0  0  0
    1.3933   -0.8697    3.7046 H   0  0  0  0  0  0  0  0  0  0  0  0
  1  2  1  0  0  0  0
  2  3  1  0  0  0  0
  2  4  1  0  0  0  0
  2  5  1  0  0  0  0
  5  6  2  0  0  0  0
  5  7  1  0  0  0  0
  7  8  1  0  0  0  0
  7  9  1  0  0  0  0
  9 10  1  0  0  0  0
  9 11  1  0  0  0  0
  9 24  1  0  0  0  0
 11 12  1  0  0  0  0
 11 13  1  0  0  0  0
 11 17  1  0  0  0  0
 13 14  1  0  0  0  0
 13 15  1  0  0  0  0
 13 16  1  0  0  0  0
 17 18  1  0  0  0  0
 17 19  1  0  0  0  0
 17 20  1  0  0  0  0
 20 21  1  0  0  0  0
 20 22  1  0  0  0  0
 20 23  1  0  0  0  0
 24 25  2  0  0  0  0
 24 26  1  0  0  0  0
 26 27  1  0  0  0  0
 26 28  1  0  0  0  0
 28 29  1  0  0  0  0
 28 30  1  0  0  0  0
 28 31  1  0  0  0  0
M  END
$$$$

  -OEChem-03222214053D

 31 30  0     1  0  0  0  0  0999 V2000
   -2.5423   -4.2491    0.3009 H   0  0  0  0  0  0  0  0  0  0  0  0
   -2.5633   -3.2200   -0.0694 C   0  0  0  0  0  0  0  0  0  0  0  0
   -3.2760   -2.6459    0.5274 H   0  0  0  0  0  0  0  0  0  0  0  0
   -2.8923   -3.2292   -1.1112 H   0  0  0  0  0  0  0  0  0  0  0  0
   -1.1820   -2.6011    0.0338 C   0  0  0  0  0  0  0  0  0  0  0  0
   -0.2655   -3.2427    0.5140 O   0  0  0  0  0  0  0  0  0  0  0  0
   -0.9753   -1.3086   -0.4069 N   0  0  0  0  0  0  0  0  0  0  0  0
   -1.7611   -0.8446   -0.8521 H   0  0  0  0  0  0  0  0  0  0  0  0
    0.3402   -0.6391   -0.4401 C   0  0  1  0  0  0  0  0  0  0  0  0
    0.9886   -1.3155   -1.0060 H   0  0  0  0  0  0  0  0  0  0  0  0
    0.2169    0.6967   -1.2362 C   0  0  1  0  0  0  0  0  0  0  0  0
   -0.6606    0.5818   -1.8818 H   0  0  0  0  0  0  0  0  0  0  0  0
   -0.0888    1.9225   -0.3548 C   0  0  0  0  0  0  0  0  0  0  0  0
    0.7430    2.1531    0.3180 H   0  0  0  0  0  0  0  0  0  0  0  0
   -0.2788    2.7993   -0.9816 H   0  0  0  0  0  0  0  0  0  0  0  0
   -0.9816    1.7393    0.2504 H   0  0  0  0  0  0  0  0  0  0  0  0
    1.3940    0.8890   -2.2342 C   0  0  0  0  0  0  0  0  0  0  0  0
    1.8942   -0.0627   -2.4364 H   0  0  0  0  0  0  0  0  0  0  0  0
    0.9797    1.2325   -3.1876 H   0  0  0  0  0  0  0  0  0  0  0  0
    2.4493    1.9123   -1.8007 C   0  0  0  0  0  0  0  0  0  0  0  0
    2.8698    1.6388   -0.8277 H   0  0  0  0  0  0  0  0  0  0  0  0
    3.2635    1.9372   -2.5312 H   0  0  0  0  0  0  0  0  0  0  0  0
    2.0229    2.9176   -1.7350 H   0  0  0  0  0  0  0  0  0  0  0  0
    1.0458   -0.5023    0.9304 C   0  0  0  0  0  0  0  0  0  0  0  0
    2.2675   -0.5489    0.9906 O   0  0  0  0  0  0  0  0  0  0  0  0
    0.3392   -0.0873    2.0456 N   0  0  0  0  0  0  0  0  0  0  0  0
   -0.6715   -0.1377    1.9797 H   0  0  0  0  0  0  0  0  0  0  0  0
    0.9528    0.0670    3.3583 C   0  0  0  0  0  0  0  0  0  0  0  0
    1.7658    0.7994    3.3176 H   0  0  0  0  0  0  0  0  0  0  0  0
    0.2119    0.4156    4.0838 H   0  0  0  0  0  0  0  0  0  0  0  0
    1.3572   -0.8893    3.7061 H   0  0  0  0  0  0  0  0  0  0  0  0
  1  2  1  0  0  0  0
  2  3  1  0  0  0  0
  2  4  1  0  0  0  0
  2  5  1  0  0  0  0
  5  6  2  0  0  0  0
  5  7  1  0  0  0  0
  7  8  1  0  0  0  0
  7  9  1  0  0  0  0
  9 10  1  0  0  0  0
  9 11  1  0  0  0  0
  9 24  1  0  0  0  0
 11 12  1  0  0  0  0
 11 13  1  0  0  0  0
 11 17  1  0  0  0  0
 13 14  1  0  0  0  0
 13 15  1  0  0  0  0
 13 16  1  0  0  0  0
 17 18  1  0  0  0  0
 17 19  1  0  0  0  0
 17 20  1  0  0  0  0
 20 21  1  0  0  0  0
 20 22  1  0  0  0  0
 20 23  1  0  0  0  0
 24 25  2  0  0  0  0
 24 26  1  0  0  0  0
 26 27  1  0  0  0  0
 26 28  1  0  0  0  0
 28 29  1  0  0  0  0
 28 30  1  0  0  0  0
 28 31  1  0  0  0  0
M  END
$$$$

  -OEChem-03222214053D

 31 30  0     1  0  0  0  0  0999 V2000
   -2.5327   -4.2376    0.3245 H   0  0  0  0  0  0  0  0  0  0  0  0
   -2.5502   -3.2104   -0.0511 C   0  0  0  0  0  0  0  0  0  0  0  0
   -3.2596   -2.6307    0.5442 H   0  0  0  0  0  0  0  0  0  0  0  0
   -2.8812   -3.2237   -1.0923 H   0  0  0  0  0  0  0  0  0  0  0  0
   -1.1663   -2.5966    0.0467 C   0  0  0  0  0  0  0  0  0  0  0  0
   -0.2511   -3.2417    0.5242 O   0  0  0  0  0  0  0  0  0  0  0  0
   -0.9547   -1.3086   -0.4051 N   0  0  0  0  0  0  0  0  0  0  0  0
   -1.7399   -0.8446   -0.8510 H   0  0  0  0  0  0  0  0  0  0  0  0
    0.3626   -0.6421   -0.4436 C   0  0  1  0  0  0  0  0  0  0  0  0
    1.0208   -1.3096   -1.0102 H   0  0  0  0  0  0  0  0  0  0  0  0
    0.2215    0.6917   -1.2421 C   0  0  1  0  0  0  0  0  0  0  0  0
   -0.6665    0.5794   -1.8735 H   0  0  0  0  0  0  0  0  0  0  0  0
   -0.0496    1.9267   -0.3640 C   0  0  0  0  0  0  0  0  0  0  0  0
    0.7874    2.1349    0.3098 H   0  0  0  0  0  0  0  0  0  0  0  0
   -0.2093    2.8074   -0.9936 H   0  0  0  0  0  0  0  0  0  0  0  0
   -0.9488    1.7722    0.2399 H   0  0  0  0  0  0  0  0  0  0  0  0
    1.3805    0.8929   -2.2520 C   0  0  0  0  0  0  0  0  0  0  0  0
    1.7014   -0.0728   -2.6550 H   0  0  0  0  0  0  0  0  0  0  0  0
    0.9990    1.4756   -3.0967 H   0  0  0  0  0  0  0  0  0  0  0  0
    2.6019    1.6358   -1.6987 C   0  0  0  0  0  0  0  0  0  0  0  0
    3.0032    1.1229   -0.8207 H   0  0  0  0  0  0  0  0  0  0  0  0
    3.3873    1.6747   -2.4595 H   0  0  0  0  0  0  0  0  0  0  0  0
    2.3482    2.6633   -1.4224 H   0  0  0  0  0  0  0  0  0  0  0  0
    1.0487   -0.5060    0.9385 C   0  0  0  0  0  0  0  0  0  0  0  0
    2.2650   -0.6038    1.0328 O   0  0  0  0  0  0  0  0  0  0  0  0
    0.3263   -0.0852    2.0417 N   0  0  0  0  0  0  0  0  0  0  0  0
   -0.6835   -0.1089    1.9512 H   0  0  0  0  0  0  0  0  0  0  0  0
    0.9112    0.0354    3.3708 C   0  0  0  0  0  0  0  0  0  0  0  0
    1.7415    0.7494    3.3613 H   0  0  0  0  0  0  0  0  0  0  0  0
    0.1607    0.3901    4.0834 H   0  0  0  0  0  0  0  0  0  0  0  0
    1.2851   -0.9354    3.7131 H   0  0  0  0  0  0  0  0  0  0  0  0
  1  2  1  0  0  0  0
  2  3  1  0  0  0  0
  2  4  1  0  0  0  0
  2  5  1  0  0  0  0
  5  6  2  0  0  0  0
  5  7  1  0  0  0  0
  7  8  1  0  0  0  0
  7  9  1  0  0  0  0
  9 10  1  0  0  0  0
  9 11  1  0  0  0  0
  9 24  1  0  0  0  0
 11 12  1  0  0  0  0
 11 13  1  0  0  0  0
 11 17  1  0  0  0  0
 13 14  1  0  0  0  0
 13 15  1  0  0  0  0
 13 16  1  0  0  0  0
 17 18  1  0  0  0  0
 17 19  1  0  0  0  0
 17 20  1  0  0  0  0
 20 21  1  0  0  0  0
 20 22  1  0  0  0  0
 20 23  1  0  0  0  0
 24 25  2  0  0  0  0
 24 26  1  0  0  0  0
 26 27  1  0  0  0  0
 26 28  1  0  0  0  0
 28 29  1  0  0  0  0
 28 30  1  0  0  0  0
 28 31  1  0  0  0  0
M  END
$$$$

  -OEChem-03222214053D

 31 30  0     1  0  0  0  0  0999 V2000
   -2.5316   -4.2245    0.3519 H   0  0  0  0  0  0  0  0  0  0  0  0
   -2.5426   -3.1992   -0.0291 C   0  0  0  0  0  0  0  0  0  0  0  0
   -3.2449   -2.6107    0.5659 H   0  0  0  0  0  0  0  0  0  0  0  0
   -2.8781   -3.2152   -1.0688 H   0  0  0  0  0  0  0  0  0  0  0  0
   -1.1536   -2.5952    0.0593 C   0  0  0  0  0  0  0  0  0  0  0  0
   -0.2415   -3.2443    0.5370 O   0  0  0  0  0  0  0  0  0  0  0  0
   -0.9357   -1.3120   -0.4033 N   0  0  0  0  0  0  0  0  0  0  0  0
   -1.7203   -0.8475   -0.8497 H   0  0  0  0  0  0  0  0  0  0  0  0
    0.3833   -0.6479   -0.4452 C   0  0  1  0  0  0  0  0  0  0  0  0
    1.0500   -1.3067   -1.0127 H   0  0  0  0  0  0  0  0  0  0  0  0
    0.2277    0.6827   -1.2475 C   0  0  1  0  0  0  0  0  0  0  0  0
   -0.6716    0.5791   -1.8643 H   0  0  0  0  0  0  0  0  0  0  0  0
   -0.0069    1.9242   -0.3687 C   0  0  0  0  0  0  0  0  0  0  0  0
    0.8406    2.1143    0.2968 H   0  0  0  0  0  0  0  0  0  0  0  0
   -0.1518    2.8084   -0.9972 H   0  0  0  0  0  0  0  0  0  0  0  0
   -0.9037    1.7908    0.2435 H   0  0  0  0  0  0  0  0  0  0  0  0
    1.3707    0.8959   -2.2688 C   0  0  0  0  0  0  0  0  0  0  0  0
    1.5140   -0.0223   -2.8478 H   0  0  0  0  0  0  0  0  0  0  0  0
    1.0585    1.6732   -2.9740 H   0  0  0  0  0  0  0  0  0  0  0  0
    2.7185    1.3195   -1.6753 C   0  0  0  0  0  0  0  0  0  0  0  0
    3.1102    0.5488   -1.0081 H   0  0  0  0  0  0  0  0  0  0  0  0
    3.4444    1.4675   -2.4803 H   0  0  0  0  0  0  0  0  0  0  0  0
    2.6323    2.2583   -1.1217 H   0  0  0  0  0  0  0  0  0  0  0  0
    1.0467   -0.5117    0.9503 C   0  0  0  0  0  0  0  0  0  0  0  0
    2.2565   -0.6403    1.0790 O   0  0  0  0  0  0  0  0  0  0  0  0
    0.3052   -0.0854    2.0389 N   0  0  0  0  0  0  0  0  0  0  0  0
   -0.7022   -0.0945    1.9247 H   0  0  0  0  0  0  0  0  0  0  0  0
    0.8594    0.0134    3.3830 C   0  0  0  0  0  0  0  0  0  0  0  0
    1.7012    0.7137    3.4005 H   0  0  0  0  0  0  0  0  0  0  0  0
    0.0978    0.3735    4.0809 H   0  0  0  0  0  0  0  0  0  0  0  0
    1.2092   -0.9667    3.7244 H   0  0  0  0  0  0  0  0  0  0  0  0
  1  2  1  0  0  0  0
  2  3  1  0  0  0  0
  2  4  1  0  0  0  0
  2  5  1  0  0  0  0
  5  6  2  0  0  0  0
  5  7  1  0  0  0  0
  7  8  1  0  0  0  0
  7  9  1  0  0  0  0
  9 10  1  0  0  0  0
  9 11  1  0  0  0  0
  9 24  1  0  0  0  0
 11 12  1  0  0  0  0
 11 13  1  0  0  0  0
 11 17  1  0  0  0  0
 13 14  1  0  0  0  0
 13 15  1  0  0  0  0
 13 16  1  0  0  0  0
 17 18  1  0  0  0  0
 17 19  1  0  0  0  0
 17 20  1  0  0  0  0
 20 21  1  0  0  0  0
 20 22  1  0  0  0  0
 20 23  1  0  0  0  0
 24 25  2  0  0  0  0
 24 26  1  0  0  0  0
 26 27  1  0  0  0  0
 26 28  1  0  0  0  0
 28 29  1  0  0  0  0
 28 30  1  0  0  0  0
 28 31  1  0  0  0  0
M  END
$$$$

  -OEChem-03222214053D

 31 30  0     1  0  0  0  0  0999 V2000
   -2.5392   -4.2252    0.3557 H   0  0  0  0  0  0  0  0  0  0  0  0
   -2.5488   -3.1993   -0.0236 C   0  0  0  0  0  0  0  0  0  0  0  0
   -3.2485   -2.6102    0.5739 H   0  0  0  0  0  0  0  0  0  0  0  0
   -2.8867   -3.2130   -1.0626 H   0  0  0  0  0  0  0  0  0  0  0  0
   -1.1584   -2.5987    0.0627 C   0  0  0  0  0  0  0  0  0  0  0  0
   -0.2480   -3.2470    0.5450 O   0  0  0  0  0  0  0  0  0  0  0  0
   -0.9381   -1.3174   -0.4038 N   0  0  0  0  0  0  0  0  0  0  0  0
   -1.7201   -0.8563   -0.8583 H   0  0  0  0  0  0  0  0  0  0  0  0
    0.3817   -0.6548   -0.4459 C   0  0  1  0  0  0  0  0  0  0  0  0
    1.0467   -1.3154   -1.0134 H   0  0  0  0  0  0  0  0  0  0  0  0
    0.2276    0.6732   -1.2526 C   0  0  1  0  0  0  0  0  0  0  0  0
   -0.6797    0.5836   -1.8593 H   0  0  0  0  0  0  0  0  0  0  0  0
    0.0257    1.9201   -0.3730 C   0  0  0  0  0  0  0  0  0  0  0  0
    0.8996    2.1160    0.2555 H   0  0  0  0  0  0  0  0  0  0  0  0
   -0.1455    2.8004   -1.0003 H   0  0  0  0  0  0  0  0  0  0  0  0
   -0.8468    1.7910    0.2743 H   0  0  0  0  0  0  0  0  0  0  0  0
    1.3659    0.8926   -2.2762 C   0  0  0  0  0  0  0  0  0  0  0  0
    1.3437    0.0793   -3.0091 H   0  0  0  0  0  0  0  0  0  0  0  0
    1.1702    1.8220   -2.8211 H   0  0  0  0  0  0  0  0  0  0  0  0
    2.7779    0.9690   -1.6863 C   0  0  0  0  0  0  0  0  0  0  0  0
    3.0838   -0.0000   -1.2838 H   0  0  0  0  0  0  0  0  0  0  0  0
    3.4899    1.2464   -2.4691 H   0  0  0  0  0  0  0  0  0  0  0  0
    2.8376    1.7171   -0.8913 H   0  0  0  0  0  0  0  0  0  0  0  0
    1.0416   -0.5156    0.9520 C   0  0  0  0  0  0  0  0  0  0  0  0
    2.2518   -0.6366    1.0856 O   0  0  0  0  0  0  0  0  0  0  0  0
    0.2965   -0.0857    2.0366 N   0  0  0  0  0  0  0  0  0  0  0  0
   -0.7105   -0.0952    1.9187 H   0  0  0  0  0  0  0  0  0  0  0  0
    0.8459    0.0195    3.3823 C   0  0  0  0  0  0  0  0  0  0  0  0
    1.6844    0.7237    3.4009 H   0  0  0  0  0  0  0  0  0  0  0  0
    0.0803    0.3780    4.0766 H   0  0  0  0  0  0  0  0  0  0  0  0
    1.1990   -0.9580    3.7276 H   0  0  0  0  0  0  0  0  0  0  0  0
  1  2  1  0  0  0  0
  2  3  1  0  0  0  0
  2  4  1  0  0  0  0
  2  5  1  0  0  0  0
  5  6  2  0  0  0  0
  5  7  1  0  0  0  0
  7  8  1  0  0  0  0
  7  9  1  0  0  0  0
  9 10  1  0  0  0  0
  9 11  1  0  0  0  0
  9 24  1  0  0  0  0
 11 12  1  0  0  0  0
 11 13  1  0  0  0  0
 11 17  1  0  0  0  0
 13 14  1  0  0  0  0
 13 15  1  0  0  0  0
 13 16  1  0  0  0  0
 17 18  1  0  0  0  0
 17 19  1  0  0  0  0
 17 20  1  0  0  0  0
 20 21  1  0  0  0  0
 20 22  1  0  0  0  0
 20 23  1  0  0  0  0
 24 25  2  0  0  0  0
 24 26  1  0  0  0  0
 26 27  1  0  0  0  0
 26 28  1  0  0  0  0
 28 29  1  0  0  0  0
 28 30  1  0  0  0  0
 28 31  1  0  0  0  0
M  END
$$$$

  -OEChem-03222214053D

 31 30  0     1  0  0  0  0  0999 V2000
   -2.5580   -4.2332    0.3452 H   0  0  0  0  0  0  0  0  0  0  0  0
   -2.5663   -3.2079   -0.0360 C   0  0  0  0  0  0  0  0  0  0  0  0
   -3.2738   -2.6196    0.5531 H   0  0  0  0  0  0  0  0  0  0  0  0
   -2.8935   -3.2243   -1.0784 H   0  0  0  0  0  0  0  0  0  0  0  0
   -1.1782   -2.6036    0.0638 C   0  0  0  0  0  0  0  0  0  0  0  0
   -0.2704   -3.2510    0.5523 O   0  0  0  0  0  0  0  0  0  0  0  0
   -0.9551   -1.3212   -0.3989 N   0  0  0  0  0  0  0  0  0  0  0  0
   -1.7354   -0.8565   -0.8525 H   0  0  0  0  0  0  0  0  0  0  0  0
    0.3661   -0.6612   -0.4337 C   0  0  1  0  0  0  0  0  0  0  0  0
    1.0189   -1.3374   -0.9951 H   0  0  0  0  0  0  0  0  0  0  0  0
    0.2247    0.6580   -1.2605 C   0  0  1  0  0  0  0  0  0  0  0  0
   -0.6880    0.5792   -1.8608 H   0  0  0  0  0  0  0  0  0  0  0  0
    0.0511    1.9069   -0.3790 C   0  0  0  0  0  0  0  0  0  0  0  0
    0.9545    2.1077    0.2056 H   0  0  0  0  0  0  0  0  0  0  0  0
   -0.1531    2.7845   -1.0003 H   0  0  0  0  0  0  0  0  0  0  0  0
   -0.7914    1.7772    0.3066 H   0  0  0  0  0  0  0  0  0  0  0  0
    1.3647    0.8933   -2.2833 C   0  0  0  0  0  0  0  0  0  0  0  0
    1.2007    0.2291   -3.1380 H   0  0  0  0  0  0  0  0  0  0  0  0
    1.3044    1.9195   -2.6599 H   0  0  0  0  0  0  0  0  0  0  0  0
    2.7869    0.6432   -1.7692 C   0  0  0  0  0  0  0  0  0  0  0  0
    2.9522   -0.4138   -1.5445 H   0  0  0  0  0  0  0  0  0  0  0  0
    3.5124    0.9391   -2.5329 H   0  0  0  0  0  0  0  0  0  0  0  0
    2.9805    1.2312   -0.8671 H   0  0  0  0  0  0  0  0  0  0  0  0
    1.0320   -0.5202    0.9610 C   0  0  0  0  0  0  0  0  0  0  0  0
    2.2439   -0.6351    1.0858 O   0  0  0  0  0  0  0  0  0  0  0  0
    0.2935   -0.0880    2.0492 N   0  0  0  0  0  0  0  0  0  0  0  0
   -0.7144   -0.1036    1.9398 H   0  0  0  0  0  0  0  0  0  0  0  0
    0.8532    0.0253    3.3899 C   0  0  0  0  0  0  0  0  0  0  0  0
    1.6898    0.7318    3.3981 H   0  0  0  0  0  0  0  0  0  0  0  0
    0.0921    0.3853    4.0885 H   0  0  0  0  0  0  0  0  0  0  0  0
    1.2114   -0.9495    3.7372 H   0  0  0  0  0  0  0  0  0  0  0  0
  1  2  1  0  0  0  0
  2  3  1  0  0  0  0
  2  4  1  0  0  0  0
  2  5  1  0  0  0  0
  5  6  2  0  0  0  0
  5  7  1  0  0  0  0
  7  8  1  0  0  0  0
  7  9  1  0  0  0  0
  9 10  1  0  0  0  0
  9 11  1  0  0  0  0
  9 24  1  0  0  0  0
 11 12  1  0  0  0  0
 11 13  1  0  0  0  0
 11 17  1  0  0  0  0
 13 14  1  0  0  0  0
 13 15  1  0  0  0  0
 13 16  1  0  0  0  0
 17 18  1  0  0  0  0
 17 19  1  0  0  0  0
 17 20  1  0  0  0  0
 20 21  1  0  0  0  0
 20 22  1  0  0  0  0
 20 23  1  0  0  0  0
 24 25  2  0  0  0  0
 24 26  1  0  0  0  0
 26 27  1  0  0  0  0
 26 28  1  0  0  0  0
 28 29  1  0  0  0  0
 28 30  1  0  0  0  0
 28 31  1  0  0  0  0
M  END
$$$$

  -OEChem-03222214053D

 31 30  0     1  0  0  0  0  0999 V2000
   -2.5870   -4.2285    0.3545 H   0  0  0  0  0  0  0  0  0  0  0  0
   -2.5889   -3.2030   -0.0262 C   0  0  0  0  0  0  0  0  0  0  0  0
   -3.2915   -2.6103    0.5644 H   0  0  0  0  0  0  0  0  0  0  0  0
   -2.9178   -3.2162   -1.0681 H   0  0  0  0  0  0  0  0  0  0  0  0
   -1.1965   -2.6086    0.0716 C   0  0  0  0  0  0  0  0  0  0  0  0
   -0.2940   -3.2604    0.5640 O   0  0  0  0  0  0  0  0  0  0  0  0
   -0.9649   -1.3283   -0.3924 N   0  0  0  0  0  0  0  0  0  0  0  0
   -1.7418   -0.8580   -0.8460 H   0  0  0  0  0  0  0  0  0  0  0  0
    0.3590   -0.6744   -0.4201 C   0  0  1  0  0  0  0  0  0  0  0  0
    1.0007   -1.3691   -0.9674 H   0  0  0  0  0  0  0  0  0  0  0  0
    0.2333    0.6379   -1.2644 C   0  0  1  0  0  0  0  0  0  0  0  0
   -0.6803    0.5591   -1.8634 H   0  0  0  0  0  0  0  0  0  0  0  0
    0.0558    1.8860   -0.3823 C   0  0  0  0  0  0  0  0  0  0  0  0
    0.9671    2.0951    0.1877 H   0  0  0  0  0  0  0  0  0  0  0  0
   -0.1675    2.7611   -1.0006 H   0  0  0  0  0  0  0  0  0  0  0  0
   -0.7756    1.7495    0.3155 H   0  0  0  0  0  0  0  0  0  0  0  0
    1.3712    0.8974   -2.2926 C   0  0  0  0  0  0  0  0  0  0  0  0
    1.0752    0.4378   -3.2414 H   0  0  0  0  0  0  0  0  0  0  0  0
    1.4582    1.9729   -2.4781 H   0  0  0  0  0  0  0  0  0  0  0  0
    2.7629    0.3530   -1.9477 C   0  0  0  0  0  0  0  0  0  0  0  0
    2.7822   -0.7395   -1.9283 H   0  0  0  0  0  0  0  0  0  0  0  0
    3.4827    0.6831   -2.7029 H   0  0  0  0  0  0  0  0  0  0  0  0
    3.0922    0.7347   -0.9770 H   0  0  0  0  0  0  0  0  0  0  0  0
    1.0225   -0.5303    0.9744 C   0  0  0  0  0  0  0  0  0  0  0  0
    2.2337   -0.6520    1.0989 O   0  0  0  0  0  0  0  0  0  0  0  0
    0.2855   -0.0910    2.0608 N   0  0  0  0  0  0  0  0  0  0  0  0
   -0.7226   -0.1017    1.9516 H   0  0  0  0  0  0  0  0  0  0  0  0
    0.8457    0.0233    3.4011 C   0  0  0  0  0  0  0  0  0  0  0  0
    1.6888    0.7221    3.4058 H   0  0  0  0  0  0  0  0  0  0  0  0
    0.0880    0.3936    4.0982 H   0  0  0  0  0  0  0  0  0  0  0  0
    1.1949   -0.9533    3.7528 H   0  0  0  0  0  0  0  0  0  0  0  0
  1  2  1  0  0  0  0
  2  3  1  0  0  0  0
  2  4  1  0  0  0  0
  2  5  1  0  0  0  0
  5  6  2  0  0  0  0
  5  7  1  0  0  0  0
  7  8  1  0  0  0  0
  7  9  1  0  0  0  0
  9 10  1  0  0  0  0
  9 11  1  0  0  0  0
  9 24  1  0  0  0  0
 11 12  1  0  0  0  0
 11 13  1  0  0  0  0
 11 17  1  0  0  0  0
 13 14  1  0  0  0  0
 13 15  1  0  0  0  0
 13 16  1  0  0  0  0
 17 18  1  0  0  0  0
 17 19  1  0  0  0  0
 17 20  1  0  0  0  0
 20 21  1  0  0  0  0
 20 22  1  0  0  0  0
 20 23  1  0  0  0  0
 24 25  2  0  0  0  0
 24 26  1  0  0  0  0
 26 27  1  0  0  0  0
 26 28  1  0  0  0  0
 28 29  1  0  0  0  0
 28 30  1  0  0  0  0
 28 31  1  0  0  0  0
M  END
$$$$

  -OEChem-03222214053D

 31 30  0     1  0  0  0  0  0999 V2000
   -2.6133   -4.2274    0.3566 H   0  0  0  0  0  0  0  0  0  0  0  0
   -2.6083   -3.2034   -0.0282 C   0  0  0  0  0  0  0  0  0  0  0  0
   -3.3225   -2.6084    0.5460 H   0  0  0  0  0  0  0  0  0  0  0  0
   -2.9163   -3.2216   -1.0764 H   0  0  0  0  0  0  0  0  0  0  0  0
   -1.2182   -2.6078    0.0944 C   0  0  0  0  0  0  0  0  0  0  0  0
   -0.3258   -3.2565    0.6090 O   0  0  0  0  0  0  0  0  0  0  0  0
   -0.9751   -1.3327   -0.3782 N   0  0  0  0  0  0  0  0  0  0  0  0
   -1.7407   -0.8701   -0.8583 H   0  0  0  0  0  0  0  0  0  0  0  0
    0.3553   -0.6910   -0.4095 C   0  0  1  0  0  0  0  0  0  0  0  0
    0.9910   -1.3979   -0.9457 H   0  0  0  0  0  0  0  0  0  0  0  0
    0.2441    0.6254   -1.2527 C   0  0  1  0  0  0  0  0  0  0  0  0
   -0.6679    0.5384   -1.8530 H   0  0  0  0  0  0  0  0  0  0  0  0
    0.0446    1.8733   -0.3749 C   0  0  0  0  0  0  0  0  0  0  0  0
    0.9469    2.0905    0.2062 H   0  0  0  0  0  0  0  0  0  0  0  0
   -0.1778    2.7450   -0.9986 H   0  0  0  0  0  0  0  0  0  0  0  0
   -0.7945    1.7310    0.3125 H   0  0  0  0  0  0  0  0  0  0  0  0
    1.3731    0.8989   -2.2935 C   0  0  0  0  0  0  0  0  0  0  0  0
    0.9616    0.7161   -3.2916 H   0  0  0  0  0  0  0  0  0  0  0  0
    1.6494    1.9580   -2.2591 H   0  0  0  0  0  0  0  0  0  0  0  0
    2.6658    0.0826   -2.1837 C   0  0  0  0  0  0  0  0  0  0  0  0
    2.4907   -0.9760   -2.3946 H   0  0  0  0  0  0  0  0  0  0  0  0
    3.3934    0.4493   -2.9140 H   0  0  0  0  0  0  0  0  0  0  0  0
    3.1064    0.1864   -1.1889 H   0  0  0  0  0  0  0  0  0  0  0  0
    1.0216   -0.5423    0.9833 C   0  0  0  0  0  0  0  0  0  0  0  0
    2.2338   -0.6574    1.1037 O   0  0  0  0  0  0  0  0  0  0  0  0
    0.2896   -0.0886    2.0670 N   0  0  0  0  0  0  0  0  0  0  0  0
   -0.7189   -0.1009    1.9616 H   0  0  0  0  0  0  0  0  0  0  0  0
    0.8549    0.0410    3.4037 C   0  0  0  0  0  0  0  0  0  0  0  0
    1.6936    0.7451    3.3991 H   0  0  0  0  0  0  0  0  0  0  0  0
    0.0978    0.4126    4.1005 H   0  0  0  0  0  0  0  0  0  0  0  0
    1.2122   -0.9300    3.7629 H   0  0  0  0  0  0  0  0  0  0  0  0
  1  2  1  0  0  0  0
  2  3  1  0  0  0  0
  2  4  1  0  0  0  0
  2  5  1  0  0  0  0
  5  6  2  0  0  0  0
  5  7  1  0  0  0  0
  7  8  1  0  0  0  0
  7  9  1  0  0  0  0
  9 10  1  0  0  0  0
  9 11  1  0  0  0  0
  9 24  1  0  0  0  0
 11 12  1  0  0  0  0
 11 13  1  0  0  0  0
 11 17  1  0  0  0  0
 13 14  1  0  0  0  0
 13 15  1  0  0  0  0
 13 16  1  0  0  0  0
 17 18  1  0  0  0  0
 17 19  1  0  0  0  0
 17 20  1  0  0  0  0
 20 21  1  0  0  0  0
 20 22  1  0  0  0  0
 20 23  1  0  0  0  0
 24 25  2  0  0  0  0
 24 26  1  0  0  0  0
 26 27  1  0  0  0  0
 26 28  1  0  0  0  0
 28 29  1  0  0  0  0
 28 30  1  0  0  0  0
 28 31  1  0  0  0  0
M  END
$$$$

  -OEChem-03222214053D

 31 30  0     1  0  0  0  0  0999 V2000
   -2.6358   -4.2298    0.3562 H   0  0  0  0  0  0  0  0  0  0  0  0
   -2.6268   -3.2067   -0.0309 C   0  0  0  0  0  0  0  0  0  0  0  0
   -3.3390   -2.6081    0.5417 H   0  0  0  0  0  0  0  0  0  0  0  0
   -2.9353   -3.2262   -1.0788 H   0  0  0  0  0  0  0  0  0  0  0  0
   -1.2348   -2.6153    0.0906 C   0  0  0  0  0  0  0  0  0  0  0  0
   -0.3442   -3.2648    0.6070 O   0  0  0  0  0  0  0  0  0  0  0  0
   -0.9891   -1.3398   -0.3788 N   0  0  0  0  0  0  0  0  0  0  0  0
   -1.7539   -0.8731   -0.8564 H   0  0  0  0  0  0  0  0  0  0  0  0
    0.3427   -0.7016   -0.4091 C   0  0  1  0  0  0  0  0  0  0  0  0
    0.9723   -1.4162   -0.9413 H   0  0  0  0  0  0  0  0  0  0  0  0
    0.2485    0.6212   -1.2433 C   0  0  1  0  0  0  0  0  0  0  0  0
   -0.6527    0.5193   -1.8577 H   0  0  0  0  0  0  0  0  0  0  0  0
    0.0158    1.8689   -0.3745 C   0  0  0  0  0  0  0  0  0  0  0  0
    0.8984    2.0938    0.2334 H   0  0  0  0  0  0  0  0  0  0  0  0
   -0.1926    2.7370   -1.0080 H   0  0  0  0  0  0  0  0  0  0  0  0
   -0.8420    1.7211    0.2884 H   0  0  0  0  0  0  0  0  0  0  0  0
    1.3788    0.9019   -2.2812 C   0  0  0  0  0  0  0  0  0  0  0  0
    0.9171    1.0289   -3.2660 H   0  0  0  0  0  0  0  0  0  0  0  0
    1.8582    1.8547   -2.0330 H   0  0  0  0  0  0  0  0  0  0  0  0
    2.5027   -0.1305   -2.4184 C   0  0  0  0  0  0  0  0  0  0  0  0
    2.1127   -1.0870   -2.7792 H   0  0  0  0  0  0  0  0  0  0  0  0
    3.2433    0.2246   -3.1414 H   0  0  0  0  0  0  0  0  0  0  0  0
    3.0109   -0.2843   -1.4621 H   0  0  0  0  0  0  0  0  0  0  0  0
    1.0224   -0.5515    0.9753 C   0  0  0  0  0  0  0  0  0  0  0  0
    2.2398   -0.6325    1.0714 O   0  0  0  0  0  0  0  0  0  0  0  0
    0.3017   -0.0952    2.0653 N   0  0  0  0  0  0  0  0  0  0  0  0
   -0.7082   -0.1266    1.9777 H   0  0  0  0  0  0  0  0  0  0  0  0
    0.8877    0.0626    3.3903 C   0  0  0  0  0  0  0  0  0  0  0  0
    1.7188    0.7751    3.3600 H   0  0  0  0  0  0  0  0  0  0  0  0
    0.1382    0.4381    4.0934 H   0  0  0  0  0  0  0  0  0  0  0  0
    1.2612   -0.8984    3.7594 H   0  0  0  0  0  0  0  0  0  0  0  0
  1  2  1  0  0  0  0
  2  3  1  0  0  0  0
  2  4  1  0  0  0  0
  2  5  1  0  0  0  0
  5  6  2  0  0  0  0
  5  7  1  0  0  0  0
  7  8  1  0  0  0  0
  7  9  1  0  0  0  0
  9 10  1  0  0  0  0
  9 11  1  0  0  0  0
  9 24  1  0  0  0  0
 11 12  1  0  0  0  0
 11 13  1  0  0  0  0
 11 17  1  0  0  0  0
 13 14  1  0  0  0  0
 13 15  1  0  0  0  0
 13 16  1  0  0  0  0
 17 18  1  0  0  0  0
 17 19  1  0  0  0  0
 17 20  1  0  0  0  0
 20 21  1  0  0  0  0
 20 22  1  0  0  0  0
 20 23  1  0  0  0  0
 24 25  2  0  0  0  0
 24 26  1  0  0  0  0
 26 27  1  0  0  0  0
 26 28  1  0  0  0  0
 28 29  1  0  0  0  0
 28 30  1  0  0  0  0
 28 31  1  0  0  0  0
M  END
$$$$

  -OEChem-03222214053D

 31 30  0     1  0  0  0  0  0999 V2000
   -2.6449   -4.2383    0.3417 H   0  0  0  0  0  0  0  0  0  0  0  0
   -2.6363   -3.2164   -0.0485 C   0  0  0  0  0  0  0  0  0  0  0  0
   -3.3559   -2.6183    0.5155 H   0  0  0  0  0  0  0  0  0  0  0  0
   -2.9344   -3.2400   -1.0995 H   0  0  0  0  0  0  0  0  0  0  0  0
   -1.2479   -2.6193    0.0839 C   0  0  0  0  0  0  0  0  0  0  0  0
   -0.3568   -3.2661    0.6034 O   0  0  0  0  0  0  0  0  0  0  0  0
   -1.0053   -1.3410   -0.3795 N   0  0  0  0  0  0  0  0  0  0  0  0
   -1.7677   -0.8791   -0.8655 H   0  0  0  0  0  0  0  0  0  0  0  0
    0.3261   -0.7026   -0.4087 C   0  0  1  0  0  0  0  0  0  0  0  0
    0.9511   -1.4205   -0.9412 H   0  0  0  0  0  0  0  0  0  0  0  0
    0.2402    0.6241   -1.2363 C   0  0  1  0  0  0  0  0  0  0  0  0
   -0.6558    0.5194   -1.8576 H   0  0  0  0  0  0  0  0  0  0  0  0
    0.0077    1.8744   -0.3722 C   0  0  0  0  0  0  0  0  0  0  0  0
    0.8853    2.0940    0.2447 H   0  0  0  0  0  0  0  0  0  0  0  0
   -0.1867    2.7427   -1.0096 H   0  0  0  0  0  0  0  0  0  0  0  0
   -0.8572    1.7335    0.2828 H   0  0  0  0  0  0  0  0  0  0  0  0
    1.3739    0.9018   -2.2669 C   0  0  0  0  0  0  0  0  0  0  0  0
    0.9202    1.3077   -3.1771 H   0  0  0  0  0  0  0  0  0  0  0  0
    2.0299    1.6802   -1.8625 H   0  0  0  0  0  0  0  0  0  0  0  0
    2.2833   -0.2662   -2.6603 C   0  0  0  0  0  0  0  0  0  0  0  0
    1.6958   -1.0920   -3.0730 H   0  0  0  0  0  0  0  0  0  0  0  0
    2.9965    0.0606   -3.4232 H   0  0  0  0  0  0  0  0  0  0  0  0
    2.8542   -0.6235   -1.7973 H   0  0  0  0  0  0  0  0  0  0  0  0
    1.0210   -0.5529    0.9661 C   0  0  0  0  0  0  0  0  0  0  0  0
    2.2413   -0.6171    1.0379 O   0  0  0  0  0  0  0  0  0  0  0  0
    0.3127   -0.0986    2.0649 N   0  0  0  0  0  0  0  0  0  0  0  0
   -0.6982   -0.1348    1.9920 H   0  0  0  0  0  0  0  0  0  0  0  0
    0.9177    0.0793    3.3785 C   0  0  0  0  0  0  0  0  0  0  0  0
    1.7381    0.8029    3.3283 H   0  0  0  0  0  0  0  0  0  0  0  0
    0.1743    0.4511    4.0900 H   0  0  0  0  0  0  0  0  0  0  0  0
    1.3100   -0.8731    3.7505 H   0  0  0  0  0  0  0  0  0  0  0  0
  1  2  1  0  0  0  0
  2  3  1  0  0  0  0
  2  4  1  0  0  0  0
  2  5  1  0  0  0  0
  5  6  2  0  0  0  0
  5  7  1  0  0  0  0
  7  8  1  0  0  0  0
  7  9  1  0  0  0  0
  9 10  1  0  0  0  0
  9 11  1  0  0  0  0
  9 24  1  0  0  0  0
 11 12  1  0  0  0  0
 11 13  1  0  0  0  0
 11 17  1  0  0  0  0
 13 14  1  0  0  0  0
 13 15  1  0  0  0  0
 13 16  1  0  0  0  0
 17 18  1  0  0  0  0
 17 19  1  0  0  0  0
 17 20  1  0  0  0  0
 20 21  1  0  0  0  0
 20 22  1  0  0  0  0
 20 23  1  0  0  0  0
 24 25  2  0  0  0  0
 24 26  1  0  0  0  0
 26 27  1  0  0  0  0
 26 28  1  0  0  0  0
 28 29  1  0  0  0  0
 28 30  1  0  0  0  0
 28 31  1  0  0  0  0
M  END
$$$$

  -OEChem-03222214053D

 31 30  0     1  0  0  0  0  0999 V2000
   -2.6309   -4.2479    0.3180 H   0  0  0  0  0  0  0  0  0  0  0  0
   -2.6315   -3.2221   -0.0619 C   0  0  0  0  0  0  0  0  0  0  0  0
   -3.3559   -2.6362    0.5087 H   0  0  0  0  0  0  0  0  0  0  0  0
   -2.9307   -3.2380   -1.1127 H   0  0  0  0  0  0  0  0  0  0  0  0
   -1.2480   -2.6149    0.0755 C   0  0  0  0  0  0  0  0  0  0  0  0
   -0.3542   -3.2565    0.5966 O   0  0  0  0  0  0  0  0  0  0  0  0
   -1.0127   -1.3336   -0.3835 N   0  0  0  0  0  0  0  0  0  0  0  0
   -1.7769   -0.8747   -0.8696 H   0  0  0  0  0  0  0  0  0  0  0  0
    0.3165   -0.6910   -0.4142 C   0  0  1  0  0  0  0  0  0  0  0  0
    0.9453   -1.4036   -0.9487 H   0  0  0  0  0  0  0  0  0  0  0  0
    0.2291    0.6371   -1.2367 C   0  0  1  0  0  0  0  0  0  0  0  0
   -0.6675    0.5391   -1.8580 H   0  0  0  0  0  0  0  0  0  0  0  0
    0.0142    1.8899   -0.3724 C   0  0  0  0  0  0  0  0  0  0  0  0
    0.8975    2.1025    0.2388 H   0  0  0  0  0  0  0  0  0  0  0  0
   -0.1758    2.7594   -1.0094 H   0  0  0  0  0  0  0  0  0  0  0  0
   -0.8480    1.7578    0.2880 H   0  0  0  0  0  0  0  0  0  0  0  0
    1.3672    0.9010   -2.2597 C   0  0  0  0  0  0  0  0  0  0  0  0
    0.9701    1.5388   -3.0563 H   0  0  0  0  0  0  0  0  0  0  0  0
    2.1626    1.4644   -1.7600 H   0  0  0  0  0  0  0  0  0  0  0  0
    2.0269   -0.3238   -2.9018 C   0  0  0  0  0  0  0  0  0  0  0  0
    1.2699   -1.0004   -3.3102 H   0  0  0  0  0  0  0  0  0  0  0  0
    2.6815   -0.0056   -3.7189 H   0  0  0  0  0  0  0  0  0  0  0  0
    2.6407   -0.8647   -2.1746 H   0  0  0  0  0  0  0  0  0  0  0  0
    1.0173   -0.5441    0.9574 C   0  0  0  0  0  0  0  0  0  0  0  0
    2.2389   -0.5957    1.0185 O   0  0  0  0  0  0  0  0  0  0  0  0
    0.3139   -0.0966    2.0621 N   0  0  0  0  0  0  0  0  0  0  0  0
   -0.6972   -0.1466    1.9986 H   0  0  0  0  0  0  0  0  0  0  0  0
    0.9282    0.0791    3.3718 C   0  0  0  0  0  0  0  0  0  0  0  0
    1.7449    0.8066    3.3179 H   0  0  0  0  0  0  0  0  0  0  0  0
    0.1890    0.4446    4.0907 H   0  0  0  0  0  0  0  0  0  0  0  0
    1.3280   -0.8729    3.7365 H   0  0  0  0  0  0  0  0  0  0  0  0
  1  2  1  0  0  0  0
  2  3  1  0  0  0  0
  2  4  1  0  0  0  0
  2  5  1  0  0  0  0
  5  6  2  0  0  0  0
  5  7  1  0  0  0  0
  7  8  1  0  0  0  0
  7  9  1  0  0  0  0
  9 10  1  0  0  0  0
  9 11  1  0  0  0  0
  9 24  1  0  0  0  0
 11 12  1  0  0  0  0
 11 13  1  0  0  0  0
 11 17  1  0  0  0  0
 13 14  1  0  0  0  0
 13 15  1  0  0  0  0
 13 16  1  0  0  0  0
 17 18  1  0  0  0  0
 17 19  1  0  0  0  0
 17 20  1  0  0  0  0
 20 21  1  0  0  0  0
 20 22  1  0  0  0  0
 20 23  1  0  0  0  0
 24 25  2  0  0  0  0
 24 26  1  0  0  0  0
 26 27  1  0  0  0  0
 26 28  1  0  0  0  0
 28 29  1  0  0  0  0
 28 30  1  0  0  0  0
 28 31  1  0  0  0  0
M  END
$$$$

  -OEChem-03222214053D

 31 30  0     1  0  0  0  0  0999 V2000
   -2.6086   -4.2490    0.3130 H   0  0  0  0  0  0  0  0  0  0  0  0
   -2.6151   -3.2234   -0.0673 C   0  0  0  0  0  0  0  0  0  0  0  0
   -3.3354   -2.6393    0.5102 H   0  0  0  0  0  0  0  0  0  0  0  0
   -2.9244   -3.2400   -1.1151 H   0  0  0  0  0  0  0  0  0  0  0  0
   -1.2316   -2.6129    0.0565 C   0  0  0  0  0  0  0  0  0  0  0  0
   -0.3285   -3.2561    0.5593 O   0  0  0  0  0  0  0  0  0  0  0  0
   -1.0071   -1.3272   -0.3953 N   0  0  0  0  0  0  0  0  0  0  0  0
   -1.7801   -0.8650   -0.8640 H   0  0  0  0  0  0  0  0  0  0  0  0
    0.3164   -0.6736   -0.4263 C   0  0  1  0  0  0  0  0  0  0  0  0
    0.9576   -1.3707   -0.9675 H   0  0  0  0  0  0  0  0  0  0  0  0
    0.2132    0.6563   -1.2413 C   0  0  1  0  0  0  0  0  0  0  0  0
   -0.6901    0.5740   -1.8551 H   0  0  0  0  0  0  0  0  0  0  0  0
    0.0311    1.9080   -0.3679 C   0  0  0  0  0  0  0  0  0  0  0  0
    0.9287    2.1067    0.2268 H   0  0  0  0  0  0  0  0  0  0  0  0
   -0.1598    2.7831   -0.9969 H   0  0  0  0  0  0  0  0  0  0  0  0
   -0.8202    1.7840    0.3080 H   0  0  0  0  0  0  0  0  0  0  0  0
    1.3576    0.9022   -2.2551 C   0  0  0  0  0  0  0  0  0  0  0  0
    1.0576    1.7213   -2.9169 H   0  0  0  0  0  0  0  0  0  0  0  0
    2.2510    1.2299   -1.7125 H   0  0  0  0  0  0  0  0  0  0  0  0
    1.7498   -0.2977   -3.1251 C   0  0  0  0  0  0  0  0  0  0  0  0
    0.8591   -0.7839   -3.5346 H   0  0  0  0  0  0  0  0  0  0  0  0
    2.3735    0.0398   -3.9583 H   0  0  0  0  0  0  0  0  0  0  0  0
    2.3290   -1.0297   -2.5547 H   0  0  0  0  0  0  0  0  0  0  0  0
    1.0165   -0.5309    0.9463 C   0  0  0  0  0  0  0  0  0  0  0  0
    2.2383   -0.5748    1.0079 O   0  0  0  0  0  0  0  0  0  0  0  0
    0.3093   -0.0965    2.0538 N   0  0  0  0  0  0  0  0  0  0  0  0
   -0.7012   -0.1513    1.9883 H   0  0  0  0  0  0  0  0  0  0  0  0
    0.9208    0.0721    3.3656 C   0  0  0  0  0  0  0  0  0  0  0  0
    1.7354    0.8024    3.3189 H   0  0  0  0  0  0  0  0  0  0  0  0
    0.1791    0.4303    4.0856 H   0  0  0  0  0  0  0  0  0  0  0  0
    1.3227   -0.8814    3.7240 H   0  0  0  0  0  0  0  0  0  0  0  0
  1  2  1  0  0  0  0
  2  3  1  0  0  0  0
  2  4  1  0  0  0  0
  2  5  1  0  0  0  0
  5  6  2  0  0  0  0
  5  7  1  0  0  0  0
  7  8  1  0  0  0  0
  7  9  1  0  0  0  0
  9 10  1  0  0  0  0
  9 11  1  0  0  0  0
  9 24  1  0  0  0  0
 11 12  1  0  0  0  0
 11 13  1  0  0  0  0
 11 17  1  0  0  0  0
 13 14  1  0  0  0  0
 13 15  1  0  0  0  0
 13 16  1  0  0  0  0
 17 18  1  0  0  0  0
 17 19  1  0  0  0  0
 17 20  1  0  0  0  0
 20 21  1  0  0  0  0
 20 22  1  0  0  0  0
 20 23  1  0  0  0  0
 24 25  2  0  0  0  0
 24 26  1  0  0  0  0
 26 27  1  0  0  0  0
 26 28  1  0  0  0  0
 28 29  1  0  0  0  0
 28 30  1  0  0  0  0
 28 31  1  0  0  0  0
M  END
$$$$

  -OEChem-03222214053D

 31 30  0     1  0  0  0  0  0999 V2000
   -2.5718   -4.2591    0.2850 H   0  0  0  0  0  0  0  0  0  0  0  0
   -2.5909   -3.2303   -0.0862 C   0  0  0  0  0  0  0  0  0  0  0  0
   -3.3168   -2.6593    0.4978 H   0  0  0  0  0  0  0  0  0  0  0  0
   -2.9019   -3.2416   -1.1336 H   0  0  0  0  0  0  0  0  0  0  0  0
   -1.2142   -2.6054    0.0401 C   0  0  0  0  0  0  0  0  0  0  0  0
   -0.3036   -3.2425    0.5373 O   0  0  0  0  0  0  0  0  0  0  0  0
   -1.0042   -1.3144   -0.4033 N   0  0  0  0  0  0  0  0  0  0  0  0
   -1.7818   -0.8594   -0.8716 H   0  0  0  0  0  0  0  0  0  0  0  0
    0.3130   -0.6488   -0.4361 C   0  0  1  0  0  0  0  0  0  0  0  0
    0.9663   -1.3286   -0.9865 H   0  0  0  0  0  0  0  0  0  0  0  0
    0.1936    0.6823   -1.2442 C   0  0  1  0  0  0  0  0  0  0  0  0
   -0.7175    0.6189   -1.8486 H   0  0  0  0  0  0  0  0  0  0  0  0
    0.0427    1.9312   -0.3608 C   0  0  0  0  0  0  0  0  0  0  0  0
    0.9561    2.1205    0.2125 H   0  0  0  0  0  0  0  0  0  0  0  0
   -0.1574    2.8107   -0.9805 H   0  0  0  0  0  0  0  0  0  0  0  0
   -0.7931    1.8105    0.3346 H   0  0  0  0  0  0  0  0  0  0  0  0
    1.3498    0.8993   -2.2471 C   0  0  0  0  0  0  0  0  0  0  0  0
    1.1948    1.8552   -2.7582 H   0  0  0  0  0  0  0  0  0  0  0  0
    2.2968    0.9683   -1.7005 H   0  0  0  0  0  0  0  0  0  0  0  0
    1.4739   -0.1926   -3.3177 C   0  0  0  0  0  0  0  0  0  0  0  0
    0.5041   -0.3810   -3.7880 H   0  0  0  0  0  0  0  0  0  0  0  0
    2.1758    0.1310   -4.0923 H   0  0  0  0  0  0  0  0  0  0  0  0
    1.8522   -1.1286   -2.8992 H   0  0  0  0  0  0  0  0  0  0  0  0
    1.0145   -0.5128    0.9373 C   0  0  0  0  0  0  0  0  0  0  0  0
    2.2367   -0.5488    0.9966 O   0  0  0  0  0  0  0  0  0  0  0  0
    0.3068   -0.0948    2.0510 N   0  0  0  0  0  0  0  0  0  0  0  0
   -0.7035   -0.1579    1.9878 H   0  0  0  0  0  0  0  0  0  0  0  0
    0.9202    0.0670    3.3632 C   0  0  0  0  0  0  0  0  0  0  0  0
    1.7259    0.8073    3.3213 H   0  0  0  0  0  0  0  0  0  0  0  0
    0.1767    0.4091    4.0893 H   0  0  0  0  0  0  0  0  0  0  0  0
    1.3341   -0.8852    3.7113 H   0  0  0  0  0  0  0  0  0  0  0  0
  1  2  1  0  0  0  0
  2  3  1  0  0  0  0
  2  4  1  0  0  0  0
  2  5  1  0  0  0  0
  5  6  2  0  0  0  0
  5  7  1  0  0  0  0
  7  8  1  0  0  0  0
  7  9  1  0  0  0  0
  9 10  1  0  0  0  0
  9 11  1  0  0  0  0
  9 24  1  0  0  0  0
 11 12  1  0  0  0  0
 11 13  1  0  0  0  0
 11 17  1  0  0  0  0
 13 14  1  0  0  0  0
 13 15  1  0  0  0  0
 13 16  1  0  0  0  0
 17 18  1  0  0  0  0
 17 19  1  0  0  0  0
 17 20  1  0  0  0  0
 20 21  1  0  0  0  0
 20 22  1  0  0  0  0
 20 23  1  0  0  0  0
 24 25  2  0  0  0  0
 24 26  1  0  0  0  0
 26 27  1  0  0  0  0
 26 28  1  0  0  0  0
 28 29  1  0  0  0  0
 28 30  1  0  0  0  0
 28 31  1  0  0  0  0
M  END
$$$$

  -OEChem-03222214053D

 31 30  0     1  0  0  0  0  0999 V2000
   -2.5334   -4.2668    0.2676 H   0  0  0  0  0  0  0  0  0  0  0  0
   -2.5635   -3.2362   -0.0982 C   0  0  0  0  0  0  0  0  0  0  0  0
   -3.2868   -2.6733    0.4965 H   0  0  0  0  0  0  0  0  0  0  0  0
   -2.8855   -3.2442   -1.1423 H   0  0  0  0  0  0  0  0  0  0  0  0
   -1.1899   -2.6019    0.0173 C   0  0  0  0  0  0  0  0  0  0  0  0
   -0.2685   -3.2370    0.4968 O   0  0  0  0  0  0  0  0  0  0  0  0
   -0.9950   -1.3051   -0.4159 N   0  0  0  0  0  0  0  0  0  0  0  0
   -1.7817   -0.8506   -0.8692 H   0  0  0  0  0  0  0  0  0  0  0  0
    0.3145   -0.6249   -0.4477 C   0  0  1  0  0  0  0  0  0  0  0  0
    0.9774   -1.2862   -1.0142 H   0  0  0  0  0  0  0  0  0  0  0  0
    0.1750    0.7083   -1.2464 C   0  0  1  0  0  0  0  0  0  0  0  0
   -0.7427    0.6601   -1.8426 H   0  0  0  0  0  0  0  0  0  0  0  0
    0.0491    1.9531   -0.3524 C   0  0  0  0  0  0  0  0  0  0  0  0
    0.9742    2.1318    0.2057 H   0  0  0  0  0  0  0  0  0  0  0  0
   -0.1552    2.8380   -0.9629 H   0  0  0  0  0  0  0  0  0  0  0  0
   -0.7755    1.8352    0.3568 H   0  0  0  0  0  0  0  0  0  0  0  0
    1.3453    0.8969   -2.2348 C   0  0  0  0  0  0  0  0  0  0  0  0
    1.3673    1.9361   -2.5792 H   0  0  0  0  0  0  0  0  0  0  0  0
    2.2955    0.7010   -1.7255 H   0  0  0  0  0  0  0  0  0  0  0  0
    1.2240   -0.0039   -3.4689 C   0  0  0  0  0  0  0  0  0  0  0  0
    0.2869    0.1956   -3.9974 H   0  0  0  0  0  0  0  0  0  0  0  0
    2.0546    0.1921   -4.1537 H   0  0  0  0  0  0  0  0  0  0  0  0
    1.2517   -1.0618   -3.1942 H   0  0  0  0  0  0  0  0  0  0  0  0
    1.0165   -0.4942    0.9263 C   0  0  0  0  0  0  0  0  0  0  0  0
    2.2390   -0.5201    0.9859 O   0  0  0  0  0  0  0  0  0  0  0  0
    0.3039   -0.0938    2.0433 N   0  0  0  0  0  0  0  0  0  0  0  0
   -0.7060   -0.1579    1.9763 H   0  0  0  0  0  0  0  0  0  0  0  0
    0.9132    0.0593    3.3580 C   0  0  0  0  0  0  0  0  0  0  0  0
    1.7159    0.8035    3.3249 H   0  0  0  0  0  0  0  0  0  0  0  0
    0.1661    0.3918    4.0849 H   0  0  0  0  0  0  0  0  0  0  0  0
    1.3304   -0.8943    3.6984 H   0  0  0  0  0  0  0  0  0  0  0  0
  1  2  1  0  0  0  0
  2  3  1  0  0  0  0
  2  4  1  0  0  0  0
  2  5  1  0  0  0  0
  5  6  2  0  0  0  0
  5  7  1  0  0  0  0
  7  8  1  0  0  0  0
  7  9  1  0  0  0  0
  9 10  1  0  0  0  0
  9 11  1  0  0  0  0
  9 24  1  0  0  0  0
 11 12  1  0  0  0  0
 11 13  1  0  0  0  0
 11 17  1  0  0  0  0
 13 14  1  0  0  0  0
 13 15  1  0  0  0  0
 13 16  1  0  0  0  0
 17 18  1  0  0  0  0
 17 19  1  0  0  0  0
 17 20  1  0  0  0  0
 20 21  1  0  0  0  0
 20 22  1  0  0  0  0
 20 23  1  0  0  0  0
 24 25  2  0  0  0  0
 24 26  1  0  0  0  0
 26 27  1  0  0  0  0
 26 28  1  0  0  0  0
 28 29  1  0  0  0  0
 28 30  1  0  0  0  0
 28 31  1  0  0  0  0
M  END
$$$$

  -OEChem-03222214053D

 31 30  0     1  0  0  0  0  0999 V2000
   -2.5236   -4.2704    0.2334 H   0  0  0  0  0  0  0  0  0  0  0  0
   -2.5587   -3.2365   -0.1221 C   0  0  0  0  0  0  0  0  0  0  0  0
   -3.2910   -2.6852    0.4722 H   0  0  0  0  0  0  0  0  0  0  0  0
   -2.8724   -3.2363   -1.1688 H   0  0  0  0  0  0  0  0  0  0  0  0
   -1.1911   -2.5932    0.0110 C   0  0  0  0  0  0  0  0  0  0  0  0
   -0.2695   -3.2242    0.4959 O   0  0  0  0  0  0  0  0  0  0  0  0
   -1.0017   -1.2927   -0.4132 N   0  0  0  0  0  0  0  0  0  0  0  0
   -1.7874   -0.8424   -0.8724 H   0  0  0  0  0  0  0  0  0  0  0  0
    0.3054   -0.6081   -0.4425 C   0  0  1  0  0  0  0  0  0  0  0  0
    0.9622   -1.2675   -1.0211 H   0  0  0  0  0  0  0  0  0  0  0  0
    0.1626    0.7211   -1.2446 C   0  0  1  0  0  0  0  0  0  0  0  0
   -0.7560    0.6749   -1.8394 H   0  0  0  0  0  0  0  0  0  0  0  0
    0.0357    1.9653   -0.3498 C   0  0  0  0  0  0  0  0  0  0  0  0
    0.9603    2.1448    0.2088 H   0  0  0  0  0  0  0  0  0  0  0  0
   -0.1692    2.8501   -0.9605 H   0  0  0  0  0  0  0  0  0  0  0  0
   -0.7888    1.8460    0.3592 H   0  0  0  0  0  0  0  0  0  0  0  0
    1.3471    0.8898   -2.2225 C   0  0  0  0  0  0  0  0  0  0  0  0
    1.5447    1.9545   -2.3846 H   0  0  0  0  0  0  0  0  0  0  0  0
    2.2598    0.4567   -1.7984 H   0  0  0  0  0  0  0  0  0  0  0  0
    1.0470    0.2609   -3.5848 C   0  0  0  0  0  0  0  0  0  0  0  0
    0.1756    0.7361   -4.0458 H   0  0  0  0  0  0  0  0  0  0  0  0
    1.9044    0.3891   -4.2526 H   0  0  0  0  0  0  0  0  0  0  0  0
    0.8485   -0.8100   -3.4781 H   0  0  0  0  0  0  0  0  0  0  0  0
    1.0165   -0.4810    0.9270 C   0  0  0  0  0  0  0  0  0  0  0  0
    2.2395   -0.5030    0.9769 O   0  0  0  0  0  0  0  0  0  0  0  0
    0.3113   -0.0890    2.0514 N   0  0  0  0  0  0  0  0  0  0  0  0
   -0.6985   -0.1618    1.9932 H   0  0  0  0  0  0  0  0  0  0  0  0
    0.9316    0.0571    3.3619 C   0  0  0  0  0  0  0  0  0  0  0  0
    1.7272    0.8089    3.3282 H   0  0  0  0  0  0  0  0  0  0  0  0
    0.1884    0.3756    4.0989 H   0  0  0  0  0  0  0  0  0  0  0  0
    1.3608   -0.8956    3.6898 H   0  0  0  0  0  0  0  0  0  0  0  0
  1  2  1  0  0  0  0
  2  3  1  0  0  0  0
  2  4  1  0  0  0  0
  2  5  1  0  0  0  0
  5  6  2  0  0  0  0
  5  7  1  0  0  0  0
  7  8  1  0  0  0  0
  7  9  1  0  0  0  0
  9 10  1  0  0  0  0
  9 11  1  0  0  0  0
  9 24  1  0  0  0  0
 11 12  1  0  0  0  0
 11 13  1  0  0  0  0
 11 17  1  0  0  0  0
 13 14  1  0  0  0  0
 13 15  1  0  0  0  0
 13 16  1  0  0  0  0
 17 18  1  0  0  0  0
 17 19  1  0  0  0  0
 17 20  1  0  0  0  0
 20 21  1  0  0  0  0
 20 22  1  0  0  0  0
 20 23  1  0  0  0  0
 24 25  2  0  0  0  0
 24 26  1  0  0  0  0
 26 27  1  0  0  0  0
 26 28  1  0  0  0  0
 28 29  1  0  0  0  0
 28 30  1  0  0  0  0
 28 31  1  0  0  0  0
M  END
$$$$

  -OEChem-03222214053D

 31 30  0     1  0  0  0  0  0999 V2000
   -2.5336   -4.2667    0.2550 H   0  0  0  0  0  0  0  0  0  0  0  0
   -2.5654   -3.2342   -0.1046 C   0  0  0  0  0  0  0  0  0  0  0  0
   -3.2912   -2.6768    0.4921 H   0  0  0  0  0  0  0  0  0  0  0  0
   -2.8855   -3.2364   -1.1492 H   0  0  0  0  0  0  0  0  0  0  0  0
   -1.1936   -2.5973    0.0165 C   0  0  0  0  0  0  0  0  0  0  0  0
   -0.2713   -3.2320    0.4948 O   0  0  0  0  0  0  0  0  0  0  0  0
   -1.0014   -1.2976   -0.4095 N   0  0  0  0  0  0  0  0  0  0  0  0
   -1.7895   -0.8419   -0.8589 H   0  0  0  0  0  0  0  0  0  0  0  0
    0.3069   -0.6148   -0.4388 C   0  0  1  0  0  0  0  0  0  0  0  0
    0.9578   -1.2809   -1.0161 H   0  0  0  0  0  0  0  0  0  0  0  0
    0.1714    0.7149   -1.2422 C   0  0  1  0  0  0  0  0  0  0  0  0
   -0.7464    0.6576   -1.8375 H   0  0  0  0  0  0  0  0  0  0  0  0
    0.0219    1.9596   -0.3510 C   0  0  0  0  0  0  0  0  0  0  0  0
    0.9365    2.1471    0.2213 H   0  0  0  0  0  0  0  0  0  0  0  0
   -0.1807    2.8417   -0.9668 H   0  0  0  0  0  0  0  0  0  0  0  0
   -0.8119    1.8347    0.3464 H   0  0  0  0  0  0  0  0  0  0  0  0
    1.3562    0.8938   -2.2248 C   0  0  0  0  0  0  0  0  0  0  0  0
    1.7281    1.9227   -2.1767 H   0  0  0  0  0  0  0  0  0  0  0  0
    2.1960    0.2471   -1.9495 H   0  0  0  0  0  0  0  0  0  0  0  0
    0.9386    0.6148   -3.6696 C   0  0  0  0  0  0  0  0  0  0  0  0
    0.1457    1.3020   -3.9810 H   0  0  0  0  0  0  0  0  0  0  0  0
    1.7940    0.7476   -4.3390 H   0  0  0  0  0  0  0  0  0  0  0  0
    0.5754   -0.4126   -3.7708 H   0  0  0  0  0  0  0  0  0  0  0  0
    1.0180   -0.4858    0.9299 C   0  0  0  0  0  0  0  0  0  0  0  0
    2.2409   -0.5101    0.9801 O   0  0  0  0  0  0  0  0  0  0  0  0
    0.3124   -0.0905    2.0528 N   0  0  0  0  0  0  0  0  0  0  0  0
   -0.6976   -0.1608    1.9940 H   0  0  0  0  0  0  0  0  0  0  0  0
    0.9315    0.0565    3.3637 C   0  0  0  0  0  0  0  0  0  0  0  0
    1.7338    0.8011    3.3280 H   0  0  0  0  0  0  0  0  0  0  0  0
    0.1898    0.3854    4.0977 H   0  0  0  0  0  0  0  0  0  0  0  0
    1.3513   -0.8986    3.6970 H   0  0  0  0  0  0  0  0  0  0  0  0
  1  2  1  0  0  0  0
  2  3  1  0  0  0  0
  2  4  1  0  0  0  0
  2  5  1  0  0  0  0
  5  6  2  0  0  0  0
  5  7  1  0  0  0  0
  7  8  1  0  0  0  0
  7  9  1  0  0  0  0
  9 10  1  0  0  0  0
  9 11  1  0  0  0  0
  9 24  1  0  0  0  0
 11 12  1  0  0  0  0
 11 13  1  0  0  0  0
 11 17  1  0  0  0  0
 13 14  1  0  0  0  0
 13 15  1  0  0  0  0
 13 16  1  0  0  0  0
 17 18  1  0  0  0  0
 17 19  1  0  0  0  0
 17 20  1  0  0  0  0
 20 21  1  0  0  0  0
 20 22  1  0  0  0  0
 20 23  1  0  0  0  0
 24 25  2  0  0  0  0
 24 26  1  0  0  0  0
 26 27  1  0  0  0  0
 26 28  1  0  0  0  0
 28 29  1  0  0  0  0
 28 30  1  0  0  0  0
 28 31  1  0  0  0  0
M  END
$$$$

  -OEChem-03222214053D

 31 30  0     1  0  0  0  0  0999 V2000
   -2.5447   -4.2682    0.2557 H   0  0  0  0  0  0  0  0  0  0  0  0
   -2.5727   -3.2356   -0.1044 C   0  0  0  0  0  0  0  0  0  0  0  0
   -3.3042   -2.6774    0.4845 H   0  0  0  0  0  0  0  0  0  0  0  0
   -2.8825   -3.2385   -1.1521 H   0  0  0  0  0  0  0  0  0  0  0  0
   -1.2018   -2.5995    0.0302 C   0  0  0  0  0  0  0  0  0  0  0  0
   -0.2862   -3.2326    0.5234 O   0  0  0  0  0  0  0  0  0  0  0  0
   -1.0018   -1.3032   -0.4023 N   0  0  0  0  0  0  0  0  0  0  0  0
   -1.7836   -0.8493   -0.8645 H   0  0  0  0  0  0  0  0  0  0  0  0
    0.3106   -0.6277   -0.4318 C   0  0  1  0  0  0  0  0  0  0  0  0
    0.9567   -1.3032   -1.0026 H   0  0  0  0  0  0  0  0  0  0  0  0
    0.1841    0.7036   -1.2349 C   0  0  1  0  0  0  0  0  0  0  0  0
   -0.7299    0.6284   -1.8339 H   0  0  0  0  0  0  0  0  0  0  0  0
    0.0107    1.9517   -0.3540 C   0  0  0  0  0  0  0  0  0  0  0  0
    0.9111    2.1448    0.2385 H   0  0  0  0  0  0  0  0  0  0  0  0
   -0.1801    2.8294   -0.9795 H   0  0  0  0  0  0  0  0  0  0  0  0
   -0.8381    1.8264    0.3250 H   0  0  0  0  0  0  0  0  0  0  0  0
    1.3631    0.8955   -2.2251 C   0  0  0  0  0  0  0  0  0  0  0  0
    1.9158    1.8075   -1.9762 H   0  0  0  0  0  0  0  0  0  0  0  0
    2.0807    0.0722   -2.1532 H   0  0  0  0  0  0  0  0  0  0  0  0
    0.8764    0.9963   -3.6720 C   0  0  0  0  0  0  0  0  0  0  0  0
    0.1895    1.8404   -3.7881 H   0  0  0  0  0  0  0  0  0  0  0  0
    1.7270    1.1467   -4.3438 H   0  0  0  0  0  0  0  0  0  0  0  0
    0.3605    0.0773   -3.9671 H   0  0  0  0  0  0  0  0  0  0  0  0
    1.0219   -0.4937    0.9359 C   0  0  0  0  0  0  0  0  0  0  0  0
    2.2448   -0.5219    0.9849 O   0  0  0  0  0  0  0  0  0  0  0  0
    0.3189   -0.0875    2.0565 N   0  0  0  0  0  0  0  0  0  0  0  0
   -0.6914   -0.1555    1.9995 H   0  0  0  0  0  0  0  0  0  0  0  0
    0.9407    0.0685    3.3653 C   0  0  0  0  0  0  0  0  0  0  0  0
    1.7401    0.8158    3.3240 H   0  0  0  0  0  0  0  0  0  0  0  0
    0.1995    0.3978    4.0995 H   0  0  0  0  0  0  0  0  0  0  0  0
    1.3655   -0.8829    3.7022 H   0  0  0  0  0  0  0  0  0  0  0  0
  1  2  1  0  0  0  0
  2  3  1  0  0  0  0
  2  4  1  0  0  0  0
  2  5  1  0  0  0  0
  5  6  2  0  0  0  0
  5  7  1  0  0  0  0
  7  8  1  0  0  0  0
  7  9  1  0  0  0  0
  9 10  1  0  0  0  0
  9 11  1  0  0  0  0
  9 24  1  0  0  0  0
 11 12  1  0  0  0  0
 11 13  1  0  0  0  0
 11 17  1  0  0  0  0
 13 14  1  0  0  0  0
 13 15  1  0  0  0  0
 13 16  1  0  0  0  0
 17 18  1  0  0  0  0
 17 19  1  0  0  0  0
 17 20  1  0  0  0  0
 20 21  1  0  0  0  0
 20 22  1  0  0  0  0
 20 23  1  0  0  0  0
 24 25  2  0  0  0  0
 24 26  1  0  0  0  0
 26 27  1  0  0  0  0
 26 28  1  0  0  0  0
 28 29  1  0  0  0  0
 28 30  1  0  0  0  0
 28 31  1  0  0  0  0
M  END
$$$$

  -OEChem-03222214053D

 31 30  0     1  0  0  0  0  0999 V2000
   -2.5489   -4.2663    0.2668 H   0  0  0  0  0  0  0  0  0  0  0  0
   -2.5728   -3.2351   -0.0971 C   0  0  0  0  0  0  0  0  0  0  0  0
   -3.3024   -2.6717    0.4897 H   0  0  0  0  0  0  0  0  0  0  0  0
   -2.8820   -3.2405   -1.1451 H   0  0  0  0  0  0  0  0  0  0  0  0
   -1.1996   -2.6037    0.0361 C   0  0  0  0  0  0  0  0  0  0  0  0
   -0.2868   -3.2370    0.5342 O   0  0  0  0  0  0  0  0  0  0  0  0
   -0.9961   -1.3097   -0.4012 N   0  0  0  0  0  0  0  0  0  0  0  0
   -1.7759   -0.8573   -0.8681 H   0  0  0  0  0  0  0  0  0  0  0  0
    0.3173   -0.6361   -0.4317 C   0  0  1  0  0  0  0  0  0  0  0  0
    0.9660   -1.3124   -0.9977 H   0  0  0  0  0  0  0  0  0  0  0  0
    0.1929    0.6977   -1.2315 C   0  0  1  0  0  0  0  0  0  0  0  0
   -0.7163    0.6097   -1.8361 H   0  0  0  0  0  0  0  0  0  0  0  0
    0.0074    1.9492   -0.3580 C   0  0  0  0  0  0  0  0  0  0  0  0
    0.9007    2.1467    0.2436 H   0  0  0  0  0  0  0  0  0  0  0  0
   -0.1783    2.8244   -0.9881 H   0  0  0  0  0  0  0  0  0  0  0  0
   -0.8481    1.8244    0.3124 H   0  0  0  0  0  0  0  0  0  0  0  0
    1.3668    0.8950   -2.2239 C   0  0  0  0  0  0  0  0  0  0  0  0
    2.0823    1.6179   -1.8178 H   0  0  0  0  0  0  0  0  0  0  0  0
    1.9156   -0.0393   -2.3758 H   0  0  0  0  0  0  0  0  0  0  0  0
    0.8761    1.3691   -3.5935 C   0  0  0  0  0  0  0  0  0  0  0  0
    0.3343    2.3155   -3.5014 H   0  0  0  0  0  0  0  0  0  0  0  0
    1.7277    1.5217   -4.2633 H   0  0  0  0  0  0  0  0  0  0  0  0
    0.2117    0.6246   -4.0430 H   0  0  0  0  0  0  0  0  0  0  0  0
    1.0251   -0.4983    0.9372 C   0  0  0  0  0  0  0  0  0  0  0  0
    2.2478   -0.5260    0.9894 O   0  0  0  0  0  0  0  0  0  0  0  0
    0.3192   -0.0871    2.0542 N   0  0  0  0  0  0  0  0  0  0  0  0
   -0.6907   -0.1589    1.9955 H   0  0  0  0  0  0  0  0  0  0  0  0
    0.9378    0.0743    3.3637 C   0  0  0  0  0  0  0  0  0  0  0  0
    1.7379    0.8208    3.3205 H   0  0  0  0  0  0  0  0  0  0  0  0
    0.1954    0.4079    4.0948 H   0  0  0  0  0  0  0  0  0  0  0  0
    1.3608   -0.8762    3.7061 H   0  0  0  0  0  0  0  0  0  0  0  0
  1  2  1  0  0  0  0
  2  3  1  0  0  0  0
  2  4  1  0  0  0  0
  2  5  1  0  0  0  0
  5  6  2  0  0  0  0
  5  7  1  0  0  0  0
  7  8  1  0  0  0  0
  7  9  1  0  0  0  0
  9 10  1  0  0  0  0
  9 11  1  0  0  0  0
  9 24  1  0  0  0  0
 11 12  1  0  0  0  0
 11 13  1  0  0  0  0
 11 17  1  0  0  0  0
 13 14  1  0  0  0  0
 13 15  1  0  0  0  0
 13 16  1  0  0  0  0
 17 18  1  0  0  0  0
 17 19  1  0  0  0  0
 17 20  1  0  0  0  0
 20 21  1  0  0  0  0
 20 22  1  0  0  0  0
 20 23  1  0  0  0  0
 24 25  2  0  0  0  0
 24 26  1  0  0  0  0
 26 27  1  0  0  0  0
 26 28  1  0  0  0  0
 28 29  1  0  0  0  0
 28 30  1  0  0  0  0
 28 31  1  0  0  0  0
M  END
$$$$

  -OEChem-03222214053D

 31 30  0     1  0  0  0  0  0999 V2000
   -2.5340   -4.2687    0.2848 H   0  0  0  0  0  0  0  0  0  0  0  0
   -2.5636   -3.2385   -0.0824 C   0  0  0  0  0  0  0  0  0  0  0  0
   -3.2853   -2.6738    0.5126 H   0  0  0  0  0  0  0  0  0  0  0  0
   -2.8877   -3.2475   -1.1258 H   0  0  0  0  0  0  0  0  0  0  0  0
   -1.1889   -2.6058    0.0288 C   0  0  0  0  0  0  0  0  0  0  0  0
   -0.2670   -3.2404    0.5080 O   0  0  0  0  0  0  0  0  0  0  0  0
   -0.9932   -1.3099   -0.4068 N   0  0  0  0  0  0  0  0  0  0  0  0
   -1.7818   -0.8525   -0.8539 H   0  0  0  0  0  0  0  0  0  0  0  0
    0.3167   -0.6300   -0.4382 C   0  0  1  0  0  0  0  0  0  0  0  0
    0.9714   -1.2997   -1.0056 H   0  0  0  0  0  0  0  0  0  0  0  0
    0.1864    0.7049   -1.2342 C   0  0  1  0  0  0  0  0  0  0  0  0
   -0.7179    0.6168   -1.8459 H   0  0  0  0  0  0  0  0  0  0  0  0
    0.0020    1.9514   -0.3521 C   0  0  0  0  0  0  0  0  0  0  0  0
    0.9044    2.1556    0.2333 H   0  0  0  0  0  0  0  0  0  0  0  0
   -0.2081    2.8294   -0.9696 H   0  0  0  0  0  0  0  0  0  0  0  0
   -0.8389    1.8129    0.3339 H   0  0  0  0  0  0  0  0  0  0  0  0
    1.3634    0.8915   -2.2203 C   0  0  0  0  0  0  0  0  0  0  0  0
    2.2013    1.3801   -1.7115 H   0  0  0  0  0  0  0  0  0  0  0  0
    1.7228   -0.0792   -2.5753 H   0  0  0  0  0  0  0  0  0  0  0  0
    0.9562    1.6991   -3.4557 C   0  0  0  0  0  0  0  0  0  0  0  0
    0.6214    2.7011   -3.1722 H   0  0  0  0  0  0  0  0  0  0  0  0
    1.8106    1.8011   -4.1318 H   0  0  0  0  0  0  0  0  0  0  0  0
    0.1470    1.1974   -3.9953 H   0  0  0  0  0  0  0  0  0  0  0  0
    1.0225   -0.4933    0.9319 C   0  0  0  0  0  0  0  0  0  0  0  0
    2.2451   -0.5186    0.9865 O   0  0  0  0  0  0  0  0  0  0  0  0
    0.3135   -0.0885    2.0493 N   0  0  0  0  0  0  0  0  0  0  0  0
   -0.6967   -0.1525    1.9863 H   0  0  0  0  0  0  0  0  0  0  0  0
    0.9276    0.0694    3.3611 C   0  0  0  0  0  0  0  0  0  0  0  0
    1.7318    0.8117    3.3216 H   0  0  0  0  0  0  0  0  0  0  0  0
    0.1836    0.4067    4.0889 H   0  0  0  0  0  0  0  0  0  0  0  0
    1.3441   -0.8835    3.7044 H   0  0  0  0  0  0  0  0  0  0  0  0
  1  2  1  0  0  0  0
  2  3  1  0  0  0  0
  2  4  1  0  0  0  0
  2  5  1  0  0  0  0
  5  6  2  0  0  0  0
  5  7  1  0  0  0  0
  7  8  1  0  0  0  0
  7  9  1  0  0  0  0
  9 10  1  0  0  0  0
  9 11  1  0  0  0  0
  9 24  1  0  0  0  0
 11 12  1  0  0  0  0
 11 13  1  0  0  0  0
 11 17  1  0  0  0  0
 13 14  1  0  0  0  0
 13 15  1  0  0  0  0
 13 16  1  0  0  0  0
 17 18  1  0  0  0  0
 17 19  1  0  0  0  0
 17 20  1  0  0  0  0
 20 21  1  0  0  0  0
 20 22  1  0  0  0  0
 20 23  1  0  0  0  0
 24 25  2  0  0  0  0
 24 26  1  0  0  0  0
 26 27  1  0  0  0  0
 26 28  1  0  0  0  0
 28 29  1  0  0  0  0
 28 30  1  0  0  0  0
 28 31  1  0  0  0  0
M  END
$$$$

  -OEChem-03222214053D

 31 30  0     1  0  0  0  0  0999 V2000
   -2.5176   -4.2749    0.2713 H   0  0  0  0  0  0  0  0  0  0  0  0
   -2.5537   -3.2432   -0.0909 C   0  0  0  0  0  0  0  0  0  0  0  0
   -3.2783   -2.6858    0.5075 H   0  0  0  0  0  0  0  0  0  0  0  0
   -2.8789   -3.2489   -1.1341 H   0  0  0  0  0  0  0  0  0  0  0  0
   -1.1827   -2.6031    0.0223 C   0  0  0  0  0  0  0  0  0  0  0  0
   -0.2567   -3.2346    0.4979 O   0  0  0  0  0  0  0  0  0  0  0  0
   -0.9955   -1.3037   -0.4069 N   0  0  0  0  0  0  0  0  0  0  0  0
   -1.7872   -0.8493   -0.8515 H   0  0  0  0  0  0  0  0  0  0  0  0
    0.3103   -0.6161   -0.4383 C   0  0  1  0  0  0  0  0  0  0  0  0
    0.9695   -1.2774   -1.0113 H   0  0  0  0  0  0  0  0  0  0  0  0
    0.1697    0.7170   -1.2342 C   0  0  1  0  0  0  0  0  0  0  0  0
   -0.7300    0.6332   -1.8532 H   0  0  0  0  0  0  0  0  0  0  0  0
   -0.0188    1.9557   -0.3407 C   0  0  0  0  0  0  0  0  0  0  0  0
    0.8977    2.1813    0.2142 H   0  0  0  0  0  0  0  0  0  0  0  0
   -0.2778    2.8305   -0.9433 H   0  0  0  0  0  0  0  0  0  0  0  0
   -0.8320    1.7918    0.3723 H   0  0  0  0  0  0  0  0  0  0  0  0
    1.3550    0.8846   -2.2108 C   0  0  0  0  0  0  0  0  0  0  0  0
    2.2648    1.1225   -1.6489 H   0  0  0  0  0  0  0  0  0  0  0  0
    1.5313   -0.0581   -2.7390 H   0  0  0  0  0  0  0  0  0  0  0  0
    1.1061    1.9635   -3.2687 C   0  0  0  0  0  0  0  0  0  0  0  0
    1.0368    2.9539   -2.8103 H   0  0  0  0  0  0  0  0  0  0  0  0
    1.9335    1.9783   -3.9846 H   0  0  0  0  0  0  0  0  0  0  0  0
    0.1799    1.7615   -3.8153 H   0  0  0  0  0  0  0  0  0  0  0  0
    1.0199   -0.4822    0.9310 C   0  0  0  0  0  0  0  0  0  0  0  0
    2.2428   -0.5031    0.9818 O   0  0  0  0  0  0  0  0  0  0  0  0
    0.3134   -0.0875    2.0538 N   0  0  0  0  0  0  0  0  0  0  0  0
   -0.6968   -0.1553    1.9939 H   0  0  0  0  0  0  0  0  0  0  0  0
    0.9321    0.0679    3.3641 C   0  0  0  0  0  0  0  0  0  0  0  0
    1.7303    0.8167    3.3252 H   0  0  0  0  0  0  0  0  0  0  0  0
    0.1888    0.3953    4.0972 H   0  0  0  0  0  0  0  0  0  0  0  0
    1.3575   -0.8834    3.7010 H   0  0  0  0  0  0  0  0  0  0  0  0
  1  2  1  0  0  0  0
  2  3  1  0  0  0  0
  2  4  1  0  0  0  0
  2  5  1  0  0  0  0
  5  6  2  0  0  0  0
  5  7  1  0  0  0  0
  7  8  1  0  0  0  0
  7  9  1  0  0  0  0
  9 10  1  0  0  0  0
  9 11  1  0  0  0  0
  9 24  1  0  0  0  0
 11 12  1  0  0  0  0
 11 13  1  0  0  0  0
 11 17  1  0  0  0  0
 13 14  1  0  0  0  0
 13 15  1  0  0  0  0
 13 16  1  0  0  0  0
 17 18  1  0  0  0  0
 17 19  1  0  0  0  0
 17 20  1  0  0  0  0
 20 21  1  0  0  0  0
 20 22  1  0  0  0  0
 20 23  1  0  0  0  0
 24 25  2  0  0  0  0
 24 26  1  0  0  0  0
 26 27  1  0  0  0  0
 26 28  1  0  0  0  0
 28 29  1  0  0  0  0
 28 30  1  0  0  0  0
 28 31  1  0  0  0  0
M  END
$$$$

  -OEChem-03222214053D

 31 30  0     1  0  0  0  0  0999 V2000
   -2.4998   -4.2689    0.2615 H   0  0  0  0  0  0  0  0  0  0  0  0
   -2.5399   -3.2351   -0.0938 C   0  0  0  0  0  0  0  0  0  0  0  0
   -3.2641   -2.6837    0.5105 H   0  0  0  0  0  0  0  0  0  0  0  0
   -2.8677   -3.2347   -1.1361 H   0  0  0  0  0  0  0  0  0  0  0  0
   -1.1707   -2.5917    0.0195 C   0  0  0  0  0  0  0  0  0  0  0  0
   -0.2403   -3.2250    0.4837 O   0  0  0  0  0  0  0  0  0  0  0  0
   -0.9903   -1.2886   -0.4009 N   0  0  0  0  0  0  0  0  0  0  0  0
   -1.7853   -0.8367   -0.8421 H   0  0  0  0  0  0  0  0  0  0  0  0
    0.3123   -0.5946   -0.4370 C   0  0  1  0  0  0  0  0  0  0  0  0
    0.9801   -1.2463   -1.0125 H   0  0  0  0  0  0  0  0  0  0  0  0
    0.1498    0.7420   -1.2325 C   0  0  1  0  0  0  0  0  0  0  0  0
   -0.8711    0.7925   -1.6256 H   0  0  0  0  0  0  0  0  0  0  0  0
    0.3484    2.0064   -0.3735 C   0  0  0  0  0  0  0  0  0  0  0  0
    1.3870    2.0903   -0.0365 H   0  0  0  0  0  0  0  0  0  0  0  0
    0.0969    2.9060   -0.9419 H   0  0  0  0  0  0  0  0  0  0  0  0
   -0.3078    1.9848    0.5009 H   0  0  0  0  0  0  0  0  0  0  0  0
    1.0996    0.7167   -2.4522 C   0  0  0  0  0  0  0  0  0  0  0  0
    2.1312    0.5839   -2.1073 H   0  0  0  0  0  0  0  0  0  0  0  0
    0.8459   -0.1447   -3.0790 H   0  0  0  0  0  0  0  0  0  0  0  0
    1.0337    1.9778   -3.3196 C   0  0  0  0  0  0  0  0  0  0  0  0
    1.4446    2.8418   -2.7894 H   0  0  0  0  0  0  0  0  0  0  0  0
    1.6208    1.8315   -4.2313 H   0  0  0  0  0  0  0  0  0  0  0  0
   -0.0003    2.1945   -3.6045 H   0  0  0  0  0  0  0  0  0  0  0  0
    1.0165   -0.4773    0.9376 C   0  0  0  0  0  0  0  0  0  0  0  0
    2.2391   -0.5039    0.9949 O   0  0  0  0  0  0  0  0  0  0  0  0
    0.3037   -0.0993    2.0621 N   0  0  0  0  0  0  0  0  0  0  0  0
   -0.7059   -0.1702    1.9959 H   0  0  0  0  0  0  0  0  0  0  0  0
    0.9151    0.0317    3.3784 C   0  0  0  0  0  0  0  0  0  0  0  0
    1.7122    0.7823    3.3586 H   0  0  0  0  0  0  0  0  0  0  0  0
    0.1674    0.3437    4.1137 H   0  0  0  0  0  0  0  0  0  0  0  0
    1.3400   -0.9255    3.6986 H   0  0  0  0  0  0  0  0  0  0  0  0
  1  2  1  0  0  0  0
  2  3  1  0  0  0  0
  2  4  1  0  0  0  0
  2  5  1  0  0  0  0
  5  6  2  0  0  0  0
  5  7  1  0  0  0  0
  7  8  1  0  0  0  0
  7  9  1  0  0  0  0
  9 10  1  0  0  0  0
  9 11  1  0  0  0  0
  9 24  1  0  0  0  0
 11 12  1  0  0  0  0
 11 13  1  0  0  0  0
 11 17  1  0  0  0  0
 13 14  1  0  0  0  0
 13 15  1  0  0  0  0
 13 16  1  0  0  0  0
 17 18  1  0  0  0  0
 17 19  1  0  0  0  0
 17 20  1  0  0  0  0
 20 21  1  0  0  0  0
 20 22  1  0  0  0  0
 20 23  1  0  0  0  0
 24 25  2  0  0  0  0
 24 26  1  0  0  0  0
 26 27  1  0  0  0  0
 26 28  1  0  0  0  0
 28 29  1  0  0  0  0
 28 30  1  0  0  0  0
 28 31  1  0  0  0  0
M  END
$$$$

  -OEChem-03222214053D

 31 30  0     1  0  0  0  0  0999 V2000
   -2.5006   -4.2691    0.2463 H   0  0  0  0  0  0  0  0  0  0  0  0
   -2.5415   -3.2337   -0.1041 C   0  0  0  0  0  0  0  0  0  0  0  0
   -3.2699   -2.6869    0.4993 H   0  0  0  0  0  0  0  0  0  0  0  0
   -2.8646   -3.2295   -1.1478 H   0  0  0  0  0  0  0  0  0  0  0  0
   -1.1745   -2.5871    0.0190 C   0  0  0  0  0  0  0  0  0  0  0  0
   -0.2454   -3.2197    0.4866 O   0  0  0  0  0  0  0  0  0  0  0  0
   -0.9946   -1.2825   -0.3970 N   0  0  0  0  0  0  0  0  0  0  0  0
   -1.7880   -0.8319   -0.8424 H   0  0  0  0  0  0  0  0  0  0  0  0
    0.3080   -0.5887   -0.4308 C   0  0  1  0  0  0  0  0  0  0  0  0
    0.9702   -1.2457   -1.0062 H   0  0  0  0  0  0  0  0  0  0  0  0
    0.1471    0.7443   -1.2342 C   0  0  1  0  0  0  0  0  0  0  0  0
   -0.8700    0.7948   -1.6368 H   0  0  0  0  0  0  0  0  0  0  0  0
    0.3220    2.0051   -0.3626 C   0  0  0  0  0  0  0  0  0  0  0  0
    1.3547    2.0957   -0.0096 H   0  0  0  0  0  0  0  0  0  0  0  0
    0.0695    2.9068   -0.9278 H   0  0  0  0  0  0  0  0  0  0  0  0
   -0.3466    1.9712    0.5022 H   0  0  0  0  0  0  0  0  0  0  0  0
    1.1041    0.7155   -2.4533 C   0  0  0  0  0  0  0  0  0  0  0  0
    2.0857    0.3493   -2.1318 H   0  0  0  0  0  0  0  0  0  0  0  0
    0.7123    0.0072   -3.1906 H   0  0  0  0  0  0  0  0  0  0  0  0
    1.3287    2.0707   -3.1324 C   0  0  0  0  0  0  0  0  0  0  0  0
    1.8714    2.7556   -2.4739 H   0  0  0  0  0  0  0  0  0  0  0  0
    1.9227    1.9361   -4.0415 H   0  0  0  0  0  0  0  0  0  0  0  0
    0.3720    2.5245   -3.4090 H   0  0  0  0  0  0  0  0  0  0  0  0
    1.0181   -0.4725    0.9409 C   0  0  0  0  0  0  0  0  0  0  0  0
    2.2410   -0.4980    0.9916 O   0  0  0  0  0  0  0  0  0  0  0  0
    0.3117   -0.0965    2.0702 N   0  0  0  0  0  0  0  0  0  0  0  0
   -0.6982   -0.1695    2.0112 H   0  0  0  0  0  0  0  0  0  0  0  0
    0.9316    0.0308    3.3830 C   0  0  0  0  0  0  0  0  0  0  0  0
    1.7250    0.7853    3.3613 H   0  0  0  0  0  0  0  0  0  0  0  0
    0.1879    0.3353    4.1254 H   0  0  0  0  0  0  0  0  0  0  0  0
    1.3636   -0.9259    3.6953 H   0  0  0  0  0  0  0  0  0  0  0  0
  1  2  1  0  0  0  0
  2  3  1  0  0  0  0
  2  4  1  0  0  0  0
  2  5  1  0  0  0  0
  5  6  2  0  0  0  0
  5  7  1  0  0  0  0
  7  8  1  0  0  0  0
  7  9  1  0  0  0  0
  9 10  1  0  0  0  0
  9 11  1  0  0  0  0
  9 24  1  0  0  0  0
 11 12  1  0  0  0  0
 11 13  1  0  0  0  0
 11 17  1  0  0  0  0
 13 14  1  0  0  0  0
 13 15  1  0  0  0  0
 13 16  1  0  0  0  0
 17 18  1  0  0  0  0
 17 19  1  0  0  0  0
 17 20  1  0  0  0  0
 20 21  1  0  0  0  0
 20 22  1  0  0  0  0
 20 23  1  0  0  0  0
 24 25  2  0  0  0  0
 24 26  1  0  0  0  0
 26 27  1  0  0  0  0
 26 28  1  0  0  0  0
 28 29  1  0  0  0  0
 28 30  1  0  0  0  0
 28 31  1  0  0  0  0
M  END
$$$$

  -OEChem-03222214053D

 31 30  0     1  0  0  0  0  0999 V2000
   -2.5108   -4.2611    0.2573 H   0  0  0  0  0  0  0  0  0  0  0  0
   -2.5462   -3.2263   -0.0955 C   0  0  0  0  0  0  0  0  0  0  0  0
   -3.2690   -2.6733    0.5090 H   0  0  0  0  0  0  0  0  0  0  0  0
   -2.8726   -3.2223   -1.1383 H   0  0  0  0  0  0  0  0  0  0  0  0
   -1.1747   -2.5882    0.0214 C   0  0  0  0  0  0  0  0  0  0  0  0
   -0.2480   -3.2242    0.4890 O   0  0  0  0  0  0  0  0  0  0  0  0
   -0.9891   -1.2851   -0.3966 N   0  0  0  0  0  0  0  0  0  0  0  0
   -1.7811   -0.8312   -0.8409 H   0  0  0  0  0  0  0  0  0  0  0  0
    0.3157   -0.5954   -0.4292 C   0  0  1  0  0  0  0  0  0  0  0  0
    0.9718   -1.2624   -0.9986 H   0  0  0  0  0  0  0  0  0  0  0  0
    0.1613    0.7362   -1.2402 C   0  0  1  0  0  0  0  0  0  0  0  0
   -0.8535    0.7803   -1.6502 H   0  0  0  0  0  0  0  0  0  0  0  0
    0.3003    1.9934   -0.3556 C   0  0  0  0  0  0  0  0  0  0  0  0
    1.3194    2.0901    0.0335 H   0  0  0  0  0  0  0  0  0  0  0  0
    0.0591    2.8967   -0.9232 H   0  0  0  0  0  0  0  0  0  0  0  0
   -0.3956    1.9478    0.4868 H   0  0  0  0  0  0  0  0  0  0  0  0
    1.1182    0.7230   -2.4677 C   0  0  0  0  0  0  0  0  0  0  0  0
    2.0116    0.1366   -2.2275 H   0  0  0  0  0  0  0  0  0  0  0  0
    0.6137    0.2238   -3.3012 H   0  0  0  0  0  0  0  0  0  0  0  0
    1.6293    2.0914   -2.9335 C   0  0  0  0  0  0  0  0  0  0  0  0
    2.2451    2.5650   -2.1630 H   0  0  0  0  0  0  0  0  0  0  0  0
    2.2451    1.9704   -3.8299 H   0  0  0  0  0  0  0  0  0  0  0  0
    0.7923    2.7519   -3.1799 H   0  0  0  0  0  0  0  0  0  0  0  0
    1.0243   -0.4787    0.9432 C   0  0  0  0  0  0  0  0  0  0  0  0
    2.2471   -0.5069    0.9954 O   0  0  0  0  0  0  0  0  0  0  0  0
    0.3173   -0.0985    2.0706 N   0  0  0  0  0  0  0  0  0  0  0  0
   -0.6925   -0.1703    2.0100 H   0  0  0  0  0  0  0  0  0  0  0  0
    0.9352    0.0298    3.3844 C   0  0  0  0  0  0  0  0  0  0  0  0
    1.7352    0.7774    3.3612 H   0  0  0  0  0  0  0  0  0  0  0  0
    0.1919    0.3446    4.1229 H   0  0  0  0  0  0  0  0  0  0  0  0
    1.3582   -0.9287    3.7033 H   0  0  0  0  0  0  0  0  0  0  0  0
  1  2  1  0  0  0  0
  2  3  1  0  0  0  0
  2  4  1  0  0  0  0
  2  5  1  0  0  0  0
  5  6  2  0  0  0  0
  5  7  1  0  0  0  0
  7  8  1  0  0  0  0
  7  9  1  0  0  0  0
  9 10  1  0  0  0  0
  9 11  1  0  0  0  0
  9 24  1  0  0  0  0
 11 12  1  0  0  0  0
 11 13  1  0  0  0  0
 11 17  1  0  0  0  0
 13 14  1  0  0  0  0
 13 15  1  0  0  0  0
 13 16  1  0  0  0  0
 17 18  1  0  0  0  0
 17 19  1  0  0  0  0
 17 20  1  0  0  0  0
 20 21  1  0  0  0  0
 20 22  1  0  0  0  0
 20 23  1  0  0  0  0
 24 25  2  0  0  0  0
 24 26  1  0  0  0  0
 26 27  1  0  0  0  0
 26 28  1  0  0  0  0
 28 29  1  0  0  0  0
 28 30  1  0  0  0  0
 28 31  1  0  0  0  0
M  END
$$$$

  -OEChem-03222214053D

 31 30  0     1  0  0  0  0  0999 V2000
   -2.5247   -4.2564    0.2701 H   0  0  0  0  0  0  0  0  0  0  0  0
   -2.5548   -3.2238   -0.0895 C   0  0  0  0  0  0  0  0  0  0  0  0
   -3.2779   -2.6645    0.5088 H   0  0  0  0  0  0  0  0  0  0  0  0
   -2.8773   -3.2259   -1.1333 H   0  0  0  0  0  0  0  0  0  0  0  0
   -1.1811   -2.5909    0.0290 C   0  0  0  0  0  0  0  0  0  0  0  0
   -0.2597   -3.2292    0.5042 O   0  0  0  0  0  0  0  0  0  0  0  0
   -0.9862   -1.2915   -0.3967 N   0  0  0  0  0  0  0  0  0  0  0  0
   -1.7743   -0.8344   -0.8447 H   0  0  0  0  0  0  0  0  0  0  0  0
    0.3240   -0.6115   -0.4301 C   0  0  1  0  0  0  0  0  0  0  0  0
    0.9751   -1.2897   -0.9904 H   0  0  0  0  0  0  0  0  0  0  0  0
    0.1840    0.7223   -1.2423 C   0  0  1  0  0  0  0  0  0  0  0  0
   -0.8280    0.7535   -1.6598 H   0  0  0  0  0  0  0  0  0  0  0  0
    0.2807    1.9809   -0.3538 C   0  0  0  0  0  0  0  0  0  0  0  0
    1.2815    2.0870    0.0772 H   0  0  0  0  0  0  0  0  0  0  0  0
    0.0535    2.8809   -0.9321 H   0  0  0  0  0  0  0  0  0  0  0  0
   -0.4468    1.9287    0.4613 H   0  0  0  0  0  0  0  0  0  0  0  0
    1.1350    0.7291   -2.4806 C   0  0  0  0  0  0  0  0  0  0  0  0
    1.8819   -0.0652   -2.3905 H   0  0  0  0  0  0  0  0  0  0  0  0
    0.5422    0.5088   -3.3743 H   0  0  0  0  0  0  0  0  0  0  0  0
    1.9253    2.0210   -2.7226 C   0  0  0  0  0  0  0  0  0  0  0  0
    2.5779    2.2447   -1.8731 H   0  0  0  0  0  0  0  0  0  0  0  0
    2.5540    1.9078   -3.6111 H   0  0  0  0  0  0  0  0  0  0  0  0
    1.2504    2.8655   -2.8907 H   0  0  0  0  0  0  0  0  0  0  0  0
    1.0314   -0.4907    0.9424 C   0  0  0  0  0  0  0  0  0  0  0  0
    2.2539   -0.5264    0.9966 O   0  0  0  0  0  0  0  0  0  0  0  0
    0.3258   -0.0978    2.0665 N   0  0  0  0  0  0  0  0  0  0  0  0
   -0.6846   -0.1585    2.0047 H   0  0  0  0  0  0  0  0  0  0  0  0
    0.9436    0.0398    3.3792 C   0  0  0  0  0  0  0  0  0  0  0  0
    1.7468    0.7836    3.3490 H   0  0  0  0  0  0  0  0  0  0  0  0
    0.2017    0.3646    4.1148 H   0  0  0  0  0  0  0  0  0  0  0  0
    1.3623   -0.9177    3.7068 H   0  0  0  0  0  0  0  0  0  0  0  0
  1  2  1  0  0  0  0
  2  3  1  0  0  0  0
  2  4  1  0  0  0  0
  2  5  1  0  0  0  0
  5  6  2  0  0  0  0
  5  7  1  0  0  0  0
  7  8  1  0  0  0  0
  7  9  1  0  0  0  0
  9 10  1  0  0  0  0
  9 11  1  0  0  0  0
  9 24  1  0  0  0  0
 11 12  1  0  0  0  0
 11 13  1  0  0  0  0
 11 17  1  0  0  0  0
 13 14  1  0  0  0  0
 13 15  1  0  0  0  0
 13 16  1  0  0  0  0
 17 18  1  0  0  0  0
 17 19  1  0  0  0  0
 17 20  1  0  0  0  0
 20 21  1  0  0  0  0
 20 22  1  0  0  0  0
 20 23  1  0  0  0  0
 24 25  2  0  0  0  0
 24 26  1  0  0  0  0
 26 27  1  0  0  0  0
 26 28  1  0  0  0  0
 28 29  1  0  0  0  0
 28 30  1  0  0  0  0
 28 31  1  0  0  0  0
M  END
$$$$

  -OEChem-03222214053D

 31 30  0     1  0  0  0  0  0999 V2000
   -2.5350   -4.2493    0.2967 H   0  0  0  0  0  0  0  0  0  0  0  0
   -2.5589   -3.2192   -0.0704 C   0  0  0  0  0  0  0  0  0  0  0  0
   -3.2725   -2.6490    0.5291 H   0  0  0  0  0  0  0  0  0  0  0  0
   -2.8889   -3.2255   -1.1119 H   0  0  0  0  0  0  0  0  0  0  0  0
   -1.1790   -2.5971    0.0334 C   0  0  0  0  0  0  0  0  0  0  0  0
   -0.2593   -3.2389    0.5071 O   0  0  0  0  0  0  0  0  0  0  0  0
   -0.9764   -1.3023   -0.4025 N   0  0  0  0  0  0  0  0  0  0  0  0
   -1.7635   -0.8412   -0.8483 H   0  0  0  0  0  0  0  0  0  0  0  0
    0.3376   -0.6292   -0.4391 C   0  0  1  0  0  0  0  0  0  0  0  0
    0.9912   -1.3091   -0.9938 H   0  0  0  0  0  0  0  0  0  0  0  0
    0.2067    0.7099   -1.2434 C   0  0  1  0  0  0  0  0  0  0  0  0
   -0.8047    0.7264   -1.6636 H   0  0  0  0  0  0  0  0  0  0  0  0
    0.2776    1.9742   -0.3623 C   0  0  0  0  0  0  0  0  0  0  0  0
    1.2648    2.0887    0.0967 H   0  0  0  0  0  0  0  0  0  0  0  0
    0.0648    2.8666   -0.9582 H   0  0  0  0  0  0  0  0  0  0  0  0
   -0.4715    1.9261    0.4332 H   0  0  0  0  0  0  0  0  0  0  0  0
    1.1470    0.7327   -2.4896 C   0  0  0  0  0  0  0  0  0  0  0  0
    1.6837   -0.2140   -2.5955 H   0  0  0  0  0  0  0  0  0  0  0  0
    0.5229    0.8364   -3.3834 H   0  0  0  0  0  0  0  0  0  0  0  0
    2.1910    1.8552   -2.5211 C   0  0  0  0  0  0  0  0  0  0  0  0
    2.8420    1.8003   -1.6428 H   0  0  0  0  0  0  0  0  0  0  0  0
    2.8150    1.7532   -3.4141 H   0  0  0  0  0  0  0  0  0  0  0  0
    1.7137    2.8387   -2.5537 H   0  0  0  0  0  0  0  0  0  0  0  0
    1.0379   -0.5037    0.9362 C   0  0  0  0  0  0  0  0  0  0  0  0
    2.2598   -0.5434    0.9982 O   0  0  0  0  0  0  0  0  0  0  0  0
    0.3263   -0.0994    2.0524 N   0  0  0  0  0  0  0  0  0  0  0  0
   -0.6839   -0.1593    1.9849 H   0  0  0  0  0  0  0  0  0  0  0  0
    0.9356    0.0462    3.3679 C   0  0  0  0  0  0  0  0  0  0  0  0
    1.7455    0.7826    3.3364 H   0  0  0  0  0  0  0  0  0  0  0  0
    0.1910    0.3851    4.0943 H   0  0  0  0  0  0  0  0  0  0  0  0
    1.3432   -0.9118    3.7077 H   0  0  0  0  0  0  0  0  0  0  0  0
  1  2  1  0  0  0  0
  2  3  1  0  0  0  0
  2  4  1  0  0  0  0
  2  5  1  0  0  0  0
  5  6  2  0  0  0  0
  5  7  1  0  0  0  0
  7  8  1  0  0  0  0
  7  9  1  0  0  0  0
  9 10  1  0  0  0  0
  9 11  1  0  0  0  0
  9 24  1  0  0  0  0
 11 12  1  0  0  0  0
 11 13  1  0  0  0  0
 11 17  1  0  0  0  0
 13 14  1  0  0  0  0
 13 15  1  0  0  0  0
 13 16  1  0  0  0  0
 17 18  1  0  0  0  0
 17 19  1  0  0  0  0
 17 20  1  0  0  0  0
 20 21  1  0  0  0  0
 20 22  1  0  0  0  0
 20 23  1  0  0  0  0
 24 25  2  0  0  0  0
 24 26  1  0  0  0  0
 26 27  1  0  0  0  0
 26 28  1  0  0  0  0
 28 29  1  0  0  0  0
 28 30  1  0  0  0  0
 28 31  1  0  0  0  0
M  END
$$$$

  -OEChem-03222214053D

 31 30  0     1  0  0  0  0  0999 V2000
   -2.5354   -4.2503    0.3018 H   0  0  0  0  0  0  0  0  0  0  0  0
   -2.5583   -3.2212   -0.0683 C   0  0  0  0  0  0  0  0  0  0  0  0
   -3.2720   -2.6487    0.5290 H   0  0  0  0  0  0  0  0  0  0  0  0
   -2.8878   -3.2305   -1.1101 H   0  0  0  0  0  0  0  0  0  0  0  0
   -1.1780   -2.6000    0.0349 C   0  0  0  0  0  0  0  0  0  0  0  0
   -0.2597   -3.2410    0.5123 O   0  0  0  0  0  0  0  0  0  0  0  0
   -0.9746   -1.3071   -0.4060 N   0  0  0  0  0  0  0  0  0  0  0  0
   -1.7611   -0.8489   -0.8560 H   0  0  0  0  0  0  0  0  0  0  0  0
    0.3400   -0.6350   -0.4469 C   0  0  1  0  0  0  0  0  0  0  0  0
    0.9985   -1.3086   -1.0046 H   0  0  0  0  0  0  0  0  0  0  0  0
    0.2097    0.7065   -1.2436 C   0  0  1  0  0  0  0  0  0  0  0  0
   -0.8019    0.7185   -1.6633 H   0  0  0  0  0  0  0  0  0  0  0  0
    0.2889    1.9788   -0.3769 C   0  0  0  0  0  0  0  0  0  0  0  0
    1.2671    2.0779    0.1046 H   0  0  0  0  0  0  0  0  0  0  0  0
    0.1150    2.8666   -0.9926 H   0  0  0  0  0  0  0  0  0  0  0  0
   -0.4800    1.9570    0.4009 H   0  0  0  0  0  0  0  0  0  0  0  0
    1.1433    0.7262   -2.4886 C   0  0  0  0  0  0  0  0  0  0  0  0
    1.4456   -0.2866   -2.7703 H   0  0  0  0  0  0  0  0  0  0  0  0
    0.5702    1.1227   -3.3332 H   0  0  0  0  0  0  0  0  0  0  0  0
    2.3978    1.5958   -2.3469 C   0  0  0  0  0  0  0  0  0  0  0  0
    2.9849    1.2785   -1.4789 H   0  0  0  0  0  0  0  0  0  0  0  0
    3.0223    1.4941   -3.2395 H   0  0  0  0  0  0  0  0  0  0  0  0
    2.1390    2.6525   -2.2348 H   0  0  0  0  0  0  0  0  0  0  0  0
    1.0405   -0.5060    0.9279 C   0  0  0  0  0  0  0  0  0  0  0  0
    2.2625   -0.5475    0.9909 O   0  0  0  0  0  0  0  0  0  0  0  0
    0.3292   -0.0975    2.0427 N   0  0  0  0  0  0  0  0  0  0  0  0
   -0.6811   -0.1551    1.9744 H   0  0  0  0  0  0  0  0  0  0  0  0
    0.9382    0.0504    3.3584 C   0  0  0  0  0  0  0  0  0  0  0  0
    1.7479    0.7871    3.3259 H   0  0  0  0  0  0  0  0  0  0  0  0
    0.1934    0.3901    4.0844 H   0  0  0  0  0  0  0  0  0  0  0  0
    1.3461   -0.9069    3.6999 H   0  0  0  0  0  0  0  0  0  0  0  0
  1  2  1  0  0  0  0
  2  3  1  0  0  0  0
  2  4  1  0  0  0  0
  2  5  1  0  0  0  0
  5  6  2  0  0  0  0
  5  7  1  0  0  0  0
  7  8  1  0  0  0  0
  7  9  1  0  0  0  0
  9 10  1  0  0  0  0
  9 11  1  0  0  0  0
  9 24  1  0  0  0  0
 11 12  1  0  0  0  0
 11 13  1  0  0  0  0
 11 17  1  0  0  0  0
 13 14  1  0  0  0  0
 13 15  1  0  0  0  0
 13 16  1  0  0  0  0
 17 18  1  0  0  0  0
 17 19  1  0  0  0  0
 17 20  1  0  0  0  0
 20 21  1  0  0  0  0
 20 22  1  0  0  0  0
 20 23  1  0  0  0  0
 24 25  2  0  0  0  0
 24 26  1  0  0  0  0
 26 27  1  0  0  0  0
 26 28  1  0  0  0  0
 28 29  1  0  0  0  0
 28 30  1  0  0  0  0
 28 31  1  0  0  0  0
M  END
$$$$

  -OEChem-03222214053D

 31 30  0     1  0  0  0  0  0999 V2000
   -2.5260   -4.2503    0.3099 H   0  0  0  0  0  0  0  0  0  0  0  0
   -2.5495   -3.2218   -0.0619 C   0  0  0  0  0  0  0  0  0  0  0  0
   -3.2605   -2.6478    0.5370 H   0  0  0  0  0  0  0  0  0  0  0  0
   -2.8834   -3.2330   -1.1023 H   0  0  0  0  0  0  0  0  0  0  0  0
   -1.1685   -2.6004    0.0345 C   0  0  0  0  0  0  0  0  0  0  0  0
   -0.2477   -3.2414    0.5070 O   0  0  0  0  0  0  0  0  0  0  0  0
   -0.9672   -1.3082   -0.4102 N   0  0  0  0  0  0  0  0  0  0  0  0
   -1.7560   -0.8509   -0.8568 H   0  0  0  0  0  0  0  0  0  0  0  0
    0.3464   -0.6340   -0.4552 C   0  0  1  0  0  0  0  0  0  0  0  0
    1.0102   -1.2970   -1.0204 H   0  0  0  0  0  0  0  0  0  0  0  0
    0.2044    0.7082   -1.2464 C   0  0  1  0  0  0  0  0  0  0  0  0
   -0.8114    0.7290   -1.6551 H   0  0  0  0  0  0  0  0  0  0  0  0
    0.3209    1.9853   -0.3918 C   0  0  0  0  0  0  0  0  0  0  0  0
    1.2979    2.0580    0.0965 H   0  0  0  0  0  0  0  0  0  0  0  0
    0.1849    2.8710   -1.0201 H   0  0  0  0  0  0  0  0  0  0  0  0
   -0.4536    1.9978    0.3808 H   0  0  0  0  0  0  0  0  0  0  0  0
    1.1297    0.7222   -2.4901 C   0  0  0  0  0  0  0  0  0  0  0  0
    1.2129   -0.2834   -2.9145 H   0  0  0  0  0  0  0  0  0  0  0  0
    0.6629    1.3484   -3.2574 H   0  0  0  0  0  0  0  0  0  0  0  0
    2.5325    1.2831   -2.2323 C   0  0  0  0  0  0  0  0  0  0  0  0
    3.0191    0.7372   -1.4178 H   0  0  0  0  0  0  0  0  0  0  0  0
    3.1456    1.1769   -3.1322 H   0  0  0  0  0  0  0  0  0  0  0  0
    2.4937    2.3450   -1.9729 H   0  0  0  0  0  0  0  0  0  0  0  0
    1.0410   -0.5047    0.9230 C   0  0  0  0  0  0  0  0  0  0  0  0
    2.2617   -0.5586    0.9964 O   0  0  0  0  0  0  0  0  0  0  0  0
    0.3235   -0.0963    2.0340 N   0  0  0  0  0  0  0  0  0  0  0  0
   -0.6865   -0.1464    1.9577 H   0  0  0  0  0  0  0  0  0  0  0  0
    0.9231    0.0404    3.3550 C   0  0  0  0  0  0  0  0  0  0  0  0
    1.7380    0.7716    3.3332 H   0  0  0  0  0  0  0  0  0  0  0  0
    0.1748    0.3810    4.0767 H   0  0  0  0  0  0  0  0  0  0  0  0
    1.3217   -0.9215    3.6941 H   0  0  0  0  0  0  0  0  0  0  0  0
  1  2  1  0  0  0  0
  2  3  1  0  0  0  0
  2  4  1  0  0  0  0
  2  5  1  0  0  0  0
  5  6  2  0  0  0  0
  5  7  1  0  0  0  0
  7  8  1  0  0  0  0
  7  9  1  0  0  0  0
  9 10  1  0  0  0  0
  9 11  1  0  0  0  0
  9 24  1  0  0  0  0
 11 12  1  0  0  0  0
 11 13  1  0  0  0  0
 11 17  1  0  0  0  0
 13 14  1  0  0  0  0
 13 15  1  0  0  0  0
 13 16  1  0  0  0  0
 17 18  1  0  0  0  0
 17 19  1  0  0  0  0
 17 20  1  0  0  0  0
 20 21  1  0  0  0  0
 20 22  1  0  0  0  0
 20 23  1  0  0  0  0
 24 25  2  0  0  0  0
 24 26  1  0  0  0  0
 26 27  1  0  0  0  0
 26 28  1  0  0  0  0
 28 29  1  0  0  0  0
 28 30  1  0  0  0  0
 28 31  1  0  0  0  0
M  END
$$$$

  -OEChem-03222214053D

 31 30  0     1  0  0  0  0  0999 V2000
   -2.5175   -4.2470    0.3238 H   0  0  0  0  0  0  0  0  0  0  0  0
   -2.5423   -3.2198   -0.0515 C   0  0  0  0  0  0  0  0  0  0  0  0
   -3.2495   -2.6434    0.5496 H   0  0  0  0  0  0  0  0  0  0  0  0
   -2.8821   -3.2337   -1.0900 H   0  0  0  0  0  0  0  0  0  0  0  0
   -1.1601   -2.6003    0.0348 C   0  0  0  0  0  0  0  0  0  0  0  0
   -0.2372   -3.2433    0.5004 O   0  0  0  0  0  0  0  0  0  0  0  0
   -0.9592   -1.3093   -0.4133 N   0  0  0  0  0  0  0  0  0  0  0  0
   -1.7497   -0.8506   -0.8554 H   0  0  0  0  0  0  0  0  0  0  0  0
    0.3539   -0.6343   -0.4589 C   0  0  1  0  0  0  0  0  0  0  0  0
    1.0199   -1.2913   -1.0291 H   0  0  0  0  0  0  0  0  0  0  0  0
    0.2013    0.7057   -1.2509 C   0  0  1  0  0  0  0  0  0  0  0  0
   -0.8194    0.7395   -1.6466 H   0  0  0  0  0  0  0  0  0  0  0  0
    0.3588    1.9832   -0.4045 C   0  0  0  0  0  0  0  0  0  0  0  0
    1.3416    2.0336    0.0741 H   0  0  0  0  0  0  0  0  0  0  0  0
    0.2411    2.8692   -1.0360 H   0  0  0  0  0  0  0  0  0  0  0  0
   -0.4078    2.0189    0.3751 H   0  0  0  0  0  0  0  0  0  0  0  0
    1.1193    0.7235   -2.4957 C   0  0  0  0  0  0  0  0  0  0  0  0
    1.0057   -0.2173   -3.0445 H   0  0  0  0  0  0  0  0  0  0  0  0
    0.7878    1.5256   -3.1631 H   0  0  0  0  0  0  0  0  0  0  0  0
    2.6049    0.9461   -2.1880 C   0  0  0  0  0  0  0  0  0  0  0  0
    2.9785    0.1818   -1.5007 H   0  0  0  0  0  0  0  0  0  0  0  0
    3.1867    0.8867   -3.1127 H   0  0  0  0  0  0  0  0  0  0  0  0
    2.7740    1.9314   -1.7445 H   0  0  0  0  0  0  0  0  0  0  0  0
    1.0378   -0.5061    0.9258 C   0  0  0  0  0  0  0  0  0  0  0  0
    2.2567   -0.5739    1.0159 O   0  0  0  0  0  0  0  0  0  0  0  0
    0.3104   -0.0977    2.0305 N   0  0  0  0  0  0  0  0  0  0  0  0
   -0.6989   -0.1388    1.9421 H   0  0  0  0  0  0  0  0  0  0  0  0
    0.8958    0.0292    3.3590 C   0  0  0  0  0  0  0  0  0  0  0  0
    1.7169    0.7537    3.3489 H   0  0  0  0  0  0  0  0  0  0  0  0
    0.1424    0.3734    4.0737 H   0  0  0  0  0  0  0  0  0  0  0  0
    1.2830   -0.9370    3.6992 H   0  0  0  0  0  0  0  0  0  0  0  0
  1  2  1  0  0  0  0
  2  3  1  0  0  0  0
  2  4  1  0  0  0  0
  2  5  1  0  0  0  0
  5  6  2  0  0  0  0
  5  7  1  0  0  0  0
  7  8  1  0  0  0  0
  7  9  1  0  0  0  0
  9 10  1  0  0  0  0
  9 11  1  0  0  0  0
  9 24  1  0  0  0  0
 11 12  1  0  0  0  0
 11 13  1  0  0  0  0
 11 17  1  0  0  0  0
 13 14  1  0  0  0  0
 13 15  1  0  0  0  0
 13 16  1  0  0  0  0
 17 18  1  0  0  0  0
 17 19  1  0  0  0  0
 17 20  1  0  0  0  0
 20 21  1  0  0  0  0
 20 22  1  0  0  0  0
 20 23  1  0  0  0  0
 24 25  2  0  0  0  0
 24 26  1  0  0  0  0
 26 27  1  0  0  0  0
 26 28  1  0  0  0  0
 28 29  1  0  0  0  0
 28 30  1  0  0  0  0
 28 31  1  0  0  0  0
M  END
$$$$

  -OEChem-03222214053D

 31 30  0     1  0  0  0  0  0999 V2000
   -2.5326   -4.2542    0.3113 H   0  0  0  0  0  0  0  0  0  0  0  0
   -2.5554   -3.2266   -0.0629 C   0  0  0  0  0  0  0  0  0  0  0  0
   -3.2713   -2.6523    0.5300 H   0  0  0  0  0  0  0  0  0  0  0  0
   -2.8815   -3.2407   -1.1056 H   0  0  0  0  0  0  0  0  0  0  0  0
   -1.1758   -2.6038    0.0413 C   0  0  0  0  0  0  0  0  0  0  0  0
   -0.2584   -3.2431    0.5227 O   0  0  0  0  0  0  0  0  0  0  0  0
   -0.9713   -1.3131   -0.4063 N   0  0  0  0  0  0  0  0  0  0  0  0
   -1.7565   -0.8578   -0.8613 H   0  0  0  0  0  0  0  0  0  0  0  0
    0.3435   -0.6410   -0.4470 C   0  0  1  0  0  0  0  0  0  0  0  0
    0.9966   -1.3112   -1.0149 H   0  0  0  0  0  0  0  0  0  0  0  0
    0.1991    0.6910   -1.2548 C   0  0  1  0  0  0  0  0  0  0  0  0
   -0.8230    0.7383   -1.6450 H   0  0  0  0  0  0  0  0  0  0  0  0
    0.3855    1.9693   -0.4159 C   0  0  0  0  0  0  0  0  0  0  0  0
    1.3837    2.0173    0.0299 H   0  0  0  0  0  0  0  0  0  0  0  0
    0.2509    2.8558   -1.0431 H   0  0  0  0  0  0  0  0  0  0  0  0
   -0.3569    2.0104    0.3864 H   0  0  0  0  0  0  0  0  0  0  0  0
    1.1189    0.7230   -2.4982 C   0  0  0  0  0  0  0  0  0  0  0  0
    0.8343   -0.0964   -3.1664 H   0  0  0  0  0  0  0  0  0  0  0  0
    0.9486    1.6574   -3.0430 H   0  0  0  0  0  0  0  0  0  0  0  0
    2.6197    0.6005   -2.1966 C   0  0  0  0  0  0  0  0  0  0  0  0
    2.8573   -0.3544   -1.7203 H   0  0  0  0  0  0  0  0  0  0  0  0
    3.1887    0.6622   -3.1291 H   0  0  0  0  0  0  0  0  0  0  0  0
    2.9543    1.4087   -1.5404 H   0  0  0  0  0  0  0  0  0  0  0  0
    1.0320   -0.5090    0.9349 C   0  0  0  0  0  0  0  0  0  0  0  0
    2.2519   -0.5685    1.0182 O   0  0  0  0  0  0  0  0  0  0  0  0
    0.3081   -0.0964    2.0400 N   0  0  0  0  0  0  0  0  0  0  0  0
   -0.7014   -0.1428    1.9562 H   0  0  0  0  0  0  0  0  0  0  0  0
    0.8983    0.0422    3.3652 C   0  0  0  0  0  0  0  0  0  0  0  0
    1.7143    0.7723    3.3477 H   0  0  0  0  0  0  0  0  0  0  0  0
    0.1455    0.3854    4.0811 H   0  0  0  0  0  0  0  0  0  0  0  0
    1.2932   -0.9195    3.7094 H   0  0  0  0  0  0  0  0  0  0  0  0
  1  2  1  0  0  0  0
  2  3  1  0  0  0  0
  2  4  1  0  0  0  0
  2  5  1  0  0  0  0
  5  6  2  0  0  0  0
  5  7  1  0  0  0  0
  7  8  1  0  0  0  0
  7  9  1  0  0  0  0
  9 10  1  0  0  0  0
  9 11  1  0  0  0  0
  9 24  1  0  0  0  0
 11 12  1  0  0  0  0
 11 13  1  0  0  0  0
 11 17  1  0  0  0  0
 13 14  1  0  0  0  0
 13 15  1  0  0  0  0
 13 16  1  0  0  0  0
 17 18  1  0  0  0  0
 17 19  1  0  0  0  0
 17 20  1  0  0  0  0
 20 21  1  0  0  0  0
 20 22  1  0  0  0  0
 20 23  1  0  0  0  0
 24 25  2  0  0  0  0
 24 26  1  0  0  0  0
 26 27  1  0  0  0  0
 26 28  1  0  0  0  0
 28 29  1  0  0  0  0
 28 30  1  0  0  0  0
 28 31  1  0  0  0  0
M  END
$$$$

  -OEChem-03222214053D

 31 30  0     1  0  0  0  0  0999 V2000
   -2.5559   -4.2552    0.3149 H   0  0  0  0  0  0  0  0  0  0  0  0
   -2.5727   -3.2271   -0.0581 C   0  0  0  0  0  0  0  0  0  0  0  0
   -3.2912   -2.6516    0.5302 H   0  0  0  0  0  0  0  0  0  0  0  0
   -2.8913   -3.2383   -1.1033 H   0  0  0  0  0  0  0  0  0  0  0  0
   -1.1923   -2.6082    0.0570 C   0  0  0  0  0  0  0  0  0  0  0  0
   -0.2813   -3.2476    0.5503 O   0  0  0  0  0  0  0  0  0  0  0  0
   -0.9801   -1.3203   -0.3945 N   0  0  0  0  0  0  0  0  0  0  0  0
   -1.7604   -0.8640   -0.8570 H   0  0  0  0  0  0  0  0  0  0  0  0
    0.3367   -0.6524   -0.4285 C   0  0  1  0  0  0  0  0  0  0  0  0
    0.9807   -1.3425   -0.9775 H   0  0  0  0  0  0  0  0  0  0  0  0
    0.2015    0.6666   -1.2632 C   0  0  1  0  0  0  0  0  0  0  0  0
   -0.8229    0.7236   -1.6458 H   0  0  0  0  0  0  0  0  0  0  0  0
    0.4098    1.9456   -0.4299 C   0  0  0  0  0  0  0  0  0  0  0  0
    1.4283    1.9986   -0.0322 H   0  0  0  0  0  0  0  0  0  0  0  0
    0.2399    2.8334   -1.0467 H   0  0  0  0  0  0  0  0  0  0  0  0
   -0.2971    1.9812    0.4042 H   0  0  0  0  0  0  0  0  0  0  0  0
    1.1224    0.7229   -2.5103 C   0  0  0  0  0  0  0  0  0  0  0  0
    0.6940    0.0768   -3.2833 H   0  0  0  0  0  0  0  0  0  0  0  0
    1.1230    1.7417   -2.9114 H   0  0  0  0  0  0  0  0  0  0  0  0
    2.5775    0.2807   -2.2907 C   0  0  0  0  0  0  0  0  0  0  0  0
    2.6580   -0.7965   -2.1246 H   0  0  0  0  0  0  0  0  0  0  0  0
    3.1719    0.5228   -3.1769 H   0  0  0  0  0  0  0  0  0  0  0  0
    3.0134    0.8019   -1.4330 H   0  0  0  0  0  0  0  0  0  0  0  0
    1.0223   -0.5126    0.9537 C   0  0  0  0  0  0  0  0  0  0  0  0
    2.2420   -0.5743    1.0379 O   0  0  0  0  0  0  0  0  0  0  0  0
    0.2983   -0.0912    2.0552 N   0  0  0  0  0  0  0  0  0  0  0  0
   -0.7112   -0.1407    1.9717 H   0  0  0  0  0  0  0  0  0  0  0  0
    0.8883    0.0514    3.3800 C   0  0  0  0  0  0  0  0  0  0  0  0
    1.7076    0.7778    3.3594 H   0  0  0  0  0  0  0  0  0  0  0  0
    0.1365    0.4016    4.0936 H   0  0  0  0  0  0  0  0  0  0  0  0
    1.2789   -0.9103    3.7290 H   0  0  0  0  0  0  0  0  0  0  0  0
  1  2  1  0  0  0  0
  2  3  1  0  0  0  0
  2  4  1  0  0  0  0
  2  5  1  0  0  0  0
  5  6  2  0  0  0  0
  5  7  1  0  0  0  0
  7  8  1  0  0  0  0
  7  9  1  0  0  0  0
  9 10  1  0  0  0  0
  9 11  1  0  0  0  0
  9 24  1  0  0  0  0
 11 12  1  0  0  0  0
 11 13  1  0  0  0  0
 11 17  1  0  0  0  0
 13 14  1  0  0  0  0
 13 15  1  0  0  0  0
 13 16  1  0  0  0  0
 17 18  1  0  0  0  0
 17 19  1  0  0  0  0
 17 20  1  0  0  0  0
 20 21  1  0  0  0  0
 20 22  1  0  0  0  0
 20 23  1  0  0  0  0
 24 25  2  0  0  0  0
 24 26  1  0  0  0  0
 26 27  1  0  0  0  0
 26 28  1  0  0  0  0
 28 29  1  0  0  0  0
 28 30  1  0  0  0  0
 28 31  1  0  0  0  0
M  END
$$$$

  -OEChem-03222214053D

 31 30  0     1  0  0  0  0  0999 V2000
   -2.5780   -4.2533    0.3282 H   0  0  0  0  0  0  0  0  0  0  0  0
   -2.5877   -3.2270   -0.0504 C   0  0  0  0  0  0  0  0  0  0  0  0
   -3.3126   -2.6467    0.5253 H   0  0  0  0  0  0  0  0  0  0  0  0
   -2.8927   -3.2438   -1.0995 H   0  0  0  0  0  0  0  0  0  0  0  0
   -1.2074   -2.6104    0.0800 C   0  0  0  0  0  0  0  0  0  0  0  0
   -0.3058   -3.2477    0.5929 O   0  0  0  0  0  0  0  0  0  0  0  0
   -0.9848   -1.3272   -0.3803 N   0  0  0  0  0  0  0  0  0  0  0  0
   -1.7564   -0.8752   -0.8609 H   0  0  0  0  0  0  0  0  0  0  0  0
    0.3362   -0.6674   -0.4134 C   0  0  1  0  0  0  0  0  0  0  0  0
    0.9787   -1.3713   -0.9431 H   0  0  0  0  0  0  0  0  0  0  0  0
    0.2103    0.6477   -1.2627 C   0  0  1  0  0  0  0  0  0  0  0  0
   -0.8167    0.7089   -1.6382 H   0  0  0  0  0  0  0  0  0  0  0  0
    0.4221    1.9249   -0.4270 C   0  0  0  0  0  0  0  0  0  0  0  0
    1.4485    1.9804   -0.0492 H   0  0  0  0  0  0  0  0  0  0  0  0
    0.2344    2.8154   -1.0351 H   0  0  0  0  0  0  0  0  0  0  0  0
   -0.2706    1.9536    0.4188 H   0  0  0  0  0  0  0  0  0  0  0  0
    1.1243    0.7277   -2.5210 C   0  0  0  0  0  0  0  0  0  0  0  0
    0.5693    0.3132   -3.3688 H   0  0  0  0  0  0  0  0  0  0  0  0
    1.3239    1.7772   -2.7607 H   0  0  0  0  0  0  0  0  0  0  0  0
    2.4673   -0.0117   -2.4569 C   0  0  0  0  0  0  0  0  0  0  0  0
    2.3347   -1.0947   -2.5288 H   0  0  0  0  0  0  0  0  0  0  0  0
    3.0980    0.2980   -3.2956 H   0  0  0  0  0  0  0  0  0  0  0  0
    2.9935    0.2257   -1.5270 H   0  0  0  0  0  0  0  0  0  0  0  0
    1.0155   -0.5214    0.9716 C   0  0  0  0  0  0  0  0  0  0  0  0
    2.2346   -0.5885    1.0615 O   0  0  0  0  0  0  0  0  0  0  0  0
    0.2900   -0.0878    2.0676 N   0  0  0  0  0  0  0  0  0  0  0  0
   -0.7194   -0.1343    1.9822 H   0  0  0  0  0  0  0  0  0  0  0  0
    0.8770    0.0606    3.3931 C   0  0  0  0  0  0  0  0  0  0  0  0
    1.6964    0.7868    3.3705 H   0  0  0  0  0  0  0  0  0  0  0  0
    0.1238    0.4140    4.1035 H   0  0  0  0  0  0  0  0  0  0  0  0
    1.2667   -0.8996    3.7475 H   0  0  0  0  0  0  0  0  0  0  0  0
  1  2  1  0  0  0  0
  2  3  1  0  0  0  0
  2  4  1  0  0  0  0
  2  5  1  0  0  0  0
  5  6  2  0  0  0  0
  5  7  1  0  0  0  0
  7  8  1  0  0  0  0
  7  9  1  0  0  0  0
  9 10  1  0  0  0  0
  9 11  1  0  0  0  0
  9 24  1  0  0  0  0
 11 12  1  0  0  0  0
 11 13  1  0  0  0  0
 11 17  1  0  0  0  0
 13 14  1  0  0  0  0
 13 15  1  0  0  0  0
 13 16  1  0  0  0  0
 17 18  1  0  0  0  0
 17 19  1  0  0  0  0
 17 20  1  0  0  0  0
 20 21  1  0  0  0  0
 20 22  1  0  0  0  0
 20 23  1  0  0  0  0
 24 25  2  0  0  0  0
 24 26  1  0  0  0  0
 26 27  1  0  0  0  0
 26 28  1  0  0  0  0
 28 29  1  0  0  0  0
 28 30  1  0  0  0  0
 28 31  1  0  0  0  0
M  END
$$$$

  -OEChem-03222214053D

 31 30  0     1  0  0  0  0  0999 V2000
   -2.5989   -4.2488    0.3546 H   0  0  0  0  0  0  0  0  0  0  0  0
   -2.6034   -3.2254   -0.0320 C   0  0  0  0  0  0  0  0  0  0  0  0
   -3.3237   -2.6365    0.5407 H   0  0  0  0  0  0  0  0  0  0  0  0
   -2.9105   -3.2481   -1.0802 H   0  0  0  0  0  0  0  0  0  0  0  0
   -1.2194   -2.6161    0.0910 C   0  0  0  0  0  0  0  0  0  0  0  0
   -0.3203   -3.2564    0.6046 O   0  0  0  0  0  0  0  0  0  0  0  0
   -0.9902   -1.3360   -0.3751 N   0  0  0  0  0  0  0  0  0  0  0  0
   -1.7592   -0.8811   -0.8573 H   0  0  0  0  0  0  0  0  0  0  0  0
    0.3348   -0.6840   -0.4086 C   0  0  1  0  0  0  0  0  0  0  0  0
    0.9750   -1.3985   -0.9252 H   0  0  0  0  0  0  0  0  0  0  0  0
    0.2253    0.6353   -1.2577 C   0  0  1  0  0  0  0  0  0  0  0  0
   -0.8002    0.6888   -1.6380 H   0  0  0  0  0  0  0  0  0  0  0  0
    0.4113    1.9130   -0.4166 C   0  0  0  0  0  0  0  0  0  0  0  0
    1.4311    1.9772   -0.0224 H   0  0  0  0  0  0  0  0  0  0  0  0
    0.2247    2.8018   -1.0275 H   0  0  0  0  0  0  0  0  0  0  0  0
   -0.2950    1.9339    0.4183 H   0  0  0  0  0  0  0  0  0  0  0  0
    1.1345    0.7360   -2.5234 C   0  0  0  0  0  0  0  0  0  0  0  0
    0.4990    0.6100   -3.4060 H   0  0  0  0  0  0  0  0  0  0  0  0
    1.5596    1.7432   -2.5872 H   0  0  0  0  0  0  0  0  0  0  0  0
    2.2949   -0.2569   -2.6555 C   0  0  0  0  0  0  0  0  0  0  0  0
    1.9267   -1.2705   -2.8397 H   0  0  0  0  0  0  0  0  0  0  0  0
    2.9287    0.0255   -3.5016 H   0  0  0  0  0  0  0  0  0  0  0  0
    2.9109   -0.2535   -1.7503 H   0  0  0  0  0  0  0  0  0  0  0  0
    1.0122   -0.5358    0.9767 C   0  0  0  0  0  0  0  0  0  0  0  0
    2.2315   -0.5999    1.0654 O   0  0  0  0  0  0  0  0  0  0  0  0
    0.2871   -0.0932    2.0694 N   0  0  0  0  0  0  0  0  0  0  0  0
   -0.7224   -0.1386    1.9835 H   0  0  0  0  0  0  0  0  0  0  0  0
    0.8737    0.0679    3.3935 C   0  0  0  0  0  0  0  0  0  0  0  0
    1.6975    0.7888    3.3635 H   0  0  0  0  0  0  0  0  0  0  0  0
    0.1217    0.4346    4.0984 H   0  0  0  0  0  0  0  0  0  0  0  0
    1.2574   -0.8901    3.7602 H   0  0  0  0  0  0  0  0  0  0  0  0
  1  2  1  0  0  0  0
  2  3  1  0  0  0  0
  2  4  1  0  0  0  0
  2  5  1  0  0  0  0
  5  6  2  0  0  0  0
  5  7  1  0  0  0  0
  7  8  1  0  0  0  0
  7  9  1  0  0  0  0
  9 10  1  0  0  0  0
  9 11  1  0  0  0  0
  9 24  1  0  0  0  0
 11 12  1  0  0  0  0
 11 13  1  0  0  0  0
 11 17  1  0  0  0  0
 13 14  1  0  0  0  0
 13 15  1  0  0  0  0
 13 16  1  0  0  0  0
 17 18  1  0  0  0  0
 17 19  1  0  0  0  0
 17 20  1  0  0  0  0
 20 21  1  0  0  0  0
 20 22  1  0  0  0  0
 20 23  1  0  0  0  0
 24 25  2  0  0  0  0
 24 26  1  0  0  0  0
 26 27  1  0  0  0  0
 26 28  1  0  0  0  0
 28 29  1  0  0  0  0
 28 30  1  0  0  0  0
 28 31  1  0  0  0  0
M  END
$$$$

  -OEChem-03222214053D

 31 30  0     1  0  0  0  0  0999 V2000
   -2.6199   -4.2448    0.3636 H   0  0  0  0  0  0  0  0  0  0  0  0
   -2.6179   -3.2233   -0.0274 C   0  0  0  0  0  0  0  0  0  0  0  0
   -3.3385   -2.6287    0.5388 H   0  0  0  0  0  0  0  0  0  0  0  0
   -2.9199   -3.2493   -1.0770 H   0  0  0  0  0  0  0  0  0  0  0  0
   -1.2320   -2.6193    0.0996 C   0  0  0  0  0  0  0  0  0  0  0  0
   -0.3382   -3.2603    0.6214 O   0  0  0  0  0  0  0  0  0  0  0  0
   -0.9956   -1.3422   -0.3708 N   0  0  0  0  0  0  0  0  0  0  0  0
   -1.7607   -0.8874   -0.8592 H   0  0  0  0  0  0  0  0  0  0  0  0
    0.3331   -0.6969   -0.4056 C   0  0  1  0  0  0  0  0  0  0  0  0
    0.9730   -1.4161   -0.9156 H   0  0  0  0  0  0  0  0  0  0  0  0
    0.2360    0.6266   -1.2505 C   0  0  1  0  0  0  0  0  0  0  0  0
   -0.7867    0.6643   -1.6403 H   0  0  0  0  0  0  0  0  0  0  0  0
    0.3925    1.9089   -0.4117 C   0  0  0  0  0  0  0  0  0  0  0  0
    1.4007    1.9815    0.0101 H   0  0  0  0  0  0  0  0  0  0  0  0
    0.2187    2.7923   -1.0342 H   0  0  0  0  0  0  0  0  0  0  0  0
   -0.3361    1.9292    0.4039 H   0  0  0  0  0  0  0  0  0  0  0  0
    1.1401    0.7401   -2.5196 C   0  0  0  0  0  0  0  0  0  0  0  0
    0.4917    0.9199   -3.3835 H   0  0  0  0  0  0  0  0  0  0  0  0
    1.7847    1.6204   -2.4222 H   0  0  0  0  0  0  0  0  0  0  0  0
    2.0594   -0.4360   -2.8632 C   0  0  0  0  0  0  0  0  0  0  0  0
    1.4758   -1.3388   -3.0676 H   0  0  0  0  0  0  0  0  0  0  0  0
    2.6435   -0.2008   -3.7581 H   0  0  0  0  0  0  0  0  0  0  0  0
    2.7588   -0.6329   -2.0440 H   0  0  0  0  0  0  0  0  0  0  0  0
    1.0130   -0.5458    0.9775 C   0  0  0  0  0  0  0  0  0  0  0  0
    2.2327   -0.6087    1.0616 O   0  0  0  0  0  0  0  0  0  0  0  0
    0.2923   -0.0948    2.0696 N   0  0  0  0  0  0  0  0  0  0  0  0
   -0.7175   -0.1403    1.9875 H   0  0  0  0  0  0  0  0  0  0  0  0
    0.8832    0.0735    3.3910 C   0  0  0  0  0  0  0  0  0  0  0  0
    1.7078    0.7933    3.3541 H   0  0  0  0  0  0  0  0  0  0  0  0
    0.1336    0.4450    4.0960 H   0  0  0  0  0  0  0  0  0  0  0  0
    1.2667   -0.8827    3.7621 H   0  0  0  0  0  0  0  0  0  0  0  0
  1  2  1  0  0  0  0
  2  3  1  0  0  0  0
  2  4  1  0  0  0  0
  2  5  1  0  0  0  0
  5  6  2  0  0  0  0
  5  7  1  0  0  0  0
  7  8  1  0  0  0  0
  7  9  1  0  0  0  0
  9 10  1  0  0  0  0
  9 11  1  0  0  0  0
  9 24  1  0  0  0  0
 11 12  1  0  0  0  0
 11 13  1  0  0  0  0
 11 17  1  0  0  0  0
 13 14  1  0  0  0  0
 13 15  1  0  0  0  0
 13 16  1  0  0  0  0
 17 18  1  0  0  0  0
 17 19  1  0  0  0  0
 17 20  1  0  0  0  0
 20 21  1  0  0  0  0
 20 22  1  0  0  0  0
 20 23  1  0  0  0  0
 24 25  2  0  0  0  0
 24 26  1  0  0  0  0
 26 27  1  0  0  0  0
 26 28  1  0  0  0  0
 28 29  1  0  0  0  0
 28 30  1  0  0  0  0
 28 31  1  0  0  0  0
M  END
$$$$

  -OEChem-03222214053D

 31 30  0     1  0  0  0  0  0999 V2000
   -2.6253   -4.2417    0.3696 H   0  0  0  0  0  0  0  0  0  0  0  0
   -2.6207   -3.2213   -0.0244 C   0  0  0  0  0  0  0  0  0  0  0  0
   -3.3404   -2.6234    0.5398 H   0  0  0  0  0  0  0  0  0  0  0  0
   -2.9225   -3.2500   -1.0740 H   0  0  0  0  0  0  0  0  0  0  0  0
   -1.2332   -2.6200    0.1011 C   0  0  0  0  0  0  0  0  0  0  0  0
   -0.3398   -3.2625    0.6220 O   0  0  0  0  0  0  0  0  0  0  0  0
   -0.9951   -1.3442   -0.3719 N   0  0  0  0  0  0  0  0  0  0  0  0
   -1.7598   -0.8906   -0.8620 H   0  0  0  0  0  0  0  0  0  0  0  0
    0.3342   -0.7004   -0.4100 C   0  0  1  0  0  0  0  0  0  0  0  0
    0.9797   -1.4141   -0.9209 H   0  0  0  0  0  0  0  0  0  0  0  0
    0.2370    0.6279   -1.2461 C   0  0  1  0  0  0  0  0  0  0  0  0
   -0.7854    0.6596   -1.6369 H   0  0  0  0  0  0  0  0  0  0  0  0
    0.3938    1.9129   -0.4125 C   0  0  0  0  0  0  0  0  0  0  0  0
    1.3975    1.9806    0.0201 H   0  0  0  0  0  0  0  0  0  0  0  0
    0.2342    2.7941   -1.0420 H   0  0  0  0  0  0  0  0  0  0  0  0
   -0.3431    1.9419    0.3954 H   0  0  0  0  0  0  0  0  0  0  0  0
    1.1350    0.7420   -2.5152 C   0  0  0  0  0  0  0  0  0  0  0  0
    0.5393    1.1983   -3.3128 H   0  0  0  0  0  0  0  0  0  0  0  0
    1.9612    1.4291   -2.3025 H   0  0  0  0  0  0  0  0  0  0  0  0
    1.7705   -0.5393   -3.0647 C   0  0  0  0  0  0  0  0  0  0  0  0
    1.0085   -1.3043   -3.2441 H   0  0  0  0  0  0  0  0  0  0  0  0
    2.2720   -0.3264   -4.0137 H   0  0  0  0  0  0  0  0  0  0  0  0
    2.5209   -0.9304   -2.3702 H   0  0  0  0  0  0  0  0  0  0  0  0
    1.0127   -0.5489    0.9737 C   0  0  0  0  0  0  0  0  0  0  0  0
    2.2323   -0.6149    1.0594 O   0  0  0  0  0  0  0  0  0  0  0  0
    0.2915   -0.0959    2.0646 N   0  0  0  0  0  0  0  0  0  0  0  0
   -0.7183   -0.1381    1.9813 H   0  0  0  0  0  0  0  0  0  0  0  0
    0.8818    0.0744    3.3859 C   0  0  0  0  0  0  0  0  0  0  0  0
    1.7060    0.7945    3.3479 H   0  0  0  0  0  0  0  0  0  0  0  0
    0.1321    0.4467    4.0903 H   0  0  0  0  0  0  0  0  0  0  0  0
    1.2655   -0.8812    3.7587 H   0  0  0  0  0  0  0  0  0  0  0  0
  1  2  1  0  0  0  0
  2  3  1  0  0  0  0
  2  4  1  0  0  0  0
  2  5  1  0  0  0  0
  5  6  2  0  0  0  0
  5  7  1  0  0  0  0
  7  8  1  0  0  0  0
  7  9  1  0  0  0  0
  9 10  1  0  0  0  0
  9 11  1  0  0  0  0
  9 24  1  0  0  0  0
 11 12  1  0  0  0  0
 11 13  1  0  0  0  0
 11 17  1  0  0  0  0
 13 14  1  0  0  0  0
 13 15  1  0  0  0  0
 13 16  1  0  0  0  0
 17 18  1  0  0  0  0
 17 19  1  0  0  0  0
 17 20  1  0  0  0  0
 20 21  1  0  0  0  0
 20 22  1  0  0  0  0
 20 23  1  0  0  0  0
 24 25  2  0  0  0  0
 24 26  1  0  0  0  0
 26 27  1  0  0  0  0
 26 28  1  0  0  0  0
 28 29  1  0  0  0  0
 28 30  1  0  0  0  0
 28 31  1  0  0  0  0
M  END
$$$$

  -OEChem-03222214053D

 31 30  0     1  0  0  0  0  0999 V2000
   -2.6113   -4.2447    0.3562 H   0  0  0  0  0  0  0  0  0  0  0  0
   -2.6117   -3.2236   -0.0358 C   0  0  0  0  0  0  0  0  0  0  0  0
   -3.3355   -2.6310    0.5287 H   0  0  0  0  0  0  0  0  0  0  0  0
   -2.9123   -3.2517   -1.0859 H   0  0  0  0  0  0  0  0  0  0  0  0
   -1.2277   -2.6154    0.0925 C   0  0  0  0  0  0  0  0  0  0  0  0
   -0.3308   -3.2564    0.6089 O   0  0  0  0  0  0  0  0  0  0  0  0
   -0.9953   -1.3376   -0.3777 N   0  0  0  0  0  0  0  0  0  0  0  0
   -1.7615   -0.8867   -0.8680 H   0  0  0  0  0  0  0  0  0  0  0  0
    0.3320   -0.6897   -0.4183 C   0  0  1  0  0  0  0  0  0  0  0  0
    0.9861   -1.3910   -0.9365 H   0  0  0  0  0  0  0  0  0  0  0  0
    0.2260    0.6418   -1.2441 C   0  0  1  0  0  0  0  0  0  0  0  0
   -0.7986    0.6820   -1.6287 H   0  0  0  0  0  0  0  0  0  0  0  0
    0.4108    1.9250   -0.4148 C   0  0  0  0  0  0  0  0  0  0  0  0
    1.4197    1.9793    0.0071 H   0  0  0  0  0  0  0  0  0  0  0  0
    0.2581    2.8072   -1.0444 H   0  0  0  0  0  0  0  0  0  0  0  0
   -0.3169    1.9661    0.4009 H   0  0  0  0  0  0  0  0  0  0  0  0
    1.1227    0.7415   -2.5090 C   0  0  0  0  0  0  0  0  0  0  0  0
    0.6356    1.4196   -3.2174 H   0  0  0  0  0  0  0  0  0  0  0  0
    2.0793    1.1970   -2.2303 H   0  0  0  0  0  0  0  0  0  0  0  0
    1.4473   -0.5673   -3.2382 C   0  0  0  0  0  0  0  0  0  0  0  0
    0.5400   -1.1605   -3.3878 H   0  0  0  0  0  0  0  0  0  0  0  0
    1.8801   -0.3456   -4.2185 H   0  0  0  0  0  0  0  0  0  0  0  0
    2.1789   -1.1598   -2.6807 H   0  0  0  0  0  0  0  0  0  0  0  0
    1.0117   -0.5417    0.9655 C   0  0  0  0  0  0  0  0  0  0  0  0
    2.2315   -0.6045    1.0499 O   0  0  0  0  0  0  0  0  0  0  0  0
    0.2905   -0.0947    2.0590 N   0  0  0  0  0  0  0  0  0  0  0  0
   -0.7192   -0.1395    1.9770 H   0  0  0  0  0  0  0  0  0  0  0  0
    0.8819    0.0720    3.3802 C   0  0  0  0  0  0  0  0  0  0  0  0
    1.7011    0.7980    3.3451 H   0  0  0  0  0  0  0  0  0  0  0  0
    0.1309    0.4348    4.0882 H   0  0  0  0  0  0  0  0  0  0  0  0
    1.2729   -0.8833    3.7463 H   0  0  0  0  0  0  0  0  0  0  0  0
  1  2  1  0  0  0  0
  2  3  1  0  0  0  0
  2  4  1  0  0  0  0
  2  5  1  0  0  0  0
  5  6  2  0  0  0  0
  5  7  1  0  0  0  0
  7  8  1  0  0  0  0
  7  9  1  0  0  0  0
  9 10  1  0  0  0  0
  9 11  1  0  0  0  0
  9 24  1  0  0  0  0
 11 12  1  0  0  0  0
 11 13  1  0  0  0  0
 11 17  1  0  0  0  0
 13 14  1  0  0  0  0
 13 15  1  0  0  0  0
 13 16  1  0  0  0  0
 17 18  1  0  0  0  0
 17 19  1  0  0  0  0
 17 20  1  0  0  0  0
 20 21  1  0  0  0  0
 20 22  1  0  0  0  0
 20 23  1  0  0  0  0
 24 25  2  0  0  0  0
 24 26  1  0  0  0  0
 26 27  1  0  0  0  0
 26 28  1  0  0  0  0
 28 29  1  0  0  0  0
 28 30  1  0  0  0  0
 28 31  1  0  0  0  0
M  END
$$$$

  -OEChem-03222214053D

 31 30  0     1  0  0  0  0  0999 V2000
   -2.5824   -4.2471    0.3438 H   0  0  0  0  0  0  0  0  0  0  0  0
   -2.5924   -3.2232   -0.0409 C   0  0  0  0  0  0  0  0  0  0  0  0
   -3.3089   -2.6368    0.5393 H   0  0  0  0  0  0  0  0  0  0  0  0
   -2.9095   -3.2448   -1.0863 H   0  0  0  0  0  0  0  0  0  0  0  0
   -1.2082   -2.6111    0.0700 C   0  0  0  0  0  0  0  0  0  0  0  0
   -0.3014   -3.2516    0.5697 O   0  0  0  0  0  0  0  0  0  0  0  0
   -0.9887   -1.3281   -0.3920 N   0  0  0  0  0  0  0  0  0  0  0  0
   -1.7646   -0.8752   -0.8648 H   0  0  0  0  0  0  0  0  0  0  0  0
    0.3322   -0.6677   -0.4333 C   0  0  1  0  0  0  0  0  0  0  0  0
    0.9989   -1.3492   -0.9636 H   0  0  0  0  0  0  0  0  0  0  0  0
    0.2095    0.6664   -1.2478 C   0  0  1  0  0  0  0  0  0  0  0  0
   -0.8178    0.7208   -1.6234 H   0  0  0  0  0  0  0  0  0  0  0  0
    0.4271    1.9448   -0.4193 C   0  0  0  0  0  0  0  0  0  0  0  0
    1.4458    1.9869   -0.0201 H   0  0  0  0  0  0  0  0  0  0  0  0
    0.2702    2.8311   -1.0420 H   0  0  0  0  0  0  0  0  0  0  0  0
   -0.2818    1.9913    0.4124 H   0  0  0  0  0  0  0  0  0  0  0  0
    1.1128    0.7417   -2.5041 C   0  0  0  0  0  0  0  0  0  0  0  0
    0.7812    1.5876   -3.1155 H   0  0  0  0  0  0  0  0  0  0  0  0
    2.1433    0.9459   -2.1935 H   0  0  0  0  0  0  0  0  0  0  0  0
    1.1260   -0.5127   -3.3877 C   0  0  0  0  0  0  0  0  0  0  0  0
    0.1070   -0.8732   -3.5572 H   0  0  0  0  0  0  0  0  0  0  0  0
    1.5737   -0.2737   -4.3572 H   0  0  0  0  0  0  0  0  0  0  0  0
    1.7195   -1.3151   -2.9413 H   0  0  0  0  0  0  0  0  0  0  0  0
    1.0106   -0.5261    0.9522 C   0  0  0  0  0  0  0  0  0  0  0  0
    2.2306   -0.5822    1.0378 O   0  0  0  0  0  0  0  0  0  0  0  0
    0.2851   -0.0952    2.0495 N   0  0  0  0  0  0  0  0  0  0  0  0
   -0.7242   -0.1446    1.9645 H   0  0  0  0  0  0  0  0  0  0  0  0
    0.8726    0.0554    3.3748 C   0  0  0  0  0  0  0  0  0  0  0  0
    1.6932    0.7802    3.3513 H   0  0  0  0  0  0  0  0  0  0  0  0
    0.1197    0.4116    4.0842 H   0  0  0  0  0  0  0  0  0  0  0  0
    1.2605   -0.9046    3.7316 H   0  0  0  0  0  0  0  0  0  0  0  0
  1  2  1  0  0  0  0
  2  3  1  0  0  0  0
  2  4  1  0  0  0  0
  2  5  1  0  0  0  0
  5  6  2  0  0  0  0
  5  7  1  0  0  0  0
  7  8  1  0  0  0  0
  7  9  1  0  0  0  0
  9 10  1  0  0  0  0
  9 11  1  0  0  0  0
  9 24  1  0  0  0  0
 11 12  1  0  0  0  0
 11 13  1  0  0  0  0
 11 17  1  0  0  0  0
 13 14  1  0  0  0  0
 13 15  1  0  0  0  0
 13 16  1  0  0  0  0
 17 18  1  0  0  0  0
 17 19  1  0  0  0  0
 17 20  1  0  0  0  0
 20 21  1  0  0  0  0
 20 22  1  0  0  0  0
 20 23  1  0  0  0  0
 24 25  2  0  0  0  0
 24 26  1  0  0  0  0
 26 27  1  0  0  0  0
 26 28  1  0  0  0  0
 28 29  1  0  0  0  0
 28 30  1  0  0  0  0
 28 31  1  0  0  0  0
M  END
$$$$

  -OEChem-03222214053D

 31 30  0     1  0  0  0  0  0999 V2000
   -2.5463   -4.2572    0.3020 H   0  0  0  0  0  0  0  0  0  0  0  0
   -2.5674   -3.2298   -0.0727 C   0  0  0  0  0  0  0  0  0  0  0  0
   -3.2921   -2.6576    0.5114 H   0  0  0  0  0  0  0  0  0  0  0  0
   -2.8816   -3.2450   -1.1191 H   0  0  0  0  0  0  0  0  0  0  0  0
   -1.1910   -2.6026    0.0478 C   0  0  0  0  0  0  0  0  0  0  0  0
   -0.2783   -3.2373    0.5440 O   0  0  0  0  0  0  0  0  0  0  0  0
   -0.9848   -1.3132   -0.4026 N   0  0  0  0  0  0  0  0  0  0  0  0
   -1.7632   -0.8668   -0.8773 H   0  0  0  0  0  0  0  0  0  0  0  0
    0.3299   -0.6416   -0.4433 C   0  0  1  0  0  0  0  0  0  0  0  0
    1.0061   -1.3050   -0.9886 H   0  0  0  0  0  0  0  0  0  0  0  0
    0.1875    0.6959   -1.2458 C   0  0  1  0  0  0  0  0  0  0  0  0
   -0.8432    0.7689   -1.6090 H   0  0  0  0  0  0  0  0  0  0  0  0
    0.4426    1.9669   -0.4158 C   0  0  0  0  0  0  0  0  0  0  0  0
    1.4728    1.9947   -0.0456 H   0  0  0  0  0  0  0  0  0  0  0  0
    0.2781    2.8590   -1.0279 H   0  0  0  0  0  0  0  0  0  0  0  0
   -0.2421    2.0168    0.4357 H   0  0  0  0  0  0  0  0  0  0  0  0
    1.1004    0.7376   -2.4919 C   0  0  0  0  0  0  0  0  0  0  0  0
    0.9659    1.6983   -2.9998 H   0  0  0  0  0  0  0  0  0  0  0  0
    2.1478    0.6749   -2.1771 H   0  0  0  0  0  0  0  0  0  0  0  0
    0.8172   -0.3797   -3.5053 C   0  0  0  0  0  0  0  0  0  0  0  0
   -0.2428   -0.3876   -3.7769 H   0  0  0  0  0  0  0  0  0  0  0  0
    1.4046   -0.2108   -4.4128 H   0  0  0  0  0  0  0  0  0  0  0  0
    1.0859   -1.3637   -3.1134 H   0  0  0  0  0  0  0  0  0  0  0  0
    1.0112   -0.5090    0.9415 C   0  0  0  0  0  0  0  0  0  0  0  0
    2.2319   -0.5565    1.0227 O   0  0  0  0  0  0  0  0  0  0  0  0
    0.2853   -0.0956    2.0449 N   0  0  0  0  0  0  0  0  0  0  0  0
   -0.7240   -0.1503    1.9620 H   0  0  0  0  0  0  0  0  0  0  0  0
    0.8757    0.0489    3.3693 C   0  0  0  0  0  0  0  0  0  0  0  0
    1.6857    0.7857    3.3496 H   0  0  0  0  0  0  0  0  0  0  0  0
    0.1210    0.3865    4.0857 H   0  0  0  0  0  0  0  0  0  0  0  0
    1.2791   -0.9092    3.7139 H   0  0  0  0  0  0  0  0  0  0  0  0
  1  2  1  0  0  0  0
  2  3  1  0  0  0  0
  2  4  1  0  0  0  0
  2  5  1  0  0  0  0
  5  6  2  0  0  0  0
  5  7  1  0  0  0  0
  7  8  1  0  0  0  0
  7  9  1  0  0  0  0
  9 10  1  0  0  0  0
  9 11  1  0  0  0  0
  9 24  1  0  0  0  0
 11 12  1  0  0  0  0
 11 13  1  0  0  0  0
 11 17  1  0  0  0  0
 13 14  1  0  0  0  0
 13 15  1  0  0  0  0
 13 16  1  0  0  0  0
 17 18  1  0  0  0  0
 17 19  1  0  0  0  0
 17 20  1  0  0  0  0
 20 21  1  0  0  0  0
 20 22  1  0  0  0  0
 20 23  1  0  0  0  0
 24 25  2  0  0  0  0
 24 26  1  0  0  0  0
 26 27  1  0  0  0  0
 26 28  1  0  0  0  0
 28 29  1  0  0  0  0
 28 30  1  0  0  0  0
 28 31  1  0  0  0  0
M  END
$$$$

  -OEChem-03222214053D

 31 30  0     1  0  0  0  0  0999 V2000
   -2.5237   -4.2629    0.2500 H   0  0  0  0  0  0  0  0  0  0  0  0
   -2.5539   -3.2309   -0.1113 C   0  0  0  0  0  0  0  0  0  0  0  0
   -3.2874   -2.6738    0.4764 H   0  0  0  0  0  0  0  0  0  0  0  0
   -2.8624   -3.2361   -1.1594 H   0  0  0  0  0  0  0  0  0  0  0  0
   -1.1849   -2.5909    0.0241 C   0  0  0  0  0  0  0  0  0  0  0  0
   -0.2672   -3.2235    0.5136 O   0  0  0  0  0  0  0  0  0  0  0  0
   -0.9892   -1.2942   -0.4099 N   0  0  0  0  0  0  0  0  0  0  0  0
   -1.7707   -0.8491   -0.8810 H   0  0  0  0  0  0  0  0  0  0  0  0
    0.3209   -0.6138   -0.4452 C   0  0  1  0  0  0  0  0  0  0  0  0
    0.9906   -1.2708   -1.0104 H   0  0  0  0  0  0  0  0  0  0  0  0
    0.1672    0.7222   -1.2449 C   0  0  1  0  0  0  0  0  0  0  0  0
   -0.8634    0.8070   -1.6059 H   0  0  0  0  0  0  0  0  0  0  0  0
    0.4390    1.9893   -0.4141 C   0  0  0  0  0  0  0  0  0  0  0  0
    1.4752    2.0129   -0.0605 H   0  0  0  0  0  0  0  0  0  0  0  0
    0.2665    2.8842   -1.0199 H   0  0  0  0  0  0  0  0  0  0  0  0
   -0.2320    2.0377    0.4485 H   0  0  0  0  0  0  0  0  0  0  0  0
    1.0989    0.7280   -2.4754 C   0  0  0  0  0  0  0  0  0  0  0  0
    1.1780    1.7455   -2.8722 H   0  0  0  0  0  0  0  0  0  0  0  0
    2.1069    0.4131   -2.1831 H   0  0  0  0  0  0  0  0  0  0  0  0
    0.5736   -0.1730   -3.5973 C   0  0  0  0  0  0  0  0  0  0  0  0
   -0.4178    0.1574   -3.9220 H   0  0  0  0  0  0  0  0  0  0  0  0
    1.2504   -0.1308   -4.4560 H   0  0  0  0  0  0  0  0  0  0  0  0
    0.5048   -1.2133   -3.2662 H   0  0  0  0  0  0  0  0  0  0  0  0
    1.0132   -0.4905    0.9350 C   0  0  0  0  0  0  0  0  0  0  0  0
    2.2348   -0.5326    1.0049 O   0  0  0  0  0  0  0  0  0  0  0  0
    0.2937   -0.0937    2.0486 N   0  0  0  0  0  0  0  0  0  0  0  0
   -0.7158   -0.1530    1.9729 H   0  0  0  0  0  0  0  0  0  0  0  0
    0.8936    0.0404    3.3700 C   0  0  0  0  0  0  0  0  0  0  0  0
    1.6958    0.7856    3.3534 H   0  0  0  0  0  0  0  0  0  0  0  0
    0.1413    0.3612    4.0966 H   0  0  0  0  0  0  0  0  0  0  0  0
    1.3094   -0.9177    3.6996 H   0  0  0  0  0  0  0  0  0  0  0  0
  1  2  1  0  0  0  0
  2  3  1  0  0  0  0
  2  4  1  0  0  0  0
  2  5  1  0  0  0  0
  5  6  2  0  0  0  0
  5  7  1  0  0  0  0
  7  8  1  0  0  0  0
  7  9  1  0  0  0  0
  9 10  1  0  0  0  0
  9 11  1  0  0  0  0
  9 24  1  0  0  0  0
 11 12  1  0  0  0  0
 11 13  1  0  0  0  0
 11 17  1  0  0  0  0
 13 14  1  0  0  0  0
 13 15  1  0  0  0  0
 13 16  1  0  0  0  0
 17 18  1  0  0  0  0
 17 19  1  0  0  0  0
 17 20  1  0  0  0  0
 20 21  1  0  0  0  0
 20 22  1  0  0  0  0
 20 23  1  0  0  0  0
 24 25  2  0  0  0  0
 24 26  1  0  0  0  0
 26 27  1  0  0  0  0
 26 28  1  0  0  0  0
 28 29  1  0  0  0  0
 28 30  1  0  0  0  0
 28 31  1  0  0  0  0
M  END
$$$$

  -OEChem-03222214053D

 31 30  0     1  0  0  0  0  0999 V2000
   -2.5247   -4.2584    0.2523 H   0  0  0  0  0  0  0  0  0  0  0  0
   -2.5549   -3.2262   -0.1084 C   0  0  0  0  0  0  0  0  0  0  0  0
   -3.2834   -2.6678    0.4841 H   0  0  0  0  0  0  0  0  0  0  0  0
   -2.8702   -3.2299   -1.1545 H   0  0  0  0  0  0  0  0  0  0  0  0
   -1.1836   -2.5893    0.0188 C   0  0  0  0  0  0  0  0  0  0  0  0
   -0.2641   -3.2243    0.5019 O   0  0  0  0  0  0  0  0  0  0  0  0
   -0.9890   -1.2910   -0.4107 N   0  0  0  0  0  0  0  0  0  0  0  0
   -1.7733   -0.8411   -0.8725 H   0  0  0  0  0  0  0  0  0  0  0  0
    0.3202   -0.6089   -0.4430 C   0  0  1  0  0  0  0  0  0  0  0  0
    0.9832   -1.2704   -1.0118 H   0  0  0  0  0  0  0  0  0  0  0  0
    0.1655    0.7256   -1.2459 C   0  0  1  0  0  0  0  0  0  0  0  0
   -0.8664    0.8125   -1.6032 H   0  0  0  0  0  0  0  0  0  0  0  0
    0.4324    1.9906   -0.4097 C   0  0  0  0  0  0  0  0  0  0  0  0
    1.4690    2.0176   -0.0574 H   0  0  0  0  0  0  0  0  0  0  0  0
    0.2542    2.8872   -1.0116 H   0  0  0  0  0  0  0  0  0  0  0  0
   -0.2378    2.0320    0.4537 H   0  0  0  0  0  0  0  0  0  0  0  0
    1.1050    0.7272   -2.4748 C   0  0  0  0  0  0  0  0  0  0  0  0
    1.3887    1.7549   -2.7249 H   0  0  0  0  0  0  0  0  0  0  0  0
    2.0334    0.1881   -2.2569 H   0  0  0  0  0  0  0  0  0  0  0  0
    0.4166    0.1302   -3.7035 C   0  0  0  0  0  0  0  0  0  0  0  0
   -0.4718    0.7115   -3.9694 H   0  0  0  0  0  0  0  0  0  0  0  0
    1.1023    0.1368   -4.5564 H   0  0  0  0  0  0  0  0  0  0  0  0
    0.1161   -0.9040   -3.5087 H   0  0  0  0  0  0  0  0  0  0  0  0
    1.0140   -0.4879    0.9364 C   0  0  0  0  0  0  0  0  0  0  0  0
    2.2357   -0.5293    1.0054 O   0  0  0  0  0  0  0  0  0  0  0  0
    0.2945   -0.0948    2.0514 N   0  0  0  0  0  0  0  0  0  0  0  0
   -0.7151   -0.1554    1.9761 H   0  0  0  0  0  0  0  0  0  0  0  0
    0.8948    0.0363    3.3729 C   0  0  0  0  0  0  0  0  0  0  0  0
    1.7010    0.7773    3.3564 H   0  0  0  0  0  0  0  0  0  0  0  0
    0.1439    0.3613    4.0991 H   0  0  0  0  0  0  0  0  0  0  0  0
    1.3053   -0.9239    3.7029 H   0  0  0  0  0  0  0  0  0  0  0  0
  1  2  1  0  0  0  0
  2  3  1  0  0  0  0
  2  4  1  0  0  0  0
  2  5  1  0  0  0  0
  5  6  2  0  0  0  0
  5  7  1  0  0  0  0
  7  8  1  0  0  0  0
  7  9  1  0  0  0  0
  9 10  1  0  0  0  0
  9 11  1  0  0  0  0
  9 24  1  0  0  0  0
 11 12  1  0  0  0  0
 11 13  1  0  0  0  0
 11 17  1  0  0  0  0
 13 14  1  0  0  0  0
 13 15  1  0  0  0  0
 13 16  1  0  0  0  0
 17 18  1  0  0  0  0
 17 19  1  0  0  0  0
 17 20  1  0  0  0  0
 20 21  1  0  0  0  0
 20 22  1  0  0  0  0
 20 23  1  0  0  0  0
 24 25  2  0  0  0  0
 24 26  1  0  0  0  0
 26 27  1  0  0  0  0
 26 28  1  0  0  0  0
 28 29  1  0  0  0  0
 28 30  1  0  0  0  0
 28 31  1  0  0  0  0
M  END
$$$$

  -OEChem-03222214053D

 31 30  0     1  0  0  0  0  0999 V2000
   -2.5338   -4.2563    0.2706 H   0  0  0  0  0  0  0  0  0  0  0  0
   -2.5597   -3.2257   -0.0947 C   0  0  0  0  0  0  0  0  0  0  0  0
   -3.2869   -2.6621    0.4946 H   0  0  0  0  0  0  0  0  0  0  0  0
   -2.8741   -3.2329   -1.1410 H   0  0  0  0  0  0  0  0  0  0  0  0
   -1.1862   -2.5936    0.0307 C   0  0  0  0  0  0  0  0  0  0  0  0
   -0.2700   -3.2291    0.5196 O   0  0  0  0  0  0  0  0  0  0  0  0
   -0.9868   -1.2980   -0.4049 N   0  0  0  0  0  0  0  0  0  0  0  0
   -1.7690   -0.8481   -0.8704 H   0  0  0  0  0  0  0  0  0  0  0  0
    0.3249   -0.6206   -0.4387 C   0  0  1  0  0  0  0  0  0  0  0  0
    0.9831   -1.2915   -1.0003 H   0  0  0  0  0  0  0  0  0  0  0  0
    0.1771    0.7143   -1.2443 C   0  0  1  0  0  0  0  0  0  0  0  0
   -0.8566    0.7918   -1.5985 H   0  0  0  0  0  0  0  0  0  0  0  0
    0.4232    1.9822   -0.4057 C   0  0  0  0  0  0  0  0  0  0  0  0
    1.4545    2.0176   -0.0389 H   0  0  0  0  0  0  0  0  0  0  0  0
    0.2461    2.8762   -1.0119 H   0  0  0  0  0  0  0  0  0  0  0  0
   -0.2591    2.0196    0.4484 H   0  0  0  0  0  0  0  0  0  0  0  0
    1.1126    0.7311   -2.4824 C   0  0  0  0  0  0  0  0  0  0  0  0
    1.6091    1.7038   -2.5641 H   0  0  0  0  0  0  0  0  0  0  0  0
    1.9103   -0.0131   -2.3935 H   0  0  0  0  0  0  0  0  0  0  0  0
    0.3295    0.5000   -3.7754 C   0  0  0  0  0  0  0  0  0  0  0  0
   -0.4215    1.2836   -3.9163 H   0  0  0  0  0  0  0  0  0  0  0  0
    1.0094    0.5144   -4.6327 H   0  0  0  0  0  0  0  0  0  0  0  0
   -0.1741   -0.4714   -3.7480 H   0  0  0  0  0  0  0  0  0  0  0  0
    1.0169   -0.4958    0.9409 C   0  0  0  0  0  0  0  0  0  0  0  0
    2.2384   -0.5389    1.0119 O   0  0  0  0  0  0  0  0  0  0  0  0
    0.2963   -0.0951    2.0524 N   0  0  0  0  0  0  0  0  0  0  0  0
   -0.7132   -0.1557    1.9760 H   0  0  0  0  0  0  0  0  0  0  0  0
    0.8946    0.0425    3.3739 C   0  0  0  0  0  0  0  0  0  0  0  0
    1.7030    0.7809    3.3540 H   0  0  0  0  0  0  0  0  0  0  0  0
    0.1434    0.3745    4.0967 H   0  0  0  0  0  0  0  0  0  0  0  0
    1.3016   -0.9166    3.7108 H   0  0  0  0  0  0  0  0  0  0  0  0
  1  2  1  0  0  0  0
  2  3  1  0  0  0  0
  2  4  1  0  0  0  0
  2  5  1  0  0  0  0
  5  6  2  0  0  0  0
  5  7  1  0  0  0  0
  7  8  1  0  0  0  0
  7  9  1  0  0  0  0
  9 10  1  0  0  0  0
  9 11  1  0  0  0  0
  9 24  1  0  0  0  0
 11 12  1  0  0  0  0
 11 13  1  0  0  0  0
 11 17  1  0  0  0  0
 13 14  1  0  0  0  0
 13 15  1  0  0  0  0
 13 16  1  0  0  0  0
 17 18  1  0  0  0  0
 17 19  1  0  0  0  0
 17 20  1  0  0  0  0
 20 21  1  0  0  0  0
 20 22  1  0  0  0  0
 20 23  1  0  0  0  0
 24 25  2  0  0  0  0
 24 26  1  0  0  0  0
 26 27  1  0  0  0  0
 26 28  1  0  0  0  0
 28 29  1  0  0  0  0
 28 30  1  0  0  0  0
 28 31  1  0  0  0  0
M  END
$$$$

  -OEChem-03222214053D

 31 30  0     1  0  0  0  0  0999 V2000
   -2.5405   -4.2569    0.2909 H   0  0  0  0  0  0  0  0  0  0  0  0
   -2.5626   -3.2285   -0.0808 C   0  0  0  0  0  0  0  0  0  0  0  0
   -3.2883   -2.6589    0.5045 H   0  0  0  0  0  0  0  0  0  0  0  0
   -2.8755   -3.2409   -1.1277 H   0  0  0  0  0  0  0  0  0  0  0  0
   -1.1871   -2.6003    0.0428 C   0  0  0  0  0  0  0  0  0  0  0  0
   -0.2738   -3.2355    0.5372 O   0  0  0  0  0  0  0  0  0  0  0  0
   -0.9819   -1.3087   -0.4017 N   0  0  0  0  0  0  0  0  0  0  0  0
   -1.7608   -0.8605   -0.8742 H   0  0  0  0  0  0  0  0  0  0  0  0
    0.3327   -0.6362   -0.4383 C   0  0  1  0  0  0  0  0  0  0  0  0
    0.9915   -1.3119   -0.9923 H   0  0  0  0  0  0  0  0  0  0  0  0
    0.1918    0.7017   -1.2416 C   0  0  1  0  0  0  0  0  0  0  0  0
   -0.8424    0.7624   -1.5971 H   0  0  0  0  0  0  0  0  0  0  0  0
    0.4152    1.9756   -0.4066 C   0  0  0  0  0  0  0  0  0  0  0  0
    1.4379    2.0183   -0.0173 H   0  0  0  0  0  0  0  0  0  0  0  0
    0.2485    2.8640   -1.0239 H   0  0  0  0  0  0  0  0  0  0  0  0
   -0.2852    2.0153    0.4327 H   0  0  0  0  0  0  0  0  0  0  0  0
    1.1191    0.7348   -2.4877 C   0  0  0  0  0  0  0  0  0  0  0  0
    1.8275    1.5665   -2.4101 H   0  0  0  0  0  0  0  0  0  0  0  0
    1.7212   -0.1749   -2.5669 H   0  0  0  0  0  0  0  0  0  0  0  0
    0.3143    0.8937   -3.7789 C   0  0  0  0  0  0  0  0  0  0  0  0
   -0.2621    1.8240   -3.7591 H   0  0  0  0  0  0  0  0  0  0  0  0
    0.9890    0.9222   -4.6402 H   0  0  0  0  0  0  0  0  0  0  0  0
   -0.3754    0.0534   -3.9064 H   0  0  0  0  0  0  0  0  0  0  0  0
    1.0210   -0.5050    0.9426 C   0  0  0  0  0  0  0  0  0  0  0  0
    2.2421   -0.5504    1.0177 O   0  0  0  0  0  0  0  0  0  0  0  0
    0.2983   -0.0942    2.0491 N   0  0  0  0  0  0  0  0  0  0  0  0
   -0.7112   -0.1505    1.9694 H   0  0  0  0  0  0  0  0  0  0  0  0
    0.8927    0.0517    3.3716 C   0  0  0  0  0  0  0  0  0  0  0  0
    1.7026    0.7883    3.3492 H   0  0  0  0  0  0  0  0  0  0  0  0
    0.1399    0.3903    4.0894 H   0  0  0  0  0  0  0  0  0  0  0  0
    1.2966   -0.9060    3.7163 H   0  0  0  0  0  0  0  0  0  0  0  0
  1  2  1  0  0  0  0
  2  3  1  0  0  0  0
  2  4  1  0  0  0  0
  2  5  1  0  0  0  0
  5  6  2  0  0  0  0
  5  7  1  0  0  0  0
  7  8  1  0  0  0  0
  7  9  1  0  0  0  0
  9 10  1  0  0  0  0
  9 11  1  0  0  0  0
  9 24  1  0  0  0  0
 11 12  1  0  0  0  0
 11 13  1  0  0  0  0
 11 17  1  0  0  0  0
 13 14  1  0  0  0  0
 13 15  1  0  0  0  0
 13 16  1  0  0  0  0
 17 18  1  0  0  0  0
 17 19  1  0  0  0  0
 17 20  1  0  0  0  0
 20 21  1  0  0  0  0
 20 22  1  0  0  0  0
 20 23  1  0  0  0  0
 24 25  2  0  0  0  0
 24 26  1  0  0  0  0
 26 27  1  0  0  0  0
 26 28  1  0  0  0  0
 28 29  1  0  0  0  0
 28 30  1  0  0  0  0
 28 31  1  0  0  0  0
M  END
$$$$

  -OEChem-03222214053D

 31 30  0     1  0  0  0  0  0999 V2000
   -2.5374   -4.2583    0.3087 H   0  0  0  0  0  0  0  0  0  0  0  0
   -2.5599   -3.2306   -0.0656 C   0  0  0  0  0  0  0  0  0  0  0  0
   -3.2782   -2.6571    0.5249 H   0  0  0  0  0  0  0  0  0  0  0  0
   -2.8832   -3.2447   -1.1092 H   0  0  0  0  0  0  0  0  0  0  0  0
   -1.1818   -2.6055    0.0431 C   0  0  0  0  0  0  0  0  0  0  0  0
   -0.2651   -3.2417    0.5301 O   0  0  0  0  0  0  0  0  0  0  0  0
   -0.9787   -1.3145   -0.4042 N   0  0  0  0  0  0  0  0  0  0  0  0
   -1.7621   -0.8629   -0.8659 H   0  0  0  0  0  0  0  0  0  0  0  0
    0.3347   -0.6398   -0.4425 C   0  0  1  0  0  0  0  0  0  0  0  0
    0.9994   -1.3108   -0.9954 H   0  0  0  0  0  0  0  0  0  0  0  0
    0.1955    0.7005   -1.2413 C   0  0  1  0  0  0  0  0  0  0  0  0
   -0.8365    0.7479   -1.6050 H   0  0  0  0  0  0  0  0  0  0  0  0
    0.4080    1.9786   -0.4103 C   0  0  0  0  0  0  0  0  0  0  0  0
    1.4259    2.0233   -0.0089 H   0  0  0  0  0  0  0  0  0  0  0  0
    0.2488    2.8647   -1.0326 H   0  0  0  0  0  0  0  0  0  0  0  0
   -0.3018    2.0204    0.4209 H   0  0  0  0  0  0  0  0  0  0  0  0
    1.1208    0.7342   -2.4855 C   0  0  0  0  0  0  0  0  0  0  0  0
    2.0019    1.3532   -2.2852 H   0  0  0  0  0  0  0  0  0  0  0  0
    1.4868   -0.2665   -2.7326 H   0  0  0  0  0  0  0  0  0  0  0  0
    0.3848    1.2623   -3.7189 C   0  0  0  0  0  0  0  0  0  0  0  0
    0.0118    2.2752   -3.5389 H   0  0  0  0  0  0  0  0  0  0  0  0
    1.0640    1.2907   -4.5765 H   0  0  0  0  0  0  0  0  0  0  0  0
   -0.4609    0.6142   -3.9693 H   0  0  0  0  0  0  0  0  0  0  0  0
    1.0207   -0.5058    0.9392 C   0  0  0  0  0  0  0  0  0  0  0  0
    2.2416   -0.5523    1.0163 O   0  0  0  0  0  0  0  0  0  0  0  0
    0.2968   -0.0946    2.0448 N   0  0  0  0  0  0  0  0  0  0  0  0
   -0.7127   -0.1475    1.9635 H   0  0  0  0  0  0  0  0  0  0  0  0
    0.8894    0.0506    3.3680 C   0  0  0  0  0  0  0  0  0  0  0  0
    1.7033    0.7830    3.3458 H   0  0  0  0  0  0  0  0  0  0  0  0
    0.1368    0.3943    4.0839 H   0  0  0  0  0  0  0  0  0  0  0  0
    1.2880   -0.9086    3.7150 H   0  0  0  0  0  0  0  0  0  0  0  0
  1  2  1  0  0  0  0
  2  3  1  0  0  0  0
  2  4  1  0  0  0  0
  2  5  1  0  0  0  0
  5  6  2  0  0  0  0
  5  7  1  0  0  0  0
  7  8  1  0  0  0  0
  7  9  1  0  0  0  0
  9 10  1  0  0  0  0
  9 11  1  0  0  0  0
  9 24  1  0  0  0  0
 11 12  1  0  0  0  0
 11 13  1  0  0  0  0
 11 17  1  0  0  0  0
 13 14  1  0  0  0  0
 13 15  1  0  0  0  0
 13 16  1  0  0  0  0
 17 18  1  0  0  0  0
 17 19  1  0  0  0  0
 17 20  1  0  0  0  0
 20 21  1  0  0  0  0
 20 22  1  0  0  0  0
 20 23  1  0  0  0  0
 24 25  2  0  0  0  0
 24 26  1  0  0  0  0
 26 27  1  0  0  0  0
 26 28  1  0  0  0  0
 28 29  1  0  0  0  0
 28 30  1  0  0  0  0
 28 31  1  0  0  0  0
M  END
$$$$

  -OEChem-03222214053D

 31 30  0     1  0  0  0  0  0999 V2000
   -2.5247   -4.2620    0.3009 H   0  0  0  0  0  0  0  0  0  0  0  0
   -2.5526   -3.2331   -0.0692 C   0  0  0  0  0  0  0  0  0  0  0  0
   -3.2719   -2.6651    0.5255 H   0  0  0  0  0  0  0  0  0  0  0  0
   -2.8782   -3.2446   -1.1121 H   0  0  0  0  0  0  0  0  0  0  0  0
   -1.1767   -2.6027    0.0380 C   0  0  0  0  0  0  0  0  0  0  0  0
   -0.2551   -3.2376    0.5173 O   0  0  0  0  0  0  0  0  0  0  0  0
   -0.9811   -1.3087   -0.4040 N   0  0  0  0  0  0  0  0  0  0  0  0
   -1.7689   -0.8576   -0.8584 H   0  0  0  0  0  0  0  0  0  0  0  0
    0.3291   -0.6280   -0.4442 C   0  0  1  0  0  0  0  0  0  0  0  0
    0.9979   -1.2903   -1.0039 H   0  0  0  0  0  0  0  0  0  0  0  0
    0.1814    0.7133   -1.2380 C   0  0  1  0  0  0  0  0  0  0  0  0
   -0.8482    0.7600   -1.6083 H   0  0  0  0  0  0  0  0  0  0  0  0
    0.4007    1.9872   -0.4002 C   0  0  0  0  0  0  0  0  0  0  0  0
    1.4253    2.0335   -0.0167 H   0  0  0  0  0  0  0  0  0  0  0  0
    0.2253    2.8803   -1.0063 H   0  0  0  0  0  0  0  0  0  0  0  0
   -0.2943    2.0174    0.4438 H   0  0  0  0  0  0  0  0  0  0  0  0
    1.1104    0.7278   -2.4755 C   0  0  0  0  0  0  0  0  0  0  0  0
    2.1025    1.0981   -2.1951 H   0  0  0  0  0  0  0  0  0  0  0  0
    1.2396   -0.2870   -2.8648 H   0  0  0  0  0  0  0  0  0  0  0  0
    0.5352    1.5704   -3.6174 C   0  0  0  0  0  0  0  0  0  0  0  0
    0.4178    2.6137   -3.3112 H   0  0  0  0  0  0  0  0  0  0  0  0
    1.2092    1.5400   -4.4788 H   0  0  0  0  0  0  0  0  0  0  0  0
   -0.4400    1.1832   -3.9281 H   0  0  0  0  0  0  0  0  0  0  0  0
    1.0186   -0.4981    0.9361 C   0  0  0  0  0  0  0  0  0  0  0  0
    2.2400   -0.5388    1.0089 O   0  0  0  0  0  0  0  0  0  0  0  0
    0.2965   -0.0958    2.0461 N   0  0  0  0  0  0  0  0  0  0  0  0
   -0.7131   -0.1514    1.9681 H   0  0  0  0  0  0  0  0  0  0  0  0
    0.8936    0.0455    3.3676 C   0  0  0  0  0  0  0  0  0  0  0  0
    1.7025    0.7833    3.3464 H   0  0  0  0  0  0  0  0  0  0  0  0
    0.1418    0.3800    4.0886 H   0  0  0  0  0  0  0  0  0  0  0  0
    1.2999   -0.9132    3.7072 H   0  0  0  0  0  0  0  0  0  0  0  0
  1  2  1  0  0  0  0
  2  3  1  0  0  0  0
  2  4  1  0  0  0  0
  2  5  1  0  0  0  0
  5  6  2  0  0  0  0
  5  7  1  0  0  0  0
  7  8  1  0  0  0  0
  7  9  1  0  0  0  0
  9 10  1  0  0  0  0
  9 11  1  0  0  0  0
  9 24  1  0  0  0  0
 11 12  1  0  0  0  0
 11 13  1  0  0  0  0
 11 17  1  0  0  0  0
 13 14  1  0  0  0  0
 13 15  1  0  0  0  0
 13 16  1  0  0  0  0
 17 18  1  0  0  0  0
 17 19  1  0  0  0  0
 17 20  1  0  0  0  0
 20 21  1  0  0  0  0
 20 22  1  0  0  0  0
 20 23  1  0  0  0  0
 24 25  2  0  0  0  0
 24 26  1  0  0  0  0
 26 27  1  0  0  0  0
 26 28  1  0  0  0  0
 28 29  1  0  0  0  0
 28 30  1  0  0  0  0
 28 31  1  0  0  0  0
M  END
$$$$

  -OEChem-03222214053D

 31 30  0     1  0  0  0  0  0999 V2000
   -2.5081   -4.2697    0.2750 H   0  0  0  0  0  0  0  0  0  0  0  0
   -2.5451   -3.2380   -0.0868 C   0  0  0  0  0  0  0  0  0  0  0  0
   -3.2705   -2.6814    0.5114 H   0  0  0  0  0  0  0  0  0  0  0  0
   -2.8692   -3.2440   -1.1303 H   0  0  0  0  0  0  0  0  0  0  0  0
   -1.1754   -2.5957    0.0277 C   0  0  0  0  0  0  0  0  0  0  0  0
   -0.2482   -3.2275    0.5002 O   0  0  0  0  0  0  0  0  0  0  0  0
   -0.9904   -1.2955   -0.4005 N   0  0  0  0  0  0  0  0  0  0  0  0
   -1.7824   -0.8452   -0.8486 H   0  0  0  0  0  0  0  0  0  0  0  0
    0.3149   -0.6064   -0.4393 C   0  0  1  0  0  0  0  0  0  0  0  0
    0.9832   -1.2619   -1.0088 H   0  0  0  0  0  0  0  0  0  0  0  0
    0.1597    0.7328   -1.2332 C   0  0  1  0  0  0  0  0  0  0  0  0
   -0.8650    0.7813   -1.6164 H   0  0  0  0  0  0  0  0  0  0  0  0
    0.3723    2.0019   -0.3850 C   0  0  0  0  0  0  0  0  0  0  0  0
    1.4071    2.0684   -0.0330 H   0  0  0  0  0  0  0  0  0  0  0  0
    0.1511    2.9000   -0.9677 H   0  0  0  0  0  0  0  0  0  0  0  0
   -0.2968    2.0032    0.4801 H   0  0  0  0  0  0  0  0  0  0  0  0
    1.1010    0.7206   -2.4590 C   0  0  0  0  0  0  0  0  0  0  0  0
    2.1392    0.8330   -2.1286 H   0  0  0  0  0  0  0  0  0  0  0  0
    1.0191   -0.2454   -2.9681 H   0  0  0  0  0  0  0  0  0  0  0  0
    0.7661    1.8069   -3.4858 C   0  0  0  0  0  0  0  0  0  0  0  0
    0.9526    2.8044   -3.0785 H   0  0  0  0  0  0  0  0  0  0  0  0
    1.3917    1.6822   -4.3748 H   0  0  0  0  0  0  0  0  0  0  0  0
   -0.2829    1.7398   -3.7897 H   0  0  0  0  0  0  0  0  0  0  0  0
    1.0156   -0.4850    0.9366 C   0  0  0  0  0  0  0  0  0  0  0  0
    2.2380   -0.5128    0.9970 O   0  0  0  0  0  0  0  0  0  0  0  0
    0.3007   -0.0986    2.0569 N   0  0  0  0  0  0  0  0  0  0  0  0
   -0.7085   -0.1724    1.9901 H   0  0  0  0  0  0  0  0  0  0  0  0
    0.9096    0.0383    3.3736 C   0  0  0  0  0  0  0  0  0  0  0  0
    1.7091    0.7862    3.3504 H   0  0  0  0  0  0  0  0  0  0  0  0
    0.1614    0.3571    4.1053 H   0  0  0  0  0  0  0  0  0  0  0  0
    1.3311   -0.9180    3.7006 H   0  0  0  0  0  0  0  0  0  0  0  0
  1  2  1  0  0  0  0
  2  3  1  0  0  0  0
  2  4  1  0  0  0  0
  2  5  1  0  0  0  0
  5  6  2  0  0  0  0
  5  7  1  0  0  0  0
  7  8  1  0  0  0  0
  7  9  1  0  0  0  0
  9 10  1  0  0  0  0
  9 11  1  0  0  0  0
  9 24  1  0  0  0  0
 11 12  1  0  0  0  0
 11 13  1  0  0  0  0
 11 17  1  0  0  0  0
 13 14  1  0  0  0  0
 13 15  1  0  0  0  0
 13 16  1  0  0  0  0
 17 18  1  0  0  0  0
 17 19  1  0  0  0  0
 17 20  1  0  0  0  0
 20 21  1  0  0  0  0
 20 22  1  0  0  0  0
 20 23  1  0  0  0  0
 24 25  2  0  0  0  0
 24 26  1  0  0  0  0
 26 27  1  0  0  0  0
 26 28  1  0  0  0  0
 28 29  1  0  0  0  0
 28 30  1  0  0  0  0
 28 31  1  0  0  0  0
M  END
$$$$

  -OEChem-03222214053D

 31 30  0     1  0  0  0  0  0999 V2000
   -2.4950   -4.2462    0.2805 H   0  0  0  0  0  0  0  0  0  0  0  0
   -2.5263   -3.2157   -0.0850 C   0  0  0  0  0  0  0  0  0  0  0  0
   -3.2485   -2.6529    0.5111 H   0  0  0  0  0  0  0  0  0  0  0  0
   -2.8503   -3.2238   -1.1285 H   0  0  0  0  0  0  0  0  0  0  0  0
   -1.1529   -2.5812    0.0275 C   0  0  0  0  0  0  0  0  0  0  0  0
   -0.2287   -3.2190    0.4976 O   0  0  0  0  0  0  0  0  0  0  0  0
   -0.9615   -1.2839   -0.4068 N   0  0  0  0  0  0  0  0  0  0  0  0
   -1.7502   -0.8354   -0.8625 H   0  0  0  0  0  0  0  0  0  0  0  0
    0.3460   -0.5980   -0.4477 C   0  0  1  0  0  0  0  0  0  0  0  0
    1.0284   -1.2344   -1.0227 H   0  0  0  0  0  0  0  0  0  0  0  0
    0.1547    0.7511   -1.2195 C   0  0  1  0  0  0  0  0  0  0  0  0
   -0.9157    0.9538   -1.3312 H   0  0  0  0  0  0  0  0  0  0  0  0
    0.7614    1.9740   -0.4985 C   0  0  0  0  0  0  0  0  0  0  0  0
    1.8485    1.8740   -0.4131 H   0  0  0  0  0  0  0  0  0  0  0  0
    0.5400    2.8968   -1.0408 H   0  0  0  0  0  0  0  0  0  0  0  0
    0.3371    2.0879    0.5026 H   0  0  0  0  0  0  0  0  0  0  0  0
    0.7686    0.5899   -2.6311 C   0  0  0  0  0  0  0  0  0  0  0  0
    1.8284    0.3270   -2.5413 H   0  0  0  0  0  0  0  0  0  0  0  0
    0.2637   -0.2386   -3.1391 H   0  0  0  0  0  0  0  0  0  0  0  0
    0.6559    1.8372   -3.5141 C   0  0  0  0  0  0  0  0  0  0  0  0
    1.3046    2.6385   -3.1487 H   0  0  0  0  0  0  0  0  0  0  0  0
    0.9633    1.5964   -4.5363 H   0  0  0  0  0  0  0  0  0  0  0  0
   -0.3767    2.1986   -3.5391 H   0  0  0  0  0  0  0  0  0  0  0  0
    1.0202   -0.4862    0.9430 C   0  0  0  0  0  0  0  0  0  0  0  0
    2.2394   -0.5466    1.0355 O   0  0  0  0  0  0  0  0  0  0  0  0
    0.2826   -0.0994    2.0486 N   0  0  0  0  0  0  0  0  0  0  0  0
   -0.7258   -0.1469    1.9527 H   0  0  0  0  0  0  0  0  0  0  0  0
    0.8582    0.0113    3.3827 C   0  0  0  0  0  0  0  0  0  0  0  0
    1.6694    0.7470    3.3909 H   0  0  0  0  0  0  0  0  0  0  0  0
    0.0955    0.3323    4.0985 H   0  0  0  0  0  0  0  0  0  0  0  0
    1.2557   -0.9559    3.7081 H   0  0  0  0  0  0  0  0  0  0  0  0
  1  2  1  0  0  0  0
  2  3  1  0  0  0  0
  2  4  1  0  0  0  0
  2  5  1  0  0  0  0
  5  6  2  0  0  0  0
  5  7  1  0  0  0  0
  7  8  1  0  0  0  0
  7  9  1  0  0  0  0
  9 10  1  0  0  0  0
  9 11  1  0  0  0  0
  9 24  1  0  0  0  0
 11 12  1  0  0  0  0
 11 13  1  0  0  0  0
 11 17  1  0  0  0  0
 13 14  1  0  0  0  0
 13 15  1  0  0  0  0
 13 16  1  0  0  0  0
 17 18  1  0  0  0  0
 17 19  1  0  0  0  0
 17 20  1  0  0  0  0
 20 21  1  0  0  0  0
 20 22  1  0  0  0  0
 20 23  1  0  0  0  0
 24 25  2  0  0  0  0
 24 26  1  0  0  0  0
 26 27  1  0  0  0  0
 26 28  1  0  0  0  0
 28 29  1  0  0  0  0
 28 30  1  0  0  0  0
 28 31  1  0  0  0  0
M  END
$$$$

  -OEChem-03222214053D

 31 30  0     1  0  0  0  0  0999 V2000
   -2.4985   -4.2381    0.2868 H   0  0  0  0  0  0  0  0  0  0  0  0
   -2.5256   -3.2072   -0.0777 C   0  0  0  0  0  0  0  0  0  0  0  0
   -3.2397   -2.6405    0.5244 H   0  0  0  0  0  0  0  0  0  0  0  0
   -2.8574   -3.2114   -1.1187 H   0  0  0  0  0  0  0  0  0  0  0  0
   -1.1478   -2.5807    0.0252 C   0  0  0  0  0  0  0  0  0  0  0  0
   -0.2234   -3.2225    0.4894 O   0  0  0  0  0  0  0  0  0  0  0  0
   -0.9547   -1.2831   -0.4072 N   0  0  0  0  0  0  0  0  0  0  0  0
   -1.7447   -0.8304   -0.8564 H   0  0  0  0  0  0  0  0  0  0  0  0
    0.3526   -0.5972   -0.4466 C   0  0  1  0  0  0  0  0  0  0  0  0
    1.0329   -1.2396   -1.0166 H   0  0  0  0  0  0  0  0  0  0  0  0
    0.1583    0.7501   -1.2249 C   0  0  1  0  0  0  0  0  0  0  0  0
   -0.9114    0.9526   -1.3430 H   0  0  0  0  0  0  0  0  0  0  0  0
    0.7458    1.9711   -0.4823 C   0  0  0  0  0  0  0  0  0  0  0  0
    1.8329    1.8804   -0.3850 H   0  0  0  0  0  0  0  0  0  0  0  0
    0.5209    2.8993   -1.0149 H   0  0  0  0  0  0  0  0  0  0  0  0
    0.3089    2.0699    0.5148 H   0  0  0  0  0  0  0  0  0  0  0  0
    0.7739    0.5954   -2.6422 C   0  0  0  0  0  0  0  0  0  0  0  0
    1.7525    0.1096   -2.5641 H   0  0  0  0  0  0  0  0  0  0  0  0
    0.1262   -0.0601   -3.2334 H   0  0  0  0  0  0  0  0  0  0  0  0
    0.9921    1.9036   -3.4107 C   0  0  0  0  0  0  0  0  0  0  0  0
    1.7743    2.5096   -2.9435 H   0  0  0  0  0  0  0  0  0  0  0  0
    1.3047    1.6833   -4.4359 H   0  0  0  0  0  0  0  0  0  0  0  0
    0.0653    2.4842   -3.4501 H   0  0  0  0  0  0  0  0  0  0  0  0
    1.0239   -0.4883    0.9463 C   0  0  0  0  0  0  0  0  0  0  0  0
    2.2431   -0.5481    1.0417 O   0  0  0  0  0  0  0  0  0  0  0  0
    0.2837   -0.1037    2.0509 N   0  0  0  0  0  0  0  0  0  0  0  0
   -0.7245   -0.1532    1.9529 H   0  0  0  0  0  0  0  0  0  0  0  0
    0.8560    0.0042    3.3866 C   0  0  0  0  0  0  0  0  0  0  0  0
    1.6717    0.7348    3.3967 H   0  0  0  0  0  0  0  0  0  0  0  0
    0.0931    0.3308    4.0996 H   0  0  0  0  0  0  0  0  0  0  0  0
    1.2468   -0.9650    3.7139 H   0  0  0  0  0  0  0  0  0  0  0  0
  1  2  1  0  0  0  0
  2  3  1  0  0  0  0
  2  4  1  0  0  0  0
  2  5  1  0  0  0  0
  5  6  2  0  0  0  0
  5  7  1  0  0  0  0
  7  8  1  0  0  0  0
  7  9  1  0  0  0  0
  9 10  1  0  0  0  0
  9 11  1  0  0  0  0
  9 24  1  0  0  0  0
 11 12  1  0  0  0  0
 11 13  1  0  0  0  0
 11 17  1  0  0  0  0
 13 14  1  0  0  0  0
 13 15  1  0  0  0  0
 13 16  1  0  0  0  0
 17 18  1  0  0  0  0
 17 19  1  0  0  0  0
 17 20  1  0  0  0  0
 20 21  1  0  0  0  0
 20 22  1  0  0  0  0
 20 23  1  0  0  0  0
 24 25  2  0  0  0  0
 24 26  1  0  0  0  0
 26 27  1  0  0  0  0
 26 28  1  0  0  0  0
 28 29  1  0  0  0  0
 28 30  1  0  0  0  0
 28 31  1  0  0  0  0
M  END
$$$$

  -OEChem-03222214053D

 31 30  0     1  0  0  0  0  0999 V2000
   -2.5055   -4.2359    0.2924 H   0  0  0  0  0  0  0  0  0  0  0  0
   -2.5306   -3.2055   -0.0739 C   0  0  0  0  0  0  0  0  0  0  0  0
   -3.2462   -2.6373    0.5250 H   0  0  0  0  0  0  0  0  0  0  0  0
   -2.8596   -3.2113   -1.1159 H   0  0  0  0  0  0  0  0  0  0  0  0
   -1.1520   -2.5808    0.0319 C   0  0  0  0  0  0  0  0  0  0  0  0
   -0.2314   -3.2233    0.5025 O   0  0  0  0  0  0  0  0  0  0  0  0
   -0.9538   -1.2849   -0.4037 N   0  0  0  0  0  0  0  0  0  0  0  0
   -1.7416   -0.8314   -0.8560 H   0  0  0  0  0  0  0  0  0  0  0  0
    0.3565   -0.6041   -0.4437 C   0  0  1  0  0  0  0  0  0  0  0  0
    1.0327   -1.2581   -1.0037 H   0  0  0  0  0  0  0  0  0  0  0  0
    0.1701    0.7421   -1.2311 C   0  0  1  0  0  0  0  0  0  0  0  0
   -0.8996    0.9396   -1.3571 H   0  0  0  0  0  0  0  0  0  0  0  0
    0.7255    1.9657   -0.4663 C   0  0  0  0  0  0  0  0  0  0  0  0
    1.8091    1.8825   -0.3311 H   0  0  0  0  0  0  0  0  0  0  0  0
    0.5116    2.8939   -1.0034 H   0  0  0  0  0  0  0  0  0  0  0  0
    0.2542    2.0586    0.5158 H   0  0  0  0  0  0  0  0  0  0  0  0
    0.7846    0.6032   -2.6580 C   0  0  0  0  0  0  0  0  0  0  0  0
    1.6261   -0.0962   -2.6338 H   0  0  0  0  0  0  0  0  0  0  0  0
    0.0262    0.1746   -3.3209 H   0  0  0  0  0  0  0  0  0  0  0  0
    1.3358    1.8865   -3.2923 C   0  0  0  0  0  0  0  0  0  0  0  0
    2.1844    2.2759   -2.7218 H   0  0  0  0  0  0  0  0  0  0  0  0
    1.6818    1.6766   -4.3089 H   0  0  0  0  0  0  0  0  0  0  0  0
    0.5576    2.6538   -3.3477 H   0  0  0  0  0  0  0  0  0  0  0  0
    1.0283   -0.4938    0.9488 C   0  0  0  0  0  0  0  0  0  0  0  0
    2.2473   -0.5567    1.0436 O   0  0  0  0  0  0  0  0  0  0  0  0
    0.2904   -0.1034    2.0528 N   0  0  0  0  0  0  0  0  0  0  0  0
   -0.7180   -0.1486    1.9556 H   0  0  0  0  0  0  0  0  0  0  0  0
    0.8642    0.0047    3.3877 C   0  0  0  0  0  0  0  0  0  0  0  0
    1.6810    0.7341    3.3962 H   0  0  0  0  0  0  0  0  0  0  0  0
    0.1028    0.3328    4.1016 H   0  0  0  0  0  0  0  0  0  0  0  0
    1.2540   -0.9650    3.7150 H   0  0  0  0  0  0  0  0  0  0  0  0
  1  2  1  0  0  0  0
  2  3  1  0  0  0  0
  2  4  1  0  0  0  0
  2  5  1  0  0  0  0
  5  6  2  0  0  0  0
  5  7  1  0  0  0  0
  7  8  1  0  0  0  0
  7  9  1  0  0  0  0
  9 10  1  0  0  0  0
  9 11  1  0  0  0  0
  9 24  1  0  0  0  0
 11 12  1  0  0  0  0
 11 13  1  0  0  0  0
 11 17  1  0  0  0  0
 13 14  1  0  0  0  0
 13 15  1  0  0  0  0
 13 16  1  0  0  0  0
 17 18  1  0  0  0  0
 17 19  1  0  0  0  0
 17 20  1  0  0  0  0
 20 21  1  0  0  0  0
 20 22  1  0  0  0  0
 20 23  1  0  0  0  0
 24 25  2  0  0  0  0
 24 26  1  0  0  0  0
 26 27  1  0  0  0  0
 26 28  1  0  0  0  0
 28 29  1  0  0  0  0
 28 30  1  0  0  0  0
 28 31  1  0  0  0  0
M  END
$$$$

  -OEChem-03222214053D

 31 30  0     1  0  0  0  0  0999 V2000
   -2.5151   -4.2340    0.2990 H   0  0  0  0  0  0  0  0  0  0  0  0
   -2.5358   -3.2043   -0.0698 C   0  0  0  0  0  0  0  0  0  0  0  0
   -3.2524   -2.6326    0.5246 H   0  0  0  0  0  0  0  0  0  0  0  0
   -2.8598   -3.2118   -1.1134 H   0  0  0  0  0  0  0  0  0  0  0  0
   -1.1562   -2.5828    0.0409 C   0  0  0  0  0  0  0  0  0  0  0  0
   -0.2398   -3.2253    0.5198 O   0  0  0  0  0  0  0  0  0  0  0  0
   -0.9515   -1.2905   -0.4021 N   0  0  0  0  0  0  0  0  0  0  0  0
   -1.7342   -0.8389   -0.8649 H   0  0  0  0  0  0  0  0  0  0  0  0
    0.3622   -0.6163   -0.4437 C   0  0  1  0  0  0  0  0  0  0  0  0
    1.0385   -1.2778   -0.9934 H   0  0  0  0  0  0  0  0  0  0  0  0
    0.1875    0.7303   -1.2360 C   0  0  1  0  0  0  0  0  0  0  0  0
   -0.8838    0.9147   -1.3708 H   0  0  0  0  0  0  0  0  0  0  0  0
    0.7034    1.9626   -0.4580 C   0  0  0  0  0  0  0  0  0  0  0  0
    1.7801    1.8905   -0.2729 H   0  0  0  0  0  0  0  0  0  0  0  0
    0.5043    2.8841   -1.0119 H   0  0  0  0  0  0  0  0  0  0  0  0
    0.1894    2.0568    0.5023 H   0  0  0  0  0  0  0  0  0  0  0  0
    0.7982    0.6074   -2.6709 C   0  0  0  0  0  0  0  0  0  0  0  0
    1.4288   -0.2825   -2.7454 H   0  0  0  0  0  0  0  0  0  0  0  0
   -0.0248    0.4679   -3.3792 H   0  0  0  0  0  0  0  0  0  0  0  0
    1.6631    1.7760   -3.1606 C   0  0  0  0  0  0  0  0  0  0  0  0
    2.5306    1.9211   -2.5095 H   0  0  0  0  0  0  0  0  0  0  0  0
    2.0305    1.5642   -4.1693 H   0  0  0  0  0  0  0  0  0  0  0  0
    1.0826    2.7024   -3.2004 H   0  0  0  0  0  0  0  0  0  0  0  0
    1.0328   -0.5006    0.9493 C   0  0  0  0  0  0  0  0  0  0  0  0
    2.2516   -0.5684    1.0449 O   0  0  0  0  0  0  0  0  0  0  0  0
    0.2977   -0.1002    2.0517 N   0  0  0  0  0  0  0  0  0  0  0  0
   -0.7110   -0.1421    1.9560 H   0  0  0  0  0  0  0  0  0  0  0  0
    0.8736    0.0092    3.3857 C   0  0  0  0  0  0  0  0  0  0  0  0
    1.6928    0.7359    3.3914 H   0  0  0  0  0  0  0  0  0  0  0  0
    0.1142    0.3414    4.0997 H   0  0  0  0  0  0  0  0  0  0  0  0
    1.2608   -0.9609    3.7148 H   0  0  0  0  0  0  0  0  0  0  0  0
  1  2  1  0  0  0  0
  2  3  1  0  0  0  0
  2  4  1  0  0  0  0
  2  5  1  0  0  0  0
  5  6  2  0  0  0  0
  5  7  1  0  0  0  0
  7  8  1  0  0  0  0
  7  9  1  0  0  0  0
  9 10  1  0  0  0  0
  9 11  1  0  0  0  0
  9 24  1  0  0  0  0
 11 12  1  0  0  0  0
 11 13  1  0  0  0  0
 11 17  1  0  0  0  0
 13 14  1  0  0  0  0
 13 15  1  0  0  0  0
 13 16  1  0  0  0  0
 17 18  1  0  0  0  0
 17 19  1  0  0  0  0
 17 20  1  0  0  0  0
 20 21  1  0  0  0  0
 20 22  1  0  0  0  0
 20 23  1  0  0  0  0
 24 25  2  0  0  0  0
 24 26  1  0  0  0  0
 26 27  1  0  0  0  0
 26 28  1  0  0  0  0
 28 29  1  0  0  0  0
 28 30  1  0  0  0  0
 28 31  1  0  0  0  0
M  END
$$$$

  -OEChem-03222214053D

 31 30  0     1  0  0  0  0  0999 V2000
   -2.5179   -4.2343    0.3190 H   0  0  0  0  0  0  0  0  0  0  0  0
   -2.5362   -3.2065   -0.0552 C   0  0  0  0  0  0  0  0  0  0  0  0
   -3.2465   -2.6282    0.5403 H   0  0  0  0  0  0  0  0  0  0  0  0
   -2.8671   -3.2186   -1.0964 H   0  0  0  0  0  0  0  0  0  0  0  0
   -1.1531   -2.5907    0.0433 C   0  0  0  0  0  0  0  0  0  0  0  0
   -0.2370   -3.2347    0.5206 O   0  0  0  0  0  0  0  0  0  0  0  0
   -0.9457   -1.3014   -0.4071 N   0  0  0  0  0  0  0  0  0  0  0  0
   -1.7290   -0.8489   -0.8680 H   0  0  0  0  0  0  0  0  0  0  0  0
    0.3699   -0.6304   -0.4537 C   0  0  1  0  0  0  0  0  0  0  0  0
    1.0500   -1.2875   -1.0045 H   0  0  0  0  0  0  0  0  0  0  0  0
    0.2044    0.7215   -1.2355 C   0  0  1  0  0  0  0  0  0  0  0  0
   -0.8686    0.8933   -1.3713 H   0  0  0  0  0  0  0  0  0  0  0  0
    0.6995    1.9623   -0.4592 C   0  0  0  0  0  0  0  0  0  0  0  0
    1.7708    1.8960   -0.2441 H   0  0  0  0  0  0  0  0  0  0  0  0
    0.5129    2.8742   -1.0334 H   0  0  0  0  0  0  0  0  0  0  0  0
    0.1608    2.0660    0.4867 H   0  0  0  0  0  0  0  0  0  0  0  0
    0.8064    0.6085   -2.6735 C   0  0  0  0  0  0  0  0  0  0  0  0
    1.1604   -0.4071   -2.8721 H   0  0  0  0  0  0  0  0  0  0  0  0
   -0.0033    0.7932   -3.3869 H   0  0  0  0  0  0  0  0  0  0  0  0
    1.9474    1.5734   -3.0215 C   0  0  0  0  0  0  0  0  0  0  0  0
    2.7878    1.4426   -2.3325 H   0  0  0  0  0  0  0  0  0  0  0  0
    2.3042    1.3706   -4.0359 H   0  0  0  0  0  0  0  0  0  0  0  0
    1.6119    2.6137   -2.9864 H   0  0  0  0  0  0  0  0  0  0  0  0
    1.0368   -0.5115    0.9403 C   0  0  0  0  0  0  0  0  0  0  0  0
    2.2552   -0.5784    1.0403 O   0  0  0  0  0  0  0  0  0  0  0  0
    0.2966   -0.1043    2.0369 N   0  0  0  0  0  0  0  0  0  0  0  0
   -0.7115   -0.1505    1.9372 H   0  0  0  0  0  0  0  0  0  0  0  0
    0.8657    0.0204    3.3723 C   0  0  0  0  0  0  0  0  0  0  0  0
    1.6877    0.7439    3.3733 H   0  0  0  0  0  0  0  0  0  0  0  0
    0.1035    0.3650    4.0774 H   0  0  0  0  0  0  0  0  0  0  0  0
    1.2470   -0.9466    3.7170 H   0  0  0  0  0  0  0  0  0  0  0  0
  1  2  1  0  0  0  0
  2  3  1  0  0  0  0
  2  4  1  0  0  0  0
  2  5  1  0  0  0  0
  5  6  2  0  0  0  0
  5  7  1  0  0  0  0
  7  8  1  0  0  0  0
  7  9  1  0  0  0  0
  9 10  1  0  0  0  0
  9 11  1  0  0  0  0
  9 24  1  0  0  0  0
 11 12  1  0  0  0  0
 11 13  1  0  0  0  0
 11 17  1  0  0  0  0
 13 14  1  0  0  0  0
 13 15  1  0  0  0  0
 13 16  1  0  0  0  0
 17 18  1  0  0  0  0
 17 19  1  0  0  0  0
 17 20  1  0  0  0  0
 20 21  1  0  0  0  0
 20 22  1  0  0  0  0
 20 23  1  0  0  0  0
 24 25  2  0  0  0  0
 24 26  1  0  0  0  0
 26 27  1  0  0  0  0
 26 28  1  0  0  0  0
 28 29  1  0  0  0  0
 28 30  1  0  0  0  0
 28 31  1  0  0  0  0
M  END
$$$$

  -OEChem-03222214053D

 31 30  0     1  0  0  0  0  0999 V2000
   -2.5180   -4.2389    0.3162 H   0  0  0  0  0  0  0  0  0  0  0  0
   -2.5379   -3.2119   -0.0600 C   0  0  0  0  0  0  0  0  0  0  0  0
   -3.2505   -2.6340    0.5331 H   0  0  0  0  0  0  0  0  0  0  0  0
   -2.8661   -3.2263   -1.1021 H   0  0  0  0  0  0  0  0  0  0  0  0
   -1.1566   -2.5926    0.0412 C   0  0  0  0  0  0  0  0  0  0  0  0
   -0.2396   -3.2332    0.5214 O   0  0  0  0  0  0  0  0  0  0  0  0
   -0.9515   -1.3037   -0.4111 N   0  0  0  0  0  0  0  0  0  0  0  0
   -1.7342   -0.8552   -0.8767 H   0  0  0  0  0  0  0  0  0  0  0  0
    0.3637   -0.6322   -0.4601 C   0  0  1  0  0  0  0  0  0  0  0  0
    1.0440   -1.2838   -1.0187 H   0  0  0  0  0  0  0  0  0  0  0  0
    0.2029    0.7202   -1.2356 C   0  0  1  0  0  0  0  0  0  0  0  0
   -0.8707    0.8862   -1.3756 H   0  0  0  0  0  0  0  0  0  0  0  0
    0.6975    1.9694   -0.4753 C   0  0  0  0  0  0  0  0  0  0  0  0
    1.7627    1.8960   -0.2338 H   0  0  0  0  0  0  0  0  0  0  0  0
    0.5393    2.8678   -1.0795 H   0  0  0  0  0  0  0  0  0  0  0  0
    0.1390    2.0992    0.4563 H   0  0  0  0  0  0  0  0  0  0  0  0
    0.8046    0.5978   -2.6666 C   0  0  0  0  0  0  0  0  0  0  0  0
    0.8899   -0.4524   -2.9628 H   0  0  0  0  0  0  0  0  0  0  0  0
    0.0981    1.0570   -3.3657 H   0  0  0  0  0  0  0  0  0  0  0  0
    2.1581    1.2863   -2.8812 C   0  0  0  0  0  0  0  0  0  0  0  0
    2.8955    0.9081   -2.1660 H   0  0  0  0  0  0  0  0  0  0  0  0
    2.5228    1.0788   -3.8917 H   0  0  0  0  0  0  0  0  0  0  0  0
    2.0762    2.3712   -2.7692 H   0  0  0  0  0  0  0  0  0  0  0  0
    1.0372   -0.5085    0.9297 C   0  0  0  0  0  0  0  0  0  0  0  0
    2.2562   -0.5743    1.0237 O   0  0  0  0  0  0  0  0  0  0  0  0
    0.3029   -0.0987    2.0289 N   0  0  0  0  0  0  0  0  0  0  0  0
   -0.7057   -0.1446    1.9347 H   0  0  0  0  0  0  0  0  0  0  0  0
    0.8795    0.0262    3.3613 C   0  0  0  0  0  0  0  0  0  0  0  0
    1.7002    0.7513    3.3579 H   0  0  0  0  0  0  0  0  0  0  0  0
    0.1208    0.3691    4.0711 H   0  0  0  0  0  0  0  0  0  0  0  0
    1.2645   -0.9406    3.7028 H   0  0  0  0  0  0  0  0  0  0  0  0
  1  2  1  0  0  0  0
  2  3  1  0  0  0  0
  2  4  1  0  0  0  0
  2  5  1  0  0  0  0
  5  6  2  0  0  0  0
  5  7  1  0  0  0  0
  7  8  1  0  0  0  0
  7  9  1  0  0  0  0
  9 10  1  0  0  0  0
  9 11  1  0  0  0  0
  9 24  1  0  0  0  0
 11 12  1  0  0  0  0
 11 13  1  0  0  0  0
 11 17  1  0  0  0  0
 13 14  1  0  0  0  0
 13 15  1  0  0  0  0
 13 16  1  0  0  0  0
 17 18  1  0  0  0  0
 17 19  1  0  0  0  0
 17 20  1  0  0  0  0
 20 21  1  0  0  0  0
 20 22  1  0  0  0  0
 20 23  1  0  0  0  0
 24 25  2  0  0  0  0
 24 26  1  0  0  0  0
 26 27  1  0  0  0  0
 26 28  1  0  0  0  0
 28 29  1  0  0  0  0
 28 30  1  0  0  0  0
 28 31  1  0  0  0  0
M  END
$$$$

  -OEChem-03222214053D

 31 30  0     1  0  0  0  0  0999 V2000
   -2.5139   -4.2414    0.3134 H   0  0  0  0  0  0  0  0  0  0  0  0
   -2.5360   -3.2143   -0.0623 C   0  0  0  0  0  0  0  0  0  0  0  0
   -3.2491   -2.6379    0.5319 H   0  0  0  0  0  0  0  0  0  0  0  0
   -2.8655   -3.2287   -1.1041 H   0  0  0  0  0  0  0  0  0  0  0  0
   -1.1553   -2.5935    0.0367 C   0  0  0  0  0  0  0  0  0  0  0  0
   -0.2367   -3.2337    0.5145 O   0  0  0  0  0  0  0  0  0  0  0  0
   -0.9520   -1.3045   -0.4164 N   0  0  0  0  0  0  0  0  0  0  0  0
   -1.7356   -0.8570   -0.8817 H   0  0  0  0  0  0  0  0  0  0  0  0
    0.3625   -0.6318   -0.4668 C   0  0  1  0  0  0  0  0  0  0  0  0
    1.0418   -1.2771   -1.0352 H   0  0  0  0  0  0  0  0  0  0  0  0
    0.1959    0.7201   -1.2371 C   0  0  1  0  0  0  0  0  0  0  0  0
   -0.8775    0.8921   -1.3715 H   0  0  0  0  0  0  0  0  0  0  0  0
    0.7155    1.9698   -0.4967 C   0  0  0  0  0  0  0  0  0  0  0  0
    1.7749    1.8736   -0.2382 H   0  0  0  0  0  0  0  0  0  0  0  0
    0.5933    2.8574   -1.1251 H   0  0  0  0  0  0  0  0  0  0  0  0
    0.1484    2.1332    0.4243 H   0  0  0  0  0  0  0  0  0  0  0  0
    0.7939    0.5913   -2.6618 C   0  0  0  0  0  0  0  0  0  0  0  0
    0.6429   -0.4247   -3.0411 H   0  0  0  0  0  0  0  0  0  0  0  0
    0.2403    1.2615   -3.3272 H   0  0  0  0  0  0  0  0  0  0  0  0
    2.2785    0.9586   -2.7706 C   0  0  0  0  0  0  0  0  0  0  0  0
    2.8696    0.3725   -2.0594 H   0  0  0  0  0  0  0  0  0  0  0  0
    2.6409    0.7436   -3.7804 H   0  0  0  0  0  0  0  0  0  0  0  0
    2.4403    2.0225   -2.5734 H   0  0  0  0  0  0  0  0  0  0  0  0
    1.0379   -0.5060    0.9216 C   0  0  0  0  0  0  0  0  0  0  0  0
    2.2567   -0.5773    1.0155 O   0  0  0  0  0  0  0  0  0  0  0  0
    0.3043   -0.0956    2.0212 N   0  0  0  0  0  0  0  0  0  0  0  0
   -0.7046   -0.1372    1.9264 H   0  0  0  0  0  0  0  0  0  0  0  0
    0.8814    0.0259    3.3536 C   0  0  0  0  0  0  0  0  0  0  0  0
    1.7042    0.7486    3.3511 H   0  0  0  0  0  0  0  0  0  0  0  0
    0.1241    0.3695    4.0644 H   0  0  0  0  0  0  0  0  0  0  0  0
    1.2639   -0.9424    3.6931 H   0  0  0  0  0  0  0  0  0  0  0  0
  1  2  1  0  0  0  0
  2  3  1  0  0  0  0
  2  4  1  0  0  0  0
  2  5  1  0  0  0  0
  5  6  2  0  0  0  0
  5  7  1  0  0  0  0
  7  8  1  0  0  0  0
  7  9  1  0  0  0  0
  9 10  1  0  0  0  0
  9 11  1  0  0  0  0
  9 24  1  0  0  0  0
 11 12  1  0  0  0  0
 11 13  1  0  0  0  0
 11 17  1  0  0  0  0
 13 14  1  0  0  0  0
 13 15  1  0  0  0  0
 13 16  1  0  0  0  0
 17 18  1  0  0  0  0
 17 19  1  0  0  0  0
 17 20  1  0  0  0  0
 20 21  1  0  0  0  0
 20 22  1  0  0  0  0
 20 23  1  0  0  0  0
 24 25  2  0  0  0  0
 24 26  1  0  0  0  0
 26 27  1  0  0  0  0
 26 28  1  0  0  0  0
 28 29  1  0  0  0  0
 28 30  1  0  0  0  0
 28 31  1  0  0  0  0
M  END
$$$$

  -OEChem-03222214053D

 31 30  0     1  0  0  0  0  0999 V2000
   -2.5154   -4.2448    0.3051 H   0  0  0  0  0  0  0  0  0  0  0  0
   -2.5373   -3.2174   -0.0695 C   0  0  0  0  0  0  0  0  0  0  0  0
   -3.2550   -2.6432    0.5212 H   0  0  0  0  0  0  0  0  0  0  0  0
   -2.8607   -3.2314   -1.1131 H   0  0  0  0  0  0  0  0  0  0  0  0
   -1.1585   -2.5942    0.0384 C   0  0  0  0  0  0  0  0  0  0  0  0
   -0.2423   -3.2321    0.5237 O   0  0  0  0  0  0  0  0  0  0  0  0
   -0.9543   -1.3058   -0.4157 N   0  0  0  0  0  0  0  0  0  0  0  0
   -1.7356   -0.8603   -0.8867 H   0  0  0  0  0  0  0  0  0  0  0  0
    0.3601   -0.6337   -0.4631 C   0  0  1  0  0  0  0  0  0  0  0  0
    1.0330   -1.2834   -1.0329 H   0  0  0  0  0  0  0  0  0  0  0  0
    0.1884    0.7133   -1.2393 C   0  0  1  0  0  0  0  0  0  0  0  0
   -0.8836    0.8976   -1.3659 H   0  0  0  0  0  0  0  0  0  0  0  0
    0.7408    1.9597   -0.5189 C   0  0  0  0  0  0  0  0  0  0  0  0
    1.7987    1.8423   -0.2642 H   0  0  0  0  0  0  0  0  0  0  0  0
    0.6386    2.8414   -1.1592 H   0  0  0  0  0  0  0  0  0  0  0  0
    0.1821    2.1486    0.4026 H   0  0  0  0  0  0  0  0  0  0  0  0
    0.7857    0.5912   -2.6610 C   0  0  0  0  0  0  0  0  0  0  0  0
    0.4305   -0.3374   -3.1199 H   0  0  0  0  0  0  0  0  0  0  0  0
    0.4102    1.4172   -3.2737 H   0  0  0  0  0  0  0  0  0  0  0  0
    2.3197    0.6175   -2.7123 C   0  0  0  0  0  0  0  0  0  0  0  0
    2.7490   -0.1460   -2.0564 H   0  0  0  0  0  0  0  0  0  0  0  0
    2.6592    0.4224   -3.7340 H   0  0  0  0  0  0  0  0  0  0  0  0
    2.7052    1.5952   -2.4091 H   0  0  0  0  0  0  0  0  0  0  0  0
    1.0348   -0.5045    0.9251 C   0  0  0  0  0  0  0  0  0  0  0  0
    2.2531   -0.5816    1.0202 O   0  0  0  0  0  0  0  0  0  0  0  0
    0.3012   -0.0915    2.0235 N   0  0  0  0  0  0  0  0  0  0  0  0
   -0.7076   -0.1325    1.9287 H   0  0  0  0  0  0  0  0  0  0  0  0
    0.8789    0.0259    3.3561 C   0  0  0  0  0  0  0  0  0  0  0  0
    1.7028    0.7475    3.3547 H   0  0  0  0  0  0  0  0  0  0  0  0
    0.1225    0.3687    4.0683 H   0  0  0  0  0  0  0  0  0  0  0  0
    1.2606   -0.9438    3.6928 H   0  0  0  0  0  0  0  0  0  0  0  0
  1  2  1  0  0  0  0
  2  3  1  0  0  0  0
  2  4  1  0  0  0  0
  2  5  1  0  0  0  0
  5  6  2  0  0  0  0
  5  7  1  0  0  0  0
  7  8  1  0  0  0  0
  7  9  1  0  0  0  0
  9 10  1  0  0  0  0
  9 11  1  0  0  0  0
  9 24  1  0  0  0  0
 11 12  1  0  0  0  0
 11 13  1  0  0  0  0
 11 17  1  0  0  0  0
 13 14  1  0  0  0  0
 13 15  1  0  0  0  0
 13 16  1  0  0  0  0
 17 18  1  0  0  0  0
 17 19  1  0  0  0  0
 17 20  1  0  0  0  0
 20 21  1  0  0  0  0
 20 22  1  0  0  0  0
 20 23  1  0  0  0  0
 24 25  2  0  0  0  0
 24 26  1  0  0  0  0
 26 27  1  0  0  0  0
 26 28  1  0  0  0  0
 28 29  1  0  0  0  0
 28 30  1  0  0  0  0
 28 31  1  0  0  0  0
M  END
$$$$

  -OEChem-03222214053D

 31 30  0     1  0  0  0  0  0999 V2000
   -2.5308   -4.2492    0.3160 H   0  0  0  0  0  0  0  0  0  0  0  0
   -2.5473   -3.2233   -0.0631 C   0  0  0  0  0  0  0  0  0  0  0  0
   -3.2714   -2.6463    0.5168 H   0  0  0  0  0  0  0  0  0  0  0  0
   -2.8589   -3.2413   -1.1103 H   0  0  0  0  0  0  0  0  0  0  0  0
   -1.1691   -2.6007    0.0580 C   0  0  0  0  0  0  0  0  0  0  0  0
   -0.2597   -3.2363    0.5588 O   0  0  0  0  0  0  0  0  0  0  0  0
   -0.9566   -1.3163   -0.4037 N   0  0  0  0  0  0  0  0  0  0  0  0
   -1.7315   -0.8725   -0.8866 H   0  0  0  0  0  0  0  0  0  0  0  0
    0.3602   -0.6486   -0.4444 C   0  0  1  0  0  0  0  0  0  0  0  0
    1.0240   -1.3172   -0.9969 H   0  0  0  0  0  0  0  0  0  0  0  0
    0.1932    0.6879   -1.2441 C   0  0  1  0  0  0  0  0  0  0  0  0
   -0.8774    0.8858   -1.3637 H   0  0  0  0  0  0  0  0  0  0  0  0
    0.7696    1.9296   -0.5339 C   0  0  0  0  0  0  0  0  0  0  0  0
    1.8324    1.8039   -0.3054 H   0  0  0  0  0  0  0  0  0  0  0  0
    0.6602    2.8152   -1.1675 H   0  0  0  0  0  0  0  0  0  0  0  0
    0.2334    2.1215    0.4001 H   0  0  0  0  0  0  0  0  0  0  0  0
    0.7915    0.5974   -2.6703 C   0  0  0  0  0  0  0  0  0  0  0  0
    0.2570   -0.1840   -3.2202 H   0  0  0  0  0  0  0  0  0  0  0  0
    0.6058    1.5418   -3.1926 H   0  0  0  0  0  0  0  0  0  0  0  0
    2.2964    0.2897   -2.7466 C   0  0  0  0  0  0  0  0  0  0  0  0
    2.5374   -0.6899   -2.3275 H   0  0  0  0  0  0  0  0  0  0  0  0
    2.6169    0.2919   -3.7928 H   0  0  0  0  0  0  0  0  0  0  0  0
    2.8768    1.0477   -2.2136 H   0  0  0  0  0  0  0  0  0  0  0  0
    1.0270   -0.5091    0.9468 C   0  0  0  0  0  0  0  0  0  0  0  0
    2.2446   -0.5883    1.0495 O   0  0  0  0  0  0  0  0  0  0  0  0
    0.2885   -0.0846    2.0375 N   0  0  0  0  0  0  0  0  0  0  0  0
   -0.7199   -0.1258    1.9382 H   0  0  0  0  0  0  0  0  0  0  0  0
    0.8587    0.0432    3.3723 C   0  0  0  0  0  0  0  0  0  0  0  0
    1.6844    0.7626    3.3696 H   0  0  0  0  0  0  0  0  0  0  0  0
    0.0990    0.3947    4.0768 H   0  0  0  0  0  0  0  0  0  0  0  0
    1.2354   -0.9245    3.7202 H   0  0  0  0  0  0  0  0  0  0  0  0
  1  2  1  0  0  0  0
  2  3  1  0  0  0  0
  2  4  1  0  0  0  0
  2  5  1  0  0  0  0
  5  6  2  0  0  0  0
  5  7  1  0  0  0  0
  7  8  1  0  0  0  0
  7  9  1  0  0  0  0
  9 10  1  0  0  0  0
  9 11  1  0  0  0  0
  9 24  1  0  0  0  0
 11 12  1  0  0  0  0
 11 13  1  0  0  0  0
 11 17  1  0  0  0  0
 13 14  1  0  0  0  0
 13 15  1  0  0  0  0
 13 16  1  0  0  0  0
 17 18  1  0  0  0  0
 17 19  1  0  0  0  0
 17 20  1  0  0  0  0
 20 21  1  0  0  0  0
 20 22  1  0  0  0  0
 20 23  1  0  0  0  0
 24 25  2  0  0  0  0
 24 26  1  0  0  0  0
 26 27  1  0  0  0  0
 26 28  1  0  0  0  0
 28 29  1  0  0  0  0
 28 30  1  0  0  0  0
 28 31  1  0  0  0  0
M  END
$$$$

  -OEChem-03222214053D

 31 30  0     1  0  0  0  0  0999 V2000
   -2.5407   -4.2496    0.3575 H   0  0  0  0  0  0  0  0  0  0  0  0
   -2.5513   -3.2288   -0.0358 C   0  0  0  0  0  0  0  0  0  0  0  0
   -3.2742   -2.6403    0.5341 H   0  0  0  0  0  0  0  0  0  0  0  0
   -2.8601   -3.2602   -1.0834 H   0  0  0  0  0  0  0  0  0  0  0  0
   -1.1705   -2.6111    0.0808 C   0  0  0  0  0  0  0  0  0  0  0  0
   -0.2664   -3.2448    0.5936 O   0  0  0  0  0  0  0  0  0  0  0  0
   -0.9515   -1.3324   -0.3941 N   0  0  0  0  0  0  0  0  0  0  0  0
   -1.7233   -0.8913   -0.8845 H   0  0  0  0  0  0  0  0  0  0  0  0
    0.3674   -0.6679   -0.4353 C   0  0  1  0  0  0  0  0  0  0  0  0
    1.0376   -1.3442   -0.9669 H   0  0  0  0  0  0  0  0  0  0  0  0
    0.1995    0.6653   -1.2473 C   0  0  1  0  0  0  0  0  0  0  0  0
   -0.8698    0.8803   -1.3469 H   0  0  0  0  0  0  0  0  0  0  0  0
    0.8111    1.8958   -0.5440 C   0  0  0  0  0  0  0  0  0  0  0  0
    1.8852    1.7636   -0.3791 H   0  0  0  0  0  0  0  0  0  0  0  0
    0.6680    2.7954   -1.1505 H   0  0  0  0  0  0  0  0  0  0  0  0
    0.3264    2.0741    0.4200 H   0  0  0  0  0  0  0  0  0  0  0  0
    0.7877    0.6067   -2.6842 C   0  0  0  0  0  0  0  0  0  0  0  0
    0.1008    0.0311   -3.3128 H   0  0  0  0  0  0  0  0  0  0  0  0
    0.8207    1.6193   -3.0994 H   0  0  0  0  0  0  0  0  0  0  0  0
    2.1824   -0.0208   -2.8279 C   0  0  0  0  0  0  0  0  0  0  0  0
    2.1448   -1.1098   -2.7405 H   0  0  0  0  0  0  0  0  0  0  0  0
    2.5909    0.2156   -3.8152 H   0  0  0  0  0  0  0  0  0  0  0  0
    2.8668    0.3728   -2.0704 H   0  0  0  0  0  0  0  0  0  0  0  0
    1.0196   -0.5185    0.9625 C   0  0  0  0  0  0  0  0  0  0  0  0
    2.2360   -0.5964    1.0795 O   0  0  0  0  0  0  0  0  0  0  0  0
    0.2692   -0.0828    2.0407 N   0  0  0  0  0  0  0  0  0  0  0  0
   -0.7380   -0.1190    1.9281 H   0  0  0  0  0  0  0  0  0  0  0  0
    0.8229    0.0660    3.3804 C   0  0  0  0  0  0  0  0  0  0  0  0
    1.6496    0.7842    3.3764 H   0  0  0  0  0  0  0  0  0  0  0  0
    0.0545    0.4299    4.0690 H   0  0  0  0  0  0  0  0  0  0  0  0
    1.1936   -0.8962    3.7493 H   0  0  0  0  0  0  0  0  0  0  0  0
  1  2  1  0  0  0  0
  2  3  1  0  0  0  0
  2  4  1  0  0  0  0
  2  5  1  0  0  0  0
  5  6  2  0  0  0  0
  5  7  1  0  0  0  0
  7  8  1  0  0  0  0
  7  9  1  0  0  0  0
  9 10  1  0  0  0  0
  9 11  1  0  0  0  0
  9 24  1  0  0  0  0
 11 12  1  0  0  0  0
 11 13  1  0  0  0  0
 11 17  1  0  0  0  0
 13 14  1  0  0  0  0
 13 15  1  0  0  0  0
 13 16  1  0  0  0  0
 17 18  1  0  0  0  0
 17 19  1  0  0  0  0
 17 20  1  0  0  0  0
 20 21  1  0  0  0  0
 20 22  1  0  0  0  0
 20 23  1  0  0  0  0
 24 25  2  0  0  0  0
 24 26  1  0  0  0  0
 26 27  1  0  0  0  0
 26 28  1  0  0  0  0
 28 29  1  0  0  0  0
 28 30  1  0  0  0  0
 28 31  1  0  0  0  0
M  END
$$$$

  -OEChem-03222214053D

 31 30  0     1  0  0  0  0  0999 V2000
   -2.5504   -4.2500    0.3772 H   0  0  0  0  0  0  0  0  0  0  0  0
   -2.5564   -3.2321   -0.0235 C   0  0  0  0  0  0  0  0  0  0  0  0
   -3.2853   -2.6394    0.5342 H   0  0  0  0  0  0  0  0  0  0  0  0
   -2.8540   -3.2712   -1.0741 H   0  0  0  0  0  0  0  0  0  0  0  0
   -1.1768   -2.6137    0.1033 C   0  0  0  0  0  0  0  0  0  0  0  0
   -0.2779   -3.2456    0.6272 O   0  0  0  0  0  0  0  0  0  0  0  0
   -0.9510   -1.3396   -0.3809 N   0  0  0  0  0  0  0  0  0  0  0  0
   -1.7166   -0.9035   -0.8852 H   0  0  0  0  0  0  0  0  0  0  0  0
    0.3707   -0.6811   -0.4229 C   0  0  1  0  0  0  0  0  0  0  0  0
    1.0455   -1.3668   -0.9345 H   0  0  0  0  0  0  0  0  0  0  0  0
    0.2059    0.6503   -1.2460 C   0  0  1  0  0  0  0  0  0  0  0  0
   -0.8623    0.8771   -1.3309 H   0  0  0  0  0  0  0  0  0  0  0  0
    0.8374    1.8720   -0.5432 C   0  0  0  0  0  0  0  0  0  0  0  0
    1.9159    1.7327   -0.4140 H   0  0  0  0  0  0  0  0  0  0  0  0
    0.6783    2.7810   -1.1316 H   0  0  0  0  0  0  0  0  0  0  0  0
    0.3819    2.0421    0.4362 H   0  0  0  0  0  0  0  0  0  0  0  0
    0.7858    0.6151   -2.6934 C   0  0  0  0  0  0  0  0  0  0  0  0
   -0.0121    0.2794   -3.3635 H   0  0  0  0  0  0  0  0  0  0  0  0
    1.0502    1.6291   -3.0108 H   0  0  0  0  0  0  0  0  0  0  0  0
    1.9953   -0.2930   -2.9478 C   0  0  0  0  0  0  0  0  0  0  0  0
    1.7037   -1.3474   -2.9577 H   0  0  0  0  0  0  0  0  0  0  0  0
    2.4320   -0.0617   -3.9241 H   0  0  0  0  0  0  0  0  0  0  0  0
    2.7622   -0.1374   -2.1820 H   0  0  0  0  0  0  0  0  0  0  0  0
    1.0121   -0.5271    0.9800 C   0  0  0  0  0  0  0  0  0  0  0  0
    2.2275   -0.6063    1.1066 O   0  0  0  0  0  0  0  0  0  0  0  0
    0.2553   -0.0820    2.0501 N   0  0  0  0  0  0  0  0  0  0  0  0
   -0.7512   -0.1195    1.9320 H   0  0  0  0  0  0  0  0  0  0  0  0
    0.8015    0.0756    3.3917 C   0  0  0  0  0  0  0  0  0  0  0  0
    1.6284    0.7937    3.3873 H   0  0  0  0  0  0  0  0  0  0  0  0
    0.0297    0.4442    4.0738 H   0  0  0  0  0  0  0  0  0  0  0  0
    1.1701   -0.8843    3.7687 H   0  0  0  0  0  0  0  0  0  0  0  0
  1  2  1  0  0  0  0
  2  3  1  0  0  0  0
  2  4  1  0  0  0  0
  2  5  1  0  0  0  0
  5  6  2  0  0  0  0
  5  7  1  0  0  0  0
  7  8  1  0  0  0  0
  7  9  1  0  0  0  0
  9 10  1  0  0  0  0
  9 11  1  0  0  0  0
  9 24  1  0  0  0  0
 11 12  1  0  0  0  0
 11 13  1  0  0  0  0
 11 17  1  0  0  0  0
 13 14  1  0  0  0  0
 13 15  1  0  0  0  0
 13 16  1  0  0  0  0
 17 18  1  0  0  0  0
 17 19  1  0  0  0  0
 17 20  1  0  0  0  0
 20 21  1  0  0  0  0
 20 22  1  0  0  0  0
 20 23  1  0  0  0  0
 24 25  2  0  0  0  0
 24 26  1  0  0  0  0
 26 27  1  0  0  0  0
 26 28  1  0  0  0  0
 28 29  1  0  0  0  0
 28 30  1  0  0  0  0
 28 31  1  0  0  0  0
M  END
$$$$

  -OEChem-03222214053D

 31 30  0     1  0  0  0  0  0999 V2000
   -2.5658   -4.2445    0.4006 H   0  0  0  0  0  0  0  0  0  0  0  0
   -2.5667   -3.2279   -0.0035 C   0  0  0  0  0  0  0  0  0  0  0  0
   -3.2897   -2.6285    0.5547 H   0  0  0  0  0  0  0  0  0  0  0  0
   -2.8676   -3.2684   -1.0531 H   0  0  0  0  0  0  0  0  0  0  0  0
   -1.1828   -2.6177    0.1173 C   0  0  0  0  0  0  0  0  0  0  0  0
   -0.2876   -3.2514    0.6455 O   0  0  0  0  0  0  0  0  0  0  0  0
   -0.9498   -1.3479   -0.3749 N   0  0  0  0  0  0  0  0  0  0  0  0
   -1.7131   -0.9107   -0.8817 H   0  0  0  0  0  0  0  0  0  0  0  0
    0.3752   -0.6951   -0.4186 C   0  0  1  0  0  0  0  0  0  0  0  0
    1.0538   -1.3864   -0.9170 H   0  0  0  0  0  0  0  0  0  0  0  0
    0.2206    0.6373   -1.2455 C   0  0  1  0  0  0  0  0  0  0  0  0
   -0.8489    0.8561   -1.3331 H   0  0  0  0  0  0  0  0  0  0  0  0
    0.8299    1.8651   -0.5337 C   0  0  0  0  0  0  0  0  0  0  0  0
    1.9080    1.7365   -0.3904 H   0  0  0  0  0  0  0  0  0  0  0  0
    0.6683    2.7720   -1.1252 H   0  0  0  0  0  0  0  0  0  0  0  0
    0.3598    2.0307    0.4395 H   0  0  0  0  0  0  0  0  0  0  0  0
    0.7961    0.6192   -2.6997 C   0  0  0  0  0  0  0  0  0  0  0  0
   -0.0534    0.5681   -3.3882 H   0  0  0  0  0  0  0  0  0  0  0  0
    1.3087    1.5635   -2.9111 H   0  0  0  0  0  0  0  0  0  0  0  0
    1.7524   -0.5140   -3.0861 C   0  0  0  0  0  0  0  0  0  0  0  0
    1.2375   -1.4797   -3.0824 H   0  0  0  0  0  0  0  0  0  0  0  0
    2.1385   -0.3447   -4.0959 H   0  0  0  0  0  0  0  0  0  0  0  0
    2.6026   -0.5527   -2.3970 H   0  0  0  0  0  0  0  0  0  0  0  0
    1.0105   -0.5365    0.9865 C   0  0  0  0  0  0  0  0  0  0  0  0
    2.2250   -0.6191    1.1188 O   0  0  0  0  0  0  0  0  0  0  0  0
    0.2510   -0.0824    2.0509 N   0  0  0  0  0  0  0  0  0  0  0  0
   -0.7551   -0.1167    1.9283 H   0  0  0  0  0  0  0  0  0  0  0  0
    0.7915    0.0751    3.3948 C   0  0  0  0  0  0  0  0  0  0  0  0
    1.6236    0.7870    3.3927 H   0  0  0  0  0  0  0  0  0  0  0  0
    0.0190    0.4513    4.0719 H   0  0  0  0  0  0  0  0  0  0  0  0
    1.1513   -0.8864    3.7762 H   0  0  0  0  0  0  0  0  0  0  0  0
  1  2  1  0  0  0  0
  2  3  1  0  0  0  0
  2  4  1  0  0  0  0
  2  5  1  0  0  0  0
  5  6  2  0  0  0  0
  5  7  1  0  0  0  0
  7  8  1  0  0  0  0
  7  9  1  0  0  0  0
  9 10  1  0  0  0  0
  9 11  1  0  0  0  0
  9 24  1  0  0  0  0
 11 12  1  0  0  0  0
 11 13  1  0  0  0  0
 11 17  1  0  0  0  0
 13 14  1  0  0  0  0
 13 15  1  0  0  0  0
 13 16  1  0  0  0  0
 17 18  1  0  0  0  0
 17 19  1  0  0  0  0
 17 20  1  0  0  0  0
 20 21  1  0  0  0  0
 20 22  1  0  0  0  0
 20 23  1  0  0  0  0
 24 25  2  0  0  0  0
 24 26  1  0  0  0  0
 26 27  1  0  0  0  0
 26 28  1  0  0  0  0
 28 29  1  0  0  0  0
 28 30  1  0  0  0  0
 28 31  1  0  0  0  0
M  END
$$$$

  -OEChem-03222214053D

 31 30  0     1  0  0  0  0  0999 V2000
   -2.5785   -4.2411    0.4115 H   0  0  0  0  0  0  0  0  0  0  0  0
   -2.5747   -3.2264    0.0029 C   0  0  0  0  0  0  0  0  0  0  0  0
   -3.2983   -2.6224    0.5552 H   0  0  0  0  0  0  0  0  0  0  0  0
   -2.8716   -3.2707   -1.0478 H   0  0  0  0  0  0  0  0  0  0  0  0
   -1.1895   -2.6195    0.1259 C   0  0  0  0  0  0  0  0  0  0  0  0
   -0.2978   -3.2528    0.6604 O   0  0  0  0  0  0  0  0  0  0  0  0
   -0.9522   -1.3526   -0.3714 N   0  0  0  0  0  0  0  0  0  0  0  0
   -1.7123   -0.9180   -0.8854 H   0  0  0  0  0  0  0  0  0  0  0  0
    0.3752   -0.7046   -0.4193 C   0  0  1  0  0  0  0  0  0  0  0  0
    1.0560   -1.3950   -0.9168 H   0  0  0  0  0  0  0  0  0  0  0  0
    0.2303    0.6308   -1.2423 C   0  0  1  0  0  0  0  0  0  0  0  0
   -0.8415    0.8358   -1.3367 H   0  0  0  0  0  0  0  0  0  0  0  0
    0.8167    1.8667   -0.5279 C   0  0  0  0  0  0  0  0  0  0  0  0
    1.8912    1.7439   -0.3553 H   0  0  0  0  0  0  0  0  0  0  0  0
    0.6677    2.7648   -1.1358 H   0  0  0  0  0  0  0  0  0  0  0  0
    0.3212    2.0389    0.4316 H   0  0  0  0  0  0  0  0  0  0  0  0
    0.8009    0.6200   -2.6986 C   0  0  0  0  0  0  0  0  0  0  0  0
   -0.0200    0.8720   -3.3780 H   0  0  0  0  0  0  0  0  0  0  0  0
    1.5506    1.4110   -2.8080 H   0  0  0  0  0  0  0  0  0  0  0  0
    1.4490   -0.6689   -3.2148 C   0  0  0  0  0  0  0  0  0  0  0  0
    0.7459   -1.5061   -3.1637 H   0  0  0  0  0  0  0  0  0  0  0  0
    1.7488   -0.5403   -4.2594 H   0  0  0  0  0  0  0  0  0  0  0  0
    2.3450   -0.9112   -2.6345 H   0  0  0  0  0  0  0  0  0  0  0  0
    1.0113   -0.5436    0.9854 C   0  0  0  0  0  0  0  0  0  0  0  0
    2.2256   -0.6288    1.1176 O   0  0  0  0  0  0  0  0  0  0  0  0
    0.2539   -0.0833    2.0487 N   0  0  0  0  0  0  0  0  0  0  0  0
   -0.7523   -0.1176    1.9275 H   0  0  0  0  0  0  0  0  0  0  0  0
    0.7957    0.0798    3.3916 C   0  0  0  0  0  0  0  0  0  0  0  0
    1.6282    0.7912    3.3858 H   0  0  0  0  0  0  0  0  0  0  0  0
    0.0237    0.4594    4.0676 H   0  0  0  0  0  0  0  0  0  0  0  0
    1.1552   -0.8800    3.7773 H   0  0  0  0  0  0  0  0  0  0  0  0
  1  2  1  0  0  0  0
  2  3  1  0  0  0  0
  2  4  1  0  0  0  0
  2  5  1  0  0  0  0
  5  6  2  0  0  0  0
  5  7  1  0  0  0  0
  7  8  1  0  0  0  0
  7  9  1  0  0  0  0
  9 10  1  0  0  0  0
  9 11  1  0  0  0  0
  9 24  1  0  0  0  0
 11 12  1  0  0  0  0
 11 13  1  0  0  0  0
 11 17  1  0  0  0  0
 13 14  1  0  0  0  0
 13 15  1  0  0  0  0
 13 16  1  0  0  0  0
 17 18  1  0  0  0  0
 17 19  1  0  0  0  0
 17 20  1  0  0  0  0
 20 21  1  0  0  0  0
 20 22  1  0  0  0  0
 20 23  1  0  0  0  0
 24 25  2  0  0  0  0
 24 26  1  0  0  0  0
 26 27  1  0  0  0  0
 26 28  1  0  0  0  0
 28 29  1  0  0  0  0
 28 30  1  0  0  0  0
 28 31  1  0  0  0  0
M  END
$$$$

  -OEChem-03222214053D

 31 30  0     1  0  0  0  0  0999 V2000
   -2.5756   -4.2406    0.4186 H   0  0  0  0  0  0  0  0  0  0  0  0
   -2.5740   -3.2265    0.0085 C   0  0  0  0  0  0  0  0  0  0  0  0
   -3.2948   -2.6220    0.5642 H   0  0  0  0  0  0  0  0  0  0  0  0
   -2.8770   -3.2721   -1.0403 H   0  0  0  0  0  0  0  0  0  0  0  0
   -1.1878   -2.6201    0.1229 C   0  0  0  0  0  0  0  0  0  0  0  0
   -0.2917   -3.2554    0.6475 O   0  0  0  0  0  0  0  0  0  0  0  0
   -0.9534   -1.3529   -0.3749 N   0  0  0  0  0  0  0  0  0  0  0  0
   -1.7166   -0.9171   -0.8833 H   0  0  0  0  0  0  0  0  0  0  0  0
    0.3738   -0.7041   -0.4274 C   0  0  1  0  0  0  0  0  0  0  0  0
    1.0589   -1.3856   -0.9328 H   0  0  0  0  0  0  0  0  0  0  0  0
    0.2313    0.6355   -1.2397 C   0  0  1  0  0  0  0  0  0  0  0  0
   -0.8415    0.8344   -1.3355 H   0  0  0  0  0  0  0  0  0  0  0  0
    0.8176    1.8736   -0.5317 C   0  0  0  0  0  0  0  0  0  0  0  0
    1.8894    1.7466   -0.3458 H   0  0  0  0  0  0  0  0  0  0  0  0
    0.6817    2.7652   -1.1519 H   0  0  0  0  0  0  0  0  0  0  0  0
    0.3129    2.0563    0.4211 H   0  0  0  0  0  0  0  0  0  0  0  0
    0.7976    0.6214   -2.6933 C   0  0  0  0  0  0  0  0  0  0  0  0
    0.0820    1.1433   -3.3369 H   0  0  0  0  0  0  0  0  0  0  0  0
    1.7307    1.1946   -2.7258 H   0  0  0  0  0  0  0  0  0  0  0  0
    1.1051   -0.7413   -3.3252 C   0  0  0  0  0  0  0  0  0  0  0  0
    0.2489   -1.4159   -3.2286 H   0  0  0  0  0  0  0  0  0  0  0  0
    1.3223   -0.6135   -4.3901 H   0  0  0  0  0  0  0  0  0  0  0  0
    1.9827   -1.2008   -2.8604 H   0  0  0  0  0  0  0  0  0  0  0  0
    1.0116   -0.5449    0.9765 C   0  0  0  0  0  0  0  0  0  0  0  0
    2.2260   -0.6288    1.1084 O   0  0  0  0  0  0  0  0  0  0  0  0
    0.2541   -0.0859    2.0401 N   0  0  0  0  0  0  0  0  0  0  0  0
   -0.7521   -0.1152    1.9173 H   0  0  0  0  0  0  0  0  0  0  0  0
    0.7950    0.0783    3.3832 C   0  0  0  0  0  0  0  0  0  0  0  0
    1.6281    0.7890    3.3765 H   0  0  0  0  0  0  0  0  0  0  0  0
    0.0229    0.4598    4.0582 H   0  0  0  0  0  0  0  0  0  0  0  0
    1.1531   -0.8814    3.7708 H   0  0  0  0  0  0  0  0  0  0  0  0
  1  2  1  0  0  0  0
  2  3  1  0  0  0  0
  2  4  1  0  0  0  0
  2  5  1  0  0  0  0
  5  6  2  0  0  0  0
  5  7  1  0  0  0  0
  7  8  1  0  0  0  0
  7  9  1  0  0  0  0
  9 10  1  0  0  0  0
  9 11  1  0  0  0  0
  9 24  1  0  0  0  0
 11 12  1  0  0  0  0
 11 13  1  0  0  0  0
 11 17  1  0  0  0  0
 13 14  1  0  0  0  0
 13 15  1  0  0  0  0
 13 16  1  0  0  0  0
 17 18  1  0  0  0  0
 17 19  1  0  0  0  0
 17 20  1  0  0  0  0
 20 21  1  0  0  0  0
 20 22  1  0  0  0  0
 20 23  1  0  0  0  0
 24 25  2  0  0  0  0
 24 26  1  0  0  0  0
 26 27  1  0  0  0  0
 26 28  1  0  0  0  0
 28 29  1  0  0  0  0
 28 30  1  0  0  0  0
 28 31  1  0  0  0  0
M  END
$$$$

  -OEChem-03222214053D

 31 30  0     1  0  0  0  0  0999 V2000
   -2.5626   -4.2422    0.3999 H   0  0  0  0  0  0  0  0  0  0  0  0
   -2.5672   -3.2239    0.0002 C   0  0  0  0  0  0  0  0  0  0  0  0
   -3.2828   -2.6259    0.5695 H   0  0  0  0  0  0  0  0  0  0  0  0
   -2.8805   -3.2593   -1.0460 H   0  0  0  0  0  0  0  0  0  0  0  0
   -1.1814   -2.6157    0.1070 C   0  0  0  0  0  0  0  0  0  0  0  0
   -0.2805   -3.2509    0.6233 O   0  0  0  0  0  0  0  0  0  0  0  0
   -0.9545   -1.3448   -0.3844 N   0  0  0  0  0  0  0  0  0  0  0  0
   -1.7227   -0.9078   -0.8842 H   0  0  0  0  0  0  0  0  0  0  0  0
    0.3688   -0.6886   -0.4373 C   0  0  1  0  0  0  0  0  0  0  0  0
    1.0598   -1.3557   -0.9556 H   0  0  0  0  0  0  0  0  0  0  0  0
    0.2193    0.6516   -1.2404 C   0  0  1  0  0  0  0  0  0  0  0  0
   -0.8534    0.8506   -1.3364 H   0  0  0  0  0  0  0  0  0  0  0  0
    0.8172    1.8897   -0.5441 C   0  0  0  0  0  0  0  0  0  0  0  0
    1.8892    1.7582   -0.3631 H   0  0  0  0  0  0  0  0  0  0  0  0
    0.6834    2.7778   -1.1698 H   0  0  0  0  0  0  0  0  0  0  0  0
    0.3185    2.0805    0.4105 H   0  0  0  0  0  0  0  0  0  0  0  0
    0.7891    0.6186   -2.6861 C   0  0  0  0  0  0  0  0  0  0  0  0
    0.2343    1.3470   -3.2866 H   0  0  0  0  0  0  0  0  0  0  0  0
    1.8353    0.9431   -2.6679 H   0  0  0  0  0  0  0  0  0  0  0  0
    0.7546   -0.7347   -3.4088 C   0  0  0  0  0  0  0  0  0  0  0  0
   -0.2300   -1.2013   -3.3089 H   0  0  0  0  0  0  0  0  0  0  0  0
    0.9584   -0.5871   -4.4737 H   0  0  0  0  0  0  0  0  0  0  0  0
    1.5168   -1.4158   -3.0200 H   0  0  0  0  0  0  0  0  0  0  0  0
    1.0114   -0.5328    0.9645 C   0  0  0  0  0  0  0  0  0  0  0  0
    2.2266   -0.6146    1.0906 O   0  0  0  0  0  0  0  0  0  0  0  0
    0.2568   -0.0832    2.0343 N   0  0  0  0  0  0  0  0  0  0  0  0
   -0.7498   -0.1147    1.9160 H   0  0  0  0  0  0  0  0  0  0  0  0
    0.8026    0.0647    3.3771 C   0  0  0  0  0  0  0  0  0  0  0  0
    1.6364    0.7747    3.3767 H   0  0  0  0  0  0  0  0  0  0  0  0
    0.0332    0.4383    4.0594 H   0  0  0  0  0  0  0  0  0  0  0  0
    1.1614   -0.9002    3.7511 H   0  0  0  0  0  0  0  0  0  0  0  0
  1  2  1  0  0  0  0
  2  3  1  0  0  0  0
  2  4  1  0  0  0  0
  2  5  1  0  0  0  0
  5  6  2  0  0  0  0
  5  7  1  0  0  0  0
  7  8  1  0  0  0  0
  7  9  1  0  0  0  0
  9 10  1  0  0  0  0
  9 11  1  0  0  0  0
  9 24  1  0  0  0  0
 11 12  1  0  0  0  0
 11 13  1  0  0  0  0
 11 17  1  0  0  0  0
 13 14  1  0  0  0  0
 13 15  1  0  0  0  0
 13 16  1  0  0  0  0
 17 18  1  0  0  0  0
 17 19  1  0  0  0  0
 17 20  1  0  0  0  0
 20 21  1  0  0  0  0
 20 22  1  0  0  0  0
 20 23  1  0  0  0  0
 24 25  2  0  0  0  0
 24 26  1  0  0  0  0
 26 27  1  0  0  0  0
 26 28  1  0  0  0  0
 28 29  1  0  0  0  0
 28 30  1  0  0  0  0
 28 31  1  0  0  0  0
M  END
$$$$

  -OEChem-03222214053D

 31 30  0     1  0  0  0  0  0999 V2000
   -2.5383   -4.2472    0.3667 H   0  0  0  0  0  0  0  0  0  0  0  0
   -2.5507   -3.2267   -0.0271 C   0  0  0  0  0  0  0  0  0  0  0  0
   -3.2704   -2.6374    0.5460 H   0  0  0  0  0  0  0  0  0  0  0  0
   -2.8647   -3.2584   -1.0732 H   0  0  0  0  0  0  0  0  0  0  0  0
   -1.1694   -2.6084    0.0829 C   0  0  0  0  0  0  0  0  0  0  0  0
   -0.2624   -3.2417    0.5908 O   0  0  0  0  0  0  0  0  0  0  0  0
   -0.9532   -1.3315   -0.3975 N   0  0  0  0  0  0  0  0  0  0  0  0
   -1.7246   -0.8976   -0.8947 H   0  0  0  0  0  0  0  0  0  0  0  0
    0.3654   -0.6662   -0.4490 C   0  0  1  0  0  0  0  0  0  0  0  0
    1.0631   -1.3156   -0.9838 H   0  0  0  0  0  0  0  0  0  0  0  0
    0.2008    0.6781   -1.2377 C   0  0  1  0  0  0  0  0  0  0  0  0
   -0.8701    0.8905   -1.3240 H   0  0  0  0  0  0  0  0  0  0  0  0
    0.8329    1.9054   -0.5528 C   0  0  0  0  0  0  0  0  0  0  0  0
    1.9068    1.7577   -0.3978 H   0  0  0  0  0  0  0  0  0  0  0  0
    0.6978    2.7976   -1.1720 H   0  0  0  0  0  0  0  0  0  0  0  0
    0.3601    2.1000    0.4141 H   0  0  0  0  0  0  0  0  0  0  0  0
    0.7747    0.6178   -2.6753 C   0  0  0  0  0  0  0  0  0  0  0  0
    0.4184    1.4923   -3.2299 H   0  0  0  0  0  0  0  0  0  0  0  0
    1.8675    0.6797   -2.6305 H   0  0  0  0  0  0  0  0  0  0  0  0
    0.4068   -0.6436   -3.4692 C   0  0  0  0  0  0  0  0  0  0  0  0
   -0.6725   -0.8185   -3.4293 H   0  0  0  0  0  0  0  0  0  0  0  0
    0.6963   -0.5154   -4.5166 H   0  0  0  0  0  0  0  0  0  0  0  0
    0.9233   -1.5292   -3.0904 H   0  0  0  0  0  0  0  0  0  0  0  0
    1.0115   -0.5193    0.9522 C   0  0  0  0  0  0  0  0  0  0  0  0
    2.2272   -0.5992    1.0752 O   0  0  0  0  0  0  0  0  0  0  0  0
    0.2573   -0.0845    2.0283 N   0  0  0  0  0  0  0  0  0  0  0  0
   -0.7495   -0.1186    1.9118 H   0  0  0  0  0  0  0  0  0  0  0  0
    0.8061    0.0543    3.3711 C   0  0  0  0  0  0  0  0  0  0  0  0
    1.6344    0.7707    3.3750 H   0  0  0  0  0  0  0  0  0  0  0  0
    0.0362    0.4149    4.0597 H   0  0  0  0  0  0  0  0  0  0  0  0
    1.1738   -0.9111    3.7347 H   0  0  0  0  0  0  0  0  0  0  0  0
  1  2  1  0  0  0  0
  2  3  1  0  0  0  0
  2  4  1  0  0  0  0
  2  5  1  0  0  0  0
  5  6  2  0  0  0  0
  5  7  1  0  0  0  0
  7  8  1  0  0  0  0
  7  9  1  0  0  0  0
  9 10  1  0  0  0  0
  9 11  1  0  0  0  0
  9 24  1  0  0  0  0
 11 12  1  0  0  0  0
 11 13  1  0  0  0  0
 11 17  1  0  0  0  0
 13 14  1  0  0  0  0
 13 15  1  0  0  0  0
 13 16  1  0  0  0  0
 17 18  1  0  0  0  0
 17 19  1  0  0  0  0
 17 20  1  0  0  0  0
 20 21  1  0  0  0  0
 20 22  1  0  0  0  0
 20 23  1  0  0  0  0
 24 25  2  0  0  0  0
 24 26  1  0  0  0  0
 26 27  1  0  0  0  0
 26 28  1  0  0  0  0
 28 29  1  0  0  0  0
 28 30  1  0  0  0  0
 28 31  1  0  0  0  0
M  END
$$$$

  -OEChem-03222214053D

 31 30  0     1  0  0  0  0  0999 V2000
   -2.5172   -4.2509    0.3108 H   0  0  0  0  0  0  0  0  0  0  0  0
   -2.5380   -3.2248   -0.0679 C   0  0  0  0  0  0  0  0  0  0  0  0
   -3.2664   -2.6513    0.5105 H   0  0  0  0  0  0  0  0  0  0  0  0
   -2.8470   -3.2449   -1.1158 H   0  0  0  0  0  0  0  0  0  0  0  0
   -1.1634   -2.5948    0.0559 C   0  0  0  0  0  0  0  0  0  0  0  0
   -0.2525   -3.2261    0.5593 O   0  0  0  0  0  0  0  0  0  0  0  0
   -0.9564   -1.3105   -0.4088 N   0  0  0  0  0  0  0  0  0  0  0  0
   -1.7301   -0.8760   -0.9022 H   0  0  0  0  0  0  0  0  0  0  0  0
    0.3581   -0.6375   -0.4558 C   0  0  1  0  0  0  0  0  0  0  0  0
    1.0505   -1.2787   -1.0114 H   0  0  0  0  0  0  0  0  0  0  0  0
    0.1826    0.7079   -1.2361 C   0  0  1  0  0  0  0  0  0  0  0  0
   -0.8859    0.9332   -1.3213 H   0  0  0  0  0  0  0  0  0  0  0  0
    0.8363    1.9275   -0.5583 C   0  0  0  0  0  0  0  0  0  0  0  0
    1.9127    1.7727   -0.4297 H   0  0  0  0  0  0  0  0  0  0  0  0
    0.6910    2.8249   -1.1677 H   0  0  0  0  0  0  0  0  0  0  0  0
    0.3871    2.1190    0.4205 H   0  0  0  0  0  0  0  0  0  0  0  0
    0.7707    0.6086   -2.6611 C   0  0  0  0  0  0  0  0  0  0  0  0
    0.6418    1.5683   -3.1724 H   0  0  0  0  0  0  0  0  0  0  0  0
    1.8463    0.4092   -2.6008 H   0  0  0  0  0  0  0  0  0  0  0  0
    0.1072   -0.4805   -3.5126 C   0  0  0  0  0  0  0  0  0  0  0  0
   -0.9741   -0.3207   -3.5599 H   0  0  0  0  0  0  0  0  0  0  0  0
    0.5062   -0.4484   -4.5310 H   0  0  0  0  0  0  0  0  0  0  0  0
    0.2968   -1.4784   -3.1073 H   0  0  0  0  0  0  0  0  0  0  0  0
    1.0137   -0.5017    0.9412 C   0  0  0  0  0  0  0  0  0  0  0  0
    2.2307   -0.5760    1.0538 O   0  0  0  0  0  0  0  0  0  0  0  0
    0.2636   -0.0830    2.0263 N   0  0  0  0  0  0  0  0  0  0  0  0
   -0.7436   -0.1262    1.9158 H   0  0  0  0  0  0  0  0  0  0  0  0
    0.8195    0.0397    3.3674 C   0  0  0  0  0  0  0  0  0  0  0  0
    1.6423    0.7622    3.3769 H   0  0  0  0  0  0  0  0  0  0  0  0
    0.0510    0.3840    4.0656 H   0  0  0  0  0  0  0  0  0  0  0  0
    1.1967   -0.9280    3.7143 H   0  0  0  0  0  0  0  0  0  0  0  0
  1  2  1  0  0  0  0
  2  3  1  0  0  0  0
  2  4  1  0  0  0  0
  2  5  1  0  0  0  0
  5  6  2  0  0  0  0
  5  7  1  0  0  0  0
  7  8  1  0  0  0  0
  7  9  1  0  0  0  0
  9 10  1  0  0  0  0
  9 11  1  0  0  0  0
  9 24  1  0  0  0  0
 11 12  1  0  0  0  0
 11 13  1  0  0  0  0
 11 17  1  0  0  0  0
 13 14  1  0  0  0  0
 13 15  1  0  0  0  0
 13 16  1  0  0  0  0
 17 18  1  0  0  0  0
 17 19  1  0  0  0  0
 17 20  1  0  0  0  0
 20 21  1  0  0  0  0
 20 22  1  0  0  0  0
 20 23  1  0  0  0  0
 24 25  2  0  0  0  0
 24 26  1  0  0  0  0
 26 27  1  0  0  0  0
 26 28  1  0  0  0  0
 28 29  1  0  0  0  0
 28 30  1  0  0  0  0
 28 31  1  0  0  0  0
M  END
$$$$

  -OEChem-03222214053D

 31 30  0     1  0  0  0  0  0999 V2000
   -2.5129   -4.2467    0.2796 H   0  0  0  0  0  0  0  0  0  0  0  0
   -2.5351   -3.2192   -0.0949 C   0  0  0  0  0  0  0  0  0  0  0  0
   -3.2681   -2.6506    0.4820 H   0  0  0  0  0  0  0  0  0  0  0  0
   -2.8383   -3.2354   -1.1444 H   0  0  0  0  0  0  0  0  0  0  0  0
   -1.1630   -2.5858    0.0396 C   0  0  0  0  0  0  0  0  0  0  0  0
   -0.2513   -3.2189    0.5396 O   0  0  0  0  0  0  0  0  0  0  0  0
   -0.9584   -1.2975   -0.4146 N   0  0  0  0  0  0  0  0  0  0  0  0
   -1.7321   -0.8618   -0.9069 H   0  0  0  0  0  0  0  0  0  0  0  0
    0.3545   -0.6218   -0.4558 C   0  0  1  0  0  0  0  0  0  0  0  0
    1.0391   -1.2647   -1.0203 H   0  0  0  0  0  0  0  0  0  0  0  0
    0.1720    0.7228   -1.2359 C   0  0  1  0  0  0  0  0  0  0  0  0
   -0.8942    0.9602   -1.3176 H   0  0  0  0  0  0  0  0  0  0  0  0
    0.8392    1.9349   -0.5567 C   0  0  0  0  0  0  0  0  0  0  0  0
    1.9167    1.7749   -0.4436 H   0  0  0  0  0  0  0  0  0  0  0  0
    0.6891    2.8388   -1.1554 H   0  0  0  0  0  0  0  0  0  0  0  0
    0.4034    2.1197    0.4294 H   0  0  0  0  0  0  0  0  0  0  0  0
    0.7719    0.6005   -2.6547 C   0  0  0  0  0  0  0  0  0  0  0  0
    0.8719    1.5961   -3.0997 H   0  0  0  0  0  0  0  0  0  0  0  0
    1.7760    0.1652   -2.6073 H   0  0  0  0  0  0  0  0  0  0  0  0
   -0.1185   -0.2336   -3.5797 C   0  0  0  0  0  0  0  0  0  0  0  0
   -1.1185    0.2053   -3.6493 H   0  0  0  0  0  0  0  0  0  0  0  0
    0.3151   -0.2667   -4.5839 H   0  0  0  0  0  0  0  0  0  0  0  0
   -0.2088   -1.2598   -3.2115 H   0  0  0  0  0  0  0  0  0  0  0  0
    1.0141   -0.4936    0.9406 C   0  0  0  0  0  0  0  0  0  0  0  0
    2.2315   -0.5668    1.0490 O   0  0  0  0  0  0  0  0  0  0  0  0
    0.2670   -0.0837    2.0312 N   0  0  0  0  0  0  0  0  0  0  0  0
   -0.7406   -0.1231    1.9236 H   0  0  0  0  0  0  0  0  0  0  0  0
    0.8278    0.0360    3.3709 C   0  0  0  0  0  0  0  0  0  0  0  0
    1.6474    0.7623    3.3800 H   0  0  0  0  0  0  0  0  0  0  0  0
    0.0608    0.3742    4.0740 H   0  0  0  0  0  0  0  0  0  0  0  0
    1.2108   -0.9315    3.7125 H   0  0  0  0  0  0  0  0  0  0  0  0
  1  2  1  0  0  0  0
  2  3  1  0  0  0  0
  2  4  1  0  0  0  0
  2  5  1  0  0  0  0
  5  6  2  0  0  0  0
  5  7  1  0  0  0  0
  7  8  1  0  0  0  0
  7  9  1  0  0  0  0
  9 10  1  0  0  0  0
  9 11  1  0  0  0  0
  9 24  1  0  0  0  0
 11 12  1  0  0  0  0
 11 13  1  0  0  0  0
 11 17  1  0  0  0  0
 13 14  1  0  0  0  0
 13 15  1  0  0  0  0
 13 16  1  0  0  0  0
 17 18  1  0  0  0  0
 17 19  1  0  0  0  0
 17 20  1  0  0  0  0
 20 21  1  0  0  0  0
 20 22  1  0  0  0  0
 20 23  1  0  0  0  0
 24 25  2  0  0  0  0
 24 26  1  0  0  0  0
 26 27  1  0  0  0  0
 26 28  1  0  0  0  0
 28 29  1  0  0  0  0
 28 30  1  0  0  0  0
 28 31  1  0  0  0  0
M  END
$$$$

  -OEChem-03222214053D

 31 30  0     1  0  0  0  0  0999 V2000
   -2.5148   -4.2404    0.2866 H   0  0  0  0  0  0  0  0  0  0  0  0
   -2.5351   -3.2136   -0.0898 C   0  0  0  0  0  0  0  0  0  0  0  0
   -3.2625   -2.6407    0.4901 H   0  0  0  0  0  0  0  0  0  0  0  0
   -2.8448   -3.2304   -1.1374 H   0  0  0  0  0  0  0  0  0  0  0  0
   -1.1596   -2.5858    0.0362 C   0  0  0  0  0  0  0  0  0  0  0  0
   -0.2493   -3.2210    0.5358 O   0  0  0  0  0  0  0  0  0  0  0  0
   -0.9519   -1.2980   -0.4183 N   0  0  0  0  0  0  0  0  0  0  0  0
   -1.7251   -0.8595   -0.9090 H   0  0  0  0  0  0  0  0  0  0  0  0
    0.3620   -0.6239   -0.4555 C   0  0  1  0  0  0  0  0  0  0  0  0
    1.0452   -1.2719   -1.0145 H   0  0  0  0  0  0  0  0  0  0  0  0
    0.1746    0.7209   -1.2370 C   0  0  1  0  0  0  0  0  0  0  0  0
   -0.8917    0.9606   -1.3107 H   0  0  0  0  0  0  0  0  0  0  0  0
    0.8396    1.9314   -0.5508 C   0  0  0  0  0  0  0  0  0  0  0  0
    1.9182    1.7751   -0.4436 H   0  0  0  0  0  0  0  0  0  0  0  0
    0.6821    2.8392   -1.1415 H   0  0  0  0  0  0  0  0  0  0  0  0
    0.4073    2.1077    0.4383 H   0  0  0  0  0  0  0  0  0  0  0  0
    0.7758    0.6012   -2.6595 C   0  0  0  0  0  0  0  0  0  0  0  0
    1.1078    1.5842   -3.0099 H   0  0  0  0  0  0  0  0  0  0  0  0
    1.6582   -0.0469   -2.6640 H   0  0  0  0  0  0  0  0  0  0  0  0
   -0.2647    0.0923   -3.6588 C   0  0  0  0  0  0  0  0  0  0  0  0
   -1.1195    0.7740   -3.7070 H   0  0  0  0  0  0  0  0  0  0  0  0
    0.1786    0.0222   -4.6568 H   0  0  0  0  0  0  0  0  0  0  0  0
   -0.6209   -0.9010   -3.3688 H   0  0  0  0  0  0  0  0  0  0  0  0
    1.0169   -0.4955    0.9431 C   0  0  0  0  0  0  0  0  0  0  0  0
    2.2338   -0.5719    1.0559 O   0  0  0  0  0  0  0  0  0  0  0  0
    0.2666   -0.0839    2.0309 N   0  0  0  0  0  0  0  0  0  0  0  0
   -0.7407   -0.1208    1.9192 H   0  0  0  0  0  0  0  0  0  0  0  0
    0.8227    0.0364    3.3724 C   0  0  0  0  0  0  0  0  0  0  0  0
    1.6456    0.7589    3.3832 H   0  0  0  0  0  0  0  0  0  0  0  0
    0.0545    0.3797    4.0715 H   0  0  0  0  0  0  0  0  0  0  0  0
    1.1995   -0.9322    3.7174 H   0  0  0  0  0  0  0  0  0  0  0  0
  1  2  1  0  0  0  0
  2  3  1  0  0  0  0
  2  4  1  0  0  0  0
  2  5  1  0  0  0  0
  5  6  2  0  0  0  0
  5  7  1  0  0  0  0
  7  8  1  0  0  0  0
  7  9  1  0  0  0  0
  9 10  1  0  0  0  0
  9 11  1  0  0  0  0
  9 24  1  0  0  0  0
 11 12  1  0  0  0  0
 11 13  1  0  0  0  0
 11 17  1  0  0  0  0
 13 14  1  0  0  0  0
 13 15  1  0  0  0  0
 13 16  1  0  0  0  0
 17 18  1  0  0  0  0
 17 19  1  0  0  0  0
 17 20  1  0  0  0  0
 20 21  1  0  0  0  0
 20 22  1  0  0  0  0
 20 23  1  0  0  0  0
 24 25  2  0  0  0  0
 24 26  1  0  0  0  0
 26 27  1  0  0  0  0
 26 28  1  0  0  0  0
 28 29  1  0  0  0  0
 28 30  1  0  0  0  0
 28 31  1  0  0  0  0
M  END
$$$$

  -OEChem-03222214053D

 31 30  0     1  0  0  0  0  0999 V2000
   -2.5216   -4.2405    0.3020 H   0  0  0  0  0  0  0  0  0  0  0  0
   -2.5378   -3.2159   -0.0809 C   0  0  0  0  0  0  0  0  0  0  0  0
   -3.2668   -2.6381    0.4923 H   0  0  0  0  0  0  0  0  0  0  0  0
   -2.8423   -3.2386   -1.1301 H   0  0  0  0  0  0  0  0  0  0  0  0
   -1.1615   -2.5904    0.0474 C   0  0  0  0  0  0  0  0  0  0  0  0
   -0.2546   -3.2246    0.5543 O   0  0  0  0  0  0  0  0  0  0  0  0
   -0.9484   -1.3057   -0.4138 N   0  0  0  0  0  0  0  0  0  0  0  0
   -1.7191   -0.8681   -0.9091 H   0  0  0  0  0  0  0  0  0  0  0  0
    0.3679   -0.6364   -0.4534 C   0  0  1  0  0  0  0  0  0  0  0  0
    1.0508   -1.2913   -1.0034 H   0  0  0  0  0  0  0  0  0  0  0  0
    0.1859    0.7094   -1.2375 C   0  0  1  0  0  0  0  0  0  0  0  0
   -0.8824    0.9426   -1.3058 H   0  0  0  0  0  0  0  0  0  0  0  0
    0.8355    1.9249   -0.5453 C   0  0  0  0  0  0  0  0  0  0  0  0
    1.9138    1.7760   -0.4244 H   0  0  0  0  0  0  0  0  0  0  0  0
    0.6787    2.8297   -1.1410 H   0  0  0  0  0  0  0  0  0  0  0  0
    0.3899    2.1009    0.4379 H   0  0  0  0  0  0  0  0  0  0  0  0
    0.7817    0.6031   -2.6683 C   0  0  0  0  0  0  0  0  0  0  0  0
    1.3599    1.5014   -2.9091 H   0  0  0  0  0  0  0  0  0  0  0  0
    1.4736   -0.2395   -2.7580 H   0  0  0  0  0  0  0  0  0  0  0  0
   -0.3254    0.4703   -3.7148 C   0  0  0  0  0  0  0  0  0  0  0  0
   -0.9850    1.3434   -3.6900 H   0  0  0  0  0  0  0  0  0  0  0  0
    0.1116    0.3954   -4.7153 H   0  0  0  0  0  0  0  0  0  0  0  0
   -0.9214   -0.4284   -3.5284 H   0  0  0  0  0  0  0  0  0  0  0  0
    1.0204   -0.5038    0.9461 C   0  0  0  0  0  0  0  0  0  0  0  0
    2.2372   -0.5785    1.0614 O   0  0  0  0  0  0  0  0  0  0  0  0
    0.2687   -0.0846    2.0299 N   0  0  0  0  0  0  0  0  0  0  0  0
   -0.7383   -0.1254    1.9174 H   0  0  0  0  0  0  0  0  0  0  0  0
    0.8222    0.0464    3.3714 C   0  0  0  0  0  0  0  0  0  0  0  0
    1.6442    0.7698    3.3784 H   0  0  0  0  0  0  0  0  0  0  0  0
    0.0521    0.3943    4.0662 H   0  0  0  0  0  0  0  0  0  0  0  0
    1.1991   -0.9193    3.7245 H   0  0  0  0  0  0  0  0  0  0  0  0
  1  2  1  0  0  0  0
  2  3  1  0  0  0  0
  2  4  1  0  0  0  0
  2  5  1  0  0  0  0
  5  6  2  0  0  0  0
  5  7  1  0  0  0  0
  7  8  1  0  0  0  0
  7  9  1  0  0  0  0
  9 10  1  0  0  0  0
  9 11  1  0  0  0  0
  9 24  1  0  0  0  0
 11 12  1  0  0  0  0
 11 13  1  0  0  0  0
 11 17  1  0  0  0  0
 13 14  1  0  0  0  0
 13 15  1  0  0  0  0
 13 16  1  0  0  0  0
 17 18  1  0  0  0  0
 17 19  1  0  0  0  0
 17 20  1  0  0  0  0
 20 21  1  0  0  0  0
 20 22  1  0  0  0  0
 20 23  1  0  0  0  0
 24 25  2  0  0  0  0
 24 26  1  0  0  0  0
 26 27  1  0  0  0  0
 26 28  1  0  0  0  0
 28 29  1  0  0  0  0
 28 30  1  0  0  0  0
 28 31  1  0  0  0  0
M  END
$$$$

  -OEChem-03222214053D

 31 30  0     1  0  0  0  0  0999 V2000
   -2.5247   -4.2434    0.3194 H   0  0  0  0  0  0  0  0  0  0  0  0
   -2.5385   -3.2201   -0.0669 C   0  0  0  0  0  0  0  0  0  0  0  0
   -3.2648   -2.6383    0.5052 H   0  0  0  0  0  0  0  0  0  0  0  0
   -2.8450   -3.2458   -1.1152 H   0  0  0  0  0  0  0  0  0  0  0  0
   -1.1606   -2.5973    0.0569 C   0  0  0  0  0  0  0  0  0  0  0  0
   -0.2547   -3.2306    0.5669 O   0  0  0  0  0  0  0  0  0  0  0  0
   -0.9460   -1.3155   -0.4115 N   0  0  0  0  0  0  0  0  0  0  0  0
   -1.7174   -0.8785   -0.9062 H   0  0  0  0  0  0  0  0  0  0  0  0
    0.3715   -0.6481   -0.4554 C   0  0  1  0  0  0  0  0  0  0  0  0
    1.0575   -1.3031   -1.0014 H   0  0  0  0  0  0  0  0  0  0  0  0
    0.1966    0.7001   -1.2367 C   0  0  1  0  0  0  0  0  0  0  0  0
   -0.8748    0.9173   -1.3067 H   0  0  0  0  0  0  0  0  0  0  0  0
    0.8257    1.9259   -0.5452 C   0  0  0  0  0  0  0  0  0  0  0  0
    1.9019    1.7837   -0.3993 H   0  0  0  0  0  0  0  0  0  0  0  0
    0.6781    2.8217   -1.1568 H   0  0  0  0  0  0  0  0  0  0  0  0
    0.3584    2.1096    0.4266 H   0  0  0  0  0  0  0  0  0  0  0  0
    0.7869    0.6037   -2.6714 C   0  0  0  0  0  0  0  0  0  0  0  0
    1.5963    1.3292   -2.8071 H   0  0  0  0  0  0  0  0  0  0  0  0
    1.2192   -0.3827   -2.8620 H   0  0  0  0  0  0  0  0  0  0  0  0
   -0.2901    0.8591   -3.7267 C   0  0  0  0  0  0  0  0  0  0  0  0
   -0.7159    1.8600   -3.6045 H   0  0  0  0  0  0  0  0  0  0  0  0
    0.1428    0.7869   -4.7293 H   0  0  0  0  0  0  0  0  0  0  0  0
   -1.0932    0.1203   -3.6416 H   0  0  0  0  0  0  0  0  0  0  0  0
    1.0229   -0.5096    0.9436 C   0  0  0  0  0  0  0  0  0  0  0  0
    2.2393   -0.5855    1.0605 O   0  0  0  0  0  0  0  0  0  0  0  0
    0.2704   -0.0838    2.0242 N   0  0  0  0  0  0  0  0  0  0  0  0
   -0.7365   -0.1253    1.9111 H   0  0  0  0  0  0  0  0  0  0  0  0
    0.8225    0.0522    3.3657 C   0  0  0  0  0  0  0  0  0  0  0  0
    1.6458    0.7745    3.3704 H   0  0  0  0  0  0  0  0  0  0  0  0
    0.0519    0.4046    4.0578 H   0  0  0  0  0  0  0  0  0  0  0  0
    1.1977   -0.9124    3.7239 H   0  0  0  0  0  0  0  0  0  0  0  0
  1  2  1  0  0  0  0
  2  3  1  0  0  0  0
  2  4  1  0  0  0  0
  2  5  1  0  0  0  0
  5  6  2  0  0  0  0
  5  7  1  0  0  0  0
  7  8  1  0  0  0  0
  7  9  1  0  0  0  0
  9 10  1  0  0  0  0
  9 11  1  0  0  0  0
  9 24  1  0  0  0  0
 11 12  1  0  0  0  0
 11 13  1  0  0  0  0
 11 17  1  0  0  0  0
 13 14  1  0  0  0  0
 13 15  1  0  0  0  0
 13 16  1  0  0  0  0
 17 18  1  0  0  0  0
 17 19  1  0  0  0  0
 17 20  1  0  0  0  0
 20 21  1  0  0  0  0
 20 22  1  0  0  0  0
 20 23  1  0  0  0  0
 24 25  2  0  0  0  0
 24 26  1  0  0  0  0
 26 27  1  0  0  0  0
 26 28  1  0  0  0  0
 28 29  1  0  0  0  0
 28 30  1  0  0  0  0
 28 31  1  0  0  0  0
M  END
$$$$

  -OEChem-03222214053D

 31 30  0     1  0  0  0  0  0999 V2000
   -2.5192   -4.2441    0.3357 H   0  0  0  0  0  0  0  0  0  0  0  0
   -2.5374   -3.2202   -0.0487 C   0  0  0  0  0  0  0  0  0  0  0  0
   -3.2524   -2.6377    0.5371 H   0  0  0  0  0  0  0  0  0  0  0  0
   -2.8618   -3.2435   -1.0918 H   0  0  0  0  0  0  0  0  0  0  0  0
   -1.1557   -2.6012    0.0522 C   0  0  0  0  0  0  0  0  0  0  0  0
   -0.2433   -3.2375    0.5466 O   0  0  0  0  0  0  0  0  0  0  0  0
   -0.9447   -1.3185   -0.4156 N   0  0  0  0  0  0  0  0  0  0  0  0
   -1.7235   -0.8737   -0.8914 H   0  0  0  0  0  0  0  0  0  0  0  0
    0.3708   -0.6472   -0.4610 C   0  0  1  0  0  0  0  0  0  0  0  0
    1.0602   -1.2955   -1.0122 H   0  0  0  0  0  0  0  0  0  0  0  0
    0.1965    0.7029   -1.2356 C   0  0  1  0  0  0  0  0  0  0  0  0
   -0.8772    0.9060   -1.3133 H   0  0  0  0  0  0  0  0  0  0  0  0
    0.8148    1.9349   -0.5465 C   0  0  0  0  0  0  0  0  0  0  0  0
    1.8895    1.7971   -0.3877 H   0  0  0  0  0  0  0  0  0  0  0  0
    0.6725    2.8259   -1.1658 H   0  0  0  0  0  0  0  0  0  0  0  0
    0.3369    2.1229    0.4193 H   0  0  0  0  0  0  0  0  0  0  0  0
    0.7873    0.6015   -2.6657 C   0  0  0  0  0  0  0  0  0  0  0  0
    1.7638    1.0952   -2.7151 H   0  0  0  0  0  0  0  0  0  0  0  0
    0.9439   -0.4441   -2.9482 H   0  0  0  0  0  0  0  0  0  0  0  0
   -0.1581    1.2099   -3.7035 C   0  0  0  0  0  0  0  0  0  0  0  0
   -0.3387    2.2671   -3.4853 H   0  0  0  0  0  0  0  0  0  0  0  0
    0.2828    1.1330   -4.7022 H   0  0  0  0  0  0  0  0  0  0  0  0
   -1.1168    0.6820   -3.7073 H   0  0  0  0  0  0  0  0  0  0  0  0
    1.0227   -0.5084    0.9376 C   0  0  0  0  0  0  0  0  0  0  0  0
    2.2390   -0.5861    1.0545 O   0  0  0  0  0  0  0  0  0  0  0  0
    0.2705   -0.0856    2.0196 N   0  0  0  0  0  0  0  0  0  0  0  0
   -0.7366   -0.1189    1.9050 H   0  0  0  0  0  0  0  0  0  0  0  0
    0.8226    0.0443    3.3617 C   0  0  0  0  0  0  0  0  0  0  0  0
    1.6509    0.7606    3.3681 H   0  0  0  0  0  0  0  0  0  0  0  0
    0.0540    0.4006    4.0539 H   0  0  0  0  0  0  0  0  0  0  0  0
    1.1909   -0.9235    3.7182 H   0  0  0  0  0  0  0  0  0  0  0  0
  1  2  1  0  0  0  0
  2  3  1  0  0  0  0
  2  4  1  0  0  0  0
  2  5  1  0  0  0  0
  5  6  2  0  0  0  0
  5  7  1  0  0  0  0
  7  8  1  0  0  0  0
  7  9  1  0  0  0  0
  9 10  1  0  0  0  0
  9 11  1  0  0  0  0
  9 24  1  0  0  0  0
 11 12  1  0  0  0  0
 11 13  1  0  0  0  0
 11 17  1  0  0  0  0
 13 14  1  0  0  0  0
 13 15  1  0  0  0  0
 13 16  1  0  0  0  0
 17 18  1  0  0  0  0
 17 19  1  0  0  0  0
 17 20  1  0  0  0  0
 20 21  1  0  0  0  0
 20 22  1  0  0  0  0
 20 23  1  0  0  0  0
 24 25  2  0  0  0  0
 24 26  1  0  0  0  0
 26 27  1  0  0  0  0
 26 28  1  0  0  0  0
 28 29  1  0  0  0  0
 28 30  1  0  0  0  0
 28 31  1  0  0  0  0
M  END
$$$$

  -OEChem-03222214053D

 31 30  0     1  0  0  0  0  0999 V2000
   -2.5141   -4.2457    0.3129 H   0  0  0  0  0  0  0  0  0  0  0  0
   -2.5342   -3.2199   -0.0663 C   0  0  0  0  0  0  0  0  0  0  0  0
   -3.2564   -2.6438    0.5170 H   0  0  0  0  0  0  0  0  0  0  0  0
   -2.8509   -3.2389   -1.1119 H   0  0  0  0  0  0  0  0  0  0  0  0
   -1.1571   -2.5935    0.0480 C   0  0  0  0  0  0  0  0  0  0  0  0
   -0.2428   -3.2276    0.5419 O   0  0  0  0  0  0  0  0  0  0  0  0
   -0.9525   -1.3065   -0.4102 N   0  0  0  0  0  0  0  0  0  0  0  0
   -1.7324   -0.8647   -0.8871 H   0  0  0  0  0  0  0  0  0  0  0  0
    0.3606   -0.6310   -0.4568 C   0  0  1  0  0  0  0  0  0  0  0  0
    1.0485   -1.2721   -1.0194 H   0  0  0  0  0  0  0  0  0  0  0  0
    0.1799    0.7193   -1.2276 C   0  0  1  0  0  0  0  0  0  0  0  0
   -0.8930    0.9220   -1.3138 H   0  0  0  0  0  0  0  0  0  0  0  0
    0.8066    1.9470   -0.5359 C   0  0  0  0  0  0  0  0  0  0  0  0
    1.8827    1.8066   -0.3892 H   0  0  0  0  0  0  0  0  0  0  0  0
    0.6609    2.8463   -1.1410 H   0  0  0  0  0  0  0  0  0  0  0  0
    0.3391    2.1259    0.4367 H   0  0  0  0  0  0  0  0  0  0  0  0
    0.7746    0.5943   -2.6503 C   0  0  0  0  0  0  0  0  0  0  0  0
    1.8438    0.8321   -2.6369 H   0  0  0  0  0  0  0  0  0  0  0  0
    0.6739   -0.4361   -3.0069 H   0  0  0  0  0  0  0  0  0  0  0  0
    0.0486    1.4900   -3.6580 C   0  0  0  0  0  0  0  0  0  0  0  0
    0.1481    2.5447   -3.3858 H   0  0  0  0  0  0  0  0  0  0  0  0
    0.4768    1.3515   -4.6555 H   0  0  0  0  0  0  0  0  0  0  0  0
   -1.0153    1.2372   -3.7010 H   0  0  0  0  0  0  0  0  0  0  0  0
    1.0218   -0.5003    0.9385 C   0  0  0  0  0  0  0  0  0  0  0  0
    2.2392   -0.5738    1.0459 O   0  0  0  0  0  0  0  0  0  0  0  0
    0.2766   -0.0880    2.0294 N   0  0  0  0  0  0  0  0  0  0  0  0
   -0.7312   -0.1283    1.9238 H   0  0  0  0  0  0  0  0  0  0  0  0
    0.8397    0.0364    3.3677 C   0  0  0  0  0  0  0  0  0  0  0  0
    1.6595    0.7625    3.3730 H   0  0  0  0  0  0  0  0  0  0  0  0
    0.0735    0.3774    4.0703 H   0  0  0  0  0  0  0  0  0  0  0  0
    1.2230   -0.9299    3.7123 H   0  0  0  0  0  0  0  0  0  0  0  0
  1  2  1  0  0  0  0
  2  3  1  0  0  0  0
  2  4  1  0  0  0  0
  2  5  1  0  0  0  0
  5  6  2  0  0  0  0
  5  7  1  0  0  0  0
  7  8  1  0  0  0  0
  7  9  1  0  0  0  0
  9 10  1  0  0  0  0
  9 11  1  0  0  0  0
  9 24  1  0  0  0  0
 11 12  1  0  0  0  0
 11 13  1  0  0  0  0
 11 17  1  0  0  0  0
 13 14  1  0  0  0  0
 13 15  1  0  0  0  0
 13 16  1  0  0  0  0
 17 18  1  0  0  0  0
 17 19  1  0  0  0  0
 17 20  1  0  0  0  0
 20 21  1  0  0  0  0
 20 22  1  0  0  0  0
 20 23  1  0  0  0  0
 24 25  2  0  0  0  0
 24 26  1  0  0  0  0
 26 27  1  0  0  0  0
 26 28  1  0  0  0  0
 28 29  1  0  0  0  0
 28 30  1  0  0  0  0
 28 31  1  0  0  0  0
M  END
$$$$

  -OEChem-03222214053D

 31 30  0     1  0  0  0  0  0999 V2000
   -2.5001   -4.2457    0.3011 H   0  0  0  0  0  0  0  0  0  0  0  0
   -2.5280   -3.2177   -0.0719 C   0  0  0  0  0  0  0  0  0  0  0  0
   -3.2469   -2.6483    0.5219 H   0  0  0  0  0  0  0  0  0  0  0  0
   -2.8550   -3.2321   -1.1143 H   0  0  0  0  0  0  0  0  0  0  0  0
   -1.1517   -2.5874    0.0326 C   0  0  0  0  0  0  0  0  0  0  0  0
   -0.2295   -3.2247    0.5072 O   0  0  0  0  0  0  0  0  0  0  0  0
   -0.9566   -1.2936   -0.4107 N   0  0  0  0  0  0  0  0  0  0  0  0
   -1.7436   -0.8465   -0.8707 H   0  0  0  0  0  0  0  0  0  0  0  0
    0.3526   -0.6106   -0.4545 C   0  0  1  0  0  0  0  0  0  0  0  0
    1.0389   -1.2455   -1.0268 H   0  0  0  0  0  0  0  0  0  0  0  0
    0.1638    0.7404   -1.2221 C   0  0  1  0  0  0  0  0  0  0  0  0
   -0.9080    0.9432   -1.3210 H   0  0  0  0  0  0  0  0  0  0  0  0
    0.7860    1.9624   -0.5150 C   0  0  0  0  0  0  0  0  0  0  0  0
    1.8689    1.8404   -0.4076 H   0  0  0  0  0  0  0  0  0  0  0  0
    0.5990    2.8783   -1.0809 H   0  0  0  0  0  0  0  0  0  0  0  0
    0.3467    2.1031    0.4762 H   0  0  0  0  0  0  0  0  0  0  0  0
    0.7684    0.5927   -2.6373 C   0  0  0  0  0  0  0  0  0  0  0  0
    1.8619    0.5716   -2.5749 H   0  0  0  0  0  0  0  0  0  0  0  0
    0.4442   -0.3620   -3.0654 H   0  0  0  0  0  0  0  0  0  0  0  0
    0.3316    1.7014   -3.6003 C   0  0  0  0  0  0  0  0  0  0  0  0
    0.7398    2.6702   -3.2998 H   0  0  0  0  0  0  0  0  0  0  0  0
    0.6951    1.4802   -4.6084 H   0  0  0  0  0  0  0  0  0  0  0  0
   -0.7598    1.7734   -3.6347 H   0  0  0  0  0  0  0  0  0  0  0  0
    1.0204   -0.4926    0.9389 C   0  0  0  0  0  0  0  0  0  0  0  0
    2.2390   -0.5570    1.0386 O   0  0  0  0  0  0  0  0  0  0  0  0
    0.2779   -0.0974    2.0382 N   0  0  0  0  0  0  0  0  0  0  0  0
   -0.7302   -0.1389    1.9362 H   0  0  0  0  0  0  0  0  0  0  0  0
    0.8461    0.0199    3.3748 C   0  0  0  0  0  0  0  0  0  0  0  0
    1.6622    0.7499    3.3820 H   0  0  0  0  0  0  0  0  0  0  0  0
    0.0817    0.3520    4.0835 H   0  0  0  0  0  0  0  0  0  0  0  0
    1.2355   -0.9469    3.7107 H   0  0  0  0  0  0  0  0  0  0  0  0
  1  2  1  0  0  0  0
  2  3  1  0  0  0  0
  2  4  1  0  0  0  0
  2  5  1  0  0  0  0
  5  6  2  0  0  0  0
  5  7  1  0  0  0  0
  7  8  1  0  0  0  0
  7  9  1  0  0  0  0
  9 10  1  0  0  0  0
  9 11  1  0  0  0  0
  9 24  1  0  0  0  0
 11 12  1  0  0  0  0
 11 13  1  0  0  0  0
 11 17  1  0  0  0  0
 13 14  1  0  0  0  0
 13 15  1  0  0  0  0
 13 16  1  0  0  0  0
 17 18  1  0  0  0  0
 17 19  1  0  0  0  0
 17 20  1  0  0  0  0
 20 21  1  0  0  0  0
 20 22  1  0  0  0  0
 20 23  1  0  0  0  0
 24 25  2  0  0  0  0
 24 26  1  0  0  0  0
 26 27  1  0  0  0  0
 26 28  1  0  0  0  0
 28 29  1  0  0  0  0
 28 30  1  0  0  0  0
 28 31  1  0  0  0  0
M  END
$$$$

  -OEChem-03222214053D

 31 30  0     1  0  0  0  0  0999 V2000
   -2.4982   -4.2192    0.3108 H   0  0  0  0  0  0  0  0  0  0  0  0
   -2.5170   -3.1922   -0.0651 C   0  0  0  0  0  0  0  0  0  0  0  0
   -3.2234   -2.6122    0.5334 H   0  0  0  0  0  0  0  0  0  0  0  0
   -2.8535   -3.2052   -1.1045 H   0  0  0  0  0  0  0  0  0  0  0  0
   -1.1325   -2.5783    0.0254 C   0  0  0  0  0  0  0  0  0  0  0  0
   -0.2144   -3.2238    0.4967 O   0  0  0  0  0  0  0  0  0  0  0  0
   -0.9263   -1.2895   -0.4276 N   0  0  0  0  0  0  0  0  0  0  0  0
   -1.7118   -0.8348   -0.8827 H   0  0  0  0  0  0  0  0  0  0  0  0
    0.3859   -0.6118   -0.4670 C   0  0  1  0  0  0  0  0  0  0  0  0
    1.0831   -1.2299   -1.0441 H   0  0  0  0  0  0  0  0  0  0  0  0
    0.1738    0.7474   -1.2070 C   0  0  1  0  0  0  0  0  0  0  0  0
   -0.8525    1.0953   -1.0474 H   0  0  0  0  0  0  0  0  0  0  0  0
    1.1149    1.8642   -0.7019 C   0  0  0  0  0  0  0  0  0  0  0  0
    2.1622    1.5828   -0.8539 H   0  0  0  0  0  0  0  0  0  0  0  0
    0.9274    2.8050   -1.2257 H   0  0  0  0  0  0  0  0  0  0  0  0
    0.9562    2.0628    0.3619 H   0  0  0  0  0  0  0  0  0  0  0  0
    0.4038    0.5034   -2.7191 C   0  0  0  0  0  0  0  0  0  0  0  0
    1.4137    0.1103   -2.8794 H   0  0  0  0  0  0  0  0  0  0  0  0
   -0.3038   -0.2585   -3.0622 H   0  0  0  0  0  0  0  0  0  0  0  0
    0.2295    1.7495   -3.5939 C   0  0  0  0  0  0  0  0  0  0  0  0
    1.0416    2.4638   -3.4307 H   0  0  0  0  0  0  0  0  0  0  0  0
    0.2409    1.4648   -4.6504 H   0  0  0  0  0  0  0  0  0  0  0  0
   -0.7247    2.2396   -3.3778 H   0  0  0  0  0  0  0  0  0  0  0  0
    1.0284   -0.4920    0.9379 C   0  0  0  0  0  0  0  0  0  0  0  0
    2.2431   -0.5773    1.0663 O   0  0  0  0  0  0  0  0  0  0  0  0
    0.2644   -0.0873    2.0186 N   0  0  0  0  0  0  0  0  0  0  0  0
   -0.7412   -0.1230    1.8936 H   0  0  0  0  0  0  0  0  0  0  0  0
    0.8014    0.0150    3.3692 C   0  0  0  0  0  0  0  0  0  0  0  0
    1.6331    0.7267    3.3990 H   0  0  0  0  0  0  0  0  0  0  0  0
    0.0270    0.3625    4.0594 H   0  0  0  0  0  0  0  0  0  0  0  0
    1.1604   -0.9613    3.7118 H   0  0  0  0  0  0  0  0  0  0  0  0
  1  2  1  0  0  0  0
  2  3  1  0  0  0  0
  2  4  1  0  0  0  0
  2  5  1  0  0  0  0
  5  6  2  0  0  0  0
  5  7  1  0  0  0  0
  7  8  1  0  0  0  0
  7  9  1  0  0  0  0
  9 10  1  0  0  0  0
  9 11  1  0  0  0  0
  9 24  1  0  0  0  0
 11 12  1  0  0  0  0
 11 13  1  0  0  0  0
 11 17  1  0  0  0  0
 13 14  1  0  0  0  0
 13 15  1  0  0  0  0
 13 16  1  0  0  0  0
 17 18  1  0  0  0  0
 17 19  1  0  0  0  0
 17 20  1  0  0  0  0
 20 21  1  0  0  0  0
 20 22  1  0  0  0  0
 20 23  1  0  0  0  0
 24 25  2  0  0  0  0
 24 26  1  0  0  0  0
 26 27  1  0  0  0  0
 26 28  1  0  0  0  0
 28 29  1  0  0  0  0
 28 30  1  0  0  0  0
 28 31  1  0  0  0  0
M  END
$$$$

  -OEChem-03222214053D

 31 30  0     1  0  0  0  0  0999 V2000
   -2.5019   -4.2140    0.3071 H   0  0  0  0  0  0  0  0  0  0  0  0
   -2.5167   -3.1876   -0.0707 C   0  0  0  0  0  0  0  0  0  0  0  0
   -3.2268   -2.6056    0.5215 H   0  0  0  0  0  0  0  0  0  0  0  0
   -2.8452   -3.2020   -1.1127 H   0  0  0  0  0  0  0  0  0  0  0  0
   -1.1324   -2.5750    0.0297 C   0  0  0  0  0  0  0  0  0  0  0  0
   -0.2181   -3.2217    0.5067 O   0  0  0  0  0  0  0  0  0  0  0  0
   -0.9218   -1.2871   -0.4239 N   0  0  0  0  0  0  0  0  0  0  0  0
   -1.7017   -0.8364   -0.8923 H   0  0  0  0  0  0  0  0  0  0  0  0
    0.3928   -0.6140   -0.4634 C   0  0  1  0  0  0  0  0  0  0  0  0
    1.0889   -1.2378   -1.0349 H   0  0  0  0  0  0  0  0  0  0  0  0
    0.1765    0.7460   -1.2064 C   0  0  1  0  0  0  0  0  0  0  0  0
   -0.8489    1.0965   -1.0468 H   0  0  0  0  0  0  0  0  0  0  0  0
    1.1115    1.8609   -0.6816 C   0  0  0  0  0  0  0  0  0  0  0  0
    2.1606    1.5881   -0.8374 H   0  0  0  0  0  0  0  0  0  0  0  0
    0.9174    2.8099   -1.1886 H   0  0  0  0  0  0  0  0  0  0  0  0
    0.9516    2.0436    0.3847 H   0  0  0  0  0  0  0  0  0  0  0  0
    0.4016    0.5085   -2.7258 C   0  0  0  0  0  0  0  0  0  0  0  0
    1.2989   -0.1015   -2.8737 H   0  0  0  0  0  0  0  0  0  0  0  0
   -0.4485   -0.0593   -3.1170 H   0  0  0  0  0  0  0  0  0  0  0  0
    0.5822    1.7733   -3.5733 C   0  0  0  0  0  0  0  0  0  0  0  0
    1.5295    2.2705   -3.3437 H   0  0  0  0  0  0  0  0  0  0  0  0
    0.5905    1.5100   -4.6354 H   0  0  0  0  0  0  0  0  0  0  0  0
   -0.2409    2.4730   -3.3978 H   0  0  0  0  0  0  0  0  0  0  0  0
    1.0324   -0.4977    0.9435 C   0  0  0  0  0  0  0  0  0  0  0  0
    2.2464   -0.5868    1.0746 O   0  0  0  0  0  0  0  0  0  0  0  0
    0.2678   -0.0909    2.0231 N   0  0  0  0  0  0  0  0  0  0  0  0
   -0.7378   -0.1165    1.8947 H   0  0  0  0  0  0  0  0  0  0  0  0
    0.8028    0.0152    3.3743 C   0  0  0  0  0  0  0  0  0  0  0  0
    1.6319    0.7298    3.4036 H   0  0  0  0  0  0  0  0  0  0  0  0
    0.0261    0.3612    4.0626 H   0  0  0  0  0  0  0  0  0  0  0  0
    1.1649   -0.9591    3.7191 H   0  0  0  0  0  0  0  0  0  0  0  0
  1  2  1  0  0  0  0
  2  3  1  0  0  0  0
  2  4  1  0  0  0  0
  2  5  1  0  0  0  0
  5  6  2  0  0  0  0
  5  7  1  0  0  0  0
  7  8  1  0  0  0  0
  7  9  1  0  0  0  0
  9 10  1  0  0  0  0
  9 11  1  0  0  0  0
  9 24  1  0  0  0  0
 11 12  1  0  0  0  0
 11 13  1  0  0  0  0
 11 17  1  0  0  0  0
 13 14  1  0  0  0  0
 13 15  1  0  0  0  0
 13 16  1  0  0  0  0
 17 18  1  0  0  0  0
 17 19  1  0  0  0  0
 17 20  1  0  0  0  0
 20 21  1  0  0  0  0
 20 22  1  0  0  0  0
 20 23  1  0  0  0  0
 24 25  2  0  0  0  0
 24 26  1  0  0  0  0
 26 27  1  0  0  0  0
 26 28  1  0  0  0  0
 28 29  1  0  0  0  0
 28 30  1  0  0  0  0
 28 31  1  0  0  0  0
M  END
$$$$

  -OEChem-03222214053D

 31 30  0     1  0  0  0  0  0999 V2000
   -2.5045   -4.2106    0.3094 H   0  0  0  0  0  0  0  0  0  0  0  0
   -2.5173   -3.1839   -0.0678 C   0  0  0  0  0  0  0  0  0  0  0  0
   -3.2291   -2.6016    0.5223 H   0  0  0  0  0  0  0  0  0  0  0  0
   -2.8420   -3.1978   -1.1110 H   0  0  0  0  0  0  0  0  0  0  0  0
   -1.1329   -2.5727    0.0371 C   0  0  0  0  0  0  0  0  0  0  0  0
   -0.2217   -3.2193    0.5200 O   0  0  0  0  0  0  0  0  0  0  0  0
   -0.9182   -1.2869   -0.4203 N   0  0  0  0  0  0  0  0  0  0  0  0
   -1.6957   -0.8365   -0.8930 H   0  0  0  0  0  0  0  0  0  0  0  0
    0.3986   -0.6184   -0.4615 C   0  0  1  0  0  0  0  0  0  0  0  0
    1.0955   -1.2489   -1.0233 H   0  0  0  0  0  0  0  0  0  0  0  0
    0.1851    0.7411   -1.2110 C   0  0  1  0  0  0  0  0  0  0  0  0
   -0.8419    1.0890   -1.0559 H   0  0  0  0  0  0  0  0  0  0  0  0
    1.1011    1.8603   -0.6607 C   0  0  0  0  0  0  0  0  0  0  0  0
    2.1557    1.5898   -0.7792 H   0  0  0  0  0  0  0  0  0  0  0  0
    0.9207    2.8074   -1.1761 H   0  0  0  0  0  0  0  0  0  0  0  0
    0.9047    2.0462    0.3989 H   0  0  0  0  0  0  0  0  0  0  0  0
    0.4062    0.5160   -2.7394 C   0  0  0  0  0  0  0  0  0  0  0  0
    1.1255   -0.2932   -2.8978 H   0  0  0  0  0  0  0  0  0  0  0  0
   -0.5429    0.1910   -3.1771 H   0  0  0  0  0  0  0  0  0  0  0  0
    0.9357    1.7100   -3.5435 C   0  0  0  0  0  0  0  0  0  0  0  0
    1.9455    1.9845   -3.2238 H   0  0  0  0  0  0  0  0  0  0  0  0
    0.9782    1.4501   -4.6056 H   0  0  0  0  0  0  0  0  0  0  0  0
    0.2749    2.5747   -3.4295 H   0  0  0  0  0  0  0  0  0  0  0  0
    1.0361   -0.5014    0.9468 C   0  0  0  0  0  0  0  0  0  0  0  0
    2.2497   -0.5952    1.0799 O   0  0  0  0  0  0  0  0  0  0  0  0
    0.2723   -0.0899    2.0251 N   0  0  0  0  0  0  0  0  0  0  0  0
   -0.7332   -0.1149    1.8966 H   0  0  0  0  0  0  0  0  0  0  0  0
    0.8066    0.0105    3.3770 C   0  0  0  0  0  0  0  0  0  0  0  0
    1.6374    0.7233    3.4093 H   0  0  0  0  0  0  0  0  0  0  0  0
    0.0302    0.3558    4.0662 H   0  0  0  0  0  0  0  0  0  0  0  0
    1.1668   -0.9657    3.7188 H   0  0  0  0  0  0  0  0  0  0  0  0
  1  2  1  0  0  0  0
  2  3  1  0  0  0  0
  2  4  1  0  0  0  0
  2  5  1  0  0  0  0
  5  6  2  0  0  0  0
  5  7  1  0  0  0  0
  7  8  1  0  0  0  0
  7  9  1  0  0  0  0
  9 10  1  0  0  0  0
  9 11  1  0  0  0  0
  9 24  1  0  0  0  0
 11 12  1  0  0  0  0
 11 13  1  0  0  0  0
 11 17  1  0  0  0  0
 13 14  1  0  0  0  0
 13 15  1  0  0  0  0
 13 16  1  0  0  0  0
 17 18  1  0  0  0  0
 17 19  1  0  0  0  0
 17 20  1  0  0  0  0
 20 21  1  0  0  0  0
 20 22  1  0  0  0  0
 20 23  1  0  0  0  0
 24 25  2  0  0  0  0
 24 26  1  0  0  0  0
 26 27  1  0  0  0  0
 26 28  1  0  0  0  0
 28 29  1  0  0  0  0
 28 30  1  0  0  0  0
 28 31  1  0  0  0  0
M  END
$$$$

  -OEChem-03222214053D

 31 30  0     1  0  0  0  0  0999 V2000
   -2.5071   -4.2116    0.3142 H   0  0  0  0  0  0  0  0  0  0  0  0
   -2.5187   -3.1852   -0.0634 C   0  0  0  0  0  0  0  0  0  0  0  0
   -3.2320   -2.6024    0.5243 H   0  0  0  0  0  0  0  0  0  0  0  0
   -2.8406   -3.1993   -1.1074 H   0  0  0  0  0  0  0  0  0  0  0  0
   -1.1340   -2.5748    0.0447 C   0  0  0  0  0  0  0  0  0  0  0  0
   -0.2255   -3.2204    0.5339 O   0  0  0  0  0  0  0  0  0  0  0  0
   -0.9162   -1.2913   -0.4180 N   0  0  0  0  0  0  0  0  0  0  0  0
   -1.6917   -0.8432   -0.8963 H   0  0  0  0  0  0  0  0  0  0  0  0
    0.4024   -0.6260   -0.4626 C   0  0  1  0  0  0  0  0  0  0  0  0
    1.1010   -1.2591   -1.0196 H   0  0  0  0  0  0  0  0  0  0  0  0
    0.1978    0.7336   -1.2156 C   0  0  1  0  0  0  0  0  0  0  0  0
   -0.8338    1.0707   -1.0672 H   0  0  0  0  0  0  0  0  0  0  0  0
    1.0859    1.8649   -0.6450 C   0  0  0  0  0  0  0  0  0  0  0  0
    2.1464    1.6020   -0.7178 H   0  0  0  0  0  0  0  0  0  0  0  0
    0.9175    2.8041   -1.1783 H   0  0  0  0  0  0  0  0  0  0  0  0
    0.8474    2.0587    0.4045 H   0  0  0  0  0  0  0  0  0  0  0  0
    0.4159    0.5186   -2.7499 C   0  0  0  0  0  0  0  0  0  0  0  0
    0.8825   -0.4532   -2.9359 H   0  0  0  0  0  0  0  0  0  0  0  0
   -0.5691    0.4853   -3.2264 H   0  0  0  0  0  0  0  0  0  0  0  0
    1.2683    1.5557   -3.4932 C   0  0  0  0  0  0  0  0  0  0  0  0
    2.2856    1.5886   -3.0913 H   0  0  0  0  0  0  0  0  0  0  0  0
    1.3327    1.2888   -4.5525 H   0  0  0  0  0  0  0  0  0  0  0  0
    0.8200    2.5512   -3.4229 H   0  0  0  0  0  0  0  0  0  0  0  0
    1.0400   -0.5053    0.9457 C   0  0  0  0  0  0  0  0  0  0  0  0
    2.2533   -0.6020    1.0795 O   0  0  0  0  0  0  0  0  0  0  0  0
    0.2771   -0.0878    2.0225 N   0  0  0  0  0  0  0  0  0  0  0  0
   -0.7285   -0.1127    1.8941 H   0  0  0  0  0  0  0  0  0  0  0  0
    0.8112    0.0114    3.3747 C   0  0  0  0  0  0  0  0  0  0  0  0
    1.6434    0.7222    3.4075 H   0  0  0  0  0  0  0  0  0  0  0  0
    0.0356    0.3580    4.0639 H   0  0  0  0  0  0  0  0  0  0  0  0
    1.1686   -0.9658    3.7163 H   0  0  0  0  0  0  0  0  0  0  0  0
  1  2  1  0  0  0  0
  2  3  1  0  0  0  0
  2  4  1  0  0  0  0
  2  5  1  0  0  0  0
  5  6  2  0  0  0  0
  5  7  1  0  0  0  0
  7  8  1  0  0  0  0
  7  9  1  0  0  0  0
  9 10  1  0  0  0  0
  9 11  1  0  0  0  0
  9 24  1  0  0  0  0
 11 12  1  0  0  0  0
 11 13  1  0  0  0  0
 11 17  1  0  0  0  0
 13 14  1  0  0  0  0
 13 15  1  0  0  0  0
 13 16  1  0  0  0  0
 17 18  1  0  0  0  0
 17 19  1  0  0  0  0
 17 20  1  0  0  0  0
 20 21  1  0  0  0  0
 20 22  1  0  0  0  0
 20 23  1  0  0  0  0
 24 25  2  0  0  0  0
 24 26  1  0  0  0  0
 26 27  1  0  0  0  0
 26 28  1  0  0  0  0
 28 29  1  0  0  0  0
 28 30  1  0  0  0  0
 28 31  1  0  0  0  0
M  END
$$$$

  -OEChem-03222214053D

 31 30  0     1  0  0  0  0  0999 V2000
   -2.5111   -4.2159    0.3186 H   0  0  0  0  0  0  0  0  0  0  0  0
   -2.5228   -3.1908   -0.0633 C   0  0  0  0  0  0  0  0  0  0  0  0
   -3.2362   -2.6057    0.5219 H   0  0  0  0  0  0  0  0  0  0  0  0
   -2.8445   -3.2098   -1.1074 H   0  0  0  0  0  0  0  0  0  0  0  0
   -1.1385   -2.5791    0.0435 C   0  0  0  0  0  0  0  0  0  0  0  0
   -0.2297   -3.2234    0.5339 O   0  0  0  0  0  0  0  0  0  0  0  0
   -0.9208   -1.2963   -0.4207 N   0  0  0  0  0  0  0  0  0  0  0  0
   -1.6957   -0.8496   -0.9012 H   0  0  0  0  0  0  0  0  0  0  0  0
    0.3987   -0.6326   -0.4670 C   0  0  1  0  0  0  0  0  0  0  0  0
    1.0962   -1.2641   -1.0286 H   0  0  0  0  0  0  0  0  0  0  0  0
    0.2064    0.7279   -1.2163 C   0  0  1  0  0  0  0  0  0  0  0  0
   -0.8312    1.0493   -1.0751 H   0  0  0  0  0  0  0  0  0  0  0  0
    1.0667    1.8766   -0.6419 C   0  0  0  0  0  0  0  0  0  0  0  0
    2.1324    1.6289   -0.6804 H   0  0  0  0  0  0  0  0  0  0  0  0
    0.8980    2.8016   -1.2003 H   0  0  0  0  0  0  0  0  0  0  0  0
    0.7980    2.0827    0.3980 H   0  0  0  0  0  0  0  0  0  0  0  0
    0.4256    0.5128   -2.7484 C   0  0  0  0  0  0  0  0  0  0  0  0
    0.5967   -0.5459   -2.9661 H   0  0  0  0  0  0  0  0  0  0  0  0
   -0.5061    0.7825   -3.2561 H   0  0  0  0  0  0  0  0  0  0  0  0
    1.5539    1.3119   -3.4140 C   0  0  0  0  0  0  0  0  0  0  0  0
    2.5154    1.0925   -2.9396 H   0  0  0  0  0  0  0  0  0  0  0  0
    1.6265    1.0353   -4.4703 H   0  0  0  0  0  0  0  0  0  0  0  0
    1.3631    2.3876   -3.3611 H   0  0  0  0  0  0  0  0  0  0  0  0
    1.0412   -0.5096    0.9382 C   0  0  0  0  0  0  0  0  0  0  0  0
    2.2551   -0.6041    1.0671 O   0  0  0  0  0  0  0  0  0  0  0  0
    0.2828   -0.0893    2.0171 N   0  0  0  0  0  0  0  0  0  0  0  0
   -0.7233   -0.1160    1.8937 H   0  0  0  0  0  0  0  0  0  0  0  0
    0.8235    0.0186    3.3659 C   0  0  0  0  0  0  0  0  0  0  0  0
    1.6560    0.7297    3.3897 H   0  0  0  0  0  0  0  0  0  0  0  0
    0.0508    0.3699    4.0561 H   0  0  0  0  0  0  0  0  0  0  0  0
    1.1828   -0.9561    3.7124 H   0  0  0  0  0  0  0  0  0  0  0  0
  1  2  1  0  0  0  0
  2  3  1  0  0  0  0
  2  4  1  0  0  0  0
  2  5  1  0  0  0  0
  5  6  2  0  0  0  0
  5  7  1  0  0  0  0
  7  8  1  0  0  0  0
  7  9  1  0  0  0  0
  9 10  1  0  0  0  0
  9 11  1  0  0  0  0
  9 24  1  0  0  0  0
 11 12  1  0  0  0  0
 11 13  1  0  0  0  0
 11 17  1  0  0  0  0
 13 14  1  0  0  0  0
 13 15  1  0  0  0  0
 13 16  1  0  0  0  0
 17 18  1  0  0  0  0
 17 19  1  0  0  0  0
 17 20  1  0  0  0  0
 20 21  1  0  0  0  0
 20 22  1  0  0  0  0
 20 23  1  0  0  0  0
 24 25  2  0  0  0  0
 24 26  1  0  0  0  0
 26 27  1  0  0  0  0
 26 28  1  0  0  0  0
 28 29  1  0  0  0  0
 28 30  1  0  0  0  0
 28 31  1  0  0  0  0
M  END
$$$$

  -OEChem-03222214053D

 31 30  0     1  0  0  0  0  0999 V2000
   -2.5112   -4.2210    0.3302 H   0  0  0  0  0  0  0  0  0  0  0  0
   -2.5246   -3.1971   -0.0550 C   0  0  0  0  0  0  0  0  0  0  0  0
   -3.2332   -2.6095    0.5335 H   0  0  0  0  0  0  0  0  0  0  0  0
   -2.8539   -3.2188   -1.0966 H   0  0  0  0  0  0  0  0  0  0  0  0
   -1.1390   -2.5864    0.0394 C   0  0  0  0  0  0  0  0  0  0  0  0
   -0.2271   -3.2302    0.5248 O   0  0  0  0  0  0  0  0  0  0  0  0
   -0.9241   -1.3037   -0.4267 N   0  0  0  0  0  0  0  0  0  0  0  0
   -1.7022   -0.8552   -0.9002 H   0  0  0  0  0  0  0  0  0  0  0  0
    0.3948   -0.6388   -0.4762 C   0  0  1  0  0  0  0  0  0  0  0  0
    1.0887   -1.2659   -1.0478 H   0  0  0  0  0  0  0  0  0  0  0  0
    0.2086    0.7232   -1.2182 C   0  0  1  0  0  0  0  0  0  0  0  0
   -0.8313    1.0380   -1.0787 H   0  0  0  0  0  0  0  0  0  0  0  0
    1.0639    1.8791   -0.6549 C   0  0  0  0  0  0  0  0  0  0  0  0
    2.1290    1.6260   -0.6642 H   0  0  0  0  0  0  0  0  0  0  0  0
    0.9129    2.7874   -1.2457 H   0  0  0  0  0  0  0  0  0  0  0  0
    0.7746    2.1108    0.3742 H   0  0  0  0  0  0  0  0  0  0  0  0
    0.4263    0.5078   -2.7448 C   0  0  0  0  0  0  0  0  0  0  0  0
    0.3154   -0.5520   -2.9968 H   0  0  0  0  0  0  0  0  0  0  0  0
   -0.3728    1.0376   -3.2731 H   0  0  0  0  0  0  0  0  0  0  0  0
    1.7564    1.0130   -3.3191 C   0  0  0  0  0  0  0  0  0  0  0  0
    2.5994    0.5563   -2.7908 H   0  0  0  0  0  0  0  0  0  0  0  0
    1.8285    0.7425   -4.3769 H   0  0  0  0  0  0  0  0  0  0  0  0
    1.8357    2.1013   -3.2446 H   0  0  0  0  0  0  0  0  0  0  0  0
    1.0419   -0.5126    0.9258 C   0  0  0  0  0  0  0  0  0  0  0  0
    2.2561   -0.6060    1.0522 O   0  0  0  0  0  0  0  0  0  0  0  0
    0.2842   -0.0909    2.0044 N   0  0  0  0  0  0  0  0  0  0  0  0
   -0.7220   -0.1186    1.8817 H   0  0  0  0  0  0  0  0  0  0  0  0
    0.8260    0.0262    3.3519 C   0  0  0  0  0  0  0  0  0  0  0  0
    1.6607    0.7350    3.3697 H   0  0  0  0  0  0  0  0  0  0  0  0
    0.0545    0.3857    4.0394 H   0  0  0  0  0  0  0  0  0  0  0  0
    1.1824   -0.9469    3.7059 H   0  0  0  0  0  0  0  0  0  0  0  0
  1  2  1  0  0  0  0
  2  3  1  0  0  0  0
  2  4  1  0  0  0  0
  2  5  1  0  0  0  0
  5  6  2  0  0  0  0
  5  7  1  0  0  0  0
  7  8  1  0  0  0  0
  7  9  1  0  0  0  0
  9 10  1  0  0  0  0
  9 11  1  0  0  0  0
  9 24  1  0  0  0  0
 11 12  1  0  0  0  0
 11 13  1  0  0  0  0
 11 17  1  0  0  0  0
 13 14  1  0  0  0  0
 13 15  1  0  0  0  0
 13 16  1  0  0  0  0
 17 18  1  0  0  0  0
 17 19  1  0  0  0  0
 17 20  1  0  0  0  0
 20 21  1  0  0  0  0
 20 22  1  0  0  0  0
 20 23  1  0  0  0  0
 24 25  2  0  0  0  0
 24 26  1  0  0  0  0
 26 27  1  0  0  0  0
 26 28  1  0  0  0  0
 28 29  1  0  0  0  0
 28 30  1  0  0  0  0
 28 31  1  0  0  0  0
M  END
$$$$

  -OEChem-03222214053D

 31 30  0     1  0  0  0  0  0999 V2000
   -2.5144   -4.2264    0.3203 H   0  0  0  0  0  0  0  0  0  0  0  0
   -2.5283   -3.2021   -0.0636 C   0  0  0  0  0  0  0  0  0  0  0  0
   -3.2423   -2.6174    0.5212 H   0  0  0  0  0  0  0  0  0  0  0  0
   -2.8511   -3.2233   -1.1072 H   0  0  0  0  0  0  0  0  0  0  0  0
   -1.1449   -2.5876    0.0395 C   0  0  0  0  0  0  0  0  0  0  0  0
   -0.2342   -3.2282    0.5315 O   0  0  0  0  0  0  0  0  0  0  0  0
   -0.9308   -1.3054   -0.4278 N   0  0  0  0  0  0  0  0  0  0  0  0
   -1.7069   -0.8615   -0.9090 H   0  0  0  0  0  0  0  0  0  0  0  0
    0.3878   -0.6398   -0.4775 C   0  0  1  0  0  0  0  0  0  0  0  0
    1.0770   -1.2673   -1.0538 H   0  0  0  0  0  0  0  0  0  0  0  0
    0.2001    0.7192   -1.2208 C   0  0  1  0  0  0  0  0  0  0  0  0
   -0.8386    1.0375   -1.0809 H   0  0  0  0  0  0  0  0  0  0  0  0
    1.0671    1.8755   -0.6800 C   0  0  0  0  0  0  0  0  0  0  0  0
    2.1274    1.6028   -0.6607 H   0  0  0  0  0  0  0  0  0  0  0  0
    0.9476    2.7644   -1.3071 H   0  0  0  0  0  0  0  0  0  0  0  0
    0.7623    2.1442    0.3360 H   0  0  0  0  0  0  0  0  0  0  0  0
    0.4187    0.5017   -2.7412 C   0  0  0  0  0  0  0  0  0  0  0  0
    0.0650   -0.4947   -3.0263 H   0  0  0  0  0  0  0  0  0  0  0  0
   -0.1998    1.2250   -3.2825 H   0  0  0  0  0  0  0  0  0  0  0  0
    1.8636    0.6771   -3.2257 C   0  0  0  0  0  0  0  0  0  0  0  0
    2.5396    0.0311   -2.6567 H   0  0  0  0  0  0  0  0  0  0  0  0
    1.9358    0.4052   -4.2832 H   0  0  0  0  0  0  0  0  0  0  0  0
    2.1943    1.7146   -3.1217 H   0  0  0  0  0  0  0  0  0  0  0  0
    1.0412   -0.5078    0.9209 C   0  0  0  0  0  0  0  0  0  0  0  0
    2.2559   -0.6033    1.0417 O   0  0  0  0  0  0  0  0  0  0  0  0
    0.2897   -0.0832    2.0026 N   0  0  0  0  0  0  0  0  0  0  0  0
   -0.7172   -0.1109    1.8858 H   0  0  0  0  0  0  0  0  0  0  0  0
    0.8390    0.0287    3.3475 C   0  0  0  0  0  0  0  0  0  0  0  0
    1.6735    0.7378    3.3635 H   0  0  0  0  0  0  0  0  0  0  0  0
    0.0717    0.3848    4.0414 H   0  0  0  0  0  0  0  0  0  0  0  0
    1.1980   -0.9458    3.6953 H   0  0  0  0  0  0  0  0  0  0  0  0
  1  2  1  0  0  0  0
  2  3  1  0  0  0  0
  2  4  1  0  0  0  0
  2  5  1  0  0  0  0
  5  6  2  0  0  0  0
  5  7  1  0  0  0  0
  7  8  1  0  0  0  0
  7  9  1  0  0  0  0
  9 10  1  0  0  0  0
  9 11  1  0  0  0  0
  9 24  1  0  0  0  0
 11 12  1  0  0  0  0
 11 13  1  0  0  0  0
 11 17  1  0  0  0  0
 13 14  1  0  0  0  0
 13 15  1  0  0  0  0
 13 16  1  0  0  0  0
 17 18  1  0  0  0  0
 17 19  1  0  0  0  0
 17 20  1  0  0  0  0
 20 21  1  0  0  0  0
 20 22  1  0  0  0  0
 20 23  1  0  0  0  0
 24 25  2  0  0  0  0
 24 26  1  0  0  0  0
 26 27  1  0  0  0  0
 26 28  1  0  0  0  0
 28 29  1  0  0  0  0
 28 30  1  0  0  0  0
 28 31  1  0  0  0  0
M  END
$$$$

  -OEChem-03222214053D

 31 30  0     1  0  0  0  0  0999 V2000
   -2.5183   -4.2311    0.3300 H   0  0  0  0  0  0  0  0  0  0  0  0
   -2.5305   -3.2089   -0.0591 C   0  0  0  0  0  0  0  0  0  0  0  0
   -3.2462   -2.6208    0.5201 H   0  0  0  0  0  0  0  0  0  0  0  0
   -2.8498   -3.2353   -1.1036 H   0  0  0  0  0  0  0  0  0  0  0  0
   -1.1471   -2.5952    0.0468 C   0  0  0  0  0  0  0  0  0  0  0  0
   -0.2395   -3.2341    0.5466 O   0  0  0  0  0  0  0  0  0  0  0  0
   -0.9289   -1.3159   -0.4265 N   0  0  0  0  0  0  0  0  0  0  0  0
   -1.7022   -0.8734   -0.9135 H   0  0  0  0  0  0  0  0  0  0  0  0
    0.3905   -0.6522   -0.4720 C   0  0  1  0  0  0  0  0  0  0  0  0
    1.0761   -1.2886   -1.0398 H   0  0  0  0  0  0  0  0  0  0  0  0
    0.1976    0.7040   -1.2210 C   0  0  1  0  0  0  0  0  0  0  0  0
   -0.8355    1.0358   -1.0708 H   0  0  0  0  0  0  0  0  0  0  0  0
    1.0937    1.8478   -0.7038 C   0  0  0  0  0  0  0  0  0  0  0  0
    2.1469    1.5497   -0.6836 H   0  0  0  0  0  0  0  0  0  0  0  0
    0.9955    2.7278   -1.3471 H   0  0  0  0  0  0  0  0  0  0  0  0
    0.7997    2.1414    0.3084 H   0  0  0  0  0  0  0  0  0  0  0  0
    0.4138    0.5120   -2.7425 C   0  0  0  0  0  0  0  0  0  0  0  0
   -0.1496   -0.3669   -3.0724 H   0  0  0  0  0  0  0  0  0  0  0  0
   -0.0040    1.3777   -3.2669 H   0  0  0  0  0  0  0  0  0  0  0  0
    1.8770    0.3501   -3.1820 C   0  0  0  0  0  0  0  0  0  0  0  0
    2.3664   -0.4666   -2.6443 H   0  0  0  0  0  0  0  0  0  0  0  0
    1.9171    0.1262   -4.2522 H   0  0  0  0  0  0  0  0  0  0  0  0
    2.4427    1.2702   -3.0092 H   0  0  0  0  0  0  0  0  0  0  0  0
    1.0370   -0.5121    0.9289 C   0  0  0  0  0  0  0  0  0  0  0  0
    2.2507   -0.6107    1.0569 O   0  0  0  0  0  0  0  0  0  0  0  0
    0.2809   -0.0800    2.0044 N   0  0  0  0  0  0  0  0  0  0  0  0
   -0.7254   -0.1028    1.8820 H   0  0  0  0  0  0  0  0  0  0  0  0
    0.8237    0.0388    3.3515 C   0  0  0  0  0  0  0  0  0  0  0  0
    1.6601    0.7454    3.3672 H   0  0  0  0  0  0  0  0  0  0  0  0
    0.0543    0.4016    4.0394 H   0  0  0  0  0  0  0  0  0  0  0  0
    1.1778   -0.9346    3.7073 H   0  0  0  0  0  0  0  0  0  0  0  0
  1  2  1  0  0  0  0
  2  3  1  0  0  0  0
  2  4  1  0  0  0  0
  2  5  1  0  0  0  0
  5  6  2  0  0  0  0
  5  7  1  0  0  0  0
  7  8  1  0  0  0  0
  7  9  1  0  0  0  0
  9 10  1  0  0  0  0
  9 11  1  0  0  0  0
  9 24  1  0  0  0  0
 11 12  1  0  0  0  0
 11 13  1  0  0  0  0
 11 17  1  0  0  0  0
 13 14  1  0  0  0  0
 13 15  1  0  0  0  0
 13 16  1  0  0  0  0
 17 18  1  0  0  0  0
 17 19  1  0  0  0  0
 17 20  1  0  0  0  0
 20 21  1  0  0  0  0
 20 22  1  0  0  0  0
 20 23  1  0  0  0  0
 24 25  2  0  0  0  0
 24 26  1  0  0  0  0
 26 27  1  0  0  0  0
 26 28  1  0  0  0  0
 28 29  1  0  0  0  0
 28 30  1  0  0  0  0
 28 31  1  0  0  0  0
M  END
$$$$

  -OEChem-03222214053D

 31 30  0     1  0  0  0  0  0999 V2000
   -2.5240   -4.2373    0.3607 H   0  0  0  0  0  0  0  0  0  0  0  0
   -2.5285   -3.2209   -0.0430 C   0  0  0  0  0  0  0  0  0  0  0  0
   -3.2526   -2.6238    0.5162 H   0  0  0  0  0  0  0  0  0  0  0  0
   -2.8313   -3.2624   -1.0920 H   0  0  0  0  0  0  0  0  0  0  0  0
   -1.1463   -2.6067    0.0758 C   0  0  0  0  0  0  0  0  0  0  0  0
   -0.2469   -3.2401    0.5967 O   0  0  0  0  0  0  0  0  0  0  0  0
   -0.9193   -1.3350   -0.4141 N   0  0  0  0  0  0  0  0  0  0  0  0
   -1.6843   -0.9005   -0.9208 H   0  0  0  0  0  0  0  0  0  0  0  0
    0.4022   -0.6754   -0.4575 C   0  0  1  0  0  0  0  0  0  0  0  0
    1.0934   -1.3212   -1.0031 H   0  0  0  0  0  0  0  0  0  0  0  0
    0.2046    0.6755   -1.2191 C   0  0  1  0  0  0  0  0  0  0  0  0
   -0.8211    1.0223   -1.0536 H   0  0  0  0  0  0  0  0  0  0  0  0
    1.1279    1.8051   -0.7161 C   0  0  0  0  0  0  0  0  0  0  0  0
    2.1758    1.4893   -0.7152 H   0  0  0  0  0  0  0  0  0  0  0  0
    1.0356    2.6893   -1.3541 H   0  0  0  0  0  0  0  0  0  0  0  0
    0.8566    2.1034    0.3010 H   0  0  0  0  0  0  0  0  0  0  0  0
    0.4125    0.5239   -2.7486 C   0  0  0  0  0  0  0  0  0  0  0  0
   -0.3369   -0.1758   -3.1318 H   0  0  0  0  0  0  0  0  0  0  0  0
    0.2185    1.4911   -3.2240 H   0  0  0  0  0  0  0  0  0  0  0  0
    1.7958    0.0340   -3.2064 C   0  0  0  0  0  0  0  0  0  0  0  0
    1.9873   -0.9944   -2.8911 H   0  0  0  0  0  0  0  0  0  0  0  0
    1.8477    0.0606   -4.2991 H   0  0  0  0  0  0  0  0  0  0  0  0
    2.5905    0.6752   -2.8156 H   0  0  0  0  0  0  0  0  0  0  0  0
    1.0313   -0.5195    0.9503 C   0  0  0  0  0  0  0  0  0  0  0  0
    2.2428   -0.6212    1.0956 O   0  0  0  0  0  0  0  0  0  0  0  0
    0.2632   -0.0714    2.0109 N   0  0  0  0  0  0  0  0  0  0  0  0
   -0.7417   -0.0902    1.8763 H   0  0  0  0  0  0  0  0  0  0  0  0
    0.7909    0.0720    3.3616 C   0  0  0  0  0  0  0  0  0  0  0  0
    1.6265    0.7798    3.3737 H   0  0  0  0  0  0  0  0  0  0  0  0
    0.0137    0.4462    4.0344 H   0  0  0  0  0  0  0  0  0  0  0  0
    1.1421   -0.8944    3.7383 H   0  0  0  0  0  0  0  0  0  0  0  0
  1  2  1  0  0  0  0
  2  3  1  0  0  0  0
  2  4  1  0  0  0  0
  2  5  1  0  0  0  0
  5  6  2  0  0  0  0
  5  7  1  0  0  0  0
  7  8  1  0  0  0  0
  7  9  1  0  0  0  0
  9 10  1  0  0  0  0
  9 11  1  0  0  0  0
  9 24  1  0  0  0  0
 11 12  1  0  0  0  0
 11 13  1  0  0  0  0
 11 17  1  0  0  0  0
 13 14  1  0  0  0  0
 13 15  1  0  0  0  0
 13 16  1  0  0  0  0
 17 18  1  0  0  0  0
 17 19  1  0  0  0  0
 17 20  1  0  0  0  0
 20 21  1  0  0  0  0
 20 22  1  0  0  0  0
 20 23  1  0  0  0  0
 24 25  2  0  0  0  0
 24 26  1  0  0  0  0
 26 27  1  0  0  0  0
 26 28  1  0  0  0  0
 28 29  1  0  0  0  0
 28 30  1  0  0  0  0
 28 31  1  0  0  0  0
M  END
$$$$

  -OEChem-03222214053D

 31 30  0     1  0  0  0  0  0999 V2000
   -2.5149   -4.2445    0.3802 H   0  0  0  0  0  0  0  0  0  0  0  0
   -2.5215   -3.2255   -0.0173 C   0  0  0  0  0  0  0  0  0  0  0  0
   -3.2435   -2.6320    0.5486 H   0  0  0  0  0  0  0  0  0  0  0  0
   -2.8282   -3.2604   -1.0653 H   0  0  0  0  0  0  0  0  0  0  0  0
   -1.1394   -2.6110    0.0998 C   0  0  0  0  0  0  0  0  0  0  0  0
   -0.2421   -3.2389    0.6312 O   0  0  0  0  0  0  0  0  0  0  0  0
   -0.9116   -1.3444   -0.4027 N   0  0  0  0  0  0  0  0  0  0  0  0
   -1.6742   -0.9179   -0.9196 H   0  0  0  0  0  0  0  0  0  0  0  0
    0.4090   -0.6841   -0.4494 C   0  0  1  0  0  0  0  0  0  0  0  0
    1.1103   -1.3336   -0.9759 H   0  0  0  0  0  0  0  0  0  0  0  0
    0.2042    0.6623   -1.2225 C   0  0  1  0  0  0  0  0  0  0  0  0
   -0.8124    1.0265   -1.0392 H   0  0  0  0  0  0  0  0  0  0  0  0
    1.1603    1.7759   -0.7403 C   0  0  0  0  0  0  0  0  0  0  0  0
    2.2040    1.4533   -0.8108 H   0  0  0  0  0  0  0  0  0  0  0  0
    1.0386    2.6799   -1.3448 H   0  0  0  0  0  0  0  0  0  0  0  0
    0.9501    2.0515    0.2973 H   0  0  0  0  0  0  0  0  0  0  0  0
    0.4040    0.5313   -2.7585 C   0  0  0  0  0  0  0  0  0  0  0  0
   -0.4830    0.0451   -3.1767 H   0  0  0  0  0  0  0  0  0  0  0  0
    0.4510    1.5316   -3.2013 H   0  0  0  0  0  0  0  0  0  0  0  0
    1.6294   -0.2644   -3.2294 C   0  0  0  0  0  0  0  0  0  0  0  0
    1.4899   -1.3378   -3.0734 H   0  0  0  0  0  0  0  0  0  0  0  0
    1.7823   -0.1035   -4.3008 H   0  0  0  0  0  0  0  0  0  0  0  0
    2.5321    0.0585   -2.7022 H   0  0  0  0  0  0  0  0  0  0  0  0
    1.0249   -0.5173    0.9633 C   0  0  0  0  0  0  0  0  0  0  0  0
    2.2353   -0.6150    1.1205 O   0  0  0  0  0  0  0  0  0  0  0  0
    0.2459   -0.0618    2.0125 N   0  0  0  0  0  0  0  0  0  0  0  0
   -0.7575   -0.0918    1.8687 H   0  0  0  0  0  0  0  0  0  0  0  0
    0.7580    0.0823    3.3691 C   0  0  0  0  0  0  0  0  0  0  0  0
    1.5959    0.7871    3.3900 H   0  0  0  0  0  0  0  0  0  0  0  0
   -0.0260    0.4605    4.0318 H   0  0  0  0  0  0  0  0  0  0  0  0
    1.1015   -0.8845    3.7520 H   0  0  0  0  0  0  0  0  0  0  0  0
  1  2  1  0  0  0  0
  2  3  1  0  0  0  0
  2  4  1  0  0  0  0
  2  5  1  0  0  0  0
  5  6  2  0  0  0  0
  5  7  1  0  0  0  0
  7  8  1  0  0  0  0
  7  9  1  0  0  0  0
  9 10  1  0  0  0  0
  9 11  1  0  0  0  0
  9 24  1  0  0  0  0
 11 12  1  0  0  0  0
 11 13  1  0  0  0  0
 11 17  1  0  0  0  0
 13 14  1  0  0  0  0
 13 15  1  0  0  0  0
 13 16  1  0  0  0  0
 17 18  1  0  0  0  0
 17 19  1  0  0  0  0
 17 20  1  0  0  0  0
 20 21  1  0  0  0  0
 20 22  1  0  0  0  0
 20 23  1  0  0  0  0
 24 25  2  0  0  0  0
 24 26  1  0  0  0  0
 26 27  1  0  0  0  0
 26 28  1  0  0  0  0
 28 29  1  0  0  0  0
 28 30  1  0  0  0  0
 28 31  1  0  0  0  0
M  END
$$$$

  -OEChem-03222214053D

 31 30  0     1  0  0  0  0  0999 V2000
   -2.5235   -4.2425    0.4071 H   0  0  0  0  0  0  0  0  0  0  0  0
   -2.5241   -3.2289   -0.0044 C   0  0  0  0  0  0  0  0  0  0  0  0
   -3.2492   -2.6257    0.5471 H   0  0  0  0  0  0  0  0  0  0  0  0
   -2.8221   -3.2777   -1.0545 H   0  0  0  0  0  0  0  0  0  0  0  0
   -1.1411   -2.6168    0.1154 C   0  0  0  0  0  0  0  0  0  0  0  0
   -0.2477   -3.2437    0.6543 O   0  0  0  0  0  0  0  0  0  0  0  0
   -0.9076   -1.3541   -0.3943 N   0  0  0  0  0  0  0  0  0  0  0  0
   -1.6666   -0.9298   -0.9184 H   0  0  0  0  0  0  0  0  0  0  0  0
    0.4148   -0.6973   -0.4406 C   0  0  1  0  0  0  0  0  0  0  0  0
    1.1228   -1.3509   -0.9526 H   0  0  0  0  0  0  0  0  0  0  0  0
    0.2084    0.6485   -1.2210 C   0  0  1  0  0  0  0  0  0  0  0  0
   -0.8024    1.0224   -1.0251 H   0  0  0  0  0  0  0  0  0  0  0  0
    1.1801    1.7507   -0.7410 C   0  0  0  0  0  0  0  0  0  0  0  0
    2.2196    1.4252   -0.8546 H   0  0  0  0  0  0  0  0  0  0  0  0
    1.0414    2.6703   -1.3181 H   0  0  0  0  0  0  0  0  0  0  0  0
    1.0045    2.0061    0.3081 H   0  0  0  0  0  0  0  0  0  0  0  0
    0.4019    0.5408   -2.7648 C   0  0  0  0  0  0  0  0  0  0  0  0
   -0.5721    0.3010   -3.2029 H   0  0  0  0  0  0  0  0  0  0  0  0
    0.6933    1.5134   -3.1746 H   0  0  0  0  0  0  0  0  0  0  0  0
    1.3921   -0.5116   -3.2767 C   0  0  0  0  0  0  0  0  0  0  0  0
    1.0104   -1.5240   -3.1127 H   0  0  0  0  0  0  0  0  0  0  0  0
    1.5456   -0.3832   -4.3525 H   0  0  0  0  0  0  0  0  0  0  0  0
    2.3601   -0.4054   -2.7768 H   0  0  0  0  0  0  0  0  0  0  0  0
    1.0208   -0.5257    0.9762 C   0  0  0  0  0  0  0  0  0  0  0  0
    2.2304   -0.6212    1.1417 O   0  0  0  0  0  0  0  0  0  0  0  0
    0.2353   -0.0633    2.0178 N   0  0  0  0  0  0  0  0  0  0  0  0
   -0.7674   -0.0936    1.8687 H   0  0  0  0  0  0  0  0  0  0  0  0
    0.7397    0.0942    3.3759 C   0  0  0  0  0  0  0  0  0  0  0  0
    1.5769    0.7997    3.3947 H   0  0  0  0  0  0  0  0  0  0  0  0
   -0.0481    0.4785    4.0305 H   0  0  0  0  0  0  0  0  0  0  0  0
    1.0812   -0.8686    3.7703 H   0  0  0  0  0  0  0  0  0  0  0  0
  1  2  1  0  0  0  0
  2  3  1  0  0  0  0
  2  4  1  0  0  0  0
  2  5  1  0  0  0  0
  5  6  2  0  0  0  0
  5  7  1  0  0  0  0
  7  8  1  0  0  0  0
  7  9  1  0  0  0  0
  9 10  1  0  0  0  0
  9 11  1  0  0  0  0
  9 24  1  0  0  0  0
 11 12  1  0  0  0  0
 11 13  1  0  0  0  0
 11 17  1  0  0  0  0
 13 14  1  0  0  0  0
 13 15  1  0  0  0  0
 13 16  1  0  0  0  0
 17 18  1  0  0  0  0
 17 19  1  0  0  0  0
 17 20  1  0  0  0  0
 20 21  1  0  0  0  0
 20 22  1  0  0  0  0
 20 23  1  0  0  0  0
 24 25  2  0  0  0  0
 24 26  1  0  0  0  0
 26 27  1  0  0  0  0
 26 28  1  0  0  0  0
 28 29  1  0  0  0  0
 28 30  1  0  0  0  0
 28 31  1  0  0  0  0
M  END
$$$$

  -OEChem-03222214053D

 31 30  0     1  0  0  0  0  0999 V2000
   -2.5312   -4.2417    0.4167 H   0  0  0  0  0  0  0  0  0  0  0  0
   -2.5290   -3.2290    0.0034 C   0  0  0  0  0  0  0  0  0  0  0  0
   -3.2563   -2.6244    0.5504 H   0  0  0  0  0  0  0  0  0  0  0  0
   -2.8222   -3.2792   -1.0480 H   0  0  0  0  0  0  0  0  0  0  0  0
   -1.1462   -2.6177    0.1285 C   0  0  0  0  0  0  0  0  0  0  0  0
   -0.2559   -3.2449    0.6724 O   0  0  0  0  0  0  0  0  0  0  0  0
   -0.9089   -1.3577   -0.3860 N   0  0  0  0  0  0  0  0  0  0  0  0
   -1.6643   -0.9357   -0.9171 H   0  0  0  0  0  0  0  0  0  0  0  0
    0.4157   -0.7052   -0.4354 C   0  0  1  0  0  0  0  0  0  0  0  0
    1.1260   -1.3607   -0.9425 H   0  0  0  0  0  0  0  0  0  0  0  0
    0.2167    0.6396   -1.2210 C   0  0  1  0  0  0  0  0  0  0  0  0
   -0.7963    1.0089   -1.0267 H   0  0  0  0  0  0  0  0  0  0  0  0
    1.1762    1.7478   -0.7322 C   0  0  0  0  0  0  0  0  0  0  0  0
    2.2187    1.4308   -0.8430 H   0  0  0  0  0  0  0  0  0  0  0  0
    1.0304    2.6674   -1.3075 H   0  0  0  0  0  0  0  0  0  0  0  0
    0.9939    1.9984    0.3167 H   0  0  0  0  0  0  0  0  0  0  0  0
    0.4077    0.5408   -2.7699 C   0  0  0  0  0  0  0  0  0  0  0  0
   -0.5877    0.5833   -3.2231 H   0  0  0  0  0  0  0  0  0  0  0  0
    0.9539    1.4130   -3.1439 H   0  0  0  0  0  0  0  0  0  0  0  0
    1.0969   -0.7100   -3.3263 C   0  0  0  0  0  0  0  0  0  0  0  0
    0.5202   -1.6112   -3.0958 H   0  0  0  0  0  0  0  0  0  0  0  0
    1.1819   -0.6333   -4.4146 H   0  0  0  0  0  0  0  0  0  0  0  0
    2.1056   -0.8103   -2.9127 H   0  0  0  0  0  0  0  0  0  0  0  0
    1.0201   -0.5316    0.9818 C   0  0  0  0  0  0  0  0  0  0  0  0
    2.2292   -0.6292    1.1496 O   0  0  0  0  0  0  0  0  0  0  0  0
    0.2345   -0.0637    2.0209 N   0  0  0  0  0  0  0  0  0  0  0  0
   -0.7678   -0.0902    1.8696 H   0  0  0  0  0  0  0  0  0  0  0  0
    0.7367    0.0987    3.3791 C   0  0  0  0  0  0  0  0  0  0  0  0
    1.5747    0.8035    3.3970 H   0  0  0  0  0  0  0  0  0  0  0  0
   -0.0525    0.4864    4.0303 H   0  0  0  0  0  0  0  0  0  0  0  0
    1.0765   -0.8629    3.7781 H   0  0  0  0  0  0  0  0  0  0  0  0
  1  2  1  0  0  0  0
  2  3  1  0  0  0  0
  2  4  1  0  0  0  0
  2  5  1  0  0  0  0
  5  6  2  0  0  0  0
  5  7  1  0  0  0  0
  7  8  1  0  0  0  0
  7  9  1  0  0  0  0
  9 10  1  0  0  0  0
  9 11  1  0  0  0  0
  9 24  1  0  0  0  0
 11 12  1  0  0  0  0
 11 13  1  0  0  0  0
 11 17  1  0  0  0  0
 13 14  1  0  0  0  0
 13 15  1  0  0  0  0
 13 16  1  0  0  0  0
 17 18  1  0  0  0  0
 17 19  1  0  0  0  0
 17 20  1  0  0  0  0
 20 21  1  0  0  0  0
 20 22  1  0  0  0  0
 20 23  1  0  0  0  0
 24 25  2  0  0  0  0
 24 26  1  0  0  0  0
 26 27  1  0  0  0  0
 26 28  1  0  0  0  0
 28 29  1  0  0  0  0
 28 30  1  0  0  0  0
 28 31  1  0  0  0  0
M  END
$$$$

  -OEChem-03222214053D

 31 30  0     1  0  0  0  0  0999 V2000
   -2.5307   -4.2490    0.4196 H   0  0  0  0  0  0  0  0  0  0  0  0
   -2.5345   -3.2321    0.0166 C   0  0  0  0  0  0  0  0  0  0  0  0
   -3.2582   -2.6349    0.5763 H   0  0  0  0  0  0  0  0  0  0  0  0
   -2.8368   -3.2724   -1.0325 H   0  0  0  0  0  0  0  0  0  0  0  0
   -1.1519   -2.6189    0.1362 C   0  0  0  0  0  0  0  0  0  0  0  0
   -0.2609   -3.2436    0.6816 O   0  0  0  0  0  0  0  0  0  0  0  0
   -0.9152   -1.3605   -0.3831 N   0  0  0  0  0  0  0  0  0  0  0  0
   -1.6701   -0.9425   -0.9181 H   0  0  0  0  0  0  0  0  0  0  0  0
    0.4107   -0.7094   -0.4375 C   0  0  1  0  0  0  0  0  0  0  0  0
    1.1198   -1.3640   -0.9486 H   0  0  0  0  0  0  0  0  0  0  0  0
    0.2235    0.6354   -1.2236 C   0  0  1  0  0  0  0  0  0  0  0  0
   -0.7953    0.9920   -1.0369 H   0  0  0  0  0  0  0  0  0  0  0  0
    1.1628    1.7566   -0.7281 C   0  0  0  0  0  0  0  0  0  0  0  0
    2.2101    1.4463   -0.8098 H   0  0  0  0  0  0  0  0  0  0  0  0
    1.0233    2.6650   -1.3229 H   0  0  0  0  0  0  0  0  0  0  0  0
    0.9540    2.0194    0.3132 H   0  0  0  0  0  0  0  0  0  0  0  0
    0.4149    0.5393   -2.7725 C   0  0  0  0  0  0  0  0  0  0  0  0
   -0.5159    0.8772   -3.2398 H   0  0  0  0  0  0  0  0  0  0  0  0
    1.1978    1.2315   -3.1008 H   0  0  0  0  0  0  0  0  0  0  0  0
    0.7590   -0.8315   -3.3673 C   0  0  0  0  0  0  0  0  0  0  0  0
    0.0128   -1.5801   -3.0854 H   0  0  0  0  0  0  0  0  0  0  0  0
    0.7780   -0.7655   -4.4594 H   0  0  0  0  0  0  0  0  0  0  0  0
    1.7473   -1.1630   -3.0344 H   0  0  0  0  0  0  0  0  0  0  0  0
    1.0196   -0.5314    0.9775 C   0  0  0  0  0  0  0  0  0  0  0  0
    2.2283   -0.6360    1.1435 O   0  0  0  0  0  0  0  0  0  0  0  0
    0.2381   -0.0586    2.0176 N   0  0  0  0  0  0  0  0  0  0  0  0
   -0.7644   -0.0742    1.8659 H   0  0  0  0  0  0  0  0  0  0  0  0
    0.7419    0.0978    3.3760 C   0  0  0  0  0  0  0  0  0  0  0  0
    1.5830    0.7988    3.3953 H   0  0  0  0  0  0  0  0  0  0  0  0
   -0.0450    0.4866    4.0290 H   0  0  0  0  0  0  0  0  0  0  0  0
    1.0780   -0.8663    3.7720 H   0  0  0  0  0  0  0  0  0  0  0  0
  1  2  1  0  0  0  0
  2  3  1  0  0  0  0
  2  4  1  0  0  0  0
  2  5  1  0  0  0  0
  5  6  2  0  0  0  0
  5  7  1  0  0  0  0
  7  8  1  0  0  0  0
  7  9  1  0  0  0  0
  9 10  1  0  0  0  0
  9 11  1  0  0  0  0
  9 24  1  0  0  0  0
 11 12  1  0  0  0  0
 11 13  1  0  0  0  0
 11 17  1  0  0  0  0
 13 14  1  0  0  0  0
 13 15  1  0  0  0  0
 13 16  1  0  0  0  0
 17 18  1  0  0  0  0
 17 19  1  0  0  0  0
 17 20  1  0  0  0  0
 20 21  1  0  0  0  0
 20 22  1  0  0  0  0
 20 23  1  0  0  0  0
 24 25  2  0  0  0  0
 24 26  1  0  0  0  0
 26 27  1  0  0  0  0
 26 28  1  0  0  0  0
 28 29  1  0  0  0  0
 28 30  1  0  0  0  0
 28 31  1  0  0  0  0
M  END
$$$$

  -OEChem-03222214053D

 31 30  0     1  0  0  0  0  0999 V2000
   -2.5332   -4.2506    0.4232 H   0  0  0  0  0  0  0  0  0  0  0  0
   -2.5389   -3.2343    0.0187 C   0  0  0  0  0  0  0  0  0  0  0  0
   -3.2612   -2.6366    0.5796 H   0  0  0  0  0  0  0  0  0  0  0  0
   -2.8442   -3.2764   -1.0295 H   0  0  0  0  0  0  0  0  0  0  0  0
   -1.1563   -2.6202    0.1330 C   0  0  0  0  0  0  0  0  0  0  0  0
   -0.2606   -3.2457    0.6698 O   0  0  0  0  0  0  0  0  0  0  0  0
   -0.9251   -1.3594   -0.3825 N   0  0  0  0  0  0  0  0  0  0  0  0
   -1.6840   -0.9396   -0.9103 H   0  0  0  0  0  0  0  0  0  0  0  0
    0.3991   -0.7052   -0.4412 C   0  0  1  0  0  0  0  0  0  0  0  0
    1.1061   -1.3544   -0.9632 H   0  0  0  0  0  0  0  0  0  0  0  0
    0.2209    0.6389   -1.2256 C   0  0  1  0  0  0  0  0  0  0  0  0
   -0.8034    0.9842   -1.0487 H   0  0  0  0  0  0  0  0  0  0  0  0
    1.1455    1.7707   -0.7310 C   0  0  0  0  0  0  0  0  0  0  0  0
    2.1955    1.4638   -0.7835 H   0  0  0  0  0  0  0  0  0  0  0  0
    1.0165    2.6658   -1.3479 H   0  0  0  0  0  0  0  0  0  0  0  0
    0.9123    2.0488    0.3011 H   0  0  0  0  0  0  0  0  0  0  0  0
    0.4162    0.5369   -2.7700 C   0  0  0  0  0  0  0  0  0  0  0  0
   -0.3665    1.1352   -3.2478 H   0  0  0  0  0  0  0  0  0  0  0  0
    1.3751    0.9874   -3.0488 H   0  0  0  0  0  0  0  0  0  0  0  0
    0.3995   -0.8649   -3.3941 C   0  0  0  0  0  0  0  0  0  0  0  0
   -0.5036   -1.4103   -3.1063 H   0  0  0  0  0  0  0  0  0  0  0  0
    0.4127   -0.7807   -4.4850 H   0  0  0  0  0  0  0  0  0  0  0  0
    1.2797   -1.4418   -3.0962 H   0  0  0  0  0  0  0  0  0  0  0  0
    1.0186   -0.5295    0.9689 C   0  0  0  0  0  0  0  0  0  0  0  0
    2.2290   -0.6307    1.1246 O   0  0  0  0  0  0  0  0  0  0  0  0
    0.2447   -0.0615    2.0166 N   0  0  0  0  0  0  0  0  0  0  0  0
   -0.7592   -0.0813    1.8750 H   0  0  0  0  0  0  0  0  0  0  0  0
    0.7614    0.0952    3.3701 C   0  0  0  0  0  0  0  0  0  0  0  0
    1.6022    0.7969    3.3810 H   0  0  0  0  0  0  0  0  0  0  0  0
   -0.0194    0.4836    4.0308 H   0  0  0  0  0  0  0  0  0  0  0  0
    1.1021   -0.8690    3.7625 H   0  0  0  0  0  0  0  0  0  0  0  0
  1  2  1  0  0  0  0
  2  3  1  0  0  0  0
  2  4  1  0  0  0  0
  2  5  1  0  0  0  0
  5  6  2  0  0  0  0
  5  7  1  0  0  0  0
  7  8  1  0  0  0  0
  7  9  1  0  0  0  0
  9 10  1  0  0  0  0
  9 11  1  0  0  0  0
  9 24  1  0  0  0  0
 11 12  1  0  0  0  0
 11 13  1  0  0  0  0
 11 17  1  0  0  0  0
 13 14  1  0  0  0  0
 13 15  1  0  0  0  0
 13 16  1  0  0  0  0
 17 18  1  0  0  0  0
 17 19  1  0  0  0  0
 17 20  1  0  0  0  0
 20 21  1  0  0  0  0
 20 22  1  0  0  0  0
 20 23  1  0  0  0  0
 24 25  2  0  0  0  0
 24 26  1  0  0  0  0
 26 27  1  0  0  0  0
 26 28  1  0  0  0  0
 28 29  1  0  0  0  0
 28 30  1  0  0  0  0
 28 31  1  0  0  0  0
M  END
$$$$

  -OEChem-03222214053D

 31 30  0     1  0  0  0  0  0999 V2000
   -2.5232   -4.2515    0.4151 H   0  0  0  0  0  0  0  0  0  0  0  0
   -2.5343   -3.2337    0.0144 C   0  0  0  0  0  0  0  0  0  0  0  0
   -3.2515   -2.6387    0.5848 H   0  0  0  0  0  0  0  0  0  0  0  0
   -2.8501   -3.2725   -1.0308 H   0  0  0  0  0  0  0  0  0  0  0  0
   -1.1516   -2.6184    0.1169 C   0  0  0  0  0  0  0  0  0  0  0  0
   -0.2480   -3.2464    0.6372 O   0  0  0  0  0  0  0  0  0  0  0  0
   -0.9293   -1.3529   -0.3902 N   0  0  0  0  0  0  0  0  0  0  0  0
   -1.6954   -0.9294   -0.9047 H   0  0  0  0  0  0  0  0  0  0  0  0
    0.3910   -0.6912   -0.4508 C   0  0  1  0  0  0  0  0  0  0  0  0
    1.0984   -1.3296   -0.9880 H   0  0  0  0  0  0  0  0  0  0  0  0
    0.2107    0.6551   -1.2260 C   0  0  1  0  0  0  0  0  0  0  0  0
   -0.8138    1.0004   -1.0500 H   0  0  0  0  0  0  0  0  0  0  0  0
    1.1426    1.7845   -0.7437 C   0  0  0  0  0  0  0  0  0  0  0  0
    2.1911    1.4731   -0.7999 H   0  0  0  0  0  0  0  0  0  0  0  0
    1.0143    2.6759   -1.3660 H   0  0  0  0  0  0  0  0  0  0  0  0
    0.9161    2.0684    0.2884 H   0  0  0  0  0  0  0  0  0  0  0  0
    0.4090    0.5377   -2.7636 C   0  0  0  0  0  0  0  0  0  0  0  0
   -0.1769    1.3266   -3.2466 H   0  0  0  0  0  0  0  0  0  0  0  0
    1.4616    0.7230   -3.0043 H   0  0  0  0  0  0  0  0  0  0  0  0
    0.0405   -0.8083   -3.4024 C   0  0  0  0  0  0  0  0  0  0  0  0
   -0.9856   -1.0878   -3.1475 H   0  0  0  0  0  0  0  0  0  0  0  0
    0.1120   -0.7287   -4.4914 H   0  0  0  0  0  0  0  0  0  0  0  0
    0.7179   -1.6051   -3.0839 H   0  0  0  0  0  0  0  0  0  0  0  0
    1.0182   -0.5221    0.9564 C   0  0  0  0  0  0  0  0  0  0  0  0
    2.2299   -0.6189    1.1045 O   0  0  0  0  0  0  0  0  0  0  0  0
    0.2475   -0.0655    2.0114 N   0  0  0  0  0  0  0  0  0  0  0  0
   -0.7571   -0.0913    1.8749 H   0  0  0  0  0  0  0  0  0  0  0  0
    0.7699    0.0814    3.3637 C   0  0  0  0  0  0  0  0  0  0  0  0
    1.6102    0.7836    3.3769 H   0  0  0  0  0  0  0  0  0  0  0  0
   -0.0086    0.4642    4.0303 H   0  0  0  0  0  0  0  0  0  0  0  0
    1.1128   -0.8854    3.7472 H   0  0  0  0  0  0  0  0  0  0  0  0
  1  2  1  0  0  0  0
  2  3  1  0  0  0  0
  2  4  1  0  0  0  0
  2  5  1  0  0  0  0
  5  6  2  0  0  0  0
  5  7  1  0  0  0  0
  7  8  1  0  0  0  0
  7  9  1  0  0  0  0
  9 10  1  0  0  0  0
  9 11  1  0  0  0  0
  9 24  1  0  0  0  0
 11 12  1  0  0  0  0
 11 13  1  0  0  0  0
 11 17  1  0  0  0  0
 13 14  1  0  0  0  0
 13 15  1  0  0  0  0
 13 16  1  0  0  0  0
 17 18  1  0  0  0  0
 17 19  1  0  0  0  0
 17 20  1  0  0  0  0
 20 21  1  0  0  0  0
 20 22  1  0  0  0  0
 20 23  1  0  0  0  0
 24 25  2  0  0  0  0
 24 26  1  0  0  0  0
 26 27  1  0  0  0  0
 26 28  1  0  0  0  0
 28 29  1  0  0  0  0
 28 30  1  0  0  0  0
 28 31  1  0  0  0  0
M  END
$$$$

  -OEChem-03222214053D

 31 30  0     1  0  0  0  0  0999 V2000
   -2.5150   -4.2540    0.3688 H   0  0  0  0  0  0  0  0  0  0  0  0
   -2.5310   -3.2332   -0.0238 C   0  0  0  0  0  0  0  0  0  0  0  0
   -3.2596   -2.6495    0.5437 H   0  0  0  0  0  0  0  0  0  0  0  0
   -2.8359   -3.2661   -1.0724 H   0  0  0  0  0  0  0  0  0  0  0  0
   -1.1546   -2.6066    0.0974 C   0  0  0  0  0  0  0  0  0  0  0  0
   -0.2500   -3.2317    0.6193 O   0  0  0  0  0  0  0  0  0  0  0  0
   -0.9389   -1.3349   -0.3965 N   0  0  0  0  0  0  0  0  0  0  0  0
   -1.7051   -0.9141   -0.9130 H   0  0  0  0  0  0  0  0  0  0  0  0
    0.3786   -0.6676   -0.4554 C   0  0  1  0  0  0  0  0  0  0  0  0
    1.0794   -1.2993   -1.0118 H   0  0  0  0  0  0  0  0  0  0  0  0
    0.1953    0.6800   -1.2239 C   0  0  1  0  0  0  0  0  0  0  0  0
   -0.8256    1.0363   -1.0493 H   0  0  0  0  0  0  0  0  0  0  0  0
    1.1460    1.7992   -0.7565 C   0  0  0  0  0  0  0  0  0  0  0  0
    2.1901    1.4768   -0.8292 H   0  0  0  0  0  0  0  0  0  0  0  0
    1.0179    2.6925   -1.3759 H   0  0  0  0  0  0  0  0  0  0  0  0
    0.9382    2.0843    0.2792 H   0  0  0  0  0  0  0  0  0  0  0  0
    0.4025    0.5322   -2.7528 C   0  0  0  0  0  0  0  0  0  0  0  0
    0.0400    1.4403   -3.2456 H   0  0  0  0  0  0  0  0  0  0  0  0
    1.4746    0.4511   -2.9625 H   0  0  0  0  0  0  0  0  0  0  0  0
   -0.2893   -0.6784   -3.3914 C   0  0  0  0  0  0  0  0  0  0  0  0
   -1.3600   -0.6695   -3.1671 H   0  0  0  0  0  0  0  0  0  0  0  0
   -0.1655   -0.6430   -4.4781 H   0  0  0  0  0  0  0  0  0  0  0  0
    0.1409   -1.6189   -3.0360 H   0  0  0  0  0  0  0  0  0  0  0  0
    1.0171   -0.5082    0.9472 C   0  0  0  0  0  0  0  0  0  0  0  0
    2.2305   -0.6012    1.0837 O   0  0  0  0  0  0  0  0  0  0  0  0
    0.2530   -0.0641    2.0119 N   0  0  0  0  0  0  0  0  0  0  0  0
   -0.7525   -0.0975    1.8841 H   0  0  0  0  0  0  0  0  0  0  0  0
    0.7862    0.0685    3.3615 C   0  0  0  0  0  0  0  0  0  0  0  0
    1.6204    0.7778    3.3762 H   0  0  0  0  0  0  0  0  0  0  0  0
    0.0109    0.4347    4.0410 H   0  0  0  0  0  0  0  0  0  0  0  0
    1.1410   -0.9007    3.7279 H   0  0  0  0  0  0  0  0  0  0  0  0
  1  2  1  0  0  0  0
  2  3  1  0  0  0  0
  2  4  1  0  0  0  0
  2  5  1  0  0  0  0
  5  6  2  0  0  0  0
  5  7  1  0  0  0  0
  7  8  1  0  0  0  0
  7  9  1  0  0  0  0
  9 10  1  0  0  0  0
  9 11  1  0  0  0  0
  9 24  1  0  0  0  0
 11 12  1  0  0  0  0
 11 13  1  0  0  0  0
 11 17  1  0  0  0  0
 13 14  1  0  0  0  0
 13 15  1  0  0  0  0
 13 16  1  0  0  0  0
 17 18  1  0  0  0  0
 17 19  1  0  0  0  0
 17 20  1  0  0  0  0
 20 21  1  0  0  0  0
 20 22  1  0  0  0  0
 20 23  1  0  0  0  0
 24 25  2  0  0  0  0
 24 26  1  0  0  0  0
 26 27  1  0  0  0  0
 26 28  1  0  0  0  0
 28 29  1  0  0  0  0
 28 30  1  0  0  0  0
 28 31  1  0  0  0  0
M  END
$$$$

  -OEChem-03222214053D

 31 30  0     1  0  0  0  0  0999 V2000
   -2.5093   -4.2467    0.3464 H   0  0  0  0  0  0  0  0  0  0  0  0
   -2.5278   -3.2226   -0.0376 C   0  0  0  0  0  0  0  0  0  0  0  0
   -3.2492   -2.6425    0.5427 H   0  0  0  0  0  0  0  0  0  0  0  0
   -2.8438   -3.2455   -1.0833 H   0  0  0  0  0  0  0  0  0  0  0  0
   -1.1497   -2.5986    0.0745 C   0  0  0  0  0  0  0  0  0  0  0  0
   -0.2406   -3.2271    0.5845 O   0  0  0  0  0  0  0  0  0  0  0  0
   -0.9388   -1.3222   -0.4093 N   0  0  0  0  0  0  0  0  0  0  0  0
   -1.7095   -0.8955   -0.9142 H   0  0  0  0  0  0  0  0  0  0  0  0
    0.3758   -0.6491   -0.4626 C   0  0  1  0  0  0  0  0  0  0  0  0
    1.0730   -1.2768   -1.0292 H   0  0  0  0  0  0  0  0  0  0  0  0
    0.1856    0.7000   -1.2260 C   0  0  1  0  0  0  0  0  0  0  0  0
   -0.8306    1.0689   -1.0502 H   0  0  0  0  0  0  0  0  0  0  0  0
    1.1548    1.8074   -0.7672 C   0  0  0  0  0  0  0  0  0  0  0  0
    2.1944    1.4762   -0.8619 H   0  0  0  0  0  0  0  0  0  0  0  0
    1.0240    2.7080   -1.3751 H   0  0  0  0  0  0  0  0  0  0  0  0
    0.9688    2.0862    0.2744 H   0  0  0  0  0  0  0  0  0  0  0  0
    0.4028    0.5264   -2.7481 C   0  0  0  0  0  0  0  0  0  0  0  0
    0.2696    1.4962   -3.2388 H   0  0  0  0  0  0  0  0  0  0  0  0
    1.4318    0.2016   -2.9372 H   0  0  0  0  0  0  0  0  0  0  0  0
   -0.5585   -0.4693   -3.4040 C   0  0  0  0  0  0  0  0  0  0  0  0
   -1.5964   -0.2076   -3.1772 H   0  0  0  0  0  0  0  0  0  0  0  0
   -0.4269   -0.4501   -4.4902 H   0  0  0  0  0  0  0  0  0  0  0  0
   -0.3640   -1.4889   -3.0589 H   0  0  0  0  0  0  0  0  0  0  0  0
    1.0145   -0.4973    0.9407 C   0  0  0  0  0  0  0  0  0  0  0  0
    2.2279   -0.5893    1.0768 O   0  0  0  0  0  0  0  0  0  0  0  0
    0.2491   -0.0644    2.0091 N   0  0  0  0  0  0  0  0  0  0  0  0
   -0.7561   -0.1009    1.8804 H   0  0  0  0  0  0  0  0  0  0  0  0
    0.7805    0.0543    3.3607 C   0  0  0  0  0  0  0  0  0  0  0  0
    1.6172    0.7606    3.3843 H   0  0  0  0  0  0  0  0  0  0  0  0
    0.0051    0.4170    4.0421 H   0  0  0  0  0  0  0  0  0  0  0  0
    1.1318   -0.9192    3.7190 H   0  0  0  0  0  0  0  0  0  0  0  0
  1  2  1  0  0  0  0
  2  3  1  0  0  0  0
  2  4  1  0  0  0  0
  2  5  1  0  0  0  0
  5  6  2  0  0  0  0
  5  7  1  0  0  0  0
  7  8  1  0  0  0  0
  7  9  1  0  0  0  0
  9 10  1  0  0  0  0
  9 11  1  0  0  0  0
  9 24  1  0  0  0  0
 11 12  1  0  0  0  0
 11 13  1  0  0  0  0
 11 17  1  0  0  0  0
 13 14  1  0  0  0  0
 13 15  1  0  0  0  0
 13 16  1  0  0  0  0
 17 18  1  0  0  0  0
 17 19  1  0  0  0  0
 17 20  1  0  0  0  0
 20 21  1  0  0  0  0
 20 22  1  0  0  0  0
 20 23  1  0  0  0  0
 24 25  2  0  0  0  0
 24 26  1  0  0  0  0
 26 27  1  0  0  0  0
 26 28  1  0  0  0  0
 28 29  1  0  0  0  0
 28 30  1  0  0  0  0
 28 31  1  0  0  0  0
M  END
$$$$

  -OEChem-03222214053D

 31 30  0     1  0  0  0  0  0999 V2000
   -2.5072   -4.2412    0.3304 H   0  0  0  0  0  0  0  0  0  0  0  0
   -2.5254   -3.2185   -0.0571 C   0  0  0  0  0  0  0  0  0  0  0  0
   -3.2509   -2.6379    0.5177 H   0  0  0  0  0  0  0  0  0  0  0  0
   -2.8357   -3.2460   -1.1043 H   0  0  0  0  0  0  0  0  0  0  0  0
   -1.1485   -2.5922    0.0602 C   0  0  0  0  0  0  0  0  0  0  0  0
   -0.2398   -3.2223    0.5690 O   0  0  0  0  0  0  0  0  0  0  0  0
   -0.9371   -1.3136   -0.4181 N   0  0  0  0  0  0  0  0  0  0  0  0
   -1.7075   -0.8838   -0.9209 H   0  0  0  0  0  0  0  0  0  0  0  0
    0.3778   -0.6411   -0.4663 C   0  0  1  0  0  0  0  0  0  0  0  0
    1.0741   -1.2694   -1.0330 H   0  0  0  0  0  0  0  0  0  0  0  0
    0.1821    0.7109   -1.2246 C   0  0  1  0  0  0  0  0  0  0  0  0
   -0.8290    1.0917   -1.0434 H   0  0  0  0  0  0  0  0  0  0  0  0
    1.1653    1.8069   -0.7659 C   0  0  0  0  0  0  0  0  0  0  0  0
    2.2008    1.4684   -0.8771 H   0  0  0  0  0  0  0  0  0  0  0  0
    1.0341    2.7161   -1.3608 H   0  0  0  0  0  0  0  0  0  0  0  0
    0.9939    2.0766    0.2805 H   0  0  0  0  0  0  0  0  0  0  0  0
    0.4029    0.5212   -2.7446 C   0  0  0  0  0  0  0  0  0  0  0  0
    0.5121    1.5013   -3.2208 H   0  0  0  0  0  0  0  0  0  0  0  0
    1.3303   -0.0321   -2.9277 H   0  0  0  0  0  0  0  0  0  0  0  0
   -0.7678   -0.1884   -3.4291 C   0  0  0  0  0  0  0  0  0  0  0  0
   -1.7089    0.3286   -3.2178 H   0  0  0  0  0  0  0  0  0  0  0  0
   -0.6137   -0.1975   -4.5126 H   0  0  0  0  0  0  0  0  0  0  0  0
   -0.8470   -1.2250   -3.0900 H   0  0  0  0  0  0  0  0  0  0  0  0
    1.0149   -0.4955    0.9384 C   0  0  0  0  0  0  0  0  0  0  0  0
    2.2281   -0.5892    1.0760 O   0  0  0  0  0  0  0  0  0  0  0  0
    0.2482   -0.0664    2.0074 N   0  0  0  0  0  0  0  0  0  0  0  0
   -0.7571   -0.0935    1.8763 H   0  0  0  0  0  0  0  0  0  0  0  0
    0.7791    0.0563    3.3588 C   0  0  0  0  0  0  0  0  0  0  0  0
    1.6132    0.7656    3.3800 H   0  0  0  0  0  0  0  0  0  0  0  0
    0.0023    0.4181    4.0391 H   0  0  0  0  0  0  0  0  0  0  0  0
    1.1333   -0.9152    3.7197 H   0  0  0  0  0  0  0  0  0  0  0  0
  1  2  1  0  0  0  0
  2  3  1  0  0  0  0
  2  4  1  0  0  0  0
  2  5  1  0  0  0  0
  5  6  2  0  0  0  0
  5  7  1  0  0  0  0
  7  8  1  0  0  0  0
  7  9  1  0  0  0  0
  9 10  1  0  0  0  0
  9 11  1  0  0  0  0
  9 24  1  0  0  0  0
 11 12  1  0  0  0  0
 11 13  1  0  0  0  0
 11 17  1  0  0  0  0
 13 14  1  0  0  0  0
 13 15  1  0  0  0  0
 13 16  1  0  0  0  0
 17 18  1  0  0  0  0
 17 19  1  0  0  0  0
 17 20  1  0  0  0  0
 20 21  1  0  0  0  0
 20 22  1  0  0  0  0
 20 23  1  0  0  0  0
 24 25  2  0  0  0  0
 24 26  1  0  0  0  0
 26 27  1  0  0  0  0
 26 28  1  0  0  0  0
 28 29  1  0  0  0  0
 28 30  1  0  0  0  0
 28 31  1  0  0  0  0
M  END
$$$$

  -OEChem-03222214053D

 31 30  0     1  0  0  0  0  0999 V2000
   -2.5098   -4.2325    0.3141 H   0  0  0  0  0  0  0  0  0  0  0  0
   -2.5222   -3.2092   -0.0719 C   0  0  0  0  0  0  0  0  0  0  0  0
   -3.2482   -2.6265    0.5000 H   0  0  0  0  0  0  0  0  0  0  0  0
   -2.8278   -3.2339   -1.1205 H   0  0  0  0  0  0  0  0  0  0  0  0
   -1.1438   -2.5878    0.0534 C   0  0  0  0  0  0  0  0  0  0  0  0
   -0.2397   -3.2204    0.5673 O   0  0  0  0  0  0  0  0  0  0  0  0
   -0.9267   -1.3102   -0.4247 N   0  0  0  0  0  0  0  0  0  0  0  0
   -1.6940   -0.8787   -0.9306 H   0  0  0  0  0  0  0  0  0  0  0  0
    0.3890   -0.6408   -0.4683 C   0  0  1  0  0  0  0  0  0  0  0  0
    1.0878   -1.2712   -1.0286 H   0  0  0  0  0  0  0  0  0  0  0  0
    0.1838    0.7122   -1.2234 C   0  0  1  0  0  0  0  0  0  0  0  0
   -0.8243    1.0960   -1.0325 H   0  0  0  0  0  0  0  0  0  0  0  0
    1.1685    1.8072   -0.7624 C   0  0  0  0  0  0  0  0  0  0  0  0
    2.2040    1.4720   -0.8837 H   0  0  0  0  0  0  0  0  0  0  0  0
    1.0304    2.7210   -1.3485 H   0  0  0  0  0  0  0  0  0  0  0  0
    1.0045    2.0692    0.2871 H   0  0  0  0  0  0  0  0  0  0  0  0
    0.4022    0.5161   -2.7461 C   0  0  0  0  0  0  0  0  0  0  0  0
    0.7603    1.4479   -3.1964 H   0  0  0  0  0  0  0  0  0  0  0  0
    1.1685   -0.2416   -2.9390 H   0  0  0  0  0  0  0  0  0  0  0  0
   -0.8975    0.1420   -3.4618 C   0  0  0  0  0  0  0  0  0  0  0  0
   -1.6639    0.9048   -3.2935 H   0  0  0  0  0  0  0  0  0  0  0  0
   -0.7199    0.0631   -4.5386 H   0  0  0  0  0  0  0  0  0  0  0  0
   -1.2729   -0.8213   -3.1059 H   0  0  0  0  0  0  0  0  0  0  0  0
    1.0202   -0.4960    0.9395 C   0  0  0  0  0  0  0  0  0  0  0  0
    2.2328   -0.5904    1.0813 O   0  0  0  0  0  0  0  0  0  0  0  0
    0.2502   -0.0650    2.0053 N   0  0  0  0  0  0  0  0  0  0  0  0
   -0.7545   -0.0936    1.8709 H   0  0  0  0  0  0  0  0  0  0  0  0
    0.7760    0.0581    3.3587 C   0  0  0  0  0  0  0  0  0  0  0  0
    1.6089    0.7686    3.3840 H   0  0  0  0  0  0  0  0  0  0  0  0
   -0.0037    0.4180    4.0365 H   0  0  0  0  0  0  0  0  0  0  0  0
    1.1303   -0.9132    3.7198 H   0  0  0  0  0  0  0  0  0  0  0  0
  1  2  1  0  0  0  0
  2  3  1  0  0  0  0
  2  4  1  0  0  0  0
  2  5  1  0  0  0  0
  5  6  2  0  0  0  0
  5  7  1  0  0  0  0
  7  8  1  0  0  0  0
  7  9  1  0  0  0  0
  9 10  1  0  0  0  0
  9 11  1  0  0  0  0
  9 24  1  0  0  0  0
 11 12  1  0  0  0  0
 11 13  1  0  0  0  0
 11 17  1  0  0  0  0
 13 14  1  0  0  0  0
 13 15  1  0  0  0  0
 13 16  1  0  0  0  0
 17 18  1  0  0  0  0
 17 19  1  0  0  0  0
 17 20  1  0  0  0  0
 20 21  1  0  0  0  0
 20 22  1  0  0  0  0
 20 23  1  0  0  0  0
 24 25  2  0  0  0  0
 24 26  1  0  0  0  0
 26 27  1  0  0  0  0
 26 28  1  0  0  0  0
 28 29  1  0  0  0  0
 28 30  1  0  0  0  0
 28 31  1  0  0  0  0
M  END
$$$$

  -OEChem-03222214053D

 31 30  0     1  0  0  0  0  0999 V2000
   -2.5116   -4.2274    0.3068 H   0  0  0  0  0  0  0  0  0  0  0  0
   -2.5205   -3.2025   -0.0751 C   0  0  0  0  0  0  0  0  0  0  0  0
   -3.2456   -2.6197    0.4980 H   0  0  0  0  0  0  0  0  0  0  0  0
   -2.8242   -3.2217   -1.1245 H   0  0  0  0  0  0  0  0  0  0  0  0
   -1.1403   -2.5864    0.0540 C   0  0  0  0  0  0  0  0  0  0  0  0
   -0.2402   -3.2206    0.5729 O   0  0  0  0  0  0  0  0  0  0  0  0
   -0.9170   -1.3115   -0.4282 N   0  0  0  0  0  0  0  0  0  0  0  0
   -1.6821   -0.8785   -0.9360 H   0  0  0  0  0  0  0  0  0  0  0  0
    0.4007   -0.6464   -0.4701 C   0  0  1  0  0  0  0  0  0  0  0  0
    1.1033   -1.2784   -1.0232 H   0  0  0  0  0  0  0  0  0  0  0  0
    0.1915    0.7058   -1.2244 C   0  0  1  0  0  0  0  0  0  0  0  0
   -0.8189    1.0811   -1.0275 H   0  0  0  0  0  0  0  0  0  0  0  0
    1.1644    1.8087   -0.7592 C   0  0  0  0  0  0  0  0  0  0  0  0
    2.2033    1.4805   -0.8713 H   0  0  0  0  0  0  0  0  0  0  0  0
    1.0224    2.7186   -1.3507 H   0  0  0  0  0  0  0  0  0  0  0  0
    0.9903    2.0728    0.2880 H   0  0  0  0  0  0  0  0  0  0  0  0
    0.4057    0.5118   -2.7506 C   0  0  0  0  0  0  0  0  0  0  0  0
    1.0136    1.3246   -3.1618 H   0  0  0  0  0  0  0  0  0  0  0  0
    0.9432   -0.4171   -2.9643 H   0  0  0  0  0  0  0  0  0  0  0  0
   -0.9296    0.5072   -3.4964 C   0  0  0  0  0  0  0  0  0  0  0  0
   -1.4583    1.4534   -3.3437 H   0  0  0  0  0  0  0  0  0  0  0  0
   -0.7585    0.3761   -4.5694 H   0  0  0  0  0  0  0  0  0  0  0  0
   -1.5634   -0.3124   -3.1449 H   0  0  0  0  0  0  0  0  0  0  0  0
    1.0262   -0.4985    0.9401 C   0  0  0  0  0  0  0  0  0  0  0  0
    2.2381   -0.5930    1.0868 O   0  0  0  0  0  0  0  0  0  0  0  0
    0.2529   -0.0616    2.0014 N   0  0  0  0  0  0  0  0  0  0  0  0
   -0.7514   -0.0919    1.8639 H   0  0  0  0  0  0  0  0  0  0  0  0
    0.7732    0.0598    3.3569 C   0  0  0  0  0  0  0  0  0  0  0  0
    1.6077    0.7683    3.3853 H   0  0  0  0  0  0  0  0  0  0  0  0
   -0.0084    0.4212    4.0318 H   0  0  0  0  0  0  0  0  0  0  0  0
    1.1240   -0.9124    3.7190 H   0  0  0  0  0  0  0  0  0  0  0  0
  1  2  1  0  0  0  0
  2  3  1  0  0  0  0
  2  4  1  0  0  0  0
  2  5  1  0  0  0  0
  5  6  2  0  0  0  0
  5  7  1  0  0  0  0
  7  8  1  0  0  0  0
  7  9  1  0  0  0  0
  9 10  1  0  0  0  0
  9 11  1  0  0  0  0
  9 24  1  0  0  0  0
 11 12  1  0  0  0  0
 11 13  1  0  0  0  0
 11 17  1  0  0  0  0
 13 14  1  0  0  0  0
 13 15  1  0  0  0  0
 13 16  1  0  0  0  0
 17 18  1  0  0  0  0
 17 19  1  0  0  0  0
 17 20  1  0  0  0  0
 20 21  1  0  0  0  0
 20 22  1  0  0  0  0
 20 23  1  0  0  0  0
 24 25  2  0  0  0  0
 24 26  1  0  0  0  0
 26 27  1  0  0  0  0
 26 28  1  0  0  0  0
 28 29  1  0  0  0  0
 28 30  1  0  0  0  0
 28 31  1  0  0  0  0
M  END
$$$$

  -OEChem-03222214053D

 31 30  0     1  0  0  0  0  0999 V2000
   -2.5147   -4.2297    0.3133 H   0  0  0  0  0  0  0  0  0  0  0  0
   -2.5239   -3.2056   -0.0705 C   0  0  0  0  0  0  0  0  0  0  0  0
   -3.2487   -2.6220    0.5020 H   0  0  0  0  0  0  0  0  0  0  0  0
   -2.8290   -3.2270   -1.1195 H   0  0  0  0  0  0  0  0  0  0  0  0
   -1.1434   -2.5895    0.0567 C   0  0  0  0  0  0  0  0  0  0  0  0
   -0.2442   -3.2232    0.5778 O   0  0  0  0  0  0  0  0  0  0  0  0
   -0.9184   -1.3160   -0.4283 N   0  0  0  0  0  0  0  0  0  0  0  0
   -1.6819   -0.8840   -0.9396 H   0  0  0  0  0  0  0  0  0  0  0  0
    0.4010   -0.6535   -0.4711 C   0  0  1  0  0  0  0  0  0  0  0  0
    1.1045   -1.2841   -1.0255 H   0  0  0  0  0  0  0  0  0  0  0  0
    0.1975    0.6999   -1.2226 C   0  0  1  0  0  0  0  0  0  0  0  0
   -0.8186    1.0610   -1.0269 H   0  0  0  0  0  0  0  0  0  0  0  0
    1.1527    1.8161   -0.7551 C   0  0  0  0  0  0  0  0  0  0  0  0
    2.1964    1.4972   -0.8466 H   0  0  0  0  0  0  0  0  0  0  0  0
    1.0107    2.7159   -1.3622 H   0  0  0  0  0  0  0  0  0  0  0  0
    0.9593    2.0892    0.2866 H   0  0  0  0  0  0  0  0  0  0  0  0
    0.4105    0.5073   -2.7491 C   0  0  0  0  0  0  0  0  0  0  0  0
    1.2436    1.1207   -3.1090 H   0  0  0  0  0  0  0  0  0  0  0  0
    0.6623   -0.5317   -2.9833 H   0  0  0  0  0  0  0  0  0  0  0  0
   -0.8517    0.8771   -3.5296 C   0  0  0  0  0  0  0  0  0  0  0  0
   -1.1165    1.9248   -3.3552 H   0  0  0  0  0  0  0  0  0  0  0  0
   -0.6842    0.7358   -4.6018 H   0  0  0  0  0  0  0  0  0  0  0  0
   -1.6914    0.2452   -3.2242 H   0  0  0  0  0  0  0  0  0  0  0  0
    1.0288   -0.5026    0.9376 C   0  0  0  0  0  0  0  0  0  0  0  0
    2.2408   -0.6004    1.0825 O   0  0  0  0  0  0  0  0  0  0  0  0
    0.2585   -0.0611    1.9993 N   0  0  0  0  0  0  0  0  0  0  0  0
   -0.7461   -0.0856    1.8634 H   0  0  0  0  0  0  0  0  0  0  0  0
    0.7822    0.0642    3.3533 C   0  0  0  0  0  0  0  0  0  0  0  0
    1.6171    0.7722    3.3777 H   0  0  0  0  0  0  0  0  0  0  0  0
    0.0028    0.4281    4.0292 H   0  0  0  0  0  0  0  0  0  0  0  0
    1.1331   -0.9072    3.7174 H   0  0  0  0  0  0  0  0  0  0  0  0
  1  2  1  0  0  0  0
  2  3  1  0  0  0  0
  2  4  1  0  0  0  0
  2  5  1  0  0  0  0
  5  6  2  0  0  0  0
  5  7  1  0  0  0  0
  7  8  1  0  0  0  0
  7  9  1  0  0  0  0
  9 10  1  0  0  0  0
  9 11  1  0  0  0  0
  9 24  1  0  0  0  0
 11 12  1  0  0  0  0
 11 13  1  0  0  0  0
 11 17  1  0  0  0  0
 13 14  1  0  0  0  0
 13 15  1  0  0  0  0
 13 16  1  0  0  0  0
 17 18  1  0  0  0  0
 17 19  1  0  0  0  0
 17 20  1  0  0  0  0
 20 21  1  0  0  0  0
 20 22  1  0  0  0  0
 20 23  1  0  0  0  0
 24 25  2  0  0  0  0
 24 26  1  0  0  0  0
 26 27  1  0  0  0  0
 26 28  1  0  0  0  0
 28 29  1  0  0  0  0
 28 30  1  0  0  0  0
 28 31  1  0  0  0  0
M  END
$$$$

  -OEChem-03222214053D

 31 30  0     1  0  0  0  0  0999 V2000
   -2.5156   -4.2305    0.3265 H   0  0  0  0  0  0  0  0  0  0  0  0
   -2.5263   -3.2073   -0.0602 C   0  0  0  0  0  0  0  0  0  0  0  0
   -3.2448   -2.6208    0.5174 H   0  0  0  0  0  0  0  0  0  0  0  0
   -2.8412   -3.2310   -1.1061 H   0  0  0  0  0  0  0  0  0  0  0  0
   -1.1437   -2.5927    0.0524 C   0  0  0  0  0  0  0  0  0  0  0  0
   -0.2399   -3.2278    0.5635 O   0  0  0  0  0  0  0  0  0  0  0  0
   -0.9224   -1.3173   -0.4296 N   0  0  0  0  0  0  0  0  0  0  0  0
   -1.6911   -0.8803   -0.9289 H   0  0  0  0  0  0  0  0  0  0  0  0
    0.3960   -0.6525   -0.4734 C   0  0  1  0  0  0  0  0  0  0  0  0
    1.0978   -1.2786   -1.0358 H   0  0  0  0  0  0  0  0  0  0  0  0
    0.1972    0.7024   -1.2197 C   0  0  1  0  0  0  0  0  0  0  0  0
   -0.8239    1.0515   -1.0309 H   0  0  0  0  0  0  0  0  0  0  0  0
    1.1428    1.8264   -0.7534 C   0  0  0  0  0  0  0  0  0  0  0  0
    2.1885    1.5086   -0.8238 H   0  0  0  0  0  0  0  0  0  0  0  0
    1.0105    2.7173   -1.3753 H   0  0  0  0  0  0  0  0  0  0  0  0
    0.9326    2.1113    0.2819 H   0  0  0  0  0  0  0  0  0  0  0  0
    0.4123    0.5036   -2.7414 C   0  0  0  0  0  0  0  0  0  0  0  0
    1.3988    0.8695   -3.0464 H   0  0  0  0  0  0  0  0  0  0  0  0
    0.3737   -0.5603   -2.9969 H   0  0  0  0  0  0  0  0  0  0  0  0
   -0.6772    1.2086   -3.5514 C   0  0  0  0  0  0  0  0  0  0  0  0
   -0.6722    2.2835   -3.3462 H   0  0  0  0  0  0  0  0  0  0  0  0
   -0.5044    1.0593   -4.6216 H   0  0  0  0  0  0  0  0  0  0  0  0
   -1.6640    0.8071   -3.3011 H   0  0  0  0  0  0  0  0  0  0  0  0
    1.0287   -0.5037    0.9328 C   0  0  0  0  0  0  0  0  0  0  0  0
    2.2416   -0.5961    1.0725 O   0  0  0  0  0  0  0  0  0  0  0  0
    0.2610   -0.0658    1.9976 N   0  0  0  0  0  0  0  0  0  0  0  0
   -0.7440   -0.0993    1.8667 H   0  0  0  0  0  0  0  0  0  0  0  0
    0.7904    0.0611    3.3491 C   0  0  0  0  0  0  0  0  0  0  0  0
    1.6262    0.7684    3.3688 H   0  0  0  0  0  0  0  0  0  0  0  0
    0.0140    0.4274    4.0274 H   0  0  0  0  0  0  0  0  0  0  0  0
    1.1415   -0.9101    3.7134 H   0  0  0  0  0  0  0  0  0  0  0  0
  1  2  1  0  0  0  0
  2  3  1  0  0  0  0
  2  4  1  0  0  0  0
  2  5  1  0  0  0  0
  5  6  2  0  0  0  0
  5  7  1  0  0  0  0
  7  8  1  0  0  0  0
  7  9  1  0  0  0  0
  9 10  1  0  0  0  0
  9 11  1  0  0  0  0
  9 24  1  0  0  0  0
 11 12  1  0  0  0  0
 11 13  1  0  0  0  0
 11 17  1  0  0  0  0
 13 14  1  0  0  0  0
 13 15  1  0  0  0  0
 13 16  1  0  0  0  0
 17 18  1  0  0  0  0
 17 19  1  0  0  0  0
 17 20  1  0  0  0  0
 20 21  1  0  0  0  0
 20 22  1  0  0  0  0
 20 23  1  0  0  0  0
 24 25  2  0  0  0  0
 24 26  1  0  0  0  0
 26 27  1  0  0  0  0
 26 28  1  0  0  0  0
 28 29  1  0  0  0  0
 28 30  1  0  0  0  0
 28 31  1  0  0  0  0
M  END
$$$$

  -OEChem-03222214053D

 31 30  0     1  0  0  0  0  0999 V2000
   -2.5133   -4.2271    0.3249 H   0  0  0  0  0  0  0  0  0  0  0  0
   -2.5251   -3.2045   -0.0634 C   0  0  0  0  0  0  0  0  0  0  0  0
   -3.2423   -2.6173    0.5151 H   0  0  0  0  0  0  0  0  0  0  0  0
   -2.8423   -3.2299   -1.1086 H   0  0  0  0  0  0  0  0  0  0  0  0
   -1.1423   -2.5897    0.0448 C   0  0  0  0  0  0  0  0  0  0  0  0
   -0.2339   -3.2280    0.5439 O   0  0  0  0  0  0  0  0  0  0  0  0
   -0.9259   -1.3101   -0.4282 N   0  0  0  0  0  0  0  0  0  0  0  0
   -1.7003   -0.8680   -0.9139 H   0  0  0  0  0  0  0  0  0  0  0  0
    0.3908   -0.6412   -0.4728 C   0  0  1  0  0  0  0  0  0  0  0  0
    1.0896   -1.2620   -1.0455 H   0  0  0  0  0  0  0  0  0  0  0  0
    0.1882    0.7157   -1.2137 C   0  0  1  0  0  0  0  0  0  0  0  0
   -0.8353    1.0619   -1.0325 H   0  0  0  0  0  0  0  0  0  0  0  0
    1.1389    1.8350   -0.7426 C   0  0  0  0  0  0  0  0  0  0  0  0
    2.1834    1.5163   -0.8240 H   0  0  0  0  0  0  0  0  0  0  0  0
    1.0070    2.7354   -1.3490 H   0  0  0  0  0  0  0  0  0  0  0  0
    0.9367    2.1073    0.2976 H   0  0  0  0  0  0  0  0  0  0  0  0
    0.4055    0.5018   -2.7298 C   0  0  0  0  0  0  0  0  0  0  0  0
    1.4661    0.6077   -2.9821 H   0  0  0  0  0  0  0  0  0  0  0  0
    0.1065   -0.5146   -3.0069 H   0  0  0  0  0  0  0  0  0  0  0  0
   -0.4316    1.4700   -3.5695 C   0  0  0  0  0  0  0  0  0  0  0  0
   -0.1462    2.5069   -3.3701 H   0  0  0  0  0  0  0  0  0  0  0  0
   -0.2769    1.2696   -4.6341 H   0  0  0  0  0  0  0  0  0  0  0  0
   -1.4963    1.3502   -3.3469 H   0  0  0  0  0  0  0  0  0  0  0  0
    1.0295   -0.5013    0.9318 C   0  0  0  0  0  0  0  0  0  0  0  0
    2.2430   -0.5934    1.0661 O   0  0  0  0  0  0  0  0  0  0  0  0
    0.2649   -0.0735    2.0030 N   0  0  0  0  0  0  0  0  0  0  0  0
   -0.7406   -0.1041    1.8753 H   0  0  0  0  0  0  0  0  0  0  0  0
    0.7990    0.0520    3.3528 C   0  0  0  0  0  0  0  0  0  0  0  0
    1.6320    0.7627    3.3709 H   0  0  0  0  0  0  0  0  0  0  0  0
    0.0236    0.4133    4.0347 H   0  0  0  0  0  0  0  0  0  0  0  0
    1.1555   -0.9186    3.7137 H   0  0  0  0  0  0  0  0  0  0  0  0
  1  2  1  0  0  0  0
  2  3  1  0  0  0  0
  2  4  1  0  0  0  0
  2  5  1  0  0  0  0
  5  6  2  0  0  0  0
  5  7  1  0  0  0  0
  7  8  1  0  0  0  0
  7  9  1  0  0  0  0
  9 10  1  0  0  0  0
  9 11  1  0  0  0  0
  9 24  1  0  0  0  0
 11 12  1  0  0  0  0
 11 13  1  0  0  0  0
 11 17  1  0  0  0  0
 13 14  1  0  0  0  0
 13 15  1  0  0  0  0
 13 16  1  0  0  0  0
 17 18  1  0  0  0  0
 17 19  1  0  0  0  0
 17 20  1  0  0  0  0
 20 21  1  0  0  0  0
 20 22  1  0  0  0  0
 20 23  1  0  0  0  0
 24 25  2  0  0  0  0
 24 26  1  0  0  0  0
 26 27  1  0  0  0  0
 26 28  1  0  0  0  0
 28 29  1  0  0  0  0
 28 30  1  0  0  0  0
 28 31  1  0  0  0  0
M  END
$$$$

  -OEChem-03222214053D

 31 30  0     1  0  0  0  0  0999 V2000
   -2.5039   -4.2230    0.3123 H   0  0  0  0  0  0  0  0  0  0  0  0
   -2.5203   -3.1971   -0.0669 C   0  0  0  0  0  0  0  0  0  0  0  0
   -3.2322   -2.6156    0.5238 H   0  0  0  0  0  0  0  0  0  0  0  0
   -2.8478   -3.2139   -1.1093 H   0  0  0  0  0  0  0  0  0  0  0  0
   -1.1372   -2.5815    0.0336 C   0  0  0  0  0  0  0  0  0  0  0  0
   -0.2233   -3.2234    0.5179 O   0  0  0  0  0  0  0  0  0  0  0  0
   -0.9274   -1.2962   -0.4270 N   0  0  0  0  0  0  0  0  0  0  0  0
   -1.7076   -0.8483   -0.8978 H   0  0  0  0  0  0  0  0  0  0  0  0
    0.3862   -0.6218   -0.4689 C   0  0  1  0  0  0  0  0  0  0  0  0
    1.0839   -1.2390   -1.0468 H   0  0  0  0  0  0  0  0  0  0  0  0
    0.1772    0.7363   -1.2078 C   0  0  1  0  0  0  0  0  0  0  0  0
   -0.8481    1.0827   -1.0378 H   0  0  0  0  0  0  0  0  0  0  0  0
    1.1277    1.8516   -0.7221 C   0  0  0  0  0  0  0  0  0  0  0  0
    2.1728    1.5490   -0.8457 H   0  0  0  0  0  0  0  0  0  0  0  0
    0.9681    2.7759   -1.2826 H   0  0  0  0  0  0  0  0  0  0  0  0
    0.9531    2.0837    0.3326 H   0  0  0  0  0  0  0  0  0  0  0  0
    0.4017    0.5018   -2.7198 C   0  0  0  0  0  0  0  0  0  0  0  0
    1.4679    0.3486   -2.9193 H   0  0  0  0  0  0  0  0  0  0  0  0
   -0.1218   -0.4116   -3.0214 H   0  0  0  0  0  0  0  0  0  0  0  0
   -0.1210    1.6474   -3.5925 C   0  0  0  0  0  0  0  0  0  0  0  0
    0.4571    2.5618   -3.4344 H   0  0  0  0  0  0  0  0  0  0  0  0
   -0.0389    1.3754   -4.6493 H   0  0  0  0  0  0  0  0  0  0  0  0
   -1.1725    1.8517   -3.3688 H   0  0  0  0  0  0  0  0  0  0  0  0
    1.0281   -0.4943    0.9351 C   0  0  0  0  0  0  0  0  0  0  0  0
    2.2423   -0.5827    1.0647 O   0  0  0  0  0  0  0  0  0  0  0  0
    0.2652   -0.0810    2.0130 N   0  0  0  0  0  0  0  0  0  0  0  0
   -0.7406   -0.1122    1.8873 H   0  0  0  0  0  0  0  0  0  0  0  0
    0.8030    0.0289    3.3628 C   0  0  0  0  0  0  0  0  0  0  0  0
    1.6344    0.7413    3.3876 H   0  0  0  0  0  0  0  0  0  0  0  0
    0.0287    0.3797    4.0516 H   0  0  0  0  0  0  0  0  0  0  0  0
    1.1635   -0.9451    3.7103 H   0  0  0  0  0  0  0  0  0  0  0  0
  1  2  1  0  0  0  0
  2  3  1  0  0  0  0
  2  4  1  0  0  0  0
  2  5  1  0  0  0  0
  5  6  2  0  0  0  0
  5  7  1  0  0  0  0
  7  8  1  0  0  0  0
  7  9  1  0  0  0  0
  9 10  1  0  0  0  0
  9 11  1  0  0  0  0
  9 24  1  0  0  0  0
 11 12  1  0  0  0  0
 11 13  1  0  0  0  0
 11 17  1  0  0  0  0
 13 14  1  0  0  0  0
 13 15  1  0  0  0  0
 13 16  1  0  0  0  0
 17 18  1  0  0  0  0
 17 19  1  0  0  0  0
 17 20  1  0  0  0  0
 20 21  1  0  0  0  0
 20 22  1  0  0  0  0
 20 23  1  0  0  0  0
 24 25  2  0  0  0  0
 24 26  1  0  0  0  0
 26 27  1  0  0  0  0
 26 28  1  0  0  0  0
 28 29  1  0  0  0  0
 28 30  1  0  0  0  0
 28 31  1  0  0  0  0
M  END
$$$$

  -OEChem-03222214053D

 31 30  0     1  0  0  0  0  0999 V2000
   -2.5009   -4.2169    0.3270 H   0  0  0  0  0  0  0  0  0  0  0  0
   -2.5173   -3.1921   -0.0549 C   0  0  0  0  0  0  0  0  0  0  0  0
   -3.2219   -2.6066    0.5406 H   0  0  0  0  0  0  0  0  0  0  0  0
   -2.8541   -3.2111   -1.0941 H   0  0  0  0  0  0  0  0  0  0  0  0
   -1.1311   -2.5811    0.0317 C   0  0  0  0  0  0  0  0  0  0  0  0
   -0.2165   -3.2235    0.5136 O   0  0  0  0  0  0  0  0  0  0  0  0
   -0.9189   -1.2989   -0.4367 N   0  0  0  0  0  0  0  0  0  0  0  0
   -1.7018   -0.8452   -0.8974 H   0  0  0  0  0  0  0  0  0  0  0  0
    0.3955   -0.6247   -0.4780 C   0  0  1  0  0  0  0  0  0  0  0  0
    1.0942   -1.2366   -1.0601 H   0  0  0  0  0  0  0  0  0  0  0  0
    0.1893    0.7374   -1.2053 C   0  0  1  0  0  0  0  0  0  0  0  0
   -0.7199    1.2157   -0.8247 H   0  0  0  0  0  0  0  0  0  0  0  0
    1.3653    1.7088   -0.9623 C   0  0  0  0  0  0  0  0  0  0  0  0
    2.3039    1.2721   -1.3190 H   0  0  0  0  0  0  0  0  0  0  0  0
    1.2048    2.6605   -1.4748 H   0  0  0  0  0  0  0  0  0  0  0  0
    1.4719    1.9424    0.1010 H   0  0  0  0  0  0  0  0  0  0  0  0
    0.0316    0.4616   -2.7229 C   0  0  0  0  0  0  0  0  0  0  0  0
    0.9194   -0.0610   -3.0951 H   0  0  0  0  0  0  0  0  0  0  0  0
   -0.8267   -0.1990   -2.8788 H   0  0  0  0  0  0  0  0  0  0  0  0
   -0.1820    1.7192   -3.5721 C   0  0  0  0  0  0  0  0  0  0  0  0
    0.7292    2.3219   -3.6225 H   0  0  0  0  0  0  0  0  0  0  0  0
   -0.4515    1.4348   -4.5938 H   0  0  0  0  0  0  0  0  0  0  0  0
   -0.9901    2.3299   -3.1577 H   0  0  0  0  0  0  0  0  0  0  0  0
    1.0290   -0.4893    0.9289 C   0  0  0  0  0  0  0  0  0  0  0  0
    2.2410   -0.5901    1.0703 O   0  0  0  0  0  0  0  0  0  0  0  0
    0.2592   -0.0690    1.9990 N   0  0  0  0  0  0  0  0  0  0  0  0
   -0.7455   -0.0949    1.8644 H   0  0  0  0  0  0  0  0  0  0  0  0
    0.7844    0.0373    3.3542 C   0  0  0  0  0  0  0  0  0  0  0  0
    1.6231    0.7405    3.3867 H   0  0  0  0  0  0  0  0  0  0  0  0
    0.0067    0.3977    4.0341 H   0  0  0  0  0  0  0  0  0  0  0  0
    1.1303   -0.9398    3.7076 H   0  0  0  0  0  0  0  0  0  0  0  0
  1  2  1  0  0  0  0
  2  3  1  0  0  0  0
  2  4  1  0  0  0  0
  2  5  1  0  0  0  0
  5  6  2  0  0  0  0
  5  7  1  0  0  0  0
  7  8  1  0  0  0  0
  7  9  1  0  0  0  0
  9 10  1  0  0  0  0
  9 11  1  0  0  0  0
  9 24  1  0  0  0  0
 11 12  1  0  0  0  0
 11 13  1  0  0  0  0
 11 17  1  0  0  0  0
 13 14  1  0  0  0  0
 13 15  1  0  0  0  0
 13 16  1  0  0  0  0
 17 18  1  0  0  0  0
 17 19  1  0  0  0  0
 17 20  1  0  0  0  0
 20 21  1  0  0  0  0
 20 22  1  0  0  0  0
 20 23  1  0  0  0  0
 24 25  2  0  0  0  0
 24 26  1  0  0  0  0
 26 27  1  0  0  0  0
 26 28  1  0  0  0  0
 28 29  1  0  0  0  0
 28 30  1  0  0  0  0
 28 31  1  0  0  0  0
M  END
$$$$

  -OEChem-03222214053D

 31 30  0     1  0  0  0  0  0999 V2000
   -2.5057   -4.2070    0.3150 H   0  0  0  0  0  0  0  0  0  0  0  0
   -2.5171   -3.1821   -0.0671 C   0  0  0  0  0  0  0  0  0  0  0  0
   -3.2266   -2.5957    0.5215 H   0  0  0  0  0  0  0  0  0  0  0  0
   -2.8440   -3.1999   -1.1095 H   0  0  0  0  0  0  0  0  0  0  0  0
   -1.1308   -2.5737    0.0322 C   0  0  0  0  0  0  0  0  0  0  0  0
   -0.2210   -3.2193    0.5191 O   0  0  0  0  0  0  0  0  0  0  0  0
   -0.9128   -1.2921   -0.4353 N   0  0  0  0  0  0  0  0  0  0  0  0
   -1.6913   -0.8392   -0.9039 H   0  0  0  0  0  0  0  0  0  0  0  0
    0.4039   -0.6230   -0.4749 C   0  0  1  0  0  0  0  0  0  0  0  0
    1.1037   -1.2368   -1.0530 H   0  0  0  0  0  0  0  0  0  0  0  0
    0.1917    0.7405   -1.2006 C   0  0  1  0  0  0  0  0  0  0  0  0
   -0.7167    1.2214   -0.8218 H   0  0  0  0  0  0  0  0  0  0  0  0
    1.3659    1.7123   -0.9411 C   0  0  0  0  0  0  0  0  0  0  0  0
    2.3046    1.2862   -1.3101 H   0  0  0  0  0  0  0  0  0  0  0  0
    1.1988    2.6745   -1.4322 H   0  0  0  0  0  0  0  0  0  0  0  0
    1.4766    1.9269    0.1258 H   0  0  0  0  0  0  0  0  0  0  0  0
    0.0288    0.4616   -2.7213 C   0  0  0  0  0  0  0  0  0  0  0  0
    0.7806   -0.2671   -3.0424 H   0  0  0  0  0  0  0  0  0  0  0  0
   -0.9547    0.0123   -2.8910 H   0  0  0  0  0  0  0  0  0  0  0  0
    0.1645    1.6861   -3.6334 C   0  0  0  0  0  0  0  0  0  0  0  0
    1.1932    2.0585   -3.6437 H   0  0  0  0  0  0  0  0  0  0  0  0
   -0.1042    1.4161   -4.6592 H   0  0  0  0  0  0  0  0  0  0  0  0
   -0.5026    2.4874   -3.3011 H   0  0  0  0  0  0  0  0  0  0  0  0
    1.0350   -0.4914    0.9337 C   0  0  0  0  0  0  0  0  0  0  0  0
    2.2461   -0.5995    1.0781 O   0  0  0  0  0  0  0  0  0  0  0  0
    0.2645   -0.0689    2.0025 N   0  0  0  0  0  0  0  0  0  0  0  0
   -0.7400   -0.0892    1.8657 H   0  0  0  0  0  0  0  0  0  0  0  0
    0.7876    0.0341    3.3585 C   0  0  0  0  0  0  0  0  0  0  0  0
    1.6254    0.7384    3.3941 H   0  0  0  0  0  0  0  0  0  0  0  0
    0.0089    0.3915    4.0390 H   0  0  0  0  0  0  0  0  0  0  0  0
    1.1339   -0.9441    3.7087 H   0  0  0  0  0  0  0  0  0  0  0  0
  1  2  1  0  0  0  0
  2  3  1  0  0  0  0
  2  4  1  0  0  0  0
  2  5  1  0  0  0  0
  5  6  2  0  0  0  0
  5  7  1  0  0  0  0
  7  8  1  0  0  0  0
  7  9  1  0  0  0  0
  9 10  1  0  0  0  0
  9 11  1  0  0  0  0
  9 24  1  0  0  0  0
 11 12  1  0  0  0  0
 11 13  1  0  0  0  0
 11 17  1  0  0  0  0
 13 14  1  0  0  0  0
 13 15  1  0  0  0  0
 13 16  1  0  0  0  0
 17 18  1  0  0  0  0
 17 19  1  0  0  0  0
 17 20  1  0  0  0  0
 20 21  1  0  0  0  0
 20 22  1  0  0  0  0
 20 23  1  0  0  0  0
 24 25  2  0  0  0  0
 24 26  1  0  0  0  0
 26 27  1  0  0  0  0
 26 28  1  0  0  0  0
 28 29  1  0  0  0  0
 28 30  1  0  0  0  0
 28 31  1  0  0  0  0
M  END
$$$$

  -OEChem-03222214053D

 31 30  0     1  0  0  0  0  0999 V2000
   -2.5102   -4.2007    0.3076 H   0  0  0  0  0  0  0  0  0  0  0  0
   -2.5178   -3.1755   -0.0736 C   0  0  0  0  0  0  0  0  0  0  0  0
   -3.2303   -2.5886    0.5106 H   0  0  0  0  0  0  0  0  0  0  0  0
   -2.8379   -3.1928   -1.1181 H   0  0  0  0  0  0  0  0  0  0  0  0
   -1.1315   -2.5685    0.0349 C   0  0  0  0  0  0  0  0  0  0  0  0
   -0.2255   -3.2150    0.5275 O   0  0  0  0  0  0  0  0  0  0  0  0
   -0.9085   -1.2882   -0.4338 N   0  0  0  0  0  0  0  0  0  0  0  0
   -1.6813   -0.8383   -0.9144 H   0  0  0  0  0  0  0  0  0  0  0  0
    0.4109   -0.6246   -0.4733 C   0  0  1  0  0  0  0  0  0  0  0  0
    1.1116   -1.2411   -1.0470 H   0  0  0  0  0  0  0  0  0  0  0  0
    0.1974    0.7390   -1.2004 C   0  0  1  0  0  0  0  0  0  0  0  0
   -0.7133    1.2174   -0.8239 H   0  0  0  0  0  0  0  0  0  0  0  0
    1.3626    1.7158   -0.9165 C   0  0  0  0  0  0  0  0  0  0  0  0
    2.3133    1.2873   -1.2505 H   0  0  0  0  0  0  0  0  0  0  0  0
    1.2087    2.6727   -1.4224 H   0  0  0  0  0  0  0  0  0  0  0  0
    1.4392    1.9414    0.1511 H   0  0  0  0  0  0  0  0  0  0  0  0
    0.0292    0.4642   -2.7263 C   0  0  0  0  0  0  0  0  0  0  0  0
    0.5841   -0.4384   -3.0017 H   0  0  0  0  0  0  0  0  0  0  0  0
   -1.0283    0.2631   -2.9239 H   0  0  0  0  0  0  0  0  0  0  0  0
    0.4999    1.5695   -3.6792 C   0  0  0  0  0  0  0  0  0  0  0  0
    1.5826    1.7140   -3.6113 H   0  0  0  0  0  0  0  0  0  0  0  0
    0.2616    1.2944   -4.7113 H   0  0  0  0  0  0  0  0  0  0  0  0
   -0.0035    2.5141   -3.4509 H   0  0  0  0  0  0  0  0  0  0  0  0
    1.0410   -0.4948    0.9362 C   0  0  0  0  0  0  0  0  0  0  0  0
    2.2518   -0.6060    1.0814 O   0  0  0  0  0  0  0  0  0  0  0  0
    0.2717   -0.0685    2.0043 N   0  0  0  0  0  0  0  0  0  0  0  0
   -0.7329   -0.0862    1.8667 H   0  0  0  0  0  0  0  0  0  0  0  0
    0.7943    0.0304    3.3610 C   0  0  0  0  0  0  0  0  0  0  0  0
    1.6337    0.7327    3.3991 H   0  0  0  0  0  0  0  0  0  0  0  0
    0.0157    0.3876    4.0413 H   0  0  0  0  0  0  0  0  0  0  0  0
    1.1390   -0.9489    3.7095 H   0  0  0  0  0  0  0  0  0  0  0  0
  1  2  1  0  0  0  0
  2  3  1  0  0  0  0
  2  4  1  0  0  0  0
  2  5  1  0  0  0  0
  5  6  2  0  0  0  0
  5  7  1  0  0  0  0
  7  8  1  0  0  0  0
  7  9  1  0  0  0  0
  9 10  1  0  0  0  0
  9 11  1  0  0  0  0
  9 24  1  0  0  0  0
 11 12  1  0  0  0  0
 11 13  1  0  0  0  0
 11 17  1  0  0  0  0
 13 14  1  0  0  0  0
 13 15  1  0  0  0  0
 13 16  1  0  0  0  0
 17 18  1  0  0  0  0
 17 19  1  0  0  0  0
 17 20  1  0  0  0  0
 20 21  1  0  0  0  0
 20 22  1  0  0  0  0
 20 23  1  0  0  0  0
 24 25  2  0  0  0  0
 24 26  1  0  0  0  0
 26 27  1  0  0  0  0
 26 28  1  0  0  0  0
 28 29  1  0  0  0  0
 28 30  1  0  0  0  0
 28 31  1  0  0  0  0
M  END
$$$$

  -OEChem-03222214053D

 31 30  0     1  0  0  0  0  0999 V2000
   -2.5139   -4.1990    0.3180 H   0  0  0  0  0  0  0  0  0  0  0  0
   -2.5190   -3.1747   -0.0659 C   0  0  0  0  0  0  0  0  0  0  0  0
   -3.2263   -2.5833    0.5204 H   0  0  0  0  0  0  0  0  0  0  0  0
   -2.8439   -3.1928   -1.1089 H   0  0  0  0  0  0  0  0  0  0  0  0
   -1.1302   -2.5725    0.0346 C   0  0  0  0  0  0  0  0  0  0  0  0
   -0.2247   -3.2205    0.5260 O   0  0  0  0  0  0  0  0  0  0  0  0
   -0.9059   -1.2933   -0.4361 N   0  0  0  0  0  0  0  0  0  0  0  0
   -1.6790   -0.8425   -0.9158 H   0  0  0  0  0  0  0  0  0  0  0  0
    0.4146   -0.6320   -0.4769 C   0  0  1  0  0  0  0  0  0  0  0  0
    1.1154   -1.2490   -1.0506 H   0  0  0  0  0  0  0  0  0  0  0  0
    0.2070    0.7320   -1.2049 C   0  0  1  0  0  0  0  0  0  0  0  0
   -0.7106    1.2001   -0.8319 H   0  0  0  0  0  0  0  0  0  0  0  0
    1.3533    1.7230   -0.8953 C   0  0  0  0  0  0  0  0  0  0  0  0
    2.3203    1.2988   -1.1845 H   0  0  0  0  0  0  0  0  0  0  0  0
    1.2086    2.6698   -1.4225 H   0  0  0  0  0  0  0  0  0  0  0  0
    1.3875    1.9646    0.1713 H   0  0  0  0  0  0  0  0  0  0  0  0
    0.0373    0.4665   -2.7357 C   0  0  0  0  0  0  0  0  0  0  0  0
    0.3354   -0.5605   -2.9698 H   0  0  0  0  0  0  0  0  0  0  0  0
   -1.0276    0.5463   -2.9758 H   0  0  0  0  0  0  0  0  0  0  0  0
    0.8120    1.3758   -3.6986 C   0  0  0  0  0  0  0  0  0  0  0  0
    1.8911    1.2884   -3.5392 H   0  0  0  0  0  0  0  0  0  0  0  0
    0.5990    1.0850   -4.7319 H   0  0  0  0  0  0  0  0  0  0  0  0
    0.5124    2.4205   -3.5729 H   0  0  0  0  0  0  0  0  0  0  0  0
    1.0445   -0.5017    0.9328 C   0  0  0  0  0  0  0  0  0  0  0  0
    2.2552   -0.6130    1.0785 O   0  0  0  0  0  0  0  0  0  0  0  0
    0.2748   -0.0729    1.9997 N   0  0  0  0  0  0  0  0  0  0  0  0
   -0.7297   -0.0920    1.8625 H   0  0  0  0  0  0  0  0  0  0  0  0
    0.7970    0.0304    3.3560 C   0  0  0  0  0  0  0  0  0  0  0  0
    1.6391    0.7295    3.3907 H   0  0  0  0  0  0  0  0  0  0  0  0
    0.0196    0.3944    4.0344 H   0  0  0  0  0  0  0  0  0  0  0  0
    1.1367   -0.9490    3.7094 H   0  0  0  0  0  0  0  0  0  0  0  0
  1  2  1  0  0  0  0
  2  3  1  0  0  0  0
  2  4  1  0  0  0  0
  2  5  1  0  0  0  0
  5  6  2  0  0  0  0
  5  7  1  0  0  0  0
  7  8  1  0  0  0  0
  7  9  1  0  0  0  0
  9 10  1  0  0  0  0
  9 11  1  0  0  0  0
  9 24  1  0  0  0  0
 11 12  1  0  0  0  0
 11 13  1  0  0  0  0
 11 17  1  0  0  0  0
 13 14  1  0  0  0  0
 13 15  1  0  0  0  0
 13 16  1  0  0  0  0
 17 18  1  0  0  0  0
 17 19  1  0  0  0  0
 17 20  1  0  0  0  0
 20 21  1  0  0  0  0
 20 22  1  0  0  0  0
 20 23  1  0  0  0  0
 24 25  2  0  0  0  0
 24 26  1  0  0  0  0
 26 27  1  0  0  0  0
 26 28  1  0  0  0  0
 28 29  1  0  0  0  0
 28 30  1  0  0  0  0
 28 31  1  0  0  0  0
M  END
$$$$

  -OEChem-03222214053D

 31 30  0     1  0  0  0  0  0999 V2000
   -2.5190   -4.2069    0.3161 H   0  0  0  0  0  0  0  0  0  0  0  0
   -2.5251   -3.1837   -0.0707 C   0  0  0  0  0  0  0  0  0  0  0  0
   -3.2397   -2.5931    0.5074 H   0  0  0  0  0  0  0  0  0  0  0  0
   -2.8408   -3.2066   -1.1165 H   0  0  0  0  0  0  0  0  0  0  0  0
   -1.1393   -2.5764    0.0407 C   0  0  0  0  0  0  0  0  0  0  0  0
   -0.2358   -3.2202    0.5412 O   0  0  0  0  0  0  0  0  0  0  0  0
   -0.9141   -1.2985   -0.4333 N   0  0  0  0  0  0  0  0  0  0  0  0
   -1.6849   -0.8515   -0.9203 H   0  0  0  0  0  0  0  0  0  0  0  0
    0.4086   -0.6403   -0.4785 C   0  0  1  0  0  0  0  0  0  0  0  0
    1.1042   -1.2592   -1.0571 H   0  0  0  0  0  0  0  0  0  0  0  0
    0.2141    0.7228   -1.2084 C   0  0  1  0  0  0  0  0  0  0  0  0
   -0.7124    1.1761   -0.8393 H   0  0  0  0  0  0  0  0  0  0  0  0
    1.3370    1.7347   -0.8878 C   0  0  0  0  0  0  0  0  0  0  0  0
    2.3188    1.3241   -1.1445 H   0  0  0  0  0  0  0  0  0  0  0  0
    1.1867    2.6688   -1.4361 H   0  0  0  0  0  0  0  0  0  0  0  0
    1.3400    1.9911    0.1758 H   0  0  0  0  0  0  0  0  0  0  0  0
    0.0443    0.4618   -2.7391 C   0  0  0  0  0  0  0  0  0  0  0  0
    0.0471   -0.6147   -2.9387 H   0  0  0  0  0  0  0  0  0  0  0  0
   -0.9435    0.8311   -3.0334 H   0  0  0  0  0  0  0  0  0  0  0  0
    1.0745    1.1038   -3.6775 C   0  0  0  0  0  0  0  0  0  0  0  0
    2.0865    0.7711   -3.4272 H   0  0  0  0  0  0  0  0  0  0  0  0
    0.8664    0.8081   -4.7102 H   0  0  0  0  0  0  0  0  0  0  0  0
    1.0311    2.1954   -3.6260 H   0  0  0  0  0  0  0  0  0  0  0  0
    1.0459   -0.5067    0.9270 C   0  0  0  0  0  0  0  0  0  0  0  0
    2.2575   -0.6158    1.0662 O   0  0  0  0  0  0  0  0  0  0  0  0
    0.2824   -0.0727    1.9961 N   0  0  0  0  0  0  0  0  0  0  0  0
   -0.7229   -0.0929    1.8647 H   0  0  0  0  0  0  0  0  0  0  0  0
    0.8129    0.0398    3.3486 C   0  0  0  0  0  0  0  0  0  0  0  0
    1.6524    0.7426    3.3741 H   0  0  0  0  0  0  0  0  0  0  0  0
    0.0381    0.4041    4.0297 H   0  0  0  0  0  0  0  0  0  0  0  0
    1.1595   -0.9360    3.7051 H   0  0  0  0  0  0  0  0  0  0  0  0
  1  2  1  0  0  0  0
  2  3  1  0  0  0  0
  2  4  1  0  0  0  0
  2  5  1  0  0  0  0
  5  6  2  0  0  0  0
  5  7  1  0  0  0  0
  7  8  1  0  0  0  0
  7  9  1  0  0  0  0
  9 10  1  0  0  0  0
  9 11  1  0  0  0  0
  9 24  1  0  0  0  0
 11 12  1  0  0  0  0
 11 13  1  0  0  0  0
 11 17  1  0  0  0  0
 13 14  1  0  0  0  0
 13 15  1  0  0  0  0
 13 16  1  0  0  0  0
 17 18  1  0  0  0  0
 17 19  1  0  0  0  0
 17 20  1  0  0  0  0
 20 21  1  0  0  0  0
 20 22  1  0  0  0  0
 20 23  1  0  0  0  0
 24 25  2  0  0  0  0
 24 26  1  0  0  0  0
 26 27  1  0  0  0  0
 26 28  1  0  0  0  0
 28 29  1  0  0  0  0
 28 30  1  0  0  0  0
 28 31  1  0  0  0  0
M  END
$$$$

  -OEChem-03222214053D

 31 30  0     1  0  0  0  0  0999 V2000
   -2.5228   -4.2167    0.3229 H   0  0  0  0  0  0  0  0  0  0  0  0
   -2.5310   -3.1949   -0.0675 C   0  0  0  0  0  0  0  0  0  0  0  0
   -3.2480   -2.6044    0.5078 H   0  0  0  0  0  0  0  0  0  0  0  0
   -2.8456   -3.2220   -1.1135 H   0  0  0  0  0  0  0  0  0  0  0  0
   -1.1467   -2.5837    0.0433 C   0  0  0  0  0  0  0  0  0  0  0  0
   -0.2424   -3.2239    0.5473 O   0  0  0  0  0  0  0  0  0  0  0  0
   -0.9238   -1.3065   -0.4335 N   0  0  0  0  0  0  0  0  0  0  0  0
   -1.6944   -0.8627   -0.9237 H   0  0  0  0  0  0  0  0  0  0  0  0
    0.3987   -0.6480   -0.4828 C   0  0  1  0  0  0  0  0  0  0  0  0
    1.0887   -1.2692   -1.0658 H   0  0  0  0  0  0  0  0  0  0  0  0
    0.2139    0.7141   -1.2136 C   0  0  1  0  0  0  0  0  0  0  0  0
   -0.7175    1.1600   -0.8475 H   0  0  0  0  0  0  0  0  0  0  0  0
    1.3262    1.7373   -0.8980 C   0  0  0  0  0  0  0  0  0  0  0  0
    2.3156    1.3241   -1.1194 H   0  0  0  0  0  0  0  0  0  0  0  0
    1.1839    2.6507   -1.4830 H   0  0  0  0  0  0  0  0  0  0  0  0
    1.3035    2.0239    0.1579 H   0  0  0  0  0  0  0  0  0  0  0  0
    0.0456    0.4595   -2.7415 C   0  0  0  0  0  0  0  0  0  0  0  0
   -0.2351   -0.5832   -2.9217 H   0  0  0  0  0  0  0  0  0  0  0  0
   -0.7876    1.0754   -3.0947 H   0  0  0  0  0  0  0  0  0  0  0  0
    1.2587    0.7876   -3.6217 C   0  0  0  0  0  0  0  0  0  0  0  0
    2.1398    0.2348   -3.2812 H   0  0  0  0  0  0  0  0  0  0  0  0
    1.0526    0.4991   -4.6568 H   0  0  0  0  0  0  0  0  0  0  0  0
    1.4824    1.8581   -3.6105 H   0  0  0  0  0  0  0  0  0  0  0  0
    1.0441   -0.5093    0.9184 C   0  0  0  0  0  0  0  0  0  0  0  0
    2.2568   -0.6154    1.0502 O   0  0  0  0  0  0  0  0  0  0  0  0
    0.2864   -0.0722    1.9906 N   0  0  0  0  0  0  0  0  0  0  0  0
   -0.7197   -0.0950    1.8659 H   0  0  0  0  0  0  0  0  0  0  0  0
    0.8255    0.0490    3.3389 C   0  0  0  0  0  0  0  0  0  0  0  0
    1.6627    0.7547    3.3554 H   0  0  0  0  0  0  0  0  0  0  0  0
    0.0543    0.4144    4.0236 H   0  0  0  0  0  0  0  0  0  0  0  0
    1.1774   -0.9240    3.6980 H   0  0  0  0  0  0  0  0  0  0  0  0
  1  2  1  0  0  0  0
  2  3  1  0  0  0  0
  2  4  1  0  0  0  0
  2  5  1  0  0  0  0
  5  6  2  0  0  0  0
  5  7  1  0  0  0  0
  7  8  1  0  0  0  0
  7  9  1  0  0  0  0
  9 10  1  0  0  0  0
  9 11  1  0  0  0  0
  9 24  1  0  0  0  0
 11 12  1  0  0  0  0
 11 13  1  0  0  0  0
 11 17  1  0  0  0  0
 13 14  1  0  0  0  0
 13 15  1  0  0  0  0
 13 16  1  0  0  0  0
 17 18  1  0  0  0  0
 17 19  1  0  0  0  0
 17 20  1  0  0  0  0
 20 21  1  0  0  0  0
 20 22  1  0  0  0  0
 20 23  1  0  0  0  0
 24 25  2  0  0  0  0
 24 26  1  0  0  0  0
 26 27  1  0  0  0  0
 26 28  1  0  0  0  0
 28 29  1  0  0  0  0
 28 30  1  0  0  0  0
 28 31  1  0  0  0  0
M  END
$$$$

  -OEChem-03222214053D

 31 30  0     1  0  0  0  0  0999 V2000
   -2.5229   -4.2234    0.3418 H   0  0  0  0  0  0  0  0  0  0  0  0
   -2.5331   -3.2033   -0.0527 C   0  0  0  0  0  0  0  0  0  0  0  0
   -3.2432   -2.6094    0.5274 H   0  0  0  0  0  0  0  0  0  0  0  0
   -2.8579   -3.2340   -1.0954 H   0  0  0  0  0  0  0  0  0  0  0  0
   -1.1469   -2.5941    0.0426 C   0  0  0  0  0  0  0  0  0  0  0  0
   -0.2388   -3.2335    0.5407 O   0  0  0  0  0  0  0  0  0  0  0  0
   -0.9270   -1.3177   -0.4379 N   0  0  0  0  0  0  0  0  0  0  0  0
   -1.7015   -0.8727   -0.9205 H   0  0  0  0  0  0  0  0  0  0  0  0
    0.3939   -0.6564   -0.4887 C   0  0  1  0  0  0  0  0  0  0  0  0
    1.0824   -1.2786   -1.0716 H   0  0  0  0  0  0  0  0  0  0  0  0
    0.2103    0.7060   -1.2175 C   0  0  1  0  0  0  0  0  0  0  0  0
   -0.7183    1.1548   -0.8484 H   0  0  0  0  0  0  0  0  0  0  0  0
    1.3302    1.7245   -0.9212 C   0  0  0  0  0  0  0  0  0  0  0  0
    2.3174    1.2919   -1.1141 H   0  0  0  0  0  0  0  0  0  0  0  0
    1.2088    2.6158   -1.5444 H   0  0  0  0  0  0  0  0  0  0  0  0
    1.2954    2.0463    0.1242 H   0  0  0  0  0  0  0  0  0  0  0  0
    0.0421    0.4660   -2.7428 C   0  0  0  0  0  0  0  0  0  0  0  0
   -0.4850   -0.4770   -2.9181 H   0  0  0  0  0  0  0  0  0  0  0  0
   -0.5901    1.2637   -3.1460 H   0  0  0  0  0  0  0  0  0  0  0  0
    1.3461    0.4566   -3.5513 C   0  0  0  0  0  0  0  0  0  0  0  0
    2.0488   -0.2736   -3.1383 H   0  0  0  0  0  0  0  0  0  0  0  0
    1.1360    0.1829   -4.5896 H   0  0  0  0  0  0  0  0  0  0  0  0
    1.8205    1.4423   -3.5526 H   0  0  0  0  0  0  0  0  0  0  0  0
    1.0402   -0.5112    0.9109 C   0  0  0  0  0  0  0  0  0  0  0  0
    2.2530   -0.6160    1.0429 O   0  0  0  0  0  0  0  0  0  0  0  0
    0.2822   -0.0721    1.9819 N   0  0  0  0  0  0  0  0  0  0  0  0
   -0.7239   -0.0934    1.8566 H   0  0  0  0  0  0  0  0  0  0  0  0
    0.8208    0.0532    3.3299 C   0  0  0  0  0  0  0  0  0  0  0  0
    1.6606    0.7559    3.3437 H   0  0  0  0  0  0  0  0  0  0  0  0
    0.0504    0.4244    4.0123 H   0  0  0  0  0  0  0  0  0  0  0  0
    1.1690   -0.9193    3.6936 H   0  0  0  0  0  0  0  0  0  0  0  0
  1  2  1  0  0  0  0
  2  3  1  0  0  0  0
  2  4  1  0  0  0  0
  2  5  1  0  0  0  0
  5  6  2  0  0  0  0
  5  7  1  0  0  0  0
  7  8  1  0  0  0  0
  7  9  1  0  0  0  0
  9 10  1  0  0  0  0
  9 11  1  0  0  0  0
  9 24  1  0  0  0  0
 11 12  1  0  0  0  0
 11 13  1  0  0  0  0
 11 17  1  0  0  0  0
 13 14  1  0  0  0  0
 13 15  1  0  0  0  0
 13 16  1  0  0  0  0
 17 18  1  0  0  0  0
 17 19  1  0  0  0  0
 17 20  1  0  0  0  0
 20 21  1  0  0  0  0
 20 22  1  0  0  0  0
 20 23  1  0  0  0  0
 24 25  2  0  0  0  0
 24 26  1  0  0  0  0
 26 27  1  0  0  0  0
 26 28  1  0  0  0  0
 28 29  1  0  0  0  0
 28 30  1  0  0  0  0
 28 31  1  0  0  0  0
M  END
$$$$

  -OEChem-03222214053D

 31 30  0     1  0  0  0  0  0999 V2000
   -2.5214   -4.2327    0.3519 H   0  0  0  0  0  0  0  0  0  0  0  0
   -2.5302   -3.2145   -0.0477 C   0  0  0  0  0  0  0  0  0  0  0  0
   -3.2455   -2.6187    0.5240 H   0  0  0  0  0  0  0  0  0  0  0  0
   -2.8470   -3.2510   -1.0927 H   0  0  0  0  0  0  0  0  0  0  0  0
   -1.1455   -2.6030    0.0547 C   0  0  0  0  0  0  0  0  0  0  0  0
   -0.2404   -3.2388    0.5629 O   0  0  0  0  0  0  0  0  0  0  0  0
   -0.9222   -1.3307   -0.4348 N   0  0  0  0  0  0  0  0  0  0  0  0
   -1.6934   -0.8893   -0.9258 H   0  0  0  0  0  0  0  0  0  0  0  0
    0.3986   -0.6700   -0.4827 C   0  0  1  0  0  0  0  0  0  0  0  0
    1.0903   -1.2979   -1.0527 H   0  0  0  0  0  0  0  0  0  0  0  0
    0.2076    0.6905   -1.2143 C   0  0  1  0  0  0  0  0  0  0  0  0
   -0.7108    1.1523   -0.8356 H   0  0  0  0  0  0  0  0  0  0  0  0
    1.3495    1.6905   -0.9447 C   0  0  0  0  0  0  0  0  0  0  0  0
    2.3262    1.2297   -1.1248 H   0  0  0  0  0  0  0  0  0  0  0  0
    1.2516    2.5665   -1.5933 H   0  0  0  0  0  0  0  0  0  0  0  0
    1.3217    2.0401    0.0920 H   0  0  0  0  0  0  0  0  0  0  0  0
    0.0371    0.4783   -2.7410 C   0  0  0  0  0  0  0  0  0  0  0  0
   -0.6964   -0.3142   -2.9184 H   0  0  0  0  0  0  0  0  0  0  0  0
   -0.3733    1.3965   -3.1736 H   0  0  0  0  0  0  0  0  0  0  0  0
    1.3243    0.1316   -3.5036 C   0  0  0  0  0  0  0  0  0  0  0  0
    1.7998   -0.7627   -3.0919 H   0  0  0  0  0  0  0  0  0  0  0  0
    1.0888   -0.0614   -4.5546 H   0  0  0  0  0  0  0  0  0  0  0  0
    2.0399    0.9581   -3.4659 H   0  0  0  0  0  0  0  0  0  0  0  0
    1.0359   -0.5133    0.9201 C   0  0  0  0  0  0  0  0  0  0  0  0
    2.2476   -0.6199    1.0611 O   0  0  0  0  0  0  0  0  0  0  0  0
    0.2722   -0.0654    1.9835 N   0  0  0  0  0  0  0  0  0  0  0  0
   -0.7332   -0.0824    1.8521 H   0  0  0  0  0  0  0  0  0  0  0  0
    0.8040    0.0699    3.3333 C   0  0  0  0  0  0  0  0  0  0  0  0
    1.6441    0.7724    3.3459 H   0  0  0  0  0  0  0  0  0  0  0  0
    0.0306    0.4467    4.0092 H   0  0  0  0  0  0  0  0  0  0  0  0
    1.1500   -0.9000    3.7062 H   0  0  0  0  0  0  0  0  0  0  0  0
  1  2  1  0  0  0  0
  2  3  1  0  0  0  0
  2  4  1  0  0  0  0
  2  5  1  0  0  0  0
  5  6  2  0  0  0  0
  5  7  1  0  0  0  0
  7  8  1  0  0  0  0
  7  9  1  0  0  0  0
  9 10  1  0  0  0  0
  9 11  1  0  0  0  0
  9 24  1  0  0  0  0
 11 12  1  0  0  0  0
 11 13  1  0  0  0  0
 11 17  1  0  0  0  0
 13 14  1  0  0  0  0
 13 15  1  0  0  0  0
 13 16  1  0  0  0  0
 17 18  1  0  0  0  0
 17 19  1  0  0  0  0
 17 20  1  0  0  0  0
 20 21  1  0  0  0  0
 20 22  1  0  0  0  0
 20 23  1  0  0  0  0
 24 25  2  0  0  0  0
 24 26  1  0  0  0  0
 26 27  1  0  0  0  0
 26 28  1  0  0  0  0
 28 29  1  0  0  0  0
 28 30  1  0  0  0  0
 28 31  1  0  0  0  0
M  END
$$$$

  -OEChem-03222214053D

 31 30  0     1  0  0  0  0  0999 V2000
   -2.5084   -4.2430    0.3740 H   0  0  0  0  0  0  0  0  0  0  0  0
   -2.5181   -3.2237   -0.0230 C   0  0  0  0  0  0  0  0  0  0  0  0
   -3.2316   -2.6292    0.5524 H   0  0  0  0  0  0  0  0  0  0  0  0
   -2.8378   -3.2574   -1.0672 H   0  0  0  0  0  0  0  0  0  0  0  0
   -1.1333   -2.6122    0.0767 C   0  0  0  0  0  0  0  0  0  0  0  0
   -0.2318   -3.2409    0.5998 O   0  0  0  0  0  0  0  0  0  0  0  0
   -0.9082   -1.3459   -0.4273 N   0  0  0  0  0  0  0  0  0  0  0  0
   -1.6756   -0.9141   -0.9325 H   0  0  0  0  0  0  0  0  0  0  0  0
    0.4113   -0.6839   -0.4752 C   0  0  1  0  0  0  0  0  0  0  0  0
    1.1139   -1.3142   -1.0267 H   0  0  0  0  0  0  0  0  0  0  0  0
    0.2100    0.6730   -1.2133 C   0  0  1  0  0  0  0  0  0  0  0  0
   -0.6967    1.1479   -0.8232 H   0  0  0  0  0  0  0  0  0  0  0  0
    1.3724    1.6564   -0.9664 C   0  0  0  0  0  0  0  0  0  0  0  0
    2.3386    1.1796   -1.1592 H   0  0  0  0  0  0  0  0  0  0  0  0
    1.2818    2.5320   -1.6165 H   0  0  0  0  0  0  0  0  0  0  0  0
    1.3660    2.0118    0.0686 H   0  0  0  0  0  0  0  0  0  0  0  0
    0.0339    0.4891   -2.7436 C   0  0  0  0  0  0  0  0  0  0  0  0
   -0.8665   -0.1048   -2.9276 H   0  0  0  0  0  0  0  0  0  0  0  0
   -0.1370    1.4725   -3.1939 H   0  0  0  0  0  0  0  0  0  0  0  0
    1.2047   -0.1777   -3.4805 C   0  0  0  0  0  0  0  0  0  0  0  0
    1.3314   -1.2179   -3.1690 H   0  0  0  0  0  0  0  0  0  0  0  0
    1.0091   -0.1737   -4.5570 H   0  0  0  0  0  0  0  0  0  0  0  0
    2.1405    0.3600   -3.3049 H   0  0  0  0  0  0  0  0  0  0  0  0
    1.0331   -0.5118    0.9332 C   0  0  0  0  0  0  0  0  0  0  0  0
    2.2431   -0.6156    1.0893 O   0  0  0  0  0  0  0  0  0  0  0  0
    0.2563   -0.0539    1.9827 N   0  0  0  0  0  0  0  0  0  0  0  0
   -0.7473   -0.0826    1.8402 H   0  0  0  0  0  0  0  0  0  0  0  0
    0.7696    0.0881    3.3391 C   0  0  0  0  0  0  0  0  0  0  0  0
    1.6130    0.7863    3.3599 H   0  0  0  0  0  0  0  0  0  0  0  0
   -0.0120    0.4733    4.0007 H   0  0  0  0  0  0  0  0  0  0  0  0
    1.1051   -0.8810    3.7236 H   0  0  0  0  0  0  0  0  0  0  0  0
  1  2  1  0  0  0  0
  2  3  1  0  0  0  0
  2  4  1  0  0  0  0
  2  5  1  0  0  0  0
  5  6  2  0  0  0  0
  5  7  1  0  0  0  0
  7  8  1  0  0  0  0
  7  9  1  0  0  0  0
  9 10  1  0  0  0  0
  9 11  1  0  0  0  0
  9 24  1  0  0  0  0
 11 12  1  0  0  0  0
 11 13  1  0  0  0  0
 11 17  1  0  0  0  0
 13 14  1  0  0  0  0
 13 15  1  0  0  0  0
 13 16  1  0  0  0  0
 17 18  1  0  0  0  0
 17 19  1  0  0  0  0
 17 20  1  0  0  0  0
 20 21  1  0  0  0  0
 20 22  1  0  0  0  0
 20 23  1  0  0  0  0
 24 25  2  0  0  0  0
 24 26  1  0  0  0  0
 26 27  1  0  0  0  0
 26 28  1  0  0  0  0
 28 29  1  0  0  0  0
 28 30  1  0  0  0  0
 28 31  1  0  0  0  0
M  END
$$$$

  -OEChem-03222214053D

 31 30  0     1  0  0  0  0  0999 V2000
   -2.4988   -4.2508    0.3868 H   0  0  0  0  0  0  0  0  0  0  0  0
   -2.5092   -3.2331   -0.0138 C   0  0  0  0  0  0  0  0  0  0  0  0
   -3.2295   -2.6391    0.5537 H   0  0  0  0  0  0  0  0  0  0  0  0
   -2.8207   -3.2716   -1.0604 H   0  0  0  0  0  0  0  0  0  0  0  0
   -1.1276   -2.6164    0.0948 C   0  0  0  0  0  0  0  0  0  0  0  0
   -0.2278   -3.2400    0.6268 O   0  0  0  0  0  0  0  0  0  0  0  0
   -0.9017   -1.3536   -0.4178 N   0  0  0  0  0  0  0  0  0  0  0  0
   -1.6649   -0.9298   -0.9361 H   0  0  0  0  0  0  0  0  0  0  0  0
    0.4176   -0.6917   -0.4665 C   0  0  1  0  0  0  0  0  0  0  0  0
    1.1282   -1.3226   -1.0066 H   0  0  0  0  0  0  0  0  0  0  0  0
    0.2067    0.6633   -1.2091 C   0  0  1  0  0  0  0  0  0  0  0  0
   -0.6856    1.1538   -0.8056 H   0  0  0  0  0  0  0  0  0  0  0  0
    1.3935    1.6255   -0.9874 C   0  0  0  0  0  0  0  0  0  0  0  0
    2.3407    1.1426   -1.2480 H   0  0  0  0  0  0  0  0  0  0  0  0
    1.2843    2.5258   -1.5998 H   0  0  0  0  0  0  0  0  0  0  0  0
    1.4458    1.9485    0.0568 H   0  0  0  0  0  0  0  0  0  0  0  0
    0.0239    0.4981   -2.7430 C   0  0  0  0  0  0  0  0  0  0  0  0
   -0.9888    0.1284   -2.9313 H   0  0  0  0  0  0  0  0  0  0  0  0
    0.0927    1.4803   -3.2221 H   0  0  0  0  0  0  0  0  0  0  0  0
    1.0029   -0.4544   -3.4414 C   0  0  0  0  0  0  0  0  0  0  0  0
    0.8100   -1.4937   -3.1597 H   0  0  0  0  0  0  0  0  0  0  0  0
    0.8840   -0.3751   -4.5263 H   0  0  0  0  0  0  0  0  0  0  0  0
    2.0378   -0.2035   -3.1906 H   0  0  0  0  0  0  0  0  0  0  0  0
    1.0295   -0.5119    0.9454 C   0  0  0  0  0  0  0  0  0  0  0  0
    2.2381   -0.6172    1.1108 O   0  0  0  0  0  0  0  0  0  0  0  0
    0.2458   -0.0481    1.9871 N   0  0  0  0  0  0  0  0  0  0  0  0
   -0.7566   -0.0708    1.8364 H   0  0  0  0  0  0  0  0  0  0  0  0
    0.7489    0.1034    3.3461 C   0  0  0  0  0  0  0  0  0  0  0  0
    1.5917    0.8023    3.3677 H   0  0  0  0  0  0  0  0  0  0  0  0
   -0.0376    0.4928    3.9995 H   0  0  0  0  0  0  0  0  0  0  0  0
    1.0822   -0.8626    3.7398 H   0  0  0  0  0  0  0  0  0  0  0  0
  1  2  1  0  0  0  0
  2  3  1  0  0  0  0
  2  4  1  0  0  0  0
  2  5  1  0  0  0  0
  5  6  2  0  0  0  0
  5  7  1  0  0  0  0
  7  8  1  0  0  0  0
  7  9  1  0  0  0  0
  9 10  1  0  0  0  0
  9 11  1  0  0  0  0
  9 24  1  0  0  0  0
 11 12  1  0  0  0  0
 11 13  1  0  0  0  0
 11 17  1  0  0  0  0
 13 14  1  0  0  0  0
 13 15  1  0  0  0  0
 13 16  1  0  0  0  0
 17 18  1  0  0  0  0
 17 19  1  0  0  0  0
 17 20  1  0  0  0  0
 20 21  1  0  0  0  0
 20 22  1  0  0  0  0
 20 23  1  0  0  0  0
 24 25  2  0  0  0  0
 24 26  1  0  0  0  0
 26 27  1  0  0  0  0
 26 28  1  0  0  0  0
 28 29  1  0  0  0  0
 28 30  1  0  0  0  0
 28 31  1  0  0  0  0
M  END
$$$$

  -OEChem-03222214053D

 31 30  0     1  0  0  0  0  0999 V2000
   -2.5043   -4.2538    0.3872 H   0  0  0  0  0  0  0  0  0  0  0  0
   -2.5089   -3.2394   -0.0220 C   0  0  0  0  0  0  0  0  0  0  0  0
   -3.2446   -2.6436    0.5232 H   0  0  0  0  0  0  0  0  0  0  0  0
   -2.7952   -3.2881   -1.0753 H   0  0  0  0  0  0  0  0  0  0  0  0
   -1.1323   -2.6162    0.1134 C   0  0  0  0  0  0  0  0  0  0  0  0
   -0.2420   -3.2340    0.6677 O   0  0  0  0  0  0  0  0  0  0  0  0
   -0.9000   -1.3567   -0.4045 N   0  0  0  0  0  0  0  0  0  0  0  0
   -1.6529   -0.9442   -0.9465 H   0  0  0  0  0  0  0  0  0  0  0  0
    0.4215   -0.6987   -0.4526 C   0  0  1  0  0  0  0  0  0  0  0  0
    1.1365   -1.3308   -0.9863 H   0  0  0  0  0  0  0  0  0  0  0  0
    0.2055    0.6534   -1.2027 C   0  0  1  0  0  0  0  0  0  0  0  0
   -0.6775    1.1534   -0.7899 H   0  0  0  0  0  0  0  0  0  0  0  0
    1.4051    1.6030   -0.9936 C   0  0  0  0  0  0  0  0  0  0  0  0
    2.3358    1.1234   -1.3144 H   0  0  0  0  0  0  0  0  0  0  0  0
    1.2750    2.5267   -1.5658 H   0  0  0  0  0  0  0  0  0  0  0  0
    1.5051    1.8910    0.0570 H   0  0  0  0  0  0  0  0  0  0  0  0
    0.0186    0.5021   -2.7423 C   0  0  0  0  0  0  0  0  0  0  0  0
   -1.0517    0.3823   -2.9373 H   0  0  0  0  0  0  0  0  0  0  0  0
    0.3244    1.4226   -3.2504 H   0  0  0  0  0  0  0  0  0  0  0  0
    0.7332   -0.6803   -3.4082 C   0  0  0  0  0  0  0  0  0  0  0  0
    0.3181   -1.6342   -3.0689 H   0  0  0  0  0  0  0  0  0  0  0  0
    0.6068   -0.6265   -4.4938 H   0  0  0  0  0  0  0  0  0  0  0  0
    1.8047   -0.6567   -3.1861 H   0  0  0  0  0  0  0  0  0  0  0  0
    1.0284   -0.5145    0.9613 C   0  0  0  0  0  0  0  0  0  0  0  0
    2.2366   -0.6196    1.1310 O   0  0  0  0  0  0  0  0  0  0  0  0
    0.2424   -0.0439    1.9982 N   0  0  0  0  0  0  0  0  0  0  0  0
   -0.7599   -0.0701    1.8463 H   0  0  0  0  0  0  0  0  0  0  0  0
    0.7438    0.1196    3.3566 C   0  0  0  0  0  0  0  0  0  0  0  0
    1.5827    0.8234    3.3740 H   0  0  0  0  0  0  0  0  0  0  0  0
   -0.0453    0.5091    4.0067 H   0  0  0  0  0  0  0  0  0  0  0  0
    1.0821   -0.8419    3.7571 H   0  0  0  0  0  0  0  0  0  0  0  0
  1  2  1  0  0  0  0
  2  3  1  0  0  0  0
  2  4  1  0  0  0  0
  2  5  1  0  0  0  0
  5  6  2  0  0  0  0
  5  7  1  0  0  0  0
  7  8  1  0  0  0  0
  7  9  1  0  0  0  0
  9 10  1  0  0  0  0
  9 11  1  0  0  0  0
  9 24  1  0  0  0  0
 11 12  1  0  0  0  0
 11 13  1  0  0  0  0
 11 17  1  0  0  0  0
 13 14  1  0  0  0  0
 13 15  1  0  0  0  0
 13 16  1  0  0  0  0
 17 18  1  0  0  0  0
 17 19  1  0  0  0  0
 17 20  1  0  0  0  0
 20 21  1  0  0  0  0
 20 22  1  0  0  0  0
 20 23  1  0  0  0  0
 24 25  2  0  0  0  0
 24 26  1  0  0  0  0
 26 27  1  0  0  0  0
 26 28  1  0  0  0  0
 28 29  1  0  0  0  0
 28 30  1  0  0  0  0
 28 31  1  0  0  0  0
M  END
$$$$

  -OEChem-03222214053D

 31 30  0     1  0  0  0  0  0999 V2000
   -2.5119   -4.2510    0.4152 H   0  0  0  0  0  0  0  0  0  0  0  0
   -2.5147   -3.2389   -0.0002 C   0  0  0  0  0  0  0  0  0  0  0  0
   -3.2452   -2.6371    0.5455 H   0  0  0  0  0  0  0  0  0  0  0  0
   -2.8077   -3.2924   -1.0515 H   0  0  0  0  0  0  0  0  0  0  0  0
   -1.1346   -2.6207    0.1242 C   0  0  0  0  0  0  0  0  0  0  0  0
   -0.2427   -3.2400    0.6742 O   0  0  0  0  0  0  0  0  0  0  0  0
   -0.9017   -1.3626   -0.3964 N   0  0  0  0  0  0  0  0  0  0  0  0
   -1.6560   -0.9487   -0.9354 H   0  0  0  0  0  0  0  0  0  0  0  0
    0.4201   -0.7041   -0.4467 C   0  0  1  0  0  0  0  0  0  0  0  0
    1.1341   -1.3389   -0.9797 H   0  0  0  0  0  0  0  0  0  0  0  0
    0.2103    0.6432   -1.2086 C   0  0  1  0  0  0  0  0  0  0  0  0
   -0.6792    1.1370   -0.8021 H   0  0  0  0  0  0  0  0  0  0  0  0
    1.3971    1.6053   -0.9829 C   0  0  0  0  0  0  0  0  0  0  0  0
    2.3357    1.1368   -1.2970 H   0  0  0  0  0  0  0  0  0  0  0  0
    1.2614    2.5298   -1.5528 H   0  0  0  0  0  0  0  0  0  0  0  0
    1.4842    1.8907    0.0697 H   0  0  0  0  0  0  0  0  0  0  0  0
    0.0287    0.4996   -2.7535 C   0  0  0  0  0  0  0  0  0  0  0  0
   -1.0315    0.6591   -2.9745 H   0  0  0  0  0  0  0  0  0  0  0  0
    0.5758    1.2904   -3.2774 H   0  0  0  0  0  0  0  0  0  0  0  0
    0.4230   -0.8408   -3.3872 C   0  0  0  0  0  0  0  0  0  0  0  0
   -0.1756   -1.6639   -2.9871 H   0  0  0  0  0  0  0  0  0  0  0  0
    0.2583   -0.8000   -4.4683 H   0  0  0  0  0  0  0  0  0  0  0  0
    1.4830   -1.0504   -3.2132 H   0  0  0  0  0  0  0  0  0  0  0  0
    1.0274   -0.5166    0.9663 C   0  0  0  0  0  0  0  0  0  0  0  0
    2.2360   -0.6191    1.1358 O   0  0  0  0  0  0  0  0  0  0  0  0
    0.2408   -0.0439    2.0018 N   0  0  0  0  0  0  0  0  0  0  0  0
   -0.7615   -0.0758    1.8506 H   0  0  0  0  0  0  0  0  0  0  0  0
    0.7421    0.1215    3.3599 C   0  0  0  0  0  0  0  0  0  0  0  0
    1.5842    0.8213    3.3752 H   0  0  0  0  0  0  0  0  0  0  0  0
   -0.0451    0.5169    4.0086 H   0  0  0  0  0  0  0  0  0  0  0  0
    1.0760   -0.8403    3.7633 H   0  0  0  0  0  0  0  0  0  0  0  0
  1  2  1  0  0  0  0
  2  3  1  0  0  0  0
  2  4  1  0  0  0  0
  2  5  1  0  0  0  0
  5  6  2  0  0  0  0
  5  7  1  0  0  0  0
  7  8  1  0  0  0  0
  7  9  1  0  0  0  0
  9 10  1  0  0  0  0
  9 11  1  0  0  0  0
  9 24  1  0  0  0  0
 11 12  1  0  0  0  0
 11 13  1  0  0  0  0
 11 17  1  0  0  0  0
 13 14  1  0  0  0  0
 13 15  1  0  0  0  0
 13 16  1  0  0  0  0
 17 18  1  0  0  0  0
 17 19  1  0  0  0  0
 17 20  1  0  0  0  0
 20 21  1  0  0  0  0
 20 22  1  0  0  0  0
 20 23  1  0  0  0  0
 24 25  2  0  0  0  0
 24 26  1  0  0  0  0
 26 27  1  0  0  0  0
 26 28  1  0  0  0  0
 28 29  1  0  0  0  0
 28 30  1  0  0  0  0
 28 31  1  0  0  0  0
M  END
$$$$

  -OEChem-03222214053D

 31 30  0     1  0  0  0  0  0999 V2000
   -2.5118   -4.2604    0.4447 H   0  0  0  0  0  0  0  0  0  0  0  0
   -2.5185   -3.2490    0.0280 C   0  0  0  0  0  0  0  0  0  0  0  0
   -3.2452   -2.6471    0.5784 H   0  0  0  0  0  0  0  0  0  0  0  0
   -2.8191   -3.3043   -1.0210 H   0  0  0  0  0  0  0  0  0  0  0  0
   -1.1386   -2.6287    0.1412 C   0  0  0  0  0  0  0  0  0  0  0  0
   -0.2418   -3.2452    0.6864 O   0  0  0  0  0  0  0  0  0  0  0  0
   -0.9114   -1.3714   -0.3840 N   0  0  0  0  0  0  0  0  0  0  0  0
   -1.6712   -0.9577   -0.9154 H   0  0  0  0  0  0  0  0  0  0  0  0
    0.4092   -0.7104   -0.4445 C   0  0  1  0  0  0  0  0  0  0  0  0
    1.1182   -1.3476   -0.9816 H   0  0  0  0  0  0  0  0  0  0  0  0
    0.2160    0.6334   -1.2163 C   0  0  1  0  0  0  0  0  0  0  0  0
   -0.6849    1.1136   -0.8188 H   0  0  0  0  0  0  0  0  0  0  0  0
    1.3823    1.6141   -0.9714 C   0  0  0  0  0  0  0  0  0  0  0  0
    2.3357    1.1550   -1.2531 H   0  0  0  0  0  0  0  0  0  0  0  0
    1.2475    2.5272   -1.5599 H   0  0  0  0  0  0  0  0  0  0  0  0
    1.4358    1.9139    0.0795 H   0  0  0  0  0  0  0  0  0  0  0  0
    0.0392    0.4997   -2.7642 C   0  0  0  0  0  0  0  0  0  0  0  0
   -0.9201    0.9552   -3.0298 H   0  0  0  0  0  0  0  0  0  0  0  0
    0.8128    1.0800   -3.2782 H   0  0  0  0  0  0  0  0  0  0  0  0
    0.0709   -0.9093   -3.3727 C   0  0  0  0  0  0  0  0  0  0  0  0
   -0.7304   -1.5357   -2.9732 H   0  0  0  0  0  0  0  0  0  0  0  0
   -0.0668   -0.8426   -4.4561 H   0  0  0  0  0  0  0  0  0  0  0  0
    1.0343   -1.3933   -3.1869 H   0  0  0  0  0  0  0  0  0  0  0  0
    1.0257   -0.5181    0.9639 C   0  0  0  0  0  0  0  0  0  0  0  0
    2.2354   -0.6188    1.1257 O   0  0  0  0  0  0  0  0  0  0  0  0
    0.2450   -0.0440    2.0033 N   0  0  0  0  0  0  0  0  0  0  0  0
   -0.7580   -0.0756    1.8580 H   0  0  0  0  0  0  0  0  0  0  0  0
    0.7537    0.1256    3.3580 C   0  0  0  0  0  0  0  0  0  0  0  0
    1.5964    0.8251    3.3673 H   0  0  0  0  0  0  0  0  0  0  0  0
   -0.0302    0.5235    4.0093 H   0  0  0  0  0  0  0  0  0  0  0  0
    1.0885   -0.8354    3.7625 H   0  0  0  0  0  0  0  0  0  0  0  0
  1  2  1  0  0  0  0
  2  3  1  0  0  0  0
  2  4  1  0  0  0  0
  2  5  1  0  0  0  0
  5  6  2  0  0  0  0
  5  7  1  0  0  0  0
  7  8  1  0  0  0  0
  7  9  1  0  0  0  0
  9 10  1  0  0  0  0
  9 11  1  0  0  0  0
  9 24  1  0  0  0  0
 11 12  1  0  0  0  0
 11 13  1  0  0  0  0
 11 17  1  0  0  0  0
 13 14  1  0  0  0  0
 13 15  1  0  0  0  0
 13 16  1  0  0  0  0
 17 18  1  0  0  0  0
 17 19  1  0  0  0  0
 17 20  1  0  0  0  0
 20 21  1  0  0  0  0
 20 22  1  0  0  0  0
 20 23  1  0  0  0  0
 24 25  2  0  0  0  0
 24 26  1  0  0  0  0
 26 27  1  0  0  0  0
 26 28  1  0  0  0  0
 28 29  1  0  0  0  0
 28 30  1  0  0  0  0
 28 31  1  0  0  0  0
M  END
$$$$

  -OEChem-03222214053D

 31 30  0     1  0  0  0  0  0999 V2000
   -2.5044   -4.2763    0.4528 H   0  0  0  0  0  0  0  0  0  0  0  0
   -2.5194   -3.2650    0.0364 C   0  0  0  0  0  0  0  0  0  0  0  0
   -3.2503   -2.6685    0.5875 H   0  0  0  0  0  0  0  0  0  0  0  0
   -2.8208   -3.3225   -1.0123 H   0  0  0  0  0  0  0  0  0  0  0  0
   -1.1438   -2.6351    0.1488 C   0  0  0  0  0  0  0  0  0  0  0  0
   -0.2410   -3.2482    0.6880 O   0  0  0  0  0  0  0  0  0  0  0  0
   -0.9260   -1.3755   -0.3748 N   0  0  0  0  0  0  0  0  0  0  0  0
   -1.6896   -0.9665   -0.9043 H   0  0  0  0  0  0  0  0  0  0  0  0
    0.3916   -0.7101   -0.4444 C   0  0  1  0  0  0  0  0  0  0  0  0
    1.0953   -1.3463   -0.9904 H   0  0  0  0  0  0  0  0  0  0  0  0
    0.2125    0.6342   -1.2180 C   0  0  1  0  0  0  0  0  0  0  0  0
   -0.6942    1.1074   -0.8260 H   0  0  0  0  0  0  0  0  0  0  0  0
    1.3706    1.6221   -0.9716 C   0  0  0  0  0  0  0  0  0  0  0  0
    2.3305    1.1603   -1.2260 H   0  0  0  0  0  0  0  0  0  0  0  0
    1.2438    2.5207   -1.5838 H   0  0  0  0  0  0  0  0  0  0  0  0
    1.4031    1.9416    0.0745 H   0  0  0  0  0  0  0  0  0  0  0  0
    0.0389    0.5044   -2.7642 C   0  0  0  0  0  0  0  0  0  0  0  0
   -0.7382    1.2078   -3.0809 H   0  0  0  0  0  0  0  0  0  0  0  0
    0.9680    0.8163   -3.2536 H   0  0  0  0  0  0  0  0  0  0  0  0
   -0.2955   -0.8790   -3.3381 C   0  0  0  0  0  0  0  0  0  0  0  0
   -1.2590   -1.2354   -2.9650 H   0  0  0  0  0  0  0  0  0  0  0  0
   -0.3618   -0.8153   -4.4285 H   0  0  0  0  0  0  0  0  0  0  0  0
    0.4801   -1.6102   -3.0936 H   0  0  0  0  0  0  0  0  0  0  0  0
    1.0214   -0.5185    0.9581 C   0  0  0  0  0  0  0  0  0  0  0  0
    2.2329   -0.6162    1.1070 O   0  0  0  0  0  0  0  0  0  0  0  0
    0.2507   -0.0491    2.0072 N   0  0  0  0  0  0  0  0  0  0  0  0
   -0.7540   -0.0803    1.8732 H   0  0  0  0  0  0  0  0  0  0  0  0
    0.7761    0.1283    3.3548 C   0  0  0  0  0  0  0  0  0  0  0  0
    1.6137    0.8338    3.3501 H   0  0  0  0  0  0  0  0  0  0  0  0
   -0.0016    0.5227    4.0156 H   0  0  0  0  0  0  0  0  0  0  0  0
    1.1234   -0.8288    3.7579 H   0  0  0  0  0  0  0  0  0  0  0  0
  1  2  1  0  0  0  0
  2  3  1  0  0  0  0
  2  4  1  0  0  0  0
  2  5  1  0  0  0  0
  5  6  2  0  0  0  0
  5  7  1  0  0  0  0
  7  8  1  0  0  0  0
  7  9  1  0  0  0  0
  9 10  1  0  0  0  0
  9 11  1  0  0  0  0
  9 24  1  0  0  0  0
 11 12  1  0  0  0  0
 11 13  1  0  0  0  0
 11 17  1  0  0  0  0
 13 14  1  0  0  0  0
 13 15  1  0  0  0  0
 13 16  1  0  0  0  0
 17 18  1  0  0  0  0
 17 19  1  0  0  0  0
 17 20  1  0  0  0  0
 20 21  1  0  0  0  0
 20 22  1  0  0  0  0
 20 23  1  0  0  0  0
 24 25  2  0  0  0  0
 24 26  1  0  0  0  0
 26 27  1  0  0  0  0
 26 28  1  0  0  0  0
 28 29  1  0  0  0  0
 28 30  1  0  0  0  0
 28 31  1  0  0  0  0
M  END
$$$$

  -OEChem-03222214053D

 31 30  0     1  0  0  0  0  0999 V2000
   -2.4966   -4.2822    0.4546 H   0  0  0  0  0  0  0  0  0  0  0  0
   -2.5191   -3.2686    0.0438 C   0  0  0  0  0  0  0  0  0  0  0  0
   -3.2436   -2.6766    0.6080 H   0  0  0  0  0  0  0  0  0  0  0  0
   -2.8341   -3.3210   -1.0012 H   0  0  0  0  0  0  0  0  0  0  0  0
   -1.1438   -2.6357    0.1410 C   0  0  0  0  0  0  0  0  0  0  0  0
   -0.2319   -3.2493    0.6638 O   0  0  0  0  0  0  0  0  0  0  0  0
   -0.9369   -1.3714   -0.3755 N   0  0  0  0  0  0  0  0  0  0  0  0
   -1.7100   -0.9574   -0.8872 H   0  0  0  0  0  0  0  0  0  0  0  0
    0.3762   -0.6972   -0.4494 C   0  0  1  0  0  0  0  0  0  0  0  0
    1.0732   -1.3308   -1.0085 H   0  0  0  0  0  0  0  0  0  0  0  0
    0.2040    0.6476   -1.2222 C   0  0  1  0  0  0  0  0  0  0  0  0
   -0.7037    1.1235   -0.8354 H   0  0  0  0  0  0  0  0  0  0  0  0
    1.3660    1.6318   -0.9847 C   0  0  0  0  0  0  0  0  0  0  0  0
    2.3249    1.1612   -1.2263 H   0  0  0  0  0  0  0  0  0  0  0  0
    1.2486    2.5213   -1.6118 H   0  0  0  0  0  0  0  0  0  0  0  0
    1.3939    1.9653    0.0573 H   0  0  0  0  0  0  0  0  0  0  0  0
    0.0378    0.5082   -2.7639 C   0  0  0  0  0  0  0  0  0  0  0  0
   -0.5222    1.3747   -3.1304 H   0  0  0  0  0  0  0  0  0  0  0  0
    1.0308    0.5476   -3.2253 H   0  0  0  0  0  0  0  0  0  0  0  0
   -0.6312   -0.7660   -3.2921 C   0  0  0  0  0  0  0  0  0  0  0  0
   -1.6513   -0.8540   -2.9082 H   0  0  0  0  0  0  0  0  0  0  0  0
   -0.6832   -0.7275   -4.3845 H   0  0  0  0  0  0  0  0  0  0  0  0
   -0.0621   -1.6582   -3.0145 H   0  0  0  0  0  0  0  0  0  0  0  0
    1.0166   -0.5097    0.9484 C   0  0  0  0  0  0  0  0  0  0  0  0
    2.2295   -0.6042    1.0885 O   0  0  0  0  0  0  0  0  0  0  0  0
    0.2507   -0.0512    2.0056 N   0  0  0  0  0  0  0  0  0  0  0  0
   -0.7546   -0.0864    1.8772 H   0  0  0  0  0  0  0  0  0  0  0  0
    0.7828    0.1101    3.3526 C   0  0  0  0  0  0  0  0  0  0  0  0
    1.6219    0.8139    3.3523 H   0  0  0  0  0  0  0  0  0  0  0  0
    0.0088    0.4983    4.0212 H   0  0  0  0  0  0  0  0  0  0  0  0
    1.1303   -0.8523    3.7430 H   0  0  0  0  0  0  0  0  0  0  0  0
  1  2  1  0  0  0  0
  2  3  1  0  0  0  0
  2  4  1  0  0  0  0
  2  5  1  0  0  0  0
  5  6  2  0  0  0  0
  5  7  1  0  0  0  0
  7  8  1  0  0  0  0
  7  9  1  0  0  0  0
  9 10  1  0  0  0  0
  9 11  1  0  0  0  0
  9 24  1  0  0  0  0
 11 12  1  0  0  0  0
 11 13  1  0  0  0  0
 11 17  1  0  0  0  0
 13 14  1  0  0  0  0
 13 15  1  0  0  0  0
 13 16  1  0  0  0  0
 17 18  1  0  0  0  0
 17 19  1  0  0  0  0
 17 20  1  0  0  0  0
 20 21  1  0  0  0  0
 20 22  1  0  0  0  0
 20 23  1  0  0  0  0
 24 25  2  0  0  0  0
 24 26  1  0  0  0  0
 26 27  1  0  0  0  0
 26 28  1  0  0  0  0
 28 29  1  0  0  0  0
 28 30  1  0  0  0  0
 28 31  1  0  0  0  0
M  END
$$$$

  -OEChem-03222214053D

 31 30  0     1  0  0  0  0  0999 V2000
   -2.4906   -4.2863    0.4326 H   0  0  0  0  0  0  0  0  0  0  0  0
   -2.5184   -3.2704    0.0281 C   0  0  0  0  0  0  0  0  0  0  0  0
   -3.2490   -2.6866    0.5930 H   0  0  0  0  0  0  0  0  0  0  0  0
   -2.8289   -3.3184   -1.0184 H   0  0  0  0  0  0  0  0  0  0  0  0
   -1.1474   -2.6296    0.1341 C   0  0  0  0  0  0  0  0  0  0  0  0
   -0.2335   -3.2409    0.6563 O   0  0  0  0  0  0  0  0  0  0  0  0
   -0.9465   -1.3618   -0.3765 N   0  0  0  0  0  0  0  0  0  0  0  0
   -1.7210   -0.9505   -0.8884 H   0  0  0  0  0  0  0  0  0  0  0  0
    0.3640   -0.6833   -0.4514 C   0  0  1  0  0  0  0  0  0  0  0  0
    1.0557   -1.3160   -1.0186 H   0  0  0  0  0  0  0  0  0  0  0  0
    0.1949    0.6634   -1.2223 C   0  0  1  0  0  0  0  0  0  0  0  0
   -0.7058    1.1531   -0.8369 H   0  0  0  0  0  0  0  0  0  0  0  0
    1.3743    1.6301   -1.0007 C   0  0  0  0  0  0  0  0  0  0  0  0
    2.3232    1.1439   -1.2509 H   0  0  0  0  0  0  0  0  0  0  0  0
    1.2656    2.5202   -1.6284 H   0  0  0  0  0  0  0  0  0  0  0  0
    1.4177    1.9659    0.0399 H   0  0  0  0  0  0  0  0  0  0  0  0
    0.0338    0.5088   -2.7595 C   0  0  0  0  0  0  0  0  0  0  0  0
   -0.2994    1.4682   -3.1689 H   0  0  0  0  0  0  0  0  0  0  0  0
    1.0152    0.2920   -3.1953 H   0  0  0  0  0  0  0  0  0  0  0  0
   -0.9294   -0.5774   -3.2467 C   0  0  0  0  0  0  0  0  0  0  0  0
   -1.9223   -0.4358   -2.8100 H   0  0  0  0  0  0  0  0  0  0  0  0
   -1.0237   -0.5247   -4.3357 H   0  0  0  0  0  0  0  0  0  0  0  0
   -0.5588   -1.5746   -2.9909 H   0  0  0  0  0  0  0  0  0  0  0  0
    1.0098   -0.5006    0.9447 C   0  0  0  0  0  0  0  0  0  0  0  0
    2.2232   -0.5952    1.0796 O   0  0  0  0  0  0  0  0  0  0  0  0
    0.2477   -0.0498    2.0078 N   0  0  0  0  0  0  0  0  0  0  0  0
   -0.7580   -0.0858    1.8833 H   0  0  0  0  0  0  0  0  0  0  0  0
    0.7851    0.1034    3.3535 C   0  0  0  0  0  0  0  0  0  0  0  0
    1.6207    0.8113    3.3548 H   0  0  0  0  0  0  0  0  0  0  0  0
    0.0123    0.4823    4.0290 H   0  0  0  0  0  0  0  0  0  0  0  0
    1.1391   -0.8604    3.7345 H   0  0  0  0  0  0  0  0  0  0  0  0
  1  2  1  0  0  0  0
  2  3  1  0  0  0  0
  2  4  1  0  0  0  0
  2  5  1  0  0  0  0
  5  6  2  0  0  0  0
  5  7  1  0  0  0  0
  7  8  1  0  0  0  0
  7  9  1  0  0  0  0
  9 10  1  0  0  0  0
  9 11  1  0  0  0  0
  9 24  1  0  0  0  0
 11 12  1  0  0  0  0
 11 13  1  0  0  0  0
 11 17  1  0  0  0  0
 13 14  1  0  0  0  0
 13 15  1  0  0  0  0
 13 16  1  0  0  0  0
 17 18  1  0  0  0  0
 17 19  1  0  0  0  0
 17 20  1  0  0  0  0
 20 21  1  0  0  0  0
 20 22  1  0  0  0  0
 20 23  1  0  0  0  0
 24 25  2  0  0  0  0
 24 26  1  0  0  0  0
 26 27  1  0  0  0  0
 26 28  1  0  0  0  0
 28 29  1  0  0  0  0
 28 30  1  0  0  0  0
 28 31  1  0  0  0  0
M  END
$$$$

  -OEChem-03222214053D

 31 30  0     1  0  0  0  0  0999 V2000
   -2.4859   -4.2780    0.4098 H   0  0  0  0  0  0  0  0  0  0  0  0
   -2.5156   -3.2593    0.0124 C   0  0  0  0  0  0  0  0  0  0  0  0
   -3.2445   -2.6800    0.5841 H   0  0  0  0  0  0  0  0  0  0  0  0
   -2.8299   -3.3003   -1.0333 H   0  0  0  0  0  0  0  0  0  0  0  0
   -1.1445   -2.6188    0.1188 C   0  0  0  0  0  0  0  0  0  0  0  0
   -0.2305   -3.2314    0.6391 O   0  0  0  0  0  0  0  0  0  0  0  0
   -0.9441   -1.3492   -0.3870 N   0  0  0  0  0  0  0  0  0  0  0  0
   -1.7172   -0.9387   -0.9014 H   0  0  0  0  0  0  0  0  0  0  0  0
    0.3646   -0.6686   -0.4583 C   0  0  1  0  0  0  0  0  0  0  0  0
    1.0570   -1.2981   -1.0284 H   0  0  0  0  0  0  0  0  0  0  0  0
    0.1889    0.6805   -1.2224 C   0  0  1  0  0  0  0  0  0  0  0  0
   -0.7025    1.1838   -0.8329 H   0  0  0  0  0  0  0  0  0  0  0  0
    1.3860    1.6294   -1.0154 C   0  0  0  0  0  0  0  0  0  0  0  0
    2.3230    1.1320   -1.2871 H   0  0  0  0  0  0  0  0  0  0  0  0
    1.2794    2.5268   -1.6328 H   0  0  0  0  0  0  0  0  0  0  0  0
    1.4534    1.9564    0.0267 H   0  0  0  0  0  0  0  0  0  0  0  0
    0.0281    0.5043   -2.7554 C   0  0  0  0  0  0  0  0  0  0  0  0
   -0.0767    1.4961   -3.2083 H   0  0  0  0  0  0  0  0  0  0  0  0
    0.9390    0.0535   -3.1643 H   0  0  0  0  0  0  0  0  0  0  0  0
   -1.1721   -0.3330   -3.2056 C   0  0  0  0  0  0  0  0  0  0  0  0
   -2.0888    0.0156   -2.7206 H   0  0  0  0  0  0  0  0  0  0  0  0
   -1.2994   -0.2422   -4.2887 H   0  0  0  0  0  0  0  0  0  0  0  0
   -1.0197   -1.3912   -2.9759 H   0  0  0  0  0  0  0  0  0  0  0  0
    1.0072   -0.4908    0.9399 C   0  0  0  0  0  0  0  0  0  0  0  0
    2.2200   -0.5884    1.0778 O   0  0  0  0  0  0  0  0  0  0  0  0
    0.2423   -0.0456    2.0035 N   0  0  0  0  0  0  0  0  0  0  0  0
   -0.7631   -0.0787    1.8754 H   0  0  0  0  0  0  0  0  0  0  0  0
    0.7753    0.0933    3.3525 C   0  0  0  0  0  0  0  0  0  0  0  0
    1.6130    0.7984    3.3634 H   0  0  0  0  0  0  0  0  0  0  0  0
    0.0014    0.4685    4.0288 H   0  0  0  0  0  0  0  0  0  0  0  0
    1.1248   -0.8751    3.7259 H   0  0  0  0  0  0  0  0  0  0  0  0
  1  2  1  0  0  0  0
  2  3  1  0  0  0  0
  2  4  1  0  0  0  0
  2  5  1  0  0  0  0
  5  6  2  0  0  0  0
  5  7  1  0  0  0  0
  7  8  1  0  0  0  0
  7  9  1  0  0  0  0
  9 10  1  0  0  0  0
  9 11  1  0  0  0  0
  9 24  1  0  0  0  0
 11 12  1  0  0  0  0
 11 13  1  0  0  0  0
 11 17  1  0  0  0  0
 13 14  1  0  0  0  0
 13 15  1  0  0  0  0
 13 16  1  0  0  0  0
 17 18  1  0  0  0  0
 17 19  1  0  0  0  0
 17 20  1  0  0  0  0
 20 21  1  0  0  0  0
 20 22  1  0  0  0  0
 20 23  1  0  0  0  0
 24 25  2  0  0  0  0
 24 26  1  0  0  0  0
 26 27  1  0  0  0  0
 26 28  1  0  0  0  0
 28 29  1  0  0  0  0
 28 30  1  0  0  0  0
 28 31  1  0  0  0  0
M  END
$$$$

  -OEChem-03222214053D

 31 30  0     1  0  0  0  0  0999 V2000
   -2.4948   -4.2574    0.3801 H   0  0  0  0  0  0  0  0  0  0  0  0
   -2.5164   -3.2365   -0.0122 C   0  0  0  0  0  0  0  0  0  0  0  0
   -3.2398   -2.6538    0.5631 H   0  0  0  0  0  0  0  0  0  0  0  0
   -2.8319   -3.2690   -1.0578 H   0  0  0  0  0  0  0  0  0  0  0  0
   -1.1402   -2.6073    0.0953 C   0  0  0  0  0  0  0  0  0  0  0  0
   -0.2299   -3.2273    0.6134 O   0  0  0  0  0  0  0  0  0  0  0  0
   -0.9331   -1.3364   -0.4040 N   0  0  0  0  0  0  0  0  0  0  0  0
   -1.7062   -0.9164   -0.9108 H   0  0  0  0  0  0  0  0  0  0  0  0
    0.3761   -0.6579   -0.4666 C   0  0  1  0  0  0  0  0  0  0  0  0
    1.0721   -1.2828   -1.0373 H   0  0  0  0  0  0  0  0  0  0  0  0
    0.1871    0.6943   -1.2205 C   0  0  1  0  0  0  0  0  0  0  0  0
   -0.6974    1.2051   -0.8248 H   0  0  0  0  0  0  0  0  0  0  0  0
    1.3924    1.6359   -1.0217 C   0  0  0  0  0  0  0  0  0  0  0  0
    2.3215    1.1413   -1.3241 H   0  0  0  0  0  0  0  0  0  0  0  0
    1.2751    2.5468   -1.6168 H   0  0  0  0  0  0  0  0  0  0  0  0
    1.4847    1.9436    0.0243 H   0  0  0  0  0  0  0  0  0  0  0  0
    0.0243    0.4919   -2.7496 C   0  0  0  0  0  0  0  0  0  0  0  0
    0.1526    1.4575   -3.2498 H   0  0  0  0  0  0  0  0  0  0  0  0
    0.8104   -0.1725   -3.1237 H   0  0  0  0  0  0  0  0  0  0  0  0
   -1.3446   -0.0487   -3.1741 C   0  0  0  0  0  0  0  0  0  0  0  0
   -2.1494    0.5192   -2.6975 H   0  0  0  0  0  0  0  0  0  0  0  0
   -1.4558    0.0410   -4.2590 H   0  0  0  0  0  0  0  0  0  0  0  0
   -1.4485   -1.1056   -2.9163 H   0  0  0  0  0  0  0  0  0  0  0  0
    1.0122   -0.4867    0.9354 C   0  0  0  0  0  0  0  0  0  0  0  0
    2.2244   -0.5850    1.0789 O   0  0  0  0  0  0  0  0  0  0  0  0
    0.2418   -0.0447    1.9963 N   0  0  0  0  0  0  0  0  0  0  0  0
   -0.7629   -0.0796    1.8631 H   0  0  0  0  0  0  0  0  0  0  0  0
    0.7667    0.0863    3.3493 C   0  0  0  0  0  0  0  0  0  0  0  0
    1.6042    0.7918    3.3697 H   0  0  0  0  0  0  0  0  0  0  0  0
   -0.0115    0.4568    4.0232 H   0  0  0  0  0  0  0  0  0  0  0  0
    1.1144   -0.8843    3.7189 H   0  0  0  0  0  0  0  0  0  0  0  0
  1  2  1  0  0  0  0
  2  3  1  0  0  0  0
  2  4  1  0  0  0  0
  2  5  1  0  0  0  0
  5  6  2  0  0  0  0
  5  7  1  0  0  0  0
  7  8  1  0  0  0  0
  7  9  1  0  0  0  0
  9 10  1  0  0  0  0
  9 11  1  0  0  0  0
  9 24  1  0  0  0  0
 11 12  1  0  0  0  0
 11 13  1  0  0  0  0
 11 17  1  0  0  0  0
 13 14  1  0  0  0  0
 13 15  1  0  0  0  0
 13 16  1  0  0  0  0
 17 18  1  0  0  0  0
 17 19  1  0  0  0  0
 17 20  1  0  0  0  0
 20 21  1  0  0  0  0
 20 22  1  0  0  0  0
 20 23  1  0  0  0  0
 24 25  2  0  0  0  0
 24 26  1  0  0  0  0
 26 27  1  0  0  0  0
 26 28  1  0  0  0  0
 28 29  1  0  0  0  0
 28 30  1  0  0  0  0
 28 31  1  0  0  0  0
M  END
$$$$

  -OEChem-03222214053D

 31 30  0     1  0  0  0  0  0999 V2000
   -2.5022   -4.2451    0.3564 H   0  0  0  0  0  0  0  0  0  0  0  0
   -2.5186   -3.2266   -0.0420 C   0  0  0  0  0  0  0  0  0  0  0  0
   -3.2440   -2.6391    0.5255 H   0  0  0  0  0  0  0  0  0  0  0  0
   -2.8281   -3.2650   -1.0891 H   0  0  0  0  0  0  0  0  0  0  0  0
   -1.1407   -2.6012    0.0699 C   0  0  0  0  0  0  0  0  0  0  0  0
   -0.2317   -3.2288    0.5813 O   0  0  0  0  0  0  0  0  0  0  0  0
   -0.9282   -1.3275   -0.4206 N   0  0  0  0  0  0  0  0  0  0  0  0
   -1.7038   -0.8926   -0.9105 H   0  0  0  0  0  0  0  0  0  0  0  0
    0.3833   -0.6528   -0.4729 C   0  0  1  0  0  0  0  0  0  0  0  0
    1.0821   -1.2751   -1.0431 H   0  0  0  0  0  0  0  0  0  0  0  0
    0.1872    0.7032   -1.2166 C   0  0  1  0  0  0  0  0  0  0  0  0
   -0.6952    1.2151   -0.8172 H   0  0  0  0  0  0  0  0  0  0  0  0
    1.3920    1.6451   -1.0146 C   0  0  0  0  0  0  0  0  0  0  0  0
    2.3199    1.1559   -1.3288 H   0  0  0  0  0  0  0  0  0  0  0  0
    1.2678    2.5628   -1.5979 H   0  0  0  0  0  0  0  0  0  0  0  0
    1.4909    1.9414    0.0342 H   0  0  0  0  0  0  0  0  0  0  0  0
    0.0248    0.4816   -2.7443 C   0  0  0  0  0  0  0  0  0  0  0  0
    0.3967    1.3577   -3.2859 H   0  0  0  0  0  0  0  0  0  0  0  0
    0.6258   -0.3726   -3.0728 H   0  0  0  0  0  0  0  0  0  0  0  0
   -1.4336    0.2826   -3.1693 C   0  0  0  0  0  0  0  0  0  0  0  0
   -2.0552    1.1089   -2.8109 H   0  0  0  0  0  0  0  0  0  0  0  0
   -1.4987    0.2517   -4.2613 H   0  0  0  0  0  0  0  0  0  0  0  0
   -1.8347   -0.6570   -2.7824 H   0  0  0  0  0  0  0  0  0  0  0  0
    1.0164   -0.4907    0.9315 C   0  0  0  0  0  0  0  0  0  0  0  0
    2.2284   -0.5896    1.0757 O   0  0  0  0  0  0  0  0  0  0  0  0
    0.2456   -0.0520    1.9936 N   0  0  0  0  0  0  0  0  0  0  0  0
   -0.7591   -0.0795    1.8591 H   0  0  0  0  0  0  0  0  0  0  0  0
    0.7714    0.0874    3.3453 C   0  0  0  0  0  0  0  0  0  0  0  0
    1.6040    0.7986    3.3616 H   0  0  0  0  0  0  0  0  0  0  0  0
   -0.0082    0.4554    4.0190 H   0  0  0  0  0  0  0  0  0  0  0  0
    1.1259   -0.8794    3.7180 H   0  0  0  0  0  0  0  0  0  0  0  0
  1  2  1  0  0  0  0
  2  3  1  0  0  0  0
  2  4  1  0  0  0  0
  2  5  1  0  0  0  0
  5  6  2  0  0  0  0
  5  7  1  0  0  0  0
  7  8  1  0  0  0  0
  7  9  1  0  0  0  0
  9 10  1  0  0  0  0
  9 11  1  0  0  0  0
  9 24  1  0  0  0  0
 11 12  1  0  0  0  0
 11 13  1  0  0  0  0
 11 17  1  0  0  0  0
 13 14  1  0  0  0  0
 13 15  1  0  0  0  0
 13 16  1  0  0  0  0
 17 18  1  0  0  0  0
 17 19  1  0  0  0  0
 17 20  1  0  0  0  0
 20 21  1  0  0  0  0
 20 22  1  0  0  0  0
 20 23  1  0  0  0  0
 24 25  2  0  0  0  0
 24 26  1  0  0  0  0
 26 27  1  0  0  0  0
 26 28  1  0  0  0  0
 28 29  1  0  0  0  0
 28 30  1  0  0  0  0
 28 31  1  0  0  0  0
M  END
$$$$

  -OEChem-03222214053D

 31 30  0     1  0  0  0  0  0999 V2000
   -2.5096   -4.2331    0.3216 H   0  0  0  0  0  0  0  0  0  0  0  0
   -2.5194   -3.2108   -0.0677 C   0  0  0  0  0  0  0  0  0  0  0  0
   -3.2434   -2.6243    0.5029 H   0  0  0  0  0  0  0  0  0  0  0  0
   -2.8258   -3.2381   -1.1161 H   0  0  0  0  0  0  0  0  0  0  0  0
   -1.1393   -2.5925    0.0542 C   0  0  0  0  0  0  0  0  0  0  0  0
   -0.2383   -3.2220    0.5772 O   0  0  0  0  0  0  0  0  0  0  0  0
   -0.9171   -1.3204   -0.4356 N   0  0  0  0  0  0  0  0  0  0  0  0
   -1.6834   -0.8870   -0.9411 H   0  0  0  0  0  0  0  0  0  0  0  0
    0.3989   -0.6531   -0.4788 C   0  0  1  0  0  0  0  0  0  0  0  0
    1.1020   -1.2726   -1.0466 H   0  0  0  0  0  0  0  0  0  0  0  0
    0.1933    0.7032   -1.2143 C   0  0  1  0  0  0  0  0  0  0  0  0
   -0.6928    1.2045   -0.8093 H   0  0  0  0  0  0  0  0  0  0  0  0
    1.3864    1.6581   -1.0114 C   0  0  0  0  0  0  0  0  0  0  0  0
    2.3203    1.1792   -1.3238 H   0  0  0  0  0  0  0  0  0  0  0  0
    1.2503    2.5723   -1.5978 H   0  0  0  0  0  0  0  0  0  0  0  0
    1.4802    1.9558    0.0374 H   0  0  0  0  0  0  0  0  0  0  0  0
    0.0279    0.4675   -2.7400 C   0  0  0  0  0  0  0  0  0  0  0  0
    0.6275    1.1867   -3.3079 H   0  0  0  0  0  0  0  0  0  0  0  0
    0.3844   -0.5290   -3.0206 H   0  0  0  0  0  0  0  0  0  0  0  0
   -1.4296    0.6271   -3.1789 C   0  0  0  0  0  0  0  0  0  0  0  0
   -1.7909    1.6337   -2.9459 H   0  0  0  0  0  0  0  0  0  0  0  0
   -1.5129    0.4720   -4.2591 H   0  0  0  0  0  0  0  0  0  0  0  0
   -2.0708   -0.1022   -2.6763 H   0  0  0  0  0  0  0  0  0  0  0  0
    1.0252   -0.4924    0.9286 C   0  0  0  0  0  0  0  0  0  0  0  0
    2.2364   -0.5928    1.0781 O   0  0  0  0  0  0  0  0  0  0  0  0
    0.2510   -0.0481    1.9857 N   0  0  0  0  0  0  0  0  0  0  0  0
   -0.7531   -0.0780    1.8471 H   0  0  0  0  0  0  0  0  0  0  0  0
    0.7700    0.0856    3.3408 C   0  0  0  0  0  0  0  0  0  0  0  0
    1.6078    0.7904    3.3631 H   0  0  0  0  0  0  0  0  0  0  0  0
   -0.0111    0.4586    4.0098 H   0  0  0  0  0  0  0  0  0  0  0  0
    1.1151   -0.8841    3.7148 H   0  0  0  0  0  0  0  0  0  0  0  0
  1  2  1  0  0  0  0
  2  3  1  0  0  0  0
  2  4  1  0  0  0  0
  2  5  1  0  0  0  0
  5  6  2  0  0  0  0
  5  7  1  0  0  0  0
  7  8  1  0  0  0  0
  7  9  1  0  0  0  0
  9 10  1  0  0  0  0
  9 11  1  0  0  0  0
  9 24  1  0  0  0  0
 11 12  1  0  0  0  0
 11 13  1  0  0  0  0
 11 17  1  0  0  0  0
 13 14  1  0  0  0  0
 13 15  1  0  0  0  0
 13 16  1  0  0  0  0
 17 18  1  0  0  0  0
 17 19  1  0  0  0  0
 17 20  1  0  0  0  0
 20 21  1  0  0  0  0
 20 22  1  0  0  0  0
 20 23  1  0  0  0  0
 24 25  2  0  0  0  0
 24 26  1  0  0  0  0
 26 27  1  0  0  0  0
 26 28  1  0  0  0  0
 28 29  1  0  0  0  0
 28 30  1  0  0  0  0
 28 31  1  0  0  0  0
M  END
$$$$

  -OEChem-03222214053D

 31 30  0     1  0  0  0  0  0999 V2000
   -2.5185   -4.2312    0.3086 H   0  0  0  0  0  0  0  0  0  0  0  0
   -2.5257   -3.2087   -0.0799 C   0  0  0  0  0  0  0  0  0  0  0  0
   -3.2550   -2.6230    0.4848 H   0  0  0  0  0  0  0  0  0  0  0  0
   -2.8228   -3.2354   -1.1310 H   0  0  0  0  0  0  0  0  0  0  0  0
   -1.1469   -2.5901    0.0545 C   0  0  0  0  0  0  0  0  0  0  0  0
   -0.2515   -3.2183    0.5887 O   0  0  0  0  0  0  0  0  0  0  0  0
   -0.9190   -1.3196   -0.4370 N   0  0  0  0  0  0  0  0  0  0  0  0
   -1.6790   -0.8896   -0.9552 H   0  0  0  0  0  0  0  0  0  0  0  0
    0.4009   -0.6585   -0.4780 C   0  0  1  0  0  0  0  0  0  0  0  0
    1.1021   -1.2780   -1.0485 H   0  0  0  0  0  0  0  0  0  0  0  0
    0.1975    0.6965   -1.2118 C   0  0  1  0  0  0  0  0  0  0  0  0
   -0.6965    1.1829   -0.8054 H   0  0  0  0  0  0  0  0  0  0  0  0
    1.3751    1.6683   -1.0059 C   0  0  0  0  0  0  0  0  0  0  0  0
    2.3203    1.1954   -1.2924 H   0  0  0  0  0  0  0  0  0  0  0  0
    1.2377    2.5684   -1.6137 H   0  0  0  0  0  0  0  0  0  0  0  0
    1.4460    1.9846    0.0393 H   0  0  0  0  0  0  0  0  0  0  0  0
    0.0313    0.4566   -2.7362 C   0  0  0  0  0  0  0  0  0  0  0  0
    0.8274    0.9564   -3.2987 H   0  0  0  0  0  0  0  0  0  0  0  0
    0.1039   -0.6104   -2.9711 H   0  0  0  0  0  0  0  0  0  0  0  0
   -1.3209    0.9718   -3.2307 C   0  0  0  0  0  0  0  0  0  0  0  0
   -1.4104    2.0470   -3.0463 H   0  0  0  0  0  0  0  0  0  0  0  0
   -1.4186    0.7957   -4.3063 H   0  0  0  0  0  0  0  0  0  0  0  0
   -2.1399    0.4572   -2.7192 H   0  0  0  0  0  0  0  0  0  0  0  0
    1.0307   -0.4957    0.9272 C   0  0  0  0  0  0  0  0  0  0  0  0
    2.2423   -0.5961    1.0729 O   0  0  0  0  0  0  0  0  0  0  0  0
    0.2606   -0.0444    1.9843 N   0  0  0  0  0  0  0  0  0  0  0  0
   -0.7440   -0.0757    1.8493 H   0  0  0  0  0  0  0  0  0  0  0  0
    0.7842    0.0922    3.3373 C   0  0  0  0  0  0  0  0  0  0  0  0
    1.6226    0.7965    3.3553 H   0  0  0  0  0  0  0  0  0  0  0  0
    0.0057    0.4670    4.0082 H   0  0  0  0  0  0  0  0  0  0  0  0
    1.1304   -0.8768    3.7122 H   0  0  0  0  0  0  0  0  0  0  0  0
  1  2  1  0  0  0  0
  2  3  1  0  0  0  0
  2  4  1  0  0  0  0
  2  5  1  0  0  0  0
  5  6  2  0  0  0  0
  5  7  1  0  0  0  0
  7  8  1  0  0  0  0
  7  9  1  0  0  0  0
  9 10  1  0  0  0  0
  9 11  1  0  0  0  0
  9 24  1  0  0  0  0
 11 12  1  0  0  0  0
 11 13  1  0  0  0  0
 11 17  1  0  0  0  0
 13 14  1  0  0  0  0
 13 15  1  0  0  0  0
 13 16  1  0  0  0  0
 17 18  1  0  0  0  0
 17 19  1  0  0  0  0
 17 20  1  0  0  0  0
 20 21  1  0  0  0  0
 20 22  1  0  0  0  0
 20 23  1  0  0  0  0
 24 25  2  0  0  0  0
 24 26  1  0  0  0  0
 26 27  1  0  0  0  0
 26 28  1  0  0  0  0
 28 29  1  0  0  0  0
 28 30  1  0  0  0  0
 28 31  1  0  0  0  0
M  END
$$$$

  -OEChem-03222214053D

 31 30  0     1  0  0  0  0  0999 V2000
   -2.5194   -4.2324    0.3320 H   0  0  0  0  0  0  0  0  0  0  0  0
   -2.5281   -3.2120   -0.0621 C   0  0  0  0  0  0  0  0  0  0  0  0
   -3.2480   -2.6206    0.5086 H   0  0  0  0  0  0  0  0  0  0  0  0
   -2.8392   -3.2435   -1.1090 H   0  0  0  0  0  0  0  0  0  0  0  0
   -1.1456   -2.5974    0.0511 C   0  0  0  0  0  0  0  0  0  0  0  0
   -0.2432   -3.2294    0.5688 O   0  0  0  0  0  0  0  0  0  0  0  0
   -0.9220   -1.3255   -0.4388 N   0  0  0  0  0  0  0  0  0  0  0  0
   -1.6898   -0.8880   -0.9391 H   0  0  0  0  0  0  0  0  0  0  0  0
    0.3970   -0.6615   -0.4815 C   0  0  1  0  0  0  0  0  0  0  0  0
    1.0957   -1.2797   -1.0568 H   0  0  0  0  0  0  0  0  0  0  0  0
    0.1994    0.6940   -1.2138 C   0  0  1  0  0  0  0  0  0  0  0  0
   -0.7031    1.1673   -0.8111 H   0  0  0  0  0  0  0  0  0  0  0  0
    1.3661    1.6769   -1.0032 C   0  0  0  0  0  0  0  0  0  0  0  0
    2.3190    1.2083   -1.2708 H   0  0  0  0  0  0  0  0  0  0  0  0
    1.2306    2.5683   -1.6238 H   0  0  0  0  0  0  0  0  0  0  0  0
    1.4195    2.0039    0.0399 H   0  0  0  0  0  0  0  0  0  0  0  0
    0.0359    0.4562   -2.7362 C   0  0  0  0  0  0  0  0  0  0  0  0
    0.9629    0.6996   -3.2667 H   0  0  0  0  0  0  0  0  0  0  0  0
   -0.1764   -0.5987   -2.9390 H   0  0  0  0  0  0  0  0  0  0  0  0
   -1.1162    1.2859   -3.3046 C   0  0  0  0  0  0  0  0  0  0  0  0
   -0.9336    2.3531   -3.1444 H   0  0  0  0  0  0  0  0  0  0  0  0
   -1.2111    1.1081   -4.3801 H   0  0  0  0  0  0  0  0  0  0  0  0
   -2.0609    1.0142   -2.8235 H   0  0  0  0  0  0  0  0  0  0  0  0
    1.0301   -0.4995    0.9219 C   0  0  0  0  0  0  0  0  0  0  0  0
    2.2421   -0.5983    1.0647 O   0  0  0  0  0  0  0  0  0  0  0  0
    0.2616   -0.0511    1.9813 N   0  0  0  0  0  0  0  0  0  0  0  0
   -0.7433   -0.0793    1.8479 H   0  0  0  0  0  0  0  0  0  0  0  0
    0.7887    0.0900    3.3323 C   0  0  0  0  0  0  0  0  0  0  0  0
    1.6274    0.7939    3.3452 H   0  0  0  0  0  0  0  0  0  0  0  0
    0.0121    0.4677    4.0039 H   0  0  0  0  0  0  0  0  0  0  0  0
    1.1355   -0.8778    3.7097 H   0  0  0  0  0  0  0  0  0  0  0  0
  1  2  1  0  0  0  0
  2  3  1  0  0  0  0
  2  4  1  0  0  0  0
  2  5  1  0  0  0  0
  5  6  2  0  0  0  0
  5  7  1  0  0  0  0
  7  8  1  0  0  0  0
  7  9  1  0  0  0  0
  9 10  1  0  0  0  0
  9 11  1  0  0  0  0
  9 24  1  0  0  0  0
 11 12  1  0  0  0  0
 11 13  1  0  0  0  0
 11 17  1  0  0  0  0
 13 14  1  0  0  0  0
 13 15  1  0  0  0  0
 13 16  1  0  0  0  0
 17 18  1  0  0  0  0
 17 19  1  0  0  0  0
 17 20  1  0  0  0  0
 20 21  1  0  0  0  0
 20 22  1  0  0  0  0
 20 23  1  0  0  0  0
 24 25  2  0  0  0  0
 24 26  1  0  0  0  0
 26 27  1  0  0  0  0
 26 28  1  0  0  0  0
 28 29  1  0  0  0  0
 28 30  1  0  0  0  0
 28 31  1  0  0  0  0
M  END
$$$$

  -OEChem-03222214053D

 31 30  0     1  0  0  0  0  0999 V2000
   -2.5117   -4.2342    0.3346 H   0  0  0  0  0  0  0  0  0  0  0  0
   -2.5263   -3.2118   -0.0539 C   0  0  0  0  0  0  0  0  0  0  0  0
   -3.2422   -2.6249    0.5265 H   0  0  0  0  0  0  0  0  0  0  0  0
   -2.8471   -3.2379   -1.0981 H   0  0  0  0  0  0  0  0  0  0  0  0
   -1.1439   -2.5952    0.0502 C   0  0  0  0  0  0  0  0  0  0  0  0
   -0.2358   -3.2281    0.5565 O   0  0  0  0  0  0  0  0  0  0  0  0
   -0.9271   -1.3205   -0.4354 N   0  0  0  0  0  0  0  0  0  0  0  0
   -1.7011   -0.8803   -0.9235 H   0  0  0  0  0  0  0  0  0  0  0  0
    0.3898   -0.6517   -0.4809 C   0  0  1  0  0  0  0  0  0  0  0  0
    1.0861   -1.2685   -1.0604 H   0  0  0  0  0  0  0  0  0  0  0  0
    0.1934    0.7048   -1.2133 C   0  0  1  0  0  0  0  0  0  0  0  0
   -0.7118    1.1789   -0.8180 H   0  0  0  0  0  0  0  0  0  0  0  0
    1.3667    1.6812   -0.9991 C   0  0  0  0  0  0  0  0  0  0  0  0
    2.3166    1.2070   -1.2675 H   0  0  0  0  0  0  0  0  0  0  0  0
    1.2424    2.5775   -1.6136 H   0  0  0  0  0  0  0  0  0  0  0  0
    1.4218    2.0035    0.0453 H   0  0  0  0  0  0  0  0  0  0  0  0
    0.0325    0.4584   -2.7329 C   0  0  0  0  0  0  0  0  0  0  0  0
    1.0146    0.4349   -3.2175 H   0  0  0  0  0  0  0  0  0  0  0  0
   -0.4347   -0.5153   -2.9115 H   0  0  0  0  0  0  0  0  0  0  0  0
   -0.8476    1.5239   -3.3909 C   0  0  0  0  0  0  0  0  0  0  0  0
   -0.4097    2.5192   -3.2715 H   0  0  0  0  0  0  0  0  0  0  0  0
   -0.9462    1.3176   -4.4610 H   0  0  0  0  0  0  0  0  0  0  0  0
   -1.8471    1.5249   -2.9453 H   0  0  0  0  0  0  0  0  0  0  0  0
    1.0279   -0.4936    0.9210 C   0  0  0  0  0  0  0  0  0  0  0  0
    2.2403   -0.5937    1.0596 O   0  0  0  0  0  0  0  0  0  0  0  0
    0.2626   -0.0524    1.9859 N   0  0  0  0  0  0  0  0  0  0  0  0
   -0.7428   -0.0817    1.8563 H   0  0  0  0  0  0  0  0  0  0  0  0
    0.7940    0.0770    3.3365 C   0  0  0  0  0  0  0  0  0  0  0  0
    1.6325    0.7813    3.3533 H   0  0  0  0  0  0  0  0  0  0  0  0
    0.0195    0.4483    4.0142 H   0  0  0  0  0  0  0  0  0  0  0  0
    1.1422   -0.8942    3.7039 H   0  0  0  0  0  0  0  0  0  0  0  0
  1  2  1  0  0  0  0
  2  3  1  0  0  0  0
  2  4  1  0  0  0  0
  2  5  1  0  0  0  0
  5  6  2  0  0  0  0
  5  7  1  0  0  0  0
  7  8  1  0  0  0  0
  7  9  1  0  0  0  0
  9 10  1  0  0  0  0
  9 11  1  0  0  0  0
  9 24  1  0  0  0  0
 11 12  1  0  0  0  0
 11 13  1  0  0  0  0
 11 17  1  0  0  0  0
 13 14  1  0  0  0  0
 13 15  1  0  0  0  0
 13 16  1  0  0  0  0
 17 18  1  0  0  0  0
 17 19  1  0  0  0  0
 17 20  1  0  0  0  0
 20 21  1  0  0  0  0
 20 22  1  0  0  0  0
 20 23  1  0  0  0  0
 24 25  2  0  0  0  0
 24 26  1  0  0  0  0
 26 27  1  0  0  0  0
 26 28  1  0  0  0  0
 28 29  1  0  0  0  0
 28 30  1  0  0  0  0
 28 31  1  0  0  0  0
M  END
$$$$

  -OEChem-03222214053D

 31 30  0     1  0  0  0  0  0999 V2000
   -2.5035   -4.2278    0.3266 H   0  0  0  0  0  0  0  0  0  0  0  0
   -2.5214   -3.2033   -0.0560 C   0  0  0  0  0  0  0  0  0  0  0  0
   -3.2338   -2.6207    0.5329 H   0  0  0  0  0  0  0  0  0  0  0  0
   -2.8491   -3.2244   -1.0982 H   0  0  0  0  0  0  0  0  0  0  0  0
   -1.1387   -2.5863    0.0418 C   0  0  0  0  0  0  0  0  0  0  0  0
   -0.2255   -3.2236    0.5332 O   0  0  0  0  0  0  0  0  0  0  0  0
   -0.9269   -1.3066   -0.4332 N   0  0  0  0  0  0  0  0  0  0  0  0
   -1.7068   -0.8602   -0.9059 H   0  0  0  0  0  0  0  0  0  0  0  0
    0.3879   -0.6334   -0.4781 C   0  0  1  0  0  0  0  0  0  0  0  0
    1.0839   -1.2475   -1.0608 H   0  0  0  0  0  0  0  0  0  0  0  0
    0.1880    0.7256   -1.2089 C   0  0  1  0  0  0  0  0  0  0  0  0
   -0.7200    1.2017   -0.8233 H   0  0  0  0  0  0  0  0  0  0  0  0
    1.3660    1.6958   -0.9793 C   0  0  0  0  0  0  0  0  0  0  0  0
    2.3098    1.2347   -1.2880 H   0  0  0  0  0  0  0  0  0  0  0  0
    1.2319    2.6212   -1.5445 H   0  0  0  0  0  0  0  0  0  0  0  0
    1.4439    1.9743    0.0759 H   0  0  0  0  0  0  0  0  0  0  0  0
    0.0301    0.4607   -2.7263 C   0  0  0  0  0  0  0  0  0  0  0  0
    0.9966    0.1745   -3.1550 H   0  0  0  0  0  0  0  0  0  0  0  0
   -0.6552   -0.3777   -2.8842 H   0  0  0  0  0  0  0  0  0  0  0  0
   -0.5293    1.6644   -3.4911 C   0  0  0  0  0  0  0  0  0  0  0  0
    0.1782    2.4978   -3.4913 H   0  0  0  0  0  0  0  0  0  0  0  0
   -0.7217    1.3854   -4.5314 H   0  0  0  0  0  0  0  0  0  0  0  0
   -1.4696    2.0002   -3.0436 H   0  0  0  0  0  0  0  0  0  0  0  0
    1.0273   -0.4882    0.9250 C   0  0  0  0  0  0  0  0  0  0  0  0
    2.2399   -0.5891    1.0619 O   0  0  0  0  0  0  0  0  0  0  0  0
    0.2624   -0.0601    1.9955 N   0  0  0  0  0  0  0  0  0  0  0  0
   -0.7430   -0.0831    1.8650 H   0  0  0  0  0  0  0  0  0  0  0  0
    0.7938    0.0523    3.3478 C   0  0  0  0  0  0  0  0  0  0  0  0
    1.6312    0.7575    3.3736 H   0  0  0  0  0  0  0  0  0  0  0  0
    0.0187    0.4133    4.0303 H   0  0  0  0  0  0  0  0  0  0  0  0
    1.1440   -0.9229    3.7025 H   0  0  0  0  0  0  0  0  0  0  0  0
  1  2  1  0  0  0  0
  2  3  1  0  0  0  0
  2  4  1  0  0  0  0
  2  5  1  0  0  0  0
  5  6  2  0  0  0  0
  5  7  1  0  0  0  0
  7  8  1  0  0  0  0
  7  9  1  0  0  0  0
  9 10  1  0  0  0  0
  9 11  1  0  0  0  0
  9 24  1  0  0  0  0
 11 12  1  0  0  0  0
 11 13  1  0  0  0  0
 11 17  1  0  0  0  0
 13 14  1  0  0  0  0
 13 15  1  0  0  0  0
 13 16  1  0  0  0  0
 17 18  1  0  0  0  0
 17 19  1  0  0  0  0
 17 20  1  0  0  0  0
 20 21  1  0  0  0  0
 20 22  1  0  0  0  0
 20 23  1  0  0  0  0
 24 25  2  0  0  0  0
 24 26  1  0  0  0  0
 26 27  1  0  0  0  0
 26 28  1  0  0  0  0
 28 29  1  0  0  0  0
 28 30  1  0  0  0  0
 28 31  1  0  0  0  0
M  END
$$$$

  -OEChem-03222214053D

 31 30  0     1  0  0  0  0  0999 V2000
   -2.4894   -4.2427    0.3636 H   0  0  0  0  0  0  0  0  0  0  0  0
   -2.5144   -3.2213   -0.0272 C   0  0  0  0  0  0  0  0  0  0  0  0
   -3.2206   -2.6353    0.5656 H   0  0  0  0  0  0  0  0  0  0  0  0
   -2.8555   -3.2510   -1.0649 H   0  0  0  0  0  0  0  0  0  0  0  0
   -1.1319   -2.6008    0.0481 C   0  0  0  0  0  0  0  0  0  0  0  0
   -0.2103   -3.2338    0.5291 O   0  0  0  0  0  0  0  0  0  0  0  0
   -0.9311   -1.3224   -0.4347 N   0  0  0  0  0  0  0  0  0  0  0  0
   -1.7226   -0.8751   -0.8865 H   0  0  0  0  0  0  0  0  0  0  0  0
    0.3771   -0.6370   -0.4862 C   0  0  1  0  0  0  0  0  0  0  0  0
    1.0702   -1.2534   -1.0700 H   0  0  0  0  0  0  0  0  0  0  0  0
    0.1915    0.7239   -1.2191 C   0  0  1  0  0  0  0  0  0  0  0  0
   -0.5466    1.3196   -0.6713 H   0  0  0  0  0  0  0  0  0  0  0  0
    1.5139    1.5194   -1.2548 C   0  0  0  0  0  0  0  0  0  0  0  0
    2.2859    0.9563   -1.7891 H   0  0  0  0  0  0  0  0  0  0  0  0
    1.3811    2.4858   -1.7472 H   0  0  0  0  0  0  0  0  0  0  0  0
    1.8757    1.7312   -0.2447 H   0  0  0  0  0  0  0  0  0  0  0  0
   -0.3313    0.4808   -2.6606 C   0  0  0  0  0  0  0  0  0  0  0  0
    0.3728   -0.1617   -3.2002 H   0  0  0  0  0  0  0  0  0  0  0  0
   -1.2897   -0.0442   -2.6204 H   0  0  0  0  0  0  0  0  0  0  0  0
   -0.5494    1.7632   -3.4702 C   0  0  0  0  0  0  0  0  0  0  0  0
    0.4031    2.2329   -3.7315 H   0  0  0  0  0  0  0  0  0  0  0  0
   -1.0735    1.5287   -4.4017 H   0  0  0  0  0  0  0  0  0  0  0  0
   -1.1547    2.4772   -2.9033 H   0  0  0  0  0  0  0  0  0  0  0  0
    1.0182   -0.4765    0.9143 C   0  0  0  0  0  0  0  0  0  0  0  0
    2.2293   -0.5881    1.0557 O   0  0  0  0  0  0  0  0  0  0  0  0
    0.2524   -0.0484    1.9840 N   0  0  0  0  0  0  0  0  0  0  0  0
   -0.7529   -0.0697    1.8528 H   0  0  0  0  0  0  0  0  0  0  0  0
    0.7828    0.0662    3.3367 C   0  0  0  0  0  0  0  0  0  0  0  0
    1.6211    0.7702    3.3622 H   0  0  0  0  0  0  0  0  0  0  0  0
    0.0078    0.4298    4.0181 H   0  0  0  0  0  0  0  0  0  0  0  0
    1.1311   -0.9088    3.6939 H   0  0  0  0  0  0  0  0  0  0  0  0
  1  2  1  0  0  0  0
  2  3  1  0  0  0  0
  2  4  1  0  0  0  0
  2  5  1  0  0  0  0
  5  6  2  0  0  0  0
  5  7  1  0  0  0  0
  7  8  1  0  0  0  0
  7  9  1  0  0  0  0
  9 10  1  0  0  0  0
  9 11  1  0  0  0  0
  9 24  1  0  0  0  0
 11 12  1  0  0  0  0
 11 13  1  0  0  0  0
 11 17  1  0  0  0  0
 13 14  1  0  0  0  0
 13 15  1  0  0  0  0
 13 16  1  0  0  0  0
 17 18  1  0  0  0  0
 17 19  1  0  0  0  0
 17 20  1  0  0  0  0
 20 21  1  0  0  0  0
 20 22  1  0  0  0  0
 20 23  1  0  0  0  0
 24 25  2  0  0  0  0
 24 26  1  0  0  0  0
 26 27  1  0  0  0  0
 26 28  1  0  0  0  0
 28 29  1  0  0  0  0
 28 30  1  0  0  0  0
 28 31  1  0  0  0  0
M  END
$$$$

  -OEChem-03222214053D

 31 30  0     1  0  0  0  0  0999 V2000
   -2.4988   -4.2234    0.3525 H   0  0  0  0  0  0  0  0  0  0  0  0
   -2.5163   -3.2027   -0.0404 C   0  0  0  0  0  0  0  0  0  0  0  0
   -3.2218   -2.6115    0.5482 H   0  0  0  0  0  0  0  0  0  0  0  0
   -2.8523   -3.2328   -1.0797 H   0  0  0  0  0  0  0  0  0  0  0  0
   -1.1309   -2.5894    0.0401 C   0  0  0  0  0  0  0  0  0  0  0  0
   -0.2139   -3.2273    0.5235 O   0  0  0  0  0  0  0  0  0  0  0  0
   -0.9224   -1.3110   -0.4394 N   0  0  0  0  0  0  0  0  0  0  0  0
   -1.7083   -0.8612   -0.8983 H   0  0  0  0  0  0  0  0  0  0  0  0
    0.3899   -0.6331   -0.4865 C   0  0  1  0  0  0  0  0  0  0  0  0
    1.0837   -1.2476   -1.0715 H   0  0  0  0  0  0  0  0  0  0  0  0
    0.1983    0.7314   -1.2109 C   0  0  1  0  0  0  0  0  0  0  0  0
   -0.5384    1.3295   -0.6639 H   0  0  0  0  0  0  0  0  0  0  0  0
    1.5220    1.5276   -1.2364 C   0  0  0  0  0  0  0  0  0  0  0  0
    2.2892    0.9785   -1.7916 H   0  0  0  0  0  0  0  0  0  0  0  0
    1.3840    2.5075   -1.7012 H   0  0  0  0  0  0  0  0  0  0  0  0
    1.8934    1.7144   -0.2251 H   0  0  0  0  0  0  0  0  0  0  0  0
   -0.3322    0.4765   -2.6500 C   0  0  0  0  0  0  0  0  0  0  0  0
    0.2255   -0.3524   -3.0993 H   0  0  0  0  0  0  0  0  0  0  0  0
   -1.3825    0.1748   -2.5938 H   0  0  0  0  0  0  0  0  0  0  0  0
   -0.2361    1.6727   -3.6034 C   0  0  0  0  0  0  0  0  0  0  0  0
    0.8063    1.8998   -3.8465 H   0  0  0  0  0  0  0  0  0  0  0  0
   -0.7568    1.4447   -4.5385 H   0  0  0  0  0  0  0  0  0  0  0  0
   -0.6998    2.5578   -3.1566 H   0  0  0  0  0  0  0  0  0  0  0  0
    1.0264   -0.4813    0.9170 C   0  0  0  0  0  0  0  0  0  0  0  0
    2.2361   -0.6003    1.0635 O   0  0  0  0  0  0  0  0  0  0  0  0
    0.2577   -0.0521    1.9843 N   0  0  0  0  0  0  0  0  0  0  0  0
   -0.7469   -0.0688    1.8484 H   0  0  0  0  0  0  0  0  0  0  0  0
    0.7825    0.0600    3.3392 C   0  0  0  0  0  0  0  0  0  0  0  0
    1.6248    0.7593    3.3678 H   0  0  0  0  0  0  0  0  0  0  0  0
    0.0063    0.4287    4.0164 H   0  0  0  0  0  0  0  0  0  0  0  0
    1.1230   -0.9168    3.6987 H   0  0  0  0  0  0  0  0  0  0  0  0
  1  2  1  0  0  0  0
  2  3  1  0  0  0  0
  2  4  1  0  0  0  0
  2  5  1  0  0  0  0
  5  6  2  0  0  0  0
  5  7  1  0  0  0  0
  7  8  1  0  0  0  0
  7  9  1  0  0  0  0
  9 10  1  0  0  0  0
  9 11  1  0  0  0  0
  9 24  1  0  0  0  0
 11 12  1  0  0  0  0
 11 13  1  0  0  0  0
 11 17  1  0  0  0  0
 13 14  1  0  0  0  0
 13 15  1  0  0  0  0
 13 16  1  0  0  0  0
 17 18  1  0  0  0  0
 17 19  1  0  0  0  0
 17 20  1  0  0  0  0
 20 21  1  0  0  0  0
 20 22  1  0  0  0  0
 20 23  1  0  0  0  0
 24 25  2  0  0  0  0
 24 26  1  0  0  0  0
 26 27  1  0  0  0  0
 26 28  1  0  0  0  0
 28 29  1  0  0  0  0
 28 30  1  0  0  0  0
 28 31  1  0  0  0  0
M  END
$$$$

  -OEChem-03222214053D

 31 30  0     1  0  0  0  0  0999 V2000
   -2.5095   -4.2132    0.3303 H   0  0  0  0  0  0  0  0  0  0  0  0
   -2.5213   -3.1913   -0.0595 C   0  0  0  0  0  0  0  0  0  0  0  0
   -3.2337   -2.6015    0.5221 H   0  0  0  0  0  0  0  0  0  0  0  0
   -2.8448   -3.2179   -1.1029 H   0  0  0  0  0  0  0  0  0  0  0  0
   -1.1367   -2.5789    0.0400 C   0  0  0  0  0  0  0  0  0  0  0  0
   -0.2269   -3.2180    0.5354 O   0  0  0  0  0  0  0  0  0  0  0  0
   -0.9200   -1.3014   -0.4383 N   0  0  0  0  0  0  0  0  0  0  0  0
   -1.6971   -0.8551   -0.9153 H   0  0  0  0  0  0  0  0  0  0  0  0
    0.3969   -0.6319   -0.4836 C   0  0  1  0  0  0  0  0  0  0  0  0
    1.0892   -1.2482   -1.0685 H   0  0  0  0  0  0  0  0  0  0  0  0
    0.2037    0.7326   -1.2072 C   0  0  1  0  0  0  0  0  0  0  0  0
   -0.5361    1.3293   -0.6626 H   0  0  0  0  0  0  0  0  0  0  0  0
    1.5249    1.5343   -1.2101 C   0  0  0  0  0  0  0  0  0  0  0  0
    2.3110    0.9779   -1.7308 H   0  0  0  0  0  0  0  0  0  0  0  0
    1.3965    2.5049   -1.6968 H   0  0  0  0  0  0  0  0  0  0  0  0
    1.8649    1.7410   -0.1914 H   0  0  0  0  0  0  0  0  0  0  0  0
   -0.3326    0.4744   -2.6478 C   0  0  0  0  0  0  0  0  0  0  0  0
    0.0299   -0.4979   -2.9988 H   0  0  0  0  0  0  0  0  0  0  0  0
   -1.4249    0.4189   -2.6069 H   0  0  0  0  0  0  0  0  0  0  0  0
    0.0592    1.5019   -3.7162 C   0  0  0  0  0  0  0  0  0  0  0  0
    1.1399    1.4988   -3.8882 H   0  0  0  0  0  0  0  0  0  0  0  0
   -0.4334    1.2581   -4.6623 H   0  0  0  0  0  0  0  0  0  0  0  0
   -0.2534    2.5068   -3.4161 H   0  0  0  0  0  0  0  0  0  0  0  0
    1.0347   -0.4844    0.9198 C   0  0  0  0  0  0  0  0  0  0  0  0
    2.2446   -0.6056    1.0641 O   0  0  0  0  0  0  0  0  0  0  0  0
    0.2690   -0.0508    1.9872 N   0  0  0  0  0  0  0  0  0  0  0  0
   -0.7360   -0.0688    1.8528 H   0  0  0  0  0  0  0  0  0  0  0  0
    0.7959    0.0570    3.3415 C   0  0  0  0  0  0  0  0  0  0  0  0
    1.6396    0.7544    3.3709 H   0  0  0  0  0  0  0  0  0  0  0  0
    0.0212    0.4256    4.0206 H   0  0  0  0  0  0  0  0  0  0  0  0
    1.1358   -0.9212    3.6980 H   0  0  0  0  0  0  0  0  0  0  0  0
  1  2  1  0  0  0  0
  2  3  1  0  0  0  0
  2  4  1  0  0  0  0
  2  5  1  0  0  0  0
  5  6  2  0  0  0  0
  5  7  1  0  0  0  0
  7  8  1  0  0  0  0
  7  9  1  0  0  0  0
  9 10  1  0  0  0  0
  9 11  1  0  0  0  0
  9 24  1  0  0  0  0
 11 12  1  0  0  0  0
 11 13  1  0  0  0  0
 11 17  1  0  0  0  0
 13 14  1  0  0  0  0
 13 15  1  0  0  0  0
 13 16  1  0  0  0  0
 17 18  1  0  0  0  0
 17 19  1  0  0  0  0
 17 20  1  0  0  0  0
 20 21  1  0  0  0  0
 20 22  1  0  0  0  0
 20 23  1  0  0  0  0
 24 25  2  0  0  0  0
 24 26  1  0  0  0  0
 26 27  1  0  0  0  0
 26 28  1  0  0  0  0
 28 29  1  0  0  0  0
 28 30  1  0  0  0  0
 28 31  1  0  0  0  0
M  END
$$$$

  -OEChem-03222214053D

 31 30  0     1  0  0  0  0  0999 V2000
   -2.5172   -4.2122    0.3313 H   0  0  0  0  0  0  0  0  0  0  0  0
   -2.5266   -3.1906   -0.0594 C   0  0  0  0  0  0  0  0  0  0  0  0
   -3.2398   -2.5993    0.5197 H   0  0  0  0  0  0  0  0  0  0  0  0
   -2.8470   -3.2180   -1.1036 H   0  0  0  0  0  0  0  0  0  0  0  0
   -1.1415   -2.5803    0.0429 C   0  0  0  0  0  0  0  0  0  0  0  0
   -0.2342   -3.2199    0.5418 O   0  0  0  0  0  0  0  0  0  0  0  0
   -0.9210   -1.3042   -0.4377 N   0  0  0  0  0  0  0  0  0  0  0  0
   -1.6951   -0.8585   -0.9202 H   0  0  0  0  0  0  0  0  0  0  0  0
    0.3985   -0.6393   -0.4850 C   0  0  1  0  0  0  0  0  0  0  0  0
    1.0882   -1.2578   -1.0704 H   0  0  0  0  0  0  0  0  0  0  0  0
    0.2106    0.7242   -1.2119 C   0  0  1  0  0  0  0  0  0  0  0  0
   -0.5382    1.3109   -0.6688 H   0  0  0  0  0  0  0  0  0  0  0  0
    1.5208    1.5435   -1.1869 C   0  0  0  0  0  0  0  0  0  0  0  0
    2.3340    0.9871   -1.6638 H   0  0  0  0  0  0  0  0  0  0  0  0
    1.3958    2.5008   -1.7000 H   0  0  0  0  0  0  0  0  0  0  0  0
    1.8198    1.7766   -0.1608 H   0  0  0  0  0  0  0  0  0  0  0  0
   -0.3277    0.4752   -2.6576 C   0  0  0  0  0  0  0  0  0  0  0  0
   -0.2100   -0.5831   -2.9139 H   0  0  0  0  0  0  0  0  0  0  0  0
   -1.4011    0.6901   -2.6653 H   0  0  0  0  0  0  0  0  0  0  0  0
    0.3304    1.2675   -3.7944 C   0  0  0  0  0  0  0  0  0  0  0  0
    1.3971    1.0353   -3.8686 H   0  0  0  0  0  0  0  0  0  0  0  0
   -0.1391    1.0047   -4.7474 H   0  0  0  0  0  0  0  0  0  0  0  0
    0.2057    2.3437   -3.6411 H   0  0  0  0  0  0  0  0  0  0  0  0
    1.0390   -0.4913    0.9172 C   0  0  0  0  0  0  0  0  0  0  0  0
    2.2492   -0.6119    1.0589 O   0  0  0  0  0  0  0  0  0  0  0  0
    0.2758   -0.0530    1.9846 N   0  0  0  0  0  0  0  0  0  0  0  0
   -0.7295   -0.0728    1.8530 H   0  0  0  0  0  0  0  0  0  0  0  0
    0.8057    0.0586    3.3373 C   0  0  0  0  0  0  0  0  0  0  0  0
    1.6501    0.7556    3.3622 H   0  0  0  0  0  0  0  0  0  0  0  0
    0.0331    0.4299    4.0171 H   0  0  0  0  0  0  0  0  0  0  0  0
    1.1449   -0.9190    3.6959 H   0  0  0  0  0  0  0  0  0  0  0  0
  1  2  1  0  0  0  0
  2  3  1  0  0  0  0
  2  4  1  0  0  0  0
  2  5  1  0  0  0  0
  5  6  2  0  0  0  0
  5  7  1  0  0  0  0
  7  8  1  0  0  0  0
  7  9  1  0  0  0  0
  9 10  1  0  0  0  0
  9 11  1  0  0  0  0
  9 24  1  0  0  0  0
 11 12  1  0  0  0  0
 11 13  1  0  0  0  0
 11 17  1  0  0  0  0
 13 14  1  0  0  0  0
 13 15  1  0  0  0  0
 13 16  1  0  0  0  0
 17 18  1  0  0  0  0
 17 19  1  0  0  0  0
 17 20  1  0  0  0  0
 20 21  1  0  0  0  0
 20 22  1  0  0  0  0
 20 23  1  0  0  0  0
 24 25  2  0  0  0  0
 24 26  1  0  0  0  0
 26 27  1  0  0  0  0
 26 28  1  0  0  0  0
 28 29  1  0  0  0  0
 28 30  1  0  0  0  0
 28 31  1  0  0  0  0
M  END
$$$$

  -OEChem-03222214053D

 31 30  0     1  0  0  0  0  0999 V2000
   -2.5230   -4.2215    0.3518 H   0  0  0  0  0  0  0  0  0  0  0  0
   -2.5335   -3.2025   -0.0456 C   0  0  0  0  0  0  0  0  0  0  0  0
   -3.2456   -2.6076    0.5313 H   0  0  0  0  0  0  0  0  0  0  0  0
   -2.8566   -3.2364   -1.0888 H   0  0  0  0  0  0  0  0  0  0  0  0
   -1.1481   -2.5912    0.0501 C   0  0  0  0  0  0  0  0  0  0  0  0
   -0.2392   -3.2286    0.5495 O   0  0  0  0  0  0  0  0  0  0  0  0
   -0.9295   -1.3166   -0.4353 N   0  0  0  0  0  0  0  0  0  0  0  0
   -1.7057   -0.8724   -0.9160 H   0  0  0  0  0  0  0  0  0  0  0  0
    0.3904   -0.6520   -0.4893 C   0  0  1  0  0  0  0  0  0  0  0  0
    1.0755   -1.2755   -1.0750 H   0  0  0  0  0  0  0  0  0  0  0  0
    0.2155    0.7094   -1.2238 C   0  0  1  0  0  0  0  0  0  0  0  0
   -0.5458    1.2817   -0.6823 H   0  0  0  0  0  0  0  0  0  0  0  0
    1.5085    1.5530   -1.1744 C   0  0  0  0  0  0  0  0  0  0  0  0
    2.3486    1.0062   -1.6140 H   0  0  0  0  0  0  0  0  0  0  0  0
    1.3781    2.4976   -1.7096 H   0  0  0  0  0  0  0  0  0  0  0  0
    1.7697    1.8087   -0.1433 H   0  0  0  0  0  0  0  0  0  0  0  0
   -0.3202    0.4787   -2.6745 C   0  0  0  0  0  0  0  0  0  0  0  0
   -0.4863   -0.5888   -2.8488 H   0  0  0  0  0  0  0  0  0  0  0  0
   -1.2943    0.9713   -2.7594 H   0  0  0  0  0  0  0  0  0  0  0  0
    0.5600    0.9789   -3.8272 C   0  0  0  0  0  0  0  0  0  0  0  0
    1.5513    0.5169   -3.7880 H   0  0  0  0  0  0  0  0  0  0  0  0
    0.0998    0.7131   -4.7837 H   0  0  0  0  0  0  0  0  0  0  0  0
    0.6683    2.0669   -3.7979 H   0  0  0  0  0  0  0  0  0  0  0  0
    1.0372   -0.4993    0.9093 C   0  0  0  0  0  0  0  0  0  0  0  0
    2.2483   -0.6171    1.0452 O   0  0  0  0  0  0  0  0  0  0  0  0
    0.2793   -0.0571    1.9788 N   0  0  0  0  0  0  0  0  0  0  0  0
   -0.7267   -0.0749    1.8522 H   0  0  0  0  0  0  0  0  0  0  0  0
    0.8165    0.0656    3.3279 C   0  0  0  0  0  0  0  0  0  0  0  0
    1.6589    0.7651    3.3435 H   0  0  0  0  0  0  0  0  0  0  0  0
    0.0466    0.4394    4.0093 H   0  0  0  0  0  0  0  0  0  0  0  0
    1.1608   -0.9083    3.6918 H   0  0  0  0  0  0  0  0  0  0  0  0
  1  2  1  0  0  0  0
  2  3  1  0  0  0  0
  2  4  1  0  0  0  0
  2  5  1  0  0  0  0
  5  6  2  0  0  0  0
  5  7  1  0  0  0  0
  7  8  1  0  0  0  0
  7  9  1  0  0  0  0
  9 10  1  0  0  0  0
  9 11  1  0  0  0  0
  9 24  1  0  0  0  0
 11 12  1  0  0  0  0
 11 13  1  0  0  0  0
 11 17  1  0  0  0  0
 13 14  1  0  0  0  0
 13 15  1  0  0  0  0
 13 16  1  0  0  0  0
 17 18  1  0  0  0  0
 17 19  1  0  0  0  0
 17 20  1  0  0  0  0
 20 21  1  0  0  0  0
 20 22  1  0  0  0  0
 20 23  1  0  0  0  0
 24 25  2  0  0  0  0
 24 26  1  0  0  0  0
 26 27  1  0  0  0  0
 26 28  1  0  0  0  0
 28 29  1  0  0  0  0
 28 30  1  0  0  0  0
 28 31  1  0  0  0  0
M  END
$$$$

  -OEChem-03222214053D

 31 30  0     1  0  0  0  0  0999 V2000
   -2.5238   -4.2350    0.3773 H   0  0  0  0  0  0  0  0  0  0  0  0
   -2.5386   -3.2175   -0.0243 C   0  0  0  0  0  0  0  0  0  0  0  0
   -3.2460   -2.6207    0.5562 H   0  0  0  0  0  0  0  0  0  0  0  0
   -2.8704   -3.2561   -1.0646 H   0  0  0  0  0  0  0  0  0  0  0  0
   -1.1529   -2.6050    0.0565 C   0  0  0  0  0  0  0  0  0  0  0  0
   -0.2388   -3.2401    0.5488 O   0  0  0  0  0  0  0  0  0  0  0  0
   -0.9394   -1.3314   -0.4337 N   0  0  0  0  0  0  0  0  0  0  0  0
   -1.7224   -0.8842   -0.9003 H   0  0  0  0  0  0  0  0  0  0  0  0
    0.3785   -0.6639   -0.4949 C   0  0  1  0  0  0  0  0  0  0  0  0
    1.0604   -1.2911   -1.0802 H   0  0  0  0  0  0  0  0  0  0  0  0
    0.2158    0.6955   -1.2348 C   0  0  1  0  0  0  0  0  0  0  0  0
   -0.5531    1.2585   -0.6944 H   0  0  0  0  0  0  0  0  0  0  0  0
    1.4967    1.5540   -1.1811 C   0  0  0  0  0  0  0  0  0  0  0  0
    2.3529    1.0071   -1.5887 H   0  0  0  0  0  0  0  0  0  0  0  0
    1.3624    2.4801   -1.7478 H   0  0  0  0  0  0  0  0  0  0  0  0
    1.7326    1.8388   -0.1513 H   0  0  0  0  0  0  0  0  0  0  0  0
   -0.3154    0.4857   -2.6875 C   0  0  0  0  0  0  0  0  0  0  0  0
   -0.7637   -0.5054   -2.7978 H   0  0  0  0  0  0  0  0  0  0  0  0
   -1.1122    1.2155   -2.8643 H   0  0  0  0  0  0  0  0  0  0  0  0
    0.7172    0.6530   -3.8099 C   0  0  0  0  0  0  0  0  0  0  0  0
    1.5669   -0.0184   -3.6518 H   0  0  0  0  0  0  0  0  0  0  0  0
    0.2596    0.4050   -4.7724 H   0  0  0  0  0  0  0  0  0  0  0  0
    1.0811    1.6828   -3.8674 H   0  0  0  0  0  0  0  0  0  0  0  0
    1.0319   -0.5042    0.8996 C   0  0  0  0  0  0  0  0  0  0  0  0
    2.2443   -0.6161    1.0298 O   0  0  0  0  0  0  0  0  0  0  0  0
    0.2777   -0.0598    1.9707 N   0  0  0  0  0  0  0  0  0  0  0  0
   -0.7288   -0.0791    1.8487 H   0  0  0  0  0  0  0  0  0  0  0  0
    0.8211    0.0718    3.3162 C   0  0  0  0  0  0  0  0  0  0  0  0
    1.6621    0.7733    3.3233 H   0  0  0  0  0  0  0  0  0  0  0  0
    0.0537    0.4482    3.9991 H   0  0  0  0  0  0  0  0  0  0  0  0
    1.1690   -0.8993    3.6842 H   0  0  0  0  0  0  0  0  0  0  0  0
  1  2  1  0  0  0  0
  2  3  1  0  0  0  0
  2  4  1  0  0  0  0
  2  5  1  0  0  0  0
  5  6  2  0  0  0  0
  5  7  1  0  0  0  0
  7  8  1  0  0  0  0
  7  9  1  0  0  0  0
  9 10  1  0  0  0  0
  9 11  1  0  0  0  0
  9 24  1  0  0  0  0
 11 12  1  0  0  0  0
 11 13  1  0  0  0  0
 11 17  1  0  0  0  0
 13 14  1  0  0  0  0
 13 15  1  0  0  0  0
 13 16  1  0  0  0  0
 17 18  1  0  0  0  0
 17 19  1  0  0  0  0
 17 20  1  0  0  0  0
 20 21  1  0  0  0  0
 20 22  1  0  0  0  0
 20 23  1  0  0  0  0
 24 25  2  0  0  0  0
 24 26  1  0  0  0  0
 26 27  1  0  0  0  0
 26 28  1  0  0  0  0
 28 29  1  0  0  0  0
 28 30  1  0  0  0  0
 28 31  1  0  0  0  0
M  END
$$$$

  -OEChem-03222214053D

 31 30  0     1  0  0  0  0  0999 V2000
   -2.5232   -4.2467    0.3836 H   0  0  0  0  0  0  0  0  0  0  0  0
   -2.5402   -3.2303   -0.0201 C   0  0  0  0  0  0  0  0  0  0  0  0
   -3.2498   -2.6342    0.5583 H   0  0  0  0  0  0  0  0  0  0  0  0
   -2.8707   -3.2720   -1.0607 H   0  0  0  0  0  0  0  0  0  0  0  0
   -1.1561   -2.6143    0.0608 C   0  0  0  0  0  0  0  0  0  0  0  0
   -0.2407   -3.2463    0.5550 O   0  0  0  0  0  0  0  0  0  0  0  0
   -0.9454   -1.3416   -0.4328 N   0  0  0  0  0  0  0  0  0  0  0  0
   -1.7303   -0.8959   -0.8977 H   0  0  0  0  0  0  0  0  0  0  0  0
    0.3707   -0.6717   -0.4962 C   0  0  1  0  0  0  0  0  0  0  0  0
    1.0520   -1.3007   -1.0802 H   0  0  0  0  0  0  0  0  0  0  0  0
    0.2109    0.6881   -1.2347 C   0  0  1  0  0  0  0  0  0  0  0  0
   -0.5531    1.2550   -0.6916 H   0  0  0  0  0  0  0  0  0  0  0  0
    1.4962    1.5383   -1.2012 C   0  0  0  0  0  0  0  0  0  0  0  0
    2.3536    0.9673   -1.5718 H   0  0  0  0  0  0  0  0  0  0  0  0
    1.3767    2.4358   -1.8157 H   0  0  0  0  0  0  0  0  0  0  0  0
    1.7188    1.8658   -0.1811 H   0  0  0  0  0  0  0  0  0  0  0  0
   -0.3184    0.4952   -2.6854 C   0  0  0  0  0  0  0  0  0  0  0  0
   -1.0033   -0.3546   -2.7427 H   0  0  0  0  0  0  0  0  0  0  0  0
   -0.8965    1.3849   -2.9559 H   0  0  0  0  0  0  0  0  0  0  0  0
    0.7704    0.3121   -3.7505 C   0  0  0  0  0  0  0  0  0  0  0  0
    1.4309   -0.5188   -3.4839 H   0  0  0  0  0  0  0  0  0  0  0  0
    0.3093    0.0887   -4.7172 H   0  0  0  0  0  0  0  0  0  0  0  0
    1.3712    1.2187   -3.8666 H   0  0  0  0  0  0  0  0  0  0  0  0
    1.0272   -0.5054    0.8959 C   0  0  0  0  0  0  0  0  0  0  0  0
    2.2404   -0.6108    1.0227 O   0  0  0  0  0  0  0  0  0  0  0  0
    0.2747   -0.0589    1.9674 N   0  0  0  0  0  0  0  0  0  0  0  0
   -0.7321   -0.0828    1.8485 H   0  0  0  0  0  0  0  0  0  0  0  0
    0.8216    0.0814    3.3108 C   0  0  0  0  0  0  0  0  0  0  0  0
    1.6590    0.7871    3.3125 H   0  0  0  0  0  0  0  0  0  0  0  0
    0.0542    0.4565    3.9945 H   0  0  0  0  0  0  0  0  0  0  0  0
    1.1757   -0.8865    3.6815 H   0  0  0  0  0  0  0  0  0  0  0  0
  1  2  1  0  0  0  0
  2  3  1  0  0  0  0
  2  4  1  0  0  0  0
  2  5  1  0  0  0  0
  5  6  2  0  0  0  0
  5  7  1  0  0  0  0
  7  8  1  0  0  0  0
  7  9  1  0  0  0  0
  9 10  1  0  0  0  0
  9 11  1  0  0  0  0
  9 24  1  0  0  0  0
 11 12  1  0  0  0  0
 11 13  1  0  0  0  0
 11 17  1  0  0  0  0
 13 14  1  0  0  0  0
 13 15  1  0  0  0  0
 13 16  1  0  0  0  0
 17 18  1  0  0  0  0
 17 19  1  0  0  0  0
 17 20  1  0  0  0  0
 20 21  1  0  0  0  0
 20 22  1  0  0  0  0
 20 23  1  0  0  0  0
 24 25  2  0  0  0  0
 24 26  1  0  0  0  0
 26 27  1  0  0  0  0
 26 28  1  0  0  0  0
 28 29  1  0  0  0  0
 28 30  1  0  0  0  0
 28 31  1  0  0  0  0
M  END
$$$$

  -OEChem-03222214053D

 31 30  0     1  0  0  0  0  0999 V2000
   -2.5203   -4.2556    0.3799 H   0  0  0  0  0  0  0  0  0  0  0  0
   -2.5355   -3.2397   -0.0252 C   0  0  0  0  0  0  0  0  0  0  0  0
   -3.2518   -2.6442    0.5458 H   0  0  0  0  0  0  0  0  0  0  0  0
   -2.8564   -3.2834   -1.0687 H   0  0  0  0  0  0  0  0  0  0  0  0
   -1.1534   -2.6206    0.0675 C   0  0  0  0  0  0  0  0  0  0  0  0
   -0.2427   -3.2475    0.5766 O   0  0  0  0  0  0  0  0  0  0  0  0
   -0.9404   -1.3503   -0.4315 N   0  0  0  0  0  0  0  0  0  0  0  0
   -1.7197   -0.9132   -0.9131 H   0  0  0  0  0  0  0  0  0  0  0  0
    0.3753   -0.6805   -0.4913 C   0  0  1  0  0  0  0  0  0  0  0  0
    1.0611   -1.3107   -1.0669 H   0  0  0  0  0  0  0  0  0  0  0  0
    0.2076    0.6802   -1.2257 C   0  0  1  0  0  0  0  0  0  0  0  0
   -0.5435    1.2583   -0.6766 H   0  0  0  0  0  0  0  0  0  0  0  0
    1.5055    1.5105   -1.2232 C   0  0  0  0  0  0  0  0  0  0  0  0
    2.3539    0.9128   -1.5718 H   0  0  0  0  0  0  0  0  0  0  0  0
    1.4021    2.3851   -1.8728 H   0  0  0  0  0  0  0  0  0  0  0  0
    1.7325    1.8704   -0.2149 H   0  0  0  0  0  0  0  0  0  0  0  0
   -0.3228    0.5037   -2.6741 C   0  0  0  0  0  0  0  0  0  0  0  0
   -1.1876   -0.1651   -2.6847 H   0  0  0  0  0  0  0  0  0  0  0  0
   -0.6738    1.4777   -3.0310 H   0  0  0  0  0  0  0  0  0  0  0  0
    0.7152   -0.0180   -3.6765 C   0  0  0  0  0  0  0  0  0  0  0  0
    1.1292   -0.9751   -3.3464 H   0  0  0  0  0  0  0  0  0  0  0  0
    0.2430   -0.1678   -4.6521 H   0  0  0  0  0  0  0  0  0  0  0  0
    1.5348    0.6948   -3.8049 H   0  0  0  0  0  0  0  0  0  0  0  0
    1.0258   -0.5057    0.9026 C   0  0  0  0  0  0  0  0  0  0  0  0
    2.2391   -0.6060    1.0341 O   0  0  0  0  0  0  0  0  0  0  0  0
    0.2688   -0.0536    1.9687 N   0  0  0  0  0  0  0  0  0  0  0  0
   -0.7375   -0.0838    1.8475 H   0  0  0  0  0  0  0  0  0  0  0  0
    0.8111    0.0975    3.3127 C   0  0  0  0  0  0  0  0  0  0  0  0
    1.6462    0.8059    3.3123 H   0  0  0  0  0  0  0  0  0  0  0  0
    0.0406    0.4747    3.9916 H   0  0  0  0  0  0  0  0  0  0  0  0
    1.1671   -0.8666    3.6911 H   0  0  0  0  0  0  0  0  0  0  0  0
  1  2  1  0  0  0  0
  2  3  1  0  0  0  0
  2  4  1  0  0  0  0
  2  5  1  0  0  0  0
  5  6  2  0  0  0  0
  5  7  1  0  0  0  0
  7  8  1  0  0  0  0
  7  9  1  0  0  0  0
  9 10  1  0  0  0  0
  9 11  1  0  0  0  0
  9 24  1  0  0  0  0
 11 12  1  0  0  0  0
 11 13  1  0  0  0  0
 11 17  1  0  0  0  0
 13 14  1  0  0  0  0
 13 15  1  0  0  0  0
 13 16  1  0  0  0  0
 17 18  1  0  0  0  0
 17 19  1  0  0  0  0
 17 20  1  0  0  0  0
 20 21  1  0  0  0  0
 20 22  1  0  0  0  0
 20 23  1  0  0  0  0
 24 25  2  0  0  0  0
 24 26  1  0  0  0  0
 26 27  1  0  0  0  0
 26 28  1  0  0  0  0
 28 29  1  0  0  0  0
 28 30  1  0  0  0  0
 28 31  1  0  0  0  0
M  END
$$$$

  -OEChem-03222214053D

 31 30  0     1  0  0  0  0  0999 V2000
   -2.5035   -4.2670    0.3740 H   0  0  0  0  0  0  0  0  0  0  0  0
   -2.5229   -3.2497   -0.0272 C   0  0  0  0  0  0  0  0  0  0  0  0
   -3.2469   -2.6615    0.5413 H   0  0  0  0  0  0  0  0  0  0  0  0
   -2.8364   -3.2914   -1.0731 H   0  0  0  0  0  0  0  0  0  0  0  0
   -1.1457   -2.6220    0.0786 C   0  0  0  0  0  0  0  0  0  0  0  0
   -0.2387   -3.2405    0.6044 O   0  0  0  0  0  0  0  0  0  0  0  0
   -0.9317   -1.3548   -0.4275 N   0  0  0  0  0  0  0  0  0  0  0  0
   -1.7030   -0.9298   -0.9323 H   0  0  0  0  0  0  0  0  0  0  0  0
    0.3837   -0.6855   -0.4828 C   0  0  1  0  0  0  0  0  0  0  0  0
    1.0785   -1.3145   -1.0484 H   0  0  0  0  0  0  0  0  0  0  0  0
    0.2046    0.6736   -1.2165 C   0  0  1  0  0  0  0  0  0  0  0  0
   -0.5320    1.2647   -0.6617 H   0  0  0  0  0  0  0  0  0  0  0  0
    1.5153    1.4838   -1.2434 C   0  0  0  0  0  0  0  0  0  0  0  0
    2.3466    0.8728   -1.6087 H   0  0  0  0  0  0  0  0  0  0  0  0
    1.4144    2.3593   -1.8922 H   0  0  0  0  0  0  0  0  0  0  0  0
    1.7694    1.8418   -0.2408 H   0  0  0  0  0  0  0  0  0  0  0  0
   -0.3278    0.5075   -2.6641 C   0  0  0  0  0  0  0  0  0  0  0  0
   -1.3214    0.0508   -2.6395 H   0  0  0  0  0  0  0  0  0  0  0  0
   -0.4502    1.5020   -3.1059 H   0  0  0  0  0  0  0  0  0  0  0  0
    0.5672   -0.3237   -3.5929 C   0  0  0  0  0  0  0  0  0  0  0  0
    0.6427   -1.3576   -3.2442 H   0  0  0  0  0  0  0  0  0  0  0  0
    0.1395   -0.3382   -4.6000 H   0  0  0  0  0  0  0  0  0  0  0  0
    1.5728    0.1013   -3.6573 H   0  0  0  0  0  0  0  0  0  0  0  0
    1.0244   -0.5022    0.9147 C   0  0  0  0  0  0  0  0  0  0  0  0
    2.2368   -0.6010    1.0543 O   0  0  0  0  0  0  0  0  0  0  0  0
    0.2606   -0.0436    1.9734 N   0  0  0  0  0  0  0  0  0  0  0  0
   -0.7450   -0.0782    1.8473 H   0  0  0  0  0  0  0  0  0  0  0  0
    0.7955    0.1146    3.3196 C   0  0  0  0  0  0  0  0  0  0  0  0
    1.6332    0.8200    3.3187 H   0  0  0  0  0  0  0  0  0  0  0  0
    0.0227    0.4992    3.9917 H   0  0  0  0  0  0  0  0  0  0  0  0
    1.1460   -0.8482    3.7061 H   0  0  0  0  0  0  0  0  0  0  0  0
  1  2  1  0  0  0  0
  2  3  1  0  0  0  0
  2  4  1  0  0  0  0
  2  5  1  0  0  0  0
  5  6  2  0  0  0  0
  5  7  1  0  0  0  0
  7  8  1  0  0  0  0
  7  9  1  0  0  0  0
  9 10  1  0  0  0  0
  9 11  1  0  0  0  0
  9 24  1  0  0  0  0
 11 12  1  0  0  0  0
 11 13  1  0  0  0  0
 11 17  1  0  0  0  0
 13 14  1  0  0  0  0
 13 15  1  0  0  0  0
 13 16  1  0  0  0  0
 17 18  1  0  0  0  0
 17 19  1  0  0  0  0
 17 20  1  0  0  0  0
 20 21  1  0  0  0  0
 20 22  1  0  0  0  0
 20 23  1  0  0  0  0
 24 25  2  0  0  0  0
 24 26  1  0  0  0  0
 26 27  1  0  0  0  0
 26 28  1  0  0  0  0
 28 29  1  0  0  0  0
 28 30  1  0  0  0  0
 28 31  1  0  0  0  0
M  END
$$$$

  -OEChem-03222214053D

 31 30  0     1  0  0  0  0  0999 V2000
   -2.4944   -4.2694    0.3801 H   0  0  0  0  0  0  0  0  0  0  0  0
   -2.5131   -3.2526   -0.0227 C   0  0  0  0  0  0  0  0  0  0  0  0
   -3.2410   -2.6639    0.5407 H   0  0  0  0  0  0  0  0  0  0  0  0
   -2.8205   -3.2962   -1.0702 H   0  0  0  0  0  0  0  0  0  0  0  0
   -1.1376   -2.6228    0.0902 C   0  0  0  0  0  0  0  0  0  0  0  0
   -0.2342   -3.2374    0.6267 O   0  0  0  0  0  0  0  0  0  0  0  0
   -0.9214   -1.3582   -0.4212 N   0  0  0  0  0  0  0  0  0  0  0  0
   -1.6861   -0.9419   -0.9430 H   0  0  0  0  0  0  0  0  0  0  0  0
    0.3942   -0.6885   -0.4730 C   0  0  1  0  0  0  0  0  0  0  0  0
    1.0963   -1.3151   -1.0330 H   0  0  0  0  0  0  0  0  0  0  0  0
    0.2005    0.6678   -1.2093 C   0  0  1  0  0  0  0  0  0  0  0  0
   -0.5204    1.2713   -0.6470 H   0  0  0  0  0  0  0  0  0  0  0  0
    1.5231    1.4581   -1.2664 C   0  0  0  0  0  0  0  0  0  0  0  0
    2.3218    0.8498   -1.7023 H   0  0  0  0  0  0  0  0  0  0  0  0
    1.4080    2.3640   -1.8693 H   0  0  0  0  0  0  0  0  0  0  0  0
    1.8354    1.7700   -0.2651 H   0  0  0  0  0  0  0  0  0  0  0  0
   -0.3341    0.5108   -2.6586 C   0  0  0  0  0  0  0  0  0  0  0  0
   -1.4031    0.2815   -2.6160 H   0  0  0  0  0  0  0  0  0  0  0  0
   -0.2395    1.4667   -3.1841 H   0  0  0  0  0  0  0  0  0  0  0  0
    0.3506   -0.5787   -3.4943 C   0  0  0  0  0  0  0  0  0  0  0  0
    0.1394   -1.5749   -3.0946 H   0  0  0  0  0  0  0  0  0  0  0  0
   -0.0205   -0.5429   -4.5230 H   0  0  0  0  0  0  0  0  0  0  0  0
    1.4342   -0.4292   -3.5159 H   0  0  0  0  0  0  0  0  0  0  0  0
    1.0252   -0.4991    0.9282 C   0  0  0  0  0  0  0  0  0  0  0  0
    2.2364   -0.5989    1.0774 O   0  0  0  0  0  0  0  0  0  0  0  0
    0.2537   -0.0363    1.9793 N   0  0  0  0  0  0  0  0  0  0  0  0
   -0.7509   -0.0719    1.8451 H   0  0  0  0  0  0  0  0  0  0  0  0
    0.7771    0.1234    3.3299 C   0  0  0  0  0  0  0  0  0  0  0  0
    1.6181    0.8249    3.3346 H   0  0  0  0  0  0  0  0  0  0  0  0
    0.0002    0.5140    3.9939 H   0  0  0  0  0  0  0  0  0  0  0  0
    1.1193   -0.8400    3.7226 H   0  0  0  0  0  0  0  0  0  0  0  0
  1  2  1  0  0  0  0
  2  3  1  0  0  0  0
  2  4  1  0  0  0  0
  2  5  1  0  0  0  0
  5  6  2  0  0  0  0
  5  7  1  0  0  0  0
  7  8  1  0  0  0  0
  7  9  1  0  0  0  0
  9 10  1  0  0  0  0
  9 11  1  0  0  0  0
  9 24  1  0  0  0  0
 11 12  1  0  0  0  0
 11 13  1  0  0  0  0
 11 17  1  0  0  0  0
 13 14  1  0  0  0  0
 13 15  1  0  0  0  0
 13 16  1  0  0  0  0
 17 18  1  0  0  0  0
 17 19  1  0  0  0  0
 17 20  1  0  0  0  0
 20 21  1  0  0  0  0
 20 22  1  0  0  0  0
 20 23  1  0  0  0  0
 24 25  2  0  0  0  0
 24 26  1  0  0  0  0
 26 27  1  0  0  0  0
 26 28  1  0  0  0  0
 28 29  1  0  0  0  0
 28 30  1  0  0  0  0
 28 31  1  0  0  0  0
M  END
$$$$

  -OEChem-03222214053D

 31 30  0     1  0  0  0  0  0999 V2000
   -2.4895   -4.2789    0.3919 H   0  0  0  0  0  0  0  0  0  0  0  0
   -2.5060   -3.2652   -0.0191 C   0  0  0  0  0  0  0  0  0  0  0  0
   -3.2494   -2.6770    0.5242 H   0  0  0  0  0  0  0  0  0  0  0  0
   -2.7909   -3.3190   -1.0726 H   0  0  0  0  0  0  0  0  0  0  0  0
   -1.1371   -2.6252    0.1170 C   0  0  0  0  0  0  0  0  0  0  0  0
   -0.2399   -3.2310    0.6732 O   0  0  0  0  0  0  0  0  0  0  0  0
   -0.9194   -1.3638   -0.4018 N   0  0  0  0  0  0  0  0  0  0  0  0
   -1.6762   -0.9608   -0.9454 H   0  0  0  0  0  0  0  0  0  0  0  0
    0.3969   -0.6944   -0.4560 C   0  0  1  0  0  0  0  0  0  0  0  0
    1.0989   -1.3238   -1.0132 H   0  0  0  0  0  0  0  0  0  0  0  0
    0.1987    0.6560   -1.2051 C   0  0  1  0  0  0  0  0  0  0  0  0
   -0.5124    1.2689   -0.6405 H   0  0  0  0  0  0  0  0  0  0  0  0
    1.5306    1.4313   -1.2721 C   0  0  0  0  0  0  0  0  0  0  0  0
    2.3036    0.8268   -1.7574 H   0  0  0  0  0  0  0  0  0  0  0  0
    1.4116    2.3616   -1.8359 H   0  0  0  0  0  0  0  0  0  0  0  0
    1.8801    1.7042   -0.2720 H   0  0  0  0  0  0  0  0  0  0  0  0
   -0.3337    0.5168   -2.6619 C   0  0  0  0  0  0  0  0  0  0  0  0
   -1.4273    0.5432   -2.6251 H   0  0  0  0  0  0  0  0  0  0  0  0
   -0.0219    1.3807   -3.2580 H   0  0  0  0  0  0  0  0  0  0  0  0
    0.0681   -0.7627   -3.4089 C   0  0  0  0  0  0  0  0  0  0  0  0
   -0.3720   -1.6536   -2.9540 H   0  0  0  0  0  0  0  0  0  0  0  0
   -0.2805   -0.7089   -4.4446 H   0  0  0  0  0  0  0  0  0  0  0  0
    1.1570   -0.8720   -3.4193 H   0  0  0  0  0  0  0  0  0  0  0  0
    1.0251   -0.4970    0.9455 C   0  0  0  0  0  0  0  0  0  0  0  0
    2.2354   -0.6012    1.0992 O   0  0  0  0  0  0  0  0  0  0  0  0
    0.2513   -0.0279    1.9919 N   0  0  0  0  0  0  0  0  0  0  0  0
   -0.7529   -0.0631    1.8547 H   0  0  0  0  0  0  0  0  0  0  0  0
    0.7707    0.1417    3.3427 C   0  0  0  0  0  0  0  0  0  0  0  0
    1.6091    0.8462    3.3455 H   0  0  0  0  0  0  0  0  0  0  0  0
   -0.0096    0.5336    4.0018 H   0  0  0  0  0  0  0  0  0  0  0  0
    1.1149   -0.8179    3.7428 H   0  0  0  0  0  0  0  0  0  0  0  0
  1  2  1  0  0  0  0
  2  3  1  0  0  0  0
  2  4  1  0  0  0  0
  2  5  1  0  0  0  0
  5  6  2  0  0  0  0
  5  7  1  0  0  0  0
  7  8  1  0  0  0  0
  7  9  1  0  0  0  0
  9 10  1  0  0  0  0
  9 11  1  0  0  0  0
  9 24  1  0  0  0  0
 11 12  1  0  0  0  0
 11 13  1  0  0  0  0
 11 17  1  0  0  0  0
 13 14  1  0  0  0  0
 13 15  1  0  0  0  0
 13 16  1  0  0  0  0
 17 18  1  0  0  0  0
 17 19  1  0  0  0  0
 17 20  1  0  0  0  0
 20 21  1  0  0  0  0
 20 22  1  0  0  0  0
 20 23  1  0  0  0  0
 24 25  2  0  0  0  0
 24 26  1  0  0  0  0
 26 27  1  0  0  0  0
 26 28  1  0  0  0  0
 28 29  1  0  0  0  0
 28 30  1  0  0  0  0
 28 31  1  0  0  0  0
M  END
$$$$

  -OEChem-03222214053D

 31 30  0     1  0  0  0  0  0999 V2000
   -2.4721   -4.2927    0.4528 H   0  0  0  0  0  0  0  0  0  0  0  0
   -2.4961   -3.2819    0.0354 C   0  0  0  0  0  0  0  0  0  0  0  0
   -3.2317   -2.6914    0.5866 H   0  0  0  0  0  0  0  0  0  0  0  0
   -2.7972   -3.3431   -1.0132 H   0  0  0  0  0  0  0  0  0  0  0  0
   -1.1262   -2.6397    0.1464 C   0  0  0  0  0  0  0  0  0  0  0  0
   -0.2199   -3.2418    0.6918 O   0  0  0  0  0  0  0  0  0  0  0  0
   -0.9178   -1.3806   -0.3821 N   0  0  0  0  0  0  0  0  0  0  0  0
   -1.6836   -0.9776   -0.9133 H   0  0  0  0  0  0  0  0  0  0  0  0
    0.3935   -0.7038   -0.4478 C   0  0  1  0  0  0  0  0  0  0  0  0
    1.0943   -1.3376   -1.0016 H   0  0  0  0  0  0  0  0  0  0  0  0
    0.2038    0.6396   -1.2156 C   0  0  1  0  0  0  0  0  0  0  0  0
   -0.5132    1.2487   -0.6546 H   0  0  0  0  0  0  0  0  0  0  0  0
    1.5317    1.4241   -1.2614 C   0  0  0  0  0  0  0  0  0  0  0  0
    2.3134    0.8276   -1.7431 H   0  0  0  0  0  0  0  0  0  0  0  0
    1.4119    2.3582   -1.8191 H   0  0  0  0  0  0  0  0  0  0  0  0
    1.8694    1.6935   -0.2564 H   0  0  0  0  0  0  0  0  0  0  0  0
   -0.3212    0.5226   -2.6833 C   0  0  0  0  0  0  0  0  0  0  0  0
   -1.3689    0.8401   -2.6880 H   0  0  0  0  0  0  0  0  0  0  0  0
    0.2160    1.2252   -3.3288 H   0  0  0  0  0  0  0  0  0  0  0  0
   -0.2611   -0.8581   -3.3530 C   0  0  0  0  0  0  0  0  0  0  0  0
   -0.9585   -1.5644   -2.8980 H   0  0  0  0  0  0  0  0  0  0  0  0
   -0.5316   -0.7633   -4.4091 H   0  0  0  0  0  0  0  0  0  0  0  0
    0.7521   -1.2682   -3.2987 H   0  0  0  0  0  0  0  0  0  0  0  0
    1.0216   -0.4958    0.9526 C   0  0  0  0  0  0  0  0  0  0  0  0
    2.2317   -0.5984    1.1087 O   0  0  0  0  0  0  0  0  0  0  0  0
    0.2450   -0.0258    1.9966 N   0  0  0  0  0  0  0  0  0  0  0  0
   -0.7588   -0.0615    1.8574 H   0  0  0  0  0  0  0  0  0  0  0  0
    0.7615    0.1481    3.3479 C   0  0  0  0  0  0  0  0  0  0  0  0
    1.6030    0.8490    3.3504 H   0  0  0  0  0  0  0  0  0  0  0  0
   -0.0194    0.5462    4.0027 H   0  0  0  0  0  0  0  0  0  0  0  0
    1.1007   -0.8111    3.7533 H   0  0  0  0  0  0  0  0  0  0  0  0
  1  2  1  0  0  0  0
  2  3  1  0  0  0  0
  2  4  1  0  0  0  0
  2  5  1  0  0  0  0
  5  6  2  0  0  0  0
  5  7  1  0  0  0  0
  7  8  1  0  0  0  0
  7  9  1  0  0  0  0
  9 10  1  0  0  0  0
  9 11  1  0  0  0  0
  9 24  1  0  0  0  0
 11 12  1  0  0  0  0
 11 13  1  0  0  0  0
 11 17  1  0  0  0  0
 13 14  1  0  0  0  0
 13 15  1  0  0  0  0
 13 16  1  0  0  0  0
 17 18  1  0  0  0  0
 17 19  1  0  0  0  0
 17 20  1  0  0  0  0
 20 21  1  0  0  0  0
 20 22  1  0  0  0  0
 20 23  1  0  0  0  0
 24 25  2  0  0  0  0
 24 26  1  0  0  0  0
 26 27  1  0  0  0  0
 26 28  1  0  0  0  0
 28 29  1  0  0  0  0
 28 30  1  0  0  0  0
 28 31  1  0  0  0  0
M  END
$$$$

  -OEChem-03222214053D

 31 30  0     1  0  0  0  0  0999 V2000
   -2.4630   -4.3093    0.5037 H   0  0  0  0  0  0  0  0  0  0  0  0
   -2.4928   -3.3015    0.0796 C   0  0  0  0  0  0  0  0  0  0  0  0
   -3.2212   -2.7070    0.6361 H   0  0  0  0  0  0  0  0  0  0  0  0
   -2.8080   -3.3701   -0.9644 H   0  0  0  0  0  0  0  0  0  0  0  0
   -1.1214   -2.6583    0.1679 C   0  0  0  0  0  0  0  0  0  0  0  0
   -0.2053   -3.2588    0.6987 O   0  0  0  0  0  0  0  0  0  0  0  0
   -0.9236   -1.3995   -0.3651 N   0  0  0  0  0  0  0  0  0  0  0  0
   -1.7003   -0.9957   -0.8794 H   0  0  0  0  0  0  0  0  0  0  0  0
    0.3822   -0.7144   -0.4445 C   0  0  1  0  0  0  0  0  0  0  0  0
    1.0813   -1.3501   -0.9988 H   0  0  0  0  0  0  0  0  0  0  0  0
    0.2060    0.6256   -1.2244 C   0  0  1  0  0  0  0  0  0  0  0  0
   -0.5259    1.2209   -0.6676 H   0  0  0  0  0  0  0  0  0  0  0  0
    1.5201    1.4332   -1.2457 C   0  0  0  0  0  0  0  0  0  0  0  0
    2.3248    0.8437   -1.6970 H   0  0  0  0  0  0  0  0  0  0  0  0
    1.3965    2.3553   -1.8225 H   0  0  0  0  0  0  0  0  0  0  0  0
    1.8255    1.7237   -0.2362 H   0  0  0  0  0  0  0  0  0  0  0  0
   -0.3133    0.5274   -2.6982 C   0  0  0  0  0  0  0  0  0  0  0  0
   -1.2245    1.1292   -2.7773 H   0  0  0  0  0  0  0  0  0  0  0  0
    0.4210    0.9868   -3.3685 H   0  0  0  0  0  0  0  0  0  0  0  0
   -0.6134   -0.8598   -3.2825 C   0  0  0  0  0  0  0  0  0  0  0  0
   -1.5065   -1.2991   -2.8318 H   0  0  0  0  0  0  0  0  0  0  0  0
   -0.7990   -0.7693   -4.3572 H   0  0  0  0  0  0  0  0  0  0  0  0
    0.2351   -1.5362   -3.1433 H   0  0  0  0  0  0  0  0  0  0  0  0
    1.0188   -0.5002    0.9513 C   0  0  0  0  0  0  0  0  0  0  0  0
    2.2308   -0.5943    1.0987 O   0  0  0  0  0  0  0  0  0  0  0  0
    0.2470   -0.0336    2.0006 N   0  0  0  0  0  0  0  0  0  0  0  0
   -0.7578   -0.0743    1.8695 H   0  0  0  0  0  0  0  0  0  0  0  0
    0.7744    0.1524    3.3462 C   0  0  0  0  0  0  0  0  0  0  0  0
    1.6129    0.8567    3.3357 H   0  0  0  0  0  0  0  0  0  0  0  0
   -0.0015    0.5524    4.0058 H   0  0  0  0  0  0  0  0  0  0  0  0
    1.1213   -0.8026    3.7549 H   0  0  0  0  0  0  0  0  0  0  0  0
  1  2  1  0  0  0  0
  2  3  1  0  0  0  0
  2  4  1  0  0  0  0
  2  5  1  0  0  0  0
  5  6  2  0  0  0  0
  5  7  1  0  0  0  0
  7  8  1  0  0  0  0
  7  9  1  0  0  0  0
  9 10  1  0  0  0  0
  9 11  1  0  0  0  0
  9 24  1  0  0  0  0
 11 12  1  0  0  0  0
 11 13  1  0  0  0  0
 11 17  1  0  0  0  0
 13 14  1  0  0  0  0
 13 15  1  0  0  0  0
 13 16  1  0  0  0  0
 17 18  1  0  0  0  0
 17 19  1  0  0  0  0
 17 20  1  0  0  0  0
 20 21  1  0  0  0  0
 20 22  1  0  0  0  0
 20 23  1  0  0  0  0
 24 25  2  0  0  0  0
 24 26  1  0  0  0  0
 26 27  1  0  0  0  0
 26 28  1  0  0  0  0
 28 29  1  0  0  0  0
 28 30  1  0  0  0  0
 28 31  1  0  0  0  0
M  END
$$$$

  -OEChem-03222214053D

 31 30  0     1  0  0  0  0  0999 V2000
   -2.4577   -4.3256    0.5396 H   0  0  0  0  0  0  0  0  0  0  0  0
   -2.4940   -3.3210    0.1082 C   0  0  0  0  0  0  0  0  0  0  0  0
   -3.2208   -2.7256    0.6656 H   0  0  0  0  0  0  0  0  0  0  0  0
   -2.8157   -3.3981   -0.9332 H   0  0  0  0  0  0  0  0  0  0  0  0
   -1.1246   -2.6724    0.1815 C   0  0  0  0  0  0  0  0  0  0  0  0
   -0.1996   -3.2704    0.6994 O   0  0  0  0  0  0  0  0  0  0  0  0
   -0.9375   -1.4119   -0.3516 N   0  0  0  0  0  0  0  0  0  0  0  0
   -1.7244   -1.0054   -0.8477 H   0  0  0  0  0  0  0  0  0  0  0  0
    0.3638   -0.7199   -0.4433 C   0  0  1  0  0  0  0  0  0  0  0  0
    1.0546   -1.3598   -1.0037 H   0  0  0  0  0  0  0  0  0  0  0  0
    0.2037    0.6196   -1.2302 C   0  0  1  0  0  0  0  0  0  0  0  0
   -0.5390    1.2061   -0.6782 H   0  0  0  0  0  0  0  0  0  0  0  0
    1.5095    1.4391   -1.2384 C   0  0  0  0  0  0  0  0  0  0  0  0
    2.3325    0.8466   -1.6516 H   0  0  0  0  0  0  0  0  0  0  0  0
    1.3919    2.3430   -1.8447 H   0  0  0  0  0  0  0  0  0  0  0  0
    1.7832    1.7579   -0.2281 H   0  0  0  0  0  0  0  0  0  0  0  0
   -0.3084    0.5368   -2.7054 C   0  0  0  0  0  0  0  0  0  0  0  0
   -1.0159    1.3563   -2.8682 H   0  0  0  0  0  0  0  0  0  0  0  0
    0.5403    0.7154   -3.3747 H   0  0  0  0  0  0  0  0  0  0  0  0
   -0.9534   -0.7635   -3.1991 C   0  0  0  0  0  0  0  0  0  0  0  0
   -1.9119   -0.9381   -2.7035 H   0  0  0  0  0  0  0  0  0  0  0  0
   -1.1438   -0.6922   -4.2745 H   0  0  0  0  0  0  0  0  0  0  0  0
   -0.2923   -1.6191   -3.0299 H   0  0  0  0  0  0  0  0  0  0  0  0
    1.0144   -0.5036    0.9453 C   0  0  0  0  0  0  0  0  0  0  0  0
    2.2286   -0.5895    1.0799 O   0  0  0  0  0  0  0  0  0  0  0  0
    0.2511   -0.0419    2.0027 N   0  0  0  0  0  0  0  0  0  0  0  0
   -0.7548   -0.0858    1.8820 H   0  0  0  0  0  0  0  0  0  0  0  0
    0.7923    0.1511    3.3418 C   0  0  0  0  0  0  0  0  0  0  0  0
    1.6219    0.8658    3.3208 H   0  0  0  0  0  0  0  0  0  0  0  0
    0.0189    0.5418    4.0098 H   0  0  0  0  0  0  0  0  0  0  0  0
    1.1556   -0.7991    3.7472 H   0  0  0  0  0  0  0  0  0  0  0  0
  1  2  1  0  0  0  0
  2  3  1  0  0  0  0
  2  4  1  0  0  0  0
  2  5  1  0  0  0  0
  5  6  2  0  0  0  0
  5  7  1  0  0  0  0
  7  8  1  0  0  0  0
  7  9  1  0  0  0  0
  9 10  1  0  0  0  0
  9 11  1  0  0  0  0
  9 24  1  0  0  0  0
 11 12  1  0  0  0  0
 11 13  1  0  0  0  0
 11 17  1  0  0  0  0
 13 14  1  0  0  0  0
 13 15  1  0  0  0  0
 13 16  1  0  0  0  0
 17 18  1  0  0  0  0
 17 19  1  0  0  0  0
 17 20  1  0  0  0  0
 20 21  1  0  0  0  0
 20 22  1  0  0  0  0
 20 23  1  0  0  0  0
 24 25  2  0  0  0  0
 24 26  1  0  0  0  0
 26 27  1  0  0  0  0
 26 28  1  0  0  0  0
 28 29  1  0  0  0  0
 28 30  1  0  0  0  0
 28 31  1  0  0  0  0
M  END
$$$$

  -OEChem-03222214053D

 31 30  0     1  0  0  0  0  0999 V2000
   -2.4447   -4.3364    0.5524 H   0  0  0  0  0  0  0  0  0  0  0  0
   -2.4887   -3.3293    0.1277 C   0  0  0  0  0  0  0  0  0  0  0  0
   -3.2075   -2.7373    0.6992 H   0  0  0  0  0  0  0  0  0  0  0  0
   -2.8262   -3.4009   -0.9090 H   0  0  0  0  0  0  0  0  0  0  0  0
   -1.1188   -2.6794    0.1839 C   0  0  0  0  0  0  0  0  0  0  0  0
   -0.1850   -3.2779    0.6851 O   0  0  0  0  0  0  0  0  0  0  0  0
   -0.9426   -1.4166   -0.3469 N   0  0  0  0  0  0  0  0  0  0  0  0
   -1.7395   -1.0074   -0.8238 H   0  0  0  0  0  0  0  0  0  0  0  0
    0.3524   -0.7149   -0.4451 C   0  0  1  0  0  0  0  0  0  0  0  0
    1.0416   -1.3529   -1.0096 H   0  0  0  0  0  0  0  0  0  0  0  0
    0.1963    0.6257   -1.2323 C   0  0  1  0  0  0  0  0  0  0  0  0
   -0.5432    1.2161   -0.6807 H   0  0  0  0  0  0  0  0  0  0  0  0
    1.5072    1.4351   -1.2531 C   0  0  0  0  0  0  0  0  0  0  0  0
    2.3257    0.8306   -1.6575 H   0  0  0  0  0  0  0  0  0  0  0  0
    1.3965    2.3300   -1.8736 H   0  0  0  0  0  0  0  0  0  0  0  0
    1.7832    1.7656   -0.2472 H   0  0  0  0  0  0  0  0  0  0  0  0
   -0.3121    0.5471   -2.7054 C   0  0  0  0  0  0  0  0  0  0  0  0
   -0.7992    1.4977   -2.9464 H   0  0  0  0  0  0  0  0  0  0  0  0
    0.5607    0.4592   -3.3619 H   0  0  0  0  0  0  0  0  0  0  0  0
   -1.2560   -0.5891   -3.1089 C   0  0  0  0  0  0  0  0  0  0  0  0
   -2.1844   -0.5470   -2.5326 H   0  0  0  0  0  0  0  0  0  0  0  0
   -1.5131   -0.4926   -4.1683 H   0  0  0  0  0  0  0  0  0  0  0  0
   -0.7786   -1.5636   -2.9677 H   0  0  0  0  0  0  0  0  0  0  0  0
    1.0076   -0.4982    0.9416 C   0  0  0  0  0  0  0  0  0  0  0  0
    2.2225   -0.5791    1.0722 O   0  0  0  0  0  0  0  0  0  0  0  0
    0.2450   -0.0454    2.0035 N   0  0  0  0  0  0  0  0  0  0  0  0
   -0.7610   -0.0946    1.8853 H   0  0  0  0  0  0  0  0  0  0  0  0
    0.7877    0.1409    3.3428 C   0  0  0  0  0  0  0  0  0  0  0  0
    1.6184    0.8542    3.3246 H   0  0  0  0  0  0  0  0  0  0  0  0
    0.0158    0.5304    4.0131 H   0  0  0  0  0  0  0  0  0  0  0  0
    1.1495   -0.8118    3.7435 H   0  0  0  0  0  0  0  0  0  0  0  0
  1  2  1  0  0  0  0
  2  3  1  0  0  0  0
  2  4  1  0  0  0  0
  2  5  1  0  0  0  0
  5  6  2  0  0  0  0
  5  7  1  0  0  0  0
  7  8  1  0  0  0  0
  7  9  1  0  0  0  0
  9 10  1  0  0  0  0
  9 11  1  0  0  0  0
  9 24  1  0  0  0  0
 11 12  1  0  0  0  0
 11 13  1  0  0  0  0
 11 17  1  0  0  0  0
 13 14  1  0  0  0  0
 13 15  1  0  0  0  0
 13 16  1  0  0  0  0
 17 18  1  0  0  0  0
 17 19  1  0  0  0  0
 17 20  1  0  0  0  0
 20 21  1  0  0  0  0
 20 22  1  0  0  0  0
 20 23  1  0  0  0  0
 24 25  2  0  0  0  0
 24 26  1  0  0  0  0
 26 27  1  0  0  0  0
 26 28  1  0  0  0  0
 28 29  1  0  0  0  0
 28 30  1  0  0  0  0
 28 31  1  0  0  0  0
M  END
$$$$

  -OEChem-03222214053D

 31 30  0     1  0  0  0  0  0999 V2000
   -2.4393   -4.3404    0.5376 H   0  0  0  0  0  0  0  0  0  0  0  0
   -2.4865   -3.3331    0.1138 C   0  0  0  0  0  0  0  0  0  0  0  0
   -3.2115   -2.7463    0.6829 H   0  0  0  0  0  0  0  0  0  0  0  0
   -2.8189   -3.4049   -0.9246 H   0  0  0  0  0  0  0  0  0  0  0  0
   -1.1206   -2.6758    0.1770 C   0  0  0  0  0  0  0  0  0  0  0  0
   -0.1860   -3.2708    0.6810 O   0  0  0  0  0  0  0  0  0  0  0  0
   -0.9490   -1.4106   -0.3499 N   0  0  0  0  0  0  0  0  0  0  0  0
   -1.7453   -1.0072   -0.8330 H   0  0  0  0  0  0  0  0  0  0  0  0
    0.3435   -0.7056   -0.4488 C   0  0  1  0  0  0  0  0  0  0  0  0
    1.0316   -1.3412   -1.0173 H   0  0  0  0  0  0  0  0  0  0  0  0
    0.1887    0.6394   -1.2291 C   0  0  1  0  0  0  0  0  0  0  0  0
   -0.5390    1.2423   -0.6750 H   0  0  0  0  0  0  0  0  0  0  0  0
    1.5126    1.4267   -1.2689 C   0  0  0  0  0  0  0  0  0  0  0  0
    2.3166    0.8066   -1.6792 H   0  0  0  0  0  0  0  0  0  0  0  0
    1.4120    2.3208   -1.8922 H   0  0  0  0  0  0  0  0  0  0  0  0
    1.8050    1.7575   -0.2676 H   0  0  0  0  0  0  0  0  0  0  0  0
   -0.3214    0.5532   -2.6978 C   0  0  0  0  0  0  0  0  0  0  0  0
   -0.5861    1.5659   -3.0201 H   0  0  0  0  0  0  0  0  0  0  0  0
    0.5072    0.2183   -3.3314 H   0  0  0  0  0  0  0  0  0  0  0  0
   -1.5137   -0.3572   -3.0042 C   0  0  0  0  0  0  0  0  0  0  0  0
   -2.3558   -0.1274   -2.3449 H   0  0  0  0  0  0  0  0  0  0  0  0
   -1.8385   -0.2005   -4.0375 H   0  0  0  0  0  0  0  0  0  0  0  0
   -1.2397   -1.4109   -2.8994 H   0  0  0  0  0  0  0  0  0  0  0  0
    1.0013   -0.4927    0.9374 C   0  0  0  0  0  0  0  0  0  0  0  0
    2.2165   -0.5730    1.0654 O   0  0  0  0  0  0  0  0  0  0  0  0
    0.2403   -0.0459    2.0028 N   0  0  0  0  0  0  0  0  0  0  0  0
   -0.7658   -0.0951    1.8865 H   0  0  0  0  0  0  0  0  0  0  0  0
    0.7867    0.1388    3.3409 C   0  0  0  0  0  0  0  0  0  0  0  0
    1.6117    0.8587    3.3223 H   0  0  0  0  0  0  0  0  0  0  0  0
    0.0143    0.5186    4.0161 H   0  0  0  0  0  0  0  0  0  0  0  0
    1.1583   -0.8126    3.7359 H   0  0  0  0  0  0  0  0  0  0  0  0
  1  2  1  0  0  0  0
  2  3  1  0  0  0  0
  2  4  1  0  0  0  0
  2  5  1  0  0  0  0
  5  6  2  0  0  0  0
  5  7  1  0  0  0  0
  7  8  1  0  0  0  0
  7  9  1  0  0  0  0
  9 10  1  0  0  0  0
  9 11  1  0  0  0  0
  9 24  1  0  0  0  0
 11 12  1  0  0  0  0
 11 13  1  0  0  0  0
 11 17  1  0  0  0  0
 13 14  1  0  0  0  0
 13 15  1  0  0  0  0
 13 16  1  0  0  0  0
 17 18  1  0  0  0  0
 17 19  1  0  0  0  0
 17 20  1  0  0  0  0
 20 21  1  0  0  0  0
 20 22  1  0  0  0  0
 20 23  1  0  0  0  0
 24 25  2  0  0  0  0
 24 26  1  0  0  0  0
 26 27  1  0  0  0  0
 26 28  1  0  0  0  0
 28 29  1  0  0  0  0
 28 30  1  0  0  0  0
 28 31  1  0  0  0  0
M  END
$$$$

  -OEChem-03222214053D

 31 30  0     1  0  0  0  0  0999 V2000
   -2.4424   -4.3235    0.5089 H   0  0  0  0  0  0  0  0  0  0  0  0
   -2.4887   -3.3140    0.0901 C   0  0  0  0  0  0  0  0  0  0  0  0
   -3.2099   -2.7275    0.6641 H   0  0  0  0  0  0  0  0  0  0  0  0
   -2.8247   -3.3804   -0.9474 H   0  0  0  0  0  0  0  0  0  0  0  0
   -1.1210   -2.6605    0.1520 C   0  0  0  0  0  0  0  0  0  0  0  0
   -0.1866   -3.2603    0.6504 O   0  0  0  0  0  0  0  0  0  0  0  0
   -0.9477   -1.3922   -0.3666 N   0  0  0  0  0  0  0  0  0  0  0  0
   -1.7450   -0.9810   -0.8417 H   0  0  0  0  0  0  0  0  0  0  0  0
    0.3446   -0.6875   -0.4576 C   0  0  1  0  0  0  0  0  0  0  0  0
    1.0343   -1.3189   -1.0291 H   0  0  0  0  0  0  0  0  0  0  0  0
    0.1829    0.6609   -1.2281 C   0  0  1  0  0  0  0  0  0  0  0  0
   -0.5332    1.2765   -0.6731 H   0  0  0  0  0  0  0  0  0  0  0  0
    1.5175    1.4297   -1.2875 C   0  0  0  0  0  0  0  0  0  0  0  0
    2.3018    0.8051   -1.7273 H   0  0  0  0  0  0  0  0  0  0  0  0
    1.4171    2.3364   -1.8919 H   0  0  0  0  0  0  0  0  0  0  0  0
    1.8389    1.7394   -0.2886 H   0  0  0  0  0  0  0  0  0  0  0  0
   -0.3303    0.5457   -2.6914 C   0  0  0  0  0  0  0  0  0  0  0  0
   -0.3823    1.5561   -3.1107 H   0  0  0  0  0  0  0  0  0  0  0  0
    0.4030   -0.0137   -3.2822 H   0  0  0  0  0  0  0  0  0  0  0  0
   -1.7052   -0.0963   -2.9028 C   0  0  0  0  0  0  0  0  0  0  0  0
   -2.4332    0.3059   -2.1915 H   0  0  0  0  0  0  0  0  0  0  0  0
   -2.0591    0.1199   -3.9157 H   0  0  0  0  0  0  0  0  0  0  0  0
   -1.6529   -1.1834   -2.7991 H   0  0  0  0  0  0  0  0  0  0  0  0
    0.9993   -0.4829    0.9313 C   0  0  0  0  0  0  0  0  0  0  0  0
    2.2138   -0.5685    1.0623 O   0  0  0  0  0  0  0  0  0  0  0  0
    0.2370   -0.0421    1.9983 N   0  0  0  0  0  0  0  0  0  0  0  0
   -0.7689   -0.0876    1.8790 H   0  0  0  0  0  0  0  0  0  0  0  0
    0.7801    0.1240    3.3403 C   0  0  0  0  0  0  0  0  0  0  0  0
    1.6090    0.8397    3.3329 H   0  0  0  0  0  0  0  0  0  0  0  0
    0.0074    0.5000    4.0172 H   0  0  0  0  0  0  0  0  0  0  0  0
    1.1454   -0.8337    3.7259 H   0  0  0  0  0  0  0  0  0  0  0  0
  1  2  1  0  0  0  0
  2  3  1  0  0  0  0
  2  4  1  0  0  0  0
  2  5  1  0  0  0  0
  5  6  2  0  0  0  0
  5  7  1  0  0  0  0
  7  8  1  0  0  0  0
  7  9  1  0  0  0  0
  9 10  1  0  0  0  0
  9 11  1  0  0  0  0
  9 24  1  0  0  0  0
 11 12  1  0  0  0  0
 11 13  1  0  0  0  0
 11 17  1  0  0  0  0
 13 14  1  0  0  0  0
 13 15  1  0  0  0  0
 13 16  1  0  0  0  0
 17 18  1  0  0  0  0
 17 19  1  0  0  0  0
 17 20  1  0  0  0  0
 20 21  1  0  0  0  0
 20 22  1  0  0  0  0
 20 23  1  0  0  0  0
 24 25  2  0  0  0  0
 24 26  1  0  0  0  0
 26 27  1  0  0  0  0
 26 28  1  0  0  0  0
 28 29  1  0  0  0  0
 28 30  1  0  0  0  0
 28 31  1  0  0  0  0
M  END
$$$$

  -OEChem-03222214053D

 31 30  0     1  0  0  0  0  0999 V2000
   -2.4548   -4.2976    0.4654 H   0  0  0  0  0  0  0  0  0  0  0  0
   -2.4954   -3.2826    0.0597 C   0  0  0  0  0  0  0  0  0  0  0  0
   -3.2053   -2.6967    0.6482 H   0  0  0  0  0  0  0  0  0  0  0  0
   -2.8418   -3.3323   -0.9753 H   0  0  0  0  0  0  0  0  0  0  0  0
   -1.1211   -2.6428    0.1173 C   0  0  0  0  0  0  0  0  0  0  0  0
   -0.1893   -3.2535    0.6073 O   0  0  0  0  0  0  0  0  0  0  0  0
   -0.9399   -1.3718   -0.3916 N   0  0  0  0  0  0  0  0  0  0  0  0
   -1.7387   -0.9438   -0.8487 H   0  0  0  0  0  0  0  0  0  0  0  0
    0.3547   -0.6704   -0.4691 C   0  0  1  0  0  0  0  0  0  0  0  0
    1.0472   -1.2966   -1.0430 H   0  0  0  0  0  0  0  0  0  0  0  0
    0.1826    0.6817   -1.2268 C   0  0  1  0  0  0  0  0  0  0  0  0
   -0.5257    1.3054   -0.6707 H   0  0  0  0  0  0  0  0  0  0  0  0
    1.5220    1.4416   -1.2989 C   0  0  0  0  0  0  0  0  0  0  0  0
    2.2916    0.8195   -1.7671 H   0  0  0  0  0  0  0  0  0  0  0  0
    1.4167    2.3614   -1.8823 H   0  0  0  0  0  0  0  0  0  0  0  0
    1.8669    1.7302   -0.3016 H   0  0  0  0  0  0  0  0  0  0  0  0
   -0.3339    0.5273   -2.6837 C   0  0  0  0  0  0  0  0  0  0  0  0
   -0.1779    1.4760   -3.2081 H   0  0  0  0  0  0  0  0  0  0  0  0
    0.2590   -0.2312   -3.2059 H   0  0  0  0  0  0  0  0  0  0  0  0
   -1.8232    0.1913   -2.8254 C   0  0  0  0  0  0  0  0  0  0  0  0
   -2.4233    0.7914   -2.1346 H   0  0  0  0  0  0  0  0  0  0  0  0
   -2.1519    0.4107   -3.8460 H   0  0  0  0  0  0  0  0  0  0  0  0
   -2.0118   -0.8692   -2.6421 H   0  0  0  0  0  0  0  0  0  0  0  0
    1.0020   -0.4760    0.9242 C   0  0  0  0  0  0  0  0  0  0  0  0
    2.2154   -0.5657    1.0611 O   0  0  0  0  0  0  0  0  0  0  0  0
    0.2344   -0.0396    1.9893 N   0  0  0  0  0  0  0  0  0  0  0  0
   -0.7709   -0.0855    1.8646 H   0  0  0  0  0  0  0  0  0  0  0  0
    0.7697    0.1109    3.3363 C   0  0  0  0  0  0  0  0  0  0  0  0
    1.6020    0.8227    3.3416 H   0  0  0  0  0  0  0  0  0  0  0  0
   -0.0056    0.4836    4.0123 H   0  0  0  0  0  0  0  0  0  0  0  0
    1.1281   -0.8525    3.7143 H   0  0  0  0  0  0  0  0  0  0  0  0
  1  2  1  0  0  0  0
  2  3  1  0  0  0  0
  2  4  1  0  0  0  0
  2  5  1  0  0  0  0
  5  6  2  0  0  0  0
  5  7  1  0  0  0  0
  7  8  1  0  0  0  0
  7  9  1  0  0  0  0
  9 10  1  0  0  0  0
  9 11  1  0  0  0  0
  9 24  1  0  0  0  0
 11 12  1  0  0  0  0
 11 13  1  0  0  0  0
 11 17  1  0  0  0  0
 13 14  1  0  0  0  0
 13 15  1  0  0  0  0
 13 16  1  0  0  0  0
 17 18  1  0  0  0  0
 17 19  1  0  0  0  0
 17 20  1  0  0  0  0
 20 21  1  0  0  0  0
 20 22  1  0  0  0  0
 20 23  1  0  0  0  0
 24 25  2  0  0  0  0
 24 26  1  0  0  0  0
 26 27  1  0  0  0  0
 26 28  1  0  0  0  0
 28 29  1  0  0  0  0
 28 30  1  0  0  0  0
 28 31  1  0  0  0  0
M  END
$$$$

  -OEChem-03222214053D

 31 30  0     1  0  0  0  0  0999 V2000
   -2.4714   -4.2759    0.4255 H   0  0  0  0  0  0  0  0  0  0  0  0
   -2.5046   -3.2591    0.0237 C   0  0  0  0  0  0  0  0  0  0  0  0
   -3.2091   -2.6700    0.6156 H   0  0  0  0  0  0  0  0  0  0  0  0
   -2.8535   -3.3024   -1.0108 H   0  0  0  0  0  0  0  0  0  0  0  0
   -1.1246   -2.6310    0.0804 C   0  0  0  0  0  0  0  0  0  0  0  0
   -0.1940   -3.2556    0.5551 O   0  0  0  0  0  0  0  0  0  0  0  0
   -0.9349   -1.3561   -0.4155 N   0  0  0  0  0  0  0  0  0  0  0  0
   -1.7361   -0.9074   -0.8468 H   0  0  0  0  0  0  0  0  0  0  0  0
    0.3637   -0.6601   -0.4780 C   0  0  1  0  0  0  0  0  0  0  0  0
    1.0587   -1.2808   -1.0549 H   0  0  0  0  0  0  0  0  0  0  0  0
    0.1844    0.6958   -1.2235 C   0  0  1  0  0  0  0  0  0  0  0  0
   -0.5235    1.3184   -0.6659 H   0  0  0  0  0  0  0  0  0  0  0  0
    1.5202    1.4615   -1.2949 C   0  0  0  0  0  0  0  0  0  0  0  0
    2.2880    0.8519   -1.7826 H   0  0  0  0  0  0  0  0  0  0  0  0
    1.4032    2.3918   -1.8594 H   0  0  0  0  0  0  0  0  0  0  0  0
    1.8739    1.7330   -0.2958 H   0  0  0  0  0  0  0  0  0  0  0  0
   -0.3330    0.5093   -2.6761 C   0  0  0  0  0  0  0  0  0  0  0  0
    0.0337    1.3307   -3.3005 H   0  0  0  0  0  0  0  0  0  0  0  0
    0.0695   -0.4167   -3.1003 H   0  0  0  0  0  0  0  0  0  0  0  0
   -1.8618    0.5129   -2.7994 C   0  0  0  0  0  0  0  0  0  0  0  0
   -2.2854    1.3856   -2.2930 H   0  0  0  0  0  0  0  0  0  0  0  0
   -2.1439    0.5595   -3.8557 H   0  0  0  0  0  0  0  0  0  0  0  0
   -2.3051   -0.3913   -2.3783 H   0  0  0  0  0  0  0  0  0  0  0  0
    1.0069   -0.4791    0.9188 C   0  0  0  0  0  0  0  0  0  0  0  0
    2.2197   -0.5738    1.0586 O   0  0  0  0  0  0  0  0  0  0  0  0
    0.2382   -0.0474    1.9848 N   0  0  0  0  0  0  0  0  0  0  0  0
   -0.7669   -0.0783    1.8552 H   0  0  0  0  0  0  0  0  0  0  0  0
    0.7704    0.1002    3.3332 C   0  0  0  0  0  0  0  0  0  0  0  0
    1.5987    0.8166    3.3426 H   0  0  0  0  0  0  0  0  0  0  0  0
   -0.0081    0.4657    4.0093 H   0  0  0  0  0  0  0  0  0  0  0  0
    1.1333   -0.8629    3.7077 H   0  0  0  0  0  0  0  0  0  0  0  0
  1  2  1  0  0  0  0
  2  3  1  0  0  0  0
  2  4  1  0  0  0  0
  2  5  1  0  0  0  0
  5  6  2  0  0  0  0
  5  7  1  0  0  0  0
  7  8  1  0  0  0  0
  7  9  1  0  0  0  0
  9 10  1  0  0  0  0
  9 11  1  0  0  0  0
  9 24  1  0  0  0  0
 11 12  1  0  0  0  0
 11 13  1  0  0  0  0
 11 17  1  0  0  0  0
 13 14  1  0  0  0  0
 13 15  1  0  0  0  0
 13 16  1  0  0  0  0
 17 18  1  0  0  0  0
 17 19  1  0  0  0  0
 17 20  1  0  0  0  0
 20 21  1  0  0  0  0
 20 22  1  0  0  0  0
 20 23  1  0  0  0  0
 24 25  2  0  0  0  0
 24 26  1  0  0  0  0
 26 27  1  0  0  0  0
 26 28  1  0  0  0  0
 28 29  1  0  0  0  0
 28 30  1  0  0  0  0
 28 31  1  0  0  0  0
M  END
$$$$

  -OEChem-03222214053D

 31 30  0     1  0  0  0  0  0999 V2000
   -2.4924   -4.2641    0.3456 H   0  0  0  0  0  0  0  0  0  0  0  0
   -2.5158   -3.2431   -0.0464 C   0  0  0  0  0  0  0  0  0  0  0  0
   -3.2443   -2.6634    0.5254 H   0  0  0  0  0  0  0  0  0  0  0  0
   -2.8260   -3.2767   -1.0936 H   0  0  0  0  0  0  0  0  0  0  0  0
   -1.1419   -2.6095    0.0685 C   0  0  0  0  0  0  0  0  0  0  0  0
   -0.2332   -3.2267    0.5928 O   0  0  0  0  0  0  0  0  0  0  0  0
   -0.9335   -1.3381   -0.4286 N   0  0  0  0  0  0  0  0  0  0  0  0
   -1.7048   -0.9152   -0.9347 H   0  0  0  0  0  0  0  0  0  0  0  0
    0.3764   -0.6593   -0.4797 C   0  0  1  0  0  0  0  0  0  0  0  0
    1.0708   -1.2800   -1.0573 H   0  0  0  0  0  0  0  0  0  0  0  0
    0.1899    0.6973   -1.2158 C   0  0  1  0  0  0  0  0  0  0  0  0
   -0.5211    1.3120   -0.6525 H   0  0  0  0  0  0  0  0  0  0  0  0
    1.5156    1.4777   -1.2916 C   0  0  0  0  0  0  0  0  0  0  0  0
    2.2900    0.8755   -1.7779 H   0  0  0  0  0  0  0  0  0  0  0  0
    1.3837    2.4032   -1.8610 H   0  0  0  0  0  0  0  0  0  0  0  0
    1.8668    1.7560   -0.2935 H   0  0  0  0  0  0  0  0  0  0  0  0
   -0.3353    0.4834   -2.6611 C   0  0  0  0  0  0  0  0  0  0  0  0
    0.2191    1.1129   -3.3652 H   0  0  0  0  0  0  0  0  0  0  0  0
   -0.1762   -0.5534   -2.9759 H   0  0  0  0  0  0  0  0  0  0  0  0
   -1.8194    0.8384   -2.7905 C   0  0  0  0  0  0  0  0  0  0  0  0
   -1.9837    1.8880   -2.5274 H   0  0  0  0  0  0  0  0  0  0  0  0
   -2.1500    0.6860   -3.8225 H   0  0  0  0  0  0  0  0  0  0  0  0
   -2.4342    0.2141   -2.1373 H   0  0  0  0  0  0  0  0  0  0  0  0
    1.0174   -0.4795    0.9180 C   0  0  0  0  0  0  0  0  0  0  0  0
    2.2296   -0.5802    1.0583 O   0  0  0  0  0  0  0  0  0  0  0  0
    0.2514   -0.0328    1.9798 N   0  0  0  0  0  0  0  0  0  0  0  0
   -0.7539   -0.0655    1.8508 H   0  0  0  0  0  0  0  0  0  0  0  0
    0.7826    0.1084    3.3295 C   0  0  0  0  0  0  0  0  0  0  0  0
    1.6200    0.8141    3.3404 H   0  0  0  0  0  0  0  0  0  0  0  0
    0.0077    0.4840    4.0043 H   0  0  0  0  0  0  0  0  0  0  0  0
    1.1320   -0.8594    3.7048 H   0  0  0  0  0  0  0  0  0  0  0  0
  1  2  1  0  0  0  0
  2  3  1  0  0  0  0
  2  4  1  0  0  0  0
  2  5  1  0  0  0  0
  5  6  2  0  0  0  0
  5  7  1  0  0  0  0
  7  8  1  0  0  0  0
  7  9  1  0  0  0  0
  9 10  1  0  0  0  0
  9 11  1  0  0  0  0
  9 24  1  0  0  0  0
 11 12  1  0  0  0  0
 11 13  1  0  0  0  0
 11 17  1  0  0  0  0
 13 14  1  0  0  0  0
 13 15  1  0  0  0  0
 13 16  1  0  0  0  0
 17 18  1  0  0  0  0
 17 19  1  0  0  0  0
 17 20  1  0  0  0  0
 20 21  1  0  0  0  0
 20 22  1  0  0  0  0
 20 23  1  0  0  0  0
 24 25  2  0  0  0  0
 24 26  1  0  0  0  0
 26 27  1  0  0  0  0
 26 28  1  0  0  0  0
 28 29  1  0  0  0  0
 28 30  1  0  0  0  0
 28 31  1  0  0  0  0
M  END
$$$$

  -OEChem-03222214053D

 31 30  0     1  0  0  0  0  0999 V2000
   -2.5050   -4.2592    0.3404 H   0  0  0  0  0  0  0  0  0  0  0  0
   -2.5244   -3.2384   -0.0525 C   0  0  0  0  0  0  0  0  0  0  0  0
   -3.2518   -2.6554    0.5172 H   0  0  0  0  0  0  0  0  0  0  0  0
   -2.8329   -3.2718   -1.1001 H   0  0  0  0  0  0  0  0  0  0  0  0
   -1.1487   -2.6094    0.0639 C   0  0  0  0  0  0  0  0  0  0  0  0
   -0.2426   -3.2292    0.5896 O   0  0  0  0  0  0  0  0  0  0  0  0
   -0.9355   -1.3390   -0.4335 N   0  0  0  0  0  0  0  0  0  0  0  0
   -1.7049   -0.9120   -0.9404 H   0  0  0  0  0  0  0  0  0  0  0  0
    0.3787   -0.6655   -0.4812 C   0  0  1  0  0  0  0  0  0  0  0  0
    1.0709   -1.2873   -1.0600 H   0  0  0  0  0  0  0  0  0  0  0  0
    0.1925    0.6884   -1.2176 C   0  0  1  0  0  0  0  0  0  0  0  0
   -0.5291    1.2875   -0.6508 H   0  0  0  0  0  0  0  0  0  0  0  0
    1.5049    1.4903   -1.2837 C   0  0  0  0  0  0  0  0  0  0  0  0
    2.2967    0.8961   -1.7515 H   0  0  0  0  0  0  0  0  0  0  0  0
    1.3631    2.4055   -1.8673 H   0  0  0  0  0  0  0  0  0  0  0  0
    1.8368    1.7850   -0.2835 H   0  0  0  0  0  0  0  0  0  0  0  0
   -0.3315    0.4718   -2.6637 C   0  0  0  0  0  0  0  0  0  0  0  0
    0.3823    0.8696   -3.3932 H   0  0  0  0  0  0  0  0  0  0  0  0
   -0.4367   -0.5948   -2.8866 H   0  0  0  0  0  0  0  0  0  0  0  0
   -1.6797    1.1621   -2.8768 C   0  0  0  0  0  0  0  0  0  0  0  0
   -1.5877    2.2403   -2.7104 H   0  0  0  0  0  0  0  0  0  0  0  0
   -2.0267    0.9984   -3.9016 H   0  0  0  0  0  0  0  0  0  0  0  0
   -2.4305    0.7626   -2.1884 H   0  0  0  0  0  0  0  0  0  0  0  0
    1.0212   -0.4855    0.9153 C   0  0  0  0  0  0  0  0  0  0  0  0
    2.2339   -0.5848    1.0527 O   0  0  0  0  0  0  0  0  0  0  0  0
    0.2579   -0.0334    1.9768 N   0  0  0  0  0  0  0  0  0  0  0  0
   -0.7478   -0.0680    1.8508 H   0  0  0  0  0  0  0  0  0  0  0  0
    0.7932    0.1156    3.3240 C   0  0  0  0  0  0  0  0  0  0  0  0
    1.6319    0.8197    3.3279 H   0  0  0  0  0  0  0  0  0  0  0  0
    0.0208    0.4973    3.9983 H   0  0  0  0  0  0  0  0  0  0  0  0
    1.1420   -0.8503    3.7046 H   0  0  0  0  0  0  0  0  0  0  0  0
  1  2  1  0  0  0  0
  2  3  1  0  0  0  0
  2  4  1  0  0  0  0
  2  5  1  0  0  0  0
  5  6  2  0  0  0  0
  5  7  1  0  0  0  0
  7  8  1  0  0  0  0
  7  9  1  0  0  0  0
  9 10  1  0  0  0  0
  9 11  1  0  0  0  0
  9 24  1  0  0  0  0
 11 12  1  0  0  0  0
 11 13  1  0  0  0  0
 11 17  1  0  0  0  0
 13 14  1  0  0  0  0
 13 15  1  0  0  0  0
 13 16  1  0  0  0  0
 17 18  1  0  0  0  0
 17 19  1  0  0  0  0
 17 20  1  0  0  0  0
 20 21  1  0  0  0  0
 20 22  1  0  0  0  0
 20 23  1  0  0  0  0
 24 25  2  0  0  0  0
 24 26  1  0  0  0  0
 26 27  1  0  0  0  0
 26 28  1  0  0  0  0
 28 29  1  0  0  0  0
 28 30  1  0  0  0  0
 28 31  1  0  0  0  0
M  END
$$$$

  -OEChem-03222214053D

 31 30  0     1  0  0  0  0  0999 V2000
   -2.5042   -4.2727    0.3580 H   0  0  0  0  0  0  0  0  0  0  0  0
   -2.5273   -3.2539   -0.0393 C   0  0  0  0  0  0  0  0  0  0  0  0
   -3.2551   -2.6708    0.5298 H   0  0  0  0  0  0  0  0  0  0  0  0
   -2.8386   -3.2932   -1.0859 H   0  0  0  0  0  0  0  0  0  0  0  0
   -1.1532   -2.6204    0.0707 C   0  0  0  0  0  0  0  0  0  0  0  0
   -0.2427   -3.2369    0.5929 O   0  0  0  0  0  0  0  0  0  0  0  0
   -0.9452   -1.3497   -0.4285 N   0  0  0  0  0  0  0  0  0  0  0  0
   -1.7207   -0.9212   -0.9246 H   0  0  0  0  0  0  0  0  0  0  0  0
    0.3674   -0.6727   -0.4826 C   0  0  1  0  0  0  0  0  0  0  0  0
    1.0567   -1.2973   -1.0622 H   0  0  0  0  0  0  0  0  0  0  0  0
    0.1902    0.6801   -1.2240 C   0  0  1  0  0  0  0  0  0  0  0  0
   -0.5418    1.2679   -0.6587 H   0  0  0  0  0  0  0  0  0  0  0  0
    1.4960    1.4927   -1.2800 C   0  0  0  0  0  0  0  0  0  0  0  0
    2.3032    0.8961   -1.7172 H   0  0  0  0  0  0  0  0  0  0  0  0
    1.3599    2.3931   -1.8868 H   0  0  0  0  0  0  0  0  0  0  0  0
    1.8029    1.8107   -0.2790 H   0  0  0  0  0  0  0  0  0  0  0  0
   -0.3304    0.4767   -2.6722 C   0  0  0  0  0  0  0  0  0  0  0  0
    0.4875    0.6059   -3.3895 H   0  0  0  0  0  0  0  0  0  0  0  0
   -0.7099   -0.5386   -2.8186 H   0  0  0  0  0  0  0  0  0  0  0  0
   -1.4540    1.4604   -3.0023 C   0  0  0  0  0  0  0  0  0  0  0  0
   -1.1038    2.4918   -2.8944 H   0  0  0  0  0  0  0  0  0  0  0  0
   -1.7893    1.3145   -4.0337 H   0  0  0  0  0  0  0  0  0  0  0  0
   -2.3080    1.3074   -2.3355 H   0  0  0  0  0  0  0  0  0  0  0  0
    1.0170   -0.4895    0.9102 C   0  0  0  0  0  0  0  0  0  0  0  0
    2.2312   -0.5805    1.0394 O   0  0  0  0  0  0  0  0  0  0  0  0
    0.2590   -0.0384    1.9759 N   0  0  0  0  0  0  0  0  0  0  0  0
   -0.7474   -0.0816    1.8590 H   0  0  0  0  0  0  0  0  0  0  0  0
    0.8050    0.1234    3.3173 C   0  0  0  0  0  0  0  0  0  0  0  0
    1.6366    0.8358    3.3101 H   0  0  0  0  0  0  0  0  0  0  0  0
    0.0352    0.5010    3.9968 H   0  0  0  0  0  0  0  0  0  0  0  0
    1.1671   -0.8366    3.6999 H   0  0  0  0  0  0  0  0  0  0  0  0
  1  2  1  0  0  0  0
  2  3  1  0  0  0  0
  2  4  1  0  0  0  0
  2  5  1  0  0  0  0
  5  6  2  0  0  0  0
  5  7  1  0  0  0  0
  7  8  1  0  0  0  0
  7  9  1  0  0  0  0
  9 10  1  0  0  0  0
  9 11  1  0  0  0  0
  9 24  1  0  0  0  0
 11 12  1  0  0  0  0
 11 13  1  0  0  0  0
 11 17  1  0  0  0  0
 13 14  1  0  0  0  0
 13 15  1  0  0  0  0
 13 16  1  0  0  0  0
 17 18  1  0  0  0  0
 17 19  1  0  0  0  0
 17 20  1  0  0  0  0
 20 21  1  0  0  0  0
 20 22  1  0  0  0  0
 20 23  1  0  0  0  0
 24 25  2  0  0  0  0
 24 26  1  0  0  0  0
 26 27  1  0  0  0  0
 26 28  1  0  0  0  0
 28 29  1  0  0  0  0
 28 30  1  0  0  0  0
 28 31  1  0  0  0  0
M  END
$$$$

  -OEChem-03222214053D

 31 30  0     1  0  0  0  0  0999 V2000
   -2.4925   -4.2732    0.3871 H   0  0  0  0  0  0  0  0  0  0  0  0
   -2.5205   -3.2558   -0.0137 C   0  0  0  0  0  0  0  0  0  0  0  0
   -3.2353   -2.6689    0.5678 H   0  0  0  0  0  0  0  0  0  0  0  0
   -2.8524   -3.2981   -1.0538 H   0  0  0  0  0  0  0  0  0  0  0  0
   -1.1427   -2.6254    0.0665 C   0  0  0  0  0  0  0  0  0  0  0  0
   -0.2216   -3.2459    0.5646 O   0  0  0  0  0  0  0  0  0  0  0  0
   -0.9442   -1.3521   -0.4302 N   0  0  0  0  0  0  0  0  0  0  0  0
   -1.7327   -0.9139   -0.8963 H   0  0  0  0  0  0  0  0  0  0  0  0
    0.3637   -0.6671   -0.4888 C   0  0  1  0  0  0  0  0  0  0  0  0
    1.0539   -1.2891   -1.0696 H   0  0  0  0  0  0  0  0  0  0  0  0
    0.1869    0.6873   -1.2303 C   0  0  1  0  0  0  0  0  0  0  0  0
   -0.5489    1.2746   -0.6701 H   0  0  0  0  0  0  0  0  0  0  0  0
    1.4996    1.4916   -1.2811 C   0  0  0  0  0  0  0  0  0  0  0  0
    2.3052    0.8862   -1.7092 H   0  0  0  0  0  0  0  0  0  0  0  0
    1.3816    2.3915   -1.8913 H   0  0  0  0  0  0  0  0  0  0  0  0
    1.8006    1.8106   -0.2785 H   0  0  0  0  0  0  0  0  0  0  0  0
   -0.3324    0.4863   -2.6778 C   0  0  0  0  0  0  0  0  0  0  0  0
    0.5133    0.3424   -3.3589 H   0  0  0  0  0  0  0  0  0  0  0  0
   -0.9536   -0.4098   -2.7548 H   0  0  0  0  0  0  0  0  0  0  0  0
   -1.1766    1.6747   -3.1458 C   0  0  0  0  0  0  0  0  0  0  0  0
   -0.5914    2.5987   -3.1286 H   0  0  0  0  0  0  0  0  0  0  0  0
   -1.5229    1.5066   -4.1701 H   0  0  0  0  0  0  0  0  0  0  0  0
   -2.0518    1.8026   -2.5013 H   0  0  0  0  0  0  0  0  0  0  0  0
    1.0136   -0.4864    0.9043 C   0  0  0  0  0  0  0  0  0  0  0  0
    2.2276   -0.5780    1.0352 O   0  0  0  0  0  0  0  0  0  0  0  0
    0.2528   -0.0442    1.9717 N   0  0  0  0  0  0  0  0  0  0  0  0
   -0.7533   -0.0831    1.8510 H   0  0  0  0  0  0  0  0  0  0  0  0
    0.7951    0.1089    3.3155 C   0  0  0  0  0  0  0  0  0  0  0  0
    1.6279    0.8200    3.3147 H   0  0  0  0  0  0  0  0  0  0  0  0
    0.0235    0.4838    3.9946 H   0  0  0  0  0  0  0  0  0  0  0  0
    1.1545   -0.8540    3.6937 H   0  0  0  0  0  0  0  0  0  0  0  0
  1  2  1  0  0  0  0
  2  3  1  0  0  0  0
  2  4  1  0  0  0  0
  2  5  1  0  0  0  0
  5  6  2  0  0  0  0
  5  7  1  0  0  0  0
  7  8  1  0  0  0  0
  7  9  1  0  0  0  0
  9 10  1  0  0  0  0
  9 11  1  0  0  0  0
  9 24  1  0  0  0  0
 11 12  1  0  0  0  0
 11 13  1  0  0  0  0
 11 17  1  0  0  0  0
 13 14  1  0  0  0  0
 13 15  1  0  0  0  0
 13 16  1  0  0  0  0
 17 18  1  0  0  0  0
 17 19  1  0  0  0  0
 17 20  1  0  0  0  0
 20 21  1  0  0  0  0
 20 22  1  0  0  0  0
 20 23  1  0  0  0  0
 24 25  2  0  0  0  0
 24 26  1  0  0  0  0
 26 27  1  0  0  0  0
 26 28  1  0  0  0  0
 28 29  1  0  0  0  0
 28 30  1  0  0  0  0
 28 31  1  0  0  0  0
M  END
$$$$

  -OEChem-03222214053D

 31 30  0     1  0  0  0  0  0999 V2000
   -2.4863   -4.2603    0.3818 H   0  0  0  0  0  0  0  0  0  0  0  0
   -2.5152   -3.2407   -0.0134 C   0  0  0  0  0  0  0  0  0  0  0  0
   -3.2214   -2.6542    0.5790 H   0  0  0  0  0  0  0  0  0  0  0  0
   -2.8587   -3.2760   -1.0501 H   0  0  0  0  0  0  0  0  0  0  0  0
   -1.1347   -2.6154    0.0555 C   0  0  0  0  0  0  0  0  0  0  0  0
   -0.2096   -3.2423    0.5377 O   0  0  0  0  0  0  0  0  0  0  0  0
   -0.9390   -1.3382   -0.4323 N   0  0  0  0  0  0  0  0  0  0  0  0
   -1.7315   -0.8955   -0.8868 H   0  0  0  0  0  0  0  0  0  0  0  0
    0.3670   -0.6490   -0.4885 C   0  0  1  0  0  0  0  0  0  0  0  0
    1.0593   -1.2668   -1.0720 H   0  0  0  0  0  0  0  0  0  0  0  0
    0.1866    0.7096   -1.2261 C   0  0  1  0  0  0  0  0  0  0  0  0
   -0.5504    1.3014   -0.6728 H   0  0  0  0  0  0  0  0  0  0  0  0
    1.5087    1.5033   -1.2686 C   0  0  0  0  0  0  0  0  0  0  0  0
    2.2974    0.9100   -1.7424 H   0  0  0  0  0  0  0  0  0  0  0  0
    1.3942    2.4354   -1.8267 H   0  0  0  0  0  0  0  0  0  0  0  0
    1.8365    1.7726   -0.2603 H   0  0  0  0  0  0  0  0  0  0  0  0
   -0.3330    0.4887   -2.6716 C   0  0  0  0  0  0  0  0  0  0  0  0
    0.4714    0.0792   -3.2920 H   0  0  0  0  0  0  0  0  0  0  0  0
   -1.1475   -0.2400   -2.6789 H   0  0  0  0  0  0  0  0  0  0  0  0
   -0.8718    1.7705   -3.3150 C   0  0  0  0  0  0  0  0  0  0  0  0
   -0.0728    2.4977   -3.4811 H   0  0  0  0  0  0  0  0  0  0  0  0
   -1.3217    1.5372   -4.2849 H   0  0  0  0  0  0  0  0  0  0  0  0
   -1.6373    2.2270   -2.6801 H   0  0  0  0  0  0  0  0  0  0  0  0
    1.0128   -0.4800    0.9089 C   0  0  0  0  0  0  0  0  0  0  0  0
    2.2257   -0.5785    1.0439 O   0  0  0  0  0  0  0  0  0  0  0  0
    0.2497   -0.0497    1.9797 N   0  0  0  0  0  0  0  0  0  0  0  0
   -0.7561   -0.0802    1.8544 H   0  0  0  0  0  0  0  0  0  0  0  0
    0.7871    0.0824    3.3279 C   0  0  0  0  0  0  0  0  0  0  0  0
    1.6225    0.7903    3.3403 H   0  0  0  0  0  0  0  0  0  0  0  0
    0.0144    0.4506    4.0094 H   0  0  0  0  0  0  0  0  0  0  0  0
    1.1417   -0.8869    3.6943 H   0  0  0  0  0  0  0  0  0  0  0  0
  1  2  1  0  0  0  0
  2  3  1  0  0  0  0
  2  4  1  0  0  0  0
  2  5  1  0  0  0  0
  5  6  2  0  0  0  0
  5  7  1  0  0  0  0
  7  8  1  0  0  0  0
  7  9  1  0  0  0  0
  9 10  1  0  0  0  0
  9 11  1  0  0  0  0
  9 24  1  0  0  0  0
 11 12  1  0  0  0  0
 11 13  1  0  0  0  0
 11 17  1  0  0  0  0
 13 14  1  0  0  0  0
 13 15  1  0  0  0  0
 13 16  1  0  0  0  0
 17 18  1  0  0  0  0
 17 19  1  0  0  0  0
 17 20  1  0  0  0  0
 20 21  1  0  0  0  0
 20 22  1  0  0  0  0
 20 23  1  0  0  0  0
 24 25  2  0  0  0  0
 24 26  1  0  0  0  0
 26 27  1  0  0  0  0
 26 28  1  0  0  0  0
 28 29  1  0  0  0  0
 28 30  1  0  0  0  0
 28 31  1  0  0  0  0
M  END
$$$$

  -OEChem-03222214053D

 31 30  0     1  0  0  0  0  0999 V2000
   -2.4550   -4.2925    0.4179 H   0  0  0  0  0  0  0  0  0  0  0  0
   -2.5004   -3.2749    0.0194 C   0  0  0  0  0  0  0  0  0  0  0  0
   -3.2048   -2.6936    0.6190 H   0  0  0  0  0  0  0  0  0  0  0  0
   -2.8577   -3.3182   -1.0123 H   0  0  0  0  0  0  0  0  0  0  0  0
   -1.1254   -2.6350    0.0666 C   0  0  0  0  0  0  0  0  0  0  0  0
   -0.1865   -3.2519    0.5351 O   0  0  0  0  0  0  0  0  0  0  0  0
   -0.9505   -1.3573   -0.4280 N   0  0  0  0  0  0  0  0  0  0  0  0
   -1.7577   -0.9196   -0.8597 H   0  0  0  0  0  0  0  0  0  0  0  0
    0.3456   -0.6506   -0.4965 C   0  0  1  0  0  0  0  0  0  0  0  0
    1.0327   -1.2736   -1.0803 H   0  0  0  0  0  0  0  0  0  0  0  0
    0.1804    0.7112   -1.2368 C   0  0  1  0  0  0  0  0  0  0  0  0
   -0.3407    1.4041   -0.5671 H   0  0  0  0  0  0  0  0  0  0  0  0
    1.5646    1.3089   -1.5640 C   0  0  0  0  0  0  0  0  0  0  0  0
    2.1072    0.6621   -2.2608 H   0  0  0  0  0  0  0  0  0  0  0  0
    1.4703    2.3022   -2.0098 H   0  0  0  0  0  0  0  0  0  0  0  0
    2.1679    1.4247   -0.6596 H   0  0  0  0  0  0  0  0  0  0  0  0
   -0.6695    0.5659   -2.5286 C   0  0  0  0  0  0  0  0  0  0  0  0
   -0.2031   -0.1704   -3.1919 H   0  0  0  0  0  0  0  0  0  0  0  0
   -1.6684    0.2006   -2.2761 H   0  0  0  0  0  0  0  0  0  0  0  0
   -0.8617    1.8789   -3.2946 C   0  0  0  0  0  0  0  0  0  0  0  0
    0.0727    2.2041   -3.7609 H   0  0  0  0  0  0  0  0  0  0  0  0
   -1.6018    1.7397   -4.0885 H   0  0  0  0  0  0  0  0  0  0  0  0
   -1.2173    2.6669   -2.6235 H   0  0  0  0  0  0  0  0  0  0  0  0
    1.0000   -0.4658    0.8948 C   0  0  0  0  0  0  0  0  0  0  0  0
    2.2128   -0.5650    1.0287 O   0  0  0  0  0  0  0  0  0  0  0  0
    0.2375   -0.0404    1.9682 N   0  0  0  0  0  0  0  0  0  0  0  0
   -0.7685   -0.0711    1.8447 H   0  0  0  0  0  0  0  0  0  0  0  0
    0.7773    0.0958    3.3152 C   0  0  0  0  0  0  0  0  0  0  0  0
    1.6087    0.8086    3.3259 H   0  0  0  0  0  0  0  0  0  0  0  0
    0.0038    0.4598    3.9979 H   0  0  0  0  0  0  0  0  0  0  0  0
    1.1380   -0.8713    3.6815 H   0  0  0  0  0  0  0  0  0  0  0  0
  1  2  1  0  0  0  0
  2  3  1  0  0  0  0
  2  4  1  0  0  0  0
  2  5  1  0  0  0  0
  5  6  2  0  0  0  0
  5  7  1  0  0  0  0
  7  8  1  0  0  0  0
  7  9  1  0  0  0  0
  9 10  1  0  0  0  0
  9 11  1  0  0  0  0
  9 24  1  0  0  0  0
 11 12  1  0  0  0  0
 11 13  1  0  0  0  0
 11 17  1  0  0  0  0
 13 14  1  0  0  0  0
 13 15  1  0  0  0  0
 13 16  1  0  0  0  0
 17 18  1  0  0  0  0
 17 19  1  0  0  0  0
 17 20  1  0  0  0  0
 20 21  1  0  0  0  0
 20 22  1  0  0  0  0
 20 23  1  0  0  0  0
 24 25  2  0  0  0  0
 24 26  1  0  0  0  0
 26 27  1  0  0  0  0
 26 28  1  0  0  0  0
 28 29  1  0  0  0  0
 28 30  1  0  0  0  0
 28 31  1  0  0  0  0
M  END
$$$$

  -OEChem-03222214053D

 31 30  0     1  0  0  0  0  0999 V2000
   -2.4739   -4.2695    0.3869 H   0  0  0  0  0  0  0  0  0  0  0  0
   -2.5106   -3.2501   -0.0079 C   0  0  0  0  0  0  0  0  0  0  0  0
   -3.2220   -2.6693    0.5839 H   0  0  0  0  0  0  0  0  0  0  0  0
   -2.8528   -3.2885   -1.0448 H   0  0  0  0  0  0  0  0  0  0  0  0
   -1.1348   -2.6143    0.0625 C   0  0  0  0  0  0  0  0  0  0  0  0
   -0.2063   -3.2341    0.5474 O   0  0  0  0  0  0  0  0  0  0  0  0
   -0.9468   -1.3377   -0.4299 N   0  0  0  0  0  0  0  0  0  0  0  0
   -1.7429   -0.9016   -0.8839 H   0  0  0  0  0  0  0  0  0  0  0  0
    0.3569   -0.6434   -0.4932 C   0  0  1  0  0  0  0  0  0  0  0  0
    1.0412   -1.2679   -1.0791 H   0  0  0  0  0  0  0  0  0  0  0  0
    0.1897    0.7201   -1.2281 C   0  0  1  0  0  0  0  0  0  0  0  0
   -0.3308    1.4173   -0.5626 H   0  0  0  0  0  0  0  0  0  0  0  0
    1.5768    1.3187   -1.5456 C   0  0  0  0  0  0  0  0  0  0  0  0
    2.1182    0.6810   -2.2516 H   0  0  0  0  0  0  0  0  0  0  0  0
    1.4838    2.3200   -1.9750 H   0  0  0  0  0  0  0  0  0  0  0  0
    2.1807    1.4205   -0.6399 H   0  0  0  0  0  0  0  0  0  0  0  0
   -0.6688    0.5548   -2.5135 C   0  0  0  0  0  0  0  0  0  0  0  0
   -0.3478   -0.3461   -3.0473 H   0  0  0  0  0  0  0  0  0  0  0  0
   -1.7163    0.4192   -2.2281 H   0  0  0  0  0  0  0  0  0  0  0  0
   -0.6030    1.7313   -3.4931 C   0  0  0  0  0  0  0  0  0  0  0  0
    0.3862    1.8049   -3.9550 H   0  0  0  0  0  0  0  0  0  0  0  0
   -1.3370    1.5903   -4.2924 H   0  0  0  0  0  0  0  0  0  0  0  0
   -0.8274    2.6711   -2.9791 H   0  0  0  0  0  0  0  0  0  0  0  0
    1.0108   -0.4661    0.8992 C   0  0  0  0  0  0  0  0  0  0  0  0
    2.2226   -0.5760    1.0345 O   0  0  0  0  0  0  0  0  0  0  0  0
    0.2505   -0.0342    1.9713 N   0  0  0  0  0  0  0  0  0  0  0  0
   -0.7555   -0.0667    1.8483 H   0  0  0  0  0  0  0  0  0  0  0  0
    0.7896    0.0901    3.3196 C   0  0  0  0  0  0  0  0  0  0  0  0
    1.6282    0.7944    3.3345 H   0  0  0  0  0  0  0  0  0  0  0  0
    0.0188    0.4586    4.0031 H   0  0  0  0  0  0  0  0  0  0  0  0
    1.1399   -0.8825    3.6814 H   0  0  0  0  0  0  0  0  0  0  0  0
  1  2  1  0  0  0  0
  2  3  1  0  0  0  0
  2  4  1  0  0  0  0
  2  5  1  0  0  0  0
  5  6  2  0  0  0  0
  5  7  1  0  0  0  0
  7  8  1  0  0  0  0
  7  9  1  0  0  0  0
  9 10  1  0  0  0  0
  9 11  1  0  0  0  0
  9 24  1  0  0  0  0
 11 12  1  0  0  0  0
 11 13  1  0  0  0  0
 11 17  1  0  0  0  0
 13 14  1  0  0  0  0
 13 15  1  0  0  0  0
 13 16  1  0  0  0  0
 17 18  1  0  0  0  0
 17 19  1  0  0  0  0
 17 20  1  0  0  0  0
 20 21  1  0  0  0  0
 20 22  1  0  0  0  0
 20 23  1  0  0  0  0
 24 25  2  0  0  0  0
 24 26  1  0  0  0  0
 26 27  1  0  0  0  0
 26 28  1  0  0  0  0
 28 29  1  0  0  0  0
 28 30  1  0  0  0  0
 28 31  1  0  0  0  0
M  END
$$$$

  -OEChem-03222214053D

 31 30  0     1  0  0  0  0  0999 V2000
   -2.4911   -4.2530    0.3761 H   0  0  0  0  0  0  0  0  0  0  0  0
   -2.5198   -3.2332   -0.0182 C   0  0  0  0  0  0  0  0  0  0  0  0
   -3.2286   -2.6481    0.5724 H   0  0  0  0  0  0  0  0  0  0  0  0
   -2.8599   -3.2684   -1.0560 H   0  0  0  0  0  0  0  0  0  0  0  0
   -1.1402   -2.6058    0.0554 C   0  0  0  0  0  0  0  0  0  0  0  0
   -0.2161   -3.2315    0.5411 O   0  0  0  0  0  0  0  0  0  0  0  0
   -0.9441   -1.3292   -0.4338 N   0  0  0  0  0  0  0  0  0  0  0  0
   -1.7349   -0.8898   -0.8943 H   0  0  0  0  0  0  0  0  0  0  0  0
    0.3642   -0.6422   -0.4923 C   0  0  1  0  0  0  0  0  0  0  0  0
    1.0468   -1.2677   -1.0787 H   0  0  0  0  0  0  0  0  0  0  0  0
    0.1951    0.7209   -1.2271 C   0  0  1  0  0  0  0  0  0  0  0  0
   -0.3318    1.4163   -0.5649 H   0  0  0  0  0  0  0  0  0  0  0  0
    1.5849    1.3268   -1.5201 C   0  0  0  0  0  0  0  0  0  0  0  0
    2.1531    0.6792   -2.1954 H   0  0  0  0  0  0  0  0  0  0  0  0
    1.4941    2.3176   -1.9735 H   0  0  0  0  0  0  0  0  0  0  0  0
    2.1617    1.4543   -0.6001 H   0  0  0  0  0  0  0  0  0  0  0  0
   -0.6664    0.5512   -2.5154 C   0  0  0  0  0  0  0  0  0  0  0  0
   -0.5200   -0.4589   -2.9135 H   0  0  0  0  0  0  0  0  0  0  0  0
   -1.7229    0.6519   -2.2468 H   0  0  0  0  0  0  0  0  0  0  0  0
   -0.3623    1.5191   -3.6651 C   0  0  0  0  0  0  0  0  0  0  0  0
    0.6467    1.3606   -4.0580 H   0  0  0  0  0  0  0  0  0  0  0  0
   -1.0711    1.3572   -4.4829 H   0  0  0  0  0  0  0  0  0  0  0  0
   -0.4571    2.5563   -3.3293 H   0  0  0  0  0  0  0  0  0  0  0  0
    1.0181   -0.4703    0.9008 C   0  0  0  0  0  0  0  0  0  0  0  0
    2.2294   -0.5860    1.0354 O   0  0  0  0  0  0  0  0  0  0  0  0
    0.2609   -0.0356    1.9741 N   0  0  0  0  0  0  0  0  0  0  0  0
   -0.7454   -0.0601    1.8517 H   0  0  0  0  0  0  0  0  0  0  0  0
    0.8021    0.0839    3.3221 C   0  0  0  0  0  0  0  0  0  0  0  0
    1.6466    0.7810    3.3368 H   0  0  0  0  0  0  0  0  0  0  0  0
    0.0353    0.4588    4.0065 H   0  0  0  0  0  0  0  0  0  0  0  0
    1.1449   -0.8913    3.6837 H   0  0  0  0  0  0  0  0  0  0  0  0
  1  2  1  0  0  0  0
  2  3  1  0  0  0  0
  2  4  1  0  0  0  0
  2  5  1  0  0  0  0
  5  6  2  0  0  0  0
  5  7  1  0  0  0  0
  7  8  1  0  0  0  0
  7  9  1  0  0  0  0
  9 10  1  0  0  0  0
  9 11  1  0  0  0  0
  9 24  1  0  0  0  0
 11 12  1  0  0  0  0
 11 13  1  0  0  0  0
 11 17  1  0  0  0  0
 13 14  1  0  0  0  0
 13 15  1  0  0  0  0
 13 16  1  0  0  0  0
 17 18  1  0  0  0  0
 17 19  1  0  0  0  0
 17 20  1  0  0  0  0
 20 21  1  0  0  0  0
 20 22  1  0  0  0  0
 20 23  1  0  0  0  0
 24 25  2  0  0  0  0
 24 26  1  0  0  0  0
 26 27  1  0  0  0  0
 26 28  1  0  0  0  0
 28 29  1  0  0  0  0
 28 30  1  0  0  0  0
 28 31  1  0  0  0  0
M  END
$$$$

  -OEChem-03222214053D

 31 30  0     1  0  0  0  0  0999 V2000
   -2.4994   -4.2513    0.4019 H   0  0  0  0  0  0  0  0  0  0  0  0
   -2.5255   -3.2348   -0.0010 C   0  0  0  0  0  0  0  0  0  0  0  0
   -3.2302   -2.6420    0.5870 H   0  0  0  0  0  0  0  0  0  0  0  0
   -2.8692   -3.2778   -1.0372 H   0  0  0  0  0  0  0  0  0  0  0  0
   -1.1431   -2.6126    0.0631 C   0  0  0  0  0  0  0  0  0  0  0  0
   -0.2196   -3.2385    0.5496 O   0  0  0  0  0  0  0  0  0  0  0  0
   -0.9445   -1.3384   -0.4318 N   0  0  0  0  0  0  0  0  0  0  0  0
   -1.7352   -0.8978   -0.8914 H   0  0  0  0  0  0  0  0  0  0  0  0
    0.3652   -0.6542   -0.4979 C   0  0  1  0  0  0  0  0  0  0  0  0
    1.0453   -1.2826   -1.0842 H   0  0  0  0  0  0  0  0  0  0  0  0
    0.2013    0.7082   -1.2374 C   0  0  1  0  0  0  0  0  0  0  0  0
   -0.3342    1.3944   -0.5724 H   0  0  0  0  0  0  0  0  0  0  0  0
    1.5904    1.3313   -1.4979 C   0  0  0  0  0  0  0  0  0  0  0  0
    2.1953    0.6779   -2.1343 H   0  0  0  0  0  0  0  0  0  0  0  0
    1.4980    2.3093   -1.9780 H   0  0  0  0  0  0  0  0  0  0  0  0
    2.1311    1.4916   -0.5611 H   0  0  0  0  0  0  0  0  0  0  0  0
   -0.6629    0.5606   -2.5323 C   0  0  0  0  0  0  0  0  0  0  0  0
   -0.7443   -0.4975   -2.8005 H   0  0  0  0  0  0  0  0  0  0  0  0
   -1.6734    0.9241   -2.3196 H   0  0  0  0  0  0  0  0  0  0  0  0
   -0.1443    1.2630   -3.7936 C   0  0  0  0  0  0  0  0  0  0  0  0
    0.8392    0.8792   -4.0813 H   0  0  0  0  0  0  0  0  0  0  0  0
   -0.8326    1.0842   -4.6252 H   0  0  0  0  0  0  0  0  0  0  0  0
   -0.0767    2.3437   -3.6362 H   0  0  0  0  0  0  0  0  0  0  0  0
    1.0208   -0.4800    0.8937 C   0  0  0  0  0  0  0  0  0  0  0  0
    2.2322   -0.5959    1.0277 O   0  0  0  0  0  0  0  0  0  0  0  0
    0.2635   -0.0405    1.9648 N   0  0  0  0  0  0  0  0  0  0  0  0
   -0.7428   -0.0697    1.8427 H   0  0  0  0  0  0  0  0  0  0  0  0
    0.8047    0.0848    3.3120 C   0  0  0  0  0  0  0  0  0  0  0  0
    1.6492    0.7819    3.3229 H   0  0  0  0  0  0  0  0  0  0  0  0
    0.0377    0.4628    3.9944 H   0  0  0  0  0  0  0  0  0  0  0  0
    1.1474   -0.8891    3.6771 H   0  0  0  0  0  0  0  0  0  0  0  0
  1  2  1  0  0  0  0
  2  3  1  0  0  0  0
  2  4  1  0  0  0  0
  2  5  1  0  0  0  0
  5  6  2  0  0  0  0
  5  7  1  0  0  0  0
  7  8  1  0  0  0  0
  7  9  1  0  0  0  0
  9 10  1  0  0  0  0
  9 11  1  0  0  0  0
  9 24  1  0  0  0  0
 11 12  1  0  0  0  0
 11 13  1  0  0  0  0
 11 17  1  0  0  0  0
 13 14  1  0  0  0  0
 13 15  1  0  0  0  0
 13 16  1  0  0  0  0
 17 18  1  0  0  0  0
 17 19  1  0  0  0  0
 17 20  1  0  0  0  0
 20 21  1  0  0  0  0
 20 22  1  0  0  0  0
 20 23  1  0  0  0  0
 24 25  2  0  0  0  0
 24 26  1  0  0  0  0
 26 27  1  0  0  0  0
 26 28  1  0  0  0  0
 28 29  1  0  0  0  0
 28 30  1  0  0  0  0
 28 31  1  0  0  0  0
M  END
$$$$

  -OEChem-03222214053D

 31 30  0     1  0  0  0  0  0999 V2000
   -2.5009   -4.2655    0.4339 H   0  0  0  0  0  0  0  0  0  0  0  0
   -2.5313   -3.2522    0.0229 C   0  0  0  0  0  0  0  0  0  0  0  0
   -3.2347   -2.6561    0.6091 H   0  0  0  0  0  0  0  0  0  0  0  0
   -2.8790   -3.3036   -1.0117 H   0  0  0  0  0  0  0  0  0  0  0  0
   -1.1500   -2.6270    0.0756 C   0  0  0  0  0  0  0  0  0  0  0  0
   -0.2211   -3.2514    0.5540 O   0  0  0  0  0  0  0  0  0  0  0  0
   -0.9577   -1.3541   -0.4248 N   0  0  0  0  0  0  0  0  0  0  0  0
   -1.7555   -0.9121   -0.8707 H   0  0  0  0  0  0  0  0  0  0  0  0
    0.3500   -0.6679   -0.5015 C   0  0  1  0  0  0  0  0  0  0  0  0
    1.0255   -1.3032   -1.0858 H   0  0  0  0  0  0  0  0  0  0  0  0
    0.2008    0.6903   -1.2540 C   0  0  1  0  0  0  0  0  0  0  0  0
   -0.3501    1.3632   -0.5876 H   0  0  0  0  0  0  0  0  0  0  0  0
    1.5833    1.3394   -1.4806 C   0  0  0  0  0  0  0  0  0  0  0  0
    2.2275    0.6875   -2.0788 H   0  0  0  0  0  0  0  0  0  0  0  0
    1.4827    2.3037   -1.9860 H   0  0  0  0  0  0  0  0  0  0  0  0
    2.0854    1.5333   -0.5286 H   0  0  0  0  0  0  0  0  0  0  0  0
   -0.6565    0.5726   -2.5598 C   0  0  0  0  0  0  0  0  0  0  0  0
   -1.0104   -0.4518   -2.6990 H   0  0  0  0  0  0  0  0  0  0  0  0
   -1.5421    1.2062   -2.4470 H   0  0  0  0  0  0  0  0  0  0  0  0
    0.0383    0.9546   -3.8737 C   0  0  0  0  0  0  0  0  0  0  0  0
    0.9344    0.3464   -4.0306 H   0  0  0  0  0  0  0  0  0  0  0  0
   -0.6412    0.7814   -4.7139 H   0  0  0  0  0  0  0  0  0  0  0  0
    0.3155    2.0127   -3.8804 H   0  0  0  0  0  0  0  0  0  0  0  0
    1.0144   -0.4880    0.8856 C   0  0  0  0  0  0  0  0  0  0  0  0
    2.2269   -0.6012    1.0115 O   0  0  0  0  0  0  0  0  0  0  0  0
    0.2647   -0.0464    1.9613 N   0  0  0  0  0  0  0  0  0  0  0  0
   -0.7424   -0.0706    1.8461 H   0  0  0  0  0  0  0  0  0  0  0  0
    0.8165    0.0897    3.3032 C   0  0  0  0  0  0  0  0  0  0  0  0
    1.6561    0.7929    3.3033 H   0  0  0  0  0  0  0  0  0  0  0  0
    0.0528    0.4657    3.9904 H   0  0  0  0  0  0  0  0  0  0  0  0
    1.1691   -0.8799    3.6706 H   0  0  0  0  0  0  0  0  0  0  0  0
  1  2  1  0  0  0  0
  2  3  1  0  0  0  0
  2  4  1  0  0  0  0
  2  5  1  0  0  0  0
  5  6  2  0  0  0  0
  5  7  1  0  0  0  0
  7  8  1  0  0  0  0
  7  9  1  0  0  0  0
  9 10  1  0  0  0  0
  9 11  1  0  0  0  0
  9 24  1  0  0  0  0
 11 12  1  0  0  0  0
 11 13  1  0  0  0  0
 11 17  1  0  0  0  0
 13 14  1  0  0  0  0
 13 15  1  0  0  0  0
 13 16  1  0  0  0  0
 17 18  1  0  0  0  0
 17 19  1  0  0  0  0
 17 20  1  0  0  0  0
 20 21  1  0  0  0  0
 20 22  1  0  0  0  0
 20 23  1  0  0  0  0
 24 25  2  0  0  0  0
 24 26  1  0  0  0  0
 26 27  1  0  0  0  0
 26 28  1  0  0  0  0
 28 29  1  0  0  0  0
 28 30  1  0  0  0  0
 28 31  1  0  0  0  0
M  END
$$$$

  -OEChem-03222214053D

 31 30  0     1  0  0  0  0  0999 V2000
   -2.4978   -4.2805    0.4632 H   0  0  0  0  0  0  0  0  0  0  0  0
   -2.5345   -3.2686    0.0493 C   0  0  0  0  0  0  0  0  0  0  0  0
   -3.2311   -2.6716    0.6425 H   0  0  0  0  0  0  0  0  0  0  0  0
   -2.8954   -3.3240   -0.9805 H   0  0  0  0  0  0  0  0  0  0  0  0
   -1.1531   -2.6417    0.0821 C   0  0  0  0  0  0  0  0  0  0  0  0
   -0.2178   -3.2646    0.5498 O   0  0  0  0  0  0  0  0  0  0  0  0
   -0.9676   -1.3691   -0.4222 N   0  0  0  0  0  0  0  0  0  0  0  0
   -1.7731   -0.9236   -0.8502 H   0  0  0  0  0  0  0  0  0  0  0  0
    0.3373   -0.6792   -0.5066 C   0  0  1  0  0  0  0  0  0  0  0  0
    1.0108   -1.3178   -1.0894 H   0  0  0  0  0  0  0  0  0  0  0  0
    0.2005    0.6770   -1.2648 C   0  0  1  0  0  0  0  0  0  0  0  0
   -0.3604    1.3399   -0.5967 H   0  0  0  0  0  0  0  0  0  0  0  0
    1.5744    1.3433   -1.4823 C   0  0  0  0  0  0  0  0  0  0  0  0
    2.2436    0.6866   -2.0469 H   0  0  0  0  0  0  0  0  0  0  0  0
    1.4621    2.2878   -2.0224 H   0  0  0  0  0  0  0  0  0  0  0  0
    2.0515    1.5751   -0.5257 H   0  0  0  0  0  0  0  0  0  0  0  0
   -0.6489    0.5838   -2.5745 C   0  0  0  0  0  0  0  0  0  0  0  0
   -1.2689   -0.3144   -2.5920 H   0  0  0  0  0  0  0  0  0  0  0  0
   -1.3338    1.4380   -2.5912 H   0  0  0  0  0  0  0  0  0  0  0  0
    0.1486    0.6119   -3.8849 C   0  0  0  0  0  0  0  0  0  0  0  0
    0.8967   -0.1868   -3.8952 H   0  0  0  0  0  0  0  0  0  0  0  0
   -0.5270    0.4592   -4.7319 H   0  0  0  0  0  0  0  0  0  0  0  0
    0.6507    1.5732   -4.0267 H   0  0  0  0  0  0  0  0  0  0  0  0
    1.0077   -0.4938    0.8766 C   0  0  0  0  0  0  0  0  0  0  0  0
    2.2216   -0.5980    0.9964 O   0  0  0  0  0  0  0  0  0  0  0  0
    0.2608   -0.0518    1.9539 N   0  0  0  0  0  0  0  0  0  0  0  0
   -0.7467   -0.0808    1.8432 H   0  0  0  0  0  0  0  0  0  0  0  0
    0.8177    0.0922    3.2929 C   0  0  0  0  0  0  0  0  0  0  0  0
    1.6558    0.7970    3.2864 H   0  0  0  0  0  0  0  0  0  0  0  0
    0.0558    0.4703    3.9810 H   0  0  0  0  0  0  0  0  0  0  0  0
    1.1735   -0.8748    3.6640 H   0  0  0  0  0  0  0  0  0  0  0  0
  1  2  1  0  0  0  0
  2  3  1  0  0  0  0
  2  4  1  0  0  0  0
  2  5  1  0  0  0  0
  5  6  2  0  0  0  0
  5  7  1  0  0  0  0
  7  8  1  0  0  0  0
  7  9  1  0  0  0  0
  9 10  1  0  0  0  0
  9 11  1  0  0  0  0
  9 24  1  0  0  0  0
 11 12  1  0  0  0  0
 11 13  1  0  0  0  0
 11 17  1  0  0  0  0
 13 14  1  0  0  0  0
 13 15  1  0  0  0  0
 13 16  1  0  0  0  0
 17 18  1  0  0  0  0
 17 19  1  0  0  0  0
 17 20  1  0  0  0  0
 20 21  1  0  0  0  0
 20 22  1  0  0  0  0
 20 23  1  0  0  0  0
 24 25  2  0  0  0  0
 24 26  1  0  0  0  0
 26 27  1  0  0  0  0
 26 28  1  0  0  0  0
 28 29  1  0  0  0  0
 28 30  1  0  0  0  0
 28 31  1  0  0  0  0
M  END
$$$$

  -OEChem-03222214053D

 31 30  0     1  0  0  0  0  0999 V2000
   -2.5025   -4.2883    0.4543 H   0  0  0  0  0  0  0  0  0  0  0  0
   -2.5380   -3.2758    0.0419 C   0  0  0  0  0  0  0  0  0  0  0  0
   -3.2379   -2.6802    0.6328 H   0  0  0  0  0  0  0  0  0  0  0  0
   -2.8942   -3.3299   -0.9896 H   0  0  0  0  0  0  0  0  0  0  0  0
   -1.1576   -2.6474    0.0820 C   0  0  0  0  0  0  0  0  0  0  0  0
   -0.2239   -3.2679    0.5559 O   0  0  0  0  0  0  0  0  0  0  0  0
   -0.9725   -1.3747   -0.4213 N   0  0  0  0  0  0  0  0  0  0  0  0
   -1.7764   -0.9334   -0.8561 H   0  0  0  0  0  0  0  0  0  0  0  0
    0.3312   -0.6839   -0.5040 C   0  0  1  0  0  0  0  0  0  0  0  0
    1.0046   -1.3229   -1.0866 H   0  0  0  0  0  0  0  0  0  0  0  0
    0.1971    0.6728   -1.2589 C   0  0  1  0  0  0  0  0  0  0  0  0
   -0.3594    1.3389   -0.5907 H   0  0  0  0  0  0  0  0  0  0  0  0
    1.5692    1.3326   -1.4970 C   0  0  0  0  0  0  0  0  0  0  0  0
    2.2450    0.6528   -2.0255 H   0  0  0  0  0  0  0  0  0  0  0  0
    1.4560    2.2475   -2.0867 H   0  0  0  0  0  0  0  0  0  0  0  0
    2.0372    1.6098   -0.5477 H   0  0  0  0  0  0  0  0  0  0  0  0
   -0.6475    0.5879   -2.5658 C   0  0  0  0  0  0  0  0  0  0  0  0
   -1.4637   -0.1315   -2.4774 H   0  0  0  0  0  0  0  0  0  0  0  0
   -1.1146    1.5652   -2.7264 H   0  0  0  0  0  0  0  0  0  0  0  0
    0.1615    0.2573   -3.8260 C   0  0  0  0  0  0  0  0  0  0  0  0
    0.7241   -0.6710   -3.6857 H   0  0  0  0  0  0  0  0  0  0  0  0
   -0.5141    0.1260   -4.6767 H   0  0  0  0  0  0  0  0  0  0  0  0
    0.8609    1.0612   -4.0733 H   0  0  0  0  0  0  0  0  0  0  0  0
    1.0044   -0.4960    0.8771 C   0  0  0  0  0  0  0  0  0  0  0  0
    2.2200   -0.5870    0.9907 O   0  0  0  0  0  0  0  0  0  0  0  0
    0.2596   -0.0539    1.9558 N   0  0  0  0  0  0  0  0  0  0  0  0
   -0.7482   -0.0938    1.8508 H   0  0  0  0  0  0  0  0  0  0  0  0
    0.8222    0.1019    3.2910 C   0  0  0  0  0  0  0  0  0  0  0  0
    1.6535    0.8148    3.2766 H   0  0  0  0  0  0  0  0  0  0  0  0
    0.0604    0.4761    3.9815 H   0  0  0  0  0  0  0  0  0  0  0  0
    1.1893   -0.8597    3.6649 H   0  0  0  0  0  0  0  0  0  0  0  0
  1  2  1  0  0  0  0
  2  3  1  0  0  0  0
  2  4  1  0  0  0  0
  2  5  1  0  0  0  0
  5  6  2  0  0  0  0
  5  7  1  0  0  0  0
  7  8  1  0  0  0  0
  7  9  1  0  0  0  0
  9 10  1  0  0  0  0
  9 11  1  0  0  0  0
  9 24  1  0  0  0  0
 11 12  1  0  0  0  0
 11 13  1  0  0  0  0
 11 17  1  0  0  0  0
 13 14  1  0  0  0  0
 13 15  1  0  0  0  0
 13 16  1  0  0  0  0
 17 18  1  0  0  0  0
 17 19  1  0  0  0  0
 17 20  1  0  0  0  0
 20 21  1  0  0  0  0
 20 22  1  0  0  0  0
 20 23  1  0  0  0  0
 24 25  2  0  0  0  0
 24 26  1  0  0  0  0
 26 27  1  0  0  0  0
 26 28  1  0  0  0  0
 28 29  1  0  0  0  0
 28 30  1  0  0  0  0
 28 31  1  0  0  0  0
M  END
$$$$

  -OEChem-03222214053D

 31 30  0     1  0  0  0  0  0999 V2000
   -2.5010   -4.2951    0.4301 H   0  0  0  0  0  0  0  0  0  0  0  0
   -2.5361   -3.2811    0.0216 C   0  0  0  0  0  0  0  0  0  0  0  0
   -3.2456   -2.6913    0.6066 H   0  0  0  0  0  0  0  0  0  0  0  0
   -2.8800   -3.3320   -1.0143 H   0  0  0  0  0  0  0  0  0  0  0  0
   -1.1588   -2.6470    0.0809 C   0  0  0  0  0  0  0  0  0  0  0  0
   -0.2295   -3.2625    0.5701 O   0  0  0  0  0  0  0  0  0  0  0  0
   -0.9709   -1.3743   -0.4219 N   0  0  0  0  0  0  0  0  0  0  0  0
   -1.7684   -0.9395   -0.8744 H   0  0  0  0  0  0  0  0  0  0  0  0
    0.3336   -0.6847   -0.4970 C   0  0  1  0  0  0  0  0  0  0  0  0
    1.0099   -1.3224   -1.0768 H   0  0  0  0  0  0  0  0  0  0  0  0
    0.1944    0.6737   -1.2451 C   0  0  1  0  0  0  0  0  0  0  0  0
   -0.3488    1.3512   -0.5774 H   0  0  0  0  0  0  0  0  0  0  0  0
    1.5686    1.3133   -1.5170 C   0  0  0  0  0  0  0  0  0  0  0  0
    2.2378    0.6080   -2.0194 H   0  0  0  0  0  0  0  0  0  0  0  0
    1.4595    2.2021   -2.1461 H   0  0  0  0  0  0  0  0  0  0  0  0
    2.0417    1.6240   -0.5805 H   0  0  0  0  0  0  0  0  0  0  0  0
   -0.6480    0.5887   -2.5470 C   0  0  0  0  0  0  0  0  0  0  0  0
   -1.5941    0.0714   -2.3722 H   0  0  0  0  0  0  0  0  0  0  0  0
   -0.9061    1.6083   -2.8520 H   0  0  0  0  0  0  0  0  0  0  0  0
    0.0816   -0.0783   -3.7191 C   0  0  0  0  0  0  0  0  0  0  0  0
    0.4128   -1.0844   -3.4443 H   0  0  0  0  0  0  0  0  0  0  0  0
   -0.5925   -0.1599   -4.5769 H   0  0  0  0  0  0  0  0  0  0  0  0
    0.9523    0.5068   -4.0292 H   0  0  0  0  0  0  0  0  0  0  0  0
    1.0044   -0.4938    0.8845 C   0  0  0  0  0  0  0  0  0  0  0  0
    2.2206   -0.5773    0.9972 O   0  0  0  0  0  0  0  0  0  0  0  0
    0.2584   -0.0492    1.9612 N   0  0  0  0  0  0  0  0  0  0  0  0
   -0.7493   -0.0937    1.8568 H   0  0  0  0  0  0  0  0  0  0  0  0
    0.8208    0.1137    3.2957 C   0  0  0  0  0  0  0  0  0  0  0  0
    1.6517    0.8269    3.2778 H   0  0  0  0  0  0  0  0  0  0  0  0
    0.0588    0.4910    3.9842 H   0  0  0  0  0  0  0  0  0  0  0  0
    1.1885   -0.8459    3.6742 H   0  0  0  0  0  0  0  0  0  0  0  0
  1  2  1  0  0  0  0
  2  3  1  0  0  0  0
  2  4  1  0  0  0  0
  2  5  1  0  0  0  0
  5  6  2  0  0  0  0
  5  7  1  0  0  0  0
  7  8  1  0  0  0  0
  7  9  1  0  0  0  0
  9 10  1  0  0  0  0
  9 11  1  0  0  0  0
  9 24  1  0  0  0  0
 11 12  1  0  0  0  0
 11 13  1  0  0  0  0
 11 17  1  0  0  0  0
 13 14  1  0  0  0  0
 13 15  1  0  0  0  0
 13 16  1  0  0  0  0
 17 18  1  0  0  0  0
 17 19  1  0  0  0  0
 17 20  1  0  0  0  0
 20 21  1  0  0  0  0
 20 22  1  0  0  0  0
 20 23  1  0  0  0  0
 24 25  2  0  0  0  0
 24 26  1  0  0  0  0
 26 27  1  0  0  0  0
 26 28  1  0  0  0  0
 28 29  1  0  0  0  0
 28 30  1  0  0  0  0
 28 31  1  0  0  0  0
M  END
$$$$

  -OEChem-03222214053D

 31 30  0     1  0  0  0  0  0999 V2000
   -2.4941   -4.2973    0.4074 H   0  0  0  0  0  0  0  0  0  0  0  0
   -2.5253   -3.2841   -0.0036 C   0  0  0  0  0  0  0  0  0  0  0  0
   -3.2527   -2.6974    0.5624 H   0  0  0  0  0  0  0  0  0  0  0  0
   -2.8424   -3.3390   -1.0478 H   0  0  0  0  0  0  0  0  0  0  0  0
   -1.1543   -2.6412    0.0896 C   0  0  0  0  0  0  0  0  0  0  0  0
   -0.2347   -3.2497    0.6050 O   0  0  0  0  0  0  0  0  0  0  0  0
   -0.9604   -1.3714   -0.4173 N   0  0  0  0  0  0  0  0  0  0  0  0
   -1.7427   -0.9541   -0.9113 H   0  0  0  0  0  0  0  0  0  0  0  0
    0.3469   -0.6866   -0.4851 C   0  0  1  0  0  0  0  0  0  0  0  0
    1.0285   -1.3223   -1.0610 H   0  0  0  0  0  0  0  0  0  0  0  0
    0.1941    0.6719   -1.2279 C   0  0  1  0  0  0  0  0  0  0  0  0
   -0.3301    1.3618   -0.5580 H   0  0  0  0  0  0  0  0  0  0  0  0
    1.5715    1.2869   -1.5372 C   0  0  0  0  0  0  0  0  0  0  0  0
    2.2126    0.5713   -2.0611 H   0  0  0  0  0  0  0  0  0  0  0  0
    1.4638    2.1799   -2.1603 H   0  0  0  0  0  0  0  0  0  0  0  0
    2.0769    1.5846   -0.6134 H   0  0  0  0  0  0  0  0  0  0  0  0
   -0.6520    0.5863   -2.5250 C   0  0  0  0  0  0  0  0  0  0  0  0
   -1.6757    0.2856   -2.2849 H   0  0  0  0  0  0  0  0  0  0  0  0
   -0.7180    1.5862   -2.9665 H   0  0  0  0  0  0  0  0  0  0  0  0
   -0.0866   -0.3708   -3.5822 C   0  0  0  0  0  0  0  0  0  0  0  0
   -0.0244   -1.3918   -3.1945 H   0  0  0  0  0  0  0  0  0  0  0  0
   -0.7385   -0.3788   -4.4610 H   0  0  0  0  0  0  0  0  0  0  0  0
    0.9105   -0.0556   -3.9025 H   0  0  0  0  0  0  0  0  0  0  0  0
    1.0101   -0.4908    0.8992 C   0  0  0  0  0  0  0  0  0  0  0  0
    2.2256   -0.5756    1.0192 O   0  0  0  0  0  0  0  0  0  0  0  0
    0.2583   -0.0381    1.9686 N   0  0  0  0  0  0  0  0  0  0  0  0
   -0.7488   -0.0815    1.8576 H   0  0  0  0  0  0  0  0  0  0  0  0
    0.8119    0.1307    3.3059 C   0  0  0  0  0  0  0  0  0  0  0  0
    1.6427    0.8439    3.2898 H   0  0  0  0  0  0  0  0  0  0  0  0
    0.0454    0.5108    3.9878 H   0  0  0  0  0  0  0  0  0  0  0  0
    1.1770   -0.8272    3.6911 H   0  0  0  0  0  0  0  0  0  0  0  0
  1  2  1  0  0  0  0
  2  3  1  0  0  0  0
  2  4  1  0  0  0  0
  2  5  1  0  0  0  0
  5  6  2  0  0  0  0
  5  7  1  0  0  0  0
  7  8  1  0  0  0  0
  7  9  1  0  0  0  0
  9 10  1  0  0  0  0
  9 11  1  0  0  0  0
  9 24  1  0  0  0  0
 11 12  1  0  0  0  0
 11 13  1  0  0  0  0
 11 17  1  0  0  0  0
 13 14  1  0  0  0  0
 13 15  1  0  0  0  0
 13 16  1  0  0  0  0
 17 18  1  0  0  0  0
 17 19  1  0  0  0  0
 17 20  1  0  0  0  0
 20 21  1  0  0  0  0
 20 22  1  0  0  0  0
 20 23  1  0  0  0  0
 24 25  2  0  0  0  0
 24 26  1  0  0  0  0
 26 27  1  0  0  0  0
 26 28  1  0  0  0  0
 28 29  1  0  0  0  0
 28 30  1  0  0  0  0
 28 31  1  0  0  0  0
M  END
$$$$

  -OEChem-03222214053D

 31 30  0     1  0  0  0  0  0999 V2000
   -2.4811   -4.3107    0.3912 H   0  0  0  0  0  0  0  0  0  0  0  0
   -2.5122   -3.2949   -0.0132 C   0  0  0  0  0  0  0  0  0  0  0  0
   -3.2555   -2.7177    0.5417 H   0  0  0  0  0  0  0  0  0  0  0  0
   -2.8084   -3.3452   -1.0637 H   0  0  0  0  0  0  0  0  0  0  0  0
   -1.1487   -2.6419    0.1116 C   0  0  0  0  0  0  0  0  0  0  0  0
   -0.2388   -3.2398    0.6556 O   0  0  0  0  0  0  0  0  0  0  0  0
   -0.9502   -1.3754   -0.4019 N   0  0  0  0  0  0  0  0  0  0  0  0
   -1.7172   -0.9772   -0.9345 H   0  0  0  0  0  0  0  0  0  0  0  0
    0.3583   -0.6918   -0.4663 C   0  0  1  0  0  0  0  0  0  0  0  0
    1.0434   -1.3272   -1.0387 H   0  0  0  0  0  0  0  0  0  0  0  0
    0.1918    0.6621   -1.2150 C   0  0  1  0  0  0  0  0  0  0  0  0
   -0.3156    1.3633   -0.5436 H   0  0  0  0  0  0  0  0  0  0  0  0
    1.5710    1.2580   -1.5555 C   0  0  0  0  0  0  0  0  0  0  0  0
    2.1649    0.5550   -2.1476 H   0  0  0  0  0  0  0  0  0  0  0  0
    1.4608    2.1853   -2.1258 H   0  0  0  0  0  0  0  0  0  0  0  0
    2.1279    1.4965   -0.6445 H   0  0  0  0  0  0  0  0  0  0  0  0
   -0.6518    0.5866   -2.5165 C   0  0  0  0  0  0  0  0  0  0  0  0
   -1.7106    0.5197   -2.2475 H   0  0  0  0  0  0  0  0  0  0  0  0
   -0.5311    1.5180   -3.0795 H   0  0  0  0  0  0  0  0  0  0  0  0
   -0.3158   -0.5942   -3.4400 C   0  0  0  0  0  0  0  0  0  0  0  0
   -0.5468   -1.5546   -2.9730 H   0  0  0  0  0  0  0  0  0  0  0  0
   -0.9010   -0.5189   -4.3614 H   0  0  0  0  0  0  0  0  0  0  0  0
    0.7449   -0.5837   -3.7073 H   0  0  0  0  0  0  0  0  0  0  0  0
    1.0143   -0.4877    0.9205 C   0  0  0  0  0  0  0  0  0  0  0  0
    2.2291   -0.5721    1.0475 O   0  0  0  0  0  0  0  0  0  0  0  0
    0.2570   -0.0280    1.9829 N   0  0  0  0  0  0  0  0  0  0  0  0
   -0.7494   -0.0793    1.8686 H   0  0  0  0  0  0  0  0  0  0  0  0
    0.8041    0.1546    3.3210 C   0  0  0  0  0  0  0  0  0  0  0  0
    1.6346    0.8682    3.3018 H   0  0  0  0  0  0  0  0  0  0  0  0
    0.0344    0.5416    3.9952 H   0  0  0  0  0  0  0  0  0  0  0  0
    1.1677   -0.7989    3.7181 H   0  0  0  0  0  0  0  0  0  0  0  0
  1  2  1  0  0  0  0
  2  3  1  0  0  0  0
  2  4  1  0  0  0  0
  2  5  1  0  0  0  0
  5  6  2  0  0  0  0
  5  7  1  0  0  0  0
  7  8  1  0  0  0  0
  7  9  1  0  0  0  0
  9 10  1  0  0  0  0
  9 11  1  0  0  0  0
  9 24  1  0  0  0  0
 11 12  1  0  0  0  0
 11 13  1  0  0  0  0
 11 17  1  0  0  0  0
 13 14  1  0  0  0  0
 13 15  1  0  0  0  0
 13 16  1  0  0  0  0
 17 18  1  0  0  0  0
 17 19  1  0  0  0  0
 17 20  1  0  0  0  0
 20 21  1  0  0  0  0
 20 22  1  0  0  0  0
 20 23  1  0  0  0  0
 24 25  2  0  0  0  0
 24 26  1  0  0  0  0
 26 27  1  0  0  0  0
 26 28  1  0  0  0  0
 28 29  1  0  0  0  0
 28 30  1  0  0  0  0
 28 31  1  0  0  0  0
M  END
$$$$

  -OEChem-03222214053D

 31 30  0     1  0  0  0  0  0999 V2000
   -2.4369   -4.3296    0.4687 H   0  0  0  0  0  0  0  0  0  0  0  0
   -2.4794   -3.3181    0.0543 C   0  0  0  0  0  0  0  0  0  0  0  0
   -3.2133   -2.7375    0.6183 H   0  0  0  0  0  0  0  0  0  0  0  0
   -2.7960   -3.3801   -0.9895 H   0  0  0  0  0  0  0  0  0  0  0  0
   -1.1157   -2.6602    0.1455 C   0  0  0  0  0  0  0  0  0  0  0  0
   -0.1938   -3.2508    0.6773 O   0  0  0  0  0  0  0  0  0  0  0  0
   -0.9319   -1.3970   -0.3814 N   0  0  0  0  0  0  0  0  0  0  0  0
   -1.7107   -1.0013   -0.8988 H   0  0  0  0  0  0  0  0  0  0  0  0
    0.3664   -0.6982   -0.4550 C   0  0  1  0  0  0  0  0  0  0  0  0
    1.0588   -1.3331   -1.0193 H   0  0  0  0  0  0  0  0  0  0  0  0
    0.1895    0.6469   -1.2214 C   0  0  1  0  0  0  0  0  0  0  0  0
   -0.3083    1.3551   -0.5501 H   0  0  0  0  0  0  0  0  0  0  0  0
    1.5755    1.2265   -1.5662 C   0  0  0  0  0  0  0  0  0  0  0  0
    2.1323    0.5375   -2.2090 H   0  0  0  0  0  0  0  0  0  0  0  0
    1.4762    2.1839   -2.0867 H   0  0  0  0  0  0  0  0  0  0  0  0
    2.1640    1.4089   -0.6627 H   0  0  0  0  0  0  0  0  0  0  0  0
   -0.6442    0.6014   -2.5379 C   0  0  0  0  0  0  0  0  0  0  0  0
   -1.6908    0.7988   -2.2850 H   0  0  0  0  0  0  0  0  0  0  0  0
   -0.3274    1.4146   -3.1994 H   0  0  0  0  0  0  0  0  0  0  0  0
   -0.6044   -0.7123   -3.3347 C   0  0  0  0  0  0  0  0  0  0  0  0
   -1.1819   -1.5064   -2.8580 H   0  0  0  0  0  0  0  0  0  0  0  0
   -1.0325   -0.5485   -4.3281 H   0  0  0  0  0  0  0  0  0  0  0  0
    0.4286   -1.0510   -3.4602 H   0  0  0  0  0  0  0  0  0  0  0  0
    1.0124   -0.4763    0.9344 C   0  0  0  0  0  0  0  0  0  0  0  0
    2.2255   -0.5623    1.0757 O   0  0  0  0  0  0  0  0  0  0  0  0
    0.2425   -0.0179    1.9885 N   0  0  0  0  0  0  0  0  0  0  0  0
   -0.7624   -0.0723    1.8627 H   0  0  0  0  0  0  0  0  0  0  0  0
    0.7735    0.1599    3.3338 C   0  0  0  0  0  0  0  0  0  0  0  0
    1.6106    0.8658    3.3263 H   0  0  0  0  0  0  0  0  0  0  0  0
   -0.0020    0.5536    3.9976 H   0  0  0  0  0  0  0  0  0  0  0  0
    1.1236   -0.7969    3.7354 H   0  0  0  0  0  0  0  0  0  0  0  0
  1  2  1  0  0  0  0
  2  3  1  0  0  0  0
  2  4  1  0  0  0  0
  2  5  1  0  0  0  0
  5  6  2  0  0  0  0
  5  7  1  0  0  0  0
  7  8  1  0  0  0  0
  7  9  1  0  0  0  0
  9 10  1  0  0  0  0
  9 11  1  0  0  0  0
  9 24  1  0  0  0  0
 11 12  1  0  0  0  0
 11 13  1  0  0  0  0
 11 17  1  0  0  0  0
 13 14  1  0  0  0  0
 13 15  1  0  0  0  0
 13 16  1  0  0  0  0
 17 18  1  0  0  0  0
 17 19  1  0  0  0  0
 17 20  1  0  0  0  0
 20 21  1  0  0  0  0
 20 22  1  0  0  0  0
 20 23  1  0  0  0  0
 24 25  2  0  0  0  0
 24 26  1  0  0  0  0
 26 27  1  0  0  0  0
 26 28  1  0  0  0  0
 28 29  1  0  0  0  0
 28 30  1  0  0  0  0
 28 31  1  0  0  0  0
M  END
$$$$

  -OEChem-03222214053D

 31 30  0     1  0  0  0  0  0999 V2000
   -2.4048   -4.3541    0.5432 H   0  0  0  0  0  0  0  0  0  0  0  0
   -2.4566   -3.3485    0.1161 C   0  0  0  0  0  0  0  0  0  0  0  0
   -3.1843   -2.7629    0.6826 H   0  0  0  0  0  0  0  0  0  0  0  0
   -2.7870   -3.4247   -0.9226 H   0  0  0  0  0  0  0  0  0  0  0  0
   -1.0941   -2.6848    0.1794 C   0  0  0  0  0  0  0  0  0  0  0  0
   -0.1600   -3.2686    0.6971 O   0  0  0  0  0  0  0  0  0  0  0  0
   -0.9258   -1.4237   -0.3576 N   0  0  0  0  0  0  0  0  0  0  0  0
   -1.7205   -1.0266   -0.8489 H   0  0  0  0  0  0  0  0  0  0  0  0
    0.3628   -0.7111   -0.4480 C   0  0  1  0  0  0  0  0  0  0  0  0
    1.0569   -1.3479   -1.0080 H   0  0  0  0  0  0  0  0  0  0  0  0
    0.1909    0.6286   -1.2319 C   0  0  1  0  0  0  0  0  0  0  0  0
   -0.3141    1.3322   -0.5608 H   0  0  0  0  0  0  0  0  0  0  0  0
    1.5790    1.2197   -1.5527 C   0  0  0  0  0  0  0  0  0  0  0  0
    2.1480    0.5381   -2.1931 H   0  0  0  0  0  0  0  0  0  0  0  0
    1.4801    2.1810   -2.0668 H   0  0  0  0  0  0  0  0  0  0  0  0
    2.1551    1.4011   -0.6411 H   0  0  0  0  0  0  0  0  0  0  0  0
   -0.6356    0.6118   -2.5616 C   0  0  0  0  0  0  0  0  0  0  0  0
   -1.5976    1.0964   -2.3660 H   0  0  0  0  0  0  0  0  0  0  0  0
   -0.1287    1.2292   -3.3106 H   0  0  0  0  0  0  0  0  0  0  0  0
   -0.9334   -0.7429   -3.2208 C   0  0  0  0  0  0  0  0  0  0  0  0
   -1.7434   -1.2729   -2.7150 H   0  0  0  0  0  0  0  0  0  0  0  0
   -1.2496   -0.5815   -4.2560 H   0  0  0  0  0  0  0  0  0  0  0  0
   -0.0382   -1.3725   -3.2325 H   0  0  0  0  0  0  0  0  0  0  0  0
    1.0102   -0.4763    0.9392 C   0  0  0  0  0  0  0  0  0  0  0  0
    2.2235   -0.5585    1.0810 O   0  0  0  0  0  0  0  0  0  0  0  0
    0.2383   -0.0219    1.9936 N   0  0  0  0  0  0  0  0  0  0  0  0
   -0.7664   -0.0805    1.8691 H   0  0  0  0  0  0  0  0  0  0  0  0
    0.7702    0.1658    3.3372 C   0  0  0  0  0  0  0  0  0  0  0  0
    1.6023    0.8779    3.3251 H   0  0  0  0  0  0  0  0  0  0  0  0
   -0.0070    0.5572    4.0004 H   0  0  0  0  0  0  0  0  0  0  0  0
    1.1271   -0.7867    3.7429 H   0  0  0  0  0  0  0  0  0  0  0  0
  1  2  1  0  0  0  0
  2  3  1  0  0  0  0
  2  4  1  0  0  0  0
  2  5  1  0  0  0  0
  5  6  2  0  0  0  0
  5  7  1  0  0  0  0
  7  8  1  0  0  0  0
  7  9  1  0  0  0  0
  9 10  1  0  0  0  0
  9 11  1  0  0  0  0
  9 24  1  0  0  0  0
 11 12  1  0  0  0  0
 11 13  1  0  0  0  0
 11 17  1  0  0  0  0
 13 14  1  0  0  0  0
 13 15  1  0  0  0  0
 13 16  1  0  0  0  0
 17 18  1  0  0  0  0
 17 19  1  0  0  0  0
 17 20  1  0  0  0  0
 20 21  1  0  0  0  0
 20 22  1  0  0  0  0
 20 23  1  0  0  0  0
 24 25  2  0  0  0  0
 24 26  1  0  0  0  0
 26 27  1  0  0  0  0
 26 28  1  0  0  0  0
 28 29  1  0  0  0  0
 28 30  1  0  0  0  0
 28 31  1  0  0  0  0
M  END
$$$$

  -OEChem-03222214053D

 31 30  0     1  0  0  0  0  0999 V2000
   -2.3835   -4.3773    0.6150 H   0  0  0  0  0  0  0  0  0  0  0  0
   -2.4467   -3.3755    0.1802 C   0  0  0  0  0  0  0  0  0  0  0  0
   -3.1606   -2.7854    0.7596 H   0  0  0  0  0  0  0  0  0  0  0  0
   -2.8038   -3.4618   -0.8489 H   0  0  0  0  0  0  0  0  0  0  0  0
   -1.0833   -2.7103    0.2029 C   0  0  0  0  0  0  0  0  0  0  0  0
   -0.1341   -3.2932    0.6935 O   0  0  0  0  0  0  0  0  0  0  0  0
   -0.9316   -1.4486   -0.3382 N   0  0  0  0  0  0  0  0  0  0  0  0
   -1.7447   -1.0431   -0.7902 H   0  0  0  0  0  0  0  0  0  0  0  0
    0.3484   -0.7238   -0.4459 C   0  0  1  0  0  0  0  0  0  0  0  0
    1.0397   -1.3641   -1.0052 H   0  0  0  0  0  0  0  0  0  0  0  0
    0.1894    0.6119   -1.2452 C   0  0  1  0  0  0  0  0  0  0  0  0
   -0.3358    1.3013   -0.5751 H   0  0  0  0  0  0  0  0  0  0  0  0
    1.5731    1.2295   -1.5318 C   0  0  0  0  0  0  0  0  0  0  0  0
    2.1819    0.5462   -2.1325 H   0  0  0  0  0  0  0  0  0  0  0  0
    1.4682    2.1735   -2.0760 H   0  0  0  0  0  0  0  0  0  0  0  0
    2.1103    1.4494   -0.6051 H   0  0  0  0  0  0  0  0  0  0  0  0
   -0.6263    0.6213   -2.5849 C   0  0  0  0  0  0  0  0  0  0  0  0
   -1.4245    1.3645   -2.4889 H   0  0  0  0  0  0  0  0  0  0  0  0
    0.0272    0.9734   -3.3903 H   0  0  0  0  0  0  0  0  0  0  0  0
   -1.2586   -0.6769   -3.1008 C   0  0  0  0  0  0  0  0  0  0  0  0
   -2.1417   -0.9491   -2.5176 H   0  0  0  0  0  0  0  0  0  0  0  0
   -1.5822   -0.5384   -4.1371 H   0  0  0  0  0  0  0  0  0  0  0  0
   -0.5348   -1.4976   -3.0788 H   0  0  0  0  0  0  0  0  0  0  0  0
    1.0060   -0.4824    0.9359 C   0  0  0  0  0  0  0  0  0  0  0  0
    2.2212   -0.5547    1.0676 O   0  0  0  0  0  0  0  0  0  0  0  0
    0.2398   -0.0350    1.9975 N   0  0  0  0  0  0  0  0  0  0  0  0
   -0.7656   -0.0984    1.8817 H   0  0  0  0  0  0  0  0  0  0  0  0
    0.7825    0.1612    3.3357 C   0  0  0  0  0  0  0  0  0  0  0  0
    1.6105    0.8775    3.3130 H   0  0  0  0  0  0  0  0  0  0  0  0
    0.0091    0.5515    4.0039 H   0  0  0  0  0  0  0  0  0  0  0  0
    1.1487   -0.7874    3.7423 H   0  0  0  0  0  0  0  0  0  0  0  0
  1  2  1  0  0  0  0
  2  3  1  0  0  0  0
  2  4  1  0  0  0  0
  2  5  1  0  0  0  0
  5  6  2  0  0  0  0
  5  7  1  0  0  0  0
  7  8  1  0  0  0  0
  7  9  1  0  0  0  0
  9 10  1  0  0  0  0
  9 11  1  0  0  0  0
  9 24  1  0  0  0  0
 11 12  1  0  0  0  0
 11 13  1  0  0  0  0
 11 17  1  0  0  0  0
 13 14  1  0  0  0  0
 13 15  1  0  0  0  0
 13 16  1  0  0  0  0
 17 18  1  0  0  0  0
 17 19  1  0  0  0  0
 17 20  1  0  0  0  0
 20 21  1  0  0  0  0
 20 22  1  0  0  0  0
 20 23  1  0  0  0  0
 24 25  2  0  0  0  0
 24 26  1  0  0  0  0
 26 27  1  0  0  0  0
 26 28  1  0  0  0  0
 28 29  1  0  0  0  0
 28 30  1  0  0  0  0
 28 31  1  0  0  0  0
M  END
$$$$

  -OEChem-03222214053D

 31 30  0     1  0  0  0  0  0999 V2000
   -2.3626   -4.3996    0.6554 H   0  0  0  0  0  0  0  0  0  0  0  0
   -2.4376   -3.3983    0.2214 C   0  0  0  0  0  0  0  0  0  0  0  0
   -3.1434   -2.8104    0.8130 H   0  0  0  0  0  0  0  0  0  0  0  0
   -2.8123   -3.4867   -0.8013 H   0  0  0  0  0  0  0  0  0  0  0  0
   -1.0768   -2.7275    0.2195 C   0  0  0  0  0  0  0  0  0  0  0  0
   -0.1158   -3.3073    0.6903 O   0  0  0  0  0  0  0  0  0  0  0  0
   -0.9406   -1.4648   -0.3236 N   0  0  0  0  0  0  0  0  0  0  0  0
   -1.7653   -1.0598   -0.7536 H   0  0  0  0  0  0  0  0  0  0  0  0
    0.3324   -0.7302   -0.4449 C   0  0  1  0  0  0  0  0  0  0  0  0
    1.0208   -1.3720   -1.0062 H   0  0  0  0  0  0  0  0  0  0  0  0
    0.1835    0.6041   -1.2504 C   0  0  1  0  0  0  0  0  0  0  0  0
   -0.3532    1.2843   -0.5800 H   0  0  0  0  0  0  0  0  0  0  0  0
    1.5627    1.2344   -1.5255 C   0  0  0  0  0  0  0  0  0  0  0  0
    2.1961    0.5424   -2.0898 H   0  0  0  0  0  0  0  0  0  0  0  0
    1.4545    2.1579   -2.1032 H   0  0  0  0  0  0  0  0  0  0  0  0
    2.0741    1.4913   -0.5933 H   0  0  0  0  0  0  0  0  0  0  0  0
   -0.6244    0.6334   -2.5923 C   0  0  0  0  0  0  0  0  0  0  0  0
   -1.2095    1.5588   -2.6126 H   0  0  0  0  0  0  0  0  0  0  0  0
    0.0935    0.6990   -3.4173 H   0  0  0  0  0  0  0  0  0  0  0  0
   -1.5562   -0.5240   -2.9629 C   0  0  0  0  0  0  0  0  0  0  0  0
   -2.4117   -0.5721   -2.2836 H   0  0  0  0  0  0  0  0  0  0  0  0
   -1.9451   -0.3699   -3.9742 H   0  0  0  0  0  0  0  0  0  0  0  0
   -1.0179   -1.4769   -2.9530 H   0  0  0  0  0  0  0  0  0  0  0  0
    1.0002   -0.4845    0.9310 C   0  0  0  0  0  0  0  0  0  0  0  0
    2.2169   -0.5474    1.0523 O   0  0  0  0  0  0  0  0  0  0  0  0
    0.2399   -0.0434    1.9995 N   0  0  0  0  0  0  0  0  0  0  0  0
   -0.7661   -0.1078    1.8905 H   0  0  0  0  0  0  0  0  0  0  0  0
    0.7919    0.1537    3.3338 C   0  0  0  0  0  0  0  0  0  0  0  0
    1.6166    0.8738    3.3061 H   0  0  0  0  0  0  0  0  0  0  0  0
    0.0219    0.5397    4.0083 H   0  0  0  0  0  0  0  0  0  0  0  0
    1.1647   -0.7942    3.7362 H   0  0  0  0  0  0  0  0  0  0  0  0
  1  2  1  0  0  0  0
  2  3  1  0  0  0  0
  2  4  1  0  0  0  0
  2  5  1  0  0  0  0
  5  6  2  0  0  0  0
  5  7  1  0  0  0  0
  7  8  1  0  0  0  0
  7  9  1  0  0  0  0
  9 10  1  0  0  0  0
  9 11  1  0  0  0  0
  9 24  1  0  0  0  0
 11 12  1  0  0  0  0
 11 13  1  0  0  0  0
 11 17  1  0  0  0  0
 13 14  1  0  0  0  0
 13 15  1  0  0  0  0
 13 16  1  0  0  0  0
 17 18  1  0  0  0  0
 17 19  1  0  0  0  0
 17 20  1  0  0  0  0
 20 21  1  0  0  0  0
 20 22  1  0  0  0  0
 20 23  1  0  0  0  0
 24 25  2  0  0  0  0
 24 26  1  0  0  0  0
 26 27  1  0  0  0  0
 26 28  1  0  0  0  0
 28 29  1  0  0  0  0
 28 30  1  0  0  0  0
 28 31  1  0  0  0  0
M  END
$$$$

  -OEChem-03222214053D

 31 30  0     1  0  0  0  0  0999 V2000
   -2.3509   -4.4132    0.6564 H   0  0  0  0  0  0  0  0  0  0  0  0
   -2.4322   -3.4129    0.2216 C   0  0  0  0  0  0  0  0  0  0  0  0
   -3.1436   -2.8302    0.8114 H   0  0  0  0  0  0  0  0  0  0  0  0
   -2.8046   -3.5045   -0.8016 H   0  0  0  0  0  0  0  0  0  0  0  0
   -1.0760   -2.7329    0.2222 C   0  0  0  0  0  0  0  0  0  0  0  0
   -0.1118   -3.3069    0.6936 O   0  0  0  0  0  0  0  0  0  0  0  0
   -0.9478   -1.4687   -0.3191 N   0  0  0  0  0  0  0  0  0  0  0  0
   -1.7737   -1.0724   -0.7549 H   0  0  0  0  0  0  0  0  0  0  0  0
    0.3214   -0.7293   -0.4450 C   0  0  1  0  0  0  0  0  0  0  0  0
    1.0082   -1.3697   -1.0097 H   0  0  0  0  0  0  0  0  0  0  0  0
    0.1756    0.6091   -1.2450 C   0  0  1  0  0  0  0  0  0  0  0  0
   -0.3554    1.2908   -0.5718 H   0  0  0  0  0  0  0  0  0  0  0  0
    1.5551    1.2309   -1.5345 C   0  0  0  0  0  0  0  0  0  0  0  0
    2.1826    0.5314   -2.0961 H   0  0  0  0  0  0  0  0  0  0  0  0
    1.4471    2.1488   -2.1212 H   0  0  0  0  0  0  0  0  0  0  0  0
    2.0726    1.4941   -0.6075 H   0  0  0  0  0  0  0  0  0  0  0  0
   -0.6328    0.6459   -2.5820 C   0  0  0  0  0  0  0  0  0  0  0  0
   -1.0013    1.6683   -2.7179 H   0  0  0  0  0  0  0  0  0  0  0  0
    0.0665    0.4483   -3.4018 H   0  0  0  0  0  0  0  0  0  0  0  0
   -1.8091   -0.3087   -2.8027 C   0  0  0  0  0  0  0  0  0  0  0  0
   -2.5687   -0.1750   -2.0269 H   0  0  0  0  0  0  0  0  0  0  0  0
   -2.2754   -0.0952   -3.7695 H   0  0  0  0  0  0  0  0  0  0  0  0
   -1.4721   -1.3493   -2.8209 H   0  0  0  0  0  0  0  0  0  0  0  0
    0.9949   -0.4837    0.9281 C   0  0  0  0  0  0  0  0  0  0  0  0
    2.2124   -0.5432    1.0435 O   0  0  0  0  0  0  0  0  0  0  0  0
    0.2385   -0.0475    2.0014 N   0  0  0  0  0  0  0  0  0  0  0  0
   -0.7679   -0.1148    1.8979 H   0  0  0  0  0  0  0  0  0  0  0  0
    0.7977    0.1518    3.3320 C   0  0  0  0  0  0  0  0  0  0  0  0
    1.6130    0.8822    3.2994 H   0  0  0  0  0  0  0  0  0  0  0  0
    0.0282    0.5256    4.0139 H   0  0  0  0  0  0  0  0  0  0  0  0
    1.1857   -0.7926    3.7280 H   0  0  0  0  0  0  0  0  0  0  0  0
  1  2  1  0  0  0  0
  2  3  1  0  0  0  0
  2  4  1  0  0  0  0
  2  5  1  0  0  0  0
  5  6  2  0  0  0  0
  5  7  1  0  0  0  0
  7  8  1  0  0  0  0
  7  9  1  0  0  0  0
  9 10  1  0  0  0  0
  9 11  1  0  0  0  0
  9 24  1  0  0  0  0
 11 12  1  0  0  0  0
 11 13  1  0  0  0  0
 11 17  1  0  0  0  0
 13 14  1  0  0  0  0
 13 15  1  0  0  0  0
 13 16  1  0  0  0  0
 17 18  1  0  0  0  0
 17 19  1  0  0  0  0
 17 20  1  0  0  0  0
 20 21  1  0  0  0  0
 20 22  1  0  0  0  0
 20 23  1  0  0  0  0
 24 25  2  0  0  0  0
 24 26  1  0  0  0  0
 26 27  1  0  0  0  0
 26 28  1  0  0  0  0
 28 29  1  0  0  0  0
 28 30  1  0  0  0  0
 28 31  1  0  0  0  0
M  END
$$$$

  -OEChem-03222214053D

 31 30  0     1  0  0  0  0  0999 V2000
   -2.3520   -4.4083    0.6348 H   0  0  0  0  0  0  0  0  0  0  0  0
   -2.4340   -3.4065    0.2033 C   0  0  0  0  0  0  0  0  0  0  0  0
   -3.1436   -2.8255    0.7968 H   0  0  0  0  0  0  0  0  0  0  0  0
   -2.8085   -3.4951   -0.8192 H   0  0  0  0  0  0  0  0  0  0  0  0
   -1.0779   -2.7262    0.2027 C   0  0  0  0  0  0  0  0  0  0  0  0
   -0.1127   -3.3020    0.6699 O   0  0  0  0  0  0  0  0  0  0  0  0
   -0.9509   -1.4584   -0.3309 N   0  0  0  0  0  0  0  0  0  0  0  0
   -1.7788   -1.0580   -0.7594 H   0  0  0  0  0  0  0  0  0  0  0  0
    0.3170   -0.7168   -0.4519 C   0  0  1  0  0  0  0  0  0  0  0  0
    1.0044   -1.3526   -1.0213 H   0  0  0  0  0  0  0  0  0  0  0  0
    0.1686    0.6274   -1.2406 C   0  0  1  0  0  0  0  0  0  0  0  0
   -0.3490    1.3179   -0.5657 H   0  0  0  0  0  0  0  0  0  0  0  0
    1.5518    1.2288   -1.5537 C   0  0  0  0  0  0  0  0  0  0  0  0
    2.1593    0.5216   -2.1275 H   0  0  0  0  0  0  0  0  0  0  0  0
    1.4492    2.1495   -2.1365 H   0  0  0  0  0  0  0  0  0  0  0  0
    2.0889    1.4818   -0.6352 H   0  0  0  0  0  0  0  0  0  0  0  0
   -0.6447    0.6515   -2.5707 C   0  0  0  0  0  0  0  0  0  0  0  0
   -0.8144    1.7018   -2.8313 H   0  0  0  0  0  0  0  0  0  0  0  0
   -0.0220    0.2201   -3.3618 H   0  0  0  0  0  0  0  0  0  0  0  0
   -1.9997   -0.0584   -2.6361 C   0  0  0  0  0  0  0  0  0  0  0  0
   -2.6242    0.2209   -1.7820 H   0  0  0  0  0  0  0  0  0  0  0  0
   -2.5231    0.2365   -3.5510 H   0  0  0  0  0  0  0  0  0  0  0  0
   -1.8745   -1.1444   -2.6666 H   0  0  0  0  0  0  0  0  0  0  0  0
    0.9907   -0.4784    0.9224 C   0  0  0  0  0  0  0  0  0  0  0  0
    2.2083   -0.5357    1.0366 O   0  0  0  0  0  0  0  0  0  0  0  0
    0.2346   -0.0495    1.9988 N   0  0  0  0  0  0  0  0  0  0  0  0
   -0.7719   -0.1173    1.8957 H   0  0  0  0  0  0  0  0  0  0  0  0
    0.7948    0.1419    3.3304 C   0  0  0  0  0  0  0  0  0  0  0  0
    1.6092    0.8734    3.3025 H   0  0  0  0  0  0  0  0  0  0  0  0
    0.0252    0.5102    4.0154 H   0  0  0  0  0  0  0  0  0  0  0  0
    1.1848   -0.8043    3.7204 H   0  0  0  0  0  0  0  0  0  0  0  0
  1  2  1  0  0  0  0
  2  3  1  0  0  0  0
  2  4  1  0  0  0  0
  2  5  1  0  0  0  0
  5  6  2  0  0  0  0
  5  7  1  0  0  0  0
  7  8  1  0  0  0  0
  7  9  1  0  0  0  0
  9 10  1  0  0  0  0
  9 11  1  0  0  0  0
  9 24  1  0  0  0  0
 11 12  1  0  0  0  0
 11 13  1  0  0  0  0
 11 17  1  0  0  0  0
 13 14  1  0  0  0  0
 13 15  1  0  0  0  0
 13 16  1  0  0  0  0
 17 18  1  0  0  0  0
 17 19  1  0  0  0  0
 17 20  1  0  0  0  0
 20 21  1  0  0  0  0
 20 22  1  0  0  0  0
 20 23  1  0  0  0  0
 24 25  2  0  0  0  0
 24 26  1  0  0  0  0
 26 27  1  0  0  0  0
 26 28  1  0  0  0  0
 28 29  1  0  0  0  0
 28 30  1  0  0  0  0
 28 31  1  0  0  0  0
M  END
$$$$

  -OEChem-03222214053D

 31 30  0     1  0  0  0  0  0999 V2000
   -2.3746   -4.3805    0.5881 H   0  0  0  0  0  0  0  0  0  0  0  0
   -2.4474   -3.3740    0.1660 C   0  0  0  0  0  0  0  0  0  0  0  0
   -3.1472   -2.7898    0.7682 H   0  0  0  0  0  0  0  0  0  0  0  0
   -2.8281   -3.4488   -0.8554 H   0  0  0  0  0  0  0  0  0  0  0  0
   -1.0836   -2.7093    0.1640 C   0  0  0  0  0  0  0  0  0  0  0  0
   -0.1209   -3.3006    0.6169 O   0  0  0  0  0  0  0  0  0  0  0  0
   -0.9474   -1.4374   -0.3565 N   0  0  0  0  0  0  0  0  0  0  0  0
   -1.7778   -1.0159   -0.7588 H   0  0  0  0  0  0  0  0  0  0  0  0
    0.3233   -0.6995   -0.4628 C   0  0  1  0  0  0  0  0  0  0  0  0
    1.0119   -1.3298   -1.0369 H   0  0  0  0  0  0  0  0  0  0  0  0
    0.1680    0.6508   -1.2351 C   0  0  1  0  0  0  0  0  0  0  0  0
   -0.3346    1.3521   -0.5602 H   0  0  0  0  0  0  0  0  0  0  0  0
    1.5533    1.2336   -1.5744 C   0  0  0  0  0  0  0  0  0  0  0  0
    2.1318    0.5260   -2.1768 H   0  0  0  0  0  0  0  0  0  0  0  0
    1.4539    2.1669   -2.1374 H   0  0  0  0  0  0  0  0  0  0  0  0
    2.1195    1.4601   -0.6665 H   0  0  0  0  0  0  0  0  0  0  0  0
   -0.6543    0.6399   -2.5561 C   0  0  0  0  0  0  0  0  0  0  0  0
   -0.6454    1.6581   -2.9594 H   0  0  0  0  0  0  0  0  0  0  0  0
   -0.1468   -0.0013   -3.2848 H   0  0  0  0  0  0  0  0  0  0  0  0
   -2.1233    0.2083   -2.4799 C   0  0  0  0  0  0  0  0  0  0  0  0
   -2.6042    0.6271   -1.5906 H   0  0  0  0  0  0  0  0  0  0  0  0
   -2.6576    0.5735   -3.3624 H   0  0  0  0  0  0  0  0  0  0  0  0
   -2.2179   -0.8807   -2.4716 H   0  0  0  0  0  0  0  0  0  0  0  0
    0.9919   -0.4744    0.9158 C   0  0  0  0  0  0  0  0  0  0  0  0
    2.2090   -0.5335    1.0346 O   0  0  0  0  0  0  0  0  0  0  0  0
    0.2312   -0.0518    1.9914 N   0  0  0  0  0  0  0  0  0  0  0  0
   -0.7747   -0.1191    1.8836 H   0  0  0  0  0  0  0  0  0  0  0  0
    0.7849    0.1332    3.3266 C   0  0  0  0  0  0  0  0  0  0  0  0
    1.5985    0.8662    3.3065 H   0  0  0  0  0  0  0  0  0  0  0  0
    0.0115    0.4969    4.0098 H   0  0  0  0  0  0  0  0  0  0  0  0
    1.1741   -0.8148    3.7132 H   0  0  0  0  0  0  0  0  0  0  0  0
  1  2  1  0  0  0  0
  2  3  1  0  0  0  0
  2  4  1  0  0  0  0
  2  5  1  0  0  0  0
  5  6  2  0  0  0  0
  5  7  1  0  0  0  0
  7  8  1  0  0  0  0
  7  9  1  0  0  0  0
  9 10  1  0  0  0  0
  9 11  1  0  0  0  0
  9 24  1  0  0  0  0
 11 12  1  0  0  0  0
 11 13  1  0  0  0  0
 11 17  1  0  0  0  0
 13 14  1  0  0  0  0
 13 15  1  0  0  0  0
 13 16  1  0  0  0  0
 17 18  1  0  0  0  0
 17 19  1  0  0  0  0
 17 20  1  0  0  0  0
 20 21  1  0  0  0  0
 20 22  1  0  0  0  0
 20 23  1  0  0  0  0
 24 25  2  0  0  0  0
 24 26  1  0  0  0  0
 26 27  1  0  0  0  0
 26 28  1  0  0  0  0
 28 29  1  0  0  0  0
 28 30  1  0  0  0  0
 28 31  1  0  0  0  0
M  END
$$$$

  -OEChem-03222214053D

 31 30  0     1  0  0  0  0  0999 V2000
   -2.3981   -4.3461    0.5368 H   0  0  0  0  0  0  0  0  0  0  0  0
   -2.4635   -3.3335    0.1281 C   0  0  0  0  0  0  0  0  0  0  0  0
   -3.1504   -2.7493    0.7449 H   0  0  0  0  0  0  0  0  0  0  0  0
   -2.8558   -3.3911   -0.8900 H   0  0  0  0  0  0  0  0  0  0  0  0
   -1.0919   -2.6852    0.1196 C   0  0  0  0  0  0  0  0  0  0  0  0
   -0.1318   -3.2935    0.5551 O   0  0  0  0  0  0  0  0  0  0  0  0
   -0.9434   -1.4096   -0.3881 N   0  0  0  0  0  0  0  0  0  0  0  0
   -1.7737   -0.9633   -0.7615 H   0  0  0  0  0  0  0  0  0  0  0  0
    0.3333   -0.6797   -0.4744 C   0  0  1  0  0  0  0  0  0  0  0  0
    1.0245   -1.3047   -1.0512 H   0  0  0  0  0  0  0  0  0  0  0  0
    0.1703    0.6741   -1.2334 C   0  0  1  0  0  0  0  0  0  0  0  0
   -0.3232    1.3837   -0.5607 H   0  0  0  0  0  0  0  0  0  0  0  0
    1.5557    1.2472   -1.5883 C   0  0  0  0  0  0  0  0  0  0  0  0
    2.1076    0.5524   -2.2293 H   0  0  0  0  0  0  0  0  0  0  0  0
    1.4566    2.2010   -2.1155 H   0  0  0  0  0  0  0  0  0  0  0  0
    2.1484    1.4334   -0.6883 H   0  0  0  0  0  0  0  0  0  0  0  0
   -0.6590    0.6157   -2.5470 C   0  0  0  0  0  0  0  0  0  0  0  0
   -0.4823    1.5425   -3.1029 H   0  0  0  0  0  0  0  0  0  0  0  0
   -0.2984   -0.2081   -3.1720 H   0  0  0  0  0  0  0  0  0  0  0  0
   -2.1799    0.4949   -2.3779 C   0  0  0  0  0  0  0  0  0  0  0  0
   -2.5274    1.1075   -1.5403 H   0  0  0  0  0  0  0  0  0  0  0  0
   -2.6769    0.8457   -3.2878 H   0  0  0  0  0  0  0  0  0  0  0  0
   -2.4873   -0.5413   -2.2210 H   0  0  0  0  0  0  0  0  0  0  0  0
    0.9932   -0.4692    0.9107 C   0  0  0  0  0  0  0  0  0  0  0  0
    2.2088   -0.5383    1.0376 O   0  0  0  0  0  0  0  0  0  0  0  0
    0.2291   -0.0494    1.9853 N   0  0  0  0  0  0  0  0  0  0  0  0
   -0.7769   -0.1001    1.8692 H   0  0  0  0  0  0  0  0  0  0  0  0
    0.7759    0.1189    3.3257 C   0  0  0  0  0  0  0  0  0  0  0  0
    1.5920    0.8490    3.3185 H   0  0  0  0  0  0  0  0  0  0  0  0
    0.0002    0.4775    4.0087 H   0  0  0  0  0  0  0  0  0  0  0  0
    1.1594   -0.8345    3.7043 H   0  0  0  0  0  0  0  0  0  0  0  0
  1  2  1  0  0  0  0
  2  3  1  0  0  0  0
  2  4  1  0  0  0  0
  2  5  1  0  0  0  0
  5  6  2  0  0  0  0
  5  7  1  0  0  0  0
  7  8  1  0  0  0  0
  7  9  1  0  0  0  0
  9 10  1  0  0  0  0
  9 11  1  0  0  0  0
  9 24  1  0  0  0  0
 11 12  1  0  0  0  0
 11 13  1  0  0  0  0
 11 17  1  0  0  0  0
 13 14  1  0  0  0  0
 13 15  1  0  0  0  0
 13 16  1  0  0  0  0
 17 18  1  0  0  0  0
 17 19  1  0  0  0  0
 17 20  1  0  0  0  0
 20 21  1  0  0  0  0
 20 22  1  0  0  0  0
 20 23  1  0  0  0  0
 24 25  2  0  0  0  0
 24 26  1  0  0  0  0
 26 27  1  0  0  0  0
 26 28  1  0  0  0  0
 28 29  1  0  0  0  0
 28 30  1  0  0  0  0
 28 31  1  0  0  0  0
M  END
$$$$

  -OEChem-03222214053D

 31 30  0     1  0  0  0  0  0999 V2000
   -2.4198   -4.3427    0.4506 H   0  0  0  0  0  0  0  0  0  0  0  0
   -2.4748   -3.3312    0.0376 C   0  0  0  0  0  0  0  0  0  0  0  0
   -3.2062   -2.7568    0.6110 H   0  0  0  0  0  0  0  0  0  0  0  0
   -2.8033   -3.3944   -1.0026 H   0  0  0  0  0  0  0  0  0  0  0  0
   -1.1150   -2.6627    0.1128 C   0  0  0  0  0  0  0  0  0  0  0  0
   -0.1775   -3.2537    0.6161 O   0  0  0  0  0  0  0  0  0  0  0  0
   -0.9541   -1.3885   -0.3952 N   0  0  0  0  0  0  0  0  0  0  0  0
   -1.7468   -0.9943   -0.8875 H   0  0  0  0  0  0  0  0  0  0  0  0
    0.3329   -0.6738   -0.4767 C   0  0  1  0  0  0  0  0  0  0  0  0
    1.0188   -1.3009   -1.0574 H   0  0  0  0  0  0  0  0  0  0  0  0
    0.1734    0.6869   -1.2221 C   0  0  1  0  0  0  0  0  0  0  0  0
   -0.3082    1.4010   -0.5451 H   0  0  0  0  0  0  0  0  0  0  0  0
    1.5588    1.2518   -1.5887 C   0  0  0  0  0  0  0  0  0  0  0  0
    2.0965    0.5586   -2.2433 H   0  0  0  0  0  0  0  0  0  0  0  0
    1.4588    2.2115   -2.1049 H   0  0  0  0  0  0  0  0  0  0  0  0
    2.1646    1.4250   -0.6948 H   0  0  0  0  0  0  0  0  0  0  0  0
   -0.6709    0.6041   -2.5233 C   0  0  0  0  0  0  0  0  0  0  0  0
   -0.3268    1.3674   -3.2294 H   0  0  0  0  0  0  0  0  0  0  0  0
   -0.5133   -0.3675   -3.0035 H   0  0  0  0  0  0  0  0  0  0  0  0
   -2.1737    0.8406   -2.3133 C   0  0  0  0  0  0  0  0  0  0  0  0
   -2.3395    1.8008   -1.8148 H   0  0  0  0  0  0  0  0  0  0  0  0
   -2.6774    0.8683   -3.2846 H   0  0  0  0  0  0  0  0  0  0  0  0
   -2.6428    0.0564   -1.7185 H   0  0  0  0  0  0  0  0  0  0  0  0
    0.9952   -0.4692    0.9079 C   0  0  0  0  0  0  0  0  0  0  0  0
    2.2105   -0.5502    1.0316 O   0  0  0  0  0  0  0  0  0  0  0  0
    0.2368   -0.0388    1.9821 N   0  0  0  0  0  0  0  0  0  0  0  0
   -0.7699   -0.0861    1.8681 H   0  0  0  0  0  0  0  0  0  0  0  0
    0.7872    0.1249    3.3216 C   0  0  0  0  0  0  0  0  0  0  0  0
    1.6078    0.8501    3.3134 H   0  0  0  0  0  0  0  0  0  0  0  0
    0.0151    0.4876    4.0067 H   0  0  0  0  0  0  0  0  0  0  0  0
    1.1660   -0.8312    3.6981 H   0  0  0  0  0  0  0  0  0  0  0  0
  1  2  1  0  0  0  0
  2  3  1  0  0  0  0
  2  4  1  0  0  0  0
  2  5  1  0  0  0  0
  5  6  2  0  0  0  0
  5  7  1  0  0  0  0
  7  8  1  0  0  0  0
  7  9  1  0  0  0  0
  9 10  1  0  0  0  0
  9 11  1  0  0  0  0
  9 24  1  0  0  0  0
 11 12  1  0  0  0  0
 11 13  1  0  0  0  0
 11 17  1  0  0  0  0
 13 14  1  0  0  0  0
 13 15  1  0  0  0  0
 13 16  1  0  0  0  0
 17 18  1  0  0  0  0
 17 19  1  0  0  0  0
 17 20  1  0  0  0  0
 20 21  1  0  0  0  0
 20 22  1  0  0  0  0
 20 23  1  0  0  0  0
 24 25  2  0  0  0  0
 24 26  1  0  0  0  0
 26 27  1  0  0  0  0
 26 28  1  0  0  0  0
 28 29  1  0  0  0  0
 28 30  1  0  0  0  0
 28 31  1  0  0  0  0
M  END
$$$$

  -OEChem-03222214053D

 31 30  0     1  0  0  0  0  0999 V2000
   -2.4654   -4.3066    0.3811 H   0  0  0  0  0  0  0  0  0  0  0  0
   -2.5033   -3.2887   -0.0173 C   0  0  0  0  0  0  0  0  0  0  0  0
   -3.2329   -2.7131    0.5570 H   0  0  0  0  0  0  0  0  0  0  0  0
   -2.8219   -3.3322   -1.0615 H   0  0  0  0  0  0  0  0  0  0  0  0
   -1.1360   -2.6390    0.0819 C   0  0  0  0  0  0  0  0  0  0  0  0
   -0.2152   -3.2414    0.6022 O   0  0  0  0  0  0  0  0  0  0  0  0
   -0.9490   -1.3666   -0.4204 N   0  0  0  0  0  0  0  0  0  0  0  0
   -1.7298   -0.9556   -0.9227 H   0  0  0  0  0  0  0  0  0  0  0  0
    0.3517   -0.6690   -0.4816 C   0  0  1  0  0  0  0  0  0  0  0  0
    1.0387   -1.2948   -1.0626 H   0  0  0  0  0  0  0  0  0  0  0  0
    0.1800    0.6888   -1.2213 C   0  0  1  0  0  0  0  0  0  0  0  0
   -0.3127    1.3942   -0.5429 H   0  0  0  0  0  0  0  0  0  0  0  0
    1.5540    1.2790   -1.5852 C   0  0  0  0  0  0  0  0  0  0  0  0
    2.1093    0.5932   -2.2331 H   0  0  0  0  0  0  0  0  0  0  0  0
    1.4339    2.2329   -2.1082 H   0  0  0  0  0  0  0  0  0  0  0  0
    2.1508    1.4686   -0.6883 H   0  0  0  0  0  0  0  0  0  0  0  0
   -0.6680    0.5606   -2.5162 C   0  0  0  0  0  0  0  0  0  0  0  0
   -0.1976    1.1223   -3.3302 H   0  0  0  0  0  0  0  0  0  0  0  0
   -0.7156   -0.4814   -2.8490 H   0  0  0  0  0  0  0  0  0  0  0  0
   -2.0808    1.1211   -2.3297 C   0  0  0  0  0  0  0  0  0  0  0  0
   -2.0382    2.1861   -2.0797 H   0  0  0  0  0  0  0  0  0  0  0  0
   -2.6532    1.0065   -3.2554 H   0  0  0  0  0  0  0  0  0  0  0  0
   -2.6094    0.5962   -1.5291 H   0  0  0  0  0  0  0  0  0  0  0  0
    1.0064   -0.4710    0.9066 C   0  0  0  0  0  0  0  0  0  0  0  0
    2.2212   -0.5537    1.0343 O   0  0  0  0  0  0  0  0  0  0  0  0
    0.2456   -0.0291    1.9741 N   0  0  0  0  0  0  0  0  0  0  0  0
   -0.7605   -0.0786    1.8565 H   0  0  0  0  0  0  0  0  0  0  0  0
    0.7894    0.1294    3.3167 C   0  0  0  0  0  0  0  0  0  0  0  0
    1.6213    0.8415    3.3121 H   0  0  0  0  0  0  0  0  0  0  0  0
    0.0185    0.5058    3.9956 H   0  0  0  0  0  0  0  0  0  0  0  0
    1.1505   -0.8316    3.6980 H   0  0  0  0  0  0  0  0  0  0  0  0
  1  2  1  0  0  0  0
  2  3  1  0  0  0  0
  2  4  1  0  0  0  0
  2  5  1  0  0  0  0
  5  6  2  0  0  0  0
  5  7  1  0  0  0  0
  7  8  1  0  0  0  0
  7  9  1  0  0  0  0
  9 10  1  0  0  0  0
  9 11  1  0  0  0  0
  9 24  1  0  0  0  0
 11 12  1  0  0  0  0
 11 13  1  0  0  0  0
 11 17  1  0  0  0  0
 13 14  1  0  0  0  0
 13 15  1  0  0  0  0
 13 16  1  0  0  0  0
 17 18  1  0  0  0  0
 17 19  1  0  0  0  0
 17 20  1  0  0  0  0
 20 21  1  0  0  0  0
 20 22  1  0  0  0  0
 20 23  1  0  0  0  0
 24 25  2  0  0  0  0
 24 26  1  0  0  0  0
 26 27  1  0  0  0  0
 26 28  1  0  0  0  0
 28 29  1  0  0  0  0
 28 30  1  0  0  0  0
 28 31  1  0  0  0  0
M  END
$$$$

  -OEChem-03222214053D

 31 30  0     1  0  0  0  0  0999 V2000
   -2.4649   -4.3162    0.4073 H   0  0  0  0  0  0  0  0  0  0  0  0
   -2.5079   -3.2999    0.0050 C   0  0  0  0  0  0  0  0  0  0  0  0
   -3.2289   -2.7216    0.5875 H   0  0  0  0  0  0  0  0  0  0  0  0
   -2.8420   -3.3479   -1.0342 H   0  0  0  0  0  0  0  0  0  0  0  0
   -1.1385   -2.6512    0.0812 C   0  0  0  0  0  0  0  0  0  0  0  0
   -0.2090   -3.2567    0.5823 O   0  0  0  0  0  0  0  0  0  0  0  0
   -0.9566   -1.3779   -0.4214 N   0  0  0  0  0  0  0  0  0  0  0  0
   -1.7506   -0.9513   -0.8892 H   0  0  0  0  0  0  0  0  0  0  0  0
    0.3430   -0.6766   -0.4857 C   0  0  1  0  0  0  0  0  0  0  0  0
    1.0293   -1.3036   -1.0661 H   0  0  0  0  0  0  0  0  0  0  0  0
    0.1754    0.6773   -1.2327 C   0  0  1  0  0  0  0  0  0  0  0  0
   -0.3320    1.3677   -0.5496 H   0  0  0  0  0  0  0  0  0  0  0  0
    1.5445    1.2910   -1.5743 C   0  0  0  0  0  0  0  0  0  0  0  0
    2.1315    0.6054   -2.1938 H   0  0  0  0  0  0  0  0  0  0  0  0
    1.4152    2.2309   -2.1202 H   0  0  0  0  0  0  0  0  0  0  0  0
    2.1138    1.5111   -0.6664 H   0  0  0  0  0  0  0  0  0  0  0  0
   -0.6667    0.5613   -2.5358 C   0  0  0  0  0  0  0  0  0  0  0  0
   -0.0687    0.8768   -3.3975 H   0  0  0  0  0  0  0  0  0  0  0  0
   -0.9597   -0.4724   -2.7392 H   0  0  0  0  0  0  0  0  0  0  0  0
   -1.9143    1.4439   -2.4748 C   0  0  0  0  0  0  0  0  0  0  0  0
   -1.6341    2.4931   -2.3364 H   0  0  0  0  0  0  0  0  0  0  0  0
   -2.4815    1.3572   -3.4067 H   0  0  0  0  0  0  0  0  0  0  0  0
   -2.5603    1.1401   -1.6455 H   0  0  0  0  0  0  0  0  0  0  0  0
    1.0024   -0.4764    0.8997 C   0  0  0  0  0  0  0  0  0  0  0  0
    2.2183   -0.5509    1.0216 O   0  0  0  0  0  0  0  0  0  0  0  0
    0.2447   -0.0359    1.9700 N   0  0  0  0  0  0  0  0  0  0  0  0
   -0.7618   -0.0898    1.8582 H   0  0  0  0  0  0  0  0  0  0  0  0
    0.7960    0.1328    3.3083 C   0  0  0  0  0  0  0  0  0  0  0  0
    1.6243    0.8492    3.2952 H   0  0  0  0  0  0  0  0  0  0  0  0
    0.0274    0.5089    3.9900 H   0  0  0  0  0  0  0  0  0  0  0  0
    1.1647   -0.8244    3.6919 H   0  0  0  0  0  0  0  0  0  0  0  0
  1  2  1  0  0  0  0
  2  3  1  0  0  0  0
  2  4  1  0  0  0  0
  2  5  1  0  0  0  0
  5  6  2  0  0  0  0
  5  7  1  0  0  0  0
  7  8  1  0  0  0  0
  7  9  1  0  0  0  0
  9 10  1  0  0  0  0
  9 11  1  0  0  0  0
  9 24  1  0  0  0  0
 11 12  1  0  0  0  0
 11 13  1  0  0  0  0
 11 17  1  0  0  0  0
 13 14  1  0  0  0  0
 13 15  1  0  0  0  0
 13 16  1  0  0  0  0
 17 18  1  0  0  0  0
 17 19  1  0  0  0  0
 17 20  1  0  0  0  0
 20 21  1  0  0  0  0
 20 22  1  0  0  0  0
 20 23  1  0  0  0  0
 24 25  2  0  0  0  0
 24 26  1  0  0  0  0
 26 27  1  0  0  0  0
 26 28  1  0  0  0  0
 28 29  1  0  0  0  0
 28 30  1  0  0  0  0
 28 31  1  0  0  0  0
M  END
$$$$

  -OEChem-03222214053D

 31 30  0     1  0  0  0  0  0999 V2000
   -2.4599   -4.3326    0.4344 H   0  0  0  0  0  0  0  0  0  0  0  0
   -2.5075   -3.3189    0.0263 C   0  0  0  0  0  0  0  0  0  0  0  0
   -3.2229   -2.7373    0.6124 H   0  0  0  0  0  0  0  0  0  0  0  0
   -2.8526   -3.3738   -1.0090 H   0  0  0  0  0  0  0  0  0  0  0  0
   -1.1376   -2.6690    0.0835 C   0  0  0  0  0  0  0  0  0  0  0  0
   -0.1990   -3.2754    0.5663 O   0  0  0  0  0  0  0  0  0  0  0  0
   -0.9650   -1.3945   -0.4192 N   0  0  0  0  0  0  0  0  0  0  0  0
   -1.7705   -0.9616   -0.8604 H   0  0  0  0  0  0  0  0  0  0  0  0
    0.3294   -0.6857   -0.4903 C   0  0  1  0  0  0  0  0  0  0  0  0
    1.0154   -1.3135   -1.0702 H   0  0  0  0  0  0  0  0  0  0  0  0
    0.1676    0.6666   -1.2436 C   0  0  1  0  0  0  0  0  0  0  0  0
   -0.3533    1.3449   -0.5587 H   0  0  0  0  0  0  0  0  0  0  0  0
    1.5331    1.2952   -1.5708 C   0  0  0  0  0  0  0  0  0  0  0  0
    2.1433    0.6065   -2.1637 H   0  0  0  0  0  0  0  0  0  0  0  0
    1.4012    2.2209   -2.1394 H   0  0  0  0  0  0  0  0  0  0  0  0
    2.0797    1.5420   -0.6558 H   0  0  0  0  0  0  0  0  0  0  0  0
   -0.6676    0.5713   -2.5526 C   0  0  0  0  0  0  0  0  0  0  0  0
   -0.0016    0.6048   -3.4216 H   0  0  0  0  0  0  0  0  0  0  0  0
   -1.2128   -0.3719   -2.6276 H   0  0  0  0  0  0  0  0  0  0  0  0
   -1.6767    1.7167   -2.6509 C   0  0  0  0  0  0  0  0  0  0  0  0
   -1.1630    2.6829   -2.6222 H   0  0  0  0  0  0  0  0  0  0  0  0
   -2.2332    1.6477   -3.5907 H   0  0  0  0  0  0  0  0  0  0  0  0
   -2.3900    1.6728   -1.8219 H   0  0  0  0  0  0  0  0  0  0  0  0
    0.9949   -0.4823    0.8922 C   0  0  0  0  0  0  0  0  0  0  0  0
    2.2118   -0.5490    1.0078 O   0  0  0  0  0  0  0  0  0  0  0  0
    0.2413   -0.0469    1.9677 N   0  0  0  0  0  0  0  0  0  0  0  0
   -0.7658   -0.1011    1.8624 H   0  0  0  0  0  0  0  0  0  0  0  0
    0.8012    0.1403    3.3001 C   0  0  0  0  0  0  0  0  0  0  0  0
    1.6166    0.8708    3.2738 H   0  0  0  0  0  0  0  0  0  0  0  0
    0.0324    0.5081    3.9860 H   0  0  0  0  0  0  0  0  0  0  0  0
    1.1895   -0.8076    3.6873 H   0  0  0  0  0  0  0  0  0  0  0  0
  1  2  1  0  0  0  0
  2  3  1  0  0  0  0
  2  4  1  0  0  0  0
  2  5  1  0  0  0  0
  5  6  2  0  0  0  0
  5  7  1  0  0  0  0
  7  8  1  0  0  0  0
  7  9  1  0  0  0  0
  9 10  1  0  0  0  0
  9 11  1  0  0  0  0
  9 24  1  0  0  0  0
 11 12  1  0  0  0  0
 11 13  1  0  0  0  0
 11 17  1  0  0  0  0
 13 14  1  0  0  0  0
 13 15  1  0  0  0  0
 13 16  1  0  0  0  0
 17 18  1  0  0  0  0
 17 19  1  0  0  0  0
 17 20  1  0  0  0  0
 20 21  1  0  0  0  0
 20 22  1  0  0  0  0
 20 23  1  0  0  0  0
 24 25  2  0  0  0  0
 24 26  1  0  0  0  0
 26 27  1  0  0  0  0
 26 28  1  0  0  0  0
 28 29  1  0  0  0  0
 28 30  1  0  0  0  0
 28 31  1  0  0  0  0
M  END
$$$$

  -OEChem-03222214053D

 31 30  0     1  0  0  0  0  0999 V2000
   -2.4392   -4.3323    0.4690 H   0  0  0  0  0  0  0  0  0  0  0  0
   -2.4961   -3.3207    0.0567 C   0  0  0  0  0  0  0  0  0  0  0  0
   -3.1988   -2.7362    0.6553 H   0  0  0  0  0  0  0  0  0  0  0  0
   -2.8630   -3.3811   -0.9707 H   0  0  0  0  0  0  0  0  0  0  0  0
   -1.1258   -2.6702    0.0811 C   0  0  0  0  0  0  0  0  0  0  0  0
   -0.1764   -3.2768    0.5418 O   0  0  0  0  0  0  0  0  0  0  0  0
   -0.9655   -1.3940   -0.4219 N   0  0  0  0  0  0  0  0  0  0  0  0
   -1.7824   -0.9572   -0.8370 H   0  0  0  0  0  0  0  0  0  0  0  0
    0.3242   -0.6774   -0.4996 C   0  0  1  0  0  0  0  0  0  0  0  0
    1.0109   -1.3036   -1.0801 H   0  0  0  0  0  0  0  0  0  0  0  0
    0.1646    0.6769   -1.2526 C   0  0  1  0  0  0  0  0  0  0  0  0
   -0.3590    1.3561   -0.5708 H   0  0  0  0  0  0  0  0  0  0  0  0
    1.5376    1.2931   -1.5789 C   0  0  0  0  0  0  0  0  0  0  0  0
    2.1388    0.6002   -2.1761 H   0  0  0  0  0  0  0  0  0  0  0  0
    1.4225    2.2238   -2.1414 H   0  0  0  0  0  0  0  0  0  0  0  0
    2.0882    1.5276   -0.6632 H   0  0  0  0  0  0  0  0  0  0  0  0
   -0.6709    0.5824   -2.5597 C   0  0  0  0  0  0  0  0  0  0  0  0
   -0.0148    0.3301   -3.3996 H   0  0  0  0  0  0  0  0  0  0  0  0
   -1.4264   -0.2037   -2.5059 H   0  0  0  0  0  0  0  0  0  0  0  0
   -1.4065    1.8926   -2.8542 C   0  0  0  0  0  0  0  0  0  0  0  0
   -0.6998    2.7195   -2.9695 H   0  0  0  0  0  0  0  0  0  0  0  0
   -1.9791    1.7993   -3.7819 H   0  0  0  0  0  0  0  0  0  0  0  0
   -2.1000    2.1353   -2.0431 H   0  0  0  0  0  0  0  0  0  0  0  0
    0.9886   -0.4756    0.8841 C   0  0  0  0  0  0  0  0  0  0  0  0
    2.2050   -0.5457    1.0034 O   0  0  0  0  0  0  0  0  0  0  0  0
    0.2312   -0.0483    1.9602 N   0  0  0  0  0  0  0  0  0  0  0  0
   -0.7755   -0.0976    1.8490 H   0  0  0  0  0  0  0  0  0  0  0  0
    0.7847    0.1210    3.2976 C   0  0  0  0  0  0  0  0  0  0  0  0
    1.6067    0.8445    3.2842 H   0  0  0  0  0  0  0  0  0  0  0  0
    0.0146    0.4887    3.9822 H   0  0  0  0  0  0  0  0  0  0  0  0
    1.1622   -0.8339    3.6784 H   0  0  0  0  0  0  0  0  0  0  0  0
  1  2  1  0  0  0  0
  2  3  1  0  0  0  0
  2  4  1  0  0  0  0
  2  5  1  0  0  0  0
  5  6  2  0  0  0  0
  5  7  1  0  0  0  0
  7  8  1  0  0  0  0
  7  9  1  0  0  0  0
  9 10  1  0  0  0  0
  9 11  1  0  0  0  0
  9 24  1  0  0  0  0
 11 12  1  0  0  0  0
 11 13  1  0  0  0  0
 11 17  1  0  0  0  0
 13 14  1  0  0  0  0
 13 15  1  0  0  0  0
 13 16  1  0  0  0  0
 17 18  1  0  0  0  0
 17 19  1  0  0  0  0
 17 20  1  0  0  0  0
 20 21  1  0  0  0  0
 20 22  1  0  0  0  0
 20 23  1  0  0  0  0
 24 25  2  0  0  0  0
 24 26  1  0  0  0  0
 26 27  1  0  0  0  0
 26 28  1  0  0  0  0
 28 29  1  0  0  0  0
 28 30  1  0  0  0  0
 28 31  1  0  0  0  0
M  END
$$$$

  -OEChem-03222214053D

 31 30  0     1  0  0  0  0  0999 V2000
   -2.4419   -4.3147    0.4555 H   0  0  0  0  0  0  0  0  0  0  0  0
   -2.4947   -3.3005    0.0490 C   0  0  0  0  0  0  0  0  0  0  0  0
   -3.1928   -2.7162    0.6532 H   0  0  0  0  0  0  0  0  0  0  0  0
   -2.8652   -3.3529   -0.9776 H   0  0  0  0  0  0  0  0  0  0  0  0
   -1.1210   -2.6566    0.0729 C   0  0  0  0  0  0  0  0  0  0  0  0
   -0.1732   -3.2684    0.5300 O   0  0  0  0  0  0  0  0  0  0  0  0
   -0.9577   -1.3788   -0.4255 N   0  0  0  0  0  0  0  0  0  0  0  0
   -1.7756   -0.9375   -0.8332 H   0  0  0  0  0  0  0  0  0  0  0  0
    0.3325   -0.6627   -0.5007 C   0  0  1  0  0  0  0  0  0  0  0  0
    1.0196   -1.2868   -1.0829 H   0  0  0  0  0  0  0  0  0  0  0  0
    0.1710    0.6964   -1.2475 C   0  0  1  0  0  0  0  0  0  0  0  0
   -0.3522    1.3816   -0.5719 H   0  0  0  0  0  0  0  0  0  0  0  0
    1.5524    1.2995   -1.5722 C   0  0  0  0  0  0  0  0  0  0  0  0
    2.1228    0.6269   -2.2206 H   0  0  0  0  0  0  0  0  0  0  0  0
    1.4547    2.2647   -2.0748 H   0  0  0  0  0  0  0  0  0  0  0  0
    2.1294    1.4706   -0.6592 H   0  0  0  0  0  0  0  0  0  0  0  0
   -0.6706    0.5795   -2.5480 C   0  0  0  0  0  0  0  0  0  0  0  0
   -0.0875    0.0625   -3.3175 H   0  0  0  0  0  0  0  0  0  0  0  0
   -1.5748   -0.0082   -2.3769 H   0  0  0  0  0  0  0  0  0  0  0  0
   -1.1339    1.9403   -3.0789 C   0  0  0  0  0  0  0  0  0  0  0  0
   -0.2870    2.5430   -3.4170 H   0  0  0  0  0  0  0  0  0  0  0  0
   -1.8060    1.7969   -3.9304 H   0  0  0  0  0  0  0  0  0  0  0  0
   -1.6723    2.4932   -2.3030 H   0  0  0  0  0  0  0  0  0  0  0  0
    0.9918   -0.4691    0.8865 C   0  0  0  0  0  0  0  0  0  0  0  0
    2.2065   -0.5524    1.0138 O   0  0  0  0  0  0  0  0  0  0  0  0
    0.2299   -0.0465    1.9612 N   0  0  0  0  0  0  0  0  0  0  0  0
   -0.7762   -0.0922    1.8435 H   0  0  0  0  0  0  0  0  0  0  0  0
    0.7751    0.1038    3.3041 C   0  0  0  0  0  0  0  0  0  0  0  0
    1.6019    0.8217    3.3042 H   0  0  0  0  0  0  0  0  0  0  0  0
    0.0023    0.4686    3.9872 H   0  0  0  0  0  0  0  0  0  0  0  0
    1.1435   -0.8579    3.6765 H   0  0  0  0  0  0  0  0  0  0  0  0
  1  2  1  0  0  0  0
  2  3  1  0  0  0  0
  2  4  1  0  0  0  0
  2  5  1  0  0  0  0
  5  6  2  0  0  0  0
  5  7  1  0  0  0  0
  7  8  1  0  0  0  0
  7  9  1  0  0  0  0
  9 10  1  0  0  0  0
  9 11  1  0  0  0  0
  9 24  1  0  0  0  0
 11 12  1  0  0  0  0
 11 13  1  0  0  0  0
 11 17  1  0  0  0  0
 13 14  1  0  0  0  0
 13 15  1  0  0  0  0
 13 16  1  0  0  0  0
 17 18  1  0  0  0  0
 17 19  1  0  0  0  0
 17 20  1  0  0  0  0
 20 21  1  0  0  0  0
 20 22  1  0  0  0  0
 20 23  1  0  0  0  0
 24 25  2  0  0  0  0
 24 26  1  0  0  0  0
 26 27  1  0  0  0  0
 26 28  1  0  0  0  0
 28 29  1  0  0  0  0
 28 30  1  0  0  0  0
 28 31  1  0  0  0  0
M  END
$$$$

  -OEChem-03222214053D

 31 30  0     1  0  0  0  0  0999 V2000
   -2.4189   -4.3582    0.4309 H   0  0  0  0  0  0  0  0  0  0  0  0
   -2.4882   -3.3420    0.0320 C   0  0  0  0  0  0  0  0  0  0  0  0
   -3.2114   -2.7795    0.6271 H   0  0  0  0  0  0  0  0  0  0  0  0
   -2.8376   -3.3946   -1.0019 H   0  0  0  0  0  0  0  0  0  0  0  0
   -1.1310   -2.6660    0.0886 C   0  0  0  0  0  0  0  0  0  0  0  0
   -0.1819   -3.2543    0.5730 O   0  0  0  0  0  0  0  0  0  0  0  0
   -0.9832   -1.3871   -0.4120 N   0  0  0  0  0  0  0  0  0  0  0  0
   -1.7912   -0.9835   -0.8740 H   0  0  0  0  0  0  0  0  0  0  0  0
    0.3031   -0.6632   -0.4965 C   0  0  1  0  0  0  0  0  0  0  0  0
    0.9821   -1.2947   -1.0811 H   0  0  0  0  0  0  0  0  0  0  0  0
    0.1567    0.7015   -1.2394 C   0  0  1  0  0  0  0  0  0  0  0  0
   -0.1091    1.4631   -0.4980 H   0  0  0  0  0  0  0  0  0  0  0  0
    1.5112    1.0942   -1.8611 C   0  0  0  0  0  0  0  0  0  0  0  0
    1.7627    0.4237   -2.6889 H   0  0  0  0  0  0  0  0  0  0  0  0
    1.4869    2.1210   -2.2363 H   0  0  0  0  0  0  0  0  0  0  0  0
    2.3133    1.0410   -1.1196 H   0  0  0  0  0  0  0  0  0  0  0  0
   -0.9630    0.6982   -2.3136 C   0  0  0  0  0  0  0  0  0  0  0  0
   -0.7700   -0.0947   -3.0442 H   0  0  0  0  0  0  0  0  0  0  0  0
   -1.9258    0.4934   -1.8372 H   0  0  0  0  0  0  0  0  0  0  0  0
   -1.1121    2.0346   -3.0479 C   0  0  0  0  0  0  0  0  0  0  0  0
   -0.2515    2.2264   -3.6952 H   0  0  0  0  0  0  0  0  0  0  0  0
   -2.0077    2.0155   -3.6763 H   0  0  0  0  0  0  0  0  0  0  0  0
   -1.2085    2.8575   -2.3329 H   0  0  0  0  0  0  0  0  0  0  0  0
    0.9804   -0.4601    0.8808 C   0  0  0  0  0  0  0  0  0  0  0  0
    2.1989   -0.5112    0.9865 O   0  0  0  0  0  0  0  0  0  0  0  0
    0.2299   -0.0389    1.9641 N   0  0  0  0  0  0  0  0  0  0  0  0
   -0.7770   -0.1088    1.8654 H   0  0  0  0  0  0  0  0  0  0  0  0
    0.7959    0.1374    3.2953 C   0  0  0  0  0  0  0  0  0  0  0  0
    1.6062    0.8736    3.2734 H   0  0  0  0  0  0  0  0  0  0  0  0
    0.0281    0.4922    3.9892 H   0  0  0  0  0  0  0  0  0  0  0  0
    1.1927   -0.8119    3.6702 H   0  0  0  0  0  0  0  0  0  0  0  0
  1  2  1  0  0  0  0
  2  3  1  0  0  0  0
  2  4  1  0  0  0  0
  2  5  1  0  0  0  0
  5  6  2  0  0  0  0
  5  7  1  0  0  0  0
  7  8  1  0  0  0  0
  7  9  1  0  0  0  0
  9 10  1  0  0  0  0
  9 11  1  0  0  0  0
  9 24  1  0  0  0  0
 11 12  1  0  0  0  0
 11 13  1  0  0  0  0
 11 17  1  0  0  0  0
 13 14  1  0  0  0  0
 13 15  1  0  0  0  0
 13 16  1  0  0  0  0
 17 18  1  0  0  0  0
 17 19  1  0  0  0  0
 17 20  1  0  0  0  0
 20 21  1  0  0  0  0
 20 22  1  0  0  0  0
 20 23  1  0  0  0  0
 24 25  2  0  0  0  0
 24 26  1  0  0  0  0
 26 27  1  0  0  0  0
 26 28  1  0  0  0  0
 28 29  1  0  0  0  0
 28 30  1  0  0  0  0
 28 31  1  0  0  0  0
M  END
$$$$

  -OEChem-03222214053D

 31 30  0     1  0  0  0  0  0999 V2000
   -2.4507   -4.3269    0.4027 H   0  0  0  0  0  0  0  0  0  0  0  0
   -2.5040   -3.3093    0.0057 C   0  0  0  0  0  0  0  0  0  0  0  0
   -3.2283   -2.7405    0.5933 H   0  0  0  0  0  0  0  0  0  0  0  0
   -2.8413   -3.3557   -1.0324 H   0  0  0  0  0  0  0  0  0  0  0  0
   -1.1404   -2.6483    0.0800 C   0  0  0  0  0  0  0  0  0  0  0  0
   -0.2020   -3.2478    0.5715 O   0  0  0  0  0  0  0  0  0  0  0  0
   -0.9746   -1.3708   -0.4173 N   0  0  0  0  0  0  0  0  0  0  0  0
   -1.7742   -0.9573   -0.8857 H   0  0  0  0  0  0  0  0  0  0  0  0
    0.3197   -0.6597   -0.4943 C   0  0  1  0  0  0  0  0  0  0  0  0
    0.9961   -1.2926   -1.0803 H   0  0  0  0  0  0  0  0  0  0  0  0
    0.1691    0.7065   -1.2321 C   0  0  1  0  0  0  0  0  0  0  0  0
   -0.0979    1.4728   -0.4961 H   0  0  0  0  0  0  0  0  0  0  0  0
    1.5290    1.0979   -1.8448 C   0  0  0  0  0  0  0  0  0  0  0  0
    1.7889    0.4223   -2.6659 H   0  0  0  0  0  0  0  0  0  0  0  0
    1.5064    2.1230   -2.2257 H   0  0  0  0  0  0  0  0  0  0  0  0
    2.3246    1.0504   -1.0960 H   0  0  0  0  0  0  0  0  0  0  0  0
   -0.9600    0.6840   -2.2994 C   0  0  0  0  0  0  0  0  0  0  0  0
   -0.8945   -0.2455   -2.8754 H   0  0  0  0  0  0  0  0  0  0  0  0
   -1.9293    0.7005   -1.7912 H   0  0  0  0  0  0  0  0  0  0  0  0
   -0.9283    1.8497   -3.2934 C   0  0  0  0  0  0  0  0  0  0  0  0
   -0.0571    1.7828   -3.9521 H   0  0  0  0  0  0  0  0  0  0  0  0
   -1.8260    1.8287   -3.9188 H   0  0  0  0  0  0  0  0  0  0  0  0
   -0.9001    2.8057   -2.7615 H   0  0  0  0  0  0  0  0  0  0  0  0
    0.9950   -0.4639    0.8849 C   0  0  0  0  0  0  0  0  0  0  0  0
    2.2124   -0.5283    0.9946 O   0  0  0  0  0  0  0  0  0  0  0  0
    0.2452   -0.0356    1.9659 N   0  0  0  0  0  0  0  0  0  0  0  0
   -0.7621   -0.0911    1.8628 H   0  0  0  0  0  0  0  0  0  0  0  0
    0.8079    0.1359    3.2992 C   0  0  0  0  0  0  0  0  0  0  0  0
    1.6240    0.8658    3.2803 H   0  0  0  0  0  0  0  0  0  0  0  0
    0.0402    0.4959    3.9906 H   0  0  0  0  0  0  0  0  0  0  0  0
    1.1963   -0.8165    3.6751 H   0  0  0  0  0  0  0  0  0  0  0  0
  1  2  1  0  0  0  0
  2  3  1  0  0  0  0
  2  4  1  0  0  0  0
  2  5  1  0  0  0  0
  5  6  2  0  0  0  0
  5  7  1  0  0  0  0
  7  8  1  0  0  0  0
  7  9  1  0  0  0  0
  9 10  1  0  0  0  0
  9 11  1  0  0  0  0
  9 24  1  0  0  0  0
 11 12  1  0  0  0  0
 11 13  1  0  0  0  0
 11 17  1  0  0  0  0
 13 14  1  0  0  0  0
 13 15  1  0  0  0  0
 13 16  1  0  0  0  0
 17 18  1  0  0  0  0
 17 19  1  0  0  0  0
 17 20  1  0  0  0  0
 20 21  1  0  0  0  0
 20 22  1  0  0  0  0
 20 23  1  0  0  0  0
 24 25  2  0  0  0  0
 24 26  1  0  0  0  0
 26 27  1  0  0  0  0
 26 28  1  0  0  0  0
 28 29  1  0  0  0  0
 28 30  1  0  0  0  0
 28 31  1  0  0  0  0
M  END
$$$$

  -OEChem-03222214053D

 31 30  0     1  0  0  0  0  0999 V2000
   -2.4566   -4.3136    0.4303 H   0  0  0  0  0  0  0  0  0  0  0  0
   -2.5097   -3.2981    0.0273 C   0  0  0  0  0  0  0  0  0  0  0  0
   -3.2205   -2.7203    0.6228 H   0  0  0  0  0  0  0  0  0  0  0  0
   -2.8640   -3.3486   -1.0051 H   0  0  0  0  0  0  0  0  0  0  0  0
   -1.1404   -2.6466    0.0762 C   0  0  0  0  0  0  0  0  0  0  0  0
   -0.1986   -3.2532    0.5520 O   0  0  0  0  0  0  0  0  0  0  0  0
   -0.9736   -1.3689   -0.4212 N   0  0  0  0  0  0  0  0  0  0  0  0
   -1.7796   -0.9427   -0.8674 H   0  0  0  0  0  0  0  0  0  0  0  0
    0.3220   -0.6596   -0.5000 C   0  0  1  0  0  0  0  0  0  0  0  0
    0.9965   -1.2944   -1.0859 H   0  0  0  0  0  0  0  0  0  0  0  0
    0.1736    0.7065   -1.2409 C   0  0  1  0  0  0  0  0  0  0  0  0
   -0.0990    1.4722   -0.5061 H   0  0  0  0  0  0  0  0  0  0  0  0
    1.5468    1.1029   -1.8235 C   0  0  0  0  0  0  0  0  0  0  0  0
    1.8437    0.4111   -2.6180 H   0  0  0  0  0  0  0  0  0  0  0  0
    1.5221    2.1181   -2.2298 H   0  0  0  0  0  0  0  0  0  0  0  0
    2.3197    1.0872   -1.0499 H   0  0  0  0  0  0  0  0  0  0  0  0
   -0.9571    0.6914   -2.3151 C   0  0  0  0  0  0  0  0  0  0  0  0
   -1.0487   -0.3173   -2.7309 H   0  0  0  0  0  0  0  0  0  0  0  0
   -1.9063    0.9436   -1.8313 H   0  0  0  0  0  0  0  0  0  0  0  0
   -0.7510    1.6194   -3.5182 C   0  0  0  0  0  0  0  0  0  0  0  0
    0.1181    1.3138   -4.1087 H   0  0  0  0  0  0  0  0  0  0  0  0
   -1.6299    1.5833   -4.1692 H   0  0  0  0  0  0  0  0  0  0  0  0
   -0.6128    2.6530   -3.1861 H   0  0  0  0  0  0  0  0  0  0  0  0
    0.9969   -0.4667    0.8799 C   0  0  0  0  0  0  0  0  0  0  0  0
    2.2137   -0.5389    0.9917 O   0  0  0  0  0  0  0  0  0  0  0  0
    0.2475   -0.0385    1.9612 N   0  0  0  0  0  0  0  0  0  0  0  0
   -0.7598   -0.0929    1.8576 H   0  0  0  0  0  0  0  0  0  0  0  0
    0.8095    0.1212    3.2963 C   0  0  0  0  0  0  0  0  0  0  0  0
    1.6367    0.8386    3.2816 H   0  0  0  0  0  0  0  0  0  0  0  0
    0.0460    0.4917    3.9868 H   0  0  0  0  0  0  0  0  0  0  0  0
    1.1819   -0.8382    3.6706 H   0  0  0  0  0  0  0  0  0  0  0  0
  1  2  1  0  0  0  0
  2  3  1  0  0  0  0
  2  4  1  0  0  0  0
  2  5  1  0  0  0  0
  5  6  2  0  0  0  0
  5  7  1  0  0  0  0
  7  8  1  0  0  0  0
  7  9  1  0  0  0  0
  9 10  1  0  0  0  0
  9 11  1  0  0  0  0
  9 24  1  0  0  0  0
 11 12  1  0  0  0  0
 11 13  1  0  0  0  0
 11 17  1  0  0  0  0
 13 14  1  0  0  0  0
 13 15  1  0  0  0  0
 13 16  1  0  0  0  0
 17 18  1  0  0  0  0
 17 19  1  0  0  0  0
 17 20  1  0  0  0  0
 20 21  1  0  0  0  0
 20 22  1  0  0  0  0
 20 23  1  0  0  0  0
 24 25  2  0  0  0  0
 24 26  1  0  0  0  0
 26 27  1  0  0  0  0
 26 28  1  0  0  0  0
 28 29  1  0  0  0  0
 28 30  1  0  0  0  0
 28 31  1  0  0  0  0
M  END
$$$$

  -OEChem-03222214053D

 31 30  0     1  0  0  0  0  0999 V2000
   -2.4562   -4.3161    0.4775 H   0  0  0  0  0  0  0  0  0  0  0  0
   -2.5112   -3.3039    0.0665 C   0  0  0  0  0  0  0  0  0  0  0  0
   -3.2086   -2.7175    0.6693 H   0  0  0  0  0  0  0  0  0  0  0  0
   -2.8837   -3.3618   -0.9590 H   0  0  0  0  0  0  0  0  0  0  0  0
   -1.1383   -2.6584    0.0853 C   0  0  0  0  0  0  0  0  0  0  0  0
   -0.1893   -3.2671    0.5440 O   0  0  0  0  0  0  0  0  0  0  0  0
   -0.9762   -1.3824   -0.4181 N   0  0  0  0  0  0  0  0  0  0  0  0
   -1.7925   -0.9466   -0.8355 H   0  0  0  0  0  0  0  0  0  0  0  0
    0.3165   -0.6697   -0.5083 C   0  0  1  0  0  0  0  0  0  0  0  0
    0.9894   -1.3076   -1.0930 H   0  0  0  0  0  0  0  0  0  0  0  0
    0.1739    0.6940   -1.2590 C   0  0  1  0  0  0  0  0  0  0  0  0
   -0.1112    1.4513   -0.5202 H   0  0  0  0  0  0  0  0  0  0  0  0
    1.5586    1.1087   -1.8031 C   0  0  0  0  0  0  0  0  0  0  0  0
    1.9059    0.4024   -2.5636 H   0  0  0  0  0  0  0  0  0  0  0  0
    1.5242    2.1112   -2.2385 H   0  0  0  0  0  0  0  0  0  0  0  0
    2.3014    1.1357   -1.0010 H   0  0  0  0  0  0  0  0  0  0  0  0
   -0.9535    0.7089   -2.3454 C   0  0  0  0  0  0  0  0  0  0  0  0
   -1.2542   -0.3128   -2.5910 H   0  0  0  0  0  0  0  0  0  0  0  0
   -1.8292    1.2208   -1.9335 H   0  0  0  0  0  0  0  0  0  0  0  0
   -0.5954    1.3430   -3.6954 C   0  0  0  0  0  0  0  0  0  0  0  0
    0.2322    0.8105   -4.1735 H   0  0  0  0  0  0  0  0  0  0  0  0
   -1.4587    1.2960   -4.3661 H   0  0  0  0  0  0  0  0  0  0  0  0
   -0.3218    2.3949   -3.5695 H   0  0  0  0  0  0  0  0  0  0  0  0
    0.9938   -0.4727    0.8701 C   0  0  0  0  0  0  0  0  0  0  0  0
    2.2102   -0.5505    0.9820 O   0  0  0  0  0  0  0  0  0  0  0  0
    0.2458   -0.0442    1.9523 N   0  0  0  0  0  0  0  0  0  0  0  0
   -0.7616   -0.0962    1.8489 H   0  0  0  0  0  0  0  0  0  0  0  0
    0.8076    0.1108    3.2880 C   0  0  0  0  0  0  0  0  0  0  0  0
    1.6389    0.8237    3.2748 H   0  0  0  0  0  0  0  0  0  0  0  0
    0.0454    0.4847    3.9782 H   0  0  0  0  0  0  0  0  0  0  0  0
    1.1740   -0.8514    3.6612 H   0  0  0  0  0  0  0  0  0  0  0  0
  1  2  1  0  0  0  0
  2  3  1  0  0  0  0
  2  4  1  0  0  0  0
  2  5  1  0  0  0  0
  5  6  2  0  0  0  0
  5  7  1  0  0  0  0
  7  8  1  0  0  0  0
  7  9  1  0  0  0  0
  9 10  1  0  0  0  0
  9 11  1  0  0  0  0
  9 24  1  0  0  0  0
 11 12  1  0  0  0  0
 11 13  1  0  0  0  0
 11 17  1  0  0  0  0
 13 14  1  0  0  0  0
 13 15  1  0  0  0  0
 13 16  1  0  0  0  0
 17 18  1  0  0  0  0
 17 19  1  0  0  0  0
 17 20  1  0  0  0  0
 20 21  1  0  0  0  0
 20 22  1  0  0  0  0
 20 23  1  0  0  0  0
 24 25  2  0  0  0  0
 24 26  1  0  0  0  0
 26 27  1  0  0  0  0
 26 28  1  0  0  0  0
 28 29  1  0  0  0  0
 28 30  1  0  0  0  0
 28 31  1  0  0  0  0
M  END
$$$$

  -OEChem-03222214053D

 31 30  0     1  0  0  0  0  0999 V2000
   -2.4540   -4.3299    0.5197 H   0  0  0  0  0  0  0  0  0  0  0  0
   -2.5151   -3.3207    0.1020 C   0  0  0  0  0  0  0  0  0  0  0  0
   -3.2037   -2.7298    0.7105 H   0  0  0  0  0  0  0  0  0  0  0  0
   -2.9025   -3.3863   -0.9176 H   0  0  0  0  0  0  0  0  0  0  0  0
   -1.1419   -2.6756    0.0957 C   0  0  0  0  0  0  0  0  0  0  0  0
   -0.1849   -3.2853    0.5361 O   0  0  0  0  0  0  0  0  0  0  0  0
   -0.9889   -1.3996   -0.4108 N   0  0  0  0  0  0  0  0  0  0  0  0
   -1.8159   -0.9572   -0.7987 H   0  0  0  0  0  0  0  0  0  0  0  0
    0.2998   -0.6828   -0.5122 C   0  0  1  0  0  0  0  0  0  0  0  0
    0.9698   -1.3248   -1.0957 H   0  0  0  0  0  0  0  0  0  0  0  0
    0.1694    0.6755   -1.2772 C   0  0  1  0  0  0  0  0  0  0  0  0
   -0.1365    1.4184   -0.5322 H   0  0  0  0  0  0  0  0  0  0  0  0
    1.5575    1.1220   -1.7831 C   0  0  0  0  0  0  0  0  0  0  0  0
    1.9555    0.4123   -2.5148 H   0  0  0  0  0  0  0  0  0  0  0  0
    1.5031    2.1136   -2.2407 H   0  0  0  0  0  0  0  0  0  0  0  0
    2.2700    1.1910   -0.9566 H   0  0  0  0  0  0  0  0  0  0  0  0
   -0.9466    0.7230   -2.3786 C   0  0  0  0  0  0  0  0  0  0  0  0
   -1.4946   -0.2184   -2.4374 H   0  0  0  0  0  0  0  0  0  0  0  0
   -1.6697    1.4953   -2.0969 H   0  0  0  0  0  0  0  0  0  0  0  0
   -0.4755    1.0140   -3.8097 C   0  0  0  0  0  0  0  0  0  0  0  0
    0.2539    0.2672   -4.1375 H   0  0  0  0  0  0  0  0  0  0  0  0
   -1.3289    0.9773   -4.4937 H   0  0  0  0  0  0  0  0  0  0  0  0
   -0.0294    2.0099   -3.8844 H   0  0  0  0  0  0  0  0  0  0  0  0
    0.9856   -0.4825    0.8617 C   0  0  0  0  0  0  0  0  0  0  0  0
    2.2027   -0.5595    0.9664 O   0  0  0  0  0  0  0  0  0  0  0  0
    0.2442   -0.0556    1.9491 N   0  0  0  0  0  0  0  0  0  0  0  0
   -0.7639   -0.1035    1.8525 H   0  0  0  0  0  0  0  0  0  0  0  0
    0.8166    0.1096    3.2791 C   0  0  0  0  0  0  0  0  0  0  0  0
    1.6430    0.8280    3.2548 H   0  0  0  0  0  0  0  0  0  0  0  0
    0.0580    0.4819    3.9741 H   0  0  0  0  0  0  0  0  0  0  0  0
    1.1931   -0.8482    3.6539 H   0  0  0  0  0  0  0  0  0  0  0  0
  1  2  1  0  0  0  0
  2  3  1  0  0  0  0
  2  4  1  0  0  0  0
  2  5  1  0  0  0  0
  5  6  2  0  0  0  0
  5  7  1  0  0  0  0
  7  8  1  0  0  0  0
  7  9  1  0  0  0  0
  9 10  1  0  0  0  0
  9 11  1  0  0  0  0
  9 24  1  0  0  0  0
 11 12  1  0  0  0  0
 11 13  1  0  0  0  0
 11 17  1  0  0  0  0
 13 14  1  0  0  0  0
 13 15  1  0  0  0  0
 13 16  1  0  0  0  0
 17 18  1  0  0  0  0
 17 19  1  0  0  0  0
 17 20  1  0  0  0  0
 20 21  1  0  0  0  0
 20 22  1  0  0  0  0
 20 23  1  0  0  0  0
 24 25  2  0  0  0  0
 24 26  1  0  0  0  0
 26 27  1  0  0  0  0
 26 28  1  0  0  0  0
 28 29  1  0  0  0  0
 28 30  1  0  0  0  0
 28 31  1  0  0  0  0
M  END
$$$$

  -OEChem-03222214053D

 31 30  0     1  0  0  0  0  0999 V2000
   -2.4577   -4.3389    0.5312 H   0  0  0  0  0  0  0  0  0  0  0  0
   -2.5205   -3.3304    0.1124 C   0  0  0  0  0  0  0  0  0  0  0  0
   -3.2082   -2.7391    0.7214 H   0  0  0  0  0  0  0  0  0  0  0  0
   -2.9100   -3.3976   -0.9062 H   0  0  0  0  0  0  0  0  0  0  0  0
   -1.1478   -2.6843    0.1019 C   0  0  0  0  0  0  0  0  0  0  0  0
   -0.1897   -3.2922    0.5425 O   0  0  0  0  0  0  0  0  0  0  0  0
   -0.9969   -1.4090   -0.4067 N   0  0  0  0  0  0  0  0  0  0  0  0
   -1.8259   -0.9687   -0.7917 H   0  0  0  0  0  0  0  0  0  0  0  0
    0.2909   -0.6918   -0.5123 C   0  0  1  0  0  0  0  0  0  0  0  0
    0.9589   -1.3370   -1.0944 H   0  0  0  0  0  0  0  0  0  0  0  0
    0.1702    0.6638   -1.2816 C   0  0  1  0  0  0  0  0  0  0  0  0
   -0.1464    1.3985   -0.5329 H   0  0  0  0  0  0  0  0  0  0  0  0
    1.5530    1.1278   -1.7813 C   0  0  0  0  0  0  0  0  0  0  0  0
    1.9800    0.4054   -2.4837 H   0  0  0  0  0  0  0  0  0  0  0  0
    1.4756    2.1011   -2.2751 H   0  0  0  0  0  0  0  0  0  0  0  0
    2.2499    1.2421   -0.9463 H   0  0  0  0  0  0  0  0  0  0  0  0
   -0.9369    0.7276   -2.3862 C   0  0  0  0  0  0  0  0  0  0  0  0
   -1.6962   -0.0446   -2.2622 H   0  0  0  0  0  0  0  0  0  0  0  0
   -1.4559    1.6859   -2.2783 H   0  0  0  0  0  0  0  0  0  0  0  0
   -0.4292    0.6516   -3.8317 C   0  0  0  0  0  0  0  0  0  0  0  0
    0.1587   -0.2590   -3.9832 H   0  0  0  0  0  0  0  0  0  0  0  0
   -1.2785    0.6304   -4.5214 H   0  0  0  0  0  0  0  0  0  0  0  0
    0.1861    1.5198   -4.0846 H   0  0  0  0  0  0  0  0  0  0  0  0
    0.9819   -0.4881    0.8585 C   0  0  0  0  0  0  0  0  0  0  0  0
    2.2001   -0.5566    0.9569 O   0  0  0  0  0  0  0  0  0  0  0  0
    0.2441   -0.0594    1.9478 N   0  0  0  0  0  0  0  0  0  0  0  0
   -0.7644   -0.1102    1.8558 H   0  0  0  0  0  0  0  0  0  0  0  0
    0.8220    0.1119    3.2745 C   0  0  0  0  0  0  0  0  0  0  0  0
    1.6408    0.8385    3.2450 H   0  0  0  0  0  0  0  0  0  0  0  0
    0.0636    0.4765    3.9736 H   0  0  0  0  0  0  0  0  0  0  0  0
    1.2101   -0.8417    3.6479 H   0  0  0  0  0  0  0  0  0  0  0  0
  1  2  1  0  0  0  0
  2  3  1  0  0  0  0
  2  4  1  0  0  0  0
  2  5  1  0  0  0  0
  5  6  2  0  0  0  0
  5  7  1  0  0  0  0
  7  8  1  0  0  0  0
  7  9  1  0  0  0  0
  9 10  1  0  0  0  0
  9 11  1  0  0  0  0
  9 24  1  0  0  0  0
 11 12  1  0  0  0  0
 11 13  1  0  0  0  0
 11 17  1  0  0  0  0
 13 14  1  0  0  0  0
 13 15  1  0  0  0  0
 13 16  1  0  0  0  0
 17 18  1  0  0  0  0
 17 19  1  0  0  0  0
 17 20  1  0  0  0  0
 20 21  1  0  0  0  0
 20 22  1  0  0  0  0
 20 23  1  0  0  0  0
 24 25  2  0  0  0  0
 24 26  1  0  0  0  0
 26 27  1  0  0  0  0
 26 28  1  0  0  0  0
 28 29  1  0  0  0  0
 28 30  1  0  0  0  0
 28 31  1  0  0  0  0
M  END
$$$$

  -OEChem-03222214053D

 31 30  0     1  0  0  0  0  0999 V2000
   -2.4652   -4.3441    0.5033 H   0  0  0  0  0  0  0  0  0  0  0  0
   -2.5260   -3.3338    0.0885 C   0  0  0  0  0  0  0  0  0  0  0  0
   -3.2279   -2.7497    0.6884 H   0  0  0  0  0  0  0  0  0  0  0  0
   -2.8975   -3.3980   -0.9369 H   0  0  0  0  0  0  0  0  0  0  0  0
   -1.1568   -2.6802    0.1046 C   0  0  0  0  0  0  0  0  0  0  0  0
   -0.2042   -3.2822    0.5649 O   0  0  0  0  0  0  0  0  0  0  0  0
   -1.0027   -1.4047   -0.4026 N   0  0  0  0  0  0  0  0  0  0  0  0
   -1.8222   -0.9778   -0.8205 H   0  0  0  0  0  0  0  0  0  0  0  0
    0.2879   -0.6924   -0.5044 C   0  0  1  0  0  0  0  0  0  0  0  0
    0.9533   -1.3396   -1.0868 H   0  0  0  0  0  0  0  0  0  0  0  0
    0.1730    0.6638   -1.2701 C   0  0  1  0  0  0  0  0  0  0  0  0
   -0.1374    1.4033   -0.5235 H   0  0  0  0  0  0  0  0  0  0  0  0
    1.5478    1.1198   -1.7936 C   0  0  0  0  0  0  0  0  0  0  0  0
    1.9854    0.3686   -2.4585 H   0  0  0  0  0  0  0  0  0  0  0  0
    1.4534    2.0629   -2.3407 H   0  0  0  0  0  0  0  0  0  0  0  0
    2.2415    1.2855   -0.9643 H   0  0  0  0  0  0  0  0  0  0  0  0
   -0.9301    0.7264   -2.3688 C   0  0  0  0  0  0  0  0  0  0  0  0
   -1.8212    0.1603   -2.0942 H   0  0  0  0  0  0  0  0  0  0  0  0
   -1.2515    1.7699   -2.4538 H   0  0  0  0  0  0  0  0  0  0  0  0
   -0.4622    0.2883   -3.7615 C   0  0  0  0  0  0  0  0  0  0  0  0
   -0.0364   -0.7192   -3.7210 H   0  0  0  0  0  0  0  0  0  0  0  0
   -1.3112    0.2772   -4.4515 H   0  0  0  0  0  0  0  0  0  0  0  0
    0.2892    0.9743   -4.1636 H   0  0  0  0  0  0  0  0  0  0  0  0
    0.9820   -0.4894    0.8642 C   0  0  0  0  0  0  0  0  0  0  0  0
    2.2012   -0.5493    0.9555 O   0  0  0  0  0  0  0  0  0  0  0  0
    0.2474   -0.0574    1.9540 N   0  0  0  0  0  0  0  0  0  0  0  0
   -0.7611   -0.1157    1.8664 H   0  0  0  0  0  0  0  0  0  0  0  0
    0.8297    0.1213    3.2778 C   0  0  0  0  0  0  0  0  0  0  0  0
    1.6473    0.8492    3.2425 H   0  0  0  0  0  0  0  0  0  0  0  0
    0.0730    0.4882    3.9777 H   0  0  0  0  0  0  0  0  0  0  0  0
    1.2210   -0.8297    3.6543 H   0  0  0  0  0  0  0  0  0  0  0  0
  1  2  1  0  0  0  0
  2  3  1  0  0  0  0
  2  4  1  0  0  0  0
  2  5  1  0  0  0  0
  5  6  2  0  0  0  0
  5  7  1  0  0  0  0
  7  8  1  0  0  0  0
  7  9  1  0  0  0  0
  9 10  1  0  0  0  0
  9 11  1  0  0  0  0
  9 24  1  0  0  0  0
 11 12  1  0  0  0  0
 11 13  1  0  0  0  0
 11 17  1  0  0  0  0
 13 14  1  0  0  0  0
 13 15  1  0  0  0  0
 13 16  1  0  0  0  0
 17 18  1  0  0  0  0
 17 19  1  0  0  0  0
 17 20  1  0  0  0  0
 20 21  1  0  0  0  0
 20 22  1  0  0  0  0
 20 23  1  0  0  0  0
 24 25  2  0  0  0  0
 24 26  1  0  0  0  0
 26 27  1  0  0  0  0
 26 28  1  0  0  0  0
 28 29  1  0  0  0  0
 28 30  1  0  0  0  0
 28 31  1  0  0  0  0
M  END
$$$$

  -OEChem-03222214053D

 31 30  0     1  0  0  0  0  0999 V2000
   -2.4770   -4.3466    0.4427 H   0  0  0  0  0  0  0  0  0  0  0  0
   -2.5301   -3.3343    0.0318 C   0  0  0  0  0  0  0  0  0  0  0  0
   -3.2626   -2.7606    0.6045 H   0  0  0  0  0  0  0  0  0  0  0  0
   -2.8563   -3.3954   -1.0091 H   0  0  0  0  0  0  0  0  0  0  0  0
   -1.1696   -2.6675    0.1114 C   0  0  0  0  0  0  0  0  0  0  0  0
   -0.2354   -3.2587    0.6207 O   0  0  0  0  0  0  0  0  0  0  0  0
   -1.0026   -1.3943   -0.3971 N   0  0  0  0  0  0  0  0  0  0  0  0
   -1.7951   -0.9968   -0.8900 H   0  0  0  0  0  0  0  0  0  0  0  0
    0.2950   -0.6931   -0.4895 C   0  0  1  0  0  0  0  0  0  0  0  0
    0.9597   -1.3419   -1.0710 H   0  0  0  0  0  0  0  0  0  0  0  0
    0.1772    0.6653   -1.2469 C   0  0  1  0  0  0  0  0  0  0  0  0
   -0.1158    1.4156   -0.5040 H   0  0  0  0  0  0  0  0  0  0  0  0
    1.5426    1.1007   -1.8093 C   0  0  0  0  0  0  0  0  0  0  0  0
    1.9683    0.3276   -2.4562 H   0  0  0  0  0  0  0  0  0  0  0  0
    1.4407    2.0240   -2.3880 H   0  0  0  0  0  0  0  0  0  0  0  0
    2.2501    1.2908   -0.9965 H   0  0  0  0  0  0  0  0  0  0  0  0
   -0.9288    0.7183   -2.3349 C   0  0  0  0  0  0  0  0  0  0  0  0
   -1.8862    0.3642   -1.9456 H   0  0  0  0  0  0  0  0  0  0  0  0
   -1.0833    1.7671   -2.6096 H   0  0  0  0  0  0  0  0  0  0  0  0
   -0.5732   -0.0467   -3.6146 C   0  0  0  0  0  0  0  0  0  0  0  0
   -0.3305   -1.0886   -3.3842 H   0  0  0  0  0  0  0  0  0  0  0  0
   -1.4230   -0.0340   -4.3038 H   0  0  0  0  0  0  0  0  0  0  0  0
    0.2809    0.4099   -4.1231 H   0  0  0  0  0  0  0  0  0  0  0  0
    0.9888   -0.4885    0.8785 C   0  0  0  0  0  0  0  0  0  0  0  0
    2.2086   -0.5440    0.9661 O   0  0  0  0  0  0  0  0  0  0  0  0
    0.2566   -0.0455    1.9652 N   0  0  0  0  0  0  0  0  0  0  0  0
   -0.7520   -0.1117    1.8819 H   0  0  0  0  0  0  0  0  0  0  0  0
    0.8425    0.1447    3.2858 C   0  0  0  0  0  0  0  0  0  0  0  0
    1.6539    0.8791    3.2432 H   0  0  0  0  0  0  0  0  0  0  0  0
    0.0859    0.5090    3.9870 H   0  0  0  0  0  0  0  0  0  0  0  0
    1.2429   -0.8011    3.6658 H   0  0  0  0  0  0  0  0  0  0  0  0
  1  2  1  0  0  0  0
  2  3  1  0  0  0  0
  2  4  1  0  0  0  0
  2  5  1  0  0  0  0
  5  6  2  0  0  0  0
  5  7  1  0  0  0  0
  7  8  1  0  0  0  0
  7  9  1  0  0  0  0
  9 10  1  0  0  0  0
  9 11  1  0  0  0  0
  9 24  1  0  0  0  0
 11 12  1  0  0  0  0
 11 13  1  0  0  0  0
 11 17  1  0  0  0  0
 13 14  1  0  0  0  0
 13 15  1  0  0  0  0
 13 16  1  0  0  0  0
 17 18  1  0  0  0  0
 17 19  1  0  0  0  0
 17 20  1  0  0  0  0
 20 21  1  0  0  0  0
 20 22  1  0  0  0  0
 20 23  1  0  0  0  0
 24 25  2  0  0  0  0
 24 26  1  0  0  0  0
 26 27  1  0  0  0  0
 26 28  1  0  0  0  0
 28 29  1  0  0  0  0
 28 30  1  0  0  0  0
 28 31  1  0  0  0  0
M  END
$$$$

  -OEChem-03222214053D

 31 30  0     1  0  0  0  0  0999 V2000
   -2.4725   -4.3490    0.4132 H   0  0  0  0  0  0  0  0  0  0  0  0
   -2.5202   -3.3363    0.0026 C   0  0  0  0  0  0  0  0  0  0  0  0
   -3.2699   -2.7668    0.5571 H   0  0  0  0  0  0  0  0  0  0  0  0
   -2.8189   -3.3975   -1.0466 H   0  0  0  0  0  0  0  0  0  0  0  0
   -1.1658   -2.6627    0.1186 C   0  0  0  0  0  0  0  0  0  0  0  0
   -0.2425   -3.2481    0.6538 O   0  0  0  0  0  0  0  0  0  0  0  0
   -0.9907   -1.3916   -0.3918 N   0  0  0  0  0  0  0  0  0  0  0  0
   -1.7664   -1.0065   -0.9210 H   0  0  0  0  0  0  0  0  0  0  0  0
    0.3100   -0.6951   -0.4729 C   0  0  1  0  0  0  0  0  0  0  0  0
    0.9791   -1.3426   -1.0508 H   0  0  0  0  0  0  0  0  0  0  0  0
    0.1794    0.6617   -1.2284 C   0  0  1  0  0  0  0  0  0  0  0  0
   -0.0974    1.4228   -0.4906 H   0  0  0  0  0  0  0  0  0  0  0  0
    1.5366    1.0747   -1.8254 C   0  0  0  0  0  0  0  0  0  0  0  0
    1.9246    0.3022   -2.4962 H   0  0  0  0  0  0  0  0  0  0  0  0
    1.4398    2.0080   -2.3883 H   0  0  0  0  0  0  0  0  0  0  0  0
    2.2719    1.2371   -1.0316 H   0  0  0  0  0  0  0  0  0  0  0  0
   -0.9239    0.7111   -2.3169 C   0  0  0  0  0  0  0  0  0  0  0  0
   -1.9054    0.5691   -1.8549 H   0  0  0  0  0  0  0  0  0  0  0  0
   -0.9329    1.7116   -2.7620 H   0  0  0  0  0  0  0  0  0  0  0  0
   -0.7437   -0.3160   -3.4438 C   0  0  0  0  0  0  0  0  0  0  0  0
   -0.7172   -1.3373   -3.0545 H   0  0  0  0  0  0  0  0  0  0  0  0
   -1.5770   -0.2407   -4.1490 H   0  0  0  0  0  0  0  0  0  0  0  0
    0.1835   -0.1302   -3.9934 H   0  0  0  0  0  0  0  0  0  0  0  0
    0.9957   -0.4858    0.8983 C   0  0  0  0  0  0  0  0  0  0  0  0
    2.2152   -0.5387    0.9913 O   0  0  0  0  0  0  0  0  0  0  0  0
    0.2587   -0.0355    1.9790 N   0  0  0  0  0  0  0  0  0  0  0  0
   -0.7494   -0.1027    1.8913 H   0  0  0  0  0  0  0  0  0  0  0  0
    0.8381    0.1653    3.3012 C   0  0  0  0  0  0  0  0  0  0  0  0
    1.6507    0.8981    3.2568 H   0  0  0  0  0  0  0  0  0  0  0  0
    0.0781    0.5365    3.9952 H   0  0  0  0  0  0  0  0  0  0  0  0
    1.2351   -0.7778    3.6918 H   0  0  0  0  0  0  0  0  0  0  0  0
  1  2  1  0  0  0  0
  2  3  1  0  0  0  0
  2  4  1  0  0  0  0
  2  5  1  0  0  0  0
  5  6  2  0  0  0  0
  5  7  1  0  0  0  0
  7  8  1  0  0  0  0
  7  9  1  0  0  0  0
  9 10  1  0  0  0  0
  9 11  1  0  0  0  0
  9 24  1  0  0  0  0
 11 12  1  0  0  0  0
 11 13  1  0  0  0  0
 11 17  1  0  0  0  0
 13 14  1  0  0  0  0
 13 15  1  0  0  0  0
 13 16  1  0  0  0  0
 17 18  1  0  0  0  0
 17 19  1  0  0  0  0
 17 20  1  0  0  0  0
 20 21  1  0  0  0  0
 20 22  1  0  0  0  0
 20 23  1  0  0  0  0
 24 25  2  0  0  0  0
 24 26  1  0  0  0  0
 26 27  1  0  0  0  0
 26 28  1  0  0  0  0
 28 29  1  0  0  0  0
 28 30  1  0  0  0  0
 28 31  1  0  0  0  0
M  END
$$$$

  -OEChem-03222214053D

 31 30  0     1  0  0  0  0  0999 V2000
   -2.4250   -4.3741    0.4698 H   0  0  0  0  0  0  0  0  0  0  0  0
   -2.4810   -3.3658    0.0495 C   0  0  0  0  0  0  0  0  0  0  0  0
   -3.2283   -2.7943    0.6051 H   0  0  0  0  0  0  0  0  0  0  0  0
   -2.7895   -3.4385   -0.9962 H   0  0  0  0  0  0  0  0  0  0  0  0
   -1.1285   -2.6854    0.1462 C   0  0  0  0  0  0  0  0  0  0  0  0
   -0.1960   -3.2633    0.6734 O   0  0  0  0  0  0  0  0  0  0  0  0
   -0.9658   -1.4164   -0.3735 N   0  0  0  0  0  0  0  0  0  0  0  0
   -1.7530   -1.0293   -0.8846 H   0  0  0  0  0  0  0  0  0  0  0  0
    0.3234   -0.7031   -0.4572 C   0  0  1  0  0  0  0  0  0  0  0  0
    1.0032   -1.3461   -1.0275 H   0  0  0  0  0  0  0  0  0  0  0  0
    0.1751    0.6462   -1.2245 C   0  0  1  0  0  0  0  0  0  0  0  0
   -0.0875    1.4164   -0.4908 H   0  0  0  0  0  0  0  0  0  0  0  0
    1.5320    1.0388   -1.8376 C   0  0  0  0  0  0  0  0  0  0  0  0
    1.8611    0.2939   -2.5684 H   0  0  0  0  0  0  0  0  0  0  0  0
    1.4617    2.0091   -2.3387 H   0  0  0  0  0  0  0  0  0  0  0  0
    2.2996    1.1213   -1.0623 H   0  0  0  0  0  0  0  0  0  0  0  0
   -0.9132    0.7216   -2.3321 C   0  0  0  0  0  0  0  0  0  0  0  0
   -1.8917    0.8215   -1.8518 H   0  0  0  0  0  0  0  0  0  0  0  0
   -0.7582    1.6330   -2.9190 H   0  0  0  0  0  0  0  0  0  0  0  0
   -0.9788   -0.4736   -3.2990 C   0  0  0  0  0  0  0  0  0  0  0  0
   -1.3459   -1.3832   -2.8219 H   0  0  0  0  0  0  0  0  0  0  0  0
   -1.6593   -0.2375   -4.1227 H   0  0  0  0  0  0  0  0  0  0  0  0
    0.0091   -0.6783   -3.7219 H   0  0  0  0  0  0  0  0  0  0  0  0
    0.9973   -0.4761    0.9172 C   0  0  0  0  0  0  0  0  0  0  0  0
    2.2163   -0.5195    1.0223 O   0  0  0  0  0  0  0  0  0  0  0  0
    0.2461   -0.0293    1.9896 N   0  0  0  0  0  0  0  0  0  0  0  0
   -0.7608   -0.1017    1.8922 H   0  0  0  0  0  0  0  0  0  0  0  0
    0.8120    0.1819    3.3157 C   0  0  0  0  0  0  0  0  0  0  0  0
    1.6222    0.9175    3.2741 H   0  0  0  0  0  0  0  0  0  0  0  0
    0.0443    0.5547    4.0000 H   0  0  0  0  0  0  0  0  0  0  0  0
    1.2087   -0.7574    3.7150 H   0  0  0  0  0  0  0  0  0  0  0  0
  1  2  1  0  0  0  0
  2  3  1  0  0  0  0
  2  4  1  0  0  0  0
  2  5  1  0  0  0  0
  5  6  2  0  0  0  0
  5  7  1  0  0  0  0
  7  8  1  0  0  0  0
  7  9  1  0  0  0  0
  9 10  1  0  0  0  0
  9 11  1  0  0  0  0
  9 24  1  0  0  0  0
 11 12  1  0  0  0  0
 11 13  1  0  0  0  0
 11 17  1  0  0  0  0
 13 14  1  0  0  0  0
 13 15  1  0  0  0  0
 13 16  1  0  0  0  0
 17 18  1  0  0  0  0
 17 19  1  0  0  0  0
 17 20  1  0  0  0  0
 20 21  1  0  0  0  0
 20 22  1  0  0  0  0
 20 23  1  0  0  0  0
 24 25  2  0  0  0  0
 24 26  1  0  0  0  0
 26 27  1  0  0  0  0
 26 28  1  0  0  0  0
 28 29  1  0  0  0  0
 28 30  1  0  0  0  0
 28 31  1  0  0  0  0
M  END
$$$$

  -OEChem-03222214053D

 31 30  0     1  0  0  0  0  0999 V2000
   -2.3536   -4.4096    0.5551 H   0  0  0  0  0  0  0  0  0  0  0  0
   -2.4306   -3.4048    0.1294 C   0  0  0  0  0  0  0  0  0  0  0  0
   -3.1598   -2.8328    0.7080 H   0  0  0  0  0  0  0  0  0  0  0  0
   -2.7765   -3.4873   -0.9038 H   0  0  0  0  0  0  0  0  0  0  0  0
   -1.0796   -2.7161    0.1709 C   0  0  0  0  0  0  0  0  0  0  0  0
   -0.1250   -3.2862    0.6661 O   0  0  0  0  0  0  0  0  0  0  0  0
   -0.9440   -1.4468   -0.3561 N   0  0  0  0  0  0  0  0  0  0  0  0
   -1.7575   -1.0516   -0.8168 H   0  0  0  0  0  0  0  0  0  0  0  0
    0.3277   -0.7072   -0.4517 C   0  0  1  0  0  0  0  0  0  0  0  0
    1.0175   -1.3446   -1.0163 H   0  0  0  0  0  0  0  0  0  0  0  0
    0.1682    0.6380   -1.2304 C   0  0  1  0  0  0  0  0  0  0  0  0
   -0.0828    1.4132   -0.4977 H   0  0  0  0  0  0  0  0  0  0  0  0
    1.5289    1.0122   -1.8493 C   0  0  0  0  0  0  0  0  0  0  0  0
    1.8155    0.2872   -2.6177 H   0  0  0  0  0  0  0  0  0  0  0  0
    1.4843    2.0050   -2.3077 H   0  0  0  0  0  0  0  0  0  0  0  0
    2.3142    1.0375   -1.0885 H   0  0  0  0  0  0  0  0  0  0  0  0
   -0.9084    0.7437   -2.3557 C   0  0  0  0  0  0  0  0  0  0  0  0
   -1.8363    1.1098   -1.9048 H   0  0  0  0  0  0  0  0  0  0  0  0
   -0.5957    1.5055   -3.0777 H   0  0  0  0  0  0  0  0  0  0  0  0
   -1.2527   -0.5348   -3.1356 C   0  0  0  0  0  0  0  0  0  0  0  0
   -1.9758   -1.1582   -2.6058 H   0  0  0  0  0  0  0  0  0  0  0  0
   -1.7025   -0.2643   -4.0958 H   0  0  0  0  0  0  0  0  0  0  0  0
   -0.3491   -1.1196   -3.3344 H   0  0  0  0  0  0  0  0  0  0  0  0
    0.9945   -0.4643    0.9240 C   0  0  0  0  0  0  0  0  0  0  0  0
    2.2129   -0.4940    1.0369 O   0  0  0  0  0  0  0  0  0  0  0  0
    0.2312   -0.0315    1.9936 N   0  0  0  0  0  0  0  0  0  0  0  0
   -0.7739   -0.1185    1.8901 H   0  0  0  0  0  0  0  0  0  0  0  0
    0.7859    0.1787    3.3246 C   0  0  0  0  0  0  0  0  0  0  0  0
    1.5958    0.9151    3.2914 H   0  0  0  0  0  0  0  0  0  0  0  0
    0.0118    0.5499    4.0026 H   0  0  0  0  0  0  0  0  0  0  0  0
    1.1801   -0.7606    3.7263 H   0  0  0  0  0  0  0  0  0  0  0  0
  1  2  1  0  0  0  0
  2  3  1  0  0  0  0
  2  4  1  0  0  0  0
  2  5  1  0  0  0  0
  5  6  2  0  0  0  0
  5  7  1  0  0  0  0
  7  8  1  0  0  0  0
  7  9  1  0  0  0  0
  9 10  1  0  0  0  0
  9 11  1  0  0  0  0
  9 24  1  0  0  0  0
 11 12  1  0  0  0  0
 11 13  1  0  0  0  0
 11 17  1  0  0  0  0
 13 14  1  0  0  0  0
 13 15  1  0  0  0  0
 13 16  1  0  0  0  0
 17 18  1  0  0  0  0
 17 19  1  0  0  0  0
 17 20  1  0  0  0  0
 20 21  1  0  0  0  0
 20 22  1  0  0  0  0
 20 23  1  0  0  0  0
 24 25  2  0  0  0  0
 24 26  1  0  0  0  0
 26 27  1  0  0  0  0
 26 28  1  0  0  0  0
 28 29  1  0  0  0  0
 28 30  1  0  0  0  0
 28 31  1  0  0  0  0
M  END
$$$$

  -OEChem-03222214053D

 31 30  0     1  0  0  0  0  0999 V2000
   -2.3030   -4.4398    0.6452 H   0  0  0  0  0  0  0  0  0  0  0  0
   -2.3961   -3.4411    0.2088 C   0  0  0  0  0  0  0  0  0  0  0  0
   -3.1096   -2.8637    0.8014 H   0  0  0  0  0  0  0  0  0  0  0  0
   -2.7728   -3.5382   -0.8123 H   0  0  0  0  0  0  0  0  0  0  0  0
   -1.0463   -2.7485    0.2000 C   0  0  0  0  0  0  0  0  0  0  0  0
   -0.0718   -3.3158    0.6582 O   0  0  0  0  0  0  0  0  0  0  0  0
   -0.9338   -1.4802   -0.3349 N   0  0  0  0  0  0  0  0  0  0  0  0
   -1.7713   -1.0755   -0.7398 H   0  0  0  0  0  0  0  0  0  0  0  0
    0.3237   -0.7206   -0.4479 C   0  0  1  0  0  0  0  0  0  0  0  0
    1.0181   -1.3572   -1.0082 H   0  0  0  0  0  0  0  0  0  0  0  0
    0.1644    0.6201   -1.2421 C   0  0  1  0  0  0  0  0  0  0  0  0
   -0.0942    1.3902   -0.5069 H   0  0  0  0  0  0  0  0  0  0  0  0
    1.5347    1.0033   -1.8360 C   0  0  0  0  0  0  0  0  0  0  0  0
    1.8360    0.2821   -2.6025 H   0  0  0  0  0  0  0  0  0  0  0  0
    1.4930    1.9982   -2.2905 H   0  0  0  0  0  0  0  0  0  0  0  0
    2.3088    1.0301   -1.0640 H   0  0  0  0  0  0  0  0  0  0  0  0
   -0.9007    0.7577   -2.3844 C   0  0  0  0  0  0  0  0  0  0  0  0
   -1.7128    1.3878   -2.0071 H   0  0  0  0  0  0  0  0  0  0  0  0
   -0.4557    1.3056   -3.2217 H   0  0  0  0  0  0  0  0  0  0  0  0
   -1.5487   -0.5031   -2.9720 C   0  0  0  0  0  0  0  0  0  0  0  0
   -2.3549   -0.8766   -2.3363 H   0  0  0  0  0  0  0  0  0  0  0  0
   -1.9889   -0.2660   -3.9454 H   0  0  0  0  0  0  0  0  0  0  0  0
   -0.8014   -1.2894   -3.1197 H   0  0  0  0  0  0  0  0  0  0  0  0
    0.9915   -0.4646    0.9261 C   0  0  0  0  0  0  0  0  0  0  0  0
    2.2098   -0.4873    1.0412 O   0  0  0  0  0  0  0  0  0  0  0  0
    0.2252   -0.0417    1.9979 N   0  0  0  0  0  0  0  0  0  0  0  0
   -0.7796   -0.1293    1.8937 H   0  0  0  0  0  0  0  0  0  0  0  0
    0.7788    0.1755    3.3284 C   0  0  0  0  0  0  0  0  0  0  0  0
    1.5803    0.9211    3.2942 H   0  0  0  0  0  0  0  0  0  0  0  0
    0.0012    0.5382    4.0072 H   0  0  0  0  0  0  0  0  0  0  0  0
    1.1842   -0.7591    3.7303 H   0  0  0  0  0  0  0  0  0  0  0  0
  1  2  1  0  0  0  0
  2  3  1  0  0  0  0
  2  4  1  0  0  0  0
  2  5  1  0  0  0  0
  5  6  2  0  0  0  0
  5  7  1  0  0  0  0
  7  8  1  0  0  0  0
  7  9  1  0  0  0  0
  9 10  1  0  0  0  0
  9 11  1  0  0  0  0
  9 24  1  0  0  0  0
 11 12  1  0  0  0  0
 11 13  1  0  0  0  0
 11 17  1  0  0  0  0
 13 14  1  0  0  0  0
 13 15  1  0  0  0  0
 13 16  1  0  0  0  0
 17 18  1  0  0  0  0
 17 19  1  0  0  0  0
 17 20  1  0  0  0  0
 20 21  1  0  0  0  0
 20 22  1  0  0  0  0
 20 23  1  0  0  0  0
 24 25  2  0  0  0  0
 24 26  1  0  0  0  0
 26 27  1  0  0  0  0
 26 28  1  0  0  0  0
 28 29  1  0  0  0  0
 28 30  1  0  0  0  0
 28 31  1  0  0  0  0
M  END
$$$$

  -OEChem-03222214053D

 31 30  0     1  0  0  0  0  0999 V2000
   -2.2588   -4.4712    0.7202 H   0  0  0  0  0  0  0  0  0  0  0  0
   -2.3699   -3.4745    0.2833 C   0  0  0  0  0  0  0  0  0  0  0  0
   -3.0698   -2.8995    0.8941 H   0  0  0  0  0  0  0  0  0  0  0  0
   -2.7749   -3.5769   -0.7264 H   0  0  0  0  0  0  0  0  0  0  0  0
   -1.0253   -2.7735    0.2350 C   0  0  0  0  0  0  0  0  0  0  0  0
   -0.0357   -3.3318    0.6718 O   0  0  0  0  0  0  0  0  0  0  0  0
   -0.9360   -1.5074   -0.3096 N   0  0  0  0  0  0  0  0  0  0  0  0
   -1.7879   -1.1103   -0.6894 H   0  0  0  0  0  0  0  0  0  0  0  0
    0.3103   -0.7337   -0.4477 C   0  0  1  0  0  0  0  0  0  0  0  0
    1.0028   -1.3719   -1.0083 H   0  0  0  0  0  0  0  0  0  0  0  0
    0.1541    0.6010   -1.2578 C   0  0  1  0  0  0  0  0  0  0  0  0
   -0.1262    1.3585   -0.5172 H   0  0  0  0  0  0  0  0  0  0  0  0
    1.5273    1.0150   -1.8235 C   0  0  0  0  0  0  0  0  0  0  0  0
    1.8739    0.2861   -2.5631 H   0  0  0  0  0  0  0  0  0  0  0  0
    1.4640    1.9966   -2.3042 H   0  0  0  0  0  0  0  0  0  0  0  0
    2.2777    1.0869   -1.0316 H   0  0  0  0  0  0  0  0  0  0  0  0
   -0.9046    0.7609   -2.4065 C   0  0  0  0  0  0  0  0  0  0  0  0
   -1.5366    1.6204   -2.1592 H   0  0  0  0  0  0  0  0  0  0  0  0
   -0.3761    1.0247   -3.3290 H   0  0  0  0  0  0  0  0  0  0  0  0
   -1.8353   -0.3955   -2.7848 C   0  0  0  0  0  0  0  0  0  0  0  0
   -2.6080   -0.5461   -2.0267 H   0  0  0  0  0  0  0  0  0  0  0  0
   -2.3436   -0.1610   -3.7252 H   0  0  0  0  0  0  0  0  0  0  0  0
   -1.2683   -1.3203   -2.9304 H   0  0  0  0  0  0  0  0  0  0  0  0
    0.9907   -0.4648    0.9180 C   0  0  0  0  0  0  0  0  0  0  0  0
    2.2102   -0.4816    1.0222 O   0  0  0  0  0  0  0  0  0  0  0  0
    0.2322   -0.0465    1.9971 N   0  0  0  0  0  0  0  0  0  0  0  0
   -0.7731   -0.1399    1.9034 H   0  0  0  0  0  0  0  0  0  0  0  0
    0.7982    0.1792    3.3209 C   0  0  0  0  0  0  0  0  0  0  0  0
    1.5931    0.9312    3.2757 H   0  0  0  0  0  0  0  0  0  0  0  0
    0.0252    0.5376    4.0072 H   0  0  0  0  0  0  0  0  0  0  0  0
    1.2154   -0.7511    3.7209 H   0  0  0  0  0  0  0  0  0  0  0  0
  1  2  1  0  0  0  0
  2  3  1  0  0  0  0
  2  4  1  0  0  0  0
  2  5  1  0  0  0  0
  5  6  2  0  0  0  0
  5  7  1  0  0  0  0
  7  8  1  0  0  0  0
  7  9  1  0  0  0  0
  9 10  1  0  0  0  0
  9 11  1  0  0  0  0
  9 24  1  0  0  0  0
 11 12  1  0  0  0  0
 11 13  1  0  0  0  0
 11 17  1  0  0  0  0
 13 14  1  0  0  0  0
 13 15  1  0  0  0  0
 13 16  1  0  0  0  0
 17 18  1  0  0  0  0
 17 19  1  0  0  0  0
 17 20  1  0  0  0  0
 20 21  1  0  0  0  0
 20 22  1  0  0  0  0
 20 23  1  0  0  0  0
 24 25  2  0  0  0  0
 24 26  1  0  0  0  0
 26 27  1  0  0  0  0
 26 28  1  0  0  0  0
 28 29  1  0  0  0  0
 28 30  1  0  0  0  0
 28 31  1  0  0  0  0
M  END
$$$$

  -OEChem-03222214053D

 31 30  0     1  0  0  0  0  0999 V2000
   -2.2459   -4.4928    0.7280 H   0  0  0  0  0  0  0  0  0  0  0  0
   -2.3630   -3.4986    0.2873 C   0  0  0  0  0  0  0  0  0  0  0  0
   -3.0668   -2.9256    0.8954 H   0  0  0  0  0  0  0  0  0  0  0  0
   -2.7666   -3.6074   -0.7222 H   0  0  0  0  0  0  0  0  0  0  0  0
   -1.0228   -2.7896    0.2360 C   0  0  0  0  0  0  0  0  0  0  0  0
   -0.0268   -3.3456    0.6603 O   0  0  0  0  0  0  0  0  0  0  0  0
   -0.9458   -1.5181   -0.2975 N   0  0  0  0  0  0  0  0  0  0  0  0
   -1.8015   -1.1301   -0.6775 H   0  0  0  0  0  0  0  0  0  0  0  0
    0.2967   -0.7425   -0.4557 C   0  0  1  0  0  0  0  0  0  0  0  0
    0.9762   -1.3765   -1.0365 H   0  0  0  0  0  0  0  0  0  0  0  0
    0.1382    0.6029   -1.2493 C   0  0  1  0  0  0  0  0  0  0  0  0
   -0.1408    1.3416   -0.4897 H   0  0  0  0  0  0  0  0  0  0  0  0
    1.5011    1.0379   -1.8216 C   0  0  0  0  0  0  0  0  0  0  0  0
    1.8636    0.3066   -2.5511 H   0  0  0  0  0  0  0  0  0  0  0  0
    1.4150    2.0103   -2.3170 H   0  0  0  0  0  0  0  0  0  0  0  0
    2.2499    1.1366   -1.0307 H   0  0  0  0  0  0  0  0  0  0  0  0
   -0.9325    0.7983   -2.3781 C   0  0  0  0  0  0  0  0  0  0  0  0
   -1.3520    1.8036   -2.2642 H   0  0  0  0  0  0  0  0  0  0  0  0
   -0.4115    0.7855   -3.3417 H   0  0  0  0  0  0  0  0  0  0  0  0
   -2.1013   -0.1758   -2.5438 C   0  0  0  0  0  0  0  0  0  0  0  0
   -2.7534   -0.1558   -1.6658 H   0  0  0  0  0  0  0  0  0  0  0  0
   -2.7022    0.1206   -3.4092 H   0  0  0  0  0  0  0  0  0  0  0  0
   -1.7408   -1.1932   -2.7231 H   0  0  0  0  0  0  0  0  0  0  0  0
    1.0058   -0.4886    0.8984 C   0  0  0  0  0  0  0  0  0  0  0  0
    2.2274   -0.5019    0.9755 O   0  0  0  0  0  0  0  0  0  0  0  0
    0.2694   -0.0827    1.9971 N   0  0  0  0  0  0  0  0  0  0  0  0
   -0.7367   -0.1844    1.9246 H   0  0  0  0  0  0  0  0  0  0  0  0
    0.8621    0.1318    3.3110 C   0  0  0  0  0  0  0  0  0  0  0  0
    1.6523    0.8881    3.2571 H   0  0  0  0  0  0  0  0  0  0  0  0
    0.1016    0.4794    4.0167 H   0  0  0  0  0  0  0  0  0  0  0  0
    1.2916   -0.8005    3.6925 H   0  0  0  0  0  0  0  0  0  0  0  0
  1  2  1  0  0  0  0
  2  3  1  0  0  0  0
  2  4  1  0  0  0  0
  2  5  1  0  0  0  0
  5  6  2  0  0  0  0
  5  7  1  0  0  0  0
  7  8  1  0  0  0  0
  7  9  1  0  0  0  0
  9 10  1  0  0  0  0
  9 11  1  0  0  0  0
  9 24  1  0  0  0  0
 11 12  1  0  0  0  0
 11 13  1  0  0  0  0
 11 17  1  0  0  0  0
 13 14  1  0  0  0  0
 13 15  1  0  0  0  0
 13 16  1  0  0  0  0
 17 18  1  0  0  0  0
 17 19  1  0  0  0  0
 17 20  1  0  0  0  0
 20 21  1  0  0  0  0
 20 22  1  0  0  0  0
 20 23  1  0  0  0  0
 24 25  2  0  0  0  0
 24 26  1  0  0  0  0
 26 27  1  0  0  0  0
 26 28  1  0  0  0  0
 28 29  1  0  0  0  0
 28 30  1  0  0  0  0
 28 31  1  0  0  0  0
M  END
$$$$

  -OEChem-03222214053D

 31 30  0     1  0  0  0  0  0999 V2000
   -2.2485   -4.4966    0.7061 H   0  0  0  0  0  0  0  0  0  0  0  0
   -2.3676   -3.4994    0.2727 C   0  0  0  0  0  0  0  0  0  0  0  0
   -3.0736   -2.9325    0.8840 H   0  0  0  0  0  0  0  0  0  0  0  0
   -2.7705   -3.6021   -0.7378 H   0  0  0  0  0  0  0  0  0  0  0  0
   -1.0286   -2.7871    0.2293 C   0  0  0  0  0  0  0  0  0  0  0  0
   -0.0341   -3.3409    0.6607 O   0  0  0  0  0  0  0  0  0  0  0  0
   -0.9502   -1.5155   -0.3043 N   0  0  0  0  0  0  0  0  0  0  0  0
   -1.8042   -1.1288   -0.6897 H   0  0  0  0  0  0  0  0  0  0  0  0
    0.2915   -0.7362   -0.4478 C   0  0  1  0  0  0  0  0  0  0  0  0
    0.9792   -1.3704   -1.0188 H   0  0  0  0  0  0  0  0  0  0  0  0
    0.1433    0.6080   -1.2438 C   0  0  1  0  0  0  0  0  0  0  0  0
   -0.1425    1.3512   -0.4912 H   0  0  0  0  0  0  0  0  0  0  0  0
    1.5076    1.0353   -1.8156 C   0  0  0  0  0  0  0  0  0  0  0  0
    1.8791    0.2895   -2.5257 H   0  0  0  0  0  0  0  0  0  0  0  0
    1.4219    1.9954   -2.3343 H   0  0  0  0  0  0  0  0  0  0  0  0
    2.2488    1.1541   -1.0202 H   0  0  0  0  0  0  0  0  0  0  0  0
   -0.9125    0.7926   -2.3820 C   0  0  0  0  0  0  0  0  0  0  0  0
   -1.1453    1.8614   -2.4378 H   0  0  0  0  0  0  0  0  0  0  0  0
   -0.4371    0.5214   -3.3309 H   0  0  0  0  0  0  0  0  0  0  0  0
   -2.2407    0.0332   -2.3498 C   0  0  0  0  0  0  0  0  0  0  0  0
   -2.7533    0.1896   -1.3959 H   0  0  0  0  0  0  0  0  0  0  0  0
   -2.8920    0.4043   -3.1472 H   0  0  0  0  0  0  0  0  0  0  0  0
   -2.0873   -1.0359   -2.5236 H   0  0  0  0  0  0  0  0  0  0  0  0
    0.9851   -0.4781    0.9131 C   0  0  0  0  0  0  0  0  0  0  0  0
    2.2059   -0.4837    1.0013 O   0  0  0  0  0  0  0  0  0  0  0  0
    0.2363   -0.0730    2.0039 N   0  0  0  0  0  0  0  0  0  0  0  0
   -0.7693   -0.1743    1.9214 H   0  0  0  0  0  0  0  0  0  0  0  0
    0.8164    0.1480    3.3223 C   0  0  0  0  0  0  0  0  0  0  0  0
    1.6037    0.9076    3.2724 H   0  0  0  0  0  0  0  0  0  0  0  0
    0.0486    0.4940    4.0205 H   0  0  0  0  0  0  0  0  0  0  0  0
    1.2473   -0.7810    3.7103 H   0  0  0  0  0  0  0  0  0  0  0  0
  1  2  1  0  0  0  0
  2  3  1  0  0  0  0
  2  4  1  0  0  0  0
  2  5  1  0  0  0  0
  5  6  2  0  0  0  0
  5  7  1  0  0  0  0
  7  8  1  0  0  0  0
  7  9  1  0  0  0  0
  9 10  1  0  0  0  0
  9 11  1  0  0  0  0
  9 24  1  0  0  0  0
 11 12  1  0  0  0  0
 11 13  1  0  0  0  0
 11 17  1  0  0  0  0
 13 14  1  0  0  0  0
 13 15  1  0  0  0  0
 13 16  1  0  0  0  0
 17 18  1  0  0  0  0
 17 19  1  0  0  0  0
 17 20  1  0  0  0  0
 20 21  1  0  0  0  0
 20 22  1  0  0  0  0
 20 23  1  0  0  0  0
 24 25  2  0  0  0  0
 24 26  1  0  0  0  0
 26 27  1  0  0  0  0
 26 28  1  0  0  0  0
 28 29  1  0  0  0  0
 28 30  1  0  0  0  0
 28 31  1  0  0  0  0
M  END
$$$$

  -OEChem-03222214053D

 31 30  0     1  0  0  0  0  0999 V2000
   -2.2574   -4.4727    0.7002 H   0  0  0  0  0  0  0  0  0  0  0  0
   -2.3741   -3.4746    0.2683 C   0  0  0  0  0  0  0  0  0  0  0  0
   -3.0680   -2.9026    0.8885 H   0  0  0  0  0  0  0  0  0  0  0  0
   -2.7894   -3.5736   -0.7374 H   0  0  0  0  0  0  0  0  0  0  0  0
   -1.0306   -2.7726    0.2078 C   0  0  0  0  0  0  0  0  0  0  0  0
   -0.0350   -3.3332    0.6278 O   0  0  0  0  0  0  0  0  0  0  0  0
   -0.9498   -1.4995   -0.3213 N   0  0  0  0  0  0  0  0  0  0  0  0
   -1.8087   -1.0957   -0.6773 H   0  0  0  0  0  0  0  0  0  0  0  0
    0.2927   -0.7202   -0.4549 C   0  0  1  0  0  0  0  0  0  0  0  0
    0.9832   -1.3516   -1.0255 H   0  0  0  0  0  0  0  0  0  0  0  0
    0.1410    0.6242   -1.2461 C   0  0  1  0  0  0  0  0  0  0  0  0
   -0.1356    1.3784   -0.5008 H   0  0  0  0  0  0  0  0  0  0  0  0
    1.4992    1.0362   -1.8423 C   0  0  0  0  0  0  0  0  0  0  0  0
    1.8465    0.2896   -2.5635 H   0  0  0  0  0  0  0  0  0  0  0  0
    1.4180    2.0003   -2.3539 H   0  0  0  0  0  0  0  0  0  0  0  0
    2.2568    1.1394   -1.0602 H   0  0  0  0  0  0  0  0  0  0  0  0
   -0.9206    0.7756   -2.3780 C   0  0  0  0  0  0  0  0  0  0  0  0
   -0.9931    1.8432   -2.6124 H   0  0  0  0  0  0  0  0  0  0  0  0
   -0.5433    0.2745   -3.2761 H   0  0  0  0  0  0  0  0  0  0  0  0
   -2.3460    0.2651   -2.1453 C   0  0  0  0  0  0  0  0  0  0  0  0
   -2.6943    0.5322   -1.1426 H   0  0  0  0  0  0  0  0  0  0  0  0
   -3.0211    0.7234   -2.8747 H   0  0  0  0  0  0  0  0  0  0  0  0
   -2.4058   -0.8178   -2.2846 H   0  0  0  0  0  0  0  0  0  0  0  0
    0.9810   -0.4645    0.9088 C   0  0  0  0  0  0  0  0  0  0  0  0
    2.2015   -0.4660    1.0005 O   0  0  0  0  0  0  0  0  0  0  0  0
    0.2276   -0.0617    1.9972 N   0  0  0  0  0  0  0  0  0  0  0  0
   -0.7774   -0.1640    1.9106 H   0  0  0  0  0  0  0  0  0  0  0  0
    0.8014    0.1597    3.3182 C   0  0  0  0  0  0  0  0  0  0  0  0
    1.5935    0.9144    3.2712 H   0  0  0  0  0  0  0  0  0  0  0  0
    0.0317    0.5128    4.0108 H   0  0  0  0  0  0  0  0  0  0  0  0
    1.2240   -0.7709    3.7112 H   0  0  0  0  0  0  0  0  0  0  0  0
  1  2  1  0  0  0  0
  2  3  1  0  0  0  0
  2  4  1  0  0  0  0
  2  5  1  0  0  0  0
  5  6  2  0  0  0  0
  5  7  1  0  0  0  0
  7  8  1  0  0  0  0
  7  9  1  0  0  0  0
  9 10  1  0  0  0  0
  9 11  1  0  0  0  0
  9 24  1  0  0  0  0
 11 12  1  0  0  0  0
 11 13  1  0  0  0  0
 11 17  1  0  0  0  0
 13 14  1  0  0  0  0
 13 15  1  0  0  0  0
 13 16  1  0  0  0  0
 17 18  1  0  0  0  0
 17 19  1  0  0  0  0
 17 20  1  0  0  0  0
 20 21  1  0  0  0  0
 20 22  1  0  0  0  0
 20 23  1  0  0  0  0
 24 25  2  0  0  0  0
 24 26  1  0  0  0  0
 26 27  1  0  0  0  0
 26 28  1  0  0  0  0
 28 29  1  0  0  0  0
 28 30  1  0  0  0  0
 28 31  1  0  0  0  0
M  END
$$$$

  -OEChem-03222214053D

 31 30  0     1  0  0  0  0  0999 V2000
   -2.2296   -4.4784    0.5934 H   0  0  0  0  0  0  0  0  0  0  0  0
   -2.3499   -3.4775    0.1688 C   0  0  0  0  0  0  0  0  0  0  0  0
   -3.0506   -2.9147    0.7900 H   0  0  0  0  0  0  0  0  0  0  0  0
   -2.7593   -3.5706   -0.8400 H   0  0  0  0  0  0  0  0  0  0  0  0
   -1.0103   -2.7673    0.1202 C   0  0  0  0  0  0  0  0  0  0  0  0
   -0.0070   -3.3383    0.5067 O   0  0  0  0  0  0  0  0  0  0  0  0
   -0.9401   -1.4765   -0.3653 N   0  0  0  0  0  0  0  0  0  0  0  0
   -1.8056   -1.0600   -0.6871 H   0  0  0  0  0  0  0  0  0  0  0  0
    0.2976   -0.6873   -0.4832 C   0  0  1  0  0  0  0  0  0  0  0  0
    0.9854   -1.2910   -1.0862 H   0  0  0  0  0  0  0  0  0  0  0  0
    0.1097    0.6805   -1.2191 C   0  0  1  0  0  0  0  0  0  0  0  0
   -0.1459    1.4218   -0.4539 H   0  0  0  0  0  0  0  0  0  0  0  0
    1.4431    1.1084   -1.8584 C   0  0  0  0  0  0  0  0  0  0  0  0
    1.7506    0.3912   -2.6261 H   0  0  0  0  0  0  0  0  0  0  0  0
    1.3485    2.0943   -2.3237 H   0  0  0  0  0  0  0  0  0  0  0  0
    2.2359    1.1720   -1.1074 H   0  0  0  0  0  0  0  0  0  0  0  0
   -0.9890    0.8040   -2.3130 C   0  0  0  0  0  0  0  0  0  0  0  0
   -0.9480    1.8256   -2.7057 H   0  0  0  0  0  0  0  0  0  0  0  0
   -0.7472    0.1295   -3.1412 H   0  0  0  0  0  0  0  0  0  0  0  0
   -2.4413    0.5482   -1.8897 C   0  0  0  0  0  0  0  0  0  0  0  0
   -2.6163    0.9029   -0.8692 H   0  0  0  0  0  0  0  0  0  0  0  0
   -2.6973   -0.5121   -1.9599 H   0  0  0  0  0  0  0  0  0  0  0  0
   -3.1174    1.0878   -2.5605 H   0  0  0  0  0  0  0  0  0  0  0  0
    1.0032   -0.4714    0.8778 C   0  0  0  0  0  0  0  0  0  0  0  0
    2.2250   -0.4582    0.9499 O   0  0  0  0  0  0  0  0  0  0  0  0
    0.2631   -0.1073    1.9887 N   0  0  0  0  0  0  0  0  0  0  0  0
   -0.7424   -0.2156    1.9159 H   0  0  0  0  0  0  0  0  0  0  0  0
    0.8571    0.0958    3.3038 C   0  0  0  0  0  0  0  0  0  0  0  0
    1.6280    0.8725    3.2606 H   0  0  0  0  0  0  0  0  0  0  0  0
    0.0923    0.4103    4.0201 H   0  0  0  0  0  0  0  0  0  0  0  0
    1.3122   -0.8325    3.6649 H   0  0  0  0  0  0  0  0  0  0  0  0
  1  2  1  0  0  0  0
  2  3  1  0  0  0  0
  2  4  1  0  0  0  0
  2  5  1  0  0  0  0
  5  6  2  0  0  0  0
  5  7  1  0  0  0  0
  7  8  1  0  0  0  0
  7  9  1  0  0  0  0
  9 10  1  0  0  0  0
  9 11  1  0  0  0  0
  9 24  1  0  0  0  0
 11 12  1  0  0  0  0
 11 13  1  0  0  0  0
 11 17  1  0  0  0  0
 13 14  1  0  0  0  0
 13 15  1  0  0  0  0
 13 16  1  0  0  0  0
 17 18  1  0  0  0  0
 17 19  1  0  0  0  0
 17 20  1  0  0  0  0
 20 21  1  0  0  0  0
 20 22  1  0  0  0  0
 20 23  1  0  0  0  0
 24 25  2  0  0  0  0
 24 26  1  0  0  0  0
 26 27  1  0  0  0  0
 26 28  1  0  0  0  0
 28 29  1  0  0  0  0
 28 30  1  0  0  0  0
 28 31  1  0  0  0  0
M  END
$$$$

  -OEChem-03222214053D

 31 30  0     1  0  0  0  0  0999 V2000
   -2.3499   -4.4292    0.5031 H   0  0  0  0  0  0  0  0  0  0  0  0
   -2.4253   -3.4332    0.0571 C   0  0  0  0  0  0  0  0  0  0  0  0
   -3.2007   -2.8703    0.5822 H   0  0  0  0  0  0  0  0  0  0  0  0
   -2.7080   -3.5397   -0.9930 H   0  0  0  0  0  0  0  0  0  0  0  0
   -1.0957   -2.7106    0.1656 C   0  0  0  0  0  0  0  0  0  0  0  0
   -0.1506   -3.2601    0.7010 O   0  0  0  0  0  0  0  0  0  0  0  0
   -0.9712   -1.4365   -0.3531 N   0  0  0  0  0  0  0  0  0  0  0  0
   -1.7549   -1.1001   -0.8984 H   0  0  0  0  0  0  0  0  0  0  0  0
    0.2988   -0.6982   -0.4619 C   0  0  1  0  0  0  0  0  0  0  0  0
    0.9779   -1.3320   -1.0433 H   0  0  0  0  0  0  0  0  0  0  0  0
    0.1493    0.6646   -1.2126 C   0  0  1  0  0  0  0  0  0  0  0  0
   -0.0730    1.4366   -0.4674 H   0  0  0  0  0  0  0  0  0  0  0  0
    1.4921    1.0275   -1.8728 C   0  0  0  0  0  0  0  0  0  0  0  0
    1.7517    0.2985   -2.6471 H   0  0  0  0  0  0  0  0  0  0  0  0
    1.4397    2.0187   -2.3337 H   0  0  0  0  0  0  0  0  0  0  0  0
    2.2988    1.0491   -1.1343 H   0  0  0  0  0  0  0  0  0  0  0  0
   -0.9540    0.7622   -2.3025 C   0  0  0  0  0  0  0  0  0  0  0  0
   -0.7640    1.6590   -2.9016 H   0  0  0  0  0  0  0  0  0  0  0  0
   -0.8813   -0.0974   -2.9771 H   0  0  0  0  0  0  0  0  0  0  0  0
   -2.3952    0.8811   -1.7793 C   0  0  0  0  0  0  0  0  0  0  0  0
   -2.4387    1.5718   -0.9314 H   0  0  0  0  0  0  0  0  0  0  0  0
   -3.0360    1.2760   -2.5739 H   0  0  0  0  0  0  0  0  0  0  0  0
   -2.8160   -0.0778   -1.4755 H   0  0  0  0  0  0  0  0  0  0  0  0
    0.9877   -0.4688    0.9056 C   0  0  0  0  0  0  0  0  0  0  0  0
    2.2083   -0.4923    0.9954 O   0  0  0  0  0  0  0  0  0  0  0  0
    0.2429   -0.0452    1.9916 N   0  0  0  0  0  0  0  0  0  0  0  0
   -0.7633   -0.1385    1.9062 H   0  0  0  0  0  0  0  0  0  0  0  0
    0.8212    0.1628    3.3128 C   0  0  0  0  0  0  0  0  0  0  0  0
    1.6176    0.9132    3.2691 H   0  0  0  0  0  0  0  0  0  0  0  0
    0.0554    0.5150    4.0102 H   0  0  0  0  0  0  0  0  0  0  0  0
    1.2397   -0.7730    3.6980 H   0  0  0  0  0  0  0  0  0  0  0  0
  1  2  1  0  0  0  0
  2  3  1  0  0  0  0
  2  4  1  0  0  0  0
  2  5  1  0  0  0  0
  5  6  2  0  0  0  0
  5  7  1  0  0  0  0
  7  8  1  0  0  0  0
  7  9  1  0  0  0  0
  9 10  1  0  0  0  0
  9 11  1  0  0  0  0
  9 24  1  0  0  0  0
 11 12  1  0  0  0  0
 11 13  1  0  0  0  0
 11 17  1  0  0  0  0
 13 14  1  0  0  0  0
 13 15  1  0  0  0  0
 13 16  1  0  0  0  0
 17 18  1  0  0  0  0
 17 19  1  0  0  0  0
 17 20  1  0  0  0  0
 20 21  1  0  0  0  0
 20 22  1  0  0  0  0
 20 23  1  0  0  0  0
 24 25  2  0  0  0  0
 24 26  1  0  0  0  0
 26 27  1  0  0  0  0
 26 28  1  0  0  0  0
 28 29  1  0  0  0  0
 28 30  1  0  0  0  0
 28 31  1  0  0  0  0
M  END
$$$$

  -OEChem-03222214053D

 31 30  0     1  0  0  0  0  0999 V2000
   -2.3985   -4.3877    0.4207 H   0  0  0  0  0  0  0  0  0  0  0  0
   -2.4665   -3.3760    0.0107 C   0  0  0  0  0  0  0  0  0  0  0  0
   -3.2160   -2.8173    0.5761 H   0  0  0  0  0  0  0  0  0  0  0  0
   -2.7797   -3.4413   -1.0340 H   0  0  0  0  0  0  0  0  0  0  0  0
   -1.1201   -2.6836    0.1070 C   0  0  0  0  0  0  0  0  0  0  0  0
   -0.1791   -3.2593    0.6215 O   0  0  0  0  0  0  0  0  0  0  0  0
   -0.9729   -1.4054   -0.3947 N   0  0  0  0  0  0  0  0  0  0  0  0
   -1.7644   -1.0227   -0.9020 H   0  0  0  0  0  0  0  0  0  0  0  0
    0.3099   -0.6791   -0.4758 C   0  0  1  0  0  0  0  0  0  0  0  0
    0.9909   -1.3099   -1.0583 H   0  0  0  0  0  0  0  0  0  0  0  0
    0.1610    0.6869   -1.2155 C   0  0  1  0  0  0  0  0  0  0  0  0
   -0.0682    1.4617   -0.4752 H   0  0  0  0  0  0  0  0  0  0  0  0
    1.5008    1.0581   -1.8742 C   0  0  0  0  0  0  0  0  0  0  0  0
    1.7664    0.3296   -2.6467 H   0  0  0  0  0  0  0  0  0  0  0  0
    1.4397    2.0484   -2.3361 H   0  0  0  0  0  0  0  0  0  0  0  0
    2.3054    1.0862   -1.1333 H   0  0  0  0  0  0  0  0  0  0  0  0
   -0.9485    0.7221   -2.2987 C   0  0  0  0  0  0  0  0  0  0  0  0
   -0.6762    1.4384   -3.0809 H   0  0  0  0  0  0  0  0  0  0  0  0
   -1.0344   -0.2562   -2.7831 H   0  0  0  0  0  0  0  0  0  0  0  0
   -2.3082    1.1610   -1.7387 C   0  0  0  0  0  0  0  0  0  0  0  0
   -2.2393    2.1774   -1.3379 H   0  0  0  0  0  0  0  0  0  0  0  0
   -3.0566    1.1573   -2.5371 H   0  0  0  0  0  0  0  0  0  0  0  0
   -2.6550    0.5010   -0.9406 H   0  0  0  0  0  0  0  0  0  0  0  0
    0.9876   -0.4686    0.8994 C   0  0  0  0  0  0  0  0  0  0  0  0
    2.2073   -0.5019    0.9988 O   0  0  0  0  0  0  0  0  0  0  0  0
    0.2362   -0.0458    1.9812 N   0  0  0  0  0  0  0  0  0  0  0  0
   -0.7701   -0.1277    1.8853 H   0  0  0  0  0  0  0  0  0  0  0  0
    0.8033    0.1432    3.3100 C   0  0  0  0  0  0  0  0  0  0  0  0
    1.6108    0.8823    3.2811 H   0  0  0  0  0  0  0  0  0  0  0  0
    0.0351    0.5005    4.0021 H   0  0  0  0  0  0  0  0  0  0  0  0
    1.2041   -0.8017    3.6918 H   0  0  0  0  0  0  0  0  0  0  0  0
  1  2  1  0  0  0  0
  2  3  1  0  0  0  0
  2  4  1  0  0  0  0
  2  5  1  0  0  0  0
  5  6  2  0  0  0  0
  5  7  1  0  0  0  0
  7  8  1  0  0  0  0
  7  9  1  0  0  0  0
  9 10  1  0  0  0  0
  9 11  1  0  0  0  0
  9 24  1  0  0  0  0
 11 12  1  0  0  0  0
 11 13  1  0  0  0  0
 11 17  1  0  0  0  0
 13 14  1  0  0  0  0
 13 15  1  0  0  0  0
 13 16  1  0  0  0  0
 17 18  1  0  0  0  0
 17 19  1  0  0  0  0
 17 20  1  0  0  0  0
 20 21  1  0  0  0  0
 20 22  1  0  0  0  0
 20 23  1  0  0  0  0
 24 25  2  0  0  0  0
 24 26  1  0  0  0  0
 26 27  1  0  0  0  0
 26 28  1  0  0  0  0
 28 29  1  0  0  0  0
 28 30  1  0  0  0  0
 28 31  1  0  0  0  0
M  END
$$$$

  -OEChem-03222214053D

 31 30  0     1  0  0  0  0  0999 V2000
   -2.4202   -4.3696    0.4200 H   0  0  0  0  0  0  0  0  0  0  0  0
   -2.4843   -3.3532    0.0208 C   0  0  0  0  0  0  0  0  0  0  0  0
   -3.2090   -2.7881    0.6117 H   0  0  0  0  0  0  0  0  0  0  0  0
   -2.8278   -3.4048   -1.0151 H   0  0  0  0  0  0  0  0  0  0  0  0
   -1.1250   -2.6822    0.0848 C   0  0  0  0  0  0  0  0  0  0  0  0
   -0.1797   -3.2738    0.5729 O   0  0  0  0  0  0  0  0  0  0  0  0
   -0.9702   -1.4029   -0.4115 N   0  0  0  0  0  0  0  0  0  0  0  0
   -1.7779   -0.9843   -0.8628 H   0  0  0  0  0  0  0  0  0  0  0  0
    0.3151   -0.6771   -0.4819 C   0  0  1  0  0  0  0  0  0  0  0  0
    0.9993   -1.3056   -1.0632 H   0  0  0  0  0  0  0  0  0  0  0  0
    0.1576    0.6844   -1.2248 C   0  0  1  0  0  0  0  0  0  0  0  0
   -0.0839    1.4529   -0.4818 H   0  0  0  0  0  0  0  0  0  0  0  0
    1.4989    1.0767   -1.8679 C   0  0  0  0  0  0  0  0  0  0  0  0
    1.7891    0.3487   -2.6322 H   0  0  0  0  0  0  0  0  0  0  0  0
    1.4238    2.0628   -2.3368 H   0  0  0  0  0  0  0  0  0  0  0  0
    2.2926    1.1245   -1.1162 H   0  0  0  0  0  0  0  0  0  0  0  0
   -0.9500    0.6990   -2.3156 C   0  0  0  0  0  0  0  0  0  0  0  0
   -0.5795    1.2138   -3.2086 H   0  0  0  0  0  0  0  0  0  0  0  0
   -1.2131   -0.3118   -2.6403 H   0  0  0  0  0  0  0  0  0  0  0  0
   -2.1925    1.4580   -1.8444 C   0  0  0  0  0  0  0  0  0  0  0  0
   -1.9398    2.4963   -1.6062 H   0  0  0  0  0  0  0  0  0  0  0  0
   -2.9520    1.4603   -2.6322 H   0  0  0  0  0  0  0  0  0  0  0  0
   -2.6173    0.9875   -0.9528 H   0  0  0  0  0  0  0  0  0  0  0  0
    0.9883   -0.4686    0.8957 C   0  0  0  0  0  0  0  0  0  0  0  0
    2.2076   -0.5011    0.9982 O   0  0  0  0  0  0  0  0  0  0  0  0
    0.2351   -0.0466    1.9767 N   0  0  0  0  0  0  0  0  0  0  0  0
   -0.7713   -0.1236    1.8787 H   0  0  0  0  0  0  0  0  0  0  0  0
    0.8000    0.1436    3.3067 C   0  0  0  0  0  0  0  0  0  0  0  0
    1.6066    0.8837    3.2790 H   0  0  0  0  0  0  0  0  0  0  0  0
    0.0302    0.5001    3.9975 H   0  0  0  0  0  0  0  0  0  0  0  0
    1.2014   -0.8007    3.6895 H   0  0  0  0  0  0  0  0  0  0  0  0
  1  2  1  0  0  0  0
  2  3  1  0  0  0  0
  2  4  1  0  0  0  0
  2  5  1  0  0  0  0
  5  6  2  0  0  0  0
  5  7  1  0  0  0  0
  7  8  1  0  0  0  0
  7  9  1  0  0  0  0
  9 10  1  0  0  0  0
  9 11  1  0  0  0  0
  9 24  1  0  0  0  0
 11 12  1  0  0  0  0
 11 13  1  0  0  0  0
 11 17  1  0  0  0  0
 13 14  1  0  0  0  0
 13 15  1  0  0  0  0
 13 16  1  0  0  0  0
 17 18  1  0  0  0  0
 17 19  1  0  0  0  0
 17 20  1  0  0  0  0
 20 21  1  0  0  0  0
 20 22  1  0  0  0  0
 20 23  1  0  0  0  0
 24 25  2  0  0  0  0
 24 26  1  0  0  0  0
 26 27  1  0  0  0  0
 26 28  1  0  0  0  0
 28 29  1  0  0  0  0
 28 30  1  0  0  0  0
 28 31  1  0  0  0  0
M  END
$$$$

  -OEChem-03222214053D

 31 30  0     1  0  0  0  0  0999 V2000
   -2.4034   -4.3853    0.4687 H   0  0  0  0  0  0  0  0  0  0  0  0
   -2.4775   -3.3718    0.0641 C   0  0  0  0  0  0  0  0  0  0  0  0
   -3.1853   -2.8019    0.6705 H   0  0  0  0  0  0  0  0  0  0  0  0
   -2.8495   -3.4300   -0.9616 H   0  0  0  0  0  0  0  0  0  0  0  0
   -1.1166   -2.7016    0.0863 C   0  0  0  0  0  0  0  0  0  0  0  0
   -0.1562   -3.2952    0.5411 O   0  0  0  0  0  0  0  0  0  0  0  0
   -0.9772   -1.4207   -0.4102 N   0  0  0  0  0  0  0  0  0  0  0  0
   -1.8029   -0.9908   -0.8150 H   0  0  0  0  0  0  0  0  0  0  0  0
    0.3006   -0.6838   -0.4899 C   0  0  1  0  0  0  0  0  0  0  0  0
    0.9858   -1.3110   -1.0715 H   0  0  0  0  0  0  0  0  0  0  0  0
    0.1453    0.6744   -1.2415 C   0  0  1  0  0  0  0  0  0  0  0  0
   -0.1126    1.4280   -0.4889 H   0  0  0  0  0  0  0  0  0  0  0  0
    1.4908    1.0918   -1.8593 C   0  0  0  0  0  0  0  0  0  0  0  0
    1.8168    0.3611   -2.6065 H   0  0  0  0  0  0  0  0  0  0  0  0
    1.4005    2.0692   -2.3437 H   0  0  0  0  0  0  0  0  0  0  0  0
    2.2656    1.1697   -1.0908 H   0  0  0  0  0  0  0  0  0  0  0  0
   -0.9550    0.7125   -2.3446 C   0  0  0  0  0  0  0  0  0  0  0  0
   -0.5004    0.9614   -3.3095 H   0  0  0  0  0  0  0  0  0  0  0  0
   -1.4381   -0.2556   -2.4913 H   0  0  0  0  0  0  0  0  0  0  0  0
   -2.0149    1.7726   -2.0401 C   0  0  0  0  0  0  0  0  0  0  0  0
   -1.5545    2.7628   -1.9639 H   0  0  0  0  0  0  0  0  0  0  0  0
   -2.7611    1.7987   -2.8402 H   0  0  0  0  0  0  0  0  0  0  0  0
   -2.5232    1.5476   -1.0974 H   0  0  0  0  0  0  0  0  0  0  0  0
    0.9782   -0.4728    0.8853 C   0  0  0  0  0  0  0  0  0  0  0  0
    2.1979   -0.5008    0.9843 O   0  0  0  0  0  0  0  0  0  0  0  0
    0.2263   -0.0596    1.9706 N   0  0  0  0  0  0  0  0  0  0  0  0
   -0.7802   -0.1374    1.8752 H   0  0  0  0  0  0  0  0  0  0  0  0
    0.7952    0.1351    3.2981 C   0  0  0  0  0  0  0  0  0  0  0  0
    1.5995    0.8777    3.2664 H   0  0  0  0  0  0  0  0  0  0  0  0
    0.0268    0.4908    3.9909 H   0  0  0  0  0  0  0  0  0  0  0  0
    1.2014   -0.8070    3.6812 H   0  0  0  0  0  0  0  0  0  0  0  0
  1  2  1  0  0  0  0
  2  3  1  0  0  0  0
  2  4  1  0  0  0  0
  2  5  1  0  0  0  0
  5  6  2  0  0  0  0
  5  7  1  0  0  0  0
  7  8  1  0  0  0  0
  7  9  1  0  0  0  0
  9 10  1  0  0  0  0
  9 11  1  0  0  0  0
  9 24  1  0  0  0  0
 11 12  1  0  0  0  0
 11 13  1  0  0  0  0
 11 17  1  0  0  0  0
 13 14  1  0  0  0  0
 13 15  1  0  0  0  0
 13 16  1  0  0  0  0
 17 18  1  0  0  0  0
 17 19  1  0  0  0  0
 17 20  1  0  0  0  0
 20 21  1  0  0  0  0
 20 22  1  0  0  0  0
 20 23  1  0  0  0  0
 24 25  2  0  0  0  0
 24 26  1  0  0  0  0
 26 27  1  0  0  0  0
 26 28  1  0  0  0  0
 28 29  1  0  0  0  0
 28 30  1  0  0  0  0
 28 31  1  0  0  0  0
M  END
$$$$

  -OEChem-03222214053D

 31 30  0     1  0  0  0  0  0999 V2000
   -2.3898   -4.4050    0.4994 H   0  0  0  0  0  0  0  0  0  0  0  0
   -2.4735   -3.3932    0.0923 C   0  0  0  0  0  0  0  0  0  0  0  0
   -3.1749   -2.8239    0.7067 H   0  0  0  0  0  0  0  0  0  0  0  0
   -2.8598   -3.4571   -0.9278 H   0  0  0  0  0  0  0  0  0  0  0  0
   -1.1151   -2.7174    0.0916 C   0  0  0  0  0  0  0  0  0  0  0  0
   -0.1452   -3.3068    0.5316 O   0  0  0  0  0  0  0  0  0  0  0  0
   -0.9891   -1.4358   -0.4079 N   0  0  0  0  0  0  0  0  0  0  0  0
   -1.8265   -1.0047   -0.7859 H   0  0  0  0  0  0  0  0  0  0  0  0
    0.2829   -0.6900   -0.4979 C   0  0  1  0  0  0  0  0  0  0  0  0
    0.9676   -1.3177   -1.0797 H   0  0  0  0  0  0  0  0  0  0  0  0
    0.1338    0.6664   -1.2560 C   0  0  1  0  0  0  0  0  0  0  0  0
   -0.1402    1.4081   -0.4974 H   0  0  0  0  0  0  0  0  0  0  0  0
    1.4799    1.1037   -1.8577 C   0  0  0  0  0  0  0  0  0  0  0  0
    1.8354    0.3683   -2.5863 H   0  0  0  0  0  0  0  0  0  0  0  0
    1.3763    2.0699   -2.3611 H   0  0  0  0  0  0  0  0  0  0  0  0
    2.2389    1.2118   -1.0773 H   0  0  0  0  0  0  0  0  0  0  0  0
   -0.9593    0.7232   -2.3643 C   0  0  0  0  0  0  0  0  0  0  0  0
   -0.4871    0.6714   -3.3513 H   0  0  0  0  0  0  0  0  0  0  0  0
   -1.6540   -0.1161   -2.3185 H   0  0  0  0  0  0  0  0  0  0  0  0
   -1.7790    2.0118   -2.2676 C   0  0  0  0  0  0  0  0  0  0  0  0
   -1.1272    2.8876   -2.3464 H   0  0  0  0  0  0  0  0  0  0  0  0
   -2.5123    2.0524   -3.0787 H   0  0  0  0  0  0  0  0  0  0  0  0
   -2.3143    2.0567   -1.3141 H   0  0  0  0  0  0  0  0  0  0  0  0
    0.9666   -0.4740    0.8737 C   0  0  0  0  0  0  0  0  0  0  0  0
    2.1870   -0.4934    0.9665 O   0  0  0  0  0  0  0  0  0  0  0  0
    0.2178   -0.0655    1.9629 N   0  0  0  0  0  0  0  0  0  0  0  0
   -0.7887   -0.1517    1.8742 H   0  0  0  0  0  0  0  0  0  0  0  0
    0.7942    0.1356    3.2863 C   0  0  0  0  0  0  0  0  0  0  0  0
    1.5881    0.8890    3.2487 H   0  0  0  0  0  0  0  0  0  0  0  0
    0.0266    0.4803    3.9856 H   0  0  0  0  0  0  0  0  0  0  0  0
    1.2158   -0.8014    3.6650 H   0  0  0  0  0  0  0  0  0  0  0  0
  1  2  1  0  0  0  0
  2  3  1  0  0  0  0
  2  4  1  0  0  0  0
  2  5  1  0  0  0  0
  5  6  2  0  0  0  0
  5  7  1  0  0  0  0
  7  8  1  0  0  0  0
  7  9  1  0  0  0  0
  9 10  1  0  0  0  0
  9 11  1  0  0  0  0
  9 24  1  0  0  0  0
 11 12  1  0  0  0  0
 11 13  1  0  0  0  0
 11 17  1  0  0  0  0
 13 14  1  0  0  0  0
 13 15  1  0  0  0  0
 13 16  1  0  0  0  0
 17 18  1  0  0  0  0
 17 19  1  0  0  0  0
 17 20  1  0  0  0  0
 20 21  1  0  0  0  0
 20 22  1  0  0  0  0
 20 23  1  0  0  0  0
 24 25  2  0  0  0  0
 24 26  1  0  0  0  0
 26 27  1  0  0  0  0
 26 28  1  0  0  0  0
 28 29  1  0  0  0  0
 28 30  1  0  0  0  0
 28 31  1  0  0  0  0
M  END
$$$$

  -OEChem-03222214053D

 31 30  0     1  0  0  0  0  0999 V2000
   -2.3857   -4.4013    0.5025 H   0  0  0  0  0  0  0  0  0  0  0  0
   -2.4714   -3.3897    0.0956 C   0  0  0  0  0  0  0  0  0  0  0  0
   -3.1701   -2.8205    0.7132 H   0  0  0  0  0  0  0  0  0  0  0  0
   -2.8618   -3.4532   -0.9229 H   0  0  0  0  0  0  0  0  0  0  0  0
   -1.1132   -2.7138    0.0893 C   0  0  0  0  0  0  0  0  0  0  0  0
   -0.1413   -3.3033    0.5248 O   0  0  0  0  0  0  0  0  0  0  0  0
   -0.9908   -1.4319   -0.4100 N   0  0  0  0  0  0  0  0  0  0  0  0
   -1.8308   -1.0033   -0.7840 H   0  0  0  0  0  0  0  0  0  0  0  0
    0.2796   -0.6836   -0.5027 C   0  0  1  0  0  0  0  0  0  0  0  0
    0.9640   -1.3111   -1.0850 H   0  0  0  0  0  0  0  0  0  0  0  0
    0.1315    0.6750   -1.2588 C   0  0  1  0  0  0  0  0  0  0  0  0
   -0.1449    1.4187   -0.5032 H   0  0  0  0  0  0  0  0  0  0  0  0
    1.4809    1.0993   -1.8660 C   0  0  0  0  0  0  0  0  0  0  0  0
    1.8217    0.3635   -2.6012 H   0  0  0  0  0  0  0  0  0  0  0  0
    1.3948    2.0698   -2.3627 H   0  0  0  0  0  0  0  0  0  0  0  0
    2.2456    1.1906   -1.0890 H   0  0  0  0  0  0  0  0  0  0  0  0
   -0.9639    0.7248   -2.3610 C   0  0  0  0  0  0  0  0  0  0  0  0
   -0.5448    0.3853   -3.3143 H   0  0  0  0  0  0  0  0  0  0  0  0
   -1.8071    0.0716   -2.1347 H   0  0  0  0  0  0  0  0  0  0  0  0
   -1.5400    2.1352   -2.5165 C   0  0  0  0  0  0  0  0  0  0  0  0
   -0.7574    2.8487   -2.7902 H   0  0  0  0  0  0  0  0  0  0  0  0
   -2.3014    2.1432   -3.3023 H   0  0  0  0  0  0  0  0  0  0  0  0
   -2.0043    2.4664   -1.5824 H   0  0  0  0  0  0  0  0  0  0  0  0
    0.9633   -0.4683    0.8691 C   0  0  0  0  0  0  0  0  0  0  0  0
    2.1835   -0.4895    0.9628 O   0  0  0  0  0  0  0  0  0  0  0  0
    0.2140   -0.0625    1.9592 N   0  0  0  0  0  0  0  0  0  0  0  0
   -0.7927   -0.1434    1.8690 H   0  0  0  0  0  0  0  0  0  0  0  0
    0.7890    0.1325    3.2839 C   0  0  0  0  0  0  0  0  0  0  0  0
    1.5841    0.8848    3.2500 H   0  0  0  0  0  0  0  0  0  0  0  0
    0.0214    0.4754    3.9839 H   0  0  0  0  0  0  0  0  0  0  0  0
    1.2083   -0.8068    3.6596 H   0  0  0  0  0  0  0  0  0  0  0  0
  1  2  1  0  0  0  0
  2  3  1  0  0  0  0
  2  4  1  0  0  0  0
  2  5  1  0  0  0  0
  5  6  2  0  0  0  0
  5  7  1  0  0  0  0
  7  8  1  0  0  0  0
  7  9  1  0  0  0  0
  9 10  1  0  0  0  0
  9 11  1  0  0  0  0
  9 24  1  0  0  0  0
 11 12  1  0  0  0  0
 11 13  1  0  0  0  0
 11 17  1  0  0  0  0
 13 14  1  0  0  0  0
 13 15  1  0  0  0  0
 13 16  1  0  0  0  0
 17 18  1  0  0  0  0
 17 19  1  0  0  0  0
 17 20  1  0  0  0  0
 20 21  1  0  0  0  0
 20 22  1  0  0  0  0
 20 23  1  0  0  0  0
 24 25  2  0  0  0  0
 24 26  1  0  0  0  0
 26 27  1  0  0  0  0
 26 28  1  0  0  0  0
 28 29  1  0  0  0  0
 28 30  1  0  0  0  0
 28 31  1  0  0  0  0
M  END
$$$$

  -OEChem-03222214053D

 31 30  0     1  0  0  0  0  0999 V2000
   -2.3938   -4.3810    0.4783 H   0  0  0  0  0  0  0  0  0  0  0  0
   -2.4749   -3.3674    0.0751 C   0  0  0  0  0  0  0  0  0  0  0  0
   -3.1807   -2.8011    0.6874 H   0  0  0  0  0  0  0  0  0  0  0  0
   -2.8540   -3.4260   -0.9480 H   0  0  0  0  0  0  0  0  0  0  0  0
   -1.1164   -2.6916    0.0884 C   0  0  0  0  0  0  0  0  0  0  0  0
   -0.1518   -3.2797    0.5415 O   0  0  0  0  0  0  0  0  0  0  0  0
   -0.9857   -1.4107   -0.4116 N   0  0  0  0  0  0  0  0  0  0  0  0
   -1.8131   -0.9969   -0.8276 H   0  0  0  0  0  0  0  0  0  0  0  0
    0.2903   -0.6704   -0.5023 C   0  0  1  0  0  0  0  0  0  0  0  0
    0.9733   -1.2988   -1.0852 H   0  0  0  0  0  0  0  0  0  0  0  0
    0.1436    0.6922   -1.2515 C   0  0  1  0  0  0  0  0  0  0  0  0
   -0.1274    1.4446   -0.5026 H   0  0  0  0  0  0  0  0  0  0  0  0
    1.4969    1.0954   -1.8677 C   0  0  0  0  0  0  0  0  0  0  0  0
    1.7846    0.3938   -2.6570 H   0  0  0  0  0  0  0  0  0  0  0  0
    1.4499    2.0999   -2.2958 H   0  0  0  0  0  0  0  0  0  0  0  0
    2.2847    1.1017   -1.1089 H   0  0  0  0  0  0  0  0  0  0  0  0
   -0.9638    0.7167   -2.3398 C   0  0  0  0  0  0  0  0  0  0  0  0
   -0.6488    0.1207   -3.2027 H   0  0  0  0  0  0  0  0  0  0  0  0
   -1.8907    0.2842   -1.9586 H   0  0  0  0  0  0  0  0  0  0  0  0
   -1.3198    2.1381   -2.7874 C   0  0  0  0  0  0  0  0  0  0  0  0
   -0.4803    2.6116   -3.3034 H   0  0  0  0  0  0  0  0  0  0  0  0
   -2.1673    2.1083   -3.4791 H   0  0  0  0  0  0  0  0  0  0  0  0
   -1.5978    2.7548   -1.9270 H   0  0  0  0  0  0  0  0  0  0  0  0
    0.9693   -0.4612    0.8731 C   0  0  0  0  0  0  0  0  0  0  0  0
    2.1886   -0.4959    0.9752 O   0  0  0  0  0  0  0  0  0  0  0  0
    0.2164   -0.0514    1.9591 N   0  0  0  0  0  0  0  0  0  0  0  0
   -0.7897   -0.1339    1.8633 H   0  0  0  0  0  0  0  0  0  0  0  0
    0.7837    0.1283    3.2892 C   0  0  0  0  0  0  0  0  0  0  0  0
    1.5904    0.8684    3.2659 H   0  0  0  0  0  0  0  0  0  0  0  0
    0.0153    0.4796    3.9841 H   0  0  0  0  0  0  0  0  0  0  0  0
    1.1856   -0.8190    3.6635 H   0  0  0  0  0  0  0  0  0  0  0  0
  1  2  1  0  0  0  0
  2  3  1  0  0  0  0
  2  4  1  0  0  0  0
  2  5  1  0  0  0  0
  5  6  2  0  0  0  0
  5  7  1  0  0  0  0
  7  8  1  0  0  0  0
  7  9  1  0  0  0  0
  9 10  1  0  0  0  0
  9 11  1  0  0  0  0
  9 24  1  0  0  0  0
 11 12  1  0  0  0  0
 11 13  1  0  0  0  0
 11 17  1  0  0  0  0
 13 14  1  0  0  0  0
 13 15  1  0  0  0  0
 13 16  1  0  0  0  0
 17 18  1  0  0  0  0
 17 19  1  0  0  0  0
 17 20  1  0  0  0  0
 20 21  1  0  0  0  0
 20 22  1  0  0  0  0
 20 23  1  0  0  0  0
 24 25  2  0  0  0  0
 24 26  1  0  0  0  0
 26 27  1  0  0  0  0
 26 28  1  0  0  0  0
 28 29  1  0  0  0  0
 28 30  1  0  0  0  0
 28 31  1  0  0  0  0
M  END
$$$$

  -OEChem-03222214053D

 31 30  0     1  0  0  0  0  0999 V2000
   -2.4093   -4.4016    0.4045 H   0  0  0  0  0  0  0  0  0  0  0  0
   -2.4895   -3.3841    0.0108 C   0  0  0  0  0  0  0  0  0  0  0  0
   -3.2292   -2.8367    0.5998 H   0  0  0  0  0  0  0  0  0  0  0  0
   -2.8248   -3.4360   -1.0279 H   0  0  0  0  0  0  0  0  0  0  0  0
   -1.1442   -2.6865    0.0891 C   0  0  0  0  0  0  0  0  0  0  0  0
   -0.1910   -3.2613    0.5820 O   0  0  0  0  0  0  0  0  0  0  0  0
   -1.0111   -1.4020   -0.4005 N   0  0  0  0  0  0  0  0  0  0  0  0
   -1.8172   -1.0124   -0.8780 H   0  0  0  0  0  0  0  0  0  0  0  0
    0.2689   -0.6671   -0.4860 C   0  0  1  0  0  0  0  0  0  0  0  0
    0.9428   -1.3037   -1.0710 H   0  0  0  0  0  0  0  0  0  0  0  0
    0.1323    0.7011   -1.2272 C   0  0  1  0  0  0  0  0  0  0  0  0
    0.1305    1.4967   -0.4734 H   0  0  0  0  0  0  0  0  0  0  0  0
    1.3678    0.9106   -2.1216 C   0  0  0  0  0  0  0  0  0  0  0  0
    1.3432    0.2294   -2.9780 H   0  0  0  0  0  0  0  0  0  0  0  0
    1.4140    1.9387   -2.4915 H   0  0  0  0  0  0  0  0  0  0  0  0
    2.2870    0.7237   -1.5571 H   0  0  0  0  0  0  0  0  0  0  0  0
   -1.1833    0.8506   -2.0333 C   0  0  0  0  0  0  0  0  0  0  0  0
   -1.2590    0.0435   -2.7698 H   0  0  0  0  0  0  0  0  0  0  0  0
   -2.0345    0.7717   -1.3500 H   0  0  0  0  0  0  0  0  0  0  0  0
   -1.3066    2.1954   -2.7561 C   0  0  0  0  0  0  0  0  0  0  0  0
   -0.5781    2.2736   -3.5683 H   0  0  0  0  0  0  0  0  0  0  0  0
   -2.3064    2.2942   -3.1896 H   0  0  0  0  0  0  0  0  0  0  0  0
   -1.1483    3.0229   -2.0574 H   0  0  0  0  0  0  0  0  0  0  0  0
    0.9696   -0.4610    0.8774 C   0  0  0  0  0  0  0  0  0  0  0  0
    2.1918   -0.4543    0.9432 O   0  0  0  0  0  0  0  0  0  0  0  0
    0.2364   -0.0502    1.9763 N   0  0  0  0  0  0  0  0  0  0  0  0
   -0.7701   -0.1527    1.9064 H   0  0  0  0  0  0  0  0  0  0  0  0
    0.8330    0.1591    3.2893 C   0  0  0  0  0  0  0  0  0  0  0  0
    1.6252    0.9134    3.2354 H   0  0  0  0  0  0  0  0  0  0  0  0
    0.0756    0.5065    3.9983 H   0  0  0  0  0  0  0  0  0  0  0  0
    1.2615   -0.7755    3.6667 H   0  0  0  0  0  0  0  0  0  0  0  0
  1  2  1  0  0  0  0
  2  3  1  0  0  0  0
  2  4  1  0  0  0  0
  2  5  1  0  0  0  0
  5  6  2  0  0  0  0
  5  7  1  0  0  0  0
  7  8  1  0  0  0  0
  7  9  1  0  0  0  0
  9 10  1  0  0  0  0
  9 11  1  0  0  0  0
  9 24  1  0  0  0  0
 11 12  1  0  0  0  0
 11 13  1  0  0  0  0
 11 17  1  0  0  0  0
 13 14  1  0  0  0  0
 13 15  1  0  0  0  0
 13 16  1  0  0  0  0
 17 18  1  0  0  0  0
 17 19  1  0  0  0  0
 17 20  1  0  0  0  0
 20 21  1  0  0  0  0
 20 22  1  0  0  0  0
 20 23  1  0  0  0  0
 24 25  2  0  0  0  0
 24 26  1  0  0  0  0
 26 27  1  0  0  0  0
 26 28  1  0  0  0  0
 28 29  1  0  0  0  0
 28 30  1  0  0  0  0
 28 31  1  0  0  0  0
M  END
$$$$

  -OEChem-03222214053D

 31 30  0     1  0  0  0  0  0999 V2000
   -2.4244   -4.3818    0.4178 H   0  0  0  0  0  0  0  0  0  0  0  0
   -2.4986   -3.3656    0.0202 C   0  0  0  0  0  0  0  0  0  0  0  0
   -3.2274   -2.8083    0.6132 H   0  0  0  0  0  0  0  0  0  0  0  0
   -2.8435   -3.4183   -1.0153 H   0  0  0  0  0  0  0  0  0  0  0  0
   -1.1459   -2.6813    0.0826 C   0  0  0  0  0  0  0  0  0  0  0  0
   -0.1929   -3.2653    0.5650 O   0  0  0  0  0  0  0  0  0  0  0  0
   -1.0069   -1.3973   -0.4068 N   0  0  0  0  0  0  0  0  0  0  0  0
   -1.8192   -0.9907   -0.8597 H   0  0  0  0  0  0  0  0  0  0  0  0
    0.2759   -0.6667   -0.4918 C   0  0  1  0  0  0  0  0  0  0  0  0
    0.9478   -1.3051   -1.0772 H   0  0  0  0  0  0  0  0  0  0  0  0
    0.1404    0.7035   -1.2303 C   0  0  1  0  0  0  0  0  0  0  0  0
    0.1378    1.5030   -0.4808 H   0  0  0  0  0  0  0  0  0  0  0  0
    1.3896    0.9070   -2.1092 C   0  0  0  0  0  0  0  0  0  0  0  0
    1.3773    0.2203   -2.9614 H   0  0  0  0  0  0  0  0  0  0  0  0
    1.4424    1.9333   -2.4838 H   0  0  0  0  0  0  0  0  0  0  0  0
    2.3010    0.7236   -1.5310 H   0  0  0  0  0  0  0  0  0  0  0  0
   -1.1805    0.8502   -2.0348 C   0  0  0  0  0  0  0  0  0  0  0  0
   -1.3668   -0.0676   -2.6022 H   0  0  0  0  0  0  0  0  0  0  0  0
   -2.0087    0.9918   -1.3328 H   0  0  0  0  0  0  0  0  0  0  0  0
   -1.1884    2.0057   -3.0413 C   0  0  0  0  0  0  0  0  0  0  0  0
   -0.4842    1.8219   -3.8582 H   0  0  0  0  0  0  0  0  0  0  0  0
   -2.1871    2.1137   -3.4753 H   0  0  0  0  0  0  0  0  0  0  0  0
   -0.9229    2.9455   -2.5474 H   0  0  0  0  0  0  0  0  0  0  0  0
    0.9739   -0.4645    0.8732 C   0  0  0  0  0  0  0  0  0  0  0  0
    2.1959   -0.4649    0.9427 O   0  0  0  0  0  0  0  0  0  0  0  0
    0.2396   -0.0521    1.9706 N   0  0  0  0  0  0  0  0  0  0  0  0
   -0.7671   -0.1512    1.8988 H   0  0  0  0  0  0  0  0  0  0  0  0
    0.8346    0.1558    3.2845 C   0  0  0  0  0  0  0  0  0  0  0  0
    1.6271    0.9098    3.2321 H   0  0  0  0  0  0  0  0  0  0  0  0
    0.0766    0.5032    3.9930 H   0  0  0  0  0  0  0  0  0  0  0  0
    1.2626   -0.7790    3.6615 H   0  0  0  0  0  0  0  0  0  0  0  0
  1  2  1  0  0  0  0
  2  3  1  0  0  0  0
  2  4  1  0  0  0  0
  2  5  1  0  0  0  0
  5  6  2  0  0  0  0
  5  7  1  0  0  0  0
  7  8  1  0  0  0  0
  7  9  1  0  0  0  0
  9 10  1  0  0  0  0
  9 11  1  0  0  0  0
  9 24  1  0  0  0  0
 11 12  1  0  0  0  0
 11 13  1  0  0  0  0
 11 17  1  0  0  0  0
 13 14  1  0  0  0  0
 13 15  1  0  0  0  0
 13 16  1  0  0  0  0
 17 18  1  0  0  0  0
 17 19  1  0  0  0  0
 17 20  1  0  0  0  0
 20 21  1  0  0  0  0
 20 22  1  0  0  0  0
 20 23  1  0  0  0  0
 24 25  2  0  0  0  0
 24 26  1  0  0  0  0
 26 27  1  0  0  0  0
 26 28  1  0  0  0  0
 28 29  1  0  0  0  0
 28 30  1  0  0  0  0
 28 31  1  0  0  0  0
M  END
$$$$

  -OEChem-03222214053D

 31 30  0     1  0  0  0  0  0999 V2000
   -2.4181   -4.3803    0.4664 H   0  0  0  0  0  0  0  0  0  0  0  0
   -2.4968   -3.3678    0.0602 C   0  0  0  0  0  0  0  0  0  0  0  0
   -3.2097   -2.8015    0.6640 H   0  0  0  0  0  0  0  0  0  0  0  0
   -2.8654   -3.4299   -0.9665 H   0  0  0  0  0  0  0  0  0  0  0  0
   -1.1399   -2.6896    0.0849 C   0  0  0  0  0  0  0  0  0  0  0  0
   -0.1768   -3.2792    0.5395 O   0  0  0  0  0  0  0  0  0  0  0  0
   -1.0065   -1.4059   -0.4073 N   0  0  0  0  0  0  0  0  0  0  0  0
   -1.8321   -0.9846   -0.8207 H   0  0  0  0  0  0  0  0  0  0  0  0
    0.2731   -0.6711   -0.5006 C   0  0  1  0  0  0  0  0  0  0  0  0
    0.9442   -1.3110   -1.0853 H   0  0  0  0  0  0  0  0  0  0  0  0
    0.1392    0.6999   -1.2429 C   0  0  1  0  0  0  0  0  0  0  0  0
    0.1357    1.4986   -0.4926 H   0  0  0  0  0  0  0  0  0  0  0  0
    1.4085    0.8988   -2.0964 C   0  0  0  0  0  0  0  0  0  0  0  0
    1.4265    0.1932   -2.9330 H   0  0  0  0  0  0  0  0  0  0  0  0
    1.4606    1.9175   -2.4912 H   0  0  0  0  0  0  0  0  0  0  0  0
    2.3076    0.7381   -1.4929 H   0  0  0  0  0  0  0  0  0  0  0  0
   -1.1805    0.8710   -2.0575 C   0  0  0  0  0  0  0  0  0  0  0  0
   -1.5091   -0.0993   -2.4404 H   0  0  0  0  0  0  0  0  0  0  0  0
   -1.9601    1.2528   -1.3903 H   0  0  0  0  0  0  0  0  0  0  0  0
   -1.0834    1.7721   -3.2947 C   0  0  0  0  0  0  0  0  0  0  0  0
   -0.4091    1.3457   -4.0436 H   0  0  0  0  0  0  0  0  0  0  0  0
   -2.0710    1.8794   -3.7537 H   0  0  0  0  0  0  0  0  0  0  0  0
   -0.7245    2.7680   -3.0163 H   0  0  0  0  0  0  0  0  0  0  0  0
    0.9727   -0.4673    0.8641 C   0  0  0  0  0  0  0  0  0  0  0  0
    2.1945   -0.4733    0.9366 O   0  0  0  0  0  0  0  0  0  0  0  0
    0.2375   -0.0572    1.9619 N   0  0  0  0  0  0  0  0  0  0  0  0
   -0.7699   -0.1445    1.8856 H   0  0  0  0  0  0  0  0  0  0  0  0
    0.8287    0.1437    3.2784 C   0  0  0  0  0  0  0  0  0  0  0  0
    1.6222    0.8970    3.2319 H   0  0  0  0  0  0  0  0  0  0  0  0
    0.0687    0.4883    3.9861 H   0  0  0  0  0  0  0  0  0  0  0  0
    1.2537   -0.7936    3.6526 H   0  0  0  0  0  0  0  0  0  0  0  0
  1  2  1  0  0  0  0
  2  3  1  0  0  0  0
  2  4  1  0  0  0  0
  2  5  1  0  0  0  0
  5  6  2  0  0  0  0
  5  7  1  0  0  0  0
  7  8  1  0  0  0  0
  7  9  1  0  0  0  0
  9 10  1  0  0  0  0
  9 11  1  0  0  0  0
  9 24  1  0  0  0  0
 11 12  1  0  0  0  0
 11 13  1  0  0  0  0
 11 17  1  0  0  0  0
 13 14  1  0  0  0  0
 13 15  1  0  0  0  0
 13 16  1  0  0  0  0
 17 18  1  0  0  0  0
 17 19  1  0  0  0  0
 17 20  1  0  0  0  0
 20 21  1  0  0  0  0
 20 22  1  0  0  0  0
 20 23  1  0  0  0  0
 24 25  2  0  0  0  0
 24 26  1  0  0  0  0
 26 27  1  0  0  0  0
 26 28  1  0  0  0  0
 28 29  1  0  0  0  0
 28 30  1  0  0  0  0
 28 31  1  0  0  0  0
M  END
$$$$

  -OEChem-03222214053D

 31 30  0     1  0  0  0  0  0999 V2000
   -2.4150   -4.3928    0.5100 H   0  0  0  0  0  0  0  0  0  0  0  0
   -2.4980   -3.3818    0.1009 C   0  0  0  0  0  0  0  0  0  0  0  0
   -3.1958   -2.8097    0.7170 H   0  0  0  0  0  0  0  0  0  0  0  0
   -2.8883   -3.4472   -0.9177 H   0  0  0  0  0  0  0  0  0  0  0  0
   -1.1384   -2.7085    0.0939 C   0  0  0  0  0  0  0  0  0  0  0  0
   -0.1664   -3.3004    0.5258 O   0  0  0  0  0  0  0  0  0  0  0  0
   -1.0148   -1.4250   -0.4009 N   0  0  0  0  0  0  0  0  0  0  0  0
   -1.8538   -0.9955   -0.7767 H   0  0  0  0  0  0  0  0  0  0  0  0
    0.2592   -0.6833   -0.5069 C   0  0  1  0  0  0  0  0  0  0  0  0
    0.9281   -1.3252   -1.0918 H   0  0  0  0  0  0  0  0  0  0  0  0
    0.1324    0.6855   -1.2597 C   0  0  1  0  0  0  0  0  0  0  0  0
    0.1168    1.4764   -0.5013 H   0  0  0  0  0  0  0  0  0  0  0  0
    1.4258    0.8994   -2.0740 C   0  0  0  0  0  0  0  0  0  0  0  0
    1.4960    0.1764   -2.8925 H   0  0  0  0  0  0  0  0  0  0  0  0
    1.4658    1.9108   -2.4880 H   0  0  0  0  0  0  0  0  0  0  0  0
    2.3062    0.7764   -1.4357 H   0  0  0  0  0  0  0  0  0  0  0  0
   -1.1788    0.8938   -2.0919 C   0  0  0  0  0  0  0  0  0  0  0  0
   -1.6902   -0.0553   -2.2592 H   0  0  0  0  0  0  0  0  0  0  0  0
   -1.8566    1.5347   -1.5186 H   0  0  0  0  0  0  0  0  0  0  0  0
   -1.0030    1.4834   -3.4973 C   0  0  0  0  0  0  0  0  0  0  0  0
   -0.3885    0.8312   -4.1252 H   0  0  0  0  0  0  0  0  0  0  0  0
   -1.9804    1.5899   -3.9776 H   0  0  0  0  0  0  0  0  0  0  0  0
   -0.5409    2.4740   -3.4466 H   0  0  0  0  0  0  0  0  0  0  0  0
    0.9648   -0.4771    0.8551 C   0  0  0  0  0  0  0  0  0  0  0  0
    2.1868   -0.4804    0.9239 O   0  0  0  0  0  0  0  0  0  0  0  0
    0.2338   -0.0715    1.9575 N   0  0  0  0  0  0  0  0  0  0  0  0
   -0.7737   -0.1634    1.8880 H   0  0  0  0  0  0  0  0  0  0  0  0
    0.8335    0.1420    3.2684 C   0  0  0  0  0  0  0  0  0  0  0  0
    1.6172    0.9050    3.2124 H   0  0  0  0  0  0  0  0  0  0  0  0
    0.0754    0.4798    3.9812 H   0  0  0  0  0  0  0  0  0  0  0  0
    1.2741   -0.7880    3.6429 H   0  0  0  0  0  0  0  0  0  0  0  0
  1  2  1  0  0  0  0
  2  3  1  0  0  0  0
  2  4  1  0  0  0  0
  2  5  1  0  0  0  0
  5  6  2  0  0  0  0
  5  7  1  0  0  0  0
  7  8  1  0  0  0  0
  7  9  1  0  0  0  0
  9 10  1  0  0  0  0
  9 11  1  0  0  0  0
  9 24  1  0  0  0  0
 11 12  1  0  0  0  0
 11 13  1  0  0  0  0
 11 17  1  0  0  0  0
 13 14  1  0  0  0  0
 13 15  1  0  0  0  0
 13 16  1  0  0  0  0
 17 18  1  0  0  0  0
 17 19  1  0  0  0  0
 17 20  1  0  0  0  0
 20 21  1  0  0  0  0
 20 22  1  0  0  0  0
 20 23  1  0  0  0  0
 24 25  2  0  0  0  0
 24 26  1  0  0  0  0
 26 27  1  0  0  0  0
 26 28  1  0  0  0  0
 28 29  1  0  0  0  0
 28 30  1  0  0  0  0
 28 31  1  0  0  0  0
M  END
$$$$

  -OEChem-03222214053D

 31 30  0     1  0  0  0  0  0999 V2000
   -2.4048   -4.4029    0.5513 H   0  0  0  0  0  0  0  0  0  0  0  0
   -2.4956   -3.3946    0.1371 C   0  0  0  0  0  0  0  0  0  0  0  0
   -3.1878   -2.8207    0.7577 H   0  0  0  0  0  0  0  0  0  0  0  0
   -2.8972   -3.4666   -0.8765 H   0  0  0  0  0  0  0  0  0  0  0  0
   -1.1378   -2.7186    0.1099 C   0  0  0  0  0  0  0  0  0  0  0  0
   -0.1591   -3.3091    0.5286 O   0  0  0  0  0  0  0  0  0  0  0  0
   -1.0224   -1.4368   -0.3913 N   0  0  0  0  0  0  0  0  0  0  0  0
   -1.8675   -1.0108   -0.7557 H   0  0  0  0  0  0  0  0  0  0  0  0
    0.2486   -0.6928   -0.5107 C   0  0  1  0  0  0  0  0  0  0  0  0
    0.9148   -1.3383   -1.0945 H   0  0  0  0  0  0  0  0  0  0  0  0
    0.1315    0.6707   -1.2760 C   0  0  1  0  0  0  0  0  0  0  0  0
    0.1002    1.4506   -0.5067 H   0  0  0  0  0  0  0  0  0  0  0  0
    1.4362    0.9101   -2.0636 C   0  0  0  0  0  0  0  0  0  0  0  0
    1.5481    0.1801   -2.8712 H   0  0  0  0  0  0  0  0  0  0  0  0
    1.4537    1.9178   -2.4888 H   0  0  0  0  0  0  0  0  0  0  0  0
    2.3049    0.8203   -1.4042 H   0  0  0  0  0  0  0  0  0  0  0  0
   -1.1702    0.9074   -2.1194 C   0  0  0  0  0  0  0  0  0  0  0  0
   -1.8749    0.0815   -2.0342 H   0  0  0  0  0  0  0  0  0  0  0  0
   -1.6759    1.7891   -1.7118 H   0  0  0  0  0  0  0  0  0  0  0  0
   -0.9693    1.1399   -3.6227 C   0  0  0  0  0  0  0  0  0  0  0  0
   -0.4642    0.2855   -4.0836 H   0  0  0  0  0  0  0  0  0  0  0  0
   -1.9414    1.2629   -4.1100 H   0  0  0  0  0  0  0  0  0  0  0  0
   -0.3849    2.0458   -3.8079 H   0  0  0  0  0  0  0  0  0  0  0  0
    0.9591   -0.4829    0.8490 C   0  0  0  0  0  0  0  0  0  0  0  0
    2.1812   -0.4915    0.9162 O   0  0  0  0  0  0  0  0  0  0  0  0
    0.2312   -0.0767    1.9535 N   0  0  0  0  0  0  0  0  0  0  0  0
   -0.7769   -0.1606    1.8840 H   0  0  0  0  0  0  0  0  0  0  0  0
    0.8322    0.1314    3.2650 C   0  0  0  0  0  0  0  0  0  0  0  0
    1.6137    0.8969    3.2122 H   0  0  0  0  0  0  0  0  0  0  0  0
    0.0737    0.4636    3.9802 H   0  0  0  0  0  0  0  0  0  0  0  0
    1.2752   -0.7995    3.6344 H   0  0  0  0  0  0  0  0  0  0  0  0
  1  2  1  0  0  0  0
  2  3  1  0  0  0  0
  2  4  1  0  0  0  0
  2  5  1  0  0  0  0
  5  6  2  0  0  0  0
  5  7  1  0  0  0  0
  7  8  1  0  0  0  0
  7  9  1  0  0  0  0
  9 10  1  0  0  0  0
  9 11  1  0  0  0  0
  9 24  1  0  0  0  0
 11 12  1  0  0  0  0
 11 13  1  0  0  0  0
 11 17  1  0  0  0  0
 13 14  1  0  0  0  0
 13 15  1  0  0  0  0
 13 16  1  0  0  0  0
 17 18  1  0  0  0  0
 17 19  1  0  0  0  0
 17 20  1  0  0  0  0
 20 21  1  0  0  0  0
 20 22  1  0  0  0  0
 20 23  1  0  0  0  0
 24 25  2  0  0  0  0
 24 26  1  0  0  0  0
 26 27  1  0  0  0  0
 26 28  1  0  0  0  0
 28 29  1  0  0  0  0
 28 30  1  0  0  0  0
 28 31  1  0  0  0  0
M  END
$$$$

  -OEChem-03222214053D

 31 30  0     1  0  0  0  0  0999 V2000
   -2.4177   -4.4096    0.5262 H   0  0  0  0  0  0  0  0  0  0  0  0
   -2.5047   -3.4021    0.1092 C   0  0  0  0  0  0  0  0  0  0  0  0
   -3.2249   -2.8362    0.7048 H   0  0  0  0  0  0  0  0  0  0  0  0
   -2.8694   -3.4780   -0.9181 H   0  0  0  0  0  0  0  0  0  0  0  0
   -1.1544   -2.7111    0.1321 C   0  0  0  0  0  0  0  0  0  0  0  0
   -0.1884   -3.2868    0.5980 O   0  0  0  0  0  0  0  0  0  0  0  0
   -1.0322   -1.4328   -0.3767 N   0  0  0  0  0  0  0  0  0  0  0  0
   -1.8565   -1.0414   -0.8184 H   0  0  0  0  0  0  0  0  0  0  0  0
    0.2454   -0.7004   -0.5009 C   0  0  1  0  0  0  0  0  0  0  0  0
    0.9056   -1.3527   -1.0840 H   0  0  0  0  0  0  0  0  0  0  0  0
    0.1379    0.6590   -1.2712 C   0  0  1  0  0  0  0  0  0  0  0  0
    0.1009    1.4341   -0.4972 H   0  0  0  0  0  0  0  0  0  0  0  0
    1.4355    0.9138   -2.0616 C   0  0  0  0  0  0  0  0  0  0  0  0
    1.5734    0.1637   -2.8463 H   0  0  0  0  0  0  0  0  0  0  0  0
    1.4160    1.9073   -2.5199 H   0  0  0  0  0  0  0  0  0  0  0  0
    2.3037    0.8725   -1.3967 H   0  0  0  0  0  0  0  0  0  0  0  0
   -1.1596    0.9031   -2.1096 C   0  0  0  0  0  0  0  0  0  0  0  0
   -1.9939    0.2804   -1.7895 H   0  0  0  0  0  0  0  0  0  0  0  0
   -1.4741    1.9355   -1.9237 H   0  0  0  0  0  0  0  0  0  0  0  0
   -0.9980    0.7627   -3.6282 C   0  0  0  0  0  0  0  0  0  0  0  0
   -0.6219   -0.2334   -3.8820 H   0  0  0  0  0  0  0  0  0  0  0  0
   -1.9672    0.8988   -4.1175 H   0  0  0  0  0  0  0  0  0  0  0  0
   -0.3119    1.5151   -4.0278 H   0  0  0  0  0  0  0  0  0  0  0  0
    0.9622   -0.4874    0.8547 C   0  0  0  0  0  0  0  0  0  0  0  0
    2.1848   -0.4979    0.9144 O   0  0  0  0  0  0  0  0  0  0  0  0
    0.2411   -0.0679    1.9584 N   0  0  0  0  0  0  0  0  0  0  0  0
   -0.7672   -0.1584    1.8957 H   0  0  0  0  0  0  0  0  0  0  0  0
    0.8494    0.1439    3.2656 C   0  0  0  0  0  0  0  0  0  0  0  0
    1.6327    0.9069    3.2053 H   0  0  0  0  0  0  0  0  0  0  0  0
    0.0960    0.4812    3.9836 H   0  0  0  0  0  0  0  0  0  0  0  0
    1.2920   -0.7867    3.6363 H   0  0  0  0  0  0  0  0  0  0  0  0
  1  2  1  0  0  0  0
  2  3  1  0  0  0  0
  2  4  1  0  0  0  0
  2  5  1  0  0  0  0
  5  6  2  0  0  0  0
  5  7  1  0  0  0  0
  7  8  1  0  0  0  0
  7  9  1  0  0  0  0
  9 10  1  0  0  0  0
  9 11  1  0  0  0  0
  9 24  1  0  0  0  0
 11 12  1  0  0  0  0
 11 13  1  0  0  0  0
 11 17  1  0  0  0  0
 13 14  1  0  0  0  0
 13 15  1  0  0  0  0
 13 16  1  0  0  0  0
 17 18  1  0  0  0  0
 17 19  1  0  0  0  0
 17 20  1  0  0  0  0
 20 21  1  0  0  0  0
 20 22  1  0  0  0  0
 20 23  1  0  0  0  0
 24 25  2  0  0  0  0
 24 26  1  0  0  0  0
 26 27  1  0  0  0  0
 26 28  1  0  0  0  0
 28 29  1  0  0  0  0
 28 30  1  0  0  0  0
 28 31  1  0  0  0  0
M  END
$$$$

  -OEChem-03222214053D

 31 30  0     1  0  0  0  0  0999 V2000
   -2.4417   -4.4017    0.4683 H   0  0  0  0  0  0  0  0  0  0  0  0
   -2.5152   -3.3928    0.0520 C   0  0  0  0  0  0  0  0  0  0  0  0
   -3.2659   -2.8338    0.6157 H   0  0  0  0  0  0  0  0  0  0  0  0
   -2.8314   -3.4664   -0.9913 H   0  0  0  0  0  0  0  0  0  0  0  0
   -1.1715   -2.6935    0.1398 C   0  0  0  0  0  0  0  0  0  0  0  0
   -0.2272   -3.2609    0.6577 O   0  0  0  0  0  0  0  0  0  0  0  0
   -1.0313   -1.4184   -0.3725 N   0  0  0  0  0  0  0  0  0  0  0  0
   -1.8229   -1.0569   -0.8934 H   0  0  0  0  0  0  0  0  0  0  0  0
    0.2565   -0.7025   -0.4869 C   0  0  1  0  0  0  0  0  0  0  0  0
    0.9144   -1.3586   -1.0682 H   0  0  0  0  0  0  0  0  0  0  0  0
    0.1498    0.6570   -1.2517 C   0  0  1  0  0  0  0  0  0  0  0  0
    0.1206    1.4377   -0.4830 H   0  0  0  0  0  0  0  0  0  0  0  0
    1.4274    0.9070   -2.0727 C   0  0  0  0  0  0  0  0  0  0  0  0
    1.5754    0.1236   -2.8223 H   0  0  0  0  0  0  0  0  0  0  0  0
    1.3711    1.8745   -2.5809 H   0  0  0  0  0  0  0  0  0  0  0  0
    2.3046    0.9206   -1.4182 H   0  0  0  0  0  0  0  0  0  0  0  0
   -1.1509    0.8863   -2.0762 C   0  0  0  0  0  0  0  0  0  0  0  0
   -2.0306    0.4706   -1.5817 H   0  0  0  0  0  0  0  0  0  0  0  0
   -1.3220    1.9671   -2.1198 H   0  0  0  0  0  0  0  0  0  0  0  0
   -1.0804    0.3934   -3.5259 C   0  0  0  0  0  0  0  0  0  0  0  0
   -0.8147   -0.6679   -3.5547 H   0  0  0  0  0  0  0  0  0  0  0  0
   -2.0538    0.5199   -4.0094 H   0  0  0  0  0  0  0  0  0  0  0  0
   -0.3423    0.9590   -4.1023 H   0  0  0  0  0  0  0  0  0  0  0  0
    0.9726   -0.4884    0.8680 C   0  0  0  0  0  0  0  0  0  0  0  0
    2.1953   -0.5032    0.9253 O   0  0  0  0  0  0  0  0  0  0  0  0
    0.2545   -0.0530    1.9674 N   0  0  0  0  0  0  0  0  0  0  0  0
   -0.7540   -0.1432    1.9066 H   0  0  0  0  0  0  0  0  0  0  0  0
    0.8643    0.1602    3.2738 C   0  0  0  0  0  0  0  0  0  0  0  0
    1.6580    0.9119    3.2091 H   0  0  0  0  0  0  0  0  0  0  0  0
    0.1147    0.5127    3.9886 H   0  0  0  0  0  0  0  0  0  0  0  0
    1.2937   -0.7738    3.6515 H   0  0  0  0  0  0  0  0  0  0  0  0
  1  2  1  0  0  0  0
  2  3  1  0  0  0  0
  2  4  1  0  0  0  0
  2  5  1  0  0  0  0
  5  6  2  0  0  0  0
  5  7  1  0  0  0  0
  7  8  1  0  0  0  0
  7  9  1  0  0  0  0
  9 10  1  0  0  0  0
  9 11  1  0  0  0  0
  9 24  1  0  0  0  0
 11 12  1  0  0  0  0
 11 13  1  0  0  0  0
 11 17  1  0  0  0  0
 13 14  1  0  0  0  0
 13 15  1  0  0  0  0
 13 16  1  0  0  0  0
 17 18  1  0  0  0  0
 17 19  1  0  0  0  0
 17 20  1  0  0  0  0
 20 21  1  0  0  0  0
 20 22  1  0  0  0  0
 20 23  1  0  0  0  0
 24 25  2  0  0  0  0
 24 26  1  0  0  0  0
 26 27  1  0  0  0  0
 26 28  1  0  0  0  0
 28 29  1  0  0  0  0
 28 30  1  0  0  0  0
 28 31  1  0  0  0  0
M  END
$$$$

  -OEChem-03222214053D

 31 30  0     1  0  0  0  0  0999 V2000
   -2.4568   -4.3885    0.4309 H   0  0  0  0  0  0  0  0  0  0  0  0
   -2.5204   -3.3773    0.0188 C   0  0  0  0  0  0  0  0  0  0  0  0
   -3.2768   -2.8180    0.5743 H   0  0  0  0  0  0  0  0  0  0  0  0
   -2.8211   -3.4441   -1.0296 H   0  0  0  0  0  0  0  0  0  0  0  0
   -1.1758   -2.6838    0.1307 C   0  0  0  0  0  0  0  0  0  0  0  0
   -0.2423   -3.2555    0.6631 O   0  0  0  0  0  0  0  0  0  0  0  0
   -1.0216   -1.4088   -0.3768 N   0  0  0  0  0  0  0  0  0  0  0  0
   -1.8023   -1.0401   -0.9101 H   0  0  0  0  0  0  0  0  0  0  0  0
    0.2715   -0.7004   -0.4753 C   0  0  1  0  0  0  0  0  0  0  0  0
    0.9319   -1.3553   -1.0549 H   0  0  0  0  0  0  0  0  0  0  0  0
    0.1593    0.6598   -1.2345 C   0  0  1  0  0  0  0  0  0  0  0  0
    0.1389    1.4489   -0.4744 H   0  0  0  0  0  0  0  0  0  0  0  0
    1.4172    0.8990   -2.0867 C   0  0  0  0  0  0  0  0  0  0  0  0
    1.5600    0.0963   -2.8165 H   0  0  0  0  0  0  0  0  0  0  0  0
    1.3401    1.8498   -2.6230 H   0  0  0  0  0  0  0  0  0  0  0  0
    2.3055    0.9402   -1.4482 H   0  0  0  0  0  0  0  0  0  0  0  0
   -1.1409    0.8691   -2.0546 C   0  0  0  0  0  0  0  0  0  0  0  0
   -2.0214    0.6481   -1.4449 H   0  0  0  0  0  0  0  0  0  0  0  0
   -1.2104    1.9304   -2.3155 H   0  0  0  0  0  0  0  0  0  0  0  0
   -1.1912    0.0682   -3.3618 C   0  0  0  0  0  0  0  0  0  0  0  0
   -1.0348   -0.9978   -3.1720 H   0  0  0  0  0  0  0  0  0  0  0  0
   -2.1684    0.1953   -3.8376 H   0  0  0  0  0  0  0  0  0  0  0  0
   -0.4266    0.4149   -4.0631 H   0  0  0  0  0  0  0  0  0  0  0  0
    0.9812   -0.4888    0.8824 C   0  0  0  0  0  0  0  0  0  0  0  0
    2.2038   -0.5002    0.9418 O   0  0  0  0  0  0  0  0  0  0  0  0
    0.2594   -0.0488    1.9774 N   0  0  0  0  0  0  0  0  0  0  0  0
   -0.7487   -0.1409    1.9134 H   0  0  0  0  0  0  0  0  0  0  0  0
    0.8642    0.1686    3.2851 C   0  0  0  0  0  0  0  0  0  0  0  0
    1.6616    0.9163    3.2198 H   0  0  0  0  0  0  0  0  0  0  0  0
    0.1130    0.5287    3.9942 H   0  0  0  0  0  0  0  0  0  0  0  0
    1.2873   -0.7651    3.6698 H   0  0  0  0  0  0  0  0  0  0  0  0
  1  2  1  0  0  0  0
  2  3  1  0  0  0  0
  2  4  1  0  0  0  0
  2  5  1  0  0  0  0
  5  6  2  0  0  0  0
  5  7  1  0  0  0  0
  7  8  1  0  0  0  0
  7  9  1  0  0  0  0
  9 10  1  0  0  0  0
  9 11  1  0  0  0  0
  9 24  1  0  0  0  0
 11 12  1  0  0  0  0
 11 13  1  0  0  0  0
 11 17  1  0  0  0  0
 13 14  1  0  0  0  0
 13 15  1  0  0  0  0
 13 16  1  0  0  0  0
 17 18  1  0  0  0  0
 17 19  1  0  0  0  0
 17 20  1  0  0  0  0
 20 21  1  0  0  0  0
 20 22  1  0  0  0  0
 20 23  1  0  0  0  0
 24 25  2  0  0  0  0
 24 26  1  0  0  0  0
 26 27  1  0  0  0  0
 26 28  1  0  0  0  0
 28 29  1  0  0  0  0
 28 30  1  0  0  0  0
 28 31  1  0  0  0  0
M  END
$$$$

  -OEChem-03222214053D

 31 30  0     1  0  0  0  0  0999 V2000
   -2.4291   -4.4077    0.4477 H   0  0  0  0  0  0  0  0  0  0  0  0
   -2.4976   -3.3935    0.0434 C   0  0  0  0  0  0  0  0  0  0  0  0
   -3.2439   -2.8366    0.6148 H   0  0  0  0  0  0  0  0  0  0  0  0
   -2.8159   -3.4530   -1.0002 H   0  0  0  0  0  0  0  0  0  0  0  0
   -1.1500   -2.7030    0.1367 C   0  0  0  0  0  0  0  0  0  0  0  0
   -0.2091   -3.2774    0.6530 O   0  0  0  0  0  0  0  0  0  0  0  0
   -1.0009   -1.4273   -0.3701 N   0  0  0  0  0  0  0  0  0  0  0  0
   -1.7939   -1.0431   -0.8743 H   0  0  0  0  0  0  0  0  0  0  0  0
    0.2843   -0.7062   -0.4603 C   0  0  1  0  0  0  0  0  0  0  0  0
    0.9552   -1.3562   -1.0335 H   0  0  0  0  0  0  0  0  0  0  0  0
    0.1603    0.6503   -1.2246 C   0  0  1  0  0  0  0  0  0  0  0  0
    0.1497    1.4476   -0.4728 H   0  0  0  0  0  0  0  0  0  0  0  0
    1.4096    0.8701   -2.0940 C   0  0  0  0  0  0  0  0  0  0  0  0
    1.5133    0.0792   -2.8428 H   0  0  0  0  0  0  0  0  0  0  0  0
    1.3528    1.8332   -2.6107 H   0  0  0  0  0  0  0  0  0  0  0  0
    2.3104    0.8721   -1.4719 H   0  0  0  0  0  0  0  0  0  0  0  0
   -1.1226    0.8727   -2.0681 C   0  0  0  0  0  0  0  0  0  0  0  0
   -1.9902    0.8614   -1.4010 H   0  0  0  0  0  0  0  0  0  0  0  0
   -1.0812    1.8731   -2.5116 H   0  0  0  0  0  0  0  0  0  0  0  0
   -1.3545   -0.1458   -3.1980 C   0  0  0  0  0  0  0  0  0  0  0  0
   -1.3946   -1.1741   -2.8349 H   0  0  0  0  0  0  0  0  0  0  0  0
   -2.3018    0.0734   -3.6999 H   0  0  0  0  0  0  0  0  0  0  0  0
   -0.5551   -0.0781   -3.9416 H   0  0  0  0  0  0  0  0  0  0  0  0
    0.9825   -0.4858    0.9018 C   0  0  0  0  0  0  0  0  0  0  0  0
    2.2047   -0.4825    0.9689 O   0  0  0  0  0  0  0  0  0  0  0  0
    0.2492   -0.0521    1.9918 N   0  0  0  0  0  0  0  0  0  0  0  0
   -0.7574   -0.1563    1.9235 H   0  0  0  0  0  0  0  0  0  0  0  0
    0.8450    0.1846    3.3005 C   0  0  0  0  0  0  0  0  0  0  0  0
    1.6430    0.9313    3.2298 H   0  0  0  0  0  0  0  0  0  0  0  0
    0.0893    0.5555    3.9994 H   0  0  0  0  0  0  0  0  0  0  0  0
    1.2656   -0.7434    3.7017 H   0  0  0  0  0  0  0  0  0  0  0  0
  1  2  1  0  0  0  0
  2  3  1  0  0  0  0
  2  4  1  0  0  0  0
  2  5  1  0  0  0  0
  5  6  2  0  0  0  0
  5  7  1  0  0  0  0
  7  8  1  0  0  0  0
  7  9  1  0  0  0  0
  9 10  1  0  0  0  0
  9 11  1  0  0  0  0
  9 24  1  0  0  0  0
 11 12  1  0  0  0  0
 11 13  1  0  0  0  0
 11 17  1  0  0  0  0
 13 14  1  0  0  0  0
 13 15  1  0  0  0  0
 13 16  1  0  0  0  0
 17 18  1  0  0  0  0
 17 19  1  0  0  0  0
 17 20  1  0  0  0  0
 20 21  1  0  0  0  0
 20 22  1  0  0  0  0
 20 23  1  0  0  0  0
 24 25  2  0  0  0  0
 24 26  1  0  0  0  0
 26 27  1  0  0  0  0
 26 28  1  0  0  0  0
 28 29  1  0  0  0  0
 28 30  1  0  0  0  0
 28 31  1  0  0  0  0
M  END
$$$$

  -OEChem-03222214053D

 31 30  0     1  0  0  0  0  0999 V2000
   -2.3397   -4.4511    0.5321 H   0  0  0  0  0  0  0  0  0  0  0  0
   -2.4308   -3.4447    0.1132 C   0  0  0  0  0  0  0  0  0  0  0  0
   -3.1631   -2.8848    0.6994 H   0  0  0  0  0  0  0  0  0  0  0  0
   -2.7823   -3.5248   -0.9183 H   0  0  0  0  0  0  0  0  0  0  0  0
   -1.0872   -2.7413    0.1501 C   0  0  0  0  0  0  0  0  0  0  0  0
   -0.1186   -3.3083    0.6219 O   0  0  0  0  0  0  0  0  0  0  0  0
   -0.9721   -1.4620   -0.3567 N   0  0  0  0  0  0  0  0  0  0  0  0
   -1.8005   -1.0590   -0.7824 H   0  0  0  0  0  0  0  0  0  0  0  0
    0.2893   -0.7069   -0.4534 C   0  0  1  0  0  0  0  0  0  0  0  0
    0.9739   -1.3462   -1.0227 H   0  0  0  0  0  0  0  0  0  0  0  0
    0.1449    0.6450   -1.2251 C   0  0  1  0  0  0  0  0  0  0  0  0
    0.1448    1.4480   -0.4795 H   0  0  0  0  0  0  0  0  0  0  0  0
    1.3943    0.8479   -2.1009 C   0  0  0  0  0  0  0  0  0  0  0  0
    1.4475    0.0900   -2.8884 H   0  0  0  0  0  0  0  0  0  0  0  0
    1.3798    1.8361   -2.5706 H   0  0  0  0  0  0  0  0  0  0  0  0
    2.3030    0.7787   -1.4943 H   0  0  0  0  0  0  0  0  0  0  0  0
   -1.1224    0.8929   -2.0946 C   0  0  0  0  0  0  0  0  0  0  0  0
   -1.9557    1.1430   -1.4303 H   0  0  0  0  0  0  0  0  0  0  0  0
   -0.9439    1.7757   -2.7176 H   0  0  0  0  0  0  0  0  0  0  0  0
   -1.5791   -0.2544   -3.0129 C   0  0  0  0  0  0  0  0  0  0  0  0
   -2.1777   -0.9981   -2.4842 H   0  0  0  0  0  0  0  0  0  0  0  0
   -2.2040    0.1508   -3.8149 H   0  0  0  0  0  0  0  0  0  0  0  0
   -0.7181   -0.7512   -3.4701 H   0  0  0  0  0  0  0  0  0  0  0  0
    0.9820   -0.4704    0.9091 C   0  0  0  0  0  0  0  0  0  0  0  0
    2.2037   -0.4402    0.9791 O   0  0  0  0  0  0  0  0  0  0  0  0
    0.2375   -0.0593    2.0003 N   0  0  0  0  0  0  0  0  0  0  0  0
   -0.7671   -0.1762    1.9274 H   0  0  0  0  0  0  0  0  0  0  0  0
    0.8254    0.1809    3.3118 C   0  0  0  0  0  0  0  0  0  0  0  0
    1.5964    0.9562    3.2506 H   0  0  0  0  0  0  0  0  0  0  0  0
    0.0573    0.5151    4.0154 H   0  0  0  0  0  0  0  0  0  0  0  0
    1.2785   -0.7370    3.7005 H   0  0  0  0  0  0  0  0  0  0  0  0
  1  2  1  0  0  0  0
  2  3  1  0  0  0  0
  2  4  1  0  0  0  0
  2  5  1  0  0  0  0
  5  6  2  0  0  0  0
  5  7  1  0  0  0  0
  7  8  1  0  0  0  0
  7  9  1  0  0  0  0
  9 10  1  0  0  0  0
  9 11  1  0  0  0  0
  9 24  1  0  0  0  0
 11 12  1  0  0  0  0
 11 13  1  0  0  0  0
 11 17  1  0  0  0  0
 13 14  1  0  0  0  0
 13 15  1  0  0  0  0
 13 16  1  0  0  0  0
 17 18  1  0  0  0  0
 17 19  1  0  0  0  0
 17 20  1  0  0  0  0
 20 21  1  0  0  0  0
 20 22  1  0  0  0  0
 20 23  1  0  0  0  0
 24 25  2  0  0  0  0
 24 26  1  0  0  0  0
 26 27  1  0  0  0  0
 26 28  1  0  0  0  0
 28 29  1  0  0  0  0
 28 30  1  0  0  0  0
 28 31  1  0  0  0  0
M  END
$$$$

  -OEChem-03222214053D

 31 30  0     1  0  0  0  0  0999 V2000
   -2.2622   -4.4993    0.6093 H   0  0  0  0  0  0  0  0  0  0  0  0
   -2.3757   -3.4976    0.1849 C   0  0  0  0  0  0  0  0  0  0  0  0
   -3.0919   -2.9379    0.7910 H   0  0  0  0  0  0  0  0  0  0  0  0
   -2.7615   -3.5896   -0.8333 H   0  0  0  0  0  0  0  0  0  0  0  0
   -1.0372   -2.7838    0.1696 C   0  0  0  0  0  0  0  0  0  0  0  0
   -0.0466   -3.3422    0.6042 O   0  0  0  0  0  0  0  0  0  0  0  0
   -0.9531   -1.5033   -0.3402 N   0  0  0  0  0  0  0  0  0  0  0  0
   -1.8061   -1.0959   -0.7071 H   0  0  0  0  0  0  0  0  0  0  0  0
    0.2888   -0.7198   -0.4479 C   0  0  1  0  0  0  0  0  0  0  0  0
    0.9828   -1.3527   -1.0129 H   0  0  0  0  0  0  0  0  0  0  0  0
    0.1384    0.6336   -1.2249 C   0  0  1  0  0  0  0  0  0  0  0  0
    0.1511    1.4371   -0.4796 H   0  0  0  0  0  0  0  0  0  0  0  0
    1.3926    0.8167   -2.1000 C   0  0  0  0  0  0  0  0  0  0  0  0
    1.4068    0.0828   -2.9123 H   0  0  0  0  0  0  0  0  0  0  0  0
    1.4164    1.8200   -2.5365 H   0  0  0  0  0  0  0  0  0  0  0  0
    2.3029    0.6926   -1.5048 H   0  0  0  0  0  0  0  0  0  0  0  0
   -1.1120    0.9218   -2.1169 C   0  0  0  0  0  0  0  0  0  0  0  0
   -1.8593    1.4233   -1.4934 H   0  0  0  0  0  0  0  0  0  0  0  0
   -0.8302    1.6404   -2.8939 H   0  0  0  0  0  0  0  0  0  0  0  0
   -1.8180   -0.2556   -2.8042 C   0  0  0  0  0  0  0  0  0  0  0  0
   -2.5532   -0.7271   -2.1481 H   0  0  0  0  0  0  0  0  0  0  0  0
   -2.3587    0.1080   -3.6835 H   0  0  0  0  0  0  0  0  0  0  0  0
   -1.0901   -1.0027   -3.1368 H   0  0  0  0  0  0  0  0  0  0  0  0
    0.9770   -0.4704    0.9152 C   0  0  0  0  0  0  0  0  0  0  0  0
    2.1977   -0.4157    0.9877 O   0  0  0  0  0  0  0  0  0  0  0  0
    0.2234   -0.0779    2.0071 N   0  0  0  0  0  0  0  0  0  0  0  0
   -0.7794   -0.2084    1.9327 H   0  0  0  0  0  0  0  0  0  0  0  0
    0.8054    0.1871    3.3166 C   0  0  0  0  0  0  0  0  0  0  0  0
    1.5581    0.9798    3.2489 H   0  0  0  0  0  0  0  0  0  0  0  0
    0.0293    0.5090    4.0173 H   0  0  0  0  0  0  0  0  0  0  0  0
    1.2803   -0.7164    3.7136 H   0  0  0  0  0  0  0  0  0  0  0  0
  1  2  1  0  0  0  0
  2  3  1  0  0  0  0
  2  4  1  0  0  0  0
  2  5  1  0  0  0  0
  5  6  2  0  0  0  0
  5  7  1  0  0  0  0
  7  8  1  0  0  0  0
  7  9  1  0  0  0  0
  9 10  1  0  0  0  0
  9 11  1  0  0  0  0
  9 24  1  0  0  0  0
 11 12  1  0  0  0  0
 11 13  1  0  0  0  0
 11 17  1  0  0  0  0
 13 14  1  0  0  0  0
 13 15  1  0  0  0  0
 13 16  1  0  0  0  0
 17 18  1  0  0  0  0
 17 19  1  0  0  0  0
 17 20  1  0  0  0  0
 20 21  1  0  0  0  0
 20 22  1  0  0  0  0
 20 23  1  0  0  0  0
 24 25  2  0  0  0  0
 24 26  1  0  0  0  0
 26 27  1  0  0  0  0
 26 28  1  0  0  0  0
 28 29  1  0  0  0  0
 28 30  1  0  0  0  0
 28 31  1  0  0  0  0
M  END
$$$$

  -OEChem-03222214053D

 31 30  0     1  0  0  0  0  0999 V2000
   -2.1793   -4.5158    0.8074 H   0  0  0  0  0  0  0  0  0  0  0  0
   -2.3215   -3.5288    0.3577 C   0  0  0  0  0  0  0  0  0  0  0  0
   -3.0235   -2.9606    0.9724 H   0  0  0  0  0  0  0  0  0  0  0  0
   -2.7420   -3.6563   -0.6427 H   0  0  0  0  0  0  0  0  0  0  0  0
   -0.9942   -2.7987    0.2735 C   0  0  0  0  0  0  0  0  0  0  0  0
    0.0165   -3.3278    0.6983 O   0  0  0  0  0  0  0  0  0  0  0  0
   -0.9427   -1.5370   -0.2857 N   0  0  0  0  0  0  0  0  0  0  0  0
   -1.8126   -1.1542   -0.6359 H   0  0  0  0  0  0  0  0  0  0  0  0
    0.2818   -0.7343   -0.4420 C   0  0  1  0  0  0  0  0  0  0  0  0
    0.9796   -1.3812   -0.9862 H   0  0  0  0  0  0  0  0  0  0  0  0
    0.1262    0.5896   -1.2743 C   0  0  1  0  0  0  0  0  0  0  0  0
    0.1307    1.4116   -0.5493 H   0  0  0  0  0  0  0  0  0  0  0  0
    1.3951    0.7559   -2.1328 C   0  0  0  0  0  0  0  0  0  0  0  0
    1.4241    0.0017   -2.9257 H   0  0  0  0  0  0  0  0  0  0  0  0
    1.4223    1.7484   -2.5937 H   0  0  0  0  0  0  0  0  0  0  0  0
    2.2968    0.6505   -1.5213 H   0  0  0  0  0  0  0  0  0  0  0  0
   -1.1144    0.8782   -2.1898 C   0  0  0  0  0  0  0  0  0  0  0  0
   -1.7215    1.6391   -1.6883 H   0  0  0  0  0  0  0  0  0  0  0  0
   -0.7639    1.3362   -3.1209 H   0  0  0  0  0  0  0  0  0  0  0  0
   -2.0686   -0.2525   -2.5899 C   0  0  0  0  0  0  0  0  0  0  0  0
   -2.6723    0.0667   -3.4451 H   0  0  0  0  0  0  0  0  0  0  0  0
   -2.7614   -0.4953   -1.7803 H   0  0  0  0  0  0  0  0  0  0  0  0
   -1.5098   -1.1461   -2.8858 H   0  0  0  0  0  0  0  0  0  0  0  0
    0.9752   -0.4266    0.9073 C   0  0  0  0  0  0  0  0  0  0  0  0
    2.1955   -0.3574    0.9743 O   0  0  0  0  0  0  0  0  0  0  0  0
    0.2210   -0.0118    1.9906 N   0  0  0  0  0  0  0  0  0  0  0  0
   -0.7812   -0.1489    1.9213 H   0  0  0  0  0  0  0  0  0  0  0  0
    0.8036    0.2901    3.2915 C   0  0  0  0  0  0  0  0  0  0  0  0
    1.5278    1.1070    3.2068 H   0  0  0  0  0  0  0  0  0  0  0  0
    0.0223    0.5937    3.9946 H   0  0  0  0  0  0  0  0  0  0  0  0
    1.3123   -0.5912    3.6959 H   0  0  0  0  0  0  0  0  0  0  0  0
  1  2  1  0  0  0  0
  2  3  1  0  0  0  0
  2  4  1  0  0  0  0
  2  5  1  0  0  0  0
  5  6  2  0  0  0  0
  5  7  1  0  0  0  0
  7  8  1  0  0  0  0
  7  9  1  0  0  0  0
  9 10  1  0  0  0  0
  9 11  1  0  0  0  0
  9 24  1  0  0  0  0
 11 12  1  0  0  0  0
 11 13  1  0  0  0  0
 11 17  1  0  0  0  0
 13 14  1  0  0  0  0
 13 15  1  0  0  0  0
 13 16  1  0  0  0  0
 17 18  1  0  0  0  0
 17 19  1  0  0  0  0
 17 20  1  0  0  0  0
 20 21  1  0  0  0  0
 20 22  1  0  0  0  0
 20 23  1  0  0  0  0
 24 25  2  0  0  0  0
 24 26  1  0  0  0  0
 26 27  1  0  0  0  0
 26 28  1  0  0  0  0
 28 29  1  0  0  0  0
 28 30  1  0  0  0  0
 28 31  1  0  0  0  0
M  END
$$$$

  -OEChem-03222214053D

 31 30  0     1  0  0  0  0  0999 V2000
   -1.8741   -4.7037    0.6213 H   0  0  0  0  0  0  0  0  0  0  0  0
   -2.0976   -3.7080    0.2272 C   0  0  0  0  0  0  0  0  0  0  0  0
   -2.8359   -3.2306    0.8758 H   0  0  0  0  0  0  0  0  0  0  0  0
   -2.5166   -3.8132   -0.7765 H   0  0  0  0  0  0  0  0  0  0  0  0
   -0.8331   -2.8719    0.1749 C   0  0  0  0  0  0  0  0  0  0  0  0
    0.2238   -3.3470    0.5478 O   0  0  0  0  0  0  0  0  0  0  0  0
   -0.8940   -1.5768   -0.3007 N   0  0  0  0  0  0  0  0  0  0  0  0
   -1.7915   -1.2633   -0.6494 H   0  0  0  0  0  0  0  0  0  0  0  0
    0.2677   -0.6890   -0.4775 C   0  0  1  0  0  0  0  0  0  0  0  0
    0.9663   -1.2563   -1.1032 H   0  0  0  0  0  0  0  0  0  0  0  0
   -0.0023    0.6767   -1.2111 C   0  0  1  0  0  0  0  0  0  0  0  0
   -0.0178    1.4329   -0.4178 H   0  0  0  0  0  0  0  0  0  0  0  0
    1.2166    0.9986   -2.0964 C   0  0  0  0  0  0  0  0  0  0  0  0
    1.2817    0.2947   -2.9325 H   0  0  0  0  0  0  0  0  0  0  0  0
    1.1417    2.0135   -2.4995 H   0  0  0  0  0  0  0  0  0  0  0  0
    2.1450    0.9375   -1.5203 H   0  0  0  0  0  0  0  0  0  0  0  0
   -1.2999    0.9811   -2.0420 C   0  0  0  0  0  0  0  0  0  0  0  0
   -1.7572    1.8802   -1.6154 H   0  0  0  0  0  0  0  0  0  0  0  0
   -1.0020    1.2451   -3.0624 H   0  0  0  0  0  0  0  0  0  0  0  0
   -2.4131   -0.0575   -2.1956 C   0  0  0  0  0  0  0  0  0  0  0  0
   -3.1584    0.3108   -2.9074 H   0  0  0  0  0  0  0  0  0  0  0  0
   -2.0163   -0.9999   -2.5854 H   0  0  0  0  0  0  0  0  0  0  0  0
   -2.9252   -0.2272   -1.2443 H   0  0  0  0  0  0  0  0  0  0  0  0
    1.0244   -0.4271    0.8486 C   0  0  0  0  0  0  0  0  0  0  0  0
    2.2409   -0.2913    0.8503 O   0  0  0  0  0  0  0  0  0  0  0  0
    0.3165   -0.1330    2.0004 N   0  0  0  0  0  0  0  0  0  0  0  0
   -0.6759   -0.3405    1.9810 H   0  0  0  0  0  0  0  0  0  0  0  0
    0.9618    0.0978    3.2865 C   0  0  0  0  0  0  0  0  0  0  0  0
    1.6513    0.9463    3.2234 H   0  0  0  0  0  0  0  0  0  0  0  0
    0.2121    0.3200    4.0517 H   0  0  0  0  0  0  0  0  0  0  0  0
    1.5233   -0.7899    3.5966 H   0  0  0  0  0  0  0  0  0  0  0  0
  1  2  1  0  0  0  0
  2  3  1  0  0  0  0
  2  4  1  0  0  0  0
  2  5  1  0  0  0  0
  5  6  2  0  0  0  0
  5  7  1  0  0  0  0
  7  8  1  0  0  0  0
  7  9  1  0  0  0  0
  9 10  1  0  0  0  0
  9 11  1  0  0  0  0
  9 24  1  0  0  0  0
 11 12  1  0  0  0  0
 11 13  1  0  0  0  0
 11 17  1  0  0  0  0
 13 14  1  0  0  0  0
 13 15  1  0  0  0  0
 13 16  1  0  0  0  0
 17 18  1  0  0  0  0
 17 19  1  0  0  0  0
 17 20  1  0  0  0  0
 20 21  1  0  0  0  0
 20 22  1  0  0  0  0
 20 23  1  0  0  0  0
 24 25  2  0  0  0  0
 24 26  1  0  0  0  0
 26 27  1  0  0  0  0
 26 28  1  0  0  0  0
 28 29  1  0  0  0  0
 28 30  1  0  0  0  0
 28 31  1  0  0  0  0
M  END
$$$$

  -OEChem-03222214053D

 31 30  0     1  0  0  0  0  0999 V2000
   -2.1591   -4.5883    0.6935 H   0  0  0  0  0  0  0  0  0  0  0  0
   -2.3107   -3.5897    0.2735 C   0  0  0  0  0  0  0  0  0  0  0  0
   -3.0297   -3.0522    0.8962 H   0  0  0  0  0  0  0  0  0  0  0  0
   -2.7160   -3.6918   -0.7359 H   0  0  0  0  0  0  0  0  0  0  0  0
   -0.9944   -2.8366    0.2307 C   0  0  0  0  0  0  0  0  0  0  0  0
    0.0189   -3.3644    0.6508 O   0  0  0  0  0  0  0  0  0  0  0  0
   -0.9575   -1.5569   -0.2877 N   0  0  0  0  0  0  0  0  0  0  0  0
   -1.8246   -1.1948   -0.6661 H   0  0  0  0  0  0  0  0  0  0  0  0
    0.2623   -0.7456   -0.4419 C   0  0  1  0  0  0  0  0  0  0  0  0
    0.9509   -1.3745   -1.0177 H   0  0  0  0  0  0  0  0  0  0  0  0
    0.1122    0.6061   -1.2325 C   0  0  1  0  0  0  0  0  0  0  0  0
    0.0902    1.3806   -0.4574 H   0  0  0  0  0  0  0  0  0  0  0  0
    1.3871    0.8487   -2.0606 C   0  0  0  0  0  0  0  0  0  0  0  0
    1.4755    0.1056   -2.8598 H   0  0  0  0  0  0  0  0  0  0  0  0
    1.3659    1.8456   -2.5123 H   0  0  0  0  0  0  0  0  0  0  0  0
    2.2797    0.7856   -1.4304 H   0  0  0  0  0  0  0  0  0  0  0  0
   -1.1215    0.9621   -2.1313 C   0  0  0  0  0  0  0  0  0  0  0  0
   -1.3628    2.0148   -1.9485 H   0  0  0  0  0  0  0  0  0  0  0  0
   -0.8106    0.8919   -3.1793 H   0  0  0  0  0  0  0  0  0  0  0  0
   -2.4275    0.1710   -2.0415 C   0  0  0  0  0  0  0  0  0  0  0  0
   -2.8222    0.1886   -1.0210 H   0  0  0  0  0  0  0  0  0  0  0  0
   -3.1758    0.6273   -2.6972 H   0  0  0  0  0  0  0  0  0  0  0  0
   -2.2837   -0.8615   -2.3738 H   0  0  0  0  0  0  0  0  0  0  0  0
    0.9783   -0.4833    0.9063 C   0  0  0  0  0  0  0  0  0  0  0  0
    2.1994   -0.4122    0.9540 O   0  0  0  0  0  0  0  0  0  0  0  0
    0.2430   -0.1085    2.0168 N   0  0  0  0  0  0  0  0  0  0  0  0
   -0.7582   -0.2601    1.9644 H   0  0  0  0  0  0  0  0  0  0  0  0
    0.8501    0.1527    3.3156 C   0  0  0  0  0  0  0  0  0  0  0  0
    1.5887    0.9577    3.2389 H   0  0  0  0  0  0  0  0  0  0  0  0
    0.0854    0.4558    4.0369 H   0  0  0  0  0  0  0  0  0  0  0  0
    1.3476   -0.7473    3.6919 H   0  0  0  0  0  0  0  0  0  0  0  0
  1  2  1  0  0  0  0
  2  3  1  0  0  0  0
  2  4  1  0  0  0  0
  2  5  1  0  0  0  0
  5  6  2  0  0  0  0
  5  7  1  0  0  0  0
  7  8  1  0  0  0  0
  7  9  1  0  0  0  0
  9 10  1  0  0  0  0
  9 11  1  0  0  0  0
  9 24  1  0  0  0  0
 11 12  1  0  0  0  0
 11 13  1  0  0  0  0
 11 17  1  0  0  0  0
 13 14  1  0  0  0  0
 13 15  1  0  0  0  0
 13 16  1  0  0  0  0
 17 18  1  0  0  0  0
 17 19  1  0  0  0  0
 17 20  1  0  0  0  0
 20 21  1  0  0  0  0
 20 22  1  0  0  0  0
 20 23  1  0  0  0  0
 24 25  2  0  0  0  0
 24 26  1  0  0  0  0
 26 27  1  0  0  0  0
 26 28  1  0  0  0  0
 28 29  1  0  0  0  0
 28 30  1  0  0  0  0
 28 31  1  0  0  0  0
M  END
$$$$

  -OEChem-03222214053D

 31 30  0     1  0  0  0  0  0999 V2000
   -2.1747   -4.5146    0.8796 H   0  0  0  0  0  0  0  0  0  0  0  0
   -2.3158   -3.5465    0.3903 C   0  0  0  0  0  0  0  0  0  0  0  0
   -3.0353   -2.9622    0.9686 H   0  0  0  0  0  0  0  0  0  0  0  0
   -2.7142   -3.7152   -0.6131 H   0  0  0  0  0  0  0  0  0  0  0  0
   -0.9934   -2.8077    0.3061 C   0  0  0  0  0  0  0  0  0  0  0  0
    0.0181   -3.3236    0.7452 O   0  0  0  0  0  0  0  0  0  0  0  0
   -0.9498   -1.5507   -0.2645 N   0  0  0  0  0  0  0  0  0  0  0  0
   -1.8202   -1.1849   -0.6311 H   0  0  0  0  0  0  0  0  0  0  0  0
    0.2701   -0.7417   -0.4253 C   0  0  1  0  0  0  0  0  0  0  0  0
    0.9736   -1.3902   -0.9601 H   0  0  0  0  0  0  0  0  0  0  0  0
    0.1265    0.5717   -1.2755 C   0  0  1  0  0  0  0  0  0  0  0  0
    0.0853    1.3831   -0.5398 H   0  0  0  0  0  0  0  0  0  0  0  0
    1.4049    0.7828   -2.1044 C   0  0  0  0  0  0  0  0  0  0  0  0
    1.5087   -0.0018   -2.8608 H   0  0  0  0  0  0  0  0  0  0  0  0
    1.3778    1.7528   -2.6109 H   0  0  0  0  0  0  0  0  0  0  0  0
    2.2911    0.7631   -1.4623 H   0  0  0  0  0  0  0  0  0  0  0  0
   -1.0960    0.8605   -2.2048 C   0  0  0  0  0  0  0  0  0  0  0  0
   -1.1946    1.9491   -2.2766 H   0  0  0  0  0  0  0  0  0  0  0  0
   -0.8568    0.4975   -3.2104 H   0  0  0  0  0  0  0  0  0  0  0  0
   -2.4777    0.2959   -1.8661 C   0  0  0  0  0  0  0  0  0  0  0  0
   -2.7131    0.4547   -0.8092 H   0  0  0  0  0  0  0  0  0  0  0  0
   -3.2377    0.8087   -2.4638 H   0  0  0  0  0  0  0  0  0  0  0  0
   -2.5381   -0.7689   -2.1088 H   0  0  0  0  0  0  0  0  0  0  0  0
    0.9568   -0.4192    0.9244 C   0  0  0  0  0  0  0  0  0  0  0  0
    2.1764   -0.3444    0.9950 O   0  0  0  0  0  0  0  0  0  0  0  0
    0.1976   -0.0007    2.0028 N   0  0  0  0  0  0  0  0  0  0  0  0
   -0.8028   -0.1501    1.9334 H   0  0  0  0  0  0  0  0  0  0  0  0
    0.7758    0.3024    3.3056 C   0  0  0  0  0  0  0  0  0  0  0  0
    1.5163    1.1046    3.2197 H   0  0  0  0  0  0  0  0  0  0  0  0
   -0.0047    0.6278    4.0000 H   0  0  0  0  0  0  0  0  0  0  0  0
    1.2644   -0.5850    3.7215 H   0  0  0  0  0  0  0  0  0  0  0  0
  1  2  1  0  0  0  0
  2  3  1  0  0  0  0
  2  4  1  0  0  0  0
  2  5  1  0  0  0  0
  5  6  2  0  0  0  0
  5  7  1  0  0  0  0
  7  8  1  0  0  0  0
  7  9  1  0  0  0  0
  9 10  1  0  0  0  0
  9 11  1  0  0  0  0
  9 24  1  0  0  0  0
 11 12  1  0  0  0  0
 11 13  1  0  0  0  0
 11 17  1  0  0  0  0
 13 14  1  0  0  0  0
 13 15  1  0  0  0  0
 13 16  1  0  0  0  0
 17 18  1  0  0  0  0
 17 19  1  0  0  0  0
 17 20  1  0  0  0  0
 20 21  1  0  0  0  0
 20 22  1  0  0  0  0
 20 23  1  0  0  0  0
 24 25  2  0  0  0  0
 24 26  1  0  0  0  0
 26 27  1  0  0  0  0
 26 28  1  0  0  0  0
 28 29  1  0  0  0  0
 28 30  1  0  0  0  0
 28 31  1  0  0  0  0
M  END
$$$$

  -OEChem-03222214053D

 31 30  0     1  0  0  0  0  0999 V2000
   -1.9023   -4.6664    0.5856 H   0  0  0  0  0  0  0  0  0  0  0  0
   -2.1129   -3.6731    0.1787 C   0  0  0  0  0  0  0  0  0  0  0  0
   -2.8690   -3.1911    0.8029 H   0  0  0  0  0  0  0  0  0  0  0  0
   -2.5030   -3.7848   -0.8358 H   0  0  0  0  0  0  0  0  0  0  0  0
   -0.8460   -2.8388    0.1586 C   0  0  0  0  0  0  0  0  0  0  0  0
    0.1968   -3.3103    0.5737 O   0  0  0  0  0  0  0  0  0  0  0  0
   -0.8880   -1.5470   -0.3278 N   0  0  0  0  0  0  0  0  0  0  0  0
   -1.7717   -1.2324   -0.7079 H   0  0  0  0  0  0  0  0  0  0  0  0
    0.2805   -0.6612   -0.4626 C   0  0  1  0  0  0  0  0  0  0  0  0
    1.0040   -1.2260   -1.0618 H   0  0  0  0  0  0  0  0  0  0  0  0
    0.0166    0.6921   -1.2102 C   0  0  1  0  0  0  0  0  0  0  0  0
   -0.0377    1.4597   -0.4299 H   0  0  0  0  0  0  0  0  0  0  0  0
    1.2292    1.0283   -2.0937 C   0  0  0  0  0  0  0  0  0  0  0  0
    1.3353    0.2956   -2.9002 H   0  0  0  0  0  0  0  0  0  0  0  0
    1.1162    2.0215   -2.5394 H   0  0  0  0  0  0  0  0  0  0  0  0
    2.1500    1.0278   -1.5018 H   0  0  0  0  0  0  0  0  0  0  0  0
   -1.2682    0.9207   -2.0604 C   0  0  0  0  0  0  0  0  0  0  0  0
   -1.3271    1.9938   -2.2719 H   0  0  0  0  0  0  0  0  0  0  0  0
   -1.1495    0.4111   -3.0225 H   0  0  0  0  0  0  0  0  0  0  0  0
   -2.6216    0.4938   -1.4805 C   0  0  0  0  0  0  0  0  0  0  0  0
   -2.6481    0.6542   -0.3981 H   0  0  0  0  0  0  0  0  0  0  0  0
   -2.8394   -0.5532   -1.7072 H   0  0  0  0  0  0  0  0  0  0  0  0
   -3.4176    1.0931   -1.9336 H   0  0  0  0  0  0  0  0  0  0  0  0
    0.9918   -0.3831    0.8835 C   0  0  0  0  0  0  0  0  0  0  0  0
    2.2061   -0.2327    0.9181 O   0  0  0  0  0  0  0  0  0  0  0  0
    0.2470   -0.0760    2.0082 N   0  0  0  0  0  0  0  0  0  0  0  0
   -0.7435   -0.2883    1.9627 H   0  0  0  0  0  0  0  0  0  0  0  0
    0.8520    0.1907    3.3068 C   0  0  0  0  0  0  0  0  0  0  0  0
    1.5321    1.0468    3.2446 H   0  0  0  0  0  0  0  0  0  0  0  0
    0.0782    0.4194    4.0456 H   0  0  0  0  0  0  0  0  0  0  0  0
    1.4158   -0.6826    3.6516 H   0  0  0  0  0  0  0  0  0  0  0  0
  1  2  1  0  0  0  0
  2  3  1  0  0  0  0
  2  4  1  0  0  0  0
  2  5  1  0  0  0  0
  5  6  2  0  0  0  0
  5  7  1  0  0  0  0
  7  8  1  0  0  0  0
  7  9  1  0  0  0  0
  9 10  1  0  0  0  0
  9 11  1  0  0  0  0
  9 24  1  0  0  0  0
 11 12  1  0  0  0  0
 11 13  1  0  0  0  0
 11 17  1  0  0  0  0
 13 14  1  0  0  0  0
 13 15  1  0  0  0  0
 13 16  1  0  0  0  0
 17 18  1  0  0  0  0
 17 19  1  0  0  0  0
 17 20  1  0  0  0  0
 20 21  1  0  0  0  0
 20 22  1  0  0  0  0
 20 23  1  0  0  0  0
 24 25  2  0  0  0  0
 24 26  1  0  0  0  0
 26 27  1  0  0  0  0
 26 28  1  0  0  0  0
 28 29  1  0  0  0  0
 28 30  1  0  0  0  0
 28 31  1  0  0  0  0
M  END
$$$$

  -OEChem-03222214053D

 31 30  0     1  0  0  0  0  0999 V2000
   -2.2994   -4.4788    0.5675 H   0  0  0  0  0  0  0  0  0  0  0  0
   -2.3828   -3.5080    0.0702 C   0  0  0  0  0  0  0  0  0  0  0  0
   -3.1778   -2.9341    0.5521 H   0  0  0  0  0  0  0  0  0  0  0  0
   -2.6432   -3.6717   -0.9782 H   0  0  0  0  0  0  0  0  0  0  0  0
   -1.0679   -2.7574    0.1677 C   0  0  0  0  0  0  0  0  0  0  0  0
   -0.1063   -3.2880    0.6927 O   0  0  0  0  0  0  0  0  0  0  0  0
   -0.9759   -1.4760   -0.3395 N   0  0  0  0  0  0  0  0  0  0  0  0
   -1.7689   -1.1532   -0.8809 H   0  0  0  0  0  0  0  0  0  0  0  0
    0.2777   -0.7110   -0.4518 C   0  0  1  0  0  0  0  0  0  0  0  0
    0.9608   -1.3408   -1.0330 H   0  0  0  0  0  0  0  0  0  0  0  0
    0.1299    0.6570   -1.1991 C   0  0  1  0  0  0  0  0  0  0  0  0
    0.1567    1.4465   -0.4392 H   0  0  0  0  0  0  0  0  0  0  0  0
    1.3510    0.8592   -2.1110 C   0  0  0  0  0  0  0  0  0  0  0  0
    1.3575    0.1195   -2.9180 H   0  0  0  0  0  0  0  0  0  0  0  0
    1.3384    1.8590   -2.5564 H   0  0  0  0  0  0  0  0  0  0  0  0
    2.2792    0.7571   -1.5394 H   0  0  0  0  0  0  0  0  0  0  0  0
   -1.1473    0.9366   -2.0392 C   0  0  0  0  0  0  0  0  0  0  0  0
   -1.0430    1.9355   -2.4768 H   0  0  0  0  0  0  0  0  0  0  0  0
   -1.2020    0.2242   -2.8689 H   0  0  0  0  0  0  0  0  0  0  0  0
   -2.4831    0.9121   -1.2797 C   0  0  0  0  0  0  0  0  0  0  0  0
   -2.3533    1.2862   -0.2592 H   0  0  0  0  0  0  0  0  0  0  0  0
   -3.2031    1.5586   -1.7913 H   0  0  0  0  0  0  0  0  0  0  0  0
   -2.9203   -0.0876   -1.2446 H   0  0  0  0  0  0  0  0  0  0  0  0
    0.9812   -0.4764    0.9064 C   0  0  0  0  0  0  0  0  0  0  0  0
    2.2032   -0.4305    0.9634 O   0  0  0  0  0  0  0  0  0  0  0  0
    0.2426   -0.0765    2.0055 N   0  0  0  0  0  0  0  0  0  0  0  0
   -0.7601   -0.2162    1.9434 H   0  0  0  0  0  0  0  0  0  0  0  0
    0.8395    0.1663    3.3125 C   0  0  0  0  0  0  0  0  0  0  0  0
    1.5826    0.9684    3.2517 H   0  0  0  0  0  0  0  0  0  0  0  0
    0.0698    0.4643    4.0306 H   0  0  0  0  0  0  0  0  0  0  0  0
    1.3292   -0.7402    3.6834 H   0  0  0  0  0  0  0  0  0  0  0  0
  1  2  1  0  0  0  0
  2  3  1  0  0  0  0
  2  4  1  0  0  0  0
  2  5  1  0  0  0  0
  5  6  2  0  0  0  0
  5  7  1  0  0  0  0
  7  8  1  0  0  0  0
  7  9  1  0  0  0  0
  9 10  1  0  0  0  0
  9 11  1  0  0  0  0
  9 24  1  0  0  0  0
 11 12  1  0  0  0  0
 11 13  1  0  0  0  0
 11 17  1  0  0  0  0
 13 14  1  0  0  0  0
 13 15  1  0  0  0  0
 13 16  1  0  0  0  0
 17 18  1  0  0  0  0
 17 19  1  0  0  0  0
 17 20  1  0  0  0  0
 20 21  1  0  0  0  0
 20 22  1  0  0  0  0
 20 23  1  0  0  0  0
 24 25  2  0  0  0  0
 24 26  1  0  0  0  0
 26 27  1  0  0  0  0
 26 28  1  0  0  0  0
 28 29  1  0  0  0  0
 28 30  1  0  0  0  0
 28 31  1  0  0  0  0
M  END
$$$$

  -OEChem-03222214053D

 31 30  0     1  0  0  0  0  0999 V2000
   -2.3496   -4.4552    0.4290 H   0  0  0  0  0  0  0  0  0  0  0  0
   -2.4364   -3.4447    0.0194 C   0  0  0  0  0  0  0  0  0  0  0  0
   -3.1982   -2.9009    0.5831 H   0  0  0  0  0  0  0  0  0  0  0  0
   -2.7463   -3.5157   -1.0261 H   0  0  0  0  0  0  0  0  0  0  0  0
   -1.1041   -2.7257    0.1195 C   0  0  0  0  0  0  0  0  0  0  0  0
   -0.1513   -3.2841    0.6317 O   0  0  0  0  0  0  0  0  0  0  0  0
   -0.9840   -1.4413   -0.3730 N   0  0  0  0  0  0  0  0  0  0  0  0
   -1.7812   -1.0775   -0.8852 H   0  0  0  0  0  0  0  0  0  0  0  0
    0.2843   -0.6947   -0.4658 C   0  0  1  0  0  0  0  0  0  0  0  0
    0.9632   -1.3258   -1.0508 H   0  0  0  0  0  0  0  0  0  0  0  0
    0.1430    0.6800   -1.1981 C   0  0  1  0  0  0  0  0  0  0  0  0
    0.1844    1.4755   -0.4452 H   0  0  0  0  0  0  0  0  0  0  0  0
    1.3501    0.8700   -2.1303 C   0  0  0  0  0  0  0  0  0  0  0  0
    1.3368    0.1288   -2.9359 H   0  0  0  0  0  0  0  0  0  0  0  0
    1.3384    1.8691   -2.5768 H   0  0  0  0  0  0  0  0  0  0  0  0
    2.2860    0.7612   -1.5728 H   0  0  0  0  0  0  0  0  0  0  0  0
   -1.1514    0.9147   -2.0189 C   0  0  0  0  0  0  0  0  0  0  0  0
   -1.0017    1.7768   -2.6775 H   0  0  0  0  0  0  0  0  0  0  0  0
   -1.3406    0.0484   -2.6612 H   0  0  0  0  0  0  0  0  0  0  0  0
   -2.3952    1.2069   -1.1637 C   0  0  0  0  0  0  0  0  0  0  0  0
   -2.2150    2.0801   -0.5288 H   0  0  0  0  0  0  0  0  0  0  0  0
   -3.2443    1.4290   -1.8175 H   0  0  0  0  0  0  0  0  0  0  0  0
   -2.6779    0.3722   -0.5217 H   0  0  0  0  0  0  0  0  0  0  0  0
    0.9844   -0.4812    0.8966 C   0  0  0  0  0  0  0  0  0  0  0  0
    2.2067   -0.4583    0.9600 O   0  0  0  0  0  0  0  0  0  0  0  0
    0.2467   -0.0777    1.9949 N   0  0  0  0  0  0  0  0  0  0  0  0
   -0.7589   -0.1892    1.9229 H   0  0  0  0  0  0  0  0  0  0  0  0
    0.8392    0.1369    3.3087 C   0  0  0  0  0  0  0  0  0  0  0  0
    1.6167    0.9066    3.2583 H   0  0  0  0  0  0  0  0  0  0  0  0
    0.0751    0.4662    4.0190 H   0  0  0  0  0  0  0  0  0  0  0  0
    1.2855   -0.7909    3.6821 H   0  0  0  0  0  0  0  0  0  0  0  0
  1  2  1  0  0  0  0
  2  3  1  0  0  0  0
  2  4  1  0  0  0  0
  2  5  1  0  0  0  0
  5  6  2  0  0  0  0
  5  7  1  0  0  0  0
  7  8  1  0  0  0  0
  7  9  1  0  0  0  0
  9 10  1  0  0  0  0
  9 11  1  0  0  0  0
  9 24  1  0  0  0  0
 11 12  1  0  0  0  0
 11 13  1  0  0  0  0
 11 17  1  0  0  0  0
 13 14  1  0  0  0  0
 13 15  1  0  0  0  0
 13 16  1  0  0  0  0
 17 18  1  0  0  0  0
 17 19  1  0  0  0  0
 17 20  1  0  0  0  0
 20 21  1  0  0  0  0
 20 22  1  0  0  0  0
 20 23  1  0  0  0  0
 24 25  2  0  0  0  0
 24 26  1  0  0  0  0
 26 27  1  0  0  0  0
 26 28  1  0  0  0  0
 28 29  1  0  0  0  0
 28 30  1  0  0  0  0
 28 31  1  0  0  0  0
M  END
$$$$

  -OEChem-03222214053D

 31 30  0     1  0  0  0  0  0999 V2000
   -2.3908   -4.4160    0.4116 H   0  0  0  0  0  0  0  0  0  0  0  0
   -2.4685   -3.4000    0.0141 C   0  0  0  0  0  0  0  0  0  0  0  0
   -3.2011   -2.8462    0.6060 H   0  0  0  0  0  0  0  0  0  0  0  0
   -2.8114   -3.4540   -1.0220 H   0  0  0  0  0  0  0  0  0  0  0  0
   -1.1187   -2.7104    0.0790 C   0  0  0  0  0  0  0  0  0  0  0  0
   -0.1623   -3.2929    0.5565 O   0  0  0  0  0  0  0  0  0  0  0  0
   -0.9856   -1.4233   -0.4029 N   0  0  0  0  0  0  0  0  0  0  0  0
   -1.8022   -1.0105   -0.8429 H   0  0  0  0  0  0  0  0  0  0  0  0
    0.2891   -0.6805   -0.4754 C   0  0  1  0  0  0  0  0  0  0  0  0
    0.9719   -1.3104   -1.0570 H   0  0  0  0  0  0  0  0  0  0  0  0
    0.1480    0.6924   -1.2074 C   0  0  1  0  0  0  0  0  0  0  0  0
    0.1828    1.4938   -0.4605 H   0  0  0  0  0  0  0  0  0  0  0  0
    1.3599    0.8861   -2.1328 C   0  0  0  0  0  0  0  0  0  0  0  0
    1.3556    0.1435   -2.9370 H   0  0  0  0  0  0  0  0  0  0  0  0
    1.3459    1.8846   -2.5806 H   0  0  0  0  0  0  0  0  0  0  0  0
    2.2928    0.7829   -1.5690 H   0  0  0  0  0  0  0  0  0  0  0  0
   -1.1523    0.8758   -2.0322 C   0  0  0  0  0  0  0  0  0  0  0  0
   -0.9625    1.5701   -2.8578 H   0  0  0  0  0  0  0  0  0  0  0  0
   -1.4689   -0.0667   -2.4895 H   0  0  0  0  0  0  0  0  0  0  0  0
   -2.2777    1.4822   -1.1884 C   0  0  0  0  0  0  0  0  0  0  0  0
   -1.9863    2.4697   -0.8167 H   0  0  0  0  0  0  0  0  0  0  0  0
   -3.1813    1.5957   -1.7950 H   0  0  0  0  0  0  0  0  0  0  0  0
   -2.5133    0.8447   -0.3316 H   0  0  0  0  0  0  0  0  0  0  0  0
    0.9772   -0.4765    0.8936 C   0  0  0  0  0  0  0  0  0  0  0  0
    2.1987   -0.4527    0.9667 O   0  0  0  0  0  0  0  0  0  0  0  0
    0.2319   -0.0757    1.9878 N   0  0  0  0  0  0  0  0  0  0  0  0
   -0.7732   -0.1863    1.9103 H   0  0  0  0  0  0  0  0  0  0  0  0
    0.8174    0.1435    3.3041 C   0  0  0  0  0  0  0  0  0  0  0  0
    1.5919    0.9162    3.2554 H   0  0  0  0  0  0  0  0  0  0  0  0
    0.0491    0.4709    4.0107 H   0  0  0  0  0  0  0  0  0  0  0  0
    1.2660   -0.7817    3.6811 H   0  0  0  0  0  0  0  0  0  0  0  0
  1  2  1  0  0  0  0
  2  3  1  0  0  0  0
  2  4  1  0  0  0  0
  2  5  1  0  0  0  0
  5  6  2  0  0  0  0
  5  7  1  0  0  0  0
  7  8  1  0  0  0  0
  7  9  1  0  0  0  0
  9 10  1  0  0  0  0
  9 11  1  0  0  0  0
  9 24  1  0  0  0  0
 11 12  1  0  0  0  0
 11 13  1  0  0  0  0
 11 17  1  0  0  0  0
 13 14  1  0  0  0  0
 13 15  1  0  0  0  0
 13 16  1  0  0  0  0
 17 18  1  0  0  0  0
 17 19  1  0  0  0  0
 17 20  1  0  0  0  0
 20 21  1  0  0  0  0
 20 22  1  0  0  0  0
 20 23  1  0  0  0  0
 24 25  2  0  0  0  0
 24 26  1  0  0  0  0
 26 27  1  0  0  0  0
 26 28  1  0  0  0  0
 28 29  1  0  0  0  0
 28 30  1  0  0  0  0
 28 31  1  0  0  0  0
M  END
$$$$

  -OEChem-03222214053D

 31 30  0     1  0  0  0  0  0999 V2000
   -2.3764   -4.4264    0.4442 H   0  0  0  0  0  0  0  0  0  0  0  0
   -2.4629   -3.4101    0.0492 C   0  0  0  0  0  0  0  0  0  0  0  0
   -3.1760   -2.8541    0.6624 H   0  0  0  0  0  0  0  0  0  0  0  0
   -2.8365   -3.4633   -0.9762 H   0  0  0  0  0  0  0  0  0  0  0  0
   -1.1099   -2.7240    0.0738 C   0  0  0  0  0  0  0  0  0  0  0  0
   -0.1400   -3.3104    0.5182 O   0  0  0  0  0  0  0  0  0  0  0  0
   -0.9888   -1.4351   -0.4064 N   0  0  0  0  0  0  0  0  0  0  0  0
   -1.8244   -1.0072   -0.7927 H   0  0  0  0  0  0  0  0  0  0  0  0
    0.2791   -0.6807   -0.4820 C   0  0  1  0  0  0  0  0  0  0  0  0
    0.9652   -1.3074   -1.0636 H   0  0  0  0  0  0  0  0  0  0  0  0
    0.1341    0.6903   -1.2186 C   0  0  1  0  0  0  0  0  0  0  0  0
    0.1638    1.4855   -0.4648 H   0  0  0  0  0  0  0  0  0  0  0  0
    1.3581    0.8947   -2.1267 C   0  0  0  0  0  0  0  0  0  0  0  0
    1.3693    0.1546   -2.9333 H   0  0  0  0  0  0  0  0  0  0  0  0
    1.3428    1.8949   -2.5712 H   0  0  0  0  0  0  0  0  0  0  0  0
    2.2845    0.7955   -1.5514 H   0  0  0  0  0  0  0  0  0  0  0  0
   -1.1627    0.8832   -2.0569 C   0  0  0  0  0  0  0  0  0  0  0  0
   -0.9095    1.3601   -3.0097 H   0  0  0  0  0  0  0  0  0  0  0  0
   -1.6382   -0.0641   -2.3215 H   0  0  0  0  0  0  0  0  0  0  0  0
   -2.1520    1.8100   -1.3485 C   0  0  0  0  0  0  0  0  0  0  0  0
   -1.7034    2.7942   -1.1796 H   0  0  0  0  0  0  0  0  0  0  0  0
   -3.0492    1.9408   -1.9610 H   0  0  0  0  0  0  0  0  0  0  0  0
   -2.4476    1.3883   -0.3829 H   0  0  0  0  0  0  0  0  0  0  0  0
    0.9684   -0.4732    0.8863 C   0  0  0  0  0  0  0  0  0  0  0  0
    2.1899   -0.4456    0.9593 O   0  0  0  0  0  0  0  0  0  0  0  0
    0.2222   -0.0808    1.9831 N   0  0  0  0  0  0  0  0  0  0  0  0
   -0.7830   -0.1897    1.9050 H   0  0  0  0  0  0  0  0  0  0  0  0
    0.8079    0.1356    3.2997 C   0  0  0  0  0  0  0  0  0  0  0  0
    1.5797    0.9112    3.2540 H   0  0  0  0  0  0  0  0  0  0  0  0
    0.0389    0.4576    4.0082 H   0  0  0  0  0  0  0  0  0  0  0  0
    1.2601   -0.7895    3.6724 H   0  0  0  0  0  0  0  0  0  0  0  0
  1  2  1  0  0  0  0
  2  3  1  0  0  0  0
  2  4  1  0  0  0  0
  2  5  1  0  0  0  0
  5  6  2  0  0  0  0
  5  7  1  0  0  0  0
  7  8  1  0  0  0  0
  7  9  1  0  0  0  0
  9 10  1  0  0  0  0
  9 11  1  0  0  0  0
  9 24  1  0  0  0  0
 11 12  1  0  0  0  0
 11 13  1  0  0  0  0
 11 17  1  0  0  0  0
 13 14  1  0  0  0  0
 13 15  1  0  0  0  0
 13 16  1  0  0  0  0
 17 18  1  0  0  0  0
 17 19  1  0  0  0  0
 17 20  1  0  0  0  0
 20 21  1  0  0  0  0
 20 22  1  0  0  0  0
 20 23  1  0  0  0  0
 24 25  2  0  0  0  0
 24 26  1  0  0  0  0
 26 27  1  0  0  0  0
 26 28  1  0  0  0  0
 28 29  1  0  0  0  0
 28 30  1  0  0  0  0
 28 31  1  0  0  0  0
M  END
$$$$

  -OEChem-03222214053D

 31 30  0     1  0  0  0  0  0999 V2000
   -2.3501   -4.4534    0.4796 H   0  0  0  0  0  0  0  0  0  0  0  0
   -2.4526   -3.4377    0.0868 C   0  0  0  0  0  0  0  0  0  0  0  0
   -3.1544   -2.8859    0.7165 H   0  0  0  0  0  0  0  0  0  0  0  0
   -2.8496   -3.4934   -0.9296 H   0  0  0  0  0  0  0  0  0  0  0  0
   -1.1039   -2.7434    0.0799 C   0  0  0  0  0  0  0  0  0  0  0  0
   -0.1200   -3.3248    0.4993 O   0  0  0  0  0  0  0  0  0  0  0  0
   -1.0028   -1.4526   -0.4000 N   0  0  0  0  0  0  0  0  0  0  0  0
   -1.8530   -1.0246   -0.7512 H   0  0  0  0  0  0  0  0  0  0  0  0
    0.2557   -0.6849   -0.4878 C   0  0  1  0  0  0  0  0  0  0  0  0
    0.9414   -1.3099   -1.0716 H   0  0  0  0  0  0  0  0  0  0  0  0
    0.1134    0.6823   -1.2348 C   0  0  1  0  0  0  0  0  0  0  0  0
    0.1264    1.4648   -0.4675 H   0  0  0  0  0  0  0  0  0  0  0  0
    1.3507    0.9130   -2.1181 C   0  0  0  0  0  0  0  0  0  0  0  0
    1.3955    0.1727   -2.9233 H   0  0  0  0  0  0  0  0  0  0  0  0
    1.3201    1.9121   -2.5642 H   0  0  0  0  0  0  0  0  0  0  0  0
    2.2674    0.8356   -1.5246 H   0  0  0  0  0  0  0  0  0  0  0  0
   -1.1740    0.9001   -2.0877 C   0  0  0  0  0  0  0  0  0  0  0  0
   -0.8949    1.0913   -3.1294 H   0  0  0  0  0  0  0  0  0  0  0  0
   -1.8254    0.0264   -2.1157 H   0  0  0  0  0  0  0  0  0  0  0  0
   -1.9748    2.1041   -1.5885 C   0  0  0  0  0  0  0  0  0  0  0  0
   -1.3626    3.0111   -1.6196 H   0  0  0  0  0  0  0  0  0  0  0  0
   -2.8542    2.2588   -2.2210 H   0  0  0  0  0  0  0  0  0  0  0  0
   -2.3107    1.9413   -0.5595 H   0  0  0  0  0  0  0  0  0  0  0  0
    0.9531   -0.4747    0.8768 C   0  0  0  0  0  0  0  0  0  0  0  0
    2.1747   -0.4399    0.9420 O   0  0  0  0  0  0  0  0  0  0  0  0
    0.2123   -0.0933    1.9815 N   0  0  0  0  0  0  0  0  0  0  0  0
   -0.7928   -0.2074    1.9113 H   0  0  0  0  0  0  0  0  0  0  0  0
    0.8065    0.1273    3.2940 C   0  0  0  0  0  0  0  0  0  0  0  0
    1.5716    0.9092    3.2427 H   0  0  0  0  0  0  0  0  0  0  0  0
    0.0405    0.4428    4.0086 H   0  0  0  0  0  0  0  0  0  0  0  0
    1.2689   -0.7943    3.6632 H   0  0  0  0  0  0  0  0  0  0  0  0
  1  2  1  0  0  0  0
  2  3  1  0  0  0  0
  2  4  1  0  0  0  0
  2  5  1  0  0  0  0
  5  6  2  0  0  0  0
  5  7  1  0  0  0  0
  7  8  1  0  0  0  0
  7  9  1  0  0  0  0
  9 10  1  0  0  0  0
  9 11  1  0  0  0  0
  9 24  1  0  0  0  0
 11 12  1  0  0  0  0
 11 13  1  0  0  0  0
 11 17  1  0  0  0  0
 13 14  1  0  0  0  0
 13 15  1  0  0  0  0
 13 16  1  0  0  0  0
 17 18  1  0  0  0  0
 17 19  1  0  0  0  0
 17 20  1  0  0  0  0
 20 21  1  0  0  0  0
 20 22  1  0  0  0  0
 20 23  1  0  0  0  0
 24 25  2  0  0  0  0
 24 26  1  0  0  0  0
 26 27  1  0  0  0  0
 26 28  1  0  0  0  0
 28 29  1  0  0  0  0
 28 30  1  0  0  0  0
 28 31  1  0  0  0  0
M  END
$$$$

  -OEChem-03222214053D

 31 30  0     1  0  0  0  0  0999 V2000
   -2.3397   -4.4707    0.4918 H   0  0  0  0  0  0  0  0  0  0  0  0
   -2.4505   -3.4561    0.0982 C   0  0  0  0  0  0  0  0  0  0  0  0
   -3.1563   -2.9098    0.7284 H   0  0  0  0  0  0  0  0  0  0  0  0
   -2.8479   -3.5155   -0.9180 H   0  0  0  0  0  0  0  0  0  0  0  0
   -1.1075   -2.7502    0.0902 C   0  0  0  0  0  0  0  0  0  0  0  0
   -0.1204   -3.3204    0.5176 O   0  0  0  0  0  0  0  0  0  0  0  0
   -1.0168   -1.4600   -0.3939 N   0  0  0  0  0  0  0  0  0  0  0  0
   -1.8673   -1.0497   -0.7634 H   0  0  0  0  0  0  0  0  0  0  0  0
    0.2384   -0.6874   -0.4922 C   0  0  1  0  0  0  0  0  0  0  0  0
    0.9223   -1.3131   -1.0769 H   0  0  0  0  0  0  0  0  0  0  0  0
    0.0988    0.6773   -1.2454 C   0  0  1  0  0  0  0  0  0  0  0  0
    0.0965    1.4512   -0.4692 H   0  0  0  0  0  0  0  0  0  0  0  0
    1.3386    0.9251   -2.1191 C   0  0  0  0  0  0  0  0  0  0  0  0
    1.4084    0.1762   -2.9144 H   0  0  0  0  0  0  0  0  0  0  0  0
    1.2905    1.9172   -2.5785 H   0  0  0  0  0  0  0  0  0  0  0  0
    2.2503    0.8749   -1.5154 H   0  0  0  0  0  0  0  0  0  0  0  0
   -1.1842    0.9060   -2.0990 C   0  0  0  0  0  0  0  0  0  0  0  0
   -0.9495    0.7875   -3.1623 H   0  0  0  0  0  0  0  0  0  0  0  0
   -1.9750    0.1906   -1.8769 H   0  0  0  0  0  0  0  0  0  0  0  0
   -1.7665    2.3007   -1.8584 C   0  0  0  0  0  0  0  0  0  0  0  0
   -1.0258    3.0713   -2.0944 H   0  0  0  0  0  0  0  0  0  0  0  0
   -2.6430    2.4568   -2.4947 H   0  0  0  0  0  0  0  0  0  0  0  0
   -2.0721    2.4152   -0.8137 H   0  0  0  0  0  0  0  0  0  0  0  0
    0.9427   -0.4723    0.8684 C   0  0  0  0  0  0  0  0  0  0  0  0
    2.1646   -0.4298    0.9261 O   0  0  0  0  0  0  0  0  0  0  0  0
    0.2072   -0.0922    1.9769 N   0  0  0  0  0  0  0  0  0  0  0  0
   -0.7972   -0.2168    1.9146 H   0  0  0  0  0  0  0  0  0  0  0  0
    0.8092    0.1315    3.2853 C   0  0  0  0  0  0  0  0  0  0  0  0
    1.5686    0.9186    3.2286 H   0  0  0  0  0  0  0  0  0  0  0  0
    0.0461    0.4415    4.0056 H   0  0  0  0  0  0  0  0  0  0  0  0
    1.2804   -0.7871    3.6508 H   0  0  0  0  0  0  0  0  0  0  0  0
  1  2  1  0  0  0  0
  2  3  1  0  0  0  0
  2  4  1  0  0  0  0
  2  5  1  0  0  0  0
  5  6  2  0  0  0  0
  5  7  1  0  0  0  0
  7  8  1  0  0  0  0
  7  9  1  0  0  0  0
  9 10  1  0  0  0  0
  9 11  1  0  0  0  0
  9 24  1  0  0  0  0
 11 12  1  0  0  0  0
 11 13  1  0  0  0  0
 11 17  1  0  0  0  0
 13 14  1  0  0  0  0
 13 15  1  0  0  0  0
 13 16  1  0  0  0  0
 17 18  1  0  0  0  0
 17 19  1  0  0  0  0
 17 20  1  0  0  0  0
 20 21  1  0  0  0  0
 20 22  1  0  0  0  0
 20 23  1  0  0  0  0
 24 25  2  0  0  0  0
 24 26  1  0  0  0  0
 26 27  1  0  0  0  0
 26 28  1  0  0  0  0
 28 29  1  0  0  0  0
 28 30  1  0  0  0  0
 28 31  1  0  0  0  0
M  END
$$$$

  -OEChem-03222214053D

 31 30  0     1  0  0  0  0  0999 V2000
   -2.3500   -4.4653    0.4609 H   0  0  0  0  0  0  0  0  0  0  0  0
   -2.4568   -3.4521    0.0629 C   0  0  0  0  0  0  0  0  0  0  0  0
   -3.1935   -2.9139    0.6639 H   0  0  0  0  0  0  0  0  0  0  0  0
   -2.8126   -3.5166   -0.9682 H   0  0  0  0  0  0  0  0  0  0  0  0
   -1.1229   -2.7309    0.1087 C   0  0  0  0  0  0  0  0  0  0  0  0
   -0.1498   -3.2878    0.5828 O   0  0  0  0  0  0  0  0  0  0  0  0
   -1.0248   -1.4445   -0.3849 N   0  0  0  0  0  0  0  0  0  0  0  0
   -1.8496   -1.0714   -0.8419 H   0  0  0  0  0  0  0  0  0  0  0  0
    0.2379   -0.6839   -0.4897 C   0  0  1  0  0  0  0  0  0  0  0  0
    0.9159   -1.3156   -1.0752 H   0  0  0  0  0  0  0  0  0  0  0  0
    0.1003    0.6818   -1.2405 C   0  0  1  0  0  0  0  0  0  0  0  0
    0.1026    1.4604   -0.4692 H   0  0  0  0  0  0  0  0  0  0  0  0
    1.3336    0.9119   -2.1298 C   0  0  0  0  0  0  0  0  0  0  0  0
    1.3800    0.1642   -2.9278 H   0  0  0  0  0  0  0  0  0  0  0  0
    1.3035    1.9051   -2.5868 H   0  0  0  0  0  0  0  0  0  0  0  0
    2.2513    0.8423   -1.5369 H   0  0  0  0  0  0  0  0  0  0  0  0
   -1.1933    0.8974   -2.0739 C   0  0  0  0  0  0  0  0  0  0  0  0
   -1.0604    0.4963   -3.0843 H   0  0  0  0  0  0  0  0  0  0  0  0
   -2.0497    0.3891   -1.6295 H   0  0  0  0  0  0  0  0  0  0  0  0
   -1.5803    2.3779   -2.1376 C   0  0  0  0  0  0  0  0  0  0  0  0
   -0.7887    2.9674   -2.6096 H   0  0  0  0  0  0  0  0  0  0  0  0
   -2.4959    2.5001   -2.7245 H   0  0  0  0  0  0  0  0  0  0  0  0
   -1.7595    2.7729   -1.1327 H   0  0  0  0  0  0  0  0  0  0  0  0
    0.9470   -0.4657    0.8680 C   0  0  0  0  0  0  0  0  0  0  0  0
    2.1695   -0.4361    0.9232 O   0  0  0  0  0  0  0  0  0  0  0  0
    0.2155   -0.0710    1.9739 N   0  0  0  0  0  0  0  0  0  0  0  0
   -0.7896   -0.1913    1.9119 H   0  0  0  0  0  0  0  0  0  0  0  0
    0.8188    0.1504    3.2818 C   0  0  0  0  0  0  0  0  0  0  0  0
    1.5829    0.9328    3.2246 H   0  0  0  0  0  0  0  0  0  0  0  0
    0.0574    0.4656    4.0013 H   0  0  0  0  0  0  0  0  0  0  0  0
    1.2843   -0.7707    3.6480 H   0  0  0  0  0  0  0  0  0  0  0  0
  1  2  1  0  0  0  0
  2  3  1  0  0  0  0
  2  4  1  0  0  0  0
  2  5  1  0  0  0  0
  5  6  2  0  0  0  0
  5  7  1  0  0  0  0
  7  8  1  0  0  0  0
  7  9  1  0  0  0  0
  9 10  1  0  0  0  0
  9 11  1  0  0  0  0
  9 24  1  0  0  0  0
 11 12  1  0  0  0  0
 11 13  1  0  0  0  0
 11 17  1  0  0  0  0
 13 14  1  0  0  0  0
 13 15  1  0  0  0  0
 13 16  1  0  0  0  0
 17 18  1  0  0  0  0
 17 19  1  0  0  0  0
 17 20  1  0  0  0  0
 20 21  1  0  0  0  0
 20 22  1  0  0  0  0
 20 23  1  0  0  0  0
 24 25  2  0  0  0  0
 24 26  1  0  0  0  0
 26 27  1  0  0  0  0
 26 28  1  0  0  0  0
 28 29  1  0  0  0  0
 28 30  1  0  0  0  0
 28 31  1  0  0  0  0
M  END
$$$$

  -OEChem-03222214053D

 31 30  0     1  0  0  0  0  0999 V2000
   -2.3825   -4.4316    0.4235 H   0  0  0  0  0  0  0  0  0  0  0  0
   -2.4735   -3.4169    0.0254 C   0  0  0  0  0  0  0  0  0  0  0  0
   -3.2217   -2.8759    0.6095 H   0  0  0  0  0  0  0  0  0  0  0  0
   -2.8042   -3.4765   -1.0142 H   0  0  0  0  0  0  0  0  0  0  0  0
   -1.1366   -2.7039    0.1051 C   0  0  0  0  0  0  0  0  0  0  0  0
   -0.1792   -3.2654    0.6049 O   0  0  0  0  0  0  0  0  0  0  0  0
   -1.0175   -1.4201   -0.3902 N   0  0  0  0  0  0  0  0  0  0  0  0
   -1.8247   -1.0486   -0.8795 H   0  0  0  0  0  0  0  0  0  0  0  0
    0.2558   -0.6759   -0.4869 C   0  0  1  0  0  0  0  0  0  0  0  0
    0.9309   -1.3113   -1.0717 H   0  0  0  0  0  0  0  0  0  0  0  0
    0.1176    0.6916   -1.2321 C   0  0  1  0  0  0  0  0  0  0  0  0
    0.1193    1.4788   -0.4698 H   0  0  0  0  0  0  0  0  0  0  0  0
    1.3492    0.9071   -2.1293 C   0  0  0  0  0  0  0  0  0  0  0  0
    1.3485    0.1980   -2.9631 H   0  0  0  0  0  0  0  0  0  0  0  0
    1.3666    1.9222   -2.5345 H   0  0  0  0  0  0  0  0  0  0  0  0
    2.2703    0.7645   -1.5551 H   0  0  0  0  0  0  0  0  0  0  0  0
   -1.1907    0.8716   -2.0464 C   0  0  0  0  0  0  0  0  0  0  0  0
   -1.1671    0.2372   -2.9387 H   0  0  0  0  0  0  0  0  0  0  0  0
   -2.0541    0.5775   -1.4444 H   0  0  0  0  0  0  0  0  0  0  0  0
   -1.4379    2.3300   -2.4454 C   0  0  0  0  0  0  0  0  0  0  0  0
   -0.6739    2.6818   -3.1441 H   0  0  0  0  0  0  0  0  0  0  0  0
   -2.4126    2.4220   -2.9345 H   0  0  0  0  0  0  0  0  0  0  0  0
   -1.4327    2.9768   -1.5625 H   0  0  0  0  0  0  0  0  0  0  0  0
    0.9604   -0.4619    0.8736 C   0  0  0  0  0  0  0  0  0  0  0  0
    2.1829   -0.4457    0.9346 O   0  0  0  0  0  0  0  0  0  0  0  0
    0.2282   -0.0543    1.9741 N   0  0  0  0  0  0  0  0  0  0  0  0
   -0.7776   -0.1658    1.9075 H   0  0  0  0  0  0  0  0  0  0  0  0
    0.8272    0.1589    3.2853 C   0  0  0  0  0  0  0  0  0  0  0  0
    1.6085    0.9243    3.2308 H   0  0  0  0  0  0  0  0  0  0  0  0
    0.0677    0.4933    3.9984 H   0  0  0  0  0  0  0  0  0  0  0  0
    1.2703   -0.7707    3.6582 H   0  0  0  0  0  0  0  0  0  0  0  0
  1  2  1  0  0  0  0
  2  3  1  0  0  0  0
  2  4  1  0  0  0  0
  2  5  1  0  0  0  0
  5  6  2  0  0  0  0
  5  7  1  0  0  0  0
  7  8  1  0  0  0  0
  7  9  1  0  0  0  0
  9 10  1  0  0  0  0
  9 11  1  0  0  0  0
  9 24  1  0  0  0  0
 11 12  1  0  0  0  0
 11 13  1  0  0  0  0
 11 17  1  0  0  0  0
 13 14  1  0  0  0  0
 13 15  1  0  0  0  0
 13 16  1  0  0  0  0
 17 18  1  0  0  0  0
 17 19  1  0  0  0  0
 17 20  1  0  0  0  0
 20 21  1  0  0  0  0
 20 22  1  0  0  0  0
 20 23  1  0  0  0  0
 24 25  2  0  0  0  0
 24 26  1  0  0  0  0
 26 27  1  0  0  0  0
 26 28  1  0  0  0  0
 28 29  1  0  0  0  0
 28 30  1  0  0  0  0
 28 31  1  0  0  0  0
M  END
$$$$

  -OEChem-03222214053D

 31 30  0     1  0  0  0  0  0999 V2000
   -2.4067   -4.4077    0.4003 H   0  0  0  0  0  0  0  0  0  0  0  0
   -2.4868   -3.3905    0.0062 C   0  0  0  0  0  0  0  0  0  0  0  0
   -3.2240   -2.8413    0.5966 H   0  0  0  0  0  0  0  0  0  0  0  0
   -2.8244   -3.4419   -1.0317 H   0  0  0  0  0  0  0  0  0  0  0  0
   -1.1405   -2.6952    0.0806 C   0  0  0  0  0  0  0  0  0  0  0  0
   -0.1868   -3.2707    0.5719 O   0  0  0  0  0  0  0  0  0  0  0  0
   -1.0093   -1.4089   -0.4046 N   0  0  0  0  0  0  0  0  0  0  0  0
   -1.8186   -1.0139   -0.8727 H   0  0  0  0  0  0  0  0  0  0  0  0
    0.2691   -0.6707   -0.4872 C   0  0  1  0  0  0  0  0  0  0  0  0
    0.9487   -1.3061   -1.0667 H   0  0  0  0  0  0  0  0  0  0  0  0
    0.1323    0.7068   -1.2159 C   0  0  1  0  0  0  0  0  0  0  0  0
    0.4073    1.4999   -0.5110 H   0  0  0  0  0  0  0  0  0  0  0  0
    1.1480    0.7552   -2.3712 C   0  0  0  0  0  0  0  0  0  0  0  0
    0.8606    0.0618   -3.1679 H   0  0  0  0  0  0  0  0  0  0  0  0
    1.2195    1.7625   -2.7904 H   0  0  0  0  0  0  0  0  0  0  0  0
    2.1449    0.4789   -2.0115 H   0  0  0  0  0  0  0  0  0  0  0  0
   -1.3049    1.0224   -1.7048 C   0  0  0  0  0  0  0  0  0  0  0  0
   -1.6432    0.2423   -2.3948 H   0  0  0  0  0  0  0  0  0  0  0  0
   -1.9788    1.0333   -0.8418 H   0  0  0  0  0  0  0  0  0  0  0  0
   -1.4262    2.3742   -2.4152 C   0  0  0  0  0  0  0  0  0  0  0  0
   -0.9004    2.3638   -3.3742 H   0  0  0  0  0  0  0  0  0  0  0  0
   -2.4792    2.5986   -2.6106 H   0  0  0  0  0  0  0  0  0  0  0  0
   -1.0120    3.1736   -1.7927 H   0  0  0  0  0  0  0  0  0  0  0  0
    0.9664   -0.4689    0.8774 C   0  0  0  0  0  0  0  0  0  0  0  0
    2.1886   -0.4421    0.9366 O   0  0  0  0  0  0  0  0  0  0  0  0
    0.2311   -0.0645    1.9771 N   0  0  0  0  0  0  0  0  0  0  0  0
   -0.7739   -0.1823    1.9102 H   0  0  0  0  0  0  0  0  0  0  0  0
    0.8284    0.1480    3.2892 C   0  0  0  0  0  0  0  0  0  0  0  0
    1.6131    0.9101    3.2354 H   0  0  0  0  0  0  0  0  0  0  0  0
    0.0693    0.4868    4.0006 H   0  0  0  0  0  0  0  0  0  0  0  0
    1.2668   -0.7831    3.6637 H   0  0  0  0  0  0  0  0  0  0  0  0
  1  2  1  0  0  0  0
  2  3  1  0  0  0  0
  2  4  1  0  0  0  0
  2  5  1  0  0  0  0
  5  6  2  0  0  0  0
  5  7  1  0  0  0  0
  7  8  1  0  0  0  0
  7  9  1  0  0  0  0
  9 10  1  0  0  0  0
  9 11  1  0  0  0  0
  9 24  1  0  0  0  0
 11 12  1  0  0  0  0
 11 13  1  0  0  0  0
 11 17  1  0  0  0  0
 13 14  1  0  0  0  0
 13 15  1  0  0  0  0
 13 16  1  0  0  0  0
 17 18  1  0  0  0  0
 17 19  1  0  0  0  0
 17 20  1  0  0  0  0
 20 21  1  0  0  0  0
 20 22  1  0  0  0  0
 20 23  1  0  0  0  0
 24 25  2  0  0  0  0
 24 26  1  0  0  0  0
 26 27  1  0  0  0  0
 26 28  1  0  0  0  0
 28 29  1  0  0  0  0
 28 30  1  0  0  0  0
 28 31  1  0  0  0  0
M  END
$$$$

  -OEChem-03222214053D

 31 30  0     1  0  0  0  0  0999 V2000
   -2.4069   -4.4127    0.4204 H   0  0  0  0  0  0  0  0  0  0  0  0
   -2.4909   -3.3955    0.0267 C   0  0  0  0  0  0  0  0  0  0  0  0
   -3.2167   -2.8438    0.6290 H   0  0  0  0  0  0  0  0  0  0  0  0
   -2.8465   -3.4474   -1.0052 H   0  0  0  0  0  0  0  0  0  0  0  0
   -1.1414   -2.7039    0.0769 C   0  0  0  0  0  0  0  0  0  0  0  0
   -0.1787   -3.2855    0.5427 O   0  0  0  0  0  0  0  0  0  0  0  0
   -1.0159   -1.4152   -0.4034 N   0  0  0  0  0  0  0  0  0  0  0  0
   -1.8396   -1.0050   -0.8310 H   0  0  0  0  0  0  0  0  0  0  0  0
    0.2590   -0.6713   -0.4895 C   0  0  1  0  0  0  0  0  0  0  0  0
    0.9359   -1.3089   -1.0699 H   0  0  0  0  0  0  0  0  0  0  0  0
    0.1285    0.7081   -1.2204 C   0  0  1  0  0  0  0  0  0  0  0  0
    0.4013    1.5045   -0.5183 H   0  0  0  0  0  0  0  0  0  0  0  0
    1.1685    0.7460   -2.3565 C   0  0  0  0  0  0  0  0  0  0  0  0
    0.8894    0.0550   -3.1582 H   0  0  0  0  0  0  0  0  0  0  0  0
    1.2602    1.7532   -2.7733 H   0  0  0  0  0  0  0  0  0  0  0  0
    2.1556    0.4596   -1.9782 H   0  0  0  0  0  0  0  0  0  0  0  0
   -1.3071    1.0358   -1.7193 C   0  0  0  0  0  0  0  0  0  0  0  0
   -1.7342    0.1639   -2.2235 H   0  0  0  0  0  0  0  0  0  0  0  0
   -1.9357    1.2735   -0.8549 H   0  0  0  0  0  0  0  0  0  0  0  0
   -1.3833    2.1866   -2.7282 C   0  0  0  0  0  0  0  0  0  0  0  0
   -0.9094    1.9129   -3.6757 H   0  0  0  0  0  0  0  0  0  0  0  0
   -2.4298    2.4316   -2.9334 H   0  0  0  0  0  0  0  0  0  0  0  0
   -0.8915    3.0792   -2.3288 H   0  0  0  0  0  0  0  0  0  0  0  0
    0.9627   -0.4715    0.8722 C   0  0  0  0  0  0  0  0  0  0  0  0
    2.1851   -0.4383    0.9248 O   0  0  0  0  0  0  0  0  0  0  0  0
    0.2323   -0.0742    1.9778 N   0  0  0  0  0  0  0  0  0  0  0  0
   -0.7732   -0.1914    1.9171 H   0  0  0  0  0  0  0  0  0  0  0  0
    0.8375    0.1506    3.2845 C   0  0  0  0  0  0  0  0  0  0  0  0
    1.6117    0.9227    3.2215 H   0  0  0  0  0  0  0  0  0  0  0  0
    0.0798    0.4817    4.0009 H   0  0  0  0  0  0  0  0  0  0  0  0
    1.2911   -0.7731    3.6591 H   0  0  0  0  0  0  0  0  0  0  0  0
  1  2  1  0  0  0  0
  2  3  1  0  0  0  0
  2  4  1  0  0  0  0
  2  5  1  0  0  0  0
  5  6  2  0  0  0  0
  5  7  1  0  0  0  0
  7  8  1  0  0  0  0
  7  9  1  0  0  0  0
  9 10  1  0  0  0  0
  9 11  1  0  0  0  0
  9 24  1  0  0  0  0
 11 12  1  0  0  0  0
 11 13  1  0  0  0  0
 11 17  1  0  0  0  0
 13 14  1  0  0  0  0
 13 15  1  0  0  0  0
 13 16  1  0  0  0  0
 17 18  1  0  0  0  0
 17 19  1  0  0  0  0
 17 20  1  0  0  0  0
 20 21  1  0  0  0  0
 20 22  1  0  0  0  0
 20 23  1  0  0  0  0
 24 25  2  0  0  0  0
 24 26  1  0  0  0  0
 26 27  1  0  0  0  0
 26 28  1  0  0  0  0
 28 29  1  0  0  0  0
 28 30  1  0  0  0  0
 28 31  1  0  0  0  0
M  END
$$$$

  -OEChem-03222214053D

 31 30  0     1  0  0  0  0  0999 V2000
   -2.3901   -4.4308    0.4672 H   0  0  0  0  0  0  0  0  0  0  0  0
   -2.4855   -3.4159    0.0704 C   0  0  0  0  0  0  0  0  0  0  0  0
   -3.1970   -2.8627    0.6881 H   0  0  0  0  0  0  0  0  0  0  0  0
   -2.8660   -3.4738   -0.9523 H   0  0  0  0  0  0  0  0  0  0  0  0
   -1.1365   -2.7216    0.0837 C   0  0  0  0  0  0  0  0  0  0  0  0
   -0.1604   -3.3018    0.5225 O   0  0  0  0  0  0  0  0  0  0  0  0
   -1.0267   -1.4316   -0.3975 N   0  0  0  0  0  0  0  0  0  0  0  0
   -1.8659   -1.0162   -0.7874 H   0  0  0  0  0  0  0  0  0  0  0  0
    0.2409   -0.6775   -0.4963 C   0  0  1  0  0  0  0  0  0  0  0  0
    0.9153   -1.3172   -1.0773 H   0  0  0  0  0  0  0  0  0  0  0  0
    0.1165    0.7030   -1.2319 C   0  0  1  0  0  0  0  0  0  0  0  0
    0.3879    1.4969   -0.5263 H   0  0  0  0  0  0  0  0  0  0  0  0
    1.1885    0.7319   -2.3402 C   0  0  0  0  0  0  0  0  0  0  0  0
    0.9408    0.0240   -3.1374 H   0  0  0  0  0  0  0  0  0  0  0  0
    1.2843    1.7325   -2.7712 H   0  0  0  0  0  0  0  0  0  0  0  0
    2.1668    0.4614   -1.9289 H   0  0  0  0  0  0  0  0  0  0  0  0
   -1.3120    1.0678   -1.7476 C   0  0  0  0  0  0  0  0  0  0  0  0
   -1.8575    0.1666   -2.0347 H   0  0  0  0  0  0  0  0  0  0  0  0
   -1.8660    1.5512   -0.9364 H   0  0  0  0  0  0  0  0  0  0  0  0
   -1.3565    1.9548   -2.9979 C   0  0  0  0  0  0  0  0  0  0  0  0
   -0.9239    1.4428   -3.8628 H   0  0  0  0  0  0  0  0  0  0  0  0
   -2.3944    2.2042   -3.2391 H   0  0  0  0  0  0  0  0  0  0  0  0
   -0.8115    2.8881   -2.8254 H   0  0  0  0  0  0  0  0  0  0  0  0
    0.9530   -0.4750    0.8610 C   0  0  0  0  0  0  0  0  0  0  0  0
    2.1754   -0.4312    0.9057 O   0  0  0  0  0  0  0  0  0  0  0  0
    0.2277   -0.0856    1.9728 N   0  0  0  0  0  0  0  0  0  0  0  0
   -0.7772   -0.2109    1.9198 H   0  0  0  0  0  0  0  0  0  0  0  0
    0.8413    0.1459    3.2745 C   0  0  0  0  0  0  0  0  0  0  0  0
    1.6045    0.9284    3.2057 H   0  0  0  0  0  0  0  0  0  0  0  0
    0.0855    0.4659    3.9980 H   0  0  0  0  0  0  0  0  0  0  0  0
    1.3108   -0.7720    3.6439 H   0  0  0  0  0  0  0  0  0  0  0  0
  1  2  1  0  0  0  0
  2  3  1  0  0  0  0
  2  4  1  0  0  0  0
  2  5  1  0  0  0  0
  5  6  2  0  0  0  0
  5  7  1  0  0  0  0
  7  8  1  0  0  0  0
  7  9  1  0  0  0  0
  9 10  1  0  0  0  0
  9 11  1  0  0  0  0
  9 24  1  0  0  0  0
 11 12  1  0  0  0  0
 11 13  1  0  0  0  0
 11 17  1  0  0  0  0
 13 14  1  0  0  0  0
 13 15  1  0  0  0  0
 13 16  1  0  0  0  0
 17 18  1  0  0  0  0
 17 19  1  0  0  0  0
 17 20  1  0  0  0  0
 20 21  1  0  0  0  0
 20 22  1  0  0  0  0
 20 23  1  0  0  0  0
 24 25  2  0  0  0  0
 24 26  1  0  0  0  0
 26 27  1  0  0  0  0
 26 28  1  0  0  0  0
 28 29  1  0  0  0  0
 28 30  1  0  0  0  0
 28 31  1  0  0  0  0
M  END
$$$$

  -OEChem-03222214053D

 31 30  0     1  0  0  0  0  0999 V2000
   -2.3722   -4.4515    0.5074 H   0  0  0  0  0  0  0  0  0  0  0  0
   -2.4773   -3.4401    0.1043 C   0  0  0  0  0  0  0  0  0  0  0  0
   -3.1917   -2.8888    0.7203 H   0  0  0  0  0  0  0  0  0  0  0  0
   -2.8610   -3.5081   -0.9166 H   0  0  0  0  0  0  0  0  0  0  0  0
   -1.1338   -2.7352    0.1086 C   0  0  0  0  0  0  0  0  0  0  0  0
   -0.1514   -3.3065    0.5452 O   0  0  0  0  0  0  0  0  0  0  0  0
   -1.0360   -1.4480   -0.3826 N   0  0  0  0  0  0  0  0  0  0  0  0
   -1.8787   -1.0485   -0.7801 H   0  0  0  0  0  0  0  0  0  0  0  0
    0.2269   -0.6891   -0.5007 C   0  0  1  0  0  0  0  0  0  0  0  0
    0.8977   -1.3331   -1.0814 H   0  0  0  0  0  0  0  0  0  0  0  0
    0.1086    0.6897   -1.2455 C   0  0  1  0  0  0  0  0  0  0  0  0
    0.3790    1.4772   -0.5326 H   0  0  0  0  0  0  0  0  0  0  0  0
    1.2064    0.7211   -2.3290 C   0  0  0  0  0  0  0  0  0  0  0  0
    0.9915   -0.0006   -3.1232 H   0  0  0  0  0  0  0  0  0  0  0  0
    1.2984    1.7183   -2.7684 H   0  0  0  0  0  0  0  0  0  0  0  0
    2.1780    0.4692   -1.8907 H   0  0  0  0  0  0  0  0  0  0  0  0
   -1.3111    1.0960   -1.7725 C   0  0  0  0  0  0  0  0  0  0  0  0
   -1.9950    0.2490   -1.7858 H   0  0  0  0  0  0  0  0  0  0  0  0
   -1.7324    1.8347   -1.0826 H   0  0  0  0  0  0  0  0  0  0  0  0
   -1.3669    1.6647   -3.1962 C   0  0  0  0  0  0  0  0  0  0  0  0
   -1.0168    0.9299   -3.9276 H   0  0  0  0  0  0  0  0  0  0  0  0
   -2.3987    1.9277   -3.4490 H   0  0  0  0  0  0  0  0  0  0  0  0
   -0.7588    2.5707   -3.2768 H   0  0  0  0  0  0  0  0  0  0  0  0
    0.9469   -0.4785    0.8520 C   0  0  0  0  0  0  0  0  0  0  0  0
    2.1696   -0.4389    0.8931 O   0  0  0  0  0  0  0  0  0  0  0  0
    0.2260   -0.0869    1.9658 N   0  0  0  0  0  0  0  0  0  0  0  0
   -0.7804   -0.1981    1.9122 H   0  0  0  0  0  0  0  0  0  0  0  0
    0.8421    0.1420    3.2663 C   0  0  0  0  0  0  0  0  0  0  0  0
    1.5960    0.9337    3.1993 H   0  0  0  0  0  0  0  0  0  0  0  0
    0.0857    0.4481    3.9952 H   0  0  0  0  0  0  0  0  0  0  0  0
    1.3232   -0.7734    3.6271 H   0  0  0  0  0  0  0  0  0  0  0  0
  1  2  1  0  0  0  0
  2  3  1  0  0  0  0
  2  4  1  0  0  0  0
  2  5  1  0  0  0  0
  5  6  2  0  0  0  0
  5  7  1  0  0  0  0
  7  8  1  0  0  0  0
  7  9  1  0  0  0  0
  9 10  1  0  0  0  0
  9 11  1  0  0  0  0
  9 24  1  0  0  0  0
 11 12  1  0  0  0  0
 11 13  1  0  0  0  0
 11 17  1  0  0  0  0
 13 14  1  0  0  0  0
 13 15  1  0  0  0  0
 13 16  1  0  0  0  0
 17 18  1  0  0  0  0
 17 19  1  0  0  0  0
 17 20  1  0  0  0  0
 20 21  1  0  0  0  0
 20 22  1  0  0  0  0
 20 23  1  0  0  0  0
 24 25  2  0  0  0  0
 24 26  1  0  0  0  0
 26 27  1  0  0  0  0
 26 28  1  0  0  0  0
 28 29  1  0  0  0  0
 28 30  1  0  0  0  0
 28 31  1  0  0  0  0
M  END
$$$$

  -OEChem-03222214053D

 31 30  0     1  0  0  0  0  0999 V2000
   -2.3836   -4.4605    0.4927 H   0  0  0  0  0  0  0  0  0  0  0  0
   -2.4824   -3.4531    0.0783 C   0  0  0  0  0  0  0  0  0  0  0  0
   -3.2358   -2.9088    0.6526 H   0  0  0  0  0  0  0  0  0  0  0  0
   -2.8114   -3.5326   -0.9606 H   0  0  0  0  0  0  0  0  0  0  0  0
   -1.1520   -2.7268    0.1485 C   0  0  0  0  0  0  0  0  0  0  0  0
   -0.1887   -3.2760    0.6510 O   0  0  0  0  0  0  0  0  0  0  0  0
   -1.0472   -1.4466   -0.3599 N   0  0  0  0  0  0  0  0  0  0  0  0
   -1.8540   -1.1036   -0.8693 H   0  0  0  0  0  0  0  0  0  0  0  0
    0.2235   -0.7029   -0.4924 C   0  0  1  0  0  0  0  0  0  0  0  0
    0.8864   -1.3549   -1.0731 H   0  0  0  0  0  0  0  0  0  0  0  0
    0.1113    0.6698   -1.2483 C   0  0  1  0  0  0  0  0  0  0  0  0
    0.3753    1.4498   -0.5244 H   0  0  0  0  0  0  0  0  0  0  0  0
    1.2185    0.7211   -2.3197 C   0  0  0  0  0  0  0  0  0  0  0  0
    1.0357   -0.0131   -3.1103 H   0  0  0  0  0  0  0  0  0  0  0  0
    1.2836    1.7178   -2.7654 H   0  0  0  0  0  0  0  0  0  0  0  0
    2.1912    0.5003   -1.8675 H   0  0  0  0  0  0  0  0  0  0  0  0
   -1.3045    1.0966   -1.7708 C   0  0  0  0  0  0  0  0  0  0  0  0
   -2.0907    0.4057   -1.4719 H   0  0  0  0  0  0  0  0  0  0  0  0
   -1.5528    2.0501   -1.2928 H   0  0  0  0  0  0  0  0  0  0  0  0
   -1.4315    1.3069   -3.2849 C   0  0  0  0  0  0  0  0  0  0  0  0
   -1.1831    0.3886   -3.8253 H   0  0  0  0  0  0  0  0  0  0  0  0
   -2.4610    1.5811   -3.5345 H   0  0  0  0  0  0  0  0  0  0  0  0
   -0.7774    2.1136   -3.6281 H   0  0  0  0  0  0  0  0  0  0  0  0
    0.9518   -0.4838    0.8550 C   0  0  0  0  0  0  0  0  0  0  0  0
    2.1752   -0.4543    0.8889 O   0  0  0  0  0  0  0  0  0  0  0  0
    0.2391   -0.0711    1.9664 N   0  0  0  0  0  0  0  0  0  0  0  0
   -0.7674   -0.1878    1.9198 H   0  0  0  0  0  0  0  0  0  0  0  0
    0.8623    0.1561    3.2640 C   0  0  0  0  0  0  0  0  0  0  0  0
    1.6307    0.9331    3.1903 H   0  0  0  0  0  0  0  0  0  0  0  0
    0.1131    0.4817    3.9917 H   0  0  0  0  0  0  0  0  0  0  0  0
    1.3272   -0.7652    3.6308 H   0  0  0  0  0  0  0  0  0  0  0  0
  1  2  1  0  0  0  0
  2  3  1  0  0  0  0
  2  4  1  0  0  0  0
  2  5  1  0  0  0  0
  5  6  2  0  0  0  0
  5  7  1  0  0  0  0
  7  8  1  0  0  0  0
  7  9  1  0  0  0  0
  9 10  1  0  0  0  0
  9 11  1  0  0  0  0
  9 24  1  0  0  0  0
 11 12  1  0  0  0  0
 11 13  1  0  0  0  0
 11 17  1  0  0  0  0
 13 14  1  0  0  0  0
 13 15  1  0  0  0  0
 13 16  1  0  0  0  0
 17 18  1  0  0  0  0
 17 19  1  0  0  0  0
 17 20  1  0  0  0  0
 20 21  1  0  0  0  0
 20 22  1  0  0  0  0
 20 23  1  0  0  0  0
 24 25  2  0  0  0  0
 24 26  1  0  0  0  0
 26 27  1  0  0  0  0
 26 28  1  0  0  0  0
 28 29  1  0  0  0  0
 28 30  1  0  0  0  0
 28 31  1  0  0  0  0
M  END
$$$$

  -OEChem-03222214053D

 31 30  0     1  0  0  0  0  0999 V2000
   -2.4125   -4.4400    0.4677 H   0  0  0  0  0  0  0  0  0  0  0  0
   -2.4965   -3.4342    0.0462 C   0  0  0  0  0  0  0  0  0  0  0  0
   -3.2619   -2.8839    0.5985 H   0  0  0  0  0  0  0  0  0  0  0  0
   -2.7994   -3.5173   -1.0003 H   0  0  0  0  0  0  0  0  0  0  0  0
   -1.1651   -2.7137    0.1465 C   0  0  0  0  0  0  0  0  0  0  0  0
   -0.2168   -3.2658    0.6739 O   0  0  0  0  0  0  0  0  0  0  0  0
   -1.0423   -1.4353   -0.3619 N   0  0  0  0  0  0  0  0  0  0  0  0
   -1.8298   -1.0949   -0.9037 H   0  0  0  0  0  0  0  0  0  0  0  0
    0.2374   -0.7068   -0.4833 C   0  0  1  0  0  0  0  0  0  0  0  0
    0.8993   -1.3605   -1.0626 H   0  0  0  0  0  0  0  0  0  0  0  0
    0.1236    0.6607   -1.2413 C   0  0  1  0  0  0  0  0  0  0  0  0
    0.3750    1.4395   -0.5117 H   0  0  0  0  0  0  0  0  0  0  0  0
    1.2209    0.7363   -2.3181 C   0  0  0  0  0  0  0  0  0  0  0  0
    1.0688   -0.0231   -3.0912 H   0  0  0  0  0  0  0  0  0  0  0  0
    1.2309    1.7245   -2.7880 H   0  0  0  0  0  0  0  0  0  0  0  0
    2.2044    0.5707   -1.8659 H   0  0  0  0  0  0  0  0  0  0  0  0
   -1.2938    1.0685   -1.7578 C   0  0  0  0  0  0  0  0  0  0  0  0
   -2.0973    0.5680   -1.2160 H   0  0  0  0  0  0  0  0  0  0  0  0
   -1.4179    2.1340   -1.5371 H   0  0  0  0  0  0  0  0  0  0  0  0
   -1.5179    0.9161   -3.2672 C   0  0  0  0  0  0  0  0  0  0  0  0
   -1.3475   -0.1200   -3.5760 H   0  0  0  0  0  0  0  0  0  0  0  0
   -2.5487    1.1848   -3.5177 H   0  0  0  0  0  0  0  0  0  0  0  0
   -0.8523    1.5715   -3.8367 H   0  0  0  0  0  0  0  0  0  0  0  0
    0.9624   -0.4910    0.8662 C   0  0  0  0  0  0  0  0  0  0  0  0
    2.1859   -0.4689    0.9021 O   0  0  0  0  0  0  0  0  0  0  0  0
    0.2503   -0.0671    1.9738 N   0  0  0  0  0  0  0  0  0  0  0  0
   -0.7560   -0.1863    1.9287 H   0  0  0  0  0  0  0  0  0  0  0  0
    0.8740    0.1610    3.2710 C   0  0  0  0  0  0  0  0  0  0  0  0
    1.6550    0.9246    3.1925 H   0  0  0  0  0  0  0  0  0  0  0  0
    0.1288    0.5053    3.9942 H   0  0  0  0  0  0  0  0  0  0  0  0
    1.3228   -0.7647    3.6464 H   0  0  0  0  0  0  0  0  0  0  0  0
  1  2  1  0  0  0  0
  2  3  1  0  0  0  0
  2  4  1  0  0  0  0
  2  5  1  0  0  0  0
  5  6  2  0  0  0  0
  5  7  1  0  0  0  0
  7  8  1  0  0  0  0
  7  9  1  0  0  0  0
  9 10  1  0  0  0  0
  9 11  1  0  0  0  0
  9 24  1  0  0  0  0
 11 12  1  0  0  0  0
 11 13  1  0  0  0  0
 11 17  1  0  0  0  0
 13 14  1  0  0  0  0
 13 15  1  0  0  0  0
 13 16  1  0  0  0  0
 17 18  1  0  0  0  0
 17 19  1  0  0  0  0
 17 20  1  0  0  0  0
 20 21  1  0  0  0  0
 20 22  1  0  0  0  0
 20 23  1  0  0  0  0
 24 25  2  0  0  0  0
 24 26  1  0  0  0  0
 26 27  1  0  0  0  0
 26 28  1  0  0  0  0
 28 29  1  0  0  0  0
 28 30  1  0  0  0  0
 28 31  1  0  0  0  0
M  END
$$$$

  -OEChem-03222214053D

 31 30  0     1  0  0  0  0  0999 V2000
   -2.4390   -4.4135    0.4403 H   0  0  0  0  0  0  0  0  0  0  0  0
   -2.5104   -3.4038    0.0261 C   0  0  0  0  0  0  0  0  0  0  0  0
   -3.2686   -2.8480    0.5829 H   0  0  0  0  0  0  0  0  0  0  0  0
   -2.8142   -3.4753   -1.0210 H   0  0  0  0  0  0  0  0  0  0  0  0
   -1.1698   -2.7011    0.1313 C   0  0  0  0  0  0  0  0  0  0  0  0
   -0.2292   -3.2659    0.6587 O   0  0  0  0  0  0  0  0  0  0  0  0
   -1.0289   -1.4231   -0.3727 N   0  0  0  0  0  0  0  0  0  0  0  0
   -1.8135   -1.0614   -0.9058 H   0  0  0  0  0  0  0  0  0  0  0  0
    0.2579   -0.7047   -0.4781 C   0  0  1  0  0  0  0  0  0  0  0  0
    0.9227   -1.3563   -1.0563 H   0  0  0  0  0  0  0  0  0  0  0  0
    0.1405    0.6610   -1.2316 C   0  0  1  0  0  0  0  0  0  0  0  0
    0.3891    1.4451   -0.5069 H   0  0  0  0  0  0  0  0  0  0  0  0
    1.2140    0.7447   -2.3296 C   0  0  0  0  0  0  0  0  0  0  0  0
    1.0841   -0.0492   -3.0716 H   0  0  0  0  0  0  0  0  0  0  0  0
    1.1670    1.7133   -2.8369 H   0  0  0  0  0  0  0  0  0  0  0  0
    2.2110    0.6398   -1.8890 H   0  0  0  0  0  0  0  0  0  0  0  0
   -1.2799    1.0406   -1.7398 C   0  0  0  0  0  0  0  0  0  0  0  0
   -2.0543    0.7236   -1.0364 H   0  0  0  0  0  0  0  0  0  0  0  0
   -1.3353    2.1341   -1.7677 H   0  0  0  0  0  0  0  0  0  0  0  0
   -1.6094    0.5477   -3.1536 C   0  0  0  0  0  0  0  0  0  0  0  0
   -1.4796   -0.5369   -3.2216 H   0  0  0  0  0  0  0  0  0  0  0  0
   -2.6484    0.7880   -3.3986 H   0  0  0  0  0  0  0  0  0  0  0  0
   -0.9681    1.0280   -3.8987 H   0  0  0  0  0  0  0  0  0  0  0  0
    0.9739   -0.4940    0.8764 C   0  0  0  0  0  0  0  0  0  0  0  0
    2.1972   -0.4801    0.9210 O   0  0  0  0  0  0  0  0  0  0  0  0
    0.2566   -0.0645    1.9784 N   0  0  0  0  0  0  0  0  0  0  0  0
   -0.7505   -0.1732    1.9245 H   0  0  0  0  0  0  0  0  0  0  0  0
    0.8709    0.1584    3.2810 C   0  0  0  0  0  0  0  0  0  0  0  0
    1.6628    0.9112    3.2085 H   0  0  0  0  0  0  0  0  0  0  0  0
    0.1233    0.5141    3.9961 H   0  0  0  0  0  0  0  0  0  0  0  0
    1.3036   -0.7723    3.6630 H   0  0  0  0  0  0  0  0  0  0  0  0
  1  2  1  0  0  0  0
  2  3  1  0  0  0  0
  2  4  1  0  0  0  0
  2  5  1  0  0  0  0
  5  6  2  0  0  0  0
  5  7  1  0  0  0  0
  7  8  1  0  0  0  0
  7  9  1  0  0  0  0
  9 10  1  0  0  0  0
  9 11  1  0  0  0  0
  9 24  1  0  0  0  0
 11 12  1  0  0  0  0
 11 13  1  0  0  0  0
 11 17  1  0  0  0  0
 13 14  1  0  0  0  0
 13 15  1  0  0  0  0
 13 16  1  0  0  0  0
 17 18  1  0  0  0  0
 17 19  1  0  0  0  0
 17 20  1  0  0  0  0
 20 21  1  0  0  0  0
 20 22  1  0  0  0  0
 20 23  1  0  0  0  0
 24 25  2  0  0  0  0
 24 26  1  0  0  0  0
 26 27  1  0  0  0  0
 26 28  1  0  0  0  0
 28 29  1  0  0  0  0
 28 30  1  0  0  0  0
 28 31  1  0  0  0  0
M  END
$$$$

  -OEChem-03222214053D

 31 30  0     1  0  0  0  0  0999 V2000
   -2.4407   -4.4093    0.4352 H   0  0  0  0  0  0  0  0  0  0  0  0
   -2.5069   -3.3971    0.0260 C   0  0  0  0  0  0  0  0  0  0  0  0
   -3.2577   -2.8384    0.5896 H   0  0  0  0  0  0  0  0  0  0  0  0
   -2.8175   -3.4613   -1.0196 H   0  0  0  0  0  0  0  0  0  0  0  0
   -1.1608   -2.7046    0.1262 C   0  0  0  0  0  0  0  0  0  0  0  0
   -0.2202   -3.2789    0.6433 O   0  0  0  0  0  0  0  0  0  0  0  0
   -1.0134   -1.4259   -0.3733 N   0  0  0  0  0  0  0  0  0  0  0  0
   -1.8048   -1.0433   -0.8816 H   0  0  0  0  0  0  0  0  0  0  0  0
    0.2724   -0.7057   -0.4677 C   0  0  1  0  0  0  0  0  0  0  0  0
    0.9430   -1.3549   -1.0419 H   0  0  0  0  0  0  0  0  0  0  0  0
    0.1519    0.6598   -1.2202 C   0  0  1  0  0  0  0  0  0  0  0  0
    0.4085    1.4503   -0.5054 H   0  0  0  0  0  0  0  0  0  0  0  0
    1.2009    0.7309   -2.3414 C   0  0  0  0  0  0  0  0  0  0  0  0
    1.0631   -0.0796   -3.0637 H   0  0  0  0  0  0  0  0  0  0  0  0
    1.1320    1.6868   -2.8700 H   0  0  0  0  0  0  0  0  0  0  0  0
    2.2080    0.6459   -1.9196 H   0  0  0  0  0  0  0  0  0  0  0  0
   -1.2619    1.0342   -1.7386 C   0  0  0  0  0  0  0  0  0  0  0  0
   -1.9944    0.9031   -0.9361 H   0  0  0  0  0  0  0  0  0  0  0  0
   -1.2634    2.1004   -1.9888 H   0  0  0  0  0  0  0  0  0  0  0  0
   -1.7186    0.2623   -2.9863 C   0  0  0  0  0  0  0  0  0  0  0  0
   -1.6471   -0.8187   -2.8411 H   0  0  0  0  0  0  0  0  0  0  0  0
   -2.7594    0.5114   -3.2148 H   0  0  0  0  0  0  0  0  0  0  0  0
   -1.1092    0.5348   -3.8531 H   0  0  0  0  0  0  0  0  0  0  0  0
    0.9795   -0.4956    0.8911 C   0  0  0  0  0  0  0  0  0  0  0  0
    2.2024   -0.4782    0.9432 O   0  0  0  0  0  0  0  0  0  0  0  0
    0.2542   -0.0686    1.9888 N   0  0  0  0  0  0  0  0  0  0  0  0
   -0.7525   -0.1758    1.9282 H   0  0  0  0  0  0  0  0  0  0  0  0
    0.8600    0.1645    3.2935 C   0  0  0  0  0  0  0  0  0  0  0  0
    1.6438    0.9260    3.2222 H   0  0  0  0  0  0  0  0  0  0  0  0
    0.1050    0.5138    4.0042 H   0  0  0  0  0  0  0  0  0  0  0  0
    1.3012   -0.7602    3.6800 H   0  0  0  0  0  0  0  0  0  0  0  0
  1  2  1  0  0  0  0
  2  3  1  0  0  0  0
  2  4  1  0  0  0  0
  2  5  1  0  0  0  0
  5  6  2  0  0  0  0
  5  7  1  0  0  0  0
  7  8  1  0  0  0  0
  7  9  1  0  0  0  0
  9 10  1  0  0  0  0
  9 11  1  0  0  0  0
  9 24  1  0  0  0  0
 11 12  1  0  0  0  0
 11 13  1  0  0  0  0
 11 17  1  0  0  0  0
 13 14  1  0  0  0  0
 13 15  1  0  0  0  0
 13 16  1  0  0  0  0
 17 18  1  0  0  0  0
 17 19  1  0  0  0  0
 17 20  1  0  0  0  0
 20 21  1  0  0  0  0
 20 22  1  0  0  0  0
 20 23  1  0  0  0  0
 24 25  2  0  0  0  0
 24 26  1  0  0  0  0
 26 27  1  0  0  0  0
 26 28  1  0  0  0  0
 28 29  1  0  0  0  0
 28 30  1  0  0  0  0
 28 31  1  0  0  0  0
M  END
$$$$

  -OEChem-03222214053D

 31 30  0     1  0  0  0  0  0999 V2000
   -2.3528   -4.4594    0.5180 H   0  0  0  0  0  0  0  0  0  0  0  0
   -2.4441   -3.4492    0.1084 C   0  0  0  0  0  0  0  0  0  0  0  0
   -3.1633   -2.8894    0.7108 H   0  0  0  0  0  0  0  0  0  0  0  0
   -2.8129   -3.5187   -0.9179 H   0  0  0  0  0  0  0  0  0  0  0  0
   -1.0954   -2.7549    0.1286 C   0  0  0  0  0  0  0  0  0  0  0  0
   -0.1228   -3.3306    0.5808 O   0  0  0  0  0  0  0  0  0  0  0  0
   -0.9815   -1.4713   -0.3671 N   0  0  0  0  0  0  0  0  0  0  0  0
   -1.8175   -1.0541   -0.7629 H   0  0  0  0  0  0  0  0  0  0  0  0
    0.2787   -0.7143   -0.4611 C   0  0  1  0  0  0  0  0  0  0  0  0
    0.9663   -1.3518   -1.0287 H   0  0  0  0  0  0  0  0  0  0  0  0
    0.1437    0.6490   -1.2182 C   0  0  1  0  0  0  0  0  0  0  0  0
    0.4057    1.4438   -0.5101 H   0  0  0  0  0  0  0  0  0  0  0  0
    1.1932    0.7025   -2.3409 C   0  0  0  0  0  0  0  0  0  0  0  0
    1.0319   -0.0974   -3.0698 H   0  0  0  0  0  0  0  0  0  0  0  0
    1.1510    1.6634   -2.8628 H   0  0  0  0  0  0  0  0  0  0  0  0
    2.1986    0.5879   -1.9221 H   0  0  0  0  0  0  0  0  0  0  0  0
   -1.2456    1.0590   -1.7828 C   0  0  0  0  0  0  0  0  0  0  0  0
   -1.9403    1.1596   -0.9428 H   0  0  0  0  0  0  0  0  0  0  0  0
   -1.1494    2.0521   -2.2342 H   0  0  0  0  0  0  0  0  0  0  0  0
   -1.8887    0.1263   -2.8278 C   0  0  0  0  0  0  0  0  0  0  0  0
   -2.1496   -0.8550   -2.4332 H   0  0  0  0  0  0  0  0  0  0  0  0
   -2.8101    0.5848   -3.1995 H   0  0  0  0  0  0  0  0  0  0  0  0
   -1.2169   -0.0138   -3.6793 H   0  0  0  0  0  0  0  0  0  0  0  0
    0.9742   -0.4900    0.9014 C   0  0  0  0  0  0  0  0  0  0  0  0
    2.1958   -0.4389    0.9603 O   0  0  0  0  0  0  0  0  0  0  0  0
    0.2326   -0.0897    1.9985 N   0  0  0  0  0  0  0  0  0  0  0  0
   -0.7714   -0.2159    1.9321 H   0  0  0  0  0  0  0  0  0  0  0  0
    0.8262    0.1610    3.3057 C   0  0  0  0  0  0  0  0  0  0  0  0
    1.5897    0.9432    3.2372 H   0  0  0  0  0  0  0  0  0  0  0  0
    0.0591    0.4909    4.0127 H   0  0  0  0  0  0  0  0  0  0  0  0
    1.2904   -0.7511    3.6954 H   0  0  0  0  0  0  0  0  0  0  0  0
  1  2  1  0  0  0  0
  2  3  1  0  0  0  0
  2  4  1  0  0  0  0
  2  5  1  0  0  0  0
  5  6  2  0  0  0  0
  5  7  1  0  0  0  0
  7  8  1  0  0  0  0
  7  9  1  0  0  0  0
  9 10  1  0  0  0  0
  9 11  1  0  0  0  0
  9 24  1  0  0  0  0
 11 12  1  0  0  0  0
 11 13  1  0  0  0  0
 11 17  1  0  0  0  0
 13 14  1  0  0  0  0
 13 15  1  0  0  0  0
 13 16  1  0  0  0  0
 17 18  1  0  0  0  0
 17 19  1  0  0  0  0
 17 20  1  0  0  0  0
 20 21  1  0  0  0  0
 20 22  1  0  0  0  0
 20 23  1  0  0  0  0
 24 25  2  0  0  0  0
 24 26  1  0  0  0  0
 26 27  1  0  0  0  0
 26 28  1  0  0  0  0
 28 29  1  0  0  0  0
 28 30  1  0  0  0  0
 28 31  1  0  0  0  0
M  END
$$$$

  -OEChem-03222214053D

 31 30  0     1  0  0  0  0  0999 V2000
   -2.2560   -4.5149    0.5566 H   0  0  0  0  0  0  0  0  0  0  0  0
   -2.3747   -3.5069    0.1487 C   0  0  0  0  0  0  0  0  0  0  0  0
   -3.0871   -2.9586    0.7694 H   0  0  0  0  0  0  0  0  0  0  0  0
   -2.7693   -3.5838   -0.8674 H   0  0  0  0  0  0  0  0  0  0  0  0
   -1.0377   -2.7896    0.1339 C   0  0  0  0  0  0  0  0  0  0  0  0
   -0.0431   -3.3512    0.5552 O   0  0  0  0  0  0  0  0  0  0  0  0
   -0.9591   -1.5014   -0.3566 N   0  0  0  0  0  0  0  0  0  0  0  0
   -1.8159   -1.0888   -0.7063 H   0  0  0  0  0  0  0  0  0  0  0  0
    0.2794   -0.7114   -0.4556 C   0  0  1  0  0  0  0  0  0  0  0  0
    0.9788   -1.3366   -1.0227 H   0  0  0  0  0  0  0  0  0  0  0  0
    0.1281    0.6547   -1.2115 C   0  0  1  0  0  0  0  0  0  0  0  0
    0.4059    1.4518   -0.5121 H   0  0  0  0  0  0  0  0  0  0  0  0
    1.1661    0.6902   -2.3473 C   0  0  0  0  0  0  0  0  0  0  0  0
    0.9480   -0.0742   -3.0996 H   0  0  0  0  0  0  0  0  0  0  0  0
    1.1720    1.6687   -2.8374 H   0  0  0  0  0  0  0  0  0  0  0  0
    2.1704    0.5092   -1.9493 H   0  0  0  0  0  0  0  0  0  0  0  0
   -1.2508    1.0865   -1.7957 C   0  0  0  0  0  0  0  0  0  0  0  0
   -1.8748    1.4429   -0.9697 H   0  0  0  0  0  0  0  0  0  0  0  0
   -1.0868    1.9463   -2.4540 H   0  0  0  0  0  0  0  0  0  0  0  0
   -2.0669    0.0440   -2.5775 C   0  0  0  0  0  0  0  0  0  0  0  0
   -2.7356   -0.5215   -1.9245 H   0  0  0  0  0  0  0  0  0  0  0  0
   -2.6942    0.5528   -3.3158 H   0  0  0  0  0  0  0  0  0  0  0  0
   -1.4088   -0.6490   -3.1104 H   0  0  0  0  0  0  0  0  0  0  0  0
    0.9734   -0.4775    0.9062 C   0  0  0  0  0  0  0  0  0  0  0  0
    2.1934   -0.3967    0.9622 O   0  0  0  0  0  0  0  0  0  0  0  0
    0.2260   -0.1033    2.0088 N   0  0  0  0  0  0  0  0  0  0  0  0
   -0.7754   -0.2483    1.9441 H   0  0  0  0  0  0  0  0  0  0  0  0
    0.8182    0.1515    3.3159 C   0  0  0  0  0  0  0  0  0  0  0  0
    1.5581    0.9564    3.2519 H   0  0  0  0  0  0  0  0  0  0  0  0
    0.0455    0.4513    4.0301 H   0  0  0  0  0  0  0  0  0  0  0  0
    1.3108   -0.7506    3.6940 H   0  0  0  0  0  0  0  0  0  0  0  0
  1  2  1  0  0  0  0
  2  3  1  0  0  0  0
  2  4  1  0  0  0  0
  2  5  1  0  0  0  0
  5  6  2  0  0  0  0
  5  7  1  0  0  0  0
  7  8  1  0  0  0  0
  7  9  1  0  0  0  0
  9 10  1  0  0  0  0
  9 11  1  0  0  0  0
  9 24  1  0  0  0  0
 11 12  1  0  0  0  0
 11 13  1  0  0  0  0
 11 17  1  0  0  0  0
 13 14  1  0  0  0  0
 13 15  1  0  0  0  0
 13 16  1  0  0  0  0
 17 18  1  0  0  0  0
 17 19  1  0  0  0  0
 17 20  1  0  0  0  0
 20 21  1  0  0  0  0
 20 22  1  0  0  0  0
 20 23  1  0  0  0  0
 24 25  2  0  0  0  0
 24 26  1  0  0  0  0
 26 27  1  0  0  0  0
 26 28  1  0  0  0  0
 28 29  1  0  0  0  0
 28 30  1  0  0  0  0
 28 31  1  0  0  0  0
M  END
$$$$

  -OEChem-03222214053D

 31 30  0     1  0  0  0  0  0999 V2000
   -2.0899   -4.5846    0.7386 H   0  0  0  0  0  0  0  0  0  0  0  0
   -2.2569   -3.5960    0.3012 C   0  0  0  0  0  0  0  0  0  0  0  0
   -2.9924   -3.0630    0.9082 H   0  0  0  0  0  0  0  0  0  0  0  0
   -2.6499   -3.7219   -0.7105 H   0  0  0  0  0  0  0  0  0  0  0  0
   -0.9554   -2.8174    0.2599 C   0  0  0  0  0  0  0  0  0  0  0  0
    0.0617   -3.3141    0.7079 O   0  0  0  0  0  0  0  0  0  0  0  0
   -0.9365   -1.5480   -0.2839 N   0  0  0  0  0  0  0  0  0  0  0  0
   -1.8007   -1.2157   -0.6924 H   0  0  0  0  0  0  0  0  0  0  0  0
    0.2713   -0.7226   -0.4500 C   0  0  1  0  0  0  0  0  0  0  0  0
    0.9743   -1.3551   -1.0043 H   0  0  0  0  0  0  0  0  0  0  0  0
    0.0883    0.6202   -1.2504 C   0  0  1  0  0  0  0  0  0  0  0  0
    0.3903    1.4405   -0.5889 H   0  0  0  0  0  0  0  0  0  0  0  0
    1.1063    0.6012   -2.4060 C   0  0  0  0  0  0  0  0  0  0  0  0
    0.8413   -0.1662   -3.1404 H   0  0  0  0  0  0  0  0  0  0  0  0
    1.1405    1.5714   -2.9115 H   0  0  0  0  0  0  0  0  0  0  0  0
    2.1124    0.3902   -2.0276 H   0  0  0  0  0  0  0  0  0  0  0  0
   -1.2889    1.0652   -1.8450 C   0  0  0  0  0  0  0  0  0  0  0  0
   -1.7871    1.6799   -1.0881 H   0  0  0  0  0  0  0  0  0  0  0  0
   -1.1027    1.7259   -2.6983 H   0  0  0  0  0  0  0  0  0  0  0  0
   -2.3082    0.0115   -2.2945 C   0  0  0  0  0  0  0  0  0  0  0  0
   -3.0000    0.4588   -3.0150 H   0  0  0  0  0  0  0  0  0  0  0  0
   -2.9088   -0.3470   -1.4544 H   0  0  0  0  0  0  0  0  0  0  0  0
   -1.8071   -0.8301   -2.7830 H   0  0  0  0  0  0  0  0  0  0  0  0
    0.9863   -0.4172    0.8872 C   0  0  0  0  0  0  0  0  0  0  0  0
    2.2040   -0.2944    0.9124 O   0  0  0  0  0  0  0  0  0  0  0  0
    0.2503   -0.0273    1.9918 N   0  0  0  0  0  0  0  0  0  0  0  0
   -0.7463   -0.2107    1.9544 H   0  0  0  0  0  0  0  0  0  0  0  0
    0.8611    0.2936    3.2754 C   0  0  0  0  0  0  0  0  0  0  0  0
    1.5627    1.1278    3.1688 H   0  0  0  0  0  0  0  0  0  0  0  0
    0.0927    0.5809    3.9992 H   0  0  0  0  0  0  0  0  0  0  0  0
    1.4025   -0.5736    3.6680 H   0  0  0  0  0  0  0  0  0  0  0  0
  1  2  1  0  0  0  0
  2  3  1  0  0  0  0
  2  4  1  0  0  0  0
  2  5  1  0  0  0  0
  5  6  2  0  0  0  0
  5  7  1  0  0  0  0
  7  8  1  0  0  0  0
  7  9  1  0  0  0  0
  9 10  1  0  0  0  0
  9 11  1  0  0  0  0
  9 24  1  0  0  0  0
 11 12  1  0  0  0  0
 11 13  1  0  0  0  0
 11 17  1  0  0  0  0
 13 14  1  0  0  0  0
 13 15  1  0  0  0  0
 13 16  1  0  0  0  0
 17 18  1  0  0  0  0
 17 19  1  0  0  0  0
 17 20  1  0  0  0  0
 20 21  1  0  0  0  0
 20 22  1  0  0  0  0
 20 23  1  0  0  0  0
 24 25  2  0  0  0  0
 24 26  1  0  0  0  0
 26 27  1  0  0  0  0
 26 28  1  0  0  0  0
 28 29  1  0  0  0  0
 28 30  1  0  0  0  0
 28 31  1  0  0  0  0
M  END
$$$$

  -OEChem-03222214053D

 31 30  0     1  0  0  0  0  0999 V2000
   -1.7675   -4.7746    0.4662 H   0  0  0  0  0  0  0  0  0  0  0  0
   -2.0152   -3.7823    0.0784 C   0  0  0  0  0  0  0  0  0  0  0  0
   -2.7984   -3.3465    0.7032 H   0  0  0  0  0  0  0  0  0  0  0  0
   -2.3876   -3.8875   -0.9435 H   0  0  0  0  0  0  0  0  0  0  0  0
   -0.7848   -2.8950    0.0925 C   0  0  0  0  0  0  0  0  0  0  0  0
    0.2815   -3.3450    0.4698 O   0  0  0  0  0  0  0  0  0  0  0  0
   -0.8864   -1.5838   -0.3298 N   0  0  0  0  0  0  0  0  0  0  0  0
   -1.7761   -1.3101   -0.7276 H   0  0  0  0  0  0  0  0  0  0  0  0
    0.2541   -0.6660   -0.4937 C   0  0  1  0  0  0  0  0  0  0  0  0
    0.9541   -1.2008   -1.1459 H   0  0  0  0  0  0  0  0  0  0  0  0
   -0.0472    0.7346   -1.1527 C   0  0  1  0  0  0  0  0  0  0  0  0
    0.2479    1.4973   -0.4225 H   0  0  0  0  0  0  0  0  0  0  0  0
    0.9195    0.8939   -2.3416 C   0  0  0  0  0  0  0  0  0  0  0  0
    0.6581    0.1987   -3.1458 H   0  0  0  0  0  0  0  0  0  0  0  0
    0.8847    1.9145   -2.7360 H   0  0  0  0  0  0  0  0  0  0  0  0
    1.9504    0.6957   -2.0293 H   0  0  0  0  0  0  0  0  0  0  0  0
   -1.4721    1.1853   -1.6327 C   0  0  0  0  0  0  0  0  0  0  0  0
   -1.8306    1.9282   -0.9123 H   0  0  0  0  0  0  0  0  0  0  0  0
   -1.3721    1.7132   -2.5870 H   0  0  0  0  0  0  0  0  0  0  0  0
   -2.6086    0.1759   -1.8094 C   0  0  0  0  0  0  0  0  0  0  0  0
   -3.4468    0.6575   -2.3227 H   0  0  0  0  0  0  0  0  0  0  0  0
   -2.2829   -0.6732   -2.4187 H   0  0  0  0  0  0  0  0  0  0  0  0
   -2.9779   -0.1732   -0.8409 H   0  0  0  0  0  0  0  0  0  0  0  0
    1.0367   -0.4379    0.8218 C   0  0  0  0  0  0  0  0  0  0  0  0
    2.2451   -0.2442    0.7865 O   0  0  0  0  0  0  0  0  0  0  0  0
    0.3533   -0.2022    2.0012 N   0  0  0  0  0  0  0  0  0  0  0  0
   -0.6302   -0.4496    2.0040 H   0  0  0  0  0  0  0  0  0  0  0  0
    1.0277    0.0156    3.2745 C   0  0  0  0  0  0  0  0  0  0  0  0
    1.6987    0.8789    3.2113 H   0  0  0  0  0  0  0  0  0  0  0  0
    0.2943    0.2079    4.0633 H   0  0  0  0  0  0  0  0  0  0  0  0
    1.6140   -0.8670    3.5513 H   0  0  0  0  0  0  0  0  0  0  0  0
  1  2  1  0  0  0  0
  2  3  1  0  0  0  0
  2  4  1  0  0  0  0
  2  5  1  0  0  0  0
  5  6  2  0  0  0  0
  5  7  1  0  0  0  0
  7  8  1  0  0  0  0
  7  9  1  0  0  0  0
  9 10  1  0  0  0  0
  9 11  1  0  0  0  0
  9 24  1  0  0  0  0
 11 12  1  0  0  0  0
 11 13  1  0  0  0  0
 11 17  1  0  0  0  0
 13 14  1  0  0  0  0
 13 15  1  0  0  0  0
 13 16  1  0  0  0  0
 17 18  1  0  0  0  0
 17 19  1  0  0  0  0
 17 20  1  0  0  0  0
 20 21  1  0  0  0  0
 20 22  1  0  0  0  0
 20 23  1  0  0  0  0
 24 25  2  0  0  0  0
 24 26  1  0  0  0  0
 26 27  1  0  0  0  0
 26 28  1  0  0  0  0
 28 29  1  0  0  0  0
 28 30  1  0  0  0  0
 28 31  1  0  0  0  0
M  END
$$$$

  -OEChem-03222214053D

 31 30  0     1  0  0  0  0  0999 V2000
   -2.1348   -4.6338    0.6010 H   0  0  0  0  0  0  0  0  0  0  0  0
   -2.2935   -3.6303    0.1954 C   0  0  0  0  0  0  0  0  0  0  0  0
   -3.0360   -3.1160    0.8102 H   0  0  0  0  0  0  0  0  0  0  0  0
   -2.6739   -3.7206   -0.8250 H   0  0  0  0  0  0  0  0  0  0  0  0
   -0.9893   -2.8548    0.1971 C   0  0  0  0  0  0  0  0  0  0  0  0
    0.0238   -3.3736    0.6290 O   0  0  0  0  0  0  0  0  0  0  0  0
   -0.9649   -1.5641   -0.2935 N   0  0  0  0  0  0  0  0  0  0  0  0
   -1.8232   -1.2255   -0.7107 H   0  0  0  0  0  0  0  0  0  0  0  0
    0.2498   -0.7448   -0.4454 C   0  0  1  0  0  0  0  0  0  0  0  0
    0.9352   -1.3669   -1.0324 H   0  0  0  0  0  0  0  0  0  0  0  0
    0.0976    0.6316   -1.1999 C   0  0  1  0  0  0  0  0  0  0  0  0
    0.3878    1.4015   -0.4754 H   0  0  0  0  0  0  0  0  0  0  0  0
    1.1620    0.6817   -2.3112 C   0  0  0  0  0  0  0  0  0  0  0  0
    0.9355   -0.0478   -3.0954 H   0  0  0  0  0  0  0  0  0  0  0  0
    1.2029    1.6787   -2.7615 H   0  0  0  0  0  0  0  0  0  0  0  0
    2.1537    0.4588   -1.9032 H   0  0  0  0  0  0  0  0  0  0  0  0
   -1.2532    1.1718   -1.7915 C   0  0  0  0  0  0  0  0  0  0  0  0
   -1.4363    2.1476   -1.3290 H   0  0  0  0  0  0  0  0  0  0  0  0
   -1.1153    1.3621   -2.8611 H   0  0  0  0  0  0  0  0  0  0  0  0
   -2.5556    0.3785   -1.6738 C   0  0  0  0  0  0  0  0  0  0  0  0
   -2.8251    0.2244   -0.6246 H   0  0  0  0  0  0  0  0  0  0  0  0
   -3.3683    0.9393   -2.1460 H   0  0  0  0  0  0  0  0  0  0  0  0
   -2.4733   -0.5834   -2.1891 H   0  0  0  0  0  0  0  0  0  0  0  0
    0.9856   -0.5072    0.8954 C   0  0  0  0  0  0  0  0  0  0  0  0
    2.2056   -0.4052    0.9116 O   0  0  0  0  0  0  0  0  0  0  0  0
    0.2687   -0.1587    2.0260 N   0  0  0  0  0  0  0  0  0  0  0  0
   -0.7300   -0.3315    1.9928 H   0  0  0  0  0  0  0  0  0  0  0  0
    0.9000    0.0805    3.3176 C   0  0  0  0  0  0  0  0  0  0  0  0
    1.6302    0.8932    3.2435 H   0  0  0  0  0  0  0  0  0  0  0  0
    0.1475    0.3613    4.0603 H   0  0  0  0  0  0  0  0  0  0  0  0
    1.4127   -0.8227    3.6652 H   0  0  0  0  0  0  0  0  0  0  0  0
  1  2  1  0  0  0  0
  2  3  1  0  0  0  0
  2  4  1  0  0  0  0
  2  5  1  0  0  0  0
  5  6  2  0  0  0  0
  5  7  1  0  0  0  0
  7  8  1  0  0  0  0
  7  9  1  0  0  0  0
  9 10  1  0  0  0  0
  9 11  1  0  0  0  0
  9 24  1  0  0  0  0
 11 12  1  0  0  0  0
 11 13  1  0  0  0  0
 11 17  1  0  0  0  0
 13 14  1  0  0  0  0
 13 15  1  0  0  0  0
 13 16  1  0  0  0  0
 17 18  1  0  0  0  0
 17 19  1  0  0  0  0
 17 20  1  0  0  0  0
 20 21  1  0  0  0  0
 20 22  1  0  0  0  0
 20 23  1  0  0  0  0
 24 25  2  0  0  0  0
 24 26  1  0  0  0  0
 26 27  1  0  0  0  0
 26 28  1  0  0  0  0
 28 29  1  0  0  0  0
 28 30  1  0  0  0  0
 28 31  1  0  0  0  0
M  END
$$$$

  -OEChem-03222214053D

 31 30  0     1  0  0  0  0  0999 V2000
   -2.0693   -4.6164    0.7808 H   0  0  0  0  0  0  0  0  0  0  0  0
   -2.2373   -3.6412    0.3149 C   0  0  0  0  0  0  0  0  0  0  0  0
   -2.9970   -3.1044    0.8880 H   0  0  0  0  0  0  0  0  0  0  0  0
   -2.5994   -3.7966   -0.7042 H   0  0  0  0  0  0  0  0  0  0  0  0
   -0.9456   -2.8457    0.2912 C   0  0  0  0  0  0  0  0  0  0  0  0
    0.0701   -3.3263    0.7594 O   0  0  0  0  0  0  0  0  0  0  0  0
   -0.9346   -1.5797   -0.2608 N   0  0  0  0  0  0  0  0  0  0  0  0
   -1.7928   -1.2706   -0.6997 H   0  0  0  0  0  0  0  0  0  0  0  0
    0.2669   -0.7428   -0.4195 C   0  0  1  0  0  0  0  0  0  0  0  0
    0.9821   -1.3729   -0.9605 H   0  0  0  0  0  0  0  0  0  0  0  0
    0.0997    0.5907   -1.2411 C   0  0  1  0  0  0  0  0  0  0  0  0
    0.3396    1.3972   -0.5383 H   0  0  0  0  0  0  0  0  0  0  0  0
    1.1892    0.6358   -2.3259 C   0  0  0  0  0  0  0  0  0  0  0  0
    1.0245   -0.1481   -3.0720 H   0  0  0  0  0  0  0  0  0  0  0  0
    1.1871    1.6062   -2.8325 H   0  0  0  0  0  0  0  0  0  0  0  0
    2.1792    0.4902   -1.8809 H   0  0  0  0  0  0  0  0  0  0  0  0
   -1.2486    1.0630   -1.8843 C   0  0  0  0  0  0  0  0  0  0  0  0
   -1.3279    2.1399   -1.7011 H   0  0  0  0  0  0  0  0  0  0  0  0
   -1.1791    0.9372   -2.9701 H   0  0  0  0  0  0  0  0  0  0  0  0
   -2.5833    0.4360   -1.4758 C   0  0  0  0  0  0  0  0  0  0  0  0
   -2.6848    0.4110   -0.3864 H   0  0  0  0  0  0  0  0  0  0  0  0
   -3.4056    1.0372   -1.8764 H   0  0  0  0  0  0  0  0  0  0  0  0
   -2.6858   -0.5717   -1.8888 H   0  0  0  0  0  0  0  0  0  0  0  0
    0.9597   -0.4255    0.9276 C   0  0  0  0  0  0  0  0  0  0  0  0
    2.1762   -0.2957    0.9728 O   0  0  0  0  0  0  0  0  0  0  0  0
    0.2027   -0.0390    2.0191 N   0  0  0  0  0  0  0  0  0  0  0  0
   -0.7922   -0.2277    1.9644 H   0  0  0  0  0  0  0  0  0  0  0  0
    0.7893    0.2831    3.3134 C   0  0  0  0  0  0  0  0  0  0  0  0
    1.4953    1.1149    3.2185 H   0  0  0  0  0  0  0  0  0  0  0  0
    0.0079    0.5746    4.0214 H   0  0  0  0  0  0  0  0  0  0  0  0
    1.3198   -0.5853    3.7181 H   0  0  0  0  0  0  0  0  0  0  0  0
  1  2  1  0  0  0  0
  2  3  1  0  0  0  0
  2  4  1  0  0  0  0
  2  5  1  0  0  0  0
  5  6  2  0  0  0  0
  5  7  1  0  0  0  0
  7  8  1  0  0  0  0
  7  9  1  0  0  0  0
  9 10  1  0  0  0  0
  9 11  1  0  0  0  0
  9 24  1  0  0  0  0
 11 12  1  0  0  0  0
 11 13  1  0  0  0  0
 11 17  1  0  0  0  0
 13 14  1  0  0  0  0
 13 15  1  0  0  0  0
 13 16  1  0  0  0  0
 17 18  1  0  0  0  0
 17 19  1  0  0  0  0
 17 20  1  0  0  0  0
 20 21  1  0  0  0  0
 20 22  1  0  0  0  0
 20 23  1  0  0  0  0
 24 25  2  0  0  0  0
 24 26  1  0  0  0  0
 26 27  1  0  0  0  0
 26 28  1  0  0  0  0
 28 29  1  0  0  0  0
 28 30  1  0  0  0  0
 28 31  1  0  0  0  0
M  END
$$$$

  -OEChem-03222214053D

 31 30  0     1  0  0  0  0  0999 V2000
   -1.8854   -4.7077    0.4969 H   0  0  0  0  0  0  0  0  0  0  0  0
   -2.1002   -3.7160    0.0886 C   0  0  0  0  0  0  0  0  0  0  0  0
   -2.8825   -3.2497    0.6921 H   0  0  0  0  0  0  0  0  0  0  0  0
   -2.4583   -3.8286   -0.9374 H   0  0  0  0  0  0  0  0  0  0  0  0
   -0.8479   -2.8600    0.1099 C   0  0  0  0  0  0  0  0  0  0  0  0
    0.2009   -3.3316    0.5094 O   0  0  0  0  0  0  0  0  0  0  0  0
   -0.9121   -1.5512   -0.3266 N   0  0  0  0  0  0  0  0  0  0  0  0
   -1.7815   -1.2701   -0.7630 H   0  0  0  0  0  0  0  0  0  0  0  0
    0.2545   -0.6715   -0.5081 C   0  0  1  0  0  0  0  0  0  0  0  0
    0.9348   -1.2192   -1.1703 H   0  0  0  0  0  0  0  0  0  0  0  0
   -0.0418    0.7239   -1.1696 C   0  0  1  0  0  0  0  0  0  0  0  0
    0.2438    1.4748   -0.4237 H   0  0  0  0  0  0  0  0  0  0  0  0
    0.9045    0.9175   -2.3646 C   0  0  0  0  0  0  0  0  0  0  0  0
    0.6832    0.1929   -3.1547 H   0  0  0  0  0  0  0  0  0  0  0  0
    0.8008    1.9260   -2.7771 H   0  0  0  0  0  0  0  0  0  0  0  0
    1.9457    0.7848   -2.0522 H   0  0  0  0  0  0  0  0  0  0  0  0
   -1.4719    1.1700   -1.6106 C   0  0  0  0  0  0  0  0  0  0  0  0
   -1.4935    2.2642   -1.5642 H   0  0  0  0  0  0  0  0  0  0  0  0
   -1.6169    0.8957   -2.6609 H   0  0  0  0  0  0  0  0  0  0  0  0
   -2.6988    0.6513   -0.8517 C   0  0  0  0  0  0  0  0  0  0  0  0
   -2.4993    0.6063    0.2235 H   0  0  0  0  0  0  0  0  0  0  0  0
   -3.0086   -0.3317   -1.2151 H   0  0  0  0  0  0  0  0  0  0  0  0
   -3.5401    1.3328   -1.0122 H   0  0  0  0  0  0  0  0  0  0  0  0
    1.0560   -0.4506    0.7969 C   0  0  0  0  0  0  0  0  0  0  0  0
    2.2684   -0.2879    0.7473 O   0  0  0  0  0  0  0  0  0  0  0  0
    0.3884   -0.1797    1.9777 N   0  0  0  0  0  0  0  0  0  0  0  0
   -0.6006   -0.4045    1.9916 H   0  0  0  0  0  0  0  0  0  0  0  0
    1.0784    0.0397    3.2419 C   0  0  0  0  0  0  0  0  0  0  0  0
    1.7625    0.8911    3.1634 H   0  0  0  0  0  0  0  0  0  0  0  0
    0.3559    0.2517    4.0356 H   0  0  0  0  0  0  0  0  0  0  0  0
    1.6531   -0.8493    3.5222 H   0  0  0  0  0  0  0  0  0  0  0  0
  1  2  1  0  0  0  0
  2  3  1  0  0  0  0
  2  4  1  0  0  0  0
  2  5  1  0  0  0  0
  5  6  2  0  0  0  0
  5  7  1  0  0  0  0
  7  8  1  0  0  0  0
  7  9  1  0  0  0  0
  9 10  1  0  0  0  0
  9 11  1  0  0  0  0
  9 24  1  0  0  0  0
 11 12  1  0  0  0  0
 11 13  1  0  0  0  0
 11 17  1  0  0  0  0
 13 14  1  0  0  0  0
 13 15  1  0  0  0  0
 13 16  1  0  0  0  0
 17 18  1  0  0  0  0
 17 19  1  0  0  0  0
 17 20  1  0  0  0  0
 20 21  1  0  0  0  0
 20 22  1  0  0  0  0
 20 23  1  0  0  0  0
 24 25  2  0  0  0  0
 24 26  1  0  0  0  0
 26 27  1  0  0  0  0
 26 28  1  0  0  0  0
 28 29  1  0  0  0  0
 28 30  1  0  0  0  0
 28 31  1  0  0  0  0
M  END
$$$$

  -OEChem-03222214053D

 31 30  0     1  0  0  0  0  0999 V2000
   -2.2269   -4.5594    0.4315 H   0  0  0  0  0  0  0  0  0  0  0  0
   -2.3486   -3.5501    0.0277 C   0  0  0  0  0  0  0  0  0  0  0  0
   -3.1232   -3.0338    0.5997 H   0  0  0  0  0  0  0  0  0  0  0  0
   -2.6633   -3.6256   -1.0160 H   0  0  0  0  0  0  0  0  0  0  0  0
   -1.0394   -2.7893    0.1218 C   0  0  0  0  0  0  0  0  0  0  0  0
   -0.0623   -3.3252    0.6117 O   0  0  0  0  0  0  0  0  0  0  0  0
   -0.9694   -1.4930   -0.3499 N   0  0  0  0  0  0  0  0  0  0  0  0
   -1.7766   -1.1616   -0.8660 H   0  0  0  0  0  0  0  0  0  0  0  0
    0.2745   -0.7135   -0.4690 C   0  0  1  0  0  0  0  0  0  0  0  0
    0.9546   -1.3221   -1.0761 H   0  0  0  0  0  0  0  0  0  0  0  0
    0.1044    0.6798   -1.1698 C   0  0  1  0  0  0  0  0  0  0  0  0
    0.4092    1.4403   -0.4416 H   0  0  0  0  0  0  0  0  0  0  0  0
    1.0917    0.7704   -2.3433 C   0  0  0  0  0  0  0  0  0  0  0  0
    0.8445    0.0343   -3.1149 H   0  0  0  0  0  0  0  0  0  0  0  0
    1.0648    1.7681   -2.7926 H   0  0  0  0  0  0  0  0  0  0  0  0
    2.1133    0.5824   -1.9965 H   0  0  0  0  0  0  0  0  0  0  0  0
   -1.2870    1.1572   -1.6774 C   0  0  0  0  0  0  0  0  0  0  0  0
   -1.2025    2.2261   -1.9009 H   0  0  0  0  0  0  0  0  0  0  0  0
   -1.5198    0.6496   -2.6193 H   0  0  0  0  0  0  0  0  0  0  0  0
   -2.4868    0.9711   -0.7367 C   0  0  0  0  0  0  0  0  0  0  0  0
   -2.1822    1.1010    0.3065 H   0  0  0  0  0  0  0  0  0  0  0  0
   -3.2483    1.7231   -0.9655 H   0  0  0  0  0  0  0  0  0  0  0  0
   -2.9559   -0.0073   -0.8602 H   0  0  0  0  0  0  0  0  0  0  0  0
    1.0047   -0.5135    0.8799 C   0  0  0  0  0  0  0  0  0  0  0  0
    2.2267   -0.4457    0.9059 O   0  0  0  0  0  0  0  0  0  0  0  0
    0.2865   -0.1534    2.0058 N   0  0  0  0  0  0  0  0  0  0  0  0
   -0.7155   -0.3041    1.9616 H   0  0  0  0  0  0  0  0  0  0  0  0
    0.9098    0.0583    3.3057 C   0  0  0  0  0  0  0  0  0  0  0  0
    1.6595    0.8544    3.2470 H   0  0  0  0  0  0  0  0  0  0  0  0
    0.1563    0.3495    4.0435 H   0  0  0  0  0  0  0  0  0  0  0  0
    1.3973   -0.8602    3.6491 H   0  0  0  0  0  0  0  0  0  0  0  0
  1  2  1  0  0  0  0
  2  3  1  0  0  0  0
  2  4  1  0  0  0  0
  2  5  1  0  0  0  0
  5  6  2  0  0  0  0
  5  7  1  0  0  0  0
  7  8  1  0  0  0  0
  7  9  1  0  0  0  0
  9 10  1  0  0  0  0
  9 11  1  0  0  0  0
  9 24  1  0  0  0  0
 11 12  1  0  0  0  0
 11 13  1  0  0  0  0
 11 17  1  0  0  0  0
 13 14  1  0  0  0  0
 13 15  1  0  0  0  0
 13 16  1  0  0  0  0
 17 18  1  0  0  0  0
 17 19  1  0  0  0  0
 17 20  1  0  0  0  0
 20 21  1  0  0  0  0
 20 22  1  0  0  0  0
 20 23  1  0  0  0  0
 24 25  2  0  0  0  0
 24 26  1  0  0  0  0
 26 27  1  0  0  0  0
 26 28  1  0  0  0  0
 28 29  1  0  0  0  0
 28 30  1  0  0  0  0
 28 31  1  0  0  0  0
M  END
$$$$

  -OEChem-03222214053D

 31 30  0     1  0  0  0  0  0999 V2000
   -2.3196   -4.4847    0.4382 H   0  0  0  0  0  0  0  0  0  0  0  0
   -2.4119   -3.4759    0.0254 C   0  0  0  0  0  0  0  0  0  0  0  0
   -3.1723   -2.9327    0.5914 H   0  0  0  0  0  0  0  0  0  0  0  0
   -2.7266   -3.5514   -1.0182 H   0  0  0  0  0  0  0  0  0  0  0  0
   -1.0818   -2.7522    0.1154 C   0  0  0  0  0  0  0  0  0  0  0  0
   -0.1223   -3.3089    0.6165 O   0  0  0  0  0  0  0  0  0  0  0  0
   -0.9722   -1.4644   -0.3710 N   0  0  0  0  0  0  0  0  0  0  0  0
   -1.7756   -1.1001   -0.8731 H   0  0  0  0  0  0  0  0  0  0  0  0
    0.2900   -0.7101   -0.4675 C   0  0  1  0  0  0  0  0  0  0  0  0
    0.9750   -1.3339   -1.0530 H   0  0  0  0  0  0  0  0  0  0  0  0
    0.1409    0.6749   -1.1827 C   0  0  1  0  0  0  0  0  0  0  0  0
    0.4546    1.4534   -0.4775 H   0  0  0  0  0  0  0  0  0  0  0  0
    1.1176    0.7257   -2.3676 C   0  0  0  0  0  0  0  0  0  0  0  0
    0.8501   -0.0210   -3.1220 H   0  0  0  0  0  0  0  0  0  0  0  0
    1.1040    1.7144   -2.8367 H   0  0  0  0  0  0  0  0  0  0  0  0
    2.1394    0.5273   -2.0271 H   0  0  0  0  0  0  0  0  0  0  0  0
   -1.2591    1.1059   -1.6958 C   0  0  0  0  0  0  0  0  0  0  0  0
   -1.1582    2.0889   -2.1684 H   0  0  0  0  0  0  0  0  0  0  0  0
   -1.5986    0.4082   -2.4683 H   0  0  0  0  0  0  0  0  0  0  0  0
   -2.3478    1.2230   -0.6161 C   0  0  0  0  0  0  0  0  0  0  0  0
   -1.9563    1.7501    0.2597 H   0  0  0  0  0  0  0  0  0  0  0  0
   -3.1907    1.7976   -1.0125 H   0  0  0  0  0  0  0  0  0  0  0  0
   -2.7379    0.2560   -0.2973 H   0  0  0  0  0  0  0  0  0  0  0  0
    0.9913   -0.5030    0.8949 C   0  0  0  0  0  0  0  0  0  0  0  0
    2.2134   -0.4575    0.9500 O   0  0  0  0  0  0  0  0  0  0  0  0
    0.2531   -0.1122    1.9975 N   0  0  0  0  0  0  0  0  0  0  0  0
   -0.7514   -0.2351    1.9293 H   0  0  0  0  0  0  0  0  0  0  0  0
    0.8484    0.1149    3.3079 C   0  0  0  0  0  0  0  0  0  0  0  0
    1.6089    0.9010    3.2533 H   0  0  0  0  0  0  0  0  0  0  0  0
    0.0815    0.4279    4.0226 H   0  0  0  0  0  0  0  0  0  0  0  0
    1.3166   -0.8029    3.6788 H   0  0  0  0  0  0  0  0  0  0  0  0
  1  2  1  0  0  0  0
  2  3  1  0  0  0  0
  2  4  1  0  0  0  0
  2  5  1  0  0  0  0
  5  6  2  0  0  0  0
  5  7  1  0  0  0  0
  7  8  1  0  0  0  0
  7  9  1  0  0  0  0
  9 10  1  0  0  0  0
  9 11  1  0  0  0  0
  9 24  1  0  0  0  0
 11 12  1  0  0  0  0
 11 13  1  0  0  0  0
 11 17  1  0  0  0  0
 13 14  1  0  0  0  0
 13 15  1  0  0  0  0
 13 16  1  0  0  0  0
 17 18  1  0  0  0  0
 17 19  1  0  0  0  0
 17 20  1  0  0  0  0
 20 21  1  0  0  0  0
 20 22  1  0  0  0  0
 20 23  1  0  0  0  0
 24 25  2  0  0  0  0
 24 26  1  0  0  0  0
 26 27  1  0  0  0  0
 26 28  1  0  0  0  0
 28 29  1  0  0  0  0
 28 30  1  0  0  0  0
 28 31  1  0  0  0  0
M  END
$$$$

  -OEChem-03222214053D

 31 30  0     1  0  0  0  0  0999 V2000
   -2.3764   -4.4342    0.4011 H   0  0  0  0  0  0  0  0  0  0  0  0
   -2.4563   -3.4171    0.0065 C   0  0  0  0  0  0  0  0  0  0  0  0
   -3.1893   -2.8661    0.6005 H   0  0  0  0  0  0  0  0  0  0  0  0
   -2.7999   -3.4690   -1.0295 H   0  0  0  0  0  0  0  0  0  0  0  0
   -1.1080   -2.7246    0.0726 C   0  0  0  0  0  0  0  0  0  0  0  0
   -0.1495   -3.3075    0.5452 O   0  0  0  0  0  0  0  0  0  0  0  0
   -0.9784   -1.4350   -0.4033 N   0  0  0  0  0  0  0  0  0  0  0  0
   -1.7964   -1.0229   -0.8412 H   0  0  0  0  0  0  0  0  0  0  0  0
    0.2941   -0.6889   -0.4757 C   0  0  1  0  0  0  0  0  0  0  0  0
    0.9829   -1.3148   -1.0548 H   0  0  0  0  0  0  0  0  0  0  0  0
    0.1562    0.6963   -1.1906 C   0  0  1  0  0  0  0  0  0  0  0  0
    0.4689    1.4856   -0.4968 H   0  0  0  0  0  0  0  0  0  0  0  0
    1.1274    0.7339   -2.3802 C   0  0  0  0  0  0  0  0  0  0  0  0
    0.8519   -0.0161   -3.1286 H   0  0  0  0  0  0  0  0  0  0  0  0
    1.1180    1.7199   -2.8551 H   0  0  0  0  0  0  0  0  0  0  0  0
    2.1495    0.5317   -2.0425 H   0  0  0  0  0  0  0  0  0  0  0  0
   -1.2576    1.0693   -1.7013 C   0  0  0  0  0  0  0  0  0  0  0  0
   -1.1770    1.9198   -2.3866 H   0  0  0  0  0  0  0  0  0  0  0  0
   -1.6904    0.2423   -2.2729 H   0  0  0  0  0  0  0  0  0  0  0  0
   -2.2004    1.4850   -0.5648 C   0  0  0  0  0  0  0  0  0  0  0  0
   -1.7894    2.3475   -0.0308 H   0  0  0  0  0  0  0  0  0  0  0  0
   -3.1748    1.7672   -0.9753 H   0  0  0  0  0  0  0  0  0  0  0  0
   -2.3530    0.6770    0.1544 H   0  0  0  0  0  0  0  0  0  0  0  0
    0.9806   -0.4929    0.8951 C   0  0  0  0  0  0  0  0  0  0  0  0
    2.2021   -0.4573    0.9643 O   0  0  0  0  0  0  0  0  0  0  0  0
    0.2339   -0.1009    1.9917 N   0  0  0  0  0  0  0  0  0  0  0  0
   -0.7710   -0.2113    1.9125 H   0  0  0  0  0  0  0  0  0  0  0  0
    0.8175    0.1178    3.3090 C   0  0  0  0  0  0  0  0  0  0  0  0
    1.5843    0.8986    3.2647 H   0  0  0  0  0  0  0  0  0  0  0  0
    0.0456    0.4341    4.0169 H   0  0  0  0  0  0  0  0  0  0  0  0
    1.2751   -0.8048    3.6816 H   0  0  0  0  0  0  0  0  0  0  0  0
  1  2  1  0  0  0  0
  2  3  1  0  0  0  0
  2  4  1  0  0  0  0
  2  5  1  0  0  0  0
  5  6  2  0  0  0  0
  5  7  1  0  0  0  0
  7  8  1  0  0  0  0
  7  9  1  0  0  0  0
  9 10  1  0  0  0  0
  9 11  1  0  0  0  0
  9 24  1  0  0  0  0
 11 12  1  0  0  0  0
 11 13  1  0  0  0  0
 11 17  1  0  0  0  0
 13 14  1  0  0  0  0
 13 15  1  0  0  0  0
 13 16  1  0  0  0  0
 17 18  1  0  0  0  0
 17 19  1  0  0  0  0
 17 20  1  0  0  0  0
 20 21  1  0  0  0  0
 20 22  1  0  0  0  0
 20 23  1  0  0  0  0
 24 25  2  0  0  0  0
 24 26  1  0  0  0  0
 26 27  1  0  0  0  0
 26 28  1  0  0  0  0
 28 29  1  0  0  0  0
 28 30  1  0  0  0  0
 28 31  1  0  0  0  0
M  END
$$$$

  -OEChem-03222214053D

 31 30  0     1  0  0  0  0  0999 V2000
   -2.3707   -4.4337    0.4128 H   0  0  0  0  0  0  0  0  0  0  0  0
   -2.4572   -3.4148    0.0247 C   0  0  0  0  0  0  0  0  0  0  0  0
   -3.1732   -2.8641    0.6394 H   0  0  0  0  0  0  0  0  0  0  0  0
   -2.8268   -3.4612   -1.0025 H   0  0  0  0  0  0  0  0  0  0  0  0
   -1.1053   -2.7270    0.0594 C   0  0  0  0  0  0  0  0  0  0  0  0
   -0.1370   -3.3146    0.5057 O   0  0  0  0  0  0  0  0  0  0  0  0
   -0.9837   -1.4354   -0.4132 N   0  0  0  0  0  0  0  0  0  0  0  0
   -1.8170   -1.0079   -0.8037 H   0  0  0  0  0  0  0  0  0  0  0  0
    0.2849   -0.6814   -0.4820 C   0  0  1  0  0  0  0  0  0  0  0  0
    0.9772   -1.3058   -1.0584 H   0  0  0  0  0  0  0  0  0  0  0  0
    0.1496    0.7044   -1.1976 C   0  0  1  0  0  0  0  0  0  0  0  0
    0.4678    1.4952   -0.5082 H   0  0  0  0  0  0  0  0  0  0  0  0
    1.1287    0.7342   -2.3823 C   0  0  0  0  0  0  0  0  0  0  0  0
    0.8490   -0.0106   -3.1343 H   0  0  0  0  0  0  0  0  0  0  0  0
    1.1339    1.7219   -2.8539 H   0  0  0  0  0  0  0  0  0  0  0  0
    2.1469    0.5201   -2.0401 H   0  0  0  0  0  0  0  0  0  0  0  0
   -1.2670    1.0666   -1.7173 C   0  0  0  0  0  0  0  0  0  0  0  0
   -1.1719    1.7491   -2.5685 H   0  0  0  0  0  0  0  0  0  0  0  0
   -1.8072    0.1934   -2.0919 H   0  0  0  0  0  0  0  0  0  0  0  0
   -2.0763    1.8062   -0.6501 C   0  0  0  0  0  0  0  0  0  0  0  0
   -1.5684    2.7292   -0.3527 H   0  0  0  0  0  0  0  0  0  0  0  0
   -3.0642    2.0671   -1.0417 H   0  0  0  0  0  0  0  0  0  0  0  0
   -2.2083    1.1786    0.2363 H   0  0  0  0  0  0  0  0  0  0  0  0
    0.9673   -0.4854    0.8907 C   0  0  0  0  0  0  0  0  0  0  0  0
    2.1884   -0.4423    0.9627 O   0  0  0  0  0  0  0  0  0  0  0  0
    0.2167   -0.1009    1.9872 N   0  0  0  0  0  0  0  0  0  0  0  0
   -0.7877   -0.2128    1.9061 H   0  0  0  0  0  0  0  0  0  0  0  0
    0.7975    0.1209    3.3053 C   0  0  0  0  0  0  0  0  0  0  0  0
    1.5567    0.9089    3.2624 H   0  0  0  0  0  0  0  0  0  0  0  0
    0.0223    0.4284    4.0136 H   0  0  0  0  0  0  0  0  0  0  0  0
    1.2636   -0.7980    3.6765 H   0  0  0  0  0  0  0  0  0  0  0  0
  1  2  1  0  0  0  0
  2  3  1  0  0  0  0
  2  4  1  0  0  0  0
  2  5  1  0  0  0  0
  5  6  2  0  0  0  0
  5  7  1  0  0  0  0
  7  8  1  0  0  0  0
  7  9  1  0  0  0  0
  9 10  1  0  0  0  0
  9 11  1  0  0  0  0
  9 24  1  0  0  0  0
 11 12  1  0  0  0  0
 11 13  1  0  0  0  0
 11 17  1  0  0  0  0
 13 14  1  0  0  0  0
 13 15  1  0  0  0  0
 13 16  1  0  0  0  0
 17 18  1  0  0  0  0
 17 19  1  0  0  0  0
 17 20  1  0  0  0  0
 20 21  1  0  0  0  0
 20 22  1  0  0  0  0
 20 23  1  0  0  0  0
 24 25  2  0  0  0  0
 24 26  1  0  0  0  0
 26 27  1  0  0  0  0
 26 28  1  0  0  0  0
 28 29  1  0  0  0  0
 28 30  1  0  0  0  0
 28 31  1  0  0  0  0
M  END
$$$$

  -OEChem-03222214053D

 31 30  0     1  0  0  0  0  0999 V2000
   -2.3393   -4.4682    0.4312 H   0  0  0  0  0  0  0  0  0  0  0  0
   -2.4428   -3.4485    0.0494 C   0  0  0  0  0  0  0  0  0  0  0  0
   -3.1565   -2.9093    0.6766 H   0  0  0  0  0  0  0  0  0  0  0  0
   -2.8262   -3.4943   -0.9727 H   0  0  0  0  0  0  0  0  0  0  0  0
   -1.0984   -2.7452    0.0679 C   0  0  0  0  0  0  0  0  0  0  0  0
   -0.1180   -3.3231    0.5003 O   0  0  0  0  0  0  0  0  0  0  0  0
   -0.9974   -1.4515   -0.4048 N   0  0  0  0  0  0  0  0  0  0  0  0
   -1.8427   -1.0333   -0.7779 H   0  0  0  0  0  0  0  0  0  0  0  0
    0.2614   -0.6820   -0.4846 C   0  0  1  0  0  0  0  0  0  0  0  0
    0.9546   -1.3047   -1.0617 H   0  0  0  0  0  0  0  0  0  0  0  0
    0.1269    0.7035   -1.2054 C   0  0  1  0  0  0  0  0  0  0  0  0
    0.4461    1.4876   -0.5086 H   0  0  0  0  0  0  0  0  0  0  0  0
    1.1253    0.7367   -2.3746 C   0  0  0  0  0  0  0  0  0  0  0  0
    0.8562   -0.0040   -3.1346 H   0  0  0  0  0  0  0  0  0  0  0  0
    1.1393    1.7272   -2.8406 H   0  0  0  0  0  0  0  0  0  0  0  0
    2.1377    0.5194   -2.0175 H   0  0  0  0  0  0  0  0  0  0  0  0
   -1.2838    1.0908   -1.7402 C   0  0  0  0  0  0  0  0  0  0  0  0
   -1.1837    1.5408   -2.7337 H   0  0  0  0  0  0  0  0  0  0  0  0
   -1.9461    0.2347   -1.8738 H   0  0  0  0  0  0  0  0  0  0  0  0
   -1.9423    2.1420   -0.8456 C   0  0  0  0  0  0  0  0  0  0  0  0
   -1.3255    3.0450   -0.7938 H   0  0  0  0  0  0  0  0  0  0  0  0
   -2.9227    2.4169   -1.2468 H   0  0  0  0  0  0  0  0  0  0  0  0
   -2.0774    1.7503    0.1673 H   0  0  0  0  0  0  0  0  0  0  0  0
    0.9508   -0.4809    0.8844 C   0  0  0  0  0  0  0  0  0  0  0  0
    2.1718   -0.4240    0.9484 O   0  0  0  0  0  0  0  0  0  0  0  0
    0.2042   -0.1078    1.9876 N   0  0  0  0  0  0  0  0  0  0  0  0
   -0.7995   -0.2319    1.9144 H   0  0  0  0  0  0  0  0  0  0  0  0
    0.7940    0.1157    3.3013 C   0  0  0  0  0  0  0  0  0  0  0  0
    1.5381    0.9179    3.2558 H   0  0  0  0  0  0  0  0  0  0  0  0
    0.0209    0.4036    4.0198 H   0  0  0  0  0  0  0  0  0  0  0  0
    1.2812   -0.7968    3.6612 H   0  0  0  0  0  0  0  0  0  0  0  0
  1  2  1  0  0  0  0
  2  3  1  0  0  0  0
  2  4  1  0  0  0  0
  2  5  1  0  0  0  0
  5  6  2  0  0  0  0
  5  7  1  0  0  0  0
  7  8  1  0  0  0  0
  7  9  1  0  0  0  0
  9 10  1  0  0  0  0
  9 11  1  0  0  0  0
  9 24  1  0  0  0  0
 11 12  1  0  0  0  0
 11 13  1  0  0  0  0
 11 17  1  0  0  0  0
 13 14  1  0  0  0  0
 13 15  1  0  0  0  0
 13 16  1  0  0  0  0
 17 18  1  0  0  0  0
 17 19  1  0  0  0  0
 17 20  1  0  0  0  0
 20 21  1  0  0  0  0
 20 22  1  0  0  0  0
 20 23  1  0  0  0  0
 24 25  2  0  0  0  0
 24 26  1  0  0  0  0
 26 27  1  0  0  0  0
 26 28  1  0  0  0  0
 28 29  1  0  0  0  0
 28 30  1  0  0  0  0
 28 31  1  0  0  0  0
M  END
$$$$

  -OEChem-03222214053D

 31 30  0     1  0  0  0  0  0999 V2000
   -2.3190   -4.5012    0.4313 H   0  0  0  0  0  0  0  0  0  0  0  0
   -2.4349   -3.4838    0.0464 C   0  0  0  0  0  0  0  0  0  0  0  0
   -3.1745   -2.9593    0.6561 H   0  0  0  0  0  0  0  0  0  0  0  0
   -2.7929   -3.5381   -0.9844 H   0  0  0  0  0  0  0  0  0  0  0  0
   -1.1064   -2.7524    0.0972 C   0  0  0  0  0  0  0  0  0  0  0  0
   -0.1269   -3.3078    0.5598 O   0  0  0  0  0  0  0  0  0  0  0  0
   -1.0193   -1.4608   -0.3842 N   0  0  0  0  0  0  0  0  0  0  0  0
   -1.8510   -1.0869   -0.8269 H   0  0  0  0  0  0  0  0  0  0  0  0
    0.2361   -0.6874   -0.4825 C   0  0  1  0  0  0  0  0  0  0  0  0
    0.9245   -1.3123   -1.0630 H   0  0  0  0  0  0  0  0  0  0  0  0
    0.1016    0.6949   -1.2122 C   0  0  1  0  0  0  0  0  0  0  0  0
    0.4158    1.4691   -0.5025 H   0  0  0  0  0  0  0  0  0  0  0  0
    1.1116    0.7442   -2.3695 C   0  0  0  0  0  0  0  0  0  0  0  0
    0.8680   -0.0064   -3.1283 H   0  0  0  0  0  0  0  0  0  0  0  0
    1.1063    1.7325   -2.8401 H   0  0  0  0  0  0  0  0  0  0  0  0
    2.1243    0.5508   -1.9997 H   0  0  0  0  0  0  0  0  0  0  0  0
   -1.3040    1.1077   -1.7493 C   0  0  0  0  0  0  0  0  0  0  0  0
   -1.2598    1.2580   -2.8334 H   0  0  0  0  0  0  0  0  0  0  0  0
   -2.0699    0.3522   -1.5815 H   0  0  0  0  0  0  0  0  0  0  0  0
   -1.7778    2.4108   -1.1028 C   0  0  0  0  0  0  0  0  0  0  0  0
   -1.0731    3.2219   -1.3124 H   0  0  0  0  0  0  0  0  0  0  0  0
   -2.7575    2.6936   -1.5001 H   0  0  0  0  0  0  0  0  0  0  0  0
   -1.8639    2.2907   -0.0181 H   0  0  0  0  0  0  0  0  0  0  0  0
    0.9389   -0.4782    0.8790 C   0  0  0  0  0  0  0  0  0  0  0  0
    2.1606   -0.4201    0.9309 O   0  0  0  0  0  0  0  0  0  0  0  0
    0.2012   -0.1025    1.9870 N   0  0  0  0  0  0  0  0  0  0  0  0
   -0.8027   -0.2317    1.9226 H   0  0  0  0  0  0  0  0  0  0  0  0
    0.8018    0.1246    3.2950 C   0  0  0  0  0  0  0  0  0  0  0  0
    1.5376    0.9341    3.2439 H   0  0  0  0  0  0  0  0  0  0  0  0
    0.0327    0.4039    4.0212 H   0  0  0  0  0  0  0  0  0  0  0  0
    1.3014   -0.7835    3.6488 H   0  0  0  0  0  0  0  0  0  0  0  0
  1  2  1  0  0  0  0
  2  3  1  0  0  0  0
  2  4  1  0  0  0  0
  2  5  1  0  0  0  0
  5  6  2  0  0  0  0
  5  7  1  0  0  0  0
  7  8  1  0  0  0  0
  7  9  1  0  0  0  0
  9 10  1  0  0  0  0
  9 11  1  0  0  0  0
  9 24  1  0  0  0  0
 11 12  1  0  0  0  0
 11 13  1  0  0  0  0
 11 17  1  0  0  0  0
 13 14  1  0  0  0  0
 13 15  1  0  0  0  0
 13 16  1  0  0  0  0
 17 18  1  0  0  0  0
 17 19  1  0  0  0  0
 17 20  1  0  0  0  0
 20 21  1  0  0  0  0
 20 22  1  0  0  0  0
 20 23  1  0  0  0  0
 24 25  2  0  0  0  0
 24 26  1  0  0  0  0
 26 27  1  0  0  0  0
 26 28  1  0  0  0  0
 28 29  1  0  0  0  0
 28 30  1  0  0  0  0
 28 31  1  0  0  0  0
M  END
$$$$

  -OEChem-03222214053D

 31 30  0     1  0  0  0  0  0999 V2000
   -2.3281   -4.4967    0.4253 H   0  0  0  0  0  0  0  0  0  0  0  0
   -2.4398   -3.4845    0.0261 C   0  0  0  0  0  0  0  0  0  0  0  0
   -3.2039   -2.9609    0.6054 H   0  0  0  0  0  0  0  0  0  0  0  0
   -2.7626   -3.5520   -1.0156 H   0  0  0  0  0  0  0  0  0  0  0  0
   -1.1201   -2.7410    0.1140 C   0  0  0  0  0  0  0  0  0  0  0  0
   -0.1525   -3.2842    0.6146 O   0  0  0  0  0  0  0  0  0  0  0  0
   -1.0282   -1.4526   -0.3760 N   0  0  0  0  0  0  0  0  0  0  0  0
   -1.8356   -1.1088   -0.8846 H   0  0  0  0  0  0  0  0  0  0  0  0
    0.2320   -0.6879   -0.4805 C   0  0  1  0  0  0  0  0  0  0  0  0
    0.9164   -1.3156   -1.0630 H   0  0  0  0  0  0  0  0  0  0  0  0
    0.0912    0.6897   -1.2154 C   0  0  1  0  0  0  0  0  0  0  0  0
    0.3927    1.4616   -0.4976 H   0  0  0  0  0  0  0  0  0  0  0  0
    1.0960    0.7577   -2.3750 C   0  0  0  0  0  0  0  0  0  0  0  0
    0.8695   -0.0020   -3.1299 H   0  0  0  0  0  0  0  0  0  0  0  0
    1.0654    1.7427   -2.8516 H   0  0  0  0  0  0  0  0  0  0  0  0
    2.1134    0.5894   -2.0061 H   0  0  0  0  0  0  0  0  0  0  0  0
   -1.3188    1.0926   -1.7398 C   0  0  0  0  0  0  0  0  0  0  0  0
   -1.3817    0.9374   -2.8221 H   0  0  0  0  0  0  0  0  0  0  0  0
   -2.1154    0.5040   -1.2849 H   0  0  0  0  0  0  0  0  0  0  0  0
   -1.6332    2.5523   -1.4028 C   0  0  0  0  0  0  0  0  0  0  0  0
   -0.8874    3.2176   -1.8490 H   0  0  0  0  0  0  0  0  0  0  0  0
   -2.6181    2.8249   -1.7942 H   0  0  0  0  0  0  0  0  0  0  0  0
   -1.6370    2.7058   -0.3190 H   0  0  0  0  0  0  0  0  0  0  0  0
    0.9407   -0.4734    0.8777 C   0  0  0  0  0  0  0  0  0  0  0  0
    2.1629   -0.4223    0.9238 O   0  0  0  0  0  0  0  0  0  0  0  0
    0.2097   -0.0856    1.9863 N   0  0  0  0  0  0  0  0  0  0  0  0
   -0.7941   -0.2181    1.9279 H   0  0  0  0  0  0  0  0  0  0  0  0
    0.8155    0.1365    3.2930 C   0  0  0  0  0  0  0  0  0  0  0  0
    1.5794    0.9189    3.2343 H   0  0  0  0  0  0  0  0  0  0  0  0
    0.0555    0.4517    4.0141 H   0  0  0  0  0  0  0  0  0  0  0  0
    1.2820   -0.7844    3.6584 H   0  0  0  0  0  0  0  0  0  0  0  0
  1  2  1  0  0  0  0
  2  3  1  0  0  0  0
  2  4  1  0  0  0  0
  2  5  1  0  0  0  0
  5  6  2  0  0  0  0
  5  7  1  0  0  0  0
  7  8  1  0  0  0  0
  7  9  1  0  0  0  0
  9 10  1  0  0  0  0
  9 11  1  0  0  0  0
  9 24  1  0  0  0  0
 11 12  1  0  0  0  0
 11 13  1  0  0  0  0
 11 17  1  0  0  0  0
 13 14  1  0  0  0  0
 13 15  1  0  0  0  0
 13 16  1  0  0  0  0
 17 18  1  0  0  0  0
 17 19  1  0  0  0  0
 17 20  1  0  0  0  0
 20 21  1  0  0  0  0
 20 22  1  0  0  0  0
 20 23  1  0  0  0  0
 24 25  2  0  0  0  0
 24 26  1  0  0  0  0
 26 27  1  0  0  0  0
 26 28  1  0  0  0  0
 28 29  1  0  0  0  0
 28 30  1  0  0  0  0
 28 31  1  0  0  0  0
M  END
$$$$

  -OEChem-03222214053D

 31 30  0     1  0  0  0  0  0999 V2000
   -2.3587   -4.4627    0.4142 H   0  0  0  0  0  0  0  0  0  0  0  0
   -2.4566   -3.4505    0.0114 C   0  0  0  0  0  0  0  0  0  0  0  0
   -3.2179   -2.9161    0.5846 H   0  0  0  0  0  0  0  0  0  0  0  0
   -2.7744   -3.5178   -1.0319 H   0  0  0  0  0  0  0  0  0  0  0  0
   -1.1293   -2.7218    0.1047 C   0  0  0  0  0  0  0  0  0  0  0  0
   -0.1696   -3.2747    0.6099 O   0  0  0  0  0  0  0  0  0  0  0  0
   -1.0218   -1.4347   -0.3851 N   0  0  0  0  0  0  0  0  0  0  0  0
   -1.8237   -1.0792   -0.8954 H   0  0  0  0  0  0  0  0  0  0  0  0
    0.2465   -0.6822   -0.4825 C   0  0  1  0  0  0  0  0  0  0  0  0
    0.9289   -1.3117   -1.0652 H   0  0  0  0  0  0  0  0  0  0  0  0
    0.1038    0.6947   -1.2146 C   0  0  1  0  0  0  0  0  0  0  0  0
    0.3959    1.4727   -0.4998 H   0  0  0  0  0  0  0  0  0  0  0  0
    1.1006    0.7587   -2.3826 C   0  0  0  0  0  0  0  0  0  0  0  0
    0.8640    0.0001   -3.1353 H   0  0  0  0  0  0  0  0  0  0  0  0
    1.0770    1.7420   -2.8610 H   0  0  0  0  0  0  0  0  0  0  0  0
    2.1192    0.5836   -2.0207 H   0  0  0  0  0  0  0  0  0  0  0  0
   -1.3173    1.0636   -1.7206 C   0  0  0  0  0  0  0  0  0  0  0  0
   -1.4872    0.6459   -2.7184 H   0  0  0  0  0  0  0  0  0  0  0  0
   -2.0859    0.6648   -1.0549 H   0  0  0  0  0  0  0  0  0  0  0  0
   -1.5344    2.5794   -1.7310 C   0  0  0  0  0  0  0  0  0  0  0  0
   -0.8222    3.0696   -2.4015 H   0  0  0  0  0  0  0  0  0  0  0  0
   -2.5469    2.8097   -2.0766 H   0  0  0  0  0  0  0  0  0  0  0  0
   -1.4108    2.9935   -0.7254 H   0  0  0  0  0  0  0  0  0  0  0  0
    0.9518   -0.4721    0.8777 C   0  0  0  0  0  0  0  0  0  0  0  0
    2.1742   -0.4341    0.9286 O   0  0  0  0  0  0  0  0  0  0  0  0
    0.2196   -0.0755    1.9824 N   0  0  0  0  0  0  0  0  0  0  0  0
   -0.7854   -0.1971    1.9189 H   0  0  0  0  0  0  0  0  0  0  0  0
    0.8207    0.1425    3.2919 C   0  0  0  0  0  0  0  0  0  0  0  0
    1.5965    0.9134    3.2356 H   0  0  0  0  0  0  0  0  0  0  0  0
    0.0610    0.4720    4.0068 H   0  0  0  0  0  0  0  0  0  0  0  0
    1.2710   -0.7839    3.6638 H   0  0  0  0  0  0  0  0  0  0  0  0
  1  2  1  0  0  0  0
  2  3  1  0  0  0  0
  2  4  1  0  0  0  0
  2  5  1  0  0  0  0
  5  6  2  0  0  0  0
  5  7  1  0  0  0  0
  7  8  1  0  0  0  0
  7  9  1  0  0  0  0
  9 10  1  0  0  0  0
  9 11  1  0  0  0  0
  9 24  1  0  0  0  0
 11 12  1  0  0  0  0
 11 13  1  0  0  0  0
 11 17  1  0  0  0  0
 13 14  1  0  0  0  0
 13 15  1  0  0  0  0
 13 16  1  0  0  0  0
 17 18  1  0  0  0  0
 17 19  1  0  0  0  0
 17 20  1  0  0  0  0
 20 21  1  0  0  0  0
 20 22  1  0  0  0  0
 20 23  1  0  0  0  0
 24 25  2  0  0  0  0
 24 26  1  0  0  0  0
 26 27  1  0  0  0  0
 26 28  1  0  0  0  0
 28 29  1  0  0  0  0
 28 30  1  0  0  0  0
 28 31  1  0  0  0  0
M  END
$$$$

  -OEChem-03222214053D

 31 30  0     1  0  0  0  0  0999 V2000
   -2.3902   -4.4295    0.3976 H   0  0  0  0  0  0  0  0  0  0  0  0
   -2.4761   -3.4153   -0.0030 C   0  0  0  0  0  0  0  0  0  0  0  0
   -3.2302   -2.8730    0.5719 H   0  0  0  0  0  0  0  0  0  0  0  0
   -2.7954   -3.4764   -1.0461 H   0  0  0  0  0  0  0  0  0  0  0  0
   -1.1400   -2.7028    0.0910 C   0  0  0  0  0  0  0  0  0  0  0  0
   -0.1869   -3.2678    0.5954 O   0  0  0  0  0  0  0  0  0  0  0  0
   -1.0158   -1.4163   -0.3960 N   0  0  0  0  0  0  0  0  0  0  0  0
   -1.8166   -1.0418   -0.8944 H   0  0  0  0  0  0  0  0  0  0  0  0
    0.2605   -0.6754   -0.4831 C   0  0  1  0  0  0  0  0  0  0  0  0
    0.9406   -1.3088   -1.0641 H   0  0  0  0  0  0  0  0  0  0  0  0
    0.1222    0.7019   -1.2125 C   0  0  1  0  0  0  0  0  0  0  0  0
    0.4056    1.4880   -0.5032 H   0  0  0  0  0  0  0  0  0  0  0  0
    1.1234    0.7546   -2.3788 C   0  0  0  0  0  0  0  0  0  0  0  0
    0.8532    0.0291   -3.1527 H   0  0  0  0  0  0  0  0  0  0  0  0
    1.1518    1.7507   -2.8285 H   0  0  0  0  0  0  0  0  0  0  0  0
    2.1324    0.5231   -2.0214 H   0  0  0  0  0  0  0  0  0  0  0  0
   -1.3087    1.0365   -1.7051 C   0  0  0  0  0  0  0  0  0  0  0  0
   -1.5702    0.4066   -2.5619 H   0  0  0  0  0  0  0  0  0  0  0  0
   -2.0274    0.8391   -0.9040 H   0  0  0  0  0  0  0  0  0  0  0  0
   -1.4731    2.5137   -2.0757 C   0  0  0  0  0  0  0  0  0  0  0  0
   -0.8603    2.7725   -2.9437 H   0  0  0  0  0  0  0  0  0  0  0  0
   -2.5183    2.7206   -2.3247 H   0  0  0  0  0  0  0  0  0  0  0  0
   -1.1845    3.1552   -1.2373 H   0  0  0  0  0  0  0  0  0  0  0  0
    0.9619   -0.4709    0.8794 C   0  0  0  0  0  0  0  0  0  0  0  0
    2.1844   -0.4422    0.9351 O   0  0  0  0  0  0  0  0  0  0  0  0
    0.2286   -0.0672    1.9806 N   0  0  0  0  0  0  0  0  0  0  0  0
   -0.7768   -0.1826    1.9146 H   0  0  0  0  0  0  0  0  0  0  0  0
    0.8274    0.1503    3.2912 C   0  0  0  0  0  0  0  0  0  0  0  0
    1.6052    0.9192    3.2359 H   0  0  0  0  0  0  0  0  0  0  0  0
    0.0668    0.4820    4.0043 H   0  0  0  0  0  0  0  0  0  0  0  0
    1.2748   -0.7769    3.6648 H   0  0  0  0  0  0  0  0  0  0  0  0
  1  2  1  0  0  0  0
  2  3  1  0  0  0  0
  2  4  1  0  0  0  0
  2  5  1  0  0  0  0
  5  6  2  0  0  0  0
  5  7  1  0  0  0  0
  7  8  1  0  0  0  0
  7  9  1  0  0  0  0
  9 10  1  0  0  0  0
  9 11  1  0  0  0  0
  9 24  1  0  0  0  0
 11 12  1  0  0  0  0
 11 13  1  0  0  0  0
 11 17  1  0  0  0  0
 13 14  1  0  0  0  0
 13 15  1  0  0  0  0
 13 16  1  0  0  0  0
 17 18  1  0  0  0  0
 17 19  1  0  0  0  0
 17 20  1  0  0  0  0
 20 21  1  0  0  0  0
 20 22  1  0  0  0  0
 20 23  1  0  0  0  0
 24 25  2  0  0  0  0
 24 26  1  0  0  0  0
 26 27  1  0  0  0  0
 26 28  1  0  0  0  0
 28 29  1  0  0  0  0
 28 30  1  0  0  0  0
 28 31  1  0  0  0  0
M  END
$$$$

  -OEChem-03222214053D

 31 30  0     1  0  0  0  0  0999 V2000
   -2.4039   -4.4004    0.3873 H   0  0  0  0  0  0  0  0  0  0  0  0
   -2.4793   -3.3821   -0.0046 C   0  0  0  0  0  0  0  0  0  0  0  0
   -3.2174   -2.8323    0.5840 H   0  0  0  0  0  0  0  0  0  0  0  0
   -2.8128   -3.4301   -1.0439 H   0  0  0  0  0  0  0  0  0  0  0  0
   -1.1309   -2.6918    0.0763 C   0  0  0  0  0  0  0  0  0  0  0  0
   -0.1830   -3.2709    0.5742 O   0  0  0  0  0  0  0  0  0  0  0  0
   -0.9902   -1.4094   -0.4164 N   0  0  0  0  0  0  0  0  0  0  0  0
   -1.7946   -1.0145   -0.8926 H   0  0  0  0  0  0  0  0  0  0  0  0
    0.2921   -0.6772   -0.4951 C   0  0  1  0  0  0  0  0  0  0  0  0
    0.9853   -1.3061   -1.0650 H   0  0  0  0  0  0  0  0  0  0  0  0
    0.1550    0.7107   -1.2043 C   0  0  1  0  0  0  0  0  0  0  0  0
    0.7022    1.4623   -0.6231 H   0  0  0  0  0  0  0  0  0  0  0  0
    0.8373    0.6195   -2.5817 C   0  0  0  0  0  0  0  0  0  0  0  0
    0.2796   -0.0493   -3.2449 H   0  0  0  0  0  0  0  0  0  0  0  0
    0.9080    1.6039   -3.0523 H   0  0  0  0  0  0  0  0  0  0  0  0
    1.8577    0.2361   -2.4773 H   0  0  0  0  0  0  0  0  0  0  0  0
   -1.3105    1.1999   -1.3440 C   0  0  0  0  0  0  0  0  0  0  0  0
   -1.8973    0.4800   -1.9230 H   0  0  0  0  0  0  0  0  0  0  0  0
   -1.7515    1.2761   -0.3447 H   0  0  0  0  0  0  0  0  0  0  0  0
   -1.4379    2.5601   -2.0363 C   0  0  0  0  0  0  0  0  0  0  0  0
   -1.1757    2.4899   -3.0960 H   0  0  0  0  0  0  0  0  0  0  0  0
   -2.4700    2.9170   -1.9672 H   0  0  0  0  0  0  0  0  0  0  0  0
   -0.7848    3.2963   -1.5572 H   0  0  0  0  0  0  0  0  0  0  0  0
    0.9681   -0.4772    0.8808 C   0  0  0  0  0  0  0  0  0  0  0  0
    2.1894   -0.4609    0.9611 O   0  0  0  0  0  0  0  0  0  0  0  0
    0.2179   -0.0671    1.9683 N   0  0  0  0  0  0  0  0  0  0  0  0
   -0.7871   -0.1745    1.8849 H   0  0  0  0  0  0  0  0  0  0  0  0
    0.7961    0.1426    3.2893 C   0  0  0  0  0  0  0  0  0  0  0  0
    1.5805    0.9057    3.2473 H   0  0  0  0  0  0  0  0  0  0  0  0
    0.0268    0.4784    3.9910 H   0  0  0  0  0  0  0  0  0  0  0  0
    1.2302   -0.7888    3.6680 H   0  0  0  0  0  0  0  0  0  0  0  0
  1  2  1  0  0  0  0
  2  3  1  0  0  0  0
  2  4  1  0  0  0  0
  2  5  1  0  0  0  0
  5  6  2  0  0  0  0
  5  7  1  0  0  0  0
  7  8  1  0  0  0  0
  7  9  1  0  0  0  0
  9 10  1  0  0  0  0
  9 11  1  0  0  0  0
  9 24  1  0  0  0  0
 11 12  1  0  0  0  0
 11 13  1  0  0  0  0
 11 17  1  0  0  0  0
 13 14  1  0  0  0  0
 13 15  1  0  0  0  0
 13 16  1  0  0  0  0
 17 18  1  0  0  0  0
 17 19  1  0  0  0  0
 17 20  1  0  0  0  0
 20 21  1  0  0  0  0
 20 22  1  0  0  0  0
 20 23  1  0  0  0  0
 24 25  2  0  0  0  0
 24 26  1  0  0  0  0
 26 27  1  0  0  0  0
 26 28  1  0  0  0  0
 28 29  1  0  0  0  0
 28 30  1  0  0  0  0
 28 31  1  0  0  0  0
M  END
$$$$

  -OEChem-03222214053D

 31 30  0     1  0  0  0  0  0999 V2000
   -2.3824   -4.4226    0.4166 H   0  0  0  0  0  0  0  0  0  0  0  0
   -2.4690   -3.4056    0.0232 C   0  0  0  0  0  0  0  0  0  0  0  0
   -3.2024   -2.8588    0.6207 H   0  0  0  0  0  0  0  0  0  0  0  0
   -2.8162   -3.4586   -1.0116 H   0  0  0  0  0  0  0  0  0  0  0  0
   -1.1239   -2.7067    0.0848 C   0  0  0  0  0  0  0  0  0  0  0  0
   -0.1651   -3.2803    0.5681 O   0  0  0  0  0  0  0  0  0  0  0  0
   -0.9989   -1.4230   -0.4090 N   0  0  0  0  0  0  0  0  0  0  0  0
   -1.8133   -1.0342   -0.8717 H   0  0  0  0  0  0  0  0  0  0  0  0
    0.2762   -0.6804   -0.4992 C   0  0  1  0  0  0  0  0  0  0  0  0
    0.9674   -1.3124   -1.0684 H   0  0  0  0  0  0  0  0  0  0  0  0
    0.1455    0.7115   -1.2087 C   0  0  1  0  0  0  0  0  0  0  0  0
    0.6975    1.4623   -0.6309 H   0  0  0  0  0  0  0  0  0  0  0  0
    0.8510    0.6022   -2.5748 C   0  0  0  0  0  0  0  0  0  0  0  0
    0.2930   -0.0602   -3.2441 H   0  0  0  0  0  0  0  0  0  0  0  0
    0.9492    1.5830   -3.0483 H   0  0  0  0  0  0  0  0  0  0  0  0
    1.8634    0.2028   -2.4523 H   0  0  0  0  0  0  0  0  0  0  0  0
   -1.3151    1.2294   -1.3581 C   0  0  0  0  0  0  0  0  0  0  0  0
   -1.9699    0.4359   -1.7259 H   0  0  0  0  0  0  0  0  0  0  0  0
   -1.6775    1.5385   -0.3723 H   0  0  0  0  0  0  0  0  0  0  0  0
   -1.4819    2.3899   -2.3451 C   0  0  0  0  0  0  0  0  0  0  0  0
   -1.3054    2.0626   -3.3741 H   0  0  0  0  0  0  0  0  0  0  0  0
   -2.5016    2.7826   -2.2871 H   0  0  0  0  0  0  0  0  0  0  0  0
   -0.7860    3.1998   -2.1045 H   0  0  0  0  0  0  0  0  0  0  0  0
    0.9596   -0.4773    0.8727 C   0  0  0  0  0  0  0  0  0  0  0  0
    2.1813   -0.4526    0.9455 O   0  0  0  0  0  0  0  0  0  0  0  0
    0.2134   -0.0747    1.9658 N   0  0  0  0  0  0  0  0  0  0  0  0
   -0.7915   -0.1873    1.8882 H   0  0  0  0  0  0  0  0  0  0  0  0
    0.7982    0.1409    3.2830 C   0  0  0  0  0  0  0  0  0  0  0  0
    1.5745    0.9120    3.2362 H   0  0  0  0  0  0  0  0  0  0  0  0
    0.0300    0.4691    3.9897 H   0  0  0  0  0  0  0  0  0  0  0  0
    1.2444   -0.7861    3.6585 H   0  0  0  0  0  0  0  0  0  0  0  0
  1  2  1  0  0  0  0
  2  3  1  0  0  0  0
  2  4  1  0  0  0  0
  2  5  1  0  0  0  0
  5  6  2  0  0  0  0
  5  7  1  0  0  0  0
  7  8  1  0  0  0  0
  7  9  1  0  0  0  0
  9 10  1  0  0  0  0
  9 11  1  0  0  0  0
  9 24  1  0  0  0  0
 11 12  1  0  0  0  0
 11 13  1  0  0  0  0
 11 17  1  0  0  0  0
 13 14  1  0  0  0  0
 13 15  1  0  0  0  0
 13 16  1  0  0  0  0
 17 18  1  0  0  0  0
 17 19  1  0  0  0  0
 17 20  1  0  0  0  0
 20 21  1  0  0  0  0
 20 22  1  0  0  0  0
 20 23  1  0  0  0  0
 24 25  2  0  0  0  0
 24 26  1  0  0  0  0
 26 27  1  0  0  0  0
 26 28  1  0  0  0  0
 28 29  1  0  0  0  0
 28 30  1  0  0  0  0
 28 31  1  0  0  0  0
M  END
$$$$

  -OEChem-03222214053D

 31 30  0     1  0  0  0  0  0999 V2000
   -2.3664   -4.4509    0.4414 H   0  0  0  0  0  0  0  0  0  0  0  0
   -2.4615   -3.4398    0.0352 C   0  0  0  0  0  0  0  0  0  0  0  0
   -3.2146   -2.8985    0.6127 H   0  0  0  0  0  0  0  0  0  0  0  0
   -2.7888   -3.5099   -1.0049 H   0  0  0  0  0  0  0  0  0  0  0  0
   -1.1286   -2.7190    0.1140 C   0  0  0  0  0  0  0  0  0  0  0  0
   -0.1706   -3.2738    0.6201 O   0  0  0  0  0  0  0  0  0  0  0  0
   -1.0144   -1.4382   -0.3910 N   0  0  0  0  0  0  0  0  0  0  0  0
   -1.8173   -1.0856   -0.9002 H   0  0  0  0  0  0  0  0  0  0  0  0
    0.2581   -0.6931   -0.5010 C   0  0  1  0  0  0  0  0  0  0  0  0
    0.9430   -1.3313   -1.0708 H   0  0  0  0  0  0  0  0  0  0  0  0
    0.1355    0.7023   -1.2127 C   0  0  1  0  0  0  0  0  0  0  0  0
    0.6984    1.4473   -0.6377 H   0  0  0  0  0  0  0  0  0  0  0  0
    0.8641    0.5753   -2.5668 C   0  0  0  0  0  0  0  0  0  0  0  0
    0.3241   -0.1042   -3.2337 H   0  0  0  0  0  0  0  0  0  0  0  0
    0.9645    1.5483   -3.0561 H   0  0  0  0  0  0  0  0  0  0  0  0
    1.8773    0.1862   -2.4202 H   0  0  0  0  0  0  0  0  0  0  0  0
   -1.3159    1.2651   -1.3672 C   0  0  0  0  0  0  0  0  0  0  0  0
   -2.0466    0.4631   -1.4694 H   0  0  0  0  0  0  0  0  0  0  0  0
   -1.5655    1.8187   -0.4562 H   0  0  0  0  0  0  0  0  0  0  0  0
   -1.5542    2.1657   -2.5856 C   0  0  0  0  0  0  0  0  0  0  0  0
   -1.4427    1.6063   -3.5192 H   0  0  0  0  0  0  0  0  0  0  0  0
   -2.5705    2.5697   -2.5546 H   0  0  0  0  0  0  0  0  0  0  0  0
   -0.8524    3.0057   -2.5850 H   0  0  0  0  0  0  0  0  0  0  0  0
    0.9538   -0.4805    0.8639 C   0  0  0  0  0  0  0  0  0  0  0  0
    2.1761   -0.4498    0.9247 O   0  0  0  0  0  0  0  0  0  0  0  0
    0.2155   -0.0730    1.9604 N   0  0  0  0  0  0  0  0  0  0  0  0
   -0.7895   -0.1889    1.8899 H   0  0  0  0  0  0  0  0  0  0  0  0
    0.8088    0.1499    3.2724 C   0  0  0  0  0  0  0  0  0  0  0  0
    1.5772    0.9283    3.2193 H   0  0  0  0  0  0  0  0  0  0  0  0
    0.0426    0.4709    3.9845 H   0  0  0  0  0  0  0  0  0  0  0  0
    1.2670   -0.7722    3.6454 H   0  0  0  0  0  0  0  0  0  0  0  0
  1  2  1  0  0  0  0
  2  3  1  0  0  0  0
  2  4  1  0  0  0  0
  2  5  1  0  0  0  0
  5  6  2  0  0  0  0
  5  7  1  0  0  0  0
  7  8  1  0  0  0  0
  7  9  1  0  0  0  0
  9 10  1  0  0  0  0
  9 11  1  0  0  0  0
  9 24  1  0  0  0  0
 11 12  1  0  0  0  0
 11 13  1  0  0  0  0
 11 17  1  0  0  0  0
 13 14  1  0  0  0  0
 13 15  1  0  0  0  0
 13 16  1  0  0  0  0
 17 18  1  0  0  0  0
 17 19  1  0  0  0  0
 17 20  1  0  0  0  0
 20 21  1  0  0  0  0
 20 22  1  0  0  0  0
 20 23  1  0  0  0  0
 24 25  2  0  0  0  0
 24 26  1  0  0  0  0
 26 27  1  0  0  0  0
 26 28  1  0  0  0  0
 28 29  1  0  0  0  0
 28 30  1  0  0  0  0
 28 31  1  0  0  0  0
M  END
$$$$

  -OEChem-03222214053D

 31 30  0     1  0  0  0  0  0999 V2000
   -2.3667   -4.4621    0.4493 H   0  0  0  0  0  0  0  0  0  0  0  0
   -2.4618   -3.4531    0.0379 C   0  0  0  0  0  0  0  0  0  0  0  0
   -3.2258   -2.9138    0.6028 H   0  0  0  0  0  0  0  0  0  0  0  0
   -2.7741   -3.5285   -1.0064 H   0  0  0  0  0  0  0  0  0  0  0  0
   -1.1348   -2.7238    0.1325 C   0  0  0  0  0  0  0  0  0  0  0  0
   -0.1809   -3.2692    0.6563 O   0  0  0  0  0  0  0  0  0  0  0  0
   -1.0227   -1.4453   -0.3785 N   0  0  0  0  0  0  0  0  0  0  0  0
   -1.8160   -1.1108   -0.9152 H   0  0  0  0  0  0  0  0  0  0  0  0
    0.2498   -0.7029   -0.4979 C   0  0  1  0  0  0  0  0  0  0  0  0
    0.9302   -1.3452   -1.0685 H   0  0  0  0  0  0  0  0  0  0  0  0
    0.1283    0.6885   -1.2190 C   0  0  1  0  0  0  0  0  0  0  0  0
    0.6851    1.4299   -0.6338 H   0  0  0  0  0  0  0  0  0  0  0  0
    0.8910    0.5691   -2.5547 C   0  0  0  0  0  0  0  0  0  0  0  0
    0.3908   -0.1340   -3.2278 H   0  0  0  0  0  0  0  0  0  0  0  0
    0.9745    1.5403   -3.0501 H   0  0  0  0  0  0  0  0  0  0  0  0
    1.9106    0.2108   -2.3776 H   0  0  0  0  0  0  0  0  0  0  0  0
   -1.3181    1.2750   -1.3834 C   0  0  0  0  0  0  0  0  0  0  0  0
   -2.0909    0.5386   -1.1699 H   0  0  0  0  0  0  0  0  0  0  0  0
   -1.4380    2.0661   -0.6358 H   0  0  0  0  0  0  0  0  0  0  0  0
   -1.6668    1.8620   -2.7576 C   0  0  0  0  0  0  0  0  0  0  0  0
   -1.6139    1.0965   -3.5375 H   0  0  0  0  0  0  0  0  0  0  0  0
   -2.6867    2.2584   -2.7416 H   0  0  0  0  0  0  0  0  0  0  0  0
   -0.9901    2.6833   -3.0125 H   0  0  0  0  0  0  0  0  0  0  0  0
    0.9530   -0.4856    0.8626 C   0  0  0  0  0  0  0  0  0  0  0  0
    2.1757   -0.4569    0.9161 O   0  0  0  0  0  0  0  0  0  0  0  0
    0.2219   -0.0725    1.9618 N   0  0  0  0  0  0  0  0  0  0  0  0
   -0.7828   -0.1962    1.9001 H   0  0  0  0  0  0  0  0  0  0  0  0
    0.8238    0.1504    3.2699 C   0  0  0  0  0  0  0  0  0  0  0  0
    1.6084    0.9117    3.2074 H   0  0  0  0  0  0  0  0  0  0  0  0
    0.0670    0.4950    3.9808 H   0  0  0  0  0  0  0  0  0  0  0  0
    1.2632   -0.7776    3.6505 H   0  0  0  0  0  0  0  0  0  0  0  0
  1  2  1  0  0  0  0
  2  3  1  0  0  0  0
  2  4  1  0  0  0  0
  2  5  1  0  0  0  0
  5  6  2  0  0  0  0
  5  7  1  0  0  0  0
  7  8  1  0  0  0  0
  7  9  1  0  0  0  0
  9 10  1  0  0  0  0
  9 11  1  0  0  0  0
  9 24  1  0  0  0  0
 11 12  1  0  0  0  0
 11 13  1  0  0  0  0
 11 17  1  0  0  0  0
 13 14  1  0  0  0  0
 13 15  1  0  0  0  0
 13 16  1  0  0  0  0
 17 18  1  0  0  0  0
 17 19  1  0  0  0  0
 17 20  1  0  0  0  0
 20 21  1  0  0  0  0
 20 22  1  0  0  0  0
 20 23  1  0  0  0  0
 24 25  2  0  0  0  0
 24 26  1  0  0  0  0
 26 27  1  0  0  0  0
 26 28  1  0  0  0  0
 28 29  1  0  0  0  0
 28 30  1  0  0  0  0
 28 31  1  0  0  0  0
M  END
$$$$

  -OEChem-03222214053D

 31 30  0     1  0  0  0  0  0999 V2000
   -2.3972   -4.4465    0.4426 H   0  0  0  0  0  0  0  0  0  0  0  0
   -2.4798   -3.4389    0.0250 C   0  0  0  0  0  0  0  0  0  0  0  0
   -3.2469   -2.8908    0.5773 H   0  0  0  0  0  0  0  0  0  0  0  0
   -2.7792   -3.5171   -1.0229 H   0  0  0  0  0  0  0  0  0  0  0  0
   -1.1483   -2.7196    0.1323 C   0  0  0  0  0  0  0  0  0  0  0  0
   -0.2028   -3.2727    0.6634 O   0  0  0  0  0  0  0  0  0  0  0  0
   -1.0214   -1.4421   -0.3774 N   0  0  0  0  0  0  0  0  0  0  0  0
   -1.8079   -1.0975   -0.9187 H   0  0  0  0  0  0  0  0  0  0  0  0
    0.2575   -0.7106   -0.4916 C   0  0  1  0  0  0  0  0  0  0  0  0
    0.9346   -1.3548   -1.0643 H   0  0  0  0  0  0  0  0  0  0  0  0
    0.1316    0.6731   -1.2220 C   0  0  1  0  0  0  0  0  0  0  0  0
    0.6676    1.4141   -0.6169 H   0  0  0  0  0  0  0  0  0  0  0  0
    0.9203    0.5866   -2.5431 C   0  0  0  0  0  0  0  0  0  0  0  0
    0.4635   -0.1350   -3.2275 H   0  0  0  0  0  0  0  0  0  0  0  0
    0.9690    1.5635   -3.0328 H   0  0  0  0  0  0  0  0  0  0  0  0
    1.9499    0.2684   -2.3471 H   0  0  0  0  0  0  0  0  0  0  0  0
   -1.3173    1.2492   -1.3888 C   0  0  0  0  0  0  0  0  0  0  0  0
   -2.0687    0.6513   -0.8730 H   0  0  0  0  0  0  0  0  0  0  0  0
   -1.3309    2.2229   -0.8873 H   0  0  0  0  0  0  0  0  0  0  0  0
   -1.7991    1.4879   -2.8256 C   0  0  0  0  0  0  0  0  0  0  0  0
   -1.7936    0.5548   -3.3969 H   0  0  0  0  0  0  0  0  0  0  0  0
   -2.8234    1.8729   -2.8124 H   0  0  0  0  0  0  0  0  0  0  0  0
   -1.1713    2.2247   -3.3351 H   0  0  0  0  0  0  0  0  0  0  0  0
    0.9630   -0.4962    0.8680 C   0  0  0  0  0  0  0  0  0  0  0  0
    2.1859   -0.4737    0.9196 O   0  0  0  0  0  0  0  0  0  0  0  0
    0.2358   -0.0752    1.9665 N   0  0  0  0  0  0  0  0  0  0  0  0
   -0.7700   -0.1903    1.9059 H   0  0  0  0  0  0  0  0  0  0  0  0
    0.8409    0.1529    3.2722 C   0  0  0  0  0  0  0  0  0  0  0  0
    1.6237    0.9157    3.2045 H   0  0  0  0  0  0  0  0  0  0  0  0
    0.0856    0.4984    3.9842 H   0  0  0  0  0  0  0  0  0  0  0  0
    1.2834   -0.7729    3.6548 H   0  0  0  0  0  0  0  0  0  0  0  0
  1  2  1  0  0  0  0
  2  3  1  0  0  0  0
  2  4  1  0  0  0  0
  2  5  1  0  0  0  0
  5  6  2  0  0  0  0
  5  7  1  0  0  0  0
  7  8  1  0  0  0  0
  7  9  1  0  0  0  0
  9 10  1  0  0  0  0
  9 11  1  0  0  0  0
  9 24  1  0  0  0  0
 11 12  1  0  0  0  0
 11 13  1  0  0  0  0
 11 17  1  0  0  0  0
 13 14  1  0  0  0  0
 13 15  1  0  0  0  0
 13 16  1  0  0  0  0
 17 18  1  0  0  0  0
 17 19  1  0  0  0  0
 17 20  1  0  0  0  0
 20 21  1  0  0  0  0
 20 22  1  0  0  0  0
 20 23  1  0  0  0  0
 24 25  2  0  0  0  0
 24 26  1  0  0  0  0
 26 27  1  0  0  0  0
 26 28  1  0  0  0  0
 28 29  1  0  0  0  0
 28 30  1  0  0  0  0
 28 31  1  0  0  0  0
M  END
$$$$

  -OEChem-03222214053D

 31 30  0     1  0  0  0  0  0999 V2000
   -2.4315   -4.4154    0.4278 H   0  0  0  0  0  0  0  0  0  0  0  0
   -2.4992   -3.4042    0.0162 C   0  0  0  0  0  0  0  0  0  0  0  0
   -3.2546   -2.8467    0.5754 H   0  0  0  0  0  0  0  0  0  0  0  0
   -2.8051   -3.4723   -1.0305 H   0  0  0  0  0  0  0  0  0  0  0  0
   -1.1556   -2.7072    0.1202 C   0  0  0  0  0  0  0  0  0  0  0  0
   -0.2172   -3.2759    0.6473 O   0  0  0  0  0  0  0  0  0  0  0  0
   -1.0099   -1.4306   -0.3859 N   0  0  0  0  0  0  0  0  0  0  0  0
   -1.7955   -1.0631   -0.9140 H   0  0  0  0  0  0  0  0  0  0  0  0
    0.2766   -0.7106   -0.4883 C   0  0  1  0  0  0  0  0  0  0  0  0
    0.9550   -1.3523   -1.0620 H   0  0  0  0  0  0  0  0  0  0  0  0
    0.1449    0.6662   -1.2221 C   0  0  1  0  0  0  0  0  0  0  0  0
    0.6638    1.4103   -0.6066 H   0  0  0  0  0  0  0  0  0  0  0  0
    0.9308    0.6107   -2.5442 C   0  0  0  0  0  0  0  0  0  0  0  0
    0.5139   -0.1421   -3.2203 H   0  0  0  0  0  0  0  0  0  0  0  0
    0.9156    1.5848   -3.0422 H   0  0  0  0  0  0  0  0  0  0  0  0
    1.9770    0.3530   -2.3486 H   0  0  0  0  0  0  0  0  0  0  0  0
   -1.3097    1.2125   -1.3824 C   0  0  0  0  0  0  0  0  0  0  0  0
   -1.9908    0.7818   -0.6448 H   0  0  0  0  0  0  0  0  0  0  0  0
   -1.2747    2.2826   -1.1521 H   0  0  0  0  0  0  0  0  0  0  0  0
   -1.9183    1.0958   -2.7854 C   0  0  0  0  0  0  0  0  0  0  0  0
   -1.9286    0.0518   -3.1130 H   0  0  0  0  0  0  0  0  0  0  0  0
   -2.9490    1.4630   -2.7735 H   0  0  0  0  0  0  0  0  0  0  0  0
   -1.3581    1.6917   -3.5119 H   0  0  0  0  0  0  0  0  0  0  0  0
    0.9761   -0.5023    0.8751 C   0  0  0  0  0  0  0  0  0  0  0  0
    2.1988   -0.4884    0.9340 O   0  0  0  0  0  0  0  0  0  0  0  0
    0.2457   -0.0749    1.9691 N   0  0  0  0  0  0  0  0  0  0  0  0
   -0.7605   -0.1833    1.9030 H   0  0  0  0  0  0  0  0  0  0  0  0
    0.8446    0.1473    3.2788 C   0  0  0  0  0  0  0  0  0  0  0  0
    1.6375    0.9002    3.2155 H   0  0  0  0  0  0  0  0  0  0  0  0
    0.0886    0.5032    3.9851 H   0  0  0  0  0  0  0  0  0  0  0  0
    1.2728   -0.7835    3.6658 H   0  0  0  0  0  0  0  0  0  0  0  0
  1  2  1  0  0  0  0
  2  3  1  0  0  0  0
  2  4  1  0  0  0  0
  2  5  1  0  0  0  0
  5  6  2  0  0  0  0
  5  7  1  0  0  0  0
  7  8  1  0  0  0  0
  7  9  1  0  0  0  0
  9 10  1  0  0  0  0
  9 11  1  0  0  0  0
  9 24  1  0  0  0  0
 11 12  1  0  0  0  0
 11 13  1  0  0  0  0
 11 17  1  0  0  0  0
 13 14  1  0  0  0  0
 13 15  1  0  0  0  0
 13 16  1  0  0  0  0
 17 18  1  0  0  0  0
 17 19  1  0  0  0  0
 17 20  1  0  0  0  0
 20 21  1  0  0  0  0
 20 22  1  0  0  0  0
 20 23  1  0  0  0  0
 24 25  2  0  0  0  0
 24 26  1  0  0  0  0
 26 27  1  0  0  0  0
 26 28  1  0  0  0  0
 28 29  1  0  0  0  0
 28 30  1  0  0  0  0
 28 31  1  0  0  0  0
M  END
$$$$

  -OEChem-03222214053D

 31 30  0     1  0  0  0  0  0999 V2000
   -2.4475   -4.3926    0.4288 H   0  0  0  0  0  0  0  0  0  0  0  0
   -2.5066   -3.3806    0.0178 C   0  0  0  0  0  0  0  0  0  0  0  0
   -3.2491   -2.8137    0.5844 H   0  0  0  0  0  0  0  0  0  0  0  0
   -2.8238   -3.4438   -1.0260 H   0  0  0  0  0  0  0  0  0  0  0  0
   -1.1533   -2.7010    0.1093 C   0  0  0  0  0  0  0  0  0  0  0  0
   -0.2154   -3.2841    0.6214 O   0  0  0  0  0  0  0  0  0  0  0  0
   -0.9965   -1.4246   -0.3935 N   0  0  0  0  0  0  0  0  0  0  0  0
   -1.7888   -1.0318   -0.8924 H   0  0  0  0  0  0  0  0  0  0  0  0
    0.2933   -0.7097   -0.4850 C   0  0  1  0  0  0  0  0  0  0  0  0
    0.9748   -1.3494   -1.0575 H   0  0  0  0  0  0  0  0  0  0  0  0
    0.1613    0.6657   -1.2168 C   0  0  1  0  0  0  0  0  0  0  0  0
    0.6798    1.4139   -0.6060 H   0  0  0  0  0  0  0  0  0  0  0  0
    0.9197    0.6142   -2.5535 C   0  0  0  0  0  0  0  0  0  0  0  0
    0.5232   -0.1728   -3.2027 H   0  0  0  0  0  0  0  0  0  0  0  0
    0.8438    1.5739   -3.0742 H   0  0  0  0  0  0  0  0  0  0  0  0
    1.9804    0.4089   -2.3755 H   0  0  0  0  0  0  0  0  0  0  0  0
   -1.2929    1.1943   -1.3761 C   0  0  0  0  0  0  0  0  0  0  0  0
   -1.8927    0.9327   -0.4992 H   0  0  0  0  0  0  0  0  0  0  0  0
   -1.2468    2.2883   -1.3956 H   0  0  0  0  0  0  0  0  0  0  0  0
   -2.0151    0.7562   -2.6580 C   0  0  0  0  0  0  0  0  0  0  0  0
   -2.0122   -0.3333   -2.7557 H   0  0  0  0  0  0  0  0  0  0  0  0
   -3.0543    1.0981   -2.6330 H   0  0  0  0  0  0  0  0  0  0  0  0
   -1.5397    1.1890   -3.5433 H   0  0  0  0  0  0  0  0  0  0  0  0
    0.9835   -0.5052    0.8835 C   0  0  0  0  0  0  0  0  0  0  0  0
    2.2056   -0.4989    0.9523 O   0  0  0  0  0  0  0  0  0  0  0  0
    0.2465   -0.0757    1.9725 N   0  0  0  0  0  0  0  0  0  0  0  0
   -0.7599   -0.1760    1.8977 H   0  0  0  0  0  0  0  0  0  0  0  0
    0.8357    0.1439    3.2873 C   0  0  0  0  0  0  0  0  0  0  0  0
    1.6292    0.8966    3.2324 H   0  0  0  0  0  0  0  0  0  0  0  0
    0.0744    0.4981    3.9887 H   0  0  0  0  0  0  0  0  0  0  0  0
    1.2605   -0.7879    3.6751 H   0  0  0  0  0  0  0  0  0  0  0  0
  1  2  1  0  0  0  0
  2  3  1  0  0  0  0
  2  4  1  0  0  0  0
  2  5  1  0  0  0  0
  5  6  2  0  0  0  0
  5  7  1  0  0  0  0
  7  8  1  0  0  0  0
  7  9  1  0  0  0  0
  9 10  1  0  0  0  0
  9 11  1  0  0  0  0
  9 24  1  0  0  0  0
 11 12  1  0  0  0  0
 11 13  1  0  0  0  0
 11 17  1  0  0  0  0
 13 14  1  0  0  0  0
 13 15  1  0  0  0  0
 13 16  1  0  0  0  0
 17 18  1  0  0  0  0
 17 19  1  0  0  0  0
 17 20  1  0  0  0  0
 20 21  1  0  0  0  0
 20 22  1  0  0  0  0
 20 23  1  0  0  0  0
 24 25  2  0  0  0  0
 24 26  1  0  0  0  0
 26 27  1  0  0  0  0
 26 28  1  0  0  0  0
 28 29  1  0  0  0  0
 28 30  1  0  0  0  0
 28 31  1  0  0  0  0
M  END
$$$$

  -OEChem-03222214053D

 31 30  0     1  0  0  0  0  0999 V2000
   -2.3968   -4.4203    0.4874 H   0  0  0  0  0  0  0  0  0  0  0  0
   -2.4732   -3.4071    0.0825 C   0  0  0  0  0  0  0  0  0  0  0  0
   -3.1828   -2.8391    0.6886 H   0  0  0  0  0  0  0  0  0  0  0  0
   -2.8450   -3.4666   -0.9431 H   0  0  0  0  0  0  0  0  0  0  0  0
   -1.1139   -2.7332    0.1044 C   0  0  0  0  0  0  0  0  0  0  0  0
   -0.1522   -3.3221    0.5630 O   0  0  0  0  0  0  0  0  0  0  0  0
   -0.9784   -1.4519   -0.3920 N   0  0  0  0  0  0  0  0  0  0  0  0
   -1.8054   -1.0252   -0.7967 H   0  0  0  0  0  0  0  0  0  0  0  0
    0.2949   -0.7122   -0.4801 C   0  0  1  0  0  0  0  0  0  0  0  0
    0.9884   -1.3438   -1.0469 H   0  0  0  0  0  0  0  0  0  0  0  0
    0.1651    0.6641   -1.2131 C   0  0  1  0  0  0  0  0  0  0  0  0
    0.6908    1.4138   -0.6103 H   0  0  0  0  0  0  0  0  0  0  0  0
    0.9057    0.5962   -2.5580 C   0  0  0  0  0  0  0  0  0  0  0  0
    0.4993   -0.1986   -3.1913 H   0  0  0  0  0  0  0  0  0  0  0  0
    0.8207    1.5483   -3.0911 H   0  0  0  0  0  0  0  0  0  0  0  0
    1.9689    0.3936   -2.3921 H   0  0  0  0  0  0  0  0  0  0  0  0
   -1.2723    1.2164   -1.4129 C   0  0  0  0  0  0  0  0  0  0  0  0
   -1.8072    1.1458   -0.4606 H   0  0  0  0  0  0  0  0  0  0  0  0
   -1.1995    2.2816   -1.6564 H   0  0  0  0  0  0  0  0  0  0  0  0
   -2.1177    0.5440   -2.5107 C   0  0  0  0  0  0  0  0  0  0  0  0
   -2.1531   -0.5419   -2.4135 H   0  0  0  0  0  0  0  0  0  0  0  0
   -3.1430    0.9236   -2.4683 H   0  0  0  0  0  0  0  0  0  0  0  0
   -1.7119    0.7815   -3.4988 H   0  0  0  0  0  0  0  0  0  0  0  0
    0.9754   -0.5031    0.8923 C   0  0  0  0  0  0  0  0  0  0  0  0
    2.1968   -0.4732    0.9668 O   0  0  0  0  0  0  0  0  0  0  0  0
    0.2259   -0.0951    1.9811 N   0  0  0  0  0  0  0  0  0  0  0  0
   -0.7783   -0.2106    1.9021 H   0  0  0  0  0  0  0  0  0  0  0  0
    0.8067    0.1298    3.2984 C   0  0  0  0  0  0  0  0  0  0  0  0
    1.5924    0.8909    3.2469 H   0  0  0  0  0  0  0  0  0  0  0  0
    0.0389    0.4759    3.9966 H   0  0  0  0  0  0  0  0  0  0  0  0
    1.2395   -0.7977    3.6878 H   0  0  0  0  0  0  0  0  0  0  0  0
  1  2  1  0  0  0  0
  2  3  1  0  0  0  0
  2  4  1  0  0  0  0
  2  5  1  0  0  0  0
  5  6  2  0  0  0  0
  5  7  1  0  0  0  0
  7  8  1  0  0  0  0
  7  9  1  0  0  0  0
  9 10  1  0  0  0  0
  9 11  1  0  0  0  0
  9 24  1  0  0  0  0
 11 12  1  0  0  0  0
 11 13  1  0  0  0  0
 11 17  1  0  0  0  0
 13 14  1  0  0  0  0
 13 15  1  0  0  0  0
 13 16  1  0  0  0  0
 17 18  1  0  0  0  0
 17 19  1  0  0  0  0
 17 20  1  0  0  0  0
 20 21  1  0  0  0  0
 20 22  1  0  0  0  0
 20 23  1  0  0  0  0
 24 25  2  0  0  0  0
 24 26  1  0  0  0  0
 26 27  1  0  0  0  0
 26 28  1  0  0  0  0
 28 29  1  0  0  0  0
 28 30  1  0  0  0  0
 28 31  1  0  0  0  0
M  END
$$$$

  -OEChem-03222214053D

 31 30  0     1  0  0  0  0  0999 V2000
   -2.2895   -4.5045    0.4698 H   0  0  0  0  0  0  0  0  0  0  0  0
   -2.3923   -3.4914    0.0705 C   0  0  0  0  0  0  0  0  0  0  0  0
   -3.1368   -2.9537    0.6625 H   0  0  0  0  0  0  0  0  0  0  0  0
   -2.7355   -3.5559   -0.9649 H   0  0  0  0  0  0  0  0  0  0  0  0
   -1.0594   -2.7696    0.1313 C   0  0  0  0  0  0  0  0  0  0  0  0
   -0.0920   -3.3238    0.6201 O   0  0  0  0  0  0  0  0  0  0  0  0
   -0.9560   -1.4876   -0.3713 N   0  0  0  0  0  0  0  0  0  0  0  0
   -1.7733   -1.1165   -0.8391 H   0  0  0  0  0  0  0  0  0  0  0  0
    0.2992   -0.7242   -0.4734 C   0  0  1  0  0  0  0  0  0  0  0  0
    1.0012   -1.3452   -1.0419 H   0  0  0  0  0  0  0  0  0  0  0  0
    0.1498    0.6557   -1.1986 C   0  0  1  0  0  0  0  0  0  0  0  0
    0.6914    1.4040   -0.6084 H   0  0  0  0  0  0  0  0  0  0  0  0
    0.8756    0.5761   -2.5529 C   0  0  0  0  0  0  0  0  0  0  0  0
    0.4596   -0.2187   -3.1790 H   0  0  0  0  0  0  0  0  0  0  0  0
    0.7937    1.5250   -3.0918 H   0  0  0  0  0  0  0  0  0  0  0  0
    1.9394    0.3677   -2.3974 H   0  0  0  0  0  0  0  0  0  0  0  0
   -1.2740    1.2483   -1.4114 C   0  0  0  0  0  0  0  0  0  0  0  0
   -1.7163    1.4473   -0.4299 H   0  0  0  0  0  0  0  0  0  0  0  0
   -1.1506    2.2198   -1.9017 H   0  0  0  0  0  0  0  0  0  0  0  0
   -2.2906    0.4421   -2.2401 C   0  0  0  0  0  0  0  0  0  0  0  0
   -2.8613   -0.2521   -1.6197 H   0  0  0  0  0  0  0  0  0  0  0  0
   -3.0111    1.1298   -2.6941 H   0  0  0  0  0  0  0  0  0  0  0  0
   -1.8020   -0.1140   -3.0445 H   0  0  0  0  0  0  0  0  0  0  0  0
    0.9819   -0.5007    0.8959 C   0  0  0  0  0  0  0  0  0  0  0  0
    2.2027   -0.4449    0.9657 O   0  0  0  0  0  0  0  0  0  0  0  0
    0.2284   -0.1063    1.9868 N   0  0  0  0  0  0  0  0  0  0  0  0
   -0.7738   -0.2405    1.9100 H   0  0  0  0  0  0  0  0  0  0  0  0
    0.8084    0.1336    3.3015 C   0  0  0  0  0  0  0  0  0  0  0  0
    1.5376    0.9492    3.2552 H   0  0  0  0  0  0  0  0  0  0  0  0
    0.0270    0.4102    4.0156 H   0  0  0  0  0  0  0  0  0  0  0  0
    1.3109   -0.7679    3.6676 H   0  0  0  0  0  0  0  0  0  0  0  0
  1  2  1  0  0  0  0
  2  3  1  0  0  0  0
  2  4  1  0  0  0  0
  2  5  1  0  0  0  0
  5  6  2  0  0  0  0
  5  7  1  0  0  0  0
  7  8  1  0  0  0  0
  7  9  1  0  0  0  0
  9 10  1  0  0  0  0
  9 11  1  0  0  0  0
  9 24  1  0  0  0  0
 11 12  1  0  0  0  0
 11 13  1  0  0  0  0
 11 17  1  0  0  0  0
 13 14  1  0  0  0  0
 13 15  1  0  0  0  0
 13 16  1  0  0  0  0
 17 18  1  0  0  0  0
 17 19  1  0  0  0  0
 17 20  1  0  0  0  0
 20 21  1  0  0  0  0
 20 22  1  0  0  0  0
 20 23  1  0  0  0  0
 24 25  2  0  0  0  0
 24 26  1  0  0  0  0
 26 27  1  0  0  0  0
 26 28  1  0  0  0  0
 28 29  1  0  0  0  0
 28 30  1  0  0  0  0
 28 31  1  0  0  0  0
M  END
$$$$

  -OEChem-03222214053D

 31 30  0     1  0  0  0  0  0999 V2000
   -1.8791   -4.7191    0.4090 H   0  0  0  0  0  0  0  0  0  0  0  0
   -2.0829   -3.7211    0.0103 C   0  0  0  0  0  0  0  0  0  0  0  0
   -2.8763   -3.2612    0.6040 H   0  0  0  0  0  0  0  0  0  0  0  0
   -2.4194   -3.8185   -1.0246 H   0  0  0  0  0  0  0  0  0  0  0  0
   -0.8292   -2.8689    0.0708 C   0  0  0  0  0  0  0  0  0  0  0  0
    0.2030   -3.3423    0.5092 O   0  0  0  0  0  0  0  0  0  0  0  0
   -0.8734   -1.5626   -0.3761 N   0  0  0  0  0  0  0  0  0  0  0  0
   -1.7262   -1.2827   -0.8464 H   0  0  0  0  0  0  0  0  0  0  0  0
    0.2997   -0.6817   -0.5097 C   0  0  1  0  0  0  0  0  0  0  0  0
    1.0213   -1.2205   -1.1342 H   0  0  0  0  0  0  0  0  0  0  0  0
    0.0329    0.7376   -1.1390 C   0  0  1  0  0  0  0  0  0  0  0  0
    0.6155    1.4767   -0.5764 H   0  0  0  0  0  0  0  0  0  0  0  0
    0.6378    0.7037   -2.5561 C   0  0  0  0  0  0  0  0  0  0  0  0
    0.0989   -0.0095   -3.1881 H   0  0  0  0  0  0  0  0  0  0  0  0
    0.5909    1.6911   -3.0259 H   0  0  0  0  0  0  0  0  0  0  0  0
    1.6922    0.4102   -2.5181 H   0  0  0  0  0  0  0  0  0  0  0  0
   -1.4050    1.3413   -1.2820 C   0  0  0  0  0  0  0  0  0  0  0  0
   -1.5974    1.9141   -0.3687 H   0  0  0  0  0  0  0  0  0  0  0  0
   -1.4020    2.0687   -2.1005 H   0  0  0  0  0  0  0  0  0  0  0  0
   -2.6231    0.4344   -1.4813 C   0  0  0  0  0  0  0  0  0  0  0  0
   -2.9052   -0.0603   -0.5477 H   0  0  0  0  0  0  0  0  0  0  0  0
   -3.4783    1.0387   -1.7994 H   0  0  0  0  0  0  0  0  0  0  0  0
   -2.4281   -0.3117   -2.2579 H   0  0  0  0  0  0  0  0  0  0  0  0
    1.0248   -0.4651    0.8402 C   0  0  0  0  0  0  0  0  0  0  0  0
    2.2392   -0.3111    0.8614 O   0  0  0  0  0  0  0  0  0  0  0  0
    0.2928   -0.1954    1.9828 N   0  0  0  0  0  0  0  0  0  0  0  0
   -0.6974   -0.4102    1.9394 H   0  0  0  0  0  0  0  0  0  0  0  0
    0.9105    0.0216    3.2846 C   0  0  0  0  0  0  0  0  0  0  0  0
    1.6035    0.8686    3.2447 H   0  0  0  0  0  0  0  0  0  0  0  0
    0.1446    0.2394    4.0349 H   0  0  0  0  0  0  0  0  0  0  0  0
    1.4626   -0.8705    3.5984 H   0  0  0  0  0  0  0  0  0  0  0  0
  1  2  1  0  0  0  0
  2  3  1  0  0  0  0
  2  4  1  0  0  0  0
  2  5  1  0  0  0  0
  5  6  2  0  0  0  0
  5  7  1  0  0  0  0
  7  8  1  0  0  0  0
  7  9  1  0  0  0  0
  9 10  1  0  0  0  0
  9 11  1  0  0  0  0
  9 24  1  0  0  0  0
 11 12  1  0  0  0  0
 11 13  1  0  0  0  0
 11 17  1  0  0  0  0
 13 14  1  0  0  0  0
 13 15  1  0  0  0  0
 13 16  1  0  0  0  0
 17 18  1  0  0  0  0
 17 19  1  0  0  0  0
 17 20  1  0  0  0  0
 20 21  1  0  0  0  0
 20 22  1  0  0  0  0
 20 23  1  0  0  0  0
 24 25  2  0  0  0  0
 24 26  1  0  0  0  0
 26 27  1  0  0  0  0
 26 28  1  0  0  0  0
 28 29  1  0  0  0  0
 28 30  1  0  0  0  0
 28 31  1  0  0  0  0
M  END
$$$$

  -OEChem-03222214053D

 31 30  0     1  0  0  0  0  0999 V2000
   -2.1276   -4.6257    0.5448 H   0  0  0  0  0  0  0  0  0  0  0  0
   -2.2708   -3.6261    0.1245 C   0  0  0  0  0  0  0  0  0  0  0  0
   -3.0437   -3.1107    0.6993 H   0  0  0  0  0  0  0  0  0  0  0  0
   -2.6009   -3.7256   -0.9124 H   0  0  0  0  0  0  0  0  0  0  0  0
   -0.9717   -2.8448    0.1834 C   0  0  0  0  0  0  0  0  0  0  0  0
    0.0189   -3.3543    0.6741 O   0  0  0  0  0  0  0  0  0  0  0  0
   -0.9260   -1.5625   -0.3278 N   0  0  0  0  0  0  0  0  0  0  0  0
   -1.7537   -1.2476   -0.8201 H   0  0  0  0  0  0  0  0  0  0  0  0
    0.2967   -0.7502   -0.4516 C   0  0  1  0  0  0  0  0  0  0  0  0
    1.0132   -1.3636   -1.0096 H   0  0  0  0  0  0  0  0  0  0  0  0
    0.1455    0.6425   -1.1753 C   0  0  1  0  0  0  0  0  0  0  0  0
    0.7346    1.3754   -0.6112 H   0  0  0  0  0  0  0  0  0  0  0  0
    0.8482    0.5032   -2.5399 C   0  0  0  0  0  0  0  0  0  0  0  0
    0.3136   -0.2088   -3.1770 H   0  0  0  0  0  0  0  0  0  0  0  0
    0.8953    1.4677   -3.0553 H   0  0  0  0  0  0  0  0  0  0  0  0
    1.8776    0.1527   -2.4097 H   0  0  0  0  0  0  0  0  0  0  0  0
   -1.2395    1.3337   -1.4410 C   0  0  0  0  0  0  0  0  0  0  0  0
   -1.3119    2.1597   -0.7254 H   0  0  0  0  0  0  0  0  0  0  0  0
   -1.2286    1.7945   -2.4342 H   0  0  0  0  0  0  0  0  0  0  0  0
   -2.5569    0.5638   -1.3260 C   0  0  0  0  0  0  0  0  0  0  0  0
   -2.7309    0.2331   -0.2978 H   0  0  0  0  0  0  0  0  0  0  0  0
   -3.3871    1.2203   -1.6053 H   0  0  0  0  0  0  0  0  0  0  0  0
   -2.5659   -0.2933   -2.0063 H   0  0  0  0  0  0  0  0  0  0  0  0
    0.9743   -0.5018    0.9173 C   0  0  0  0  0  0  0  0  0  0  0  0
    2.1935   -0.4143    0.9863 O   0  0  0  0  0  0  0  0  0  0  0  0
    0.2118   -0.1371    2.0125 N   0  0  0  0  0  0  0  0  0  0  0  0
   -0.7871   -0.2933    1.9338 H   0  0  0  0  0  0  0  0  0  0  0  0
    0.7864    0.1052    3.3295 C   0  0  0  0  0  0  0  0  0  0  0  0
    1.5283    0.9095    3.2825 H   0  0  0  0  0  0  0  0  0  0  0  0
    0.0041    0.3996    4.0354 H   0  0  0  0  0  0  0  0  0  0  0  0
    1.2726   -0.8009    3.7063 H   0  0  0  0  0  0  0  0  0  0  0  0
  1  2  1  0  0  0  0
  2  3  1  0  0  0  0
  2  4  1  0  0  0  0
  2  5  1  0  0  0  0
  5  6  2  0  0  0  0
  5  7  1  0  0  0  0
  7  8  1  0  0  0  0
  7  9  1  0  0  0  0
  9 10  1  0  0  0  0
  9 11  1  0  0  0  0
  9 24  1  0  0  0  0
 11 12  1  0  0  0  0
 11 13  1  0  0  0  0
 11 17  1  0  0  0  0
 13 14  1  0  0  0  0
 13 15  1  0  0  0  0
 13 16  1  0  0  0  0
 17 18  1  0  0  0  0
 17 19  1  0  0  0  0
 17 20  1  0  0  0  0
 20 21  1  0  0  0  0
 20 22  1  0  0  0  0
 20 23  1  0  0  0  0
 24 25  2  0  0  0  0
 24 26  1  0  0  0  0
 26 27  1  0  0  0  0
 26 28  1  0  0  0  0
 28 29  1  0  0  0  0
 28 30  1  0  0  0  0
 28 31  1  0  0  0  0
M  END
$$$$

  -OEChem-03222214053D

 31 30  0     1  0  0  0  0  0999 V2000
   -1.8293   -4.6883    0.8127 H   0  0  0  0  0  0  0  0  0  0  0  0
   -2.0369   -3.7338    0.3205 C   0  0  0  0  0  0  0  0  0  0  0  0
   -2.8627   -3.2422    0.8406 H   0  0  0  0  0  0  0  0  0  0  0  0
   -2.3300   -3.9291   -0.7139 H   0  0  0  0  0  0  0  0  0  0  0  0
   -0.8033   -2.8513    0.3532 C   0  0  0  0  0  0  0  0  0  0  0  0
    0.2074   -3.2443    0.9064 O   0  0  0  0  0  0  0  0  0  0  0  0
   -0.8393   -1.6096   -0.2507 N   0  0  0  0  0  0  0  0  0  0  0  0
   -1.6702   -1.3990   -0.7905 H   0  0  0  0  0  0  0  0  0  0  0  0
    0.3229   -0.7187   -0.4108 C   0  0  1  0  0  0  0  0  0  0  0  0
    1.0958   -1.3122   -0.9122 H   0  0  0  0  0  0  0  0  0  0  0  0
    0.0798    0.5986   -1.2415 C   0  0  1  0  0  0  0  0  0  0  0  0
    0.5801    1.4119   -0.7025 H   0  0  0  0  0  0  0  0  0  0  0  0
    0.8482    0.4486   -2.5676 C   0  0  0  0  0  0  0  0  0  0  0  0
    0.4149   -0.3520   -3.1757 H   0  0  0  0  0  0  0  0  0  0  0  0
    0.8162    1.3810   -3.1405 H   0  0  0  0  0  0  0  0  0  0  0  0
    1.9009    0.2133   -2.3779 H   0  0  0  0  0  0  0  0  0  0  0  0
   -1.3469    1.1591   -1.5850 C   0  0  0  0  0  0  0  0  0  0  0  0
   -1.3901    2.1693   -1.1637 H   0  0  0  0  0  0  0  0  0  0  0  0
   -1.4387    1.2769   -2.6698 H   0  0  0  0  0  0  0  0  0  0  0  0
   -2.6202    0.4467   -1.1228 C   0  0  0  0  0  0  0  0  0  0  0  0
   -2.7531   -0.5011   -1.6521 H   0  0  0  0  0  0  0  0  0  0  0  0
   -2.6037    0.2779   -0.0419 H   0  0  0  0  0  0  0  0  0  0  0  0
   -3.4887    1.0731   -1.3492 H   0  0  0  0  0  0  0  0  0  0  0  0
    0.9482   -0.3205    0.9479 C   0  0  0  0  0  0  0  0  0  0  0  0
    2.1545   -0.1280    1.0293 O   0  0  0  0  0  0  0  0  0  0  0  0
    0.1345    0.0647    1.9982 N   0  0  0  0  0  0  0  0  0  0  0  0
   -0.8464   -0.1795    1.9177 H   0  0  0  0  0  0  0  0  0  0  0  0
    0.6567    0.4724    3.2959 C   0  0  0  0  0  0  0  0  0  0  0  0
    1.3077    1.3466    3.1896 H   0  0  0  0  0  0  0  0  0  0  0  0
   -0.1651    0.7350    3.9687 H   0  0  0  0  0  0  0  0  0  0  0  0
    1.2315   -0.3421    3.7494 H   0  0  0  0  0  0  0  0  0  0  0  0
  1  2  1  0  0  0  0
  2  3  1  0  0  0  0
  2  4  1  0  0  0  0
  2  5  1  0  0  0  0
  5  6  2  0  0  0  0
  5  7  1  0  0  0  0
  7  8  1  0  0  0  0
  7  9  1  0  0  0  0
  9 10  1  0  0  0  0
  9 11  1  0  0  0  0
  9 24  1  0  0  0  0
 11 12  1  0  0  0  0
 11 13  1  0  0  0  0
 11 17  1  0  0  0  0
 13 14  1  0  0  0  0
 13 15  1  0  0  0  0
 13 16  1  0  0  0  0
 17 18  1  0  0  0  0
 17 19  1  0  0  0  0
 17 20  1  0  0  0  0
 20 21  1  0  0  0  0
 20 22  1  0  0  0  0
 20 23  1  0  0  0  0
 24 25  2  0  0  0  0
 24 26  1  0  0  0  0
 26 27  1  0  0  0  0
 26 28  1  0  0  0  0
 28 29  1  0  0  0  0
 28 30  1  0  0  0  0
 28 31  1  0  0  0  0
M  END
$$$$

  -OEChem-03222214053D

 31 30  0     1  0  0  0  0  0999 V2000
   -1.9914   -4.6869    0.3363 H   0  0  0  0  0  0  0  0  0  0  0  0
   -2.1700   -3.6754   -0.0396 C   0  0  0  0  0  0  0  0  0  0  0  0
   -2.9600   -3.2137    0.5571 H   0  0  0  0  0  0  0  0  0  0  0  0
   -2.4972   -3.7406   -1.0801 H   0  0  0  0  0  0  0  0  0  0  0  0
   -0.8991   -2.8521    0.0542 C   0  0  0  0  0  0  0  0  0  0  0  0
    0.1149   -3.3552    0.5021 O   0  0  0  0  0  0  0  0  0  0  0  0
   -0.9043   -1.5395   -0.3766 N   0  0  0  0  0  0  0  0  0  0  0  0
   -1.7422   -1.2295   -0.8553 H   0  0  0  0  0  0  0  0  0  0  0  0
    0.2934   -0.6890   -0.4864 C   0  0  1  0  0  0  0  0  0  0  0  0
    1.0061   -1.2381   -1.1122 H   0  0  0  0  0  0  0  0  0  0  0  0
    0.0557    0.7295   -1.1238 C   0  0  1  0  0  0  0  0  0  0  0  0
    0.6044    1.4451   -0.5001 H   0  0  0  0  0  0  0  0  0  0  0  0
    0.7446    0.7555   -2.4987 C   0  0  0  0  0  0  0  0  0  0  0  0
    0.2743    0.0385   -3.1792 H   0  0  0  0  0  0  0  0  0  0  0  0
    0.6801    1.7540   -2.9426 H   0  0  0  0  0  0  0  0  0  0  0  0
    1.8050    0.5004   -2.4007 H   0  0  0  0  0  0  0  0  0  0  0  0
   -1.3672    1.3628   -1.2942 C   0  0  0  0  0  0  0  0  0  0  0  0
   -1.2787    2.4166   -1.0089 H   0  0  0  0  0  0  0  0  0  0  0  0
   -1.6406    1.3506   -2.3548 H   0  0  0  0  0  0  0  0  0  0  0  0
   -2.5700    0.7883   -0.5384 C   0  0  0  0  0  0  0  0  0  0  0  0
   -2.3111    0.5812    0.5042 H   0  0  0  0  0  0  0  0  0  0  0  0
   -2.9452   -0.1196   -1.0174 H   0  0  0  0  0  0  0  0  0  0  0  0
   -3.3855    1.5183   -0.5454 H   0  0  0  0  0  0  0  0  0  0  0  0
    1.0160   -0.5031    0.8695 C   0  0  0  0  0  0  0  0  0  0  0  0
    2.2339   -0.3823    0.8980 O   0  0  0  0  0  0  0  0  0  0  0  0
    0.2857   -0.2248    2.0109 N   0  0  0  0  0  0  0  0  0  0  0  0
   -0.7097   -0.4117    1.9600 H   0  0  0  0  0  0  0  0  0  0  0  0
    0.9024   -0.0397    3.3180 C   0  0  0  0  0  0  0  0  0  0  0  0
    1.6180    0.7890    3.2913 H   0  0  0  0  0  0  0  0  0  0  0  0
    0.1390    0.1892    4.0676 H   0  0  0  0  0  0  0  0  0  0  0  0
    1.4288   -0.9501    3.6234 H   0  0  0  0  0  0  0  0  0  0  0  0
  1  2  1  0  0  0  0
  2  3  1  0  0  0  0
  2  4  1  0  0  0  0
  2  5  1  0  0  0  0
  5  6  2  0  0  0  0
  5  7  1  0  0  0  0
  7  8  1  0  0  0  0
  7  9  1  0  0  0  0
  9 10  1  0  0  0  0
  9 11  1  0  0  0  0
  9 24  1  0  0  0  0
 11 12  1  0  0  0  0
 11 13  1  0  0  0  0
 11 17  1  0  0  0  0
 13 14  1  0  0  0  0
 13 15  1  0  0  0  0
 13 16  1  0  0  0  0
 17 18  1  0  0  0  0
 17 19  1  0  0  0  0
 17 20  1  0  0  0  0
 20 21  1  0  0  0  0
 20 22  1  0  0  0  0
 20 23  1  0  0  0  0
 24 25  2  0  0  0  0
 24 26  1  0  0  0  0
 26 27  1  0  0  0  0
 26 28  1  0  0  0  0
 28 29  1  0  0  0  0
 28 30  1  0  0  0  0
 28 31  1  0  0  0  0
M  END
$$$$

  -OEChem-03222214053D

 31 30  0     1  0  0  0  0  0999 V2000
   -2.2371   -4.5515    0.4388 H   0  0  0  0  0  0  0  0  0  0  0  0
   -2.3501   -3.5428    0.0308 C   0  0  0  0  0  0  0  0  0  0  0  0
   -3.1179   -3.0158    0.6025 H   0  0  0  0  0  0  0  0  0  0  0  0
   -2.6681   -3.6198   -1.0117 H   0  0  0  0  0  0  0  0  0  0  0  0
   -1.0329   -2.7954    0.1183 C   0  0  0  0  0  0  0  0  0  0  0  0
   -0.0600   -3.3401    0.6068 O   0  0  0  0  0  0  0  0  0  0  0  0
   -0.9503   -1.5010   -0.3565 N   0  0  0  0  0  0  0  0  0  0  0  0
   -1.7596   -1.1536   -0.8601 H   0  0  0  0  0  0  0  0  0  0  0  0
    0.2979   -0.7265   -0.4643 C   0  0  1  0  0  0  0  0  0  0  0  0
    0.9922   -1.3322   -1.0580 H   0  0  0  0  0  0  0  0  0  0  0  0
    0.1293    0.6692   -1.1614 C   0  0  1  0  0  0  0  0  0  0  0  0
    0.6907    1.3916   -0.5572 H   0  0  0  0  0  0  0  0  0  0  0  0
    0.8228    0.6196   -2.5317 C   0  0  0  0  0  0  0  0  0  0  0  0
    0.3407   -0.1168   -3.1825 H   0  0  0  0  0  0  0  0  0  0  0  0
    0.7800    1.5984   -3.0200 H   0  0  0  0  0  0  0  0  0  0  0  0
    1.8768    0.3460   -2.4161 H   0  0  0  0  0  0  0  0  0  0  0  0
   -1.2747    1.3199   -1.3669 C   0  0  0  0  0  0  0  0  0  0  0  0
   -1.1256    2.4048   -1.3902 H   0  0  0  0  0  0  0  0  0  0  0  0
   -1.6633    1.0322   -2.3497 H   0  0  0  0  0  0  0  0  0  0  0  0
   -2.3836    1.0218   -0.3487 C   0  0  0  0  0  0  0  0  0  0  0  0
   -1.9776    0.9932    0.6666 H   0  0  0  0  0  0  0  0  0  0  0  0
   -3.1375    1.8140   -0.3909 H   0  0  0  0  0  0  0  0  0  0  0  0
   -2.8943    0.0811   -0.5659 H   0  0  0  0  0  0  0  0  0  0  0  0
    1.0063   -0.5301    0.8972 C   0  0  0  0  0  0  0  0  0  0  0  0
    2.2283   -0.4711    0.9427 O   0  0  0  0  0  0  0  0  0  0  0  0
    0.2746   -0.1668    2.0134 N   0  0  0  0  0  0  0  0  0  0  0  0
   -0.7285   -0.3043    1.9532 H   0  0  0  0  0  0  0  0  0  0  0  0
    0.8798    0.0454    3.3215 C   0  0  0  0  0  0  0  0  0  0  0  0
    1.6345    0.8372    3.2709 H   0  0  0  0  0  0  0  0  0  0  0  0
    0.1172    0.3433    4.0472 H   0  0  0  0  0  0  0  0  0  0  0  0
    1.3571   -0.8746    3.6752 H   0  0  0  0  0  0  0  0  0  0  0  0
  1  2  1  0  0  0  0
  2  3  1  0  0  0  0
  2  4  1  0  0  0  0
  2  5  1  0  0  0  0
  5  6  2  0  0  0  0
  5  7  1  0  0  0  0
  7  8  1  0  0  0  0
  7  9  1  0  0  0  0
  9 10  1  0  0  0  0
  9 11  1  0  0  0  0
  9 24  1  0  0  0  0
 11 12  1  0  0  0  0
 11 13  1  0  0  0  0
 11 17  1  0  0  0  0
 13 14  1  0  0  0  0
 13 15  1  0  0  0  0
 13 16  1  0  0  0  0
 17 18  1  0  0  0  0
 17 19  1  0  0  0  0
 17 20  1  0  0  0  0
 20 21  1  0  0  0  0
 20 22  1  0  0  0  0
 20 23  1  0  0  0  0
 24 25  2  0  0  0  0
 24 26  1  0  0  0  0
 26 27  1  0  0  0  0
 26 28  1  0  0  0  0
 28 29  1  0  0  0  0
 28 30  1  0  0  0  0
 28 31  1  0  0  0  0
M  END
$$$$

  -OEChem-03222214053D

 31 30  0     1  0  0  0  0  0999 V2000
   -2.3117   -4.4873    0.4123 H   0  0  0  0  0  0  0  0  0  0  0  0
   -2.4035   -3.4716    0.0165 C   0  0  0  0  0  0  0  0  0  0  0  0
   -3.1515   -2.9322    0.6023 H   0  0  0  0  0  0  0  0  0  0  0  0
   -2.7349   -3.5289   -1.0230 H   0  0  0  0  0  0  0  0  0  0  0  0
   -1.0669   -2.7581    0.0967 C   0  0  0  0  0  0  0  0  0  0  0  0
   -0.1048   -3.3270    0.5790 O   0  0  0  0  0  0  0  0  0  0  0  0
   -0.9537   -1.4658   -0.3765 N   0  0  0  0  0  0  0  0  0  0  0  0
   -1.7633   -1.0836   -0.8546 H   0  0  0  0  0  0  0  0  0  0  0  0
    0.3087   -0.7112   -0.4645 C   0  0  1  0  0  0  0  0  0  0  0  0
    1.0034   -1.3236   -1.0511 H   0  0  0  0  0  0  0  0  0  0  0  0
    0.1474    0.6778   -1.1685 C   0  0  1  0  0  0  0  0  0  0  0  0
    0.7073    1.4111   -0.5761 H   0  0  0  0  0  0  0  0  0  0  0  0
    0.8208    0.6140   -2.5478 C   0  0  0  0  0  0  0  0  0  0  0  0
    0.3326   -0.1323   -3.1828 H   0  0  0  0  0  0  0  0  0  0  0  0
    0.7672    1.5862   -3.0480 H   0  0  0  0  0  0  0  0  0  0  0  0
    1.8774    0.3459   -2.4435 H   0  0  0  0  0  0  0  0  0  0  0  0
   -1.2704    1.2863   -1.3679 C   0  0  0  0  0  0  0  0  0  0  0  0
   -1.1429    2.3368   -1.6502 H   0  0  0  0  0  0  0  0  0  0  0  0
   -1.7648    0.7847   -2.2064 H   0  0  0  0  0  0  0  0  0  0  0  0
   -2.2231    1.2353   -0.1634 C   0  0  0  0  0  0  0  0  0  0  0  0
   -1.6928    1.5143    0.7520 H   0  0  0  0  0  0  0  0  0  0  0  0
   -3.0371    1.9507   -0.3164 H   0  0  0  0  0  0  0  0  0  0  0  0
   -2.6804    0.2542   -0.0277 H   0  0  0  0  0  0  0  0  0  0  0  0
    1.0060   -0.5201    0.9030 C   0  0  0  0  0  0  0  0  0  0  0  0
    2.2283   -0.4846    0.9610 O   0  0  0  0  0  0  0  0  0  0  0  0
    0.2710   -0.1414    2.0119 N   0  0  0  0  0  0  0  0  0  0  0  0
   -0.7344   -0.2544    1.9415 H   0  0  0  0  0  0  0  0  0  0  0  0
    0.8684    0.0590    3.3258 C   0  0  0  0  0  0  0  0  0  0  0  0
    1.6393    0.8357    3.2830 H   0  0  0  0  0  0  0  0  0  0  0  0
    0.1052    0.3717    4.0446 H   0  0  0  0  0  0  0  0  0  0  0  0
    1.3241   -0.8702    3.6836 H   0  0  0  0  0  0  0  0  0  0  0  0
  1  2  1  0  0  0  0
  2  3  1  0  0  0  0
  2  4  1  0  0  0  0
  2  5  1  0  0  0  0
  5  6  2  0  0  0  0
  5  7  1  0  0  0  0
  7  8  1  0  0  0  0
  7  9  1  0  0  0  0
  9 10  1  0  0  0  0
  9 11  1  0  0  0  0
  9 24  1  0  0  0  0
 11 12  1  0  0  0  0
 11 13  1  0  0  0  0
 11 17  1  0  0  0  0
 13 14  1  0  0  0  0
 13 15  1  0  0  0  0
 13 16  1  0  0  0  0
 17 18  1  0  0  0  0
 17 19  1  0  0  0  0
 17 20  1  0  0  0  0
 20 21  1  0  0  0  0
 20 22  1  0  0  0  0
 20 23  1  0  0  0  0
 24 25  2  0  0  0  0
 24 26  1  0  0  0  0
 26 27  1  0  0  0  0
 26 28  1  0  0  0  0
 28 29  1  0  0  0  0
 28 30  1  0  0  0  0
 28 31  1  0  0  0  0
M  END
$$$$

  -OEChem-03222214053D

 31 30  0     1  0  0  0  0  0999 V2000
   -2.3753   -4.4287    0.3862 H   0  0  0  0  0  0  0  0  0  0  0  0
   -2.4488   -3.4097   -0.0044 C   0  0  0  0  0  0  0  0  0  0  0  0
   -3.1790   -2.8566    0.5910 H   0  0  0  0  0  0  0  0  0  0  0  0
   -2.7912   -3.4554   -1.0410 H   0  0  0  0  0  0  0  0  0  0  0  0
   -1.0966   -2.7255    0.0656 C   0  0  0  0  0  0  0  0  0  0  0  0
   -0.1420   -3.3158    0.5371 O   0  0  0  0  0  0  0  0  0  0  0  0
   -0.9594   -1.4355   -0.4069 N   0  0  0  0  0  0  0  0  0  0  0  0
   -1.7731   -1.0194   -0.8487 H   0  0  0  0  0  0  0  0  0  0  0  0
    0.3163   -0.6960   -0.4744 C   0  0  1  0  0  0  0  0  0  0  0  0
    1.0139   -1.3132   -1.0523 H   0  0  0  0  0  0  0  0  0  0  0  0
    0.1700    0.6936   -1.1758 C   0  0  1  0  0  0  0  0  0  0  0  0
    0.7354    1.4351   -0.5993 H   0  0  0  0  0  0  0  0  0  0  0  0
    0.8204    0.6130   -2.5652 C   0  0  0  0  0  0  0  0  0  0  0  0
    0.3106   -0.1285   -3.1887 H   0  0  0  0  0  0  0  0  0  0  0  0
    0.7749    1.5833   -3.0695 H   0  0  0  0  0  0  0  0  0  0  0  0
    1.8743    0.3287   -2.4763 H   0  0  0  0  0  0  0  0  0  0  0  0
   -1.2639    1.2537   -1.3591 C   0  0  0  0  0  0  0  0  0  0  0  0
   -1.1963    2.2217   -1.8669 H   0  0  0  0  0  0  0  0  0  0  0  0
   -1.8443    0.5895   -2.0076 H   0  0  0  0  0  0  0  0  0  0  0  0
   -2.0258    1.4667   -0.0428 C   0  0  0  0  0  0  0  0  0  0  0  0
   -1.4354    2.0905    0.6360 H   0  0  0  0  0  0  0  0  0  0  0  0
   -2.9716    1.9792   -0.2442 H   0  0  0  0  0  0  0  0  0  0  0  0
   -2.2566    0.5277    0.4627 H   0  0  0  0  0  0  0  0  0  0  0  0
    0.9952   -0.5100    0.9026 C   0  0  0  0  0  0  0  0  0  0  0  0
    2.2166   -0.4889    0.9794 O   0  0  0  0  0  0  0  0  0  0  0  0
    0.2483   -0.1191    1.9993 N   0  0  0  0  0  0  0  0  0  0  0  0
   -0.7575   -0.2147    1.9140 H   0  0  0  0  0  0  0  0  0  0  0  0
    0.8278    0.0847    3.3205 C   0  0  0  0  0  0  0  0  0  0  0  0
    1.6014    0.8589    3.2848 H   0  0  0  0  0  0  0  0  0  0  0  0
    0.0557    0.4024    4.0277 H   0  0  0  0  0  0  0  0  0  0  0  0
    1.2758   -0.8447    3.6881 H   0  0  0  0  0  0  0  0  0  0  0  0
  1  2  1  0  0  0  0
  2  3  1  0  0  0  0
  2  4  1  0  0  0  0
  2  5  1  0  0  0  0
  5  6  2  0  0  0  0
  5  7  1  0  0  0  0
  7  8  1  0  0  0  0
  7  9  1  0  0  0  0
  9 10  1  0  0  0  0
  9 11  1  0  0  0  0
  9 24  1  0  0  0  0
 11 12  1  0  0  0  0
 11 13  1  0  0  0  0
 11 17  1  0  0  0  0
 13 14  1  0  0  0  0
 13 15  1  0  0  0  0
 13 16  1  0  0  0  0
 17 18  1  0  0  0  0
 17 19  1  0  0  0  0
 17 20  1  0  0  0  0
 20 21  1  0  0  0  0
 20 22  1  0  0  0  0
 20 23  1  0  0  0  0
 24 25  2  0  0  0  0
 24 26  1  0  0  0  0
 26 27  1  0  0  0  0
 26 28  1  0  0  0  0
 28 29  1  0  0  0  0
 28 30  1  0  0  0  0
 28 31  1  0  0  0  0
M  END
$$$$

  -OEChem-03222214053D

 31 30  0     1  0  0  0  0  0999 V2000
   -2.3848   -4.4130    0.3797 H   0  0  0  0  0  0  0  0  0  0  0  0
   -2.4615   -3.3915   -0.0038 C   0  0  0  0  0  0  0  0  0  0  0  0
   -3.1811   -2.8400    0.6061 H   0  0  0  0  0  0  0  0  0  0  0  0
   -2.8200   -3.4301   -1.0351 H   0  0  0  0  0  0  0  0  0  0  0  0
   -1.1061   -2.7119    0.0494 C   0  0  0  0  0  0  0  0  0  0  0  0
   -0.1479   -3.3062    0.5084 O   0  0  0  0  0  0  0  0  0  0  0  0
   -0.9708   -1.4195   -0.4174 N   0  0  0  0  0  0  0  0  0  0  0  0
   -1.7916   -0.9939   -0.8354 H   0  0  0  0  0  0  0  0  0  0  0  0
    0.3053   -0.6770   -0.4746 C   0  0  1  0  0  0  0  0  0  0  0  0
    1.0056   -1.2968   -1.0463 H   0  0  0  0  0  0  0  0  0  0  0  0
    0.1710    0.7112   -1.1817 C   0  0  1  0  0  0  0  0  0  0  0  0
    0.7378    1.4601   -0.6161 H   0  0  0  0  0  0  0  0  0  0  0  0
    0.8206    0.6102   -2.5708 C   0  0  0  0  0  0  0  0  0  0  0  0
    0.2979   -0.1266   -3.1890 H   0  0  0  0  0  0  0  0  0  0  0  0
    0.7928    1.5775   -3.0822 H   0  0  0  0  0  0  0  0  0  0  0  0
    1.8694    0.3091   -2.4800 H   0  0  0  0  0  0  0  0  0  0  0  0
   -1.2723    1.2410   -1.3718 C   0  0  0  0  0  0  0  0  0  0  0  0
   -1.2466    2.0859   -2.0683 H   0  0  0  0  0  0  0  0  0  0  0  0
   -1.9216    0.4854   -1.8230 H   0  0  0  0  0  0  0  0  0  0  0  0
   -1.8714    1.7590   -0.0620 C   0  0  0  0  0  0  0  0  0  0  0  0
   -1.2218    2.5195    0.3831 H   0  0  0  0  0  0  0  0  0  0  0  0
   -2.8507    2.2091   -0.2510 H   0  0  0  0  0  0  0  0  0  0  0  0
   -2.0017    0.9457    0.6564 H   0  0  0  0  0  0  0  0  0  0  0  0
    0.9803   -0.4931    0.9046 C   0  0  0  0  0  0  0  0  0  0  0  0
    2.2015   -0.4707    0.9837 O   0  0  0  0  0  0  0  0  0  0  0  0
    0.2329   -0.1067    2.0024 N   0  0  0  0  0  0  0  0  0  0  0  0
   -0.7730   -0.2010    1.9162 H   0  0  0  0  0  0  0  0  0  0  0  0
    0.8123    0.0930    3.3246 C   0  0  0  0  0  0  0  0  0  0  0  0
    1.5874    0.8658    3.2912 H   0  0  0  0  0  0  0  0  0  0  0  0
    0.0404    0.4105    4.0318 H   0  0  0  0  0  0  0  0  0  0  0  0
    1.2582   -0.8378    3.6904 H   0  0  0  0  0  0  0  0  0  0  0  0
  1  2  1  0  0  0  0
  2  3  1  0  0  0  0
  2  4  1  0  0  0  0
  2  5  1  0  0  0  0
  5  6  2  0  0  0  0
  5  7  1  0  0  0  0
  7  8  1  0  0  0  0
  7  9  1  0  0  0  0
  9 10  1  0  0  0  0
  9 11  1  0  0  0  0
  9 24  1  0  0  0  0
 11 12  1  0  0  0  0
 11 13  1  0  0  0  0
 11 17  1  0  0  0  0
 13 14  1  0  0  0  0
 13 15  1  0  0  0  0
 13 16  1  0  0  0  0
 17 18  1  0  0  0  0
 17 19  1  0  0  0  0
 17 20  1  0  0  0  0
 20 21  1  0  0  0  0
 20 22  1  0  0  0  0
 20 23  1  0  0  0  0
 24 25  2  0  0  0  0
 24 26  1  0  0  0  0
 26 27  1  0  0  0  0
 26 28  1  0  0  0  0
 28 29  1  0  0  0  0
 28 30  1  0  0  0  0
 28 31  1  0  0  0  0
M  END
$$$$

  -OEChem-03222214053D

 31 30  0     1  0  0  0  0  0999 V2000
   -2.3579   -4.4431    0.3683 H   0  0  0  0  0  0  0  0  0  0  0  0
   -2.4471   -3.4201   -0.0082 C   0  0  0  0  0  0  0  0  0  0  0  0
   -3.1836   -2.8858    0.5965 H   0  0  0  0  0  0  0  0  0  0  0  0
   -2.7919   -3.4568   -1.0444 H   0  0  0  0  0  0  0  0  0  0  0  0
   -1.1045   -2.7183    0.0676 C   0  0  0  0  0  0  0  0  0  0  0  0
   -0.1461   -3.2949    0.5482 O   0  0  0  0  0  0  0  0  0  0  0  0
   -0.9819   -1.4279   -0.4090 N   0  0  0  0  0  0  0  0  0  0  0  0
   -1.7982   -1.0312   -0.8616 H   0  0  0  0  0  0  0  0  0  0  0  0
    0.2889   -0.6778   -0.4799 C   0  0  1  0  0  0  0  0  0  0  0  0
    0.9898   -1.2988   -1.0494 H   0  0  0  0  0  0  0  0  0  0  0  0
    0.1595    0.7151   -1.1834 C   0  0  1  0  0  0  0  0  0  0  0  0
    0.7465    1.4570   -0.6293 H   0  0  0  0  0  0  0  0  0  0  0  0
    0.8028    0.5980   -2.5753 C   0  0  0  0  0  0  0  0  0  0  0  0
    0.2591   -0.1246   -3.1927 H   0  0  0  0  0  0  0  0  0  0  0  0
    0.8006    1.5664   -3.0857 H   0  0  0  0  0  0  0  0  0  0  0  0
    1.8441    0.2707   -2.4882 H   0  0  0  0  0  0  0  0  0  0  0  0
   -1.2815    1.2653   -1.3705 C   0  0  0  0  0  0  0  0  0  0  0  0
   -1.2985    1.9340   -2.2377 H   0  0  0  0  0  0  0  0  0  0  0  0
   -2.0122    0.4824   -1.5819 H   0  0  0  0  0  0  0  0  0  0  0  0
   -1.7133    2.1035   -0.1665 C   0  0  0  0  0  0  0  0  0  0  0  0
   -1.0127    2.9275    0.0018 H   0  0  0  0  0  0  0  0  0  0  0  0
   -2.7075    2.5262   -0.3404 H   0  0  0  0  0  0  0  0  0  0  0  0
   -1.7527    1.4870    0.7358 H   0  0  0  0  0  0  0  0  0  0  0  0
    0.9627   -0.4868    0.8989 C   0  0  0  0  0  0  0  0  0  0  0  0
    2.1838   -0.4549    0.9783 O   0  0  0  0  0  0  0  0  0  0  0  0
    0.2103   -0.1017    1.9938 N   0  0  0  0  0  0  0  0  0  0  0  0
   -0.7941   -0.2118    1.9077 H   0  0  0  0  0  0  0  0  0  0  0  0
    0.7865    0.1036    3.3164 C   0  0  0  0  0  0  0  0  0  0  0  0
    1.5407    0.8971    3.2870 H   0  0  0  0  0  0  0  0  0  0  0  0
    0.0078    0.3947    4.0276 H   0  0  0  0  0  0  0  0  0  0  0  0
    1.2579   -0.8176    3.6746 H   0  0  0  0  0  0  0  0  0  0  0  0
  1  2  1  0  0  0  0
  2  3  1  0  0  0  0
  2  4  1  0  0  0  0
  2  5  1  0  0  0  0
  5  6  2  0  0  0  0
  5  7  1  0  0  0  0
  7  8  1  0  0  0  0
  7  9  1  0  0  0  0
  9 10  1  0  0  0  0
  9 11  1  0  0  0  0
  9 24  1  0  0  0  0
 11 12  1  0  0  0  0
 11 13  1  0  0  0  0
 11 17  1  0  0  0  0
 13 14  1  0  0  0  0
 13 15  1  0  0  0  0
 13 16  1  0  0  0  0
 17 18  1  0  0  0  0
 17 19  1  0  0  0  0
 17 20  1  0  0  0  0
 20 21  1  0  0  0  0
 20 22  1  0  0  0  0
 20 23  1  0  0  0  0
 24 25  2  0  0  0  0
 24 26  1  0  0  0  0
 26 27  1  0  0  0  0
 26 28  1  0  0  0  0
 28 29  1  0  0  0  0
 28 30  1  0  0  0  0
 28 31  1  0  0  0  0
M  END
$$$$

  -OEChem-03222214053D

 31 30  0     1  0  0  0  0  0999 V2000
   -2.3318   -4.4742    0.3774 H   0  0  0  0  0  0  0  0  0  0  0  0
   -2.4309   -3.4578   -0.0146 C   0  0  0  0  0  0  0  0  0  0  0  0
   -3.1953   -2.9316    0.5623 H   0  0  0  0  0  0  0  0  0  0  0  0
   -2.7453   -3.5144   -1.0596 H   0  0  0  0  0  0  0  0  0  0  0  0
   -1.1055   -2.7274    0.0907 C   0  0  0  0  0  0  0  0  0  0  0  0
   -0.1500   -3.2810    0.6029 O   0  0  0  0  0  0  0  0  0  0  0  0
   -0.9935   -1.4418   -0.4022 N   0  0  0  0  0  0  0  0  0  0  0  0
   -1.7921   -1.0883   -0.9178 H   0  0  0  0  0  0  0  0  0  0  0  0
    0.2741   -0.6871   -0.4884 C   0  0  1  0  0  0  0  0  0  0  0  0
    0.9758   -1.3067   -1.0583 H   0  0  0  0  0  0  0  0  0  0  0  0
    0.1420    0.7111   -1.1844 C   0  0  1  0  0  0  0  0  0  0  0  0
    0.7445    1.4418   -0.6319 H   0  0  0  0  0  0  0  0  0  0  0  0
    0.7819    0.5976   -2.5788 C   0  0  0  0  0  0  0  0  0  0  0  0
    0.2350   -0.1206   -3.1983 H   0  0  0  0  0  0  0  0  0  0  0  0
    0.7809    1.5687   -3.0840 H   0  0  0  0  0  0  0  0  0  0  0  0
    1.8226    0.2669   -2.4962 H   0  0  0  0  0  0  0  0  0  0  0  0
   -1.2959    1.2868   -1.3605 C   0  0  0  0  0  0  0  0  0  0  0  0
   -1.4020    1.7217   -2.3599 H   0  0  0  0  0  0  0  0  0  0  0  0
   -2.0798    0.5346   -1.2757 H   0  0  0  0  0  0  0  0  0  0  0  0
   -1.5555    2.4061   -0.3511 C   0  0  0  0  0  0  0  0  0  0  0  0
   -0.8354    3.2198   -0.4839 H   0  0  0  0  0  0  0  0  0  0  0  0
   -2.5627    2.8109   -0.4892 H   0  0  0  0  0  0  0  0  0  0  0  0
   -1.4706    2.0261    0.6715 H   0  0  0  0  0  0  0  0  0  0  0  0
    0.9472   -0.4819    0.8888 C   0  0  0  0  0  0  0  0  0  0  0  0
    2.1682   -0.4442    0.9688 O   0  0  0  0  0  0  0  0  0  0  0  0
    0.1905   -0.0894    1.9784 N   0  0  0  0  0  0  0  0  0  0  0  0
   -0.8132   -0.2059    1.8905 H   0  0  0  0  0  0  0  0  0  0  0  0
    0.7622    0.1241    3.3015 C   0  0  0  0  0  0  0  0  0  0  0  0
    1.5245    0.9097    3.2682 H   0  0  0  0  0  0  0  0  0  0  0  0
   -0.0169    0.4306    4.0060 H   0  0  0  0  0  0  0  0  0  0  0  0
    1.2224   -0.7983    3.6712 H   0  0  0  0  0  0  0  0  0  0  0  0
  1  2  1  0  0  0  0
  2  3  1  0  0  0  0
  2  4  1  0  0  0  0
  2  5  1  0  0  0  0
  5  6  2  0  0  0  0
  5  7  1  0  0  0  0
  7  8  1  0  0  0  0
  7  9  1  0  0  0  0
  9 10  1  0  0  0  0
  9 11  1  0  0  0  0
  9 24  1  0  0  0  0
 11 12  1  0  0  0  0
 11 13  1  0  0  0  0
 11 17  1  0  0  0  0
 13 14  1  0  0  0  0
 13 15  1  0  0  0  0
 13 16  1  0  0  0  0
 17 18  1  0  0  0  0
 17 19  1  0  0  0  0
 17 20  1  0  0  0  0
 20 21  1  0  0  0  0
 20 22  1  0  0  0  0
 20 23  1  0  0  0  0
 24 25  2  0  0  0  0
 24 26  1  0  0  0  0
 26 27  1  0  0  0  0
 26 28  1  0  0  0  0
 28 29  1  0  0  0  0
 28 30  1  0  0  0  0
 28 31  1  0  0  0  0
M  END
$$$$

  -OEChem-03222214053D

 31 30  0     1  0  0  0  0  0999 V2000
   -2.3358   -4.4771    0.3864 H   0  0  0  0  0  0  0  0  0  0  0  0
   -2.4326   -3.4646   -0.0158 C   0  0  0  0  0  0  0  0  0  0  0  0
   -3.2052   -2.9351    0.5467 H   0  0  0  0  0  0  0  0  0  0  0  0
   -2.7337   -3.5312   -1.0640 H   0  0  0  0  0  0  0  0  0  0  0  0
   -1.1103   -2.7294    0.0991 C   0  0  0  0  0  0  0  0  0  0  0  0
   -0.1579   -3.2767    0.6239 O   0  0  0  0  0  0  0  0  0  0  0  0
   -0.9989   -1.4454   -0.3984 N   0  0  0  0  0  0  0  0  0  0  0  0
   -1.7911   -1.1021   -0.9317 H   0  0  0  0  0  0  0  0  0  0  0  0
    0.2689   -0.6918   -0.4905 C   0  0  1  0  0  0  0  0  0  0  0  0
    0.9688   -1.3092   -1.0648 H   0  0  0  0  0  0  0  0  0  0  0  0
    0.1266    0.7043   -1.1890 C   0  0  1  0  0  0  0  0  0  0  0  0
    0.7204    1.4305   -0.6211 H   0  0  0  0  0  0  0  0  0  0  0  0
    0.7774    0.6169   -2.5790 C   0  0  0  0  0  0  0  0  0  0  0  0
    0.2576   -0.1154   -3.2050 H   0  0  0  0  0  0  0  0  0  0  0  0
    0.7460    1.5903   -3.0787 H   0  0  0  0  0  0  0  0  0  0  0  0
    1.8272    0.3181   -2.4910 H   0  0  0  0  0  0  0  0  0  0  0  0
   -1.3141    1.2793   -1.3589 C   0  0  0  0  0  0  0  0  0  0  0  0
   -1.5468    1.4259   -2.4188 H   0  0  0  0  0  0  0  0  0  0  0  0
   -2.0852    0.6219   -0.9576 H   0  0  0  0  0  0  0  0  0  0  0  0
   -1.4468    2.6206   -0.6355 C   0  0  0  0  0  0  0  0  0  0  0  0
   -0.7372    3.3477   -1.0430 H   0  0  0  0  0  0  0  0  0  0  0  0
   -2.4588    3.0176   -0.7609 H   0  0  0  0  0  0  0  0  0  0  0  0
   -1.2511    2.5002    0.4348 H   0  0  0  0  0  0  0  0  0  0  0  0
    0.9460   -0.4826    0.8843 C   0  0  0  0  0  0  0  0  0  0  0  0
    2.1673   -0.4485    0.9617 O   0  0  0  0  0  0  0  0  0  0  0  0
    0.1911   -0.0862    1.9735 N   0  0  0  0  0  0  0  0  0  0  0  0
   -0.8124   -0.2053    1.8880 H   0  0  0  0  0  0  0  0  0  0  0  0
    0.7645    0.1327    3.2947 C   0  0  0  0  0  0  0  0  0  0  0  0
    1.5349    0.9100    3.2548 H   0  0  0  0  0  0  0  0  0  0  0  0
   -0.0116    0.4537    3.9957 H   0  0  0  0  0  0  0  0  0  0  0  0
    1.2149   -0.7911    3.6728 H   0  0  0  0  0  0  0  0  0  0  0  0
  1  2  1  0  0  0  0
  2  3  1  0  0  0  0
  2  4  1  0  0  0  0
  2  5  1  0  0  0  0
  5  6  2  0  0  0  0
  5  7  1  0  0  0  0
  7  8  1  0  0  0  0
  7  9  1  0  0  0  0
  9 10  1  0  0  0  0
  9 11  1  0  0  0  0
  9 24  1  0  0  0  0
 11 12  1  0  0  0  0
 11 13  1  0  0  0  0
 11 17  1  0  0  0  0
 13 14  1  0  0  0  0
 13 15  1  0  0  0  0
 13 16  1  0  0  0  0
 17 18  1  0  0  0  0
 17 19  1  0  0  0  0
 17 20  1  0  0  0  0
 20 21  1  0  0  0  0
 20 22  1  0  0  0  0
 20 23  1  0  0  0  0
 24 25  2  0  0  0  0
 24 26  1  0  0  0  0
 26 27  1  0  0  0  0
 26 28  1  0  0  0  0
 28 29  1  0  0  0  0
 28 30  1  0  0  0  0
 28 31  1  0  0  0  0
M  END
$$$$

  -OEChem-03222214053D

 31 30  0     1  0  0  0  0  0999 V2000
   -2.3612   -4.4574    0.3807 H   0  0  0  0  0  0  0  0  0  0  0  0
   -2.4497   -3.4432   -0.0195 C   0  0  0  0  0  0  0  0  0  0  0  0
   -3.2173   -2.9082    0.5447 H   0  0  0  0  0  0  0  0  0  0  0  0
   -2.7527   -3.5051   -1.0674 H   0  0  0  0  0  0  0  0  0  0  0  0
   -1.1215   -2.7190    0.0955 C   0  0  0  0  0  0  0  0  0  0  0  0
   -0.1737   -3.2740    0.6204 O   0  0  0  0  0  0  0  0  0  0  0  0
   -0.9998   -1.4353   -0.3998 N   0  0  0  0  0  0  0  0  0  0  0  0
   -1.7915   -1.0797   -0.9262 H   0  0  0  0  0  0  0  0  0  0  0  0
    0.2731   -0.6892   -0.4879 C   0  0  1  0  0  0  0  0  0  0  0  0
    0.9711   -1.3069   -1.0645 H   0  0  0  0  0  0  0  0  0  0  0  0
    0.1240    0.6999   -1.1935 C   0  0  1  0  0  0  0  0  0  0  0  0
    0.6983    1.4298   -0.6107 H   0  0  0  0  0  0  0  0  0  0  0  0
    0.7808    0.6346   -2.5809 C   0  0  0  0  0  0  0  0  0  0  0  0
    0.2835   -0.1102   -3.2105 H   0  0  0  0  0  0  0  0  0  0  0  0
    0.7228    1.6077   -3.0786 H   0  0  0  0  0  0  0  0  0  0  0  0
    1.8377    0.3633   -2.4897 H   0  0  0  0  0  0  0  0  0  0  0  0
   -1.3235    1.2487   -1.3567 C   0  0  0  0  0  0  0  0  0  0  0  0
   -1.6816    1.1043   -2.3816 H   0  0  0  0  0  0  0  0  0  0  0  0
   -2.0250    0.7426   -0.6903 H   0  0  0  0  0  0  0  0  0  0  0  0
   -1.3891    2.7304   -0.9798 C   0  0  0  0  0  0  0  0  0  0  0  0
   -0.7213    3.3178   -1.6177 H   0  0  0  0  0  0  0  0  0  0  0  0
   -2.4089    3.1065   -1.1069 H   0  0  0  0  0  0  0  0  0  0  0  0
   -1.0944    2.8753    0.0647 H   0  0  0  0  0  0  0  0  0  0  0  0
    0.9535   -0.4824    0.8857 C   0  0  0  0  0  0  0  0  0  0  0  0
    2.1750   -0.4549    0.9604 O   0  0  0  0  0  0  0  0  0  0  0  0
    0.2040   -0.0805    1.9768 N   0  0  0  0  0  0  0  0  0  0  0  0
   -0.8006   -0.1944    1.8952 H   0  0  0  0  0  0  0  0  0  0  0  0
    0.7839    0.1353    3.2961 C   0  0  0  0  0  0  0  0  0  0  0  0
    1.5593    0.9075    3.2530 H   0  0  0  0  0  0  0  0  0  0  0  0
    0.0124    0.4618    3.9999 H   0  0  0  0  0  0  0  0  0  0  0  0
    1.2297   -0.7914    3.6729 H   0  0  0  0  0  0  0  0  0  0  0  0
  1  2  1  0  0  0  0
  2  3  1  0  0  0  0
  2  4  1  0  0  0  0
  2  5  1  0  0  0  0
  5  6  2  0  0  0  0
  5  7  1  0  0  0  0
  7  8  1  0  0  0  0
  7  9  1  0  0  0  0
  9 10  1  0  0  0  0
  9 11  1  0  0  0  0
  9 24  1  0  0  0  0
 11 12  1  0  0  0  0
 11 13  1  0  0  0  0
 11 17  1  0  0  0  0
 13 14  1  0  0  0  0
 13 15  1  0  0  0  0
 13 16  1  0  0  0  0
 17 18  1  0  0  0  0
 17 19  1  0  0  0  0
 17 20  1  0  0  0  0
 20 21  1  0  0  0  0
 20 22  1  0  0  0  0
 20 23  1  0  0  0  0
 24 25  2  0  0  0  0
 24 26  1  0  0  0  0
 26 27  1  0  0  0  0
 26 28  1  0  0  0  0
 28 29  1  0  0  0  0
 28 30  1  0  0  0  0
 28 31  1  0  0  0  0
M  END
$$$$

  -OEChem-03222214053D

 31 30  0     1  0  0  0  0  0999 V2000
   -2.3903   -4.4224    0.3817 H   0  0  0  0  0  0  0  0  0  0  0  0
   -2.4682   -3.4069   -0.0172 C   0  0  0  0  0  0  0  0  0  0  0  0
   -3.2210   -2.8606    0.5559 H   0  0  0  0  0  0  0  0  0  0  0  0
   -2.7840   -3.4642   -1.0617 H   0  0  0  0  0  0  0  0  0  0  0  0
   -1.1279   -2.7030    0.0829 C   0  0  0  0  0  0  0  0  0  0  0  0
   -0.1822   -3.2722    0.5963 O   0  0  0  0  0  0  0  0  0  0  0  0
   -0.9927   -1.4200   -0.4103 N   0  0  0  0  0  0  0  0  0  0  0  0
   -1.7876   -1.0439   -0.9176 H   0  0  0  0  0  0  0  0  0  0  0  0
    0.2868   -0.6837   -0.4908 C   0  0  1  0  0  0  0  0  0  0  0  0
    0.9835   -1.3036   -1.0667 H   0  0  0  0  0  0  0  0  0  0  0  0
    0.1373    0.7025   -1.1973 C   0  0  1  0  0  0  0  0  0  0  0  0
    0.6967    1.4415   -0.6113 H   0  0  0  0  0  0  0  0  0  0  0  0
    0.7927    0.6359   -2.5859 C   0  0  0  0  0  0  0  0  0  0  0  0
    0.2963   -0.1120   -3.2124 H   0  0  0  0  0  0  0  0  0  0  0  0
    0.7353    1.6055   -3.0895 H   0  0  0  0  0  0  0  0  0  0  0  0
    1.8498    0.3660   -2.4936 H   0  0  0  0  0  0  0  0  0  0  0  0
   -1.3188    1.2167   -1.3462 C   0  0  0  0  0  0  0  0  0  0  0  0
   -1.7742    0.8260   -2.2622 H   0  0  0  0  0  0  0  0  0  0  0  0
   -1.9272    0.8855   -0.4998 H   0  0  0  0  0  0  0  0  0  0  0  0
   -1.3767    2.7466   -1.3349 C   0  0  0  0  0  0  0  0  0  0  0  0
   -0.8042    3.1632   -2.1688 H   0  0  0  0  0  0  0  0  0  0  0  0
   -2.4137    3.0837   -1.4270 H   0  0  0  0  0  0  0  0  0  0  0  0
   -0.9678    3.1398   -0.3986 H   0  0  0  0  0  0  0  0  0  0  0  0
    0.9645   -0.4811    0.8843 C   0  0  0  0  0  0  0  0  0  0  0  0
    2.1859   -0.4603    0.9626 O   0  0  0  0  0  0  0  0  0  0  0  0
    0.2142   -0.0731    1.9724 N   0  0  0  0  0  0  0  0  0  0  0  0
   -0.7905   -0.1813    1.8879 H   0  0  0  0  0  0  0  0  0  0  0  0
    0.7909    0.1360    3.2941 C   0  0  0  0  0  0  0  0  0  0  0  0
    1.5770    0.8974    3.2538 H   0  0  0  0  0  0  0  0  0  0  0  0
    0.0209    0.4737    3.9940 H   0  0  0  0  0  0  0  0  0  0  0  0
    1.2222   -0.7962    3.6736 H   0  0  0  0  0  0  0  0  0  0  0  0
  1  2  1  0  0  0  0
  2  3  1  0  0  0  0
  2  4  1  0  0  0  0
  2  5  1  0  0  0  0
  5  6  2  0  0  0  0
  5  7  1  0  0  0  0
  7  8  1  0  0  0  0
  7  9  1  0  0  0  0
  9 10  1  0  0  0  0
  9 11  1  0  0  0  0
  9 24  1  0  0  0  0
 11 12  1  0  0  0  0
 11 13  1  0  0  0  0
 11 17  1  0  0  0  0
 13 14  1  0  0  0  0
 13 15  1  0  0  0  0
 13 16  1  0  0  0  0
 17 18  1  0  0  0  0
 17 19  1  0  0  0  0
 17 20  1  0  0  0  0
 20 21  1  0  0  0  0
 20 22  1  0  0  0  0
 20 23  1  0  0  0  0
 24 25  2  0  0  0  0
 24 26  1  0  0  0  0
 26 27  1  0  0  0  0
 26 28  1  0  0  0  0
 28 29  1  0  0  0  0
 28 30  1  0  0  0  0
 28 31  1  0  0  0  0
M  END
$$$$

  -OEChem-03222214053D

 31 30  0     1  0  0  0  0  0999 V2000
   -2.4114   -4.3992    0.3687 H   0  0  0  0  0  0  0  0  0  0  0  0
   -2.4817   -3.3806   -0.0235 C   0  0  0  0  0  0  0  0  0  0  0  0
   -3.2286   -2.8319    0.5548 H   0  0  0  0  0  0  0  0  0  0  0  0
   -2.8003   -3.4285   -1.0675 H   0  0  0  0  0  0  0  0  0  0  0  0
   -1.1353   -2.6886    0.0776 C   0  0  0  0  0  0  0  0  0  0  0  0
   -0.1953   -3.2654    0.5929 O   0  0  0  0  0  0  0  0  0  0  0  0
   -0.9884   -1.4070   -0.4154 N   0  0  0  0  0  0  0  0  0  0  0  0
   -1.7827   -1.0191   -0.9142 H   0  0  0  0  0  0  0  0  0  0  0  0
    0.2964   -0.6789   -0.4912 C   0  0  1  0  0  0  0  0  0  0  0  0
    0.9906   -1.3048   -1.0637 H   0  0  0  0  0  0  0  0  0  0  0  0
    0.1529    0.7068   -1.1998 C   0  0  1  0  0  0  0  0  0  0  0  0
    0.7042    1.4540   -0.6167 H   0  0  0  0  0  0  0  0  0  0  0  0
    0.8166    0.6266   -2.5851 C   0  0  0  0  0  0  0  0  0  0  0  0
    0.2830   -0.0796   -3.2290 H   0  0  0  0  0  0  0  0  0  0  0  0
    0.8280    1.6047   -3.0733 H   0  0  0  0  0  0  0  0  0  0  0  0
    1.8553    0.2935   -2.4890 H   0  0  0  0  0  0  0  0  0  0  0  0
   -1.3109    1.1954   -1.3381 C   0  0  0  0  0  0  0  0  0  0  0  0
   -1.8375    0.6083   -2.0976 H   0  0  0  0  0  0  0  0  0  0  0  0
   -1.8275    1.0577   -0.3826 H   0  0  0  0  0  0  0  0  0  0  0  0
   -1.4052    2.6826   -1.6916 C   0  0  0  0  0  0  0  0  0  0  0  0
   -0.9980    2.8775   -2.6875 H   0  0  0  0  0  0  0  0  0  0  0  0
   -2.4520    3.0010   -1.6846 H   0  0  0  0  0  0  0  0  0  0  0  0
   -0.8558    3.2865   -0.9625 H   0  0  0  0  0  0  0  0  0  0  0  0
    0.9718   -0.4787    0.8850 C   0  0  0  0  0  0  0  0  0  0  0  0
    2.1931   -0.4652    0.9656 O   0  0  0  0  0  0  0  0  0  0  0  0
    0.2217   -0.0646    1.9711 N   0  0  0  0  0  0  0  0  0  0  0  0
   -0.7833   -0.1704    1.8866 H   0  0  0  0  0  0  0  0  0  0  0  0
    0.7985    0.1429    3.2930 C   0  0  0  0  0  0  0  0  0  0  0  0
    1.5857    0.9032    3.2531 H   0  0  0  0  0  0  0  0  0  0  0  0
    0.0291    0.4813    3.9934 H   0  0  0  0  0  0  0  0  0  0  0  0
    1.2287   -0.7900    3.6722 H   0  0  0  0  0  0  0  0  0  0  0  0
  1  2  1  0  0  0  0
  2  3  1  0  0  0  0
  2  4  1  0  0  0  0
  2  5  1  0  0  0  0
  5  6  2  0  0  0  0
  5  7  1  0  0  0  0
  7  8  1  0  0  0  0
  7  9  1  0  0  0  0
  9 10  1  0  0  0  0
  9 11  1  0  0  0  0
  9 24  1  0  0  0  0
 11 12  1  0  0  0  0
 11 13  1  0  0  0  0
 11 17  1  0  0  0  0
 13 14  1  0  0  0  0
 13 15  1  0  0  0  0
 13 16  1  0  0  0  0
 17 18  1  0  0  0  0
 17 19  1  0  0  0  0
 17 20  1  0  0  0  0
 20 21  1  0  0  0  0
 20 22  1  0  0  0  0
 20 23  1  0  0  0  0
 24 25  2  0  0  0  0
 24 26  1  0  0  0  0
 26 27  1  0  0  0  0
 26 28  1  0  0  0  0
 28 29  1  0  0  0  0
 28 30  1  0  0  0  0
 28 31  1  0  0  0  0
M  END
$$$$

  -OEChem-03222214053D

 31 30  0     1  0  0  0  0  0999 V2000
   -2.4180   -4.3847    0.3527 H   0  0  0  0  0  0  0  0  0  0  0  0
   -2.4833   -3.3648   -0.0373 C   0  0  0  0  0  0  0  0  0  0  0  0
   -3.2332   -2.8157    0.5370 H   0  0  0  0  0  0  0  0  0  0  0  0
   -2.7945   -3.4095   -1.0837 H   0  0  0  0  0  0  0  0  0  0  0  0
   -1.1361   -2.6761    0.0751 C   0  0  0  0  0  0  0  0  0  0  0  0
   -0.2034   -3.2536    0.6028 O   0  0  0  0  0  0  0  0  0  0  0  0
   -0.9799   -1.3974   -0.4228 N   0  0  0  0  0  0  0  0  0  0  0  0
   -1.7662   -1.0125   -0.9359 H   0  0  0  0  0  0  0  0  0  0  0  0
    0.3096   -0.6784   -0.4948 C   0  0  1  0  0  0  0  0  0  0  0  0
    1.0091   -1.3027   -1.0623 H   0  0  0  0  0  0  0  0  0  0  0  0
    0.1736    0.7097   -1.1942 C   0  0  1  0  0  0  0  0  0  0  0  0
    0.9354    1.3867   -0.7900 H   0  0  0  0  0  0  0  0  0  0  0  0
    0.4763    0.5209   -2.6923 C   0  0  0  0  0  0  0  0  0  0  0  0
   -0.3028   -0.0803   -3.1713 H   0  0  0  0  0  0  0  0  0  0  0  0
    0.5418    1.4847   -3.2046 H   0  0  0  0  0  0  0  0  0  0  0  0
    1.4382    0.0162   -2.8290 H   0  0  0  0  0  0  0  0  0  0  0  0
   -1.2189    1.3666   -0.9989 C   0  0  0  0  0  0  0  0  0  0  0  0
   -2.0089    0.7236   -1.3973 H   0  0  0  0  0  0  0  0  0  0  0  0
   -1.3976    1.4957    0.0734 H   0  0  0  0  0  0  0  0  0  0  0  0
   -1.3511    2.7308   -1.6831 C   0  0  0  0  0  0  0  0  0  0  0  0
   -1.3613    2.6278   -2.7719 H   0  0  0  0  0  0  0  0  0  0  0  0
   -2.2885    3.2082   -1.3814 H   0  0  0  0  0  0  0  0  0  0  0  0
   -0.5218    3.3852   -1.3966 H   0  0  0  0  0  0  0  0  0  0  0  0
    0.9752   -0.4795    0.8867 C   0  0  0  0  0  0  0  0  0  0  0  0
    2.1959   -0.4771    0.9773 O   0  0  0  0  0  0  0  0  0  0  0  0
    0.2212   -0.0576    1.9670 N   0  0  0  0  0  0  0  0  0  0  0  0
   -0.7836   -0.1612    1.8762 H   0  0  0  0  0  0  0  0  0  0  0  0
    0.7898    0.1442    3.2933 C   0  0  0  0  0  0  0  0  0  0  0  0
    1.5807    0.9010    3.2608 H   0  0  0  0  0  0  0  0  0  0  0  0
    0.0169    0.4844    3.9889 H   0  0  0  0  0  0  0  0  0  0  0  0
    1.2132   -0.7917    3.6729 H   0  0  0  0  0  0  0  0  0  0  0  0
  1  2  1  0  0  0  0
  2  3  1  0  0  0  0
  2  4  1  0  0  0  0
  2  5  1  0  0  0  0
  5  6  2  0  0  0  0
  5  7  1  0  0  0  0
  7  8  1  0  0  0  0
  7  9  1  0  0  0  0
  9 10  1  0  0  0  0
  9 11  1  0  0  0  0
  9 24  1  0  0  0  0
 11 12  1  0  0  0  0
 11 13  1  0  0  0  0
 11 17  1  0  0  0  0
 13 14  1  0  0  0  0
 13 15  1  0  0  0  0
 13 16  1  0  0  0  0
 17 18  1  0  0  0  0
 17 19  1  0  0  0  0
 17 20  1  0  0  0  0
 20 21  1  0  0  0  0
 20 22  1  0  0  0  0
 20 23  1  0  0  0  0
 24 25  2  0  0  0  0
 24 26  1  0  0  0  0
 26 27  1  0  0  0  0
 26 28  1  0  0  0  0
 28 29  1  0  0  0  0
 28 30  1  0  0  0  0
 28 31  1  0  0  0  0
M  END
$$$$

  -OEChem-03222214053D

 31 30  0     1  0  0  0  0  0999 V2000
   -2.3944   -4.4140    0.3633 H   0  0  0  0  0  0  0  0  0  0  0  0
   -2.4703   -3.3967   -0.0315 C   0  0  0  0  0  0  0  0  0  0  0  0
   -3.2349   -2.8567    0.5321 H   0  0  0  0  0  0  0  0  0  0  0  0
   -2.7685   -3.4501   -1.0813 H   0  0  0  0  0  0  0  0  0  0  0  0
   -1.1347   -2.6882    0.0936 C   0  0  0  0  0  0  0  0  0  0  0  0
   -0.2001   -3.2512    0.6333 O   0  0  0  0  0  0  0  0  0  0  0  0
   -0.9898   -1.4111   -0.4126 N   0  0  0  0  0  0  0  0  0  0  0  0
   -1.7712   -1.0503   -0.9502 H   0  0  0  0  0  0  0  0  0  0  0  0
    0.2960   -0.6870   -0.4985 C   0  0  1  0  0  0  0  0  0  0  0  0
    0.9933   -1.3152   -1.0641 H   0  0  0  0  0  0  0  0  0  0  0  0
    0.1677    0.7073   -1.1941 C   0  0  1  0  0  0  0  0  0  0  0  0
    0.9390    1.3793   -0.8001 H   0  0  0  0  0  0  0  0  0  0  0  0
    0.4784    0.4980   -2.6898 C   0  0  0  0  0  0  0  0  0  0  0  0
   -0.3113   -0.0893   -3.1688 H   0  0  0  0  0  0  0  0  0  0  0  0
    0.5725    1.4553   -3.2101 H   0  0  0  0  0  0  0  0  0  0  0  0
    1.4295   -0.0288   -2.8169 H   0  0  0  0  0  0  0  0  0  0  0  0
   -1.2166    1.3951   -0.9993 C   0  0  0  0  0  0  0  0  0  0  0  0
   -2.0349    0.6894   -1.1564 H   0  0  0  0  0  0  0  0  0  0  0  0
   -1.2798    1.7511    0.0340 H   0  0  0  0  0  0  0  0  0  0  0  0
   -1.4830    2.5685   -1.9487 C   0  0  0  0  0  0  0  0  0  0  0  0
   -1.6132    2.2223   -2.9783 H   0  0  0  0  0  0  0  0  0  0  0  0
   -2.3990    3.0871   -1.6494 H   0  0  0  0  0  0  0  0  0  0  0  0
   -0.6550    3.2837   -1.9149 H   0  0  0  0  0  0  0  0  0  0  0  0
    0.9674   -0.4809    0.8793 C   0  0  0  0  0  0  0  0  0  0  0  0
    2.1885   -0.4718    0.9639 O   0  0  0  0  0  0  0  0  0  0  0  0
    0.2161   -0.0583    1.9612 N   0  0  0  0  0  0  0  0  0  0  0  0
   -0.7886   -0.1678    1.8754 H   0  0  0  0  0  0  0  0  0  0  0  0
    0.7901    0.1540    3.2835 C   0  0  0  0  0  0  0  0  0  0  0  0
    1.5753    0.9164    3.2427 H   0  0  0  0  0  0  0  0  0  0  0  0
    0.0186    0.4920    3.9816 H   0  0  0  0  0  0  0  0  0  0  0  0
    1.2222   -0.7769    3.6655 H   0  0  0  0  0  0  0  0  0  0  0  0
  1  2  1  0  0  0  0
  2  3  1  0  0  0  0
  2  4  1  0  0  0  0
  2  5  1  0  0  0  0
  5  6  2  0  0  0  0
  5  7  1  0  0  0  0
  7  8  1  0  0  0  0
  7  9  1  0  0  0  0
  9 10  1  0  0  0  0
  9 11  1  0  0  0  0
  9 24  1  0  0  0  0
 11 12  1  0  0  0  0
 11 13  1  0  0  0  0
 11 17  1  0  0  0  0
 13 14  1  0  0  0  0
 13 15  1  0  0  0  0
 13 16  1  0  0  0  0
 17 18  1  0  0  0  0
 17 19  1  0  0  0  0
 17 20  1  0  0  0  0
 20 21  1  0  0  0  0
 20 22  1  0  0  0  0
 20 23  1  0  0  0  0
 24 25  2  0  0  0  0
 24 26  1  0  0  0  0
 26 27  1  0  0  0  0
 26 28  1  0  0  0  0
 28 29  1  0  0  0  0
 28 30  1  0  0  0  0
 28 31  1  0  0  0  0
M  END
$$$$

  -OEChem-03222214053D

 31 30  0     1  0  0  0  0  0999 V2000
   -2.3902   -4.4213    0.3975 H   0  0  0  0  0  0  0  0  0  0  0  0
   -2.4663   -3.4080   -0.0074 C   0  0  0  0  0  0  0  0  0  0  0  0
   -3.2245   -2.8599    0.5568 H   0  0  0  0  0  0  0  0  0  0  0  0
   -2.7735   -3.4712   -1.0539 H   0  0  0  0  0  0  0  0  0  0  0  0
   -1.1281   -2.7013    0.0997 C   0  0  0  0  0  0  0  0  0  0  0  0
   -0.1898   -3.2613    0.6362 O   0  0  0  0  0  0  0  0  0  0  0  0
   -0.9887   -1.4259   -0.4121 N   0  0  0  0  0  0  0  0  0  0  0  0
   -1.7721   -1.0719   -0.9517 H   0  0  0  0  0  0  0  0  0  0  0  0
    0.2937   -0.6969   -0.5070 C   0  0  1  0  0  0  0  0  0  0  0  0
    0.9913   -1.3251   -1.0721 H   0  0  0  0  0  0  0  0  0  0  0  0
    0.1651    0.7010   -1.2005 C   0  0  1  0  0  0  0  0  0  0  0  0
    0.9382    1.3716   -0.8066 H   0  0  0  0  0  0  0  0  0  0  0  0
    0.5020    0.4816   -2.6905 C   0  0  0  0  0  0  0  0  0  0  0  0
   -0.2628   -0.1355   -3.1726 H   0  0  0  0  0  0  0  0  0  0  0  0
    0.5783    1.4337   -3.2235 H   0  0  0  0  0  0  0  0  0  0  0  0
    1.4695   -0.0199   -2.7965 H   0  0  0  0  0  0  0  0  0  0  0  0
   -1.2152    1.4126   -1.0087 C   0  0  0  0  0  0  0  0  0  0  0  0
   -2.0274    0.6959   -0.8863 H   0  0  0  0  0  0  0  0  0  0  0  0
   -1.1644    1.9948   -0.0826 H   0  0  0  0  0  0  0  0  0  0  0  0
   -1.6522    2.3389   -2.1501 C   0  0  0  0  0  0  0  0  0  0  0  0
   -1.8435    1.7739   -3.0675 H   0  0  0  0  0  0  0  0  0  0  0  0
   -2.5759    2.8567   -1.8741 H   0  0  0  0  0  0  0  0  0  0  0  0
   -0.8839    3.0931   -2.3472 H   0  0  0  0  0  0  0  0  0  0  0  0
    0.9659   -0.4851    0.8697 C   0  0  0  0  0  0  0  0  0  0  0  0
    2.1871   -0.4728    0.9539 O   0  0  0  0  0  0  0  0  0  0  0  0
    0.2134   -0.0627    1.9510 N   0  0  0  0  0  0  0  0  0  0  0  0
   -0.7908   -0.1752    1.8648 H   0  0  0  0  0  0  0  0  0  0  0  0
    0.7854    0.1480    3.2744 C   0  0  0  0  0  0  0  0  0  0  0  0
    1.5803    0.9003    3.2335 H   0  0  0  0  0  0  0  0  0  0  0  0
    0.0157    0.4990    3.9681 H   0  0  0  0  0  0  0  0  0  0  0  0
    1.2040   -0.7867    3.6622 H   0  0  0  0  0  0  0  0  0  0  0  0
  1  2  1  0  0  0  0
  2  3  1  0  0  0  0
  2  4  1  0  0  0  0
  2  5  1  0  0  0  0
  5  6  2  0  0  0  0
  5  7  1  0  0  0  0
  7  8  1  0  0  0  0
  7  9  1  0  0  0  0
  9 10  1  0  0  0  0
  9 11  1  0  0  0  0
  9 24  1  0  0  0  0
 11 12  1  0  0  0  0
 11 13  1  0  0  0  0
 11 17  1  0  0  0  0
 13 14  1  0  0  0  0
 13 15  1  0  0  0  0
 13 16  1  0  0  0  0
 17 18  1  0  0  0  0
 17 19  1  0  0  0  0
 17 20  1  0  0  0  0
 20 21  1  0  0  0  0
 20 22  1  0  0  0  0
 20 23  1  0  0  0  0
 24 25  2  0  0  0  0
 24 26  1  0  0  0  0
 26 27  1  0  0  0  0
 26 28  1  0  0  0  0
 28 29  1  0  0  0  0
 28 30  1  0  0  0  0
 28 31  1  0  0  0  0
M  END
$$$$

  -OEChem-03222214053D

 31 30  0     1  0  0  0  0  0999 V2000
   -2.4039   -4.4196    0.4042 H   0  0  0  0  0  0  0  0  0  0  0  0
   -2.4756   -3.4072   -0.0038 C   0  0  0  0  0  0  0  0  0  0  0  0
   -3.2318   -2.8543    0.5584 H   0  0  0  0  0  0  0  0  0  0  0  0
   -2.7829   -3.4719   -1.0503 H   0  0  0  0  0  0  0  0  0  0  0  0
   -1.1345   -2.7058    0.1018 C   0  0  0  0  0  0  0  0  0  0  0  0
   -0.1971   -3.2693    0.6363 O   0  0  0  0  0  0  0  0  0  0  0  0
   -0.9898   -1.4315   -0.4106 N   0  0  0  0  0  0  0  0  0  0  0  0
   -1.7736   -1.0699   -0.9450 H   0  0  0  0  0  0  0  0  0  0  0  0
    0.2946   -0.7065   -0.5061 C   0  0  1  0  0  0  0  0  0  0  0  0
    0.9896   -1.3369   -1.0722 H   0  0  0  0  0  0  0  0  0  0  0  0
    0.1634    0.6878   -1.2055 C   0  0  1  0  0  0  0  0  0  0  0  0
    0.9295    1.3577   -0.7970 H   0  0  0  0  0  0  0  0  0  0  0  0
    0.5382    0.4782   -2.6873 C   0  0  0  0  0  0  0  0  0  0  0  0
   -0.1877   -0.1722   -3.1851 H   0  0  0  0  0  0  0  0  0  0  0  0
    0.5876    1.4319   -3.2201 H   0  0  0  0  0  0  0  0  0  0  0  0
    1.5270    0.0154   -2.7687 H   0  0  0  0  0  0  0  0  0  0  0  0
   -1.2176    1.4074   -1.0199 C   0  0  0  0  0  0  0  0  0  0  0  0
   -1.9716    0.7465   -0.5920 H   0  0  0  0  0  0  0  0  0  0  0  0
   -1.0688    2.2053   -0.2845 H   0  0  0  0  0  0  0  0  0  0  0  0
   -1.8417    2.0368   -2.2724 C   0  0  0  0  0  0  0  0  0  0  0  0
   -2.0669    1.2751   -3.0247 H   0  0  0  0  0  0  0  0  0  0  0  0
   -2.7779    2.5371   -2.0066 H   0  0  0  0  0  0  0  0  0  0  0  0
   -1.1714    2.7846   -2.7069 H   0  0  0  0  0  0  0  0  0  0  0  0
    0.9694   -0.4945    0.8692 C   0  0  0  0  0  0  0  0  0  0  0  0
    2.1908   -0.4848    0.9513 O   0  0  0  0  0  0  0  0  0  0  0  0
    0.2198   -0.0682    1.9510 N   0  0  0  0  0  0  0  0  0  0  0  0
   -0.7848   -0.1780    1.8670 H   0  0  0  0  0  0  0  0  0  0  0  0
    0.7953    0.1491    3.2720 C   0  0  0  0  0  0  0  0  0  0  0  0
    1.5905    0.9007    3.2259 H   0  0  0  0  0  0  0  0  0  0  0  0
    0.0272    0.5037    3.9657 H   0  0  0  0  0  0  0  0  0  0  0  0
    1.2145   -0.7839    3.6631 H   0  0  0  0  0  0  0  0  0  0  0  0
  1  2  1  0  0  0  0
  2  3  1  0  0  0  0
  2  4  1  0  0  0  0
  2  5  1  0  0  0  0
  5  6  2  0  0  0  0
  5  7  1  0  0  0  0
  7  8  1  0  0  0  0
  7  9  1  0  0  0  0
  9 10  1  0  0  0  0
  9 11  1  0  0  0  0
  9 24  1  0  0  0  0
 11 12  1  0  0  0  0
 11 13  1  0  0  0  0
 11 17  1  0  0  0  0
 13 14  1  0  0  0  0
 13 15  1  0  0  0  0
 13 16  1  0  0  0  0
 17 18  1  0  0  0  0
 17 19  1  0  0  0  0
 17 20  1  0  0  0  0
 20 21  1  0  0  0  0
 20 22  1  0  0  0  0
 20 23  1  0  0  0  0
 24 25  2  0  0  0  0
 24 26  1  0  0  0  0
 26 27  1  0  0  0  0
 26 28  1  0  0  0  0
 28 29  1  0  0  0  0
 28 30  1  0  0  0  0
 28 31  1  0  0  0  0
M  END
$$$$

  -OEChem-03222214053D

 31 30  0     1  0  0  0  0  0999 V2000
   -2.4357   -4.3989    0.3970 H   0  0  0  0  0  0  0  0  0  0  0  0
   -2.4959   -3.3859   -0.0112 C   0  0  0  0  0  0  0  0  0  0  0  0
   -3.2478   -2.8251    0.5491 H   0  0  0  0  0  0  0  0  0  0  0  0
   -2.8011   -3.4475   -1.0586 H   0  0  0  0  0  0  0  0  0  0  0  0
   -1.1475   -2.6988    0.0970 C   0  0  0  0  0  0  0  0  0  0  0  0
   -0.2161   -3.2731    0.6303 O   0  0  0  0  0  0  0  0  0  0  0  0
   -0.9887   -1.4251   -0.4124 N   0  0  0  0  0  0  0  0  0  0  0  0
   -1.7722   -1.0448   -0.9345 H   0  0  0  0  0  0  0  0  0  0  0  0
    0.3024   -0.7111   -0.5007 C   0  0  1  0  0  0  0  0  0  0  0  0
    0.9944   -1.3427   -1.0688 H   0  0  0  0  0  0  0  0  0  0  0  0
    0.1655    0.6747   -1.2094 C   0  0  1  0  0  0  0  0  0  0  0  0
    0.9149    1.3482   -0.7768 H   0  0  0  0  0  0  0  0  0  0  0  0
    0.5742    0.4950   -2.6843 C   0  0  0  0  0  0  0  0  0  0  0  0
   -0.1103   -0.1834   -3.2026 H   0  0  0  0  0  0  0  0  0  0  0  0
    0.5876    1.4572   -3.2043 H   0  0  0  0  0  0  0  0  0  0  0  0
    1.5840    0.0767   -2.7488 H   0  0  0  0  0  0  0  0  0  0  0  0
   -1.2223    1.3767   -1.0243 C   0  0  0  0  0  0  0  0  0  0  0  0
   -1.8636    0.8329   -0.3278 H   0  0  0  0  0  0  0  0  0  0  0  0
   -1.0280    2.3420   -0.5448 H   0  0  0  0  0  0  0  0  0  0  0  0
   -2.0244    1.6717   -2.2983 C   0  0  0  0  0  0  0  0  0  0  0  0
   -2.2523    0.7472   -2.8371 H   0  0  0  0  0  0  0  0  0  0  0  0
   -2.9706    2.1543   -2.0346 H   0  0  0  0  0  0  0  0  0  0  0  0
   -1.4767    2.3481   -2.9611 H   0  0  0  0  0  0  0  0  0  0  0  0
    0.9790   -0.5031    0.8743 C   0  0  0  0  0  0  0  0  0  0  0  0
    2.2004   -0.5007    0.9556 O   0  0  0  0  0  0  0  0  0  0  0  0
    0.2331   -0.0698    1.9556 N   0  0  0  0  0  0  0  0  0  0  0  0
   -0.7723   -0.1727    1.8730 H   0  0  0  0  0  0  0  0  0  0  0  0
    0.8118    0.1500    3.2746 C   0  0  0  0  0  0  0  0  0  0  0  0
    1.6071    0.9012    3.2247 H   0  0  0  0  0  0  0  0  0  0  0  0
    0.0454    0.5064    3.9692 H   0  0  0  0  0  0  0  0  0  0  0  0
    1.2321   -0.7819    3.6669 H   0  0  0  0  0  0  0  0  0  0  0  0
  1  2  1  0  0  0  0
  2  3  1  0  0  0  0
  2  4  1  0  0  0  0
  2  5  1  0  0  0  0
  5  6  2  0  0  0  0
  5  7  1  0  0  0  0
  7  8  1  0  0  0  0
  7  9  1  0  0  0  0
  9 10  1  0  0  0  0
  9 11  1  0  0  0  0
  9 24  1  0  0  0  0
 11 12  1  0  0  0  0
 11 13  1  0  0  0  0
 11 17  1  0  0  0  0
 13 14  1  0  0  0  0
 13 15  1  0  0  0  0
 13 16  1  0  0  0  0
 17 18  1  0  0  0  0
 17 19  1  0  0  0  0
 17 20  1  0  0  0  0
 20 21  1  0  0  0  0
 20 22  1  0  0  0  0
 20 23  1  0  0  0  0
 24 25  2  0  0  0  0
 24 26  1  0  0  0  0
 26 27  1  0  0  0  0
 26 28  1  0  0  0  0
 28 29  1  0  0  0  0
 28 30  1  0  0  0  0
 28 31  1  0  0  0  0
M  END
$$$$

  -OEChem-03222214053D

 31 30  0     1  0  0  0  0  0999 V2000
   -2.4667   -4.3716    0.3906 H   0  0  0  0  0  0  0  0  0  0  0  0
   -2.5149   -3.3580   -0.0180 C   0  0  0  0  0  0  0  0  0  0  0  0
   -3.2582   -2.7870    0.5434 H   0  0  0  0  0  0  0  0  0  0  0  0
   -2.8224   -3.4164   -1.0650 H   0  0  0  0  0  0  0  0  0  0  0  0
   -1.1580   -2.6882    0.0882 C   0  0  0  0  0  0  0  0  0  0  0  0
   -0.2316   -3.2763    0.6152 O   0  0  0  0  0  0  0  0  0  0  0  0
   -0.9850   -1.4144   -0.4157 N   0  0  0  0  0  0  0  0  0  0  0  0
   -1.7685   -1.0144   -0.9231 H   0  0  0  0  0  0  0  0  0  0  0  0
    0.3120   -0.7106   -0.4940 C   0  0  1  0  0  0  0  0  0  0  0  0
    1.0017   -1.3428   -1.0646 H   0  0  0  0  0  0  0  0  0  0  0  0
    0.1719    0.6684   -1.2086 C   0  0  1  0  0  0  0  0  0  0  0  0
    0.9084    1.3470   -0.7620 H   0  0  0  0  0  0  0  0  0  0  0  0
    0.5857    0.5134   -2.6827 C   0  0  0  0  0  0  0  0  0  0  0  0
   -0.0606   -0.2013   -3.2014 H   0  0  0  0  0  0  0  0  0  0  0  0
    0.5386    1.4770   -3.1990 H   0  0  0  0  0  0  0  0  0  0  0  0
    1.6169    0.1514   -2.7483 H   0  0  0  0  0  0  0  0  0  0  0  0
   -1.2206    1.3474   -1.0224 C   0  0  0  0  0  0  0  0  0  0  0  0
   -1.7333    0.9521   -0.1408 H   0  0  0  0  0  0  0  0  0  0  0  0
   -1.0372    2.4058   -0.8095 H   0  0  0  0  0  0  0  0  0  0  0  0
   -2.1652    1.3018   -2.2312 C   0  0  0  0  0  0  0  0  0  0  0  0
   -2.3510    0.2683   -2.5385 H   0  0  0  0  0  0  0  0  0  0  0  0
   -3.1238    1.7598   -1.9689 H   0  0  0  0  0  0  0  0  0  0  0  0
   -1.7503    1.8552   -3.0787 H   0  0  0  0  0  0  0  0  0  0  0  0
    0.9881   -0.5088    0.8820 C   0  0  0  0  0  0  0  0  0  0  0  0
    2.2094   -0.5139    0.9640 O   0  0  0  0  0  0  0  0  0  0  0  0
    0.2449   -0.0708    1.9635 N   0  0  0  0  0  0  0  0  0  0  0  0
   -0.7614   -0.1646    1.8806 H   0  0  0  0  0  0  0  0  0  0  0  0
    0.8249    0.1485    3.2824 C   0  0  0  0  0  0  0  0  0  0  0  0
    1.6191    0.9008    3.2318 H   0  0  0  0  0  0  0  0  0  0  0  0
    0.0591    0.5033    3.9786 H   0  0  0  0  0  0  0  0  0  0  0  0
    1.2464   -0.7835    3.6735 H   0  0  0  0  0  0  0  0  0  0  0  0
  1  2  1  0  0  0  0
  2  3  1  0  0  0  0
  2  4  1  0  0  0  0
  2  5  1  0  0  0  0
  5  6  2  0  0  0  0
  5  7  1  0  0  0  0
  7  8  1  0  0  0  0
  7  9  1  0  0  0  0
  9 10  1  0  0  0  0
  9 11  1  0  0  0  0
  9 24  1  0  0  0  0
 11 12  1  0  0  0  0
 11 13  1  0  0  0  0
 11 17  1  0  0  0  0
 13 14  1  0  0  0  0
 13 15  1  0  0  0  0
 13 16  1  0  0  0  0
 17 18  1  0  0  0  0
 17 19  1  0  0  0  0
 17 20  1  0  0  0  0
 20 21  1  0  0  0  0
 20 22  1  0  0  0  0
 20 23  1  0  0  0  0
 24 25  2  0  0  0  0
 24 26  1  0  0  0  0
 26 27  1  0  0  0  0
 26 28  1  0  0  0  0
 28 29  1  0  0  0  0
 28 30  1  0  0  0  0
 28 31  1  0  0  0  0
M  END
$$$$

  -OEChem-03222214053D

 31 30  0     1  0  0  0  0  0999 V2000
   -2.4499   -4.3716    0.4309 H   0  0  0  0  0  0  0  0  0  0  0  0
   -2.5035   -3.3565    0.0268 C   0  0  0  0  0  0  0  0  0  0  0  0
   -3.2188   -2.7800    0.6181 H   0  0  0  0  0  0  0  0  0  0  0  0
   -2.8519   -3.4086   -1.0075 H   0  0  0  0  0  0  0  0  0  0  0  0
   -1.1370   -2.7005    0.0811 C   0  0  0  0  0  0  0  0  0  0  0  0
   -0.1949   -3.3004    0.5654 O   0  0  0  0  0  0  0  0  0  0  0  0
   -0.9736   -1.4232   -0.4167 N   0  0  0  0  0  0  0  0  0  0  0  0
   -1.7807   -0.9953   -0.8585 H   0  0  0  0  0  0  0  0  0  0  0  0
    0.3156   -0.7078   -0.4926 C   0  0  1  0  0  0  0  0  0  0  0  0
    1.0114   -1.3341   -1.0625 H   0  0  0  0  0  0  0  0  0  0  0  0
    0.1781    0.6698   -1.2091 C   0  0  1  0  0  0  0  0  0  0  0  0
    0.9132    1.3494   -0.7617 H   0  0  0  0  0  0  0  0  0  0  0  0
    0.5766    0.5200   -2.6868 C   0  0  0  0  0  0  0  0  0  0  0  0
   -0.0458   -0.2268   -3.1895 H   0  0  0  0  0  0  0  0  0  0  0  0
    0.4744    1.4762   -3.2096 H   0  0  0  0  0  0  0  0  0  0  0  0
    1.6214    0.2027   -2.7654 H   0  0  0  0  0  0  0  0  0  0  0  0
   -1.2093    1.3523   -1.0434 C   0  0  0  0  0  0  0  0  0  0  0  0
   -1.6110    1.1256   -0.0508 H   0  0  0  0  0  0  0  0  0  0  0  0
   -1.0550    2.4360   -1.0767 H   0  0  0  0  0  0  0  0  0  0  0  0
   -2.2639    1.0117   -2.1094 C   0  0  0  0  0  0  0  0  0  0  0  0
   -2.4091   -0.0670   -2.2053 H   0  0  0  0  0  0  0  0  0  0  0  0
   -3.2222    1.4637   -1.8361 H   0  0  0  0  0  0  0  0  0  0  0  0
   -1.9707    1.4101   -3.0855 H   0  0  0  0  0  0  0  0  0  0  0  0
    0.9862   -0.5087    0.8864 C   0  0  0  0  0  0  0  0  0  0  0  0
    2.2071   -0.5061    0.9740 O   0  0  0  0  0  0  0  0  0  0  0  0
    0.2355   -0.0841    1.9680 N   0  0  0  0  0  0  0  0  0  0  0  0
   -0.7699   -0.1812    1.8795 H   0  0  0  0  0  0  0  0  0  0  0  0
    0.8080    0.1252    3.2914 C   0  0  0  0  0  0  0  0  0  0  0  0
    1.6066    0.8735    3.2505 H   0  0  0  0  0  0  0  0  0  0  0  0
    0.0394    0.4804    3.9842 H   0  0  0  0  0  0  0  0  0  0  0  0
    1.2223   -0.8110    3.6803 H   0  0  0  0  0  0  0  0  0  0  0  0
  1  2  1  0  0  0  0
  2  3  1  0  0  0  0
  2  4  1  0  0  0  0
  2  5  1  0  0  0  0
  5  6  2  0  0  0  0
  5  7  1  0  0  0  0
  7  8  1  0  0  0  0
  7  9  1  0  0  0  0
  9 10  1  0  0  0  0
  9 11  1  0  0  0  0
  9 24  1  0  0  0  0
 11 12  1  0  0  0  0
 11 13  1  0  0  0  0
 11 17  1  0  0  0  0
 13 14  1  0  0  0  0
 13 15  1  0  0  0  0
 13 16  1  0  0  0  0
 17 18  1  0  0  0  0
 17 19  1  0  0  0  0
 17 20  1  0  0  0  0
 20 21  1  0  0  0  0
 20 22  1  0  0  0  0
 20 23  1  0  0  0  0
 24 25  2  0  0  0  0
 24 26  1  0  0  0  0
 26 27  1  0  0  0  0
 26 28  1  0  0  0  0
 28 29  1  0  0  0  0
 28 30  1  0  0  0  0
 28 31  1  0  0  0  0
M  END
$$$$

  -OEChem-03222214053D

 31 30  0     1  0  0  0  0  0999 V2000
   -2.3604   -4.4530    0.4475 H   0  0  0  0  0  0  0  0  0  0  0  0
   -2.4312   -3.4524    0.0113 C   0  0  0  0  0  0  0  0  0  0  0  0
   -3.2002   -2.8894    0.5455 H   0  0  0  0  0  0  0  0  0  0  0  0
   -2.7199   -3.5470   -1.0384 H   0  0  0  0  0  0  0  0  0  0  0  0
   -1.0961   -2.7401    0.1200 C   0  0  0  0  0  0  0  0  0  0  0  0
   -0.1531   -3.2991    0.6492 O   0  0  0  0  0  0  0  0  0  0  0  0
   -0.9632   -1.4632   -0.3890 N   0  0  0  0  0  0  0  0  0  0  0  0
   -1.7501   -1.1067   -0.9165 H   0  0  0  0  0  0  0  0  0  0  0  0
    0.3095   -0.7273   -0.4814 C   0  0  1  0  0  0  0  0  0  0  0  0
    1.0115   -1.3482   -1.0497 H   0  0  0  0  0  0  0  0  0  0  0  0
    0.1719    0.6557   -1.1921 C   0  0  1  0  0  0  0  0  0  0  0  0
    0.9289    1.3251   -0.7668 H   0  0  0  0  0  0  0  0  0  0  0  0
    0.5347    0.4808   -2.6755 C   0  0  0  0  0  0  0  0  0  0  0  0
   -0.0945   -0.2804   -3.1469 H   0  0  0  0  0  0  0  0  0  0  0  0
    0.4104    1.4245   -3.2157 H   0  0  0  0  0  0  0  0  0  0  0  0
    1.5798    0.1697   -2.7739 H   0  0  0  0  0  0  0  0  0  0  0  0
   -1.1896    1.3987   -1.0594 C   0  0  0  0  0  0  0  0  0  0  0  0
   -1.4758    1.4117   -0.0028 H   0  0  0  0  0  0  0  0  0  0  0  0
   -1.0176    2.4398   -1.3528 H   0  0  0  0  0  0  0  0  0  0  0  0
   -2.3911    0.8949   -1.8822 C   0  0  0  0  0  0  0  0  0  0  0  0
   -2.7654   -0.0693   -1.5393 H   0  0  0  0  0  0  0  0  0  0  0  0
   -3.2126    1.6120   -1.7881 H   0  0  0  0  0  0  0  0  0  0  0  0
   -2.1378    0.8181   -2.9431 H   0  0  0  0  0  0  0  0  0  0  0  0
    0.9814   -0.5114    0.8951 C   0  0  0  0  0  0  0  0  0  0  0  0
    2.2025   -0.4875    0.9782 O   0  0  0  0  0  0  0  0  0  0  0  0
    0.2267   -0.0952    1.9772 N   0  0  0  0  0  0  0  0  0  0  0  0
   -0.7771   -0.2121    1.8920 H   0  0  0  0  0  0  0  0  0  0  0  0
    0.7995    0.1345    3.2971 C   0  0  0  0  0  0  0  0  0  0  0  0
    1.5612    0.9201    3.2529 H   0  0  0  0  0  0  0  0  0  0  0  0
    0.0207    0.4493    3.9980 H   0  0  0  0  0  0  0  0  0  0  0  0
    1.2612   -0.7826    3.6785 H   0  0  0  0  0  0  0  0  0  0  0  0
  1  2  1  0  0  0  0
  2  3  1  0  0  0  0
  2  4  1  0  0  0  0
  2  5  1  0  0  0  0
  5  6  2  0  0  0  0
  5  7  1  0  0  0  0
  7  8  1  0  0  0  0
  7  9  1  0  0  0  0
  9 10  1  0  0  0  0
  9 11  1  0  0  0  0
  9 24  1  0  0  0  0
 11 12  1  0  0  0  0
 11 13  1  0  0  0  0
 11 17  1  0  0  0  0
 13 14  1  0  0  0  0
 13 15  1  0  0  0  0
 13 16  1  0  0  0  0
 17 18  1  0  0  0  0
 17 19  1  0  0  0  0
 17 20  1  0  0  0  0
 20 21  1  0  0  0  0
 20 22  1  0  0  0  0
 20 23  1  0  0  0  0
 24 25  2  0  0  0  0
 24 26  1  0  0  0  0
 26 27  1  0  0  0  0
 26 28  1  0  0  0  0
 28 29  1  0  0  0  0
 28 30  1  0  0  0  0
 28 31  1  0  0  0  0
M  END
$$$$

  -OEChem-03222214053D

 31 30  0     1  0  0  0  0  0999 V2000
   -2.2286   -4.5342    0.4291 H   0  0  0  0  0  0  0  0  0  0  0  0
   -2.3332   -3.5317    0.0042 C   0  0  0  0  0  0  0  0  0  0  0  0
   -3.1286   -3.0047    0.5365 H   0  0  0  0  0  0  0  0  0  0  0  0
   -2.6074   -3.6249   -1.0492 H   0  0  0  0  0  0  0  0  0  0  0  0
   -1.0270   -2.7710    0.1360 C   0  0  0  0  0  0  0  0  0  0  0  0
   -0.0787   -3.2907    0.6949 O   0  0  0  0  0  0  0  0  0  0  0  0
   -0.9273   -1.4945   -0.3818 N   0  0  0  0  0  0  0  0  0  0  0  0
   -1.7091   -1.1785   -0.9451 H   0  0  0  0  0  0  0  0  0  0  0  0
    0.3241   -0.7217   -0.4682 C   0  0  1  0  0  0  0  0  0  0  0  0
    1.0494   -1.3246   -1.0265 H   0  0  0  0  0  0  0  0  0  0  0  0
    0.1602    0.6610   -1.1780 C   0  0  1  0  0  0  0  0  0  0  0  0
    0.9121    1.3441   -0.7651 H   0  0  0  0  0  0  0  0  0  0  0  0
    0.5128    0.4770   -2.6640 C   0  0  0  0  0  0  0  0  0  0  0  0
   -0.1153   -0.2894   -3.1272 H   0  0  0  0  0  0  0  0  0  0  0  0
    0.3816    1.4154   -3.2120 H   0  0  0  0  0  0  0  0  0  0  0  0
    1.5588    0.1703   -2.7678 H   0  0  0  0  0  0  0  0  0  0  0  0
   -1.2062    1.4010   -1.0721 C   0  0  0  0  0  0  0  0  0  0  0  0
   -1.3811    1.6475   -0.0198 H   0  0  0  0  0  0  0  0  0  0  0  0
   -1.0984    2.3533   -1.6023 H   0  0  0  0  0  0  0  0  0  0  0  0
   -2.4734    0.7197   -1.6143 C   0  0  0  0  0  0  0  0  0  0  0  0
   -2.8978    0.0269   -0.8836 H   0  0  0  0  0  0  0  0  0  0  0  0
   -3.2341    1.4802   -1.8155 H   0  0  0  0  0  0  0  0  0  0  0  0
   -2.2746    0.1868   -2.5479 H   0  0  0  0  0  0  0  0  0  0  0  0
    0.9738   -0.4776    0.9141 C   0  0  0  0  0  0  0  0  0  0  0  0
    2.1928   -0.4158    1.0103 O   0  0  0  0  0  0  0  0  0  0  0  0
    0.1948   -0.0770    1.9847 N   0  0  0  0  0  0  0  0  0  0  0  0
   -0.8041   -0.2234    1.8886 H   0  0  0  0  0  0  0  0  0  0  0  0
    0.7451    0.1822    3.3086 C   0  0  0  0  0  0  0  0  0  0  0  0
    1.4905    0.9831    3.2632 H   0  0  0  0  0  0  0  0  0  0  0  0
   -0.0491    0.4899    3.9952 H   0  0  0  0  0  0  0  0  0  0  0  0
    1.2210   -0.7198    3.7075 H   0  0  0  0  0  0  0  0  0  0  0  0
  1  2  1  0  0  0  0
  2  3  1  0  0  0  0
  2  4  1  0  0  0  0
  2  5  1  0  0  0  0
  5  6  2  0  0  0  0
  5  7  1  0  0  0  0
  7  8  1  0  0  0  0
  7  9  1  0  0  0  0
  9 10  1  0  0  0  0
  9 11  1  0  0  0  0
  9 24  1  0  0  0  0
 11 12  1  0  0  0  0
 11 13  1  0  0  0  0
 11 17  1  0  0  0  0
 13 14  1  0  0  0  0
 13 15  1  0  0  0  0
 13 16  1  0  0  0  0
 17 18  1  0  0  0  0
 17 19  1  0  0  0  0
 17 20  1  0  0  0  0
 20 21  1  0  0  0  0
 20 22  1  0  0  0  0
 20 23  1  0  0  0  0
 24 25  2  0  0  0  0
 24 26  1  0  0  0  0
 26 27  1  0  0  0  0
 26 28  1  0  0  0  0
 28 29  1  0  0  0  0
 28 30  1  0  0  0  0
 28 31  1  0  0  0  0
M  END
$$$$

  -OEChem-03222214053D

 31 30  0     1  0  0  0  0  0999 V2000
   -2.1629   -4.5793    0.4115 H   0  0  0  0  0  0  0  0  0  0  0  0
   -2.2869   -3.5733    0.0005 C   0  0  0  0  0  0  0  0  0  0  0  0
   -3.0634   -3.0549    0.5681 H   0  0  0  0  0  0  0  0  0  0  0  0
   -2.6001   -3.6570   -1.0430 H   0  0  0  0  0  0  0  0  0  0  0  0
   -0.9798   -2.8086    0.0913 C   0  0  0  0  0  0  0  0  0  0  0  0
   -0.0029   -3.3367    0.5897 O   0  0  0  0  0  0  0  0  0  0  0  0
   -0.9120   -1.5179   -0.3953 N   0  0  0  0  0  0  0  0  0  0  0  0
   -1.7245   -1.1865   -0.9040 H   0  0  0  0  0  0  0  0  0  0  0  0
    0.3229   -0.7207   -0.4932 C   0  0  1  0  0  0  0  0  0  0  0  0
    1.0446   -1.3026   -1.0778 H   0  0  0  0  0  0  0  0  0  0  0  0
    0.1447    0.6869   -1.1569 C   0  0  1  0  0  0  0  0  0  0  0  0
    0.9275    1.3499   -0.7702 H   0  0  0  0  0  0  0  0  0  0  0  0
    0.4242    0.5079   -2.6605 C   0  0  0  0  0  0  0  0  0  0  0  0
   -0.2917   -0.1870   -3.1100 H   0  0  0  0  0  0  0  0  0  0  0  0
    0.3575    1.4655   -3.1865 H   0  0  0  0  0  0  0  0  0  0  0  0
    1.4339    0.1140   -2.8176 H   0  0  0  0  0  0  0  0  0  0  0  0
   -1.2040    1.4621   -1.0272 C   0  0  0  0  0  0  0  0  0  0  0  0
   -1.2377    1.8898   -0.0198 H   0  0  0  0  0  0  0  0  0  0  0  0
   -1.1753    2.3096   -1.7203 H   0  0  0  0  0  0  0  0  0  0  0  0
   -2.5348    0.7306   -1.2455 C   0  0  0  0  0  0  0  0  0  0  0  0
   -2.8113    0.1413   -0.3672 H   0  0  0  0  0  0  0  0  0  0  0  0
   -3.3305    1.4645   -1.4072 H   0  0  0  0  0  0  0  0  0  0  0  0
   -2.4873    0.0827   -2.1258 H   0  0  0  0  0  0  0  0  0  0  0  0
    0.9958   -0.5050    0.8828 C   0  0  0  0  0  0  0  0  0  0  0  0
    2.2155   -0.4326    0.9599 O   0  0  0  0  0  0  0  0  0  0  0  0
    0.2315   -0.1486    1.9794 N   0  0  0  0  0  0  0  0  0  0  0  0
   -0.7679   -0.2978    1.8942 H   0  0  0  0  0  0  0  0  0  0  0  0
    0.8015    0.0713    3.3023 C   0  0  0  0  0  0  0  0  0  0  0  0
    1.5438    0.8760    3.2715 H   0  0  0  0  0  0  0  0  0  0  0  0
    0.0166    0.3540    4.0101 H   0  0  0  0  0  0  0  0  0  0  0  0
    1.2860   -0.8410    3.6658 H   0  0  0  0  0  0  0  0  0  0  0  0
  1  2  1  0  0  0  0
  2  3  1  0  0  0  0
  2  4  1  0  0  0  0
  2  5  1  0  0  0  0
  5  6  2  0  0  0  0
  5  7  1  0  0  0  0
  7  8  1  0  0  0  0
  7  9  1  0  0  0  0
  9 10  1  0  0  0  0
  9 11  1  0  0  0  0
  9 24  1  0  0  0  0
 11 12  1  0  0  0  0
 11 13  1  0  0  0  0
 11 17  1  0  0  0  0
 13 14  1  0  0  0  0
 13 15  1  0  0  0  0
 13 16  1  0  0  0  0
 17 18  1  0  0  0  0
 17 19  1  0  0  0  0
 17 20  1  0  0  0  0
 20 21  1  0  0  0  0
 20 22  1  0  0  0  0
 20 23  1  0  0  0  0
 24 25  2  0  0  0  0
 24 26  1  0  0  0  0
 26 27  1  0  0  0  0
 26 28  1  0  0  0  0
 28 29  1  0  0  0  0
 28 30  1  0  0  0  0
 28 31  1  0  0  0  0
M  END
$$$$

  -OEChem-03222214053D

 31 30  0     1  0  0  0  0  0999 V2000
   -2.1831   -4.5819    0.4600 H   0  0  0  0  0  0  0  0  0  0  0  0
   -2.3016   -3.5793    0.0387 C   0  0  0  0  0  0  0  0  0  0  0  0
   -3.0704   -3.0488    0.6055 H   0  0  0  0  0  0  0  0  0  0  0  0
   -2.6222   -3.6716   -1.0018 H   0  0  0  0  0  0  0  0  0  0  0  0
   -0.9875   -2.8246    0.1123 C   0  0  0  0  0  0  0  0  0  0  0  0
   -0.0100   -3.3591    0.6027 O   0  0  0  0  0  0  0  0  0  0  0  0
   -0.9119   -1.5382   -0.3850 N   0  0  0  0  0  0  0  0  0  0  0  0
   -1.7302   -1.1956   -0.8765 H   0  0  0  0  0  0  0  0  0  0  0  0
    0.3264   -0.7455   -0.4837 C   0  0  1  0  0  0  0  0  0  0  0  0
    1.0492   -1.3390   -1.0548 H   0  0  0  0  0  0  0  0  0  0  0  0
    0.1730    0.6641   -1.1560 C   0  0  1  0  0  0  0  0  0  0  0  0
    0.9750    1.3117   -0.7822 H   0  0  0  0  0  0  0  0  0  0  0  0
    0.4453    0.4533   -2.6578 C   0  0  0  0  0  0  0  0  0  0  0  0
   -0.3227   -0.1867   -3.1034 H   0  0  0  0  0  0  0  0  0  0  0  0
    0.4551    1.4095   -3.1902 H   0  0  0  0  0  0  0  0  0  0  0  0
    1.4225   -0.0158   -2.8120 H   0  0  0  0  0  0  0  0  0  0  0  0
   -1.1558    1.4860   -1.0574 C   0  0  0  0  0  0  0  0  0  0  0  0
   -1.0659    2.1131   -0.1640 H   0  0  0  0  0  0  0  0  0  0  0  0
   -1.2120    2.1743   -1.9070 H   0  0  0  0  0  0  0  0  0  0  0  0
   -2.5105    0.7807   -0.9443 C   0  0  0  0  0  0  0  0  0  0  0  0
   -2.6169    0.2820    0.0232 H   0  0  0  0  0  0  0  0  0  0  0  0
   -3.3132    1.5208   -1.0208 H   0  0  0  0  0  0  0  0  0  0  0  0
   -2.6409    0.0577   -1.7551 H   0  0  0  0  0  0  0  0  0  0  0  0
    0.9883   -0.5233    0.8969 C   0  0  0  0  0  0  0  0  0  0  0  0
    2.2078   -0.4601    0.9857 O   0  0  0  0  0  0  0  0  0  0  0  0
    0.2162   -0.1567    1.9849 N   0  0  0  0  0  0  0  0  0  0  0  0
   -0.7845   -0.2897    1.8892 H   0  0  0  0  0  0  0  0  0  0  0  0
    0.7750    0.0700    3.3114 C   0  0  0  0  0  0  0  0  0  0  0  0
    1.5172    0.8747    3.2831 H   0  0  0  0  0  0  0  0  0  0  0  0
   -0.0158    0.3560    4.0113 H   0  0  0  0  0  0  0  0  0  0  0  0
    1.2567   -0.8406    3.6832 H   0  0  0  0  0  0  0  0  0  0  0  0
  1  2  1  0  0  0  0
  2  3  1  0  0  0  0
  2  4  1  0  0  0  0
  2  5  1  0  0  0  0
  5  6  2  0  0  0  0
  5  7  1  0  0  0  0
  7  8  1  0  0  0  0
  7  9  1  0  0  0  0
  9 10  1  0  0  0  0
  9 11  1  0  0  0  0
  9 24  1  0  0  0  0
 11 12  1  0  0  0  0
 11 13  1  0  0  0  0
 11 17  1  0  0  0  0
 13 14  1  0  0  0  0
 13 15  1  0  0  0  0
 13 16  1  0  0  0  0
 17 18  1  0  0  0  0
 17 19  1  0  0  0  0
 17 20  1  0  0  0  0
 20 21  1  0  0  0  0
 20 22  1  0  0  0  0
 20 23  1  0  0  0  0
 24 25  2  0  0  0  0
 24 26  1  0  0  0  0
 26 27  1  0  0  0  0
 26 28  1  0  0  0  0
 28 29  1  0  0  0  0
 28 30  1  0  0  0  0
 28 31  1  0  0  0  0
M  END
$$$$

  -OEChem-03222214053D

 31 30  0     1  0  0  0  0  0999 V2000
   -2.0992   -4.6158    0.4770 H   0  0  0  0  0  0  0  0  0  0  0  0
   -2.2384   -3.6154    0.0569 C   0  0  0  0  0  0  0  0  0  0  0  0
   -3.0137   -3.0990    0.6280 H   0  0  0  0  0  0  0  0  0  0  0  0
   -2.5630   -3.7129   -0.9819 H   0  0  0  0  0  0  0  0  0  0  0  0
   -0.9382   -2.8365    0.1235 C   0  0  0  0  0  0  0  0  0  0  0  0
    0.0501   -3.3495    0.6152 O   0  0  0  0  0  0  0  0  0  0  0  0
   -0.8891   -1.5503   -0.3771 N   0  0  0  0  0  0  0  0  0  0  0  0
   -1.7132   -1.2274   -0.8719 H   0  0  0  0  0  0  0  0  0  0  0  0
    0.3333   -0.7338   -0.4828 C   0  0  1  0  0  0  0  0  0  0  0  0
    1.0653   -1.3147   -1.0553 H   0  0  0  0  0  0  0  0  0  0  0  0
    0.1471    0.6708   -1.1590 C   0  0  1  0  0  0  0  0  0  0  0  0
    0.9363    1.3326   -0.7825 H   0  0  0  0  0  0  0  0  0  0  0  0
    0.4375    0.4683   -2.6586 C   0  0  0  0  0  0  0  0  0  0  0  0
   -0.3156   -0.1839   -3.1122 H   0  0  0  0  0  0  0  0  0  0  0  0
    0.4355    1.4266   -3.1879 H   0  0  0  0  0  0  0  0  0  0  0  0
    1.4243    0.0172   -2.8052 H   0  0  0  0  0  0  0  0  0  0  0  0
   -1.1962    1.4761   -1.0623 C   0  0  0  0  0  0  0  0  0  0  0  0
   -1.0117    2.2856   -0.3481 H   0  0  0  0  0  0  0  0  0  0  0  0
   -1.4047    1.9607   -2.0219 H   0  0  0  0  0  0  0  0  0  0  0  0
   -2.4933    0.8043   -0.6043 C   0  0  0  0  0  0  0  0  0  0  0  0
   -2.3856    0.3845    0.4001 H   0  0  0  0  0  0  0  0  0  0  0  0
   -3.2946    1.5490   -0.5675 H   0  0  0  0  0  0  0  0  0  0  0  0
   -2.7973    0.0236   -1.3071 H   0  0  0  0  0  0  0  0  0  0  0  0
    0.9955   -0.4957    0.8950 C   0  0  0  0  0  0  0  0  0  0  0  0
    2.2138   -0.4081    0.9795 O   0  0  0  0  0  0  0  0  0  0  0  0
    0.2196   -0.1420    1.9844 N   0  0  0  0  0  0  0  0  0  0  0  0
   -0.7777   -0.3009    1.8932 H   0  0  0  0  0  0  0  0  0  0  0  0
    0.7775    0.0969    3.3089 C   0  0  0  0  0  0  0  0  0  0  0  0
    1.5102    0.9102    3.2759 H   0  0  0  0  0  0  0  0  0  0  0  0
   -0.0155    0.3771    4.0085 H   0  0  0  0  0  0  0  0  0  0  0  0
    1.2699   -0.8066    3.6836 H   0  0  0  0  0  0  0  0  0  0  0  0
  1  2  1  0  0  0  0
  2  3  1  0  0  0  0
  2  4  1  0  0  0  0
  2  5  1  0  0  0  0
  5  6  2  0  0  0  0
  5  7  1  0  0  0  0
  7  8  1  0  0  0  0
  7  9  1  0  0  0  0
  9 10  1  0  0  0  0
  9 11  1  0  0  0  0
  9 24  1  0  0  0  0
 11 12  1  0  0  0  0
 11 13  1  0  0  0  0
 11 17  1  0  0  0  0
 13 14  1  0  0  0  0
 13 15  1  0  0  0  0
 13 16  1  0  0  0  0
 17 18  1  0  0  0  0
 17 19  1  0  0  0  0
 17 20  1  0  0  0  0
 20 21  1  0  0  0  0
 20 22  1  0  0  0  0
 20 23  1  0  0  0  0
 24 25  2  0  0  0  0
 24 26  1  0  0  0  0
 26 27  1  0  0  0  0
 26 28  1  0  0  0  0
 28 29  1  0  0  0  0
 28 30  1  0  0  0  0
 28 31  1  0  0  0  0
M  END
$$$$

  -OEChem-03222214053D

 31 30  0     1  0  0  0  0  0999 V2000
   -1.9037   -4.6934    0.3200 H   0  0  0  0  0  0  0  0  0  0  0  0
   -2.0928   -3.6863   -0.0626 C   0  0  0  0  0  0  0  0  0  0  0  0
   -2.9002   -3.2349    0.5189 H   0  0  0  0  0  0  0  0  0  0  0  0
   -2.4020   -3.7606   -1.1080 H   0  0  0  0  0  0  0  0  0  0  0  0
   -0.8368   -2.8426    0.0484 C   0  0  0  0  0  0  0  0  0  0  0  0
    0.1755   -3.3240    0.5232 O   0  0  0  0  0  0  0  0  0  0  0  0
   -0.8532   -1.5349   -0.3954 N   0  0  0  0  0  0  0  0  0  0  0  0
   -1.6914   -1.2328   -0.8804 H   0  0  0  0  0  0  0  0  0  0  0  0
    0.3302   -0.6602   -0.4741 C   0  0  1  0  0  0  0  0  0  0  0  0
    1.0797   -1.1887   -1.0740 H   0  0  0  0  0  0  0  0  0  0  0  0
    0.0634    0.7435   -1.1214 C   0  0  1  0  0  0  0  0  0  0  0  0
    0.8009    1.4373   -0.7005 H   0  0  0  0  0  0  0  0  0  0  0  0
    0.4005    0.6230   -2.6190 C   0  0  0  0  0  0  0  0  0  0  0  0
   -0.2823   -0.0756   -3.1130 H   0  0  0  0  0  0  0  0  0  0  0  0
    0.3224    1.5974   -3.1119 H   0  0  0  0  0  0  0  0  0  0  0  0
    1.4260    0.2649   -2.7568 H   0  0  0  0  0  0  0  0  0  0  0  0
   -1.3257    1.4655   -1.0102 C   0  0  0  0  0  0  0  0  0  0  0  0
   -1.1337    2.4249   -0.5181 H   0  0  0  0  0  0  0  0  0  0  0  0
   -1.6994    1.7051   -2.0114 H   0  0  0  0  0  0  0  0  0  0  0  0
   -2.4884    0.8168   -0.2523 C   0  0  0  0  0  0  0  0  0  0  0  0
   -2.1742    0.4861    0.7413 H   0  0  0  0  0  0  0  0  0  0  0  0
   -2.9020   -0.0264   -0.8117 H   0  0  0  0  0  0  0  0  0  0  0  0
   -3.2914    1.5490   -0.1235 H   0  0  0  0  0  0  0  0  0  0  0  0
    1.0082   -0.4420    0.8998 C   0  0  0  0  0  0  0  0  0  0  0  0
    2.2225   -0.2980    0.9611 O   0  0  0  0  0  0  0  0  0  0  0  0
    0.2446   -0.1657    2.0194 N   0  0  0  0  0  0  0  0  0  0  0  0
   -0.7450   -0.3743    1.9467 H   0  0  0  0  0  0  0  0  0  0  0  0
    0.8248    0.0460    3.3390 C   0  0  0  0  0  0  0  0  0  0  0  0
    1.5196    0.8923    3.3215 H   0  0  0  0  0  0  0  0  0  0  0  0
    0.0382    0.2620    4.0681 H   0  0  0  0  0  0  0  0  0  0  0  0
    1.3668   -0.8479    3.6651 H   0  0  0  0  0  0  0  0  0  0  0  0
  1  2  1  0  0  0  0
  2  3  1  0  0  0  0
  2  4  1  0  0  0  0
  2  5  1  0  0  0  0
  5  6  2  0  0  0  0
  5  7  1  0  0  0  0
  7  8  1  0  0  0  0
  7  9  1  0  0  0  0
  9 10  1  0  0  0  0
  9 11  1  0  0  0  0
  9 24  1  0  0  0  0
 11 12  1  0  0  0  0
 11 13  1  0  0  0  0
 11 17  1  0  0  0  0
 13 14  1  0  0  0  0
 13 15  1  0  0  0  0
 13 16  1  0  0  0  0
 17 18  1  0  0  0  0
 17 19  1  0  0  0  0
 17 20  1  0  0  0  0
 20 21  1  0  0  0  0
 20 22  1  0  0  0  0
 20 23  1  0  0  0  0
 24 25  2  0  0  0  0
 24 26  1  0  0  0  0
 26 27  1  0  0  0  0
 26 28  1  0  0  0  0
 28 29  1  0  0  0  0
 28 30  1  0  0  0  0
 28 31  1  0  0  0  0
M  END
$$$$

  -OEChem-03222214053D

 31 30  0     1  0  0  0  0  0999 V2000
   -2.2673   -4.5378    0.3863 H   0  0  0  0  0  0  0  0  0  0  0  0
   -2.3735   -3.5211   -0.0031 C   0  0  0  0  0  0  0  0  0  0  0  0
   -3.1348   -2.9986    0.5810 H   0  0  0  0  0  0  0  0  0  0  0  0
   -2.6963   -3.5769   -1.0454 H   0  0  0  0  0  0  0  0  0  0  0  0
   -1.0498   -2.7861    0.0923 C   0  0  0  0  0  0  0  0  0  0  0  0
   -0.0800   -3.3466    0.5693 O   0  0  0  0  0  0  0  0  0  0  0  0
   -0.9568   -1.4844   -0.3592 N   0  0  0  0  0  0  0  0  0  0  0  0
   -1.7690   -1.1108   -0.8394 H   0  0  0  0  0  0  0  0  0  0  0  0
    0.2976   -0.7168   -0.4467 C   0  0  1  0  0  0  0  0  0  0  0  0
    0.9938   -1.3204   -1.0404 H   0  0  0  0  0  0  0  0  0  0  0  0
    0.1341    0.6725   -1.1492 C   0  0  1  0  0  0  0  0  0  0  0  0
    0.9002    1.3286   -0.7194 H   0  0  0  0  0  0  0  0  0  0  0  0
    0.4953    0.5040   -2.6347 C   0  0  0  0  0  0  0  0  0  0  0  0
   -0.2008   -0.1831   -3.1262 H   0  0  0  0  0  0  0  0  0  0  0  0
    0.4578    1.4687   -3.1510 H   0  0  0  0  0  0  0  0  0  0  0  0
    1.5101    0.1070   -2.7408 H   0  0  0  0  0  0  0  0  0  0  0  0
   -1.2054    1.4796   -1.0752 C   0  0  0  0  0  0  0  0  0  0  0  0
   -0.9340    2.5264   -0.9011 H   0  0  0  0  0  0  0  0  0  0  0  0
   -1.7036    1.4448   -2.0499 H   0  0  0  0  0  0  0  0  0  0  0  0
   -2.2688    1.1051   -0.0356 C   0  0  0  0  0  0  0  0  0  0  0  0
   -1.8193    0.9618    0.9491 H   0  0  0  0  0  0  0  0  0  0  0  0
   -2.9984    1.9171    0.0430 H   0  0  0  0  0  0  0  0  0  0  0  0
   -2.8173    0.2058   -0.3246 H   0  0  0  0  0  0  0  0  0  0  0  0
    1.0162   -0.5380    0.9129 C   0  0  0  0  0  0  0  0  0  0  0  0
    2.2393   -0.4942    0.9458 O   0  0  0  0  0  0  0  0  0  0  0  0
    0.3077   -0.1837    2.0464 N   0  0  0  0  0  0  0  0  0  0  0  0
   -0.6970   -0.3146    2.0028 H   0  0  0  0  0  0  0  0  0  0  0  0
    0.9374    0.0017    3.3475 C   0  0  0  0  0  0  0  0  0  0  0  0
    1.6943    0.7916    3.2986 H   0  0  0  0  0  0  0  0  0  0  0  0
    0.1893    0.2882    4.0927 H   0  0  0  0  0  0  0  0  0  0  0  0
    1.4177   -0.9264    3.6748 H   0  0  0  0  0  0  0  0  0  0  0  0
  1  2  1  0  0  0  0
  2  3  1  0  0  0  0
  2  4  1  0  0  0  0
  2  5  1  0  0  0  0
  5  6  2  0  0  0  0
  5  7  1  0  0  0  0
  7  8  1  0  0  0  0
  7  9  1  0  0  0  0
  9 10  1  0  0  0  0
  9 11  1  0  0  0  0
  9 24  1  0  0  0  0
 11 12  1  0  0  0  0
 11 13  1  0  0  0  0
 11 17  1  0  0  0  0
 13 14  1  0  0  0  0
 13 15  1  0  0  0  0
 13 16  1  0  0  0  0
 17 18  1  0  0  0  0
 17 19  1  0  0  0  0
 17 20  1  0  0  0  0
 20 21  1  0  0  0  0
 20 22  1  0  0  0  0
 20 23  1  0  0  0  0
 24 25  2  0  0  0  0
 24 26  1  0  0  0  0
 26 27  1  0  0  0  0
 26 28  1  0  0  0  0
 28 29  1  0  0  0  0
 28 30  1  0  0  0  0
 28 31  1  0  0  0  0
M  END
$$$$

  -OEChem-03222214053D

 31 30  0     1  0  0  0  0  0999 V2000
   -2.3203   -4.4864    0.3614 H   0  0  0  0  0  0  0  0  0  0  0  0
   -2.4117   -3.4616   -0.0098 C   0  0  0  0  0  0  0  0  0  0  0  0
   -3.1513   -2.9326    0.5959 H   0  0  0  0  0  0  0  0  0  0  0  0
   -2.7538   -3.4940   -1.0470 H   0  0  0  0  0  0  0  0  0  0  0  0
   -1.0714   -2.7559    0.0730 C   0  0  0  0  0  0  0  0  0  0  0  0
   -0.1064   -3.3401    0.5307 O   0  0  0  0  0  0  0  0  0  0  0  0
   -0.9576   -1.4525   -0.3684 N   0  0  0  0  0  0  0  0  0  0  0  0
   -1.7756   -1.0448   -0.8105 H   0  0  0  0  0  0  0  0  0  0  0  0
    0.3067   -0.6995   -0.4428 C   0  0  1  0  0  0  0  0  0  0  0  0
    0.9999   -1.3067   -1.0362 H   0  0  0  0  0  0  0  0  0  0  0  0
    0.1437    0.6811   -1.1554 C   0  0  1  0  0  0  0  0  0  0  0  0
    0.8997    1.3459   -0.7210 H   0  0  0  0  0  0  0  0  0  0  0  0
    0.5030    0.5167   -2.6408 C   0  0  0  0  0  0  0  0  0  0  0  0
   -0.1747   -0.1923   -3.1269 H   0  0  0  0  0  0  0  0  0  0  0  0
    0.4348    1.4775   -3.1610 H   0  0  0  0  0  0  0  0  0  0  0  0
    1.5281    0.1476   -2.7481 H   0  0  0  0  0  0  0  0  0  0  0  0
   -1.2052    1.4612   -1.0798 C   0  0  0  0  0  0  0  0  0  0  0  0
   -0.9756    2.5262   -1.1929 H   0  0  0  0  0  0  0  0  0  0  0  0
   -1.8259    1.1764   -1.9360 H   0  0  0  0  0  0  0  0  0  0  0  0
   -2.0833    1.2977    0.1688 C   0  0  0  0  0  0  0  0  0  0  0  0
   -1.4952    1.4725    1.0731 H   0  0  0  0  0  0  0  0  0  0  0  0
   -2.8860    2.0412    0.1430 H   0  0  0  0  0  0  0  0  0  0  0  0
   -2.5570    0.3171    0.2270 H   0  0  0  0  0  0  0  0  0  0  0  0
    1.0221   -0.5361    0.9197 C   0  0  0  0  0  0  0  0  0  0  0  0
    2.2453   -0.5053    0.9576 O   0  0  0  0  0  0  0  0  0  0  0  0
    0.3133   -0.1799    2.0521 N   0  0  0  0  0  0  0  0  0  0  0  0
   -0.6934   -0.2914    2.0012 H   0  0  0  0  0  0  0  0  0  0  0  0
    0.9378   -0.0162    3.3585 C   0  0  0  0  0  0  0  0  0  0  0  0
    1.7146    0.7547    3.3193 H   0  0  0  0  0  0  0  0  0  0  0  0
    0.1916    0.2855    4.0996 H   0  0  0  0  0  0  0  0  0  0  0  0
    1.3918   -0.9579    3.6843 H   0  0  0  0  0  0  0  0  0  0  0  0
  1  2  1  0  0  0  0
  2  3  1  0  0  0  0
  2  4  1  0  0  0  0
  2  5  1  0  0  0  0
  5  6  2  0  0  0  0
  5  7  1  0  0  0  0
  7  8  1  0  0  0  0
  7  9  1  0  0  0  0
  9 10  1  0  0  0  0
  9 11  1  0  0  0  0
  9 24  1  0  0  0  0
 11 12  1  0  0  0  0
 11 13  1  0  0  0  0
 11 17  1  0  0  0  0
 13 14  1  0  0  0  0
 13 15  1  0  0  0  0
 13 16  1  0  0  0  0
 17 18  1  0  0  0  0
 17 19  1  0  0  0  0
 17 20  1  0  0  0  0
 20 21  1  0  0  0  0
 20 22  1  0  0  0  0
 20 23  1  0  0  0  0
 24 25  2  0  0  0  0
 24 26  1  0  0  0  0
 26 27  1  0  0  0  0
 26 28  1  0  0  0  0
 28 29  1  0  0  0  0
 28 30  1  0  0  0  0
 28 31  1  0  0  0  0
M  END
$$$$

  -OEChem-03222214053D

 31 30  0     1  0  0  0  0  0999 V2000
   -2.3867   -4.4248    0.3390 H   0  0  0  0  0  0  0  0  0  0  0  0
   -2.4579   -3.3986   -0.0330 C   0  0  0  0  0  0  0  0  0  0  0  0
   -3.1862   -2.8546    0.5731 H   0  0  0  0  0  0  0  0  0  0  0  0
   -2.8016   -3.4248   -1.0698 H   0  0  0  0  0  0  0  0  0  0  0  0
   -1.1036   -2.7198    0.0483 C   0  0  0  0  0  0  0  0  0  0  0  0
   -0.1495   -3.3229    0.5046 O   0  0  0  0  0  0  0  0  0  0  0  0
   -0.9645   -1.4179   -0.3895 N   0  0  0  0  0  0  0  0  0  0  0  0
   -1.7775   -0.9865   -0.8178 H   0  0  0  0  0  0  0  0  0  0  0  0
    0.3136   -0.6832   -0.4416 C   0  0  1  0  0  0  0  0  0  0  0  0
    1.0071   -1.2972   -1.0276 H   0  0  0  0  0  0  0  0  0  0  0  0
    0.1620    0.6922   -1.1611 C   0  0  1  0  0  0  0  0  0  0  0  0
    0.9131    1.3671   -0.7344 H   0  0  0  0  0  0  0  0  0  0  0  0
    0.5038    0.5181   -2.6487 C   0  0  0  0  0  0  0  0  0  0  0  0
   -0.1822   -0.1903   -3.1236 H   0  0  0  0  0  0  0  0  0  0  0  0
    0.4346    1.4759   -3.1736 H   0  0  0  0  0  0  0  0  0  0  0  0
    1.5262    0.1437   -2.7641 H   0  0  0  0  0  0  0  0  0  0  0  0
   -1.2035    1.4286   -1.0750 C   0  0  0  0  0  0  0  0  0  0  0  0
   -1.0588    2.4558   -1.4267 H   0  0  0  0  0  0  0  0  0  0  0  0
   -1.9127    0.9503   -1.7585 H   0  0  0  0  0  0  0  0  0  0  0  0
   -1.8582    1.4865    0.3110 C   0  0  0  0  0  0  0  0  0  0  0  0
   -1.1642    1.9231    1.0356 H   0  0  0  0  0  0  0  0  0  0  0  0
   -2.7478    2.1223    0.2678 H   0  0  0  0  0  0  0  0  0  0  0  0
   -2.1721    0.5042    0.6671 H   0  0  0  0  0  0  0  0  0  0  0  0
    1.0182   -0.5258    0.9274 C   0  0  0  0  0  0  0  0  0  0  0  0
    2.2413   -0.5132    0.9762 O   0  0  0  0  0  0  0  0  0  0  0  0
    0.3063   -0.1567    2.0542 N   0  0  0  0  0  0  0  0  0  0  0  0
   -0.7024   -0.2404    1.9948 H   0  0  0  0  0  0  0  0  0  0  0  0
    0.9234    0.0145    3.3633 C   0  0  0  0  0  0  0  0  0  0  0  0
    1.7006    0.7852    3.3242 H   0  0  0  0  0  0  0  0  0  0  0  0
    0.1728    0.3202    4.0983 H   0  0  0  0  0  0  0  0  0  0  0  0
    1.3754   -0.9252    3.6977 H   0  0  0  0  0  0  0  0  0  0  0  0
  1  2  1  0  0  0  0
  2  3  1  0  0  0  0
  2  4  1  0  0  0  0
  2  5  1  0  0  0  0
  5  6  2  0  0  0  0
  5  7  1  0  0  0  0
  7  8  1  0  0  0  0
  7  9  1  0  0  0  0
  9 10  1  0  0  0  0
  9 11  1  0  0  0  0
  9 24  1  0  0  0  0
 11 12  1  0  0  0  0
 11 13  1  0  0  0  0
 11 17  1  0  0  0  0
 13 14  1  0  0  0  0
 13 15  1  0  0  0  0
 13 16  1  0  0  0  0
 17 18  1  0  0  0  0
 17 19  1  0  0  0  0
 17 20  1  0  0  0  0
 20 21  1  0  0  0  0
 20 22  1  0  0  0  0
 20 23  1  0  0  0  0
 24 25  2  0  0  0  0
 24 26  1  0  0  0  0
 26 27  1  0  0  0  0
 26 28  1  0  0  0  0
 28 29  1  0  0  0  0
 28 30  1  0  0  0  0
 28 31  1  0  0  0  0
M  END
$$$$

  -OEChem-03222214053D

 31 30  0     1  0  0  0  0  0999 V2000
   -2.4164   -4.3944    0.3074 H   0  0  0  0  0  0  0  0  0  0  0  0
   -2.4825   -3.3653   -0.0569 C   0  0  0  0  0  0  0  0  0  0  0  0
   -3.2129   -2.8241    0.5491 H   0  0  0  0  0  0  0  0  0  0  0  0
   -2.8201   -3.3817   -1.0959 H   0  0  0  0  0  0  0  0  0  0  0  0
   -1.1267   -2.6914    0.0388 C   0  0  0  0  0  0  0  0  0  0  0  0
   -0.1790   -3.2985    0.5028 O   0  0  0  0  0  0  0  0  0  0  0  0
   -0.9788   -1.3889   -0.3934 N   0  0  0  0  0  0  0  0  0  0  0  0
   -1.7862   -0.9542   -0.8281 H   0  0  0  0  0  0  0  0  0  0  0  0
    0.3044   -0.6602   -0.4313 C   0  0  1  0  0  0  0  0  0  0  0  0
    0.9982   -1.2816   -1.0089 H   0  0  0  0  0  0  0  0  0  0  0  0
    0.1694    0.7086   -1.1648 C   0  0  1  0  0  0  0  0  0  0  0  0
    0.9185    1.3942   -0.7522 H   0  0  0  0  0  0  0  0  0  0  0  0
    0.4999    0.5087   -2.6519 C   0  0  0  0  0  0  0  0  0  0  0  0
   -0.1992   -0.1967   -3.1123 H   0  0  0  0  0  0  0  0  0  0  0  0
    0.4413    1.4596   -3.1910 H   0  0  0  0  0  0  0  0  0  0  0  0
    1.5161    0.1181   -2.7682 H   0  0  0  0  0  0  0  0  0  0  0  0
   -1.2111    1.4077   -1.0814 C   0  0  0  0  0  0  0  0  0  0  0  0
   -1.1495    2.3515   -1.6337 H   0  0  0  0  0  0  0  0  0  0  0  0
   -1.9773    0.7993   -1.5718 H   0  0  0  0  0  0  0  0  0  0  0  0
   -1.6603    1.7350    0.3436 C   0  0  0  0  0  0  0  0  0  0  0  0
   -0.8679    2.2624    0.8839 H   0  0  0  0  0  0  0  0  0  0  0  0
   -2.5448    2.3786    0.3149 H   0  0  0  0  0  0  0  0  0  0  0  0
   -1.9227    0.8269    0.8915 H   0  0  0  0  0  0  0  0  0  0  0  0
    1.0080   -0.5045    0.9387 C   0  0  0  0  0  0  0  0  0  0  0  0
    2.2312   -0.4945    0.9859 O   0  0  0  0  0  0  0  0  0  0  0  0
    0.3011   -0.1323    2.0673 N   0  0  0  0  0  0  0  0  0  0  0  0
   -0.7077   -0.2179    2.0127 H   0  0  0  0  0  0  0  0  0  0  0  0
    0.9236    0.0375    3.3738 C   0  0  0  0  0  0  0  0  0  0  0  0
    1.6992    0.8094    3.3322 H   0  0  0  0  0  0  0  0  0  0  0  0
    0.1757    0.3410    4.1124 H   0  0  0  0  0  0  0  0  0  0  0  0
    1.3788   -0.9020    3.7047 H   0  0  0  0  0  0  0  0  0  0  0  0
  1  2  1  0  0  0  0
  2  3  1  0  0  0  0
  2  4  1  0  0  0  0
  2  5  1  0  0  0  0
  5  6  2  0  0  0  0
  5  7  1  0  0  0  0
  7  8  1  0  0  0  0
  7  9  1  0  0  0  0
  9 10  1  0  0  0  0
  9 11  1  0  0  0  0
  9 24  1  0  0  0  0
 11 12  1  0  0  0  0
 11 13  1  0  0  0  0
 11 17  1  0  0  0  0
 13 14  1  0  0  0  0
 13 15  1  0  0  0  0
 13 16  1  0  0  0  0
 17 18  1  0  0  0  0
 17 19  1  0  0  0  0
 17 20  1  0  0  0  0
 20 21  1  0  0  0  0
 20 22  1  0  0  0  0
 20 23  1  0  0  0  0
 24 25  2  0  0  0  0
 24 26  1  0  0  0  0
 26 27  1  0  0  0  0
 26 28  1  0  0  0  0
 28 29  1  0  0  0  0
 28 30  1  0  0  0  0
 28 31  1  0  0  0  0
M  END
$$$$

  -OEChem-03222214053D

 31 30  0     1  0  0  0  0  0999 V2000
   -2.4107   -4.4052    0.2953 H   0  0  0  0  0  0  0  0  0  0  0  0
   -2.4808   -3.3766   -0.0700 C   0  0  0  0  0  0  0  0  0  0  0  0
   -3.2254   -2.8423    0.5248 H   0  0  0  0  0  0  0  0  0  0  0  0
   -2.8025   -3.3968   -1.1140 H   0  0  0  0  0  0  0  0  0  0  0  0
   -1.1328   -2.6896    0.0450 C   0  0  0  0  0  0  0  0  0  0  0  0
   -0.1864   -3.2878    0.5232 O   0  0  0  0  0  0  0  0  0  0  0  0
   -0.9901   -1.3871   -0.3905 N   0  0  0  0  0  0  0  0  0  0  0  0
   -1.7937   -0.9674   -0.8462 H   0  0  0  0  0  0  0  0  0  0  0  0
    0.2918   -0.6558   -0.4339 C   0  0  1  0  0  0  0  0  0  0  0  0
    0.9851   -1.2800   -1.0092 H   0  0  0  0  0  0  0  0  0  0  0  0
    0.1682    0.7179   -1.1637 C   0  0  1  0  0  0  0  0  0  0  0  0
    0.9322    1.3978   -0.7691 H   0  0  0  0  0  0  0  0  0  0  0  0
    0.4799    0.5008   -2.6540 C   0  0  0  0  0  0  0  0  0  0  0  0
   -0.2462   -0.1826   -3.1058 H   0  0  0  0  0  0  0  0  0  0  0  0
    0.4498    1.4505   -3.1974 H   0  0  0  0  0  0  0  0  0  0  0  0
    1.4818    0.0772   -2.7784 H   0  0  0  0  0  0  0  0  0  0  0  0
   -1.2113    1.4213   -1.0737 C   0  0  0  0  0  0  0  0  0  0  0  0
   -1.2283    2.2372   -1.8042 H   0  0  0  0  0  0  0  0  0  0  0  0
   -2.0277    0.7457   -1.3425 H   0  0  0  0  0  0  0  0  0  0  0  0
   -1.4746    2.0507    0.2939 C   0  0  0  0  0  0  0  0  0  0  0  0
   -0.6184    2.6521    0.6155 H   0  0  0  0  0  0  0  0  0  0  0  0
   -2.3536    2.7003    0.2419 H   0  0  0  0  0  0  0  0  0  0  0  0
   -1.6695    1.2797    1.0422 H   0  0  0  0  0  0  0  0  0  0  0  0
    0.9941   -0.4993    0.9364 C   0  0  0  0  0  0  0  0  0  0  0  0
    2.2173   -0.4821    0.9841 O   0  0  0  0  0  0  0  0  0  0  0  0
    0.2841   -0.1283    2.0632 N   0  0  0  0  0  0  0  0  0  0  0  0
   -0.7238   -0.2253    2.0090 H   0  0  0  0  0  0  0  0  0  0  0  0
    0.9050    0.0548    3.3688 C   0  0  0  0  0  0  0  0  0  0  0  0
    1.6677    0.8394    3.3244 H   0  0  0  0  0  0  0  0  0  0  0  0
    0.1532    0.3475    4.1076 H   0  0  0  0  0  0  0  0  0  0  0  0
    1.3761   -0.8762    3.7016 H   0  0  0  0  0  0  0  0  0  0  0  0
  1  2  1  0  0  0  0
  2  3  1  0  0  0  0
  2  4  1  0  0  0  0
  2  5  1  0  0  0  0
  5  6  2  0  0  0  0
  5  7  1  0  0  0  0
  7  8  1  0  0  0  0
  7  9  1  0  0  0  0
  9 10  1  0  0  0  0
  9 11  1  0  0  0  0
  9 24  1  0  0  0  0
 11 12  1  0  0  0  0
 11 13  1  0  0  0  0
 11 17  1  0  0  0  0
 13 14  1  0  0  0  0
 13 15  1  0  0  0  0
 13 16  1  0  0  0  0
 17 18  1  0  0  0  0
 17 19  1  0  0  0  0
 17 20  1  0  0  0  0
 20 21  1  0  0  0  0
 20 22  1  0  0  0  0
 20 23  1  0  0  0  0
 24 25  2  0  0  0  0
 24 26  1  0  0  0  0
 26 27  1  0  0  0  0
 26 28  1  0  0  0  0
 28 29  1  0  0  0  0
 28 30  1  0  0  0  0
 28 31  1  0  0  0  0
M  END
$$$$

  -OEChem-03222214053D

 31 30  0     1  0  0  0  0  0999 V2000
   -2.3838   -4.4203    0.3121 H   0  0  0  0  0  0  0  0  0  0  0  0
   -2.4628   -3.3945   -0.0595 C   0  0  0  0  0  0  0  0  0  0  0  0
   -3.2148   -2.8642    0.5293 H   0  0  0  0  0  0  0  0  0  0  0  0
   -2.7806   -3.4240   -1.1044 H   0  0  0  0  0  0  0  0  0  0  0  0
   -1.1226   -2.6931    0.0572 C   0  0  0  0  0  0  0  0  0  0  0  0
   -0.1742   -3.2784    0.5471 O   0  0  0  0  0  0  0  0  0  0  0  0
   -0.9897   -1.3946   -0.3935 N   0  0  0  0  0  0  0  0  0  0  0  0
   -1.7871   -1.0010   -0.8820 H   0  0  0  0  0  0  0  0  0  0  0  0
    0.2886   -0.6570   -0.4502 C   0  0  1  0  0  0  0  0  0  0  0  0
    0.9861   -1.2782   -1.0236 H   0  0  0  0  0  0  0  0  0  0  0  0
    0.1640    0.7251   -1.1680 C   0  0  1  0  0  0  0  0  0  0  0  0
    0.9448    1.3949   -0.7892 H   0  0  0  0  0  0  0  0  0  0  0  0
    0.4558    0.5000   -2.6618 C   0  0  0  0  0  0  0  0  0  0  0  0
   -0.2907   -0.1666   -3.1049 H   0  0  0  0  0  0  0  0  0  0  0  0
    0.4435    1.4495   -3.2061 H   0  0  0  0  0  0  0  0  0  0  0  0
    1.4464    0.0534   -2.7969 H   0  0  0  0  0  0  0  0  0  0  0  0
   -1.2113    1.4442   -1.0613 C   0  0  0  0  0  0  0  0  0  0  0  0
   -1.3482    2.0842   -1.9395 H   0  0  0  0  0  0  0  0  0  0  0  0
   -2.0499    0.7453   -1.0579 H   0  0  0  0  0  0  0  0  0  0  0  0
   -1.2892    2.3600    0.1610 C   0  0  0  0  0  0  0  0  0  0  0  0
   -0.4525    3.0655    0.1691 H   0  0  0  0  0  0  0  0  0  0  0  0
   -2.2216    2.9322    0.1390 H   0  0  0  0  0  0  0  0  0  0  0  0
   -1.2686    1.7796    1.0853 H   0  0  0  0  0  0  0  0  0  0  0  0
    0.9777   -0.4935    0.9248 C   0  0  0  0  0  0  0  0  0  0  0  0
    2.2001   -0.4755    0.9880 O   0  0  0  0  0  0  0  0  0  0  0  0
    0.2486   -0.1200    2.0386 N   0  0  0  0  0  0  0  0  0  0  0  0
   -0.7584   -0.2164    1.9666 H   0  0  0  0  0  0  0  0  0  0  0  0
    0.8466    0.0588    3.3551 C   0  0  0  0  0  0  0  0  0  0  0  0
    1.6195    0.8339    3.3238 H   0  0  0  0  0  0  0  0  0  0  0  0
    0.0843    0.3627    4.0787 H   0  0  0  0  0  0  0  0  0  0  0  0
    1.2997   -0.8772    3.6983 H   0  0  0  0  0  0  0  0  0  0  0  0
  1  2  1  0  0  0  0
  2  3  1  0  0  0  0
  2  4  1  0  0  0  0
  2  5  1  0  0  0  0
  5  6  2  0  0  0  0
  5  7  1  0  0  0  0
  7  8  1  0  0  0  0
  7  9  1  0  0  0  0
  9 10  1  0  0  0  0
  9 11  1  0  0  0  0
  9 24  1  0  0  0  0
 11 12  1  0  0  0  0
 11 13  1  0  0  0  0
 11 17  1  0  0  0  0
 13 14  1  0  0  0  0
 13 15  1  0  0  0  0
 13 16  1  0  0  0  0
 17 18  1  0  0  0  0
 17 19  1  0  0  0  0
 17 20  1  0  0  0  0
 20 21  1  0  0  0  0
 20 22  1  0  0  0  0
 20 23  1  0  0  0  0
 24 25  2  0  0  0  0
 24 26  1  0  0  0  0
 26 27  1  0  0  0  0
 26 28  1  0  0  0  0
 28 29  1  0  0  0  0
 28 30  1  0  0  0  0
 28 31  1  0  0  0  0
M  END
$$$$

  -OEChem-03222214053D

 31 30  0     1  0  0  0  0  0999 V2000
   -2.3788   -4.4261    0.3418 H   0  0  0  0  0  0  0  0  0  0  0  0
   -2.4559   -3.4074   -0.0492 C   0  0  0  0  0  0  0  0  0  0  0  0
   -3.2145   -2.8681    0.5229 H   0  0  0  0  0  0  0  0  0  0  0  0
   -2.7637   -3.4564   -1.0964 H   0  0  0  0  0  0  0  0  0  0  0  0
   -1.1177   -2.7016    0.0667 C   0  0  0  0  0  0  0  0  0  0  0  0
   -0.1733   -3.2759    0.5768 O   0  0  0  0  0  0  0  0  0  0  0  0
   -0.9818   -1.4132   -0.4125 N   0  0  0  0  0  0  0  0  0  0  0  0
   -1.7733   -1.0349   -0.9229 H   0  0  0  0  0  0  0  0  0  0  0  0
    0.2965   -0.6751   -0.4795 C   0  0  1  0  0  0  0  0  0  0  0  0
    1.0014   -1.2891   -1.0514 H   0  0  0  0  0  0  0  0  0  0  0  0
    0.1629    0.7181   -1.1737 C   0  0  1  0  0  0  0  0  0  0  0  0
    0.9544    1.3766   -0.7969 H   0  0  0  0  0  0  0  0  0  0  0  0
    0.4387    0.5179   -2.6738 C   0  0  0  0  0  0  0  0  0  0  0  0
   -0.3095   -0.1445   -3.1206 H   0  0  0  0  0  0  0  0  0  0  0  0
    0.4160    1.4775   -3.2003 H   0  0  0  0  0  0  0  0  0  0  0  0
    1.4297    0.0781   -2.8268 H   0  0  0  0  0  0  0  0  0  0  0  0
   -1.2116    1.4391   -1.0296 C   0  0  0  0  0  0  0  0  0  0  0  0
   -1.5177    1.8630   -1.9919 H   0  0  0  0  0  0  0  0  0  0  0  0
   -2.0121    0.7668   -0.7187 H   0  0  0  0  0  0  0  0  0  0  0  0
   -1.1223    2.5909   -0.0266 C   0  0  0  0  0  0  0  0  0  0  0  0
   -0.3788    3.3258   -0.3515 H   0  0  0  0  0  0  0  0  0  0  0  0
   -2.0909    3.0934    0.0548 H   0  0  0  0  0  0  0  0  0  0  0  0
   -0.8398    2.2229    0.9636 H   0  0  0  0  0  0  0  0  0  0  0  0
    0.9633   -0.4891    0.9034 C   0  0  0  0  0  0  0  0  0  0  0  0
    2.1841   -0.4724    0.9909 O   0  0  0  0  0  0  0  0  0  0  0  0
    0.2083   -0.0958    1.9935 N   0  0  0  0  0  0  0  0  0  0  0  0
   -0.7968   -0.1918    1.8994 H   0  0  0  0  0  0  0  0  0  0  0  0
    0.7767    0.1029    3.3204 C   0  0  0  0  0  0  0  0  0  0  0  0
    1.5579    0.8699    3.2927 H   0  0  0  0  0  0  0  0  0  0  0  0
    0.0006    0.4279    4.0198 H   0  0  0  0  0  0  0  0  0  0  0  0
    1.2122   -0.8306    3.6922 H   0  0  0  0  0  0  0  0  0  0  0  0
  1  2  1  0  0  0  0
  2  3  1  0  0  0  0
  2  4  1  0  0  0  0
  2  5  1  0  0  0  0
  5  6  2  0  0  0  0
  5  7  1  0  0  0  0
  7  8  1  0  0  0  0
  7  9  1  0  0  0  0
  9 10  1  0  0  0  0
  9 11  1  0  0  0  0
  9 24  1  0  0  0  0
 11 12  1  0  0  0  0
 11 13  1  0  0  0  0
 11 17  1  0  0  0  0
 13 14  1  0  0  0  0
 13 15  1  0  0  0  0
 13 16  1  0  0  0  0
 17 18  1  0  0  0  0
 17 19  1  0  0  0  0
 17 20  1  0  0  0  0
 20 21  1  0  0  0  0
 20 22  1  0  0  0  0
 20 23  1  0  0  0  0
 24 25  2  0  0  0  0
 24 26  1  0  0  0  0
 26 27  1  0  0  0  0
 26 28  1  0  0  0  0
 28 29  1  0  0  0  0
 28 30  1  0  0  0  0
 28 31  1  0  0  0  0
M  END
$$$$

  -OEChem-03222214053D

 31 30  0     1  0  0  0  0  0999 V2000
   -2.3897   -4.4186    0.3552 H   0  0  0  0  0  0  0  0  0  0  0  0
   -2.4620   -3.4030   -0.0446 C   0  0  0  0  0  0  0  0  0  0  0  0
   -3.2198   -2.8556    0.5209 H   0  0  0  0  0  0  0  0  0  0  0  0
   -2.7668   -3.4596   -1.0923 H   0  0  0  0  0  0  0  0  0  0  0  0
   -1.1215   -2.7018    0.0689 C   0  0  0  0  0  0  0  0  0  0  0  0
   -0.1821   -3.2736    0.5908 O   0  0  0  0  0  0  0  0  0  0  0  0
   -0.9778   -1.4204   -0.4260 N   0  0  0  0  0  0  0  0  0  0  0  0
   -1.7663   -1.0426   -0.9420 H   0  0  0  0  0  0  0  0  0  0  0  0
    0.3043   -0.6881   -0.4955 C   0  0  1  0  0  0  0  0  0  0  0  0
    1.0108   -1.2983   -1.0696 H   0  0  0  0  0  0  0  0  0  0  0  0
    0.1603    0.7068   -1.1786 C   0  0  1  0  0  0  0  0  0  0  0  0
    0.9491    1.3616   -0.7890 H   0  0  0  0  0  0  0  0  0  0  0  0
    0.4350    0.5401   -2.6815 C   0  0  0  0  0  0  0  0  0  0  0  0
   -0.2936   -0.1384   -3.1367 H   0  0  0  0  0  0  0  0  0  0  0  0
    0.3777    1.5079   -3.1901 H   0  0  0  0  0  0  0  0  0  0  0  0
    1.4385    0.1336   -2.8444 H   0  0  0  0  0  0  0  0  0  0  0  0
   -1.2185    1.4117   -1.0064 C   0  0  0  0  0  0  0  0  0  0  0  0
   -1.6966    1.5749   -1.9781 H   0  0  0  0  0  0  0  0  0  0  0  0
   -1.9115    0.8214   -0.4039 H   0  0  0  0  0  0  0  0  0  0  0  0
   -1.0487    2.7585   -0.3019 C   0  0  0  0  0  0  0  0  0  0  0  0
   -0.4019    3.4185   -0.8887 H   0  0  0  0  0  0  0  0  0  0  0  0
   -2.0211    3.2450   -0.1802 H   0  0  0  0  0  0  0  0  0  0  0  0
   -0.6033    2.6201    0.6885 H   0  0  0  0  0  0  0  0  0  0  0  0
    0.9627   -0.4881    0.8893 C   0  0  0  0  0  0  0  0  0  0  0  0
    2.1828   -0.4765    0.9869 O   0  0  0  0  0  0  0  0  0  0  0  0
    0.1987   -0.0776    1.9670 N   0  0  0  0  0  0  0  0  0  0  0  0
   -0.8057   -0.1716    1.8650 H   0  0  0  0  0  0  0  0  0  0  0  0
    0.7554    0.1379    3.2961 C   0  0  0  0  0  0  0  0  0  0  0  0
    1.5393    0.9018    3.2645 H   0  0  0  0  0  0  0  0  0  0  0  0
   -0.0261    0.4754    3.9835 H   0  0  0  0  0  0  0  0  0  0  0  0
    1.1841   -0.7916    3.6853 H   0  0  0  0  0  0  0  0  0  0  0  0
  1  2  1  0  0  0  0
  2  3  1  0  0  0  0
  2  4  1  0  0  0  0
  2  5  1  0  0  0  0
  5  6  2  0  0  0  0
  5  7  1  0  0  0  0
  7  8  1  0  0  0  0
  7  9  1  0  0  0  0
  9 10  1  0  0  0  0
  9 11  1  0  0  0  0
  9 24  1  0  0  0  0
 11 12  1  0  0  0  0
 11 13  1  0  0  0  0
 11 17  1  0  0  0  0
 13 14  1  0  0  0  0
 13 15  1  0  0  0  0
 13 16  1  0  0  0  0
 17 18  1  0  0  0  0
 17 19  1  0  0  0  0
 17 20  1  0  0  0  0
 20 21  1  0  0  0  0
 20 22  1  0  0  0  0
 20 23  1  0  0  0  0
 24 25  2  0  0  0  0
 24 26  1  0  0  0  0
 26 27  1  0  0  0  0
 26 28  1  0  0  0  0
 28 29  1  0  0  0  0
 28 30  1  0  0  0  0
 28 31  1  0  0  0  0
M  END
$$$$

  -OEChem-03222214053D

 31 30  0     1  0  0  0  0  0999 V2000
   -2.4155   -4.3930    0.3603 H   0  0  0  0  0  0  0  0  0  0  0  0
   -2.4792   -3.3774   -0.0410 C   0  0  0  0  0  0  0  0  0  0  0  0
   -3.2274   -2.8209    0.5283 H   0  0  0  0  0  0  0  0  0  0  0  0
   -2.7916   -3.4326   -1.0866 H   0  0  0  0  0  0  0  0  0  0  0  0
   -1.1306   -2.6905    0.0634 C   0  0  0  0  0  0  0  0  0  0  0  0
   -0.1945   -3.2708    0.5818 O   0  0  0  0  0  0  0  0  0  0  0  0
   -0.9763   -1.4098   -0.4301 N   0  0  0  0  0  0  0  0  0  0  0  0
   -1.7640   -1.0197   -0.9383 H   0  0  0  0  0  0  0  0  0  0  0  0
    0.3114   -0.6867   -0.4951 C   0  0  1  0  0  0  0  0  0  0  0  0
    1.0154   -1.2978   -1.0711 H   0  0  0  0  0  0  0  0  0  0  0  0
    0.1612    0.7019   -1.1845 C   0  0  1  0  0  0  0  0  0  0  0  0
    0.9356    1.3631   -0.7774 H   0  0  0  0  0  0  0  0  0  0  0  0
    0.4453    0.5544   -2.6866 C   0  0  0  0  0  0  0  0  0  0  0  0
   -0.2589   -0.1450   -3.1482 H   0  0  0  0  0  0  0  0  0  0  0  0
    0.3567    1.5228   -3.1894 H   0  0  0  0  0  0  0  0  0  0  0  0
    1.4619    0.1809   -2.8469 H   0  0  0  0  0  0  0  0  0  0  0  0
   -1.2253    1.3793   -1.0031 C   0  0  0  0  0  0  0  0  0  0  0  0
   -1.8353    1.2700   -1.9060 H   0  0  0  0  0  0  0  0  0  0  0  0
   -1.7770    0.9248   -0.1758 H   0  0  0  0  0  0  0  0  0  0  0  0
   -1.0679    2.8597   -0.6524 C   0  0  0  0  0  0  0  0  0  0  0  0
   -0.5332    3.3872   -1.4485 H   0  0  0  0  0  0  0  0  0  0  0  0
   -2.0513    3.3235   -0.5286 H   0  0  0  0  0  0  0  0  0  0  0  0
   -0.5100    2.9759    0.2824 H   0  0  0  0  0  0  0  0  0  0  0  0
    0.9720   -0.4894    0.8892 C   0  0  0  0  0  0  0  0  0  0  0  0
    2.1922   -0.4870    0.9856 O   0  0  0  0  0  0  0  0  0  0  0  0
    0.2121   -0.0723    1.9674 N   0  0  0  0  0  0  0  0  0  0  0  0
   -0.7928   -0.1637    1.8681 H   0  0  0  0  0  0  0  0  0  0  0  0
    0.7722    0.1389    3.2959 C   0  0  0  0  0  0  0  0  0  0  0  0
    1.5635    0.8952    3.2634 H   0  0  0  0  0  0  0  0  0  0  0  0
   -0.0054    0.4846    3.9836 H   0  0  0  0  0  0  0  0  0  0  0  0
    1.1924   -0.7942    3.6856 H   0  0  0  0  0  0  0  0  0  0  0  0
  1  2  1  0  0  0  0
  2  3  1  0  0  0  0
  2  4  1  0  0  0  0
  2  5  1  0  0  0  0
  5  6  2  0  0  0  0
  5  7  1  0  0  0  0
  7  8  1  0  0  0  0
  7  9  1  0  0  0  0
  9 10  1  0  0  0  0
  9 11  1  0  0  0  0
  9 24  1  0  0  0  0
 11 12  1  0  0  0  0
 11 13  1  0  0  0  0
 11 17  1  0  0  0  0
 13 14  1  0  0  0  0
 13 15  1  0  0  0  0
 13 16  1  0  0  0  0
 17 18  1  0  0  0  0
 17 19  1  0  0  0  0
 17 20  1  0  0  0  0
 20 21  1  0  0  0  0
 20 22  1  0  0  0  0
 20 23  1  0  0  0  0
 24 25  2  0  0  0  0
 24 26  1  0  0  0  0
 26 27  1  0  0  0  0
 26 28  1  0  0  0  0
 28 29  1  0  0  0  0
 28 30  1  0  0  0  0
 28 31  1  0  0  0  0
M  END
$$$$

  -OEChem-03222214053D

 31 30  0     1  0  0  0  0  0999 V2000
   -2.4380   -4.3745    0.3404 H   0  0  0  0  0  0  0  0  0  0  0  0
   -2.4945   -3.3552   -0.0525 C   0  0  0  0  0  0  0  0  0  0  0  0
   -3.2431   -2.7997    0.5174 H   0  0  0  0  0  0  0  0  0  0  0  0
   -2.8015   -3.4001   -1.1002 H   0  0  0  0  0  0  0  0  0  0  0  0
   -1.1430   -2.6754    0.0640 C   0  0  0  0  0  0  0  0  0  0  0  0
   -0.2148   -3.2594    0.5925 O   0  0  0  0  0  0  0  0  0  0  0  0
   -0.9775   -1.3956   -0.4278 N   0  0  0  0  0  0  0  0  0  0  0  0
   -1.7616   -0.9985   -0.9358 H   0  0  0  0  0  0  0  0  0  0  0  0
    0.3154   -0.6812   -0.4895 C   0  0  1  0  0  0  0  0  0  0  0  0
    1.0165   -1.2970   -1.0642 H   0  0  0  0  0  0  0  0  0  0  0  0
    0.1662    0.7023   -1.1871 C   0  0  1  0  0  0  0  0  0  0  0  0
    0.9292    1.3734   -0.7747 H   0  0  0  0  0  0  0  0  0  0  0  0
    0.4533    0.5477   -2.6889 C   0  0  0  0  0  0  0  0  0  0  0  0
   -0.2539   -0.1493   -3.1495 H   0  0  0  0  0  0  0  0  0  0  0  0
    0.3740    1.5120   -3.1996 H   0  0  0  0  0  0  0  0  0  0  0  0
    1.4676    0.1663   -2.8448 H   0  0  0  0  0  0  0  0  0  0  0  0
   -1.2261    1.3555   -0.9983 C   0  0  0  0  0  0  0  0  0  0  0  0
   -1.9211    1.0137   -1.7724 H   0  0  0  0  0  0  0  0  0  0  0  0
   -1.6420    1.0722   -0.0264 H   0  0  0  0  0  0  0  0  0  0  0  0
   -1.1348    2.8832   -1.0145 C   0  0  0  0  0  0  0  0  0  0  0  0
   -0.7388    3.2381   -1.9707 H   0  0  0  0  0  0  0  0  0  0  0  0
   -2.1273    3.3202   -0.8683 H   0  0  0  0  0  0  0  0  0  0  0  0
   -0.4807    3.2374   -0.2113 H   0  0  0  0  0  0  0  0  0  0  0  0
    0.9803   -0.4862    0.8931 C   0  0  0  0  0  0  0  0  0  0  0  0
    2.2011   -0.4849    0.9844 O   0  0  0  0  0  0  0  0  0  0  0  0
    0.2269   -0.0633    1.9734 N   0  0  0  0  0  0  0  0  0  0  0  0
   -0.7782   -0.1602    1.8814 H   0  0  0  0  0  0  0  0  0  0  0  0
    0.7954    0.1415    3.2993 C   0  0  0  0  0  0  0  0  0  0  0  0
    1.5877    0.8967    3.2645 H   0  0  0  0  0  0  0  0  0  0  0  0
    0.0226    0.4854    3.9932 H   0  0  0  0  0  0  0  0  0  0  0  0
    1.2168   -0.7938    3.6825 H   0  0  0  0  0  0  0  0  0  0  0  0
  1  2  1  0  0  0  0
  2  3  1  0  0  0  0
  2  4  1  0  0  0  0
  2  5  1  0  0  0  0
  5  6  2  0  0  0  0
  5  7  1  0  0  0  0
  7  8  1  0  0  0  0
  7  9  1  0  0  0  0
  9 10  1  0  0  0  0
  9 11  1  0  0  0  0
  9 24  1  0  0  0  0
 11 12  1  0  0  0  0
 11 13  1  0  0  0  0
 11 17  1  0  0  0  0
 13 14  1  0  0  0  0
 13 15  1  0  0  0  0
 13 16  1  0  0  0  0
 17 18  1  0  0  0  0
 17 19  1  0  0  0  0
 17 20  1  0  0  0  0
 20 21  1  0  0  0  0
 20 22  1  0  0  0  0
 20 23  1  0  0  0  0
 24 25  2  0  0  0  0
 24 26  1  0  0  0  0
 26 27  1  0  0  0  0
 26 28  1  0  0  0  0
 28 29  1  0  0  0  0
 28 30  1  0  0  0  0
 28 31  1  0  0  0  0
M  END
$$$$

  -OEChem-03222214053D

 31 30  0     1  0  0  0  0  0999 V2000
   -2.4428   -4.3640    0.3488 H   0  0  0  0  0  0  0  0  0  0  0  0
   -2.4973   -3.3470   -0.0503 C   0  0  0  0  0  0  0  0  0  0  0  0
   -3.2438   -2.7862    0.5170 H   0  0  0  0  0  0  0  0  0  0  0  0
   -2.8054   -3.3974   -1.0974 H   0  0  0  0  0  0  0  0  0  0  0  0
   -1.1440   -2.6702    0.0606 C   0  0  0  0  0  0  0  0  0  0  0  0
   -0.2140   -3.2582    0.5811 O   0  0  0  0  0  0  0  0  0  0  0  0
   -0.9779   -1.3901   -0.4300 N   0  0  0  0  0  0  0  0  0  0  0  0
   -1.7633   -0.9908   -0.9338 H   0  0  0  0  0  0  0  0  0  0  0  0
    0.3159   -0.6777   -0.4911 C   0  0  1  0  0  0  0  0  0  0  0  0
    1.0147   -1.2989   -1.0627 H   0  0  0  0  0  0  0  0  0  0  0  0
    0.1746    0.7067   -1.1904 C   0  0  1  0  0  0  0  0  0  0  0  0
    0.9333    1.3832   -0.7793 H   0  0  0  0  0  0  0  0  0  0  0  0
    0.4699    0.5329   -2.6900 C   0  0  0  0  0  0  0  0  0  0  0  0
   -0.2679   -0.1279   -3.1556 H   0  0  0  0  0  0  0  0  0  0  0  0
    0.4526    1.4954   -3.2081 H   0  0  0  0  0  0  0  0  0  0  0  0
    1.4646    0.0987   -2.8336 H   0  0  0  0  0  0  0  0  0  0  0  0
   -1.2206    1.3505   -0.9963 C   0  0  0  0  0  0  0  0  0  0  0  0
   -1.9700    0.8284   -1.5997 H   0  0  0  0  0  0  0  0  0  0  0  0
   -1.5131    1.2615    0.0547 H   0  0  0  0  0  0  0  0  0  0  0  0
   -1.2364    2.8379   -1.3603 C   0  0  0  0  0  0  0  0  0  0  0  0
   -1.0510    2.9854   -2.4277 H   0  0  0  0  0  0  0  0  0  0  0  0
   -2.2138    3.2687   -1.1224 H   0  0  0  0  0  0  0  0  0  0  0  0
   -0.4733    3.3798   -0.7928 H   0  0  0  0  0  0  0  0  0  0  0  0
    0.9813   -0.4851    0.8913 C   0  0  0  0  0  0  0  0  0  0  0  0
    2.2020   -0.4849    0.9815 O   0  0  0  0  0  0  0  0  0  0  0  0
    0.2289   -0.0621    1.9724 N   0  0  0  0  0  0  0  0  0  0  0  0
   -0.7765   -0.1576    1.8811 H   0  0  0  0  0  0  0  0  0  0  0  0
    0.7980    0.1451    3.2978 C   0  0  0  0  0  0  0  0  0  0  0  0
    1.5880    0.9028    3.2624 H   0  0  0  0  0  0  0  0  0  0  0  0
    0.0251    0.4871    3.9923 H   0  0  0  0  0  0  0  0  0  0  0  0
    1.2222   -0.7887    3.6815 H   0  0  0  0  0  0  0  0  0  0  0  0
  1  2  1  0  0  0  0
  2  3  1  0  0  0  0
  2  4  1  0  0  0  0
  2  5  1  0  0  0  0
  5  6  2  0  0  0  0
  5  7  1  0  0  0  0
  7  8  1  0  0  0  0
  7  9  1  0  0  0  0
  9 10  1  0  0  0  0
  9 11  1  0  0  0  0
  9 24  1  0  0  0  0
 11 12  1  0  0  0  0
 11 13  1  0  0  0  0
 11 17  1  0  0  0  0
 13 14  1  0  0  0  0
 13 15  1  0  0  0  0
 13 16  1  0  0  0  0
 17 18  1  0  0  0  0
 17 19  1  0  0  0  0
 17 20  1  0  0  0  0
 20 21  1  0  0  0  0
 20 22  1  0  0  0  0
 20 23  1  0  0  0  0
 24 25  2  0  0  0  0
 24 26  1  0  0  0  0
 26 27  1  0  0  0  0
 26 28  1  0  0  0  0
 28 29  1  0  0  0  0
 28 30  1  0  0  0  0
 28 31  1  0  0  0  0
M  END
$$$$

  -OEChem-03222214053D

 31 30  0     1  0  0  0  0  0999 V2000
   -2.4574   -4.3531    0.3153 H   0  0  0  0  0  0  0  0  0  0  0  0
   -2.5088   -3.3334   -0.0772 C   0  0  0  0  0  0  0  0  0  0  0  0
   -3.2636   -2.7781    0.4846 H   0  0  0  0  0  0  0  0  0  0  0  0
   -2.8032   -3.3770   -1.1286 H   0  0  0  0  0  0  0  0  0  0  0  0
   -1.1583   -2.6548    0.0562 C   0  0  0  0  0  0  0  0  0  0  0  0
   -0.2321   -3.2468    0.5792 O   0  0  0  0  0  0  0  0  0  0  0  0
   -0.9900   -1.3686   -0.4174 N   0  0  0  0  0  0  0  0  0  0  0  0
   -1.7696   -0.9668   -0.9284 H   0  0  0  0  0  0  0  0  0  0  0  0
    0.3059   -0.6610   -0.4701 C   0  0  1  0  0  0  0  0  0  0  0  0
    1.0004   -1.2841   -1.0449 H   0  0  0  0  0  0  0  0  0  0  0  0
    0.1732    0.7138   -1.1841 C   0  0  1  0  0  0  0  0  0  0  0  0
    1.0727    1.3021   -0.9683 H   0  0  0  0  0  0  0  0  0  0  0  0
    0.1316    0.4693   -2.7043 C   0  0  0  0  0  0  0  0  0  0  0  0
   -0.7974   -0.0321   -2.9921 H   0  0  0  0  0  0  0  0  0  0  0  0
    0.2062    1.4116   -3.2540 H   0  0  0  0  0  0  0  0  0  0  0  0
    0.9741   -0.1565   -3.0152 H   0  0  0  0  0  0  0  0  0  0  0  0
   -1.0659    1.5229   -0.7183 C   0  0  0  0  0  0  0  0  0  0  0  0
   -1.9856    0.9588   -0.8976 H   0  0  0  0  0  0  0  0  0  0  0  0
   -0.9882    1.7005    0.3585 H   0  0  0  0  0  0  0  0  0  0  0  0
   -1.2004    2.8793   -1.4171 C   0  0  0  0  0  0  0  0  0  0  0  0
   -1.4532    2.7553   -2.4739 H   0  0  0  0  0  0  0  0  0  0  0  0
   -1.9969    3.4628   -0.9456 H   0  0  0  0  0  0  0  0  0  0  0  0
   -0.2661    3.4443   -1.3398 H   0  0  0  0  0  0  0  0  0  0  0  0
    0.9838   -0.4838    0.9089 C   0  0  0  0  0  0  0  0  0  0  0  0
    2.2056   -0.4843    0.9848 O   0  0  0  0  0  0  0  0  0  0  0  0
    0.2479   -0.0702    2.0050 N   0  0  0  0  0  0  0  0  0  0  0  0
   -0.7586   -0.1710    1.9298 H   0  0  0  0  0  0  0  0  0  0  0  0
    0.8378    0.1263    3.3230 C   0  0  0  0  0  0  0  0  0  0  0  0
    1.6255    0.8861    3.2818 H   0  0  0  0  0  0  0  0  0  0  0  0
    0.0753    0.4600    4.0330 H   0  0  0  0  0  0  0  0  0  0  0  0
    1.2705   -0.8101    3.6910 H   0  0  0  0  0  0  0  0  0  0  0  0
  1  2  1  0  0  0  0
  2  3  1  0  0  0  0
  2  4  1  0  0  0  0
  2  5  1  0  0  0  0
  5  6  2  0  0  0  0
  5  7  1  0  0  0  0
  7  8  1  0  0  0  0
  7  9  1  0  0  0  0
  9 10  1  0  0  0  0
  9 11  1  0  0  0  0
  9 24  1  0  0  0  0
 11 12  1  0  0  0  0
 11 13  1  0  0  0  0
 11 17  1  0  0  0  0
 13 14  1  0  0  0  0
 13 15  1  0  0  0  0
 13 16  1  0  0  0  0
 17 18  1  0  0  0  0
 17 19  1  0  0  0  0
 17 20  1  0  0  0  0
 20 21  1  0  0  0  0
 20 22  1  0  0  0  0
 20 23  1  0  0  0  0
 24 25  2  0  0  0  0
 24 26  1  0  0  0  0
 26 27  1  0  0  0  0
 26 28  1  0  0  0  0
 28 29  1  0  0  0  0
 28 30  1  0  0  0  0
 28 31  1  0  0  0  0
M  END
$$$$

  -OEChem-03222214053D

 31 30  0     1  0  0  0  0  0999 V2000
   -2.4371   -4.3700    0.3266 H   0  0  0  0  0  0  0  0  0  0  0  0
   -2.4967   -3.3479   -0.0583 C   0  0  0  0  0  0  0  0  0  0  0  0
   -3.2498   -2.8002    0.5130 H   0  0  0  0  0  0  0  0  0  0  0  0
   -2.7992   -3.3857   -1.1075 H   0  0  0  0  0  0  0  0  0  0  0  0
   -1.1489   -2.6636    0.0692 C   0  0  0  0  0  0  0  0  0  0  0  0
   -0.2218   -3.2469    0.6002 O   0  0  0  0  0  0  0  0  0  0  0  0
   -0.9850   -1.3824   -0.4196 N   0  0  0  0  0  0  0  0  0  0  0  0
   -1.7647   -0.9930   -0.9404 H   0  0  0  0  0  0  0  0  0  0  0  0
    0.3085   -0.6708   -0.4843 C   0  0  1  0  0  0  0  0  0  0  0  0
    1.0051   -1.2941   -1.0561 H   0  0  0  0  0  0  0  0  0  0  0  0
    0.1770    0.7106   -1.1900 C   0  0  1  0  0  0  0  0  0  0  0  0
    1.0807    1.2967   -0.9865 H   0  0  0  0  0  0  0  0  0  0  0  0
    0.1339    0.4533   -2.7093 C   0  0  0  0  0  0  0  0  0  0  0  0
   -0.8043   -0.0329   -2.9937 H   0  0  0  0  0  0  0  0  0  0  0  0
    0.2286    1.3897   -3.2666 H   0  0  0  0  0  0  0  0  0  0  0  0
    0.9646   -0.1904   -3.0155 H   0  0  0  0  0  0  0  0  0  0  0  0
   -1.0548    1.5348   -0.7140 C   0  0  0  0  0  0  0  0  0  0  0  0
   -1.9453    0.9061   -0.6440 H   0  0  0  0  0  0  0  0  0  0  0  0
   -0.8451    1.9185    0.2895 H   0  0  0  0  0  0  0  0  0  0  0  0
   -1.4161    2.7155   -1.6220 C   0  0  0  0  0  0  0  0  0  0  0  0
   -1.7998    2.3696   -2.5865 H   0  0  0  0  0  0  0  0  0  0  0  0
   -2.1928    3.3238   -1.1487 H   0  0  0  0  0  0  0  0  0  0  0  0
   -0.5393    3.3480   -1.7936 H   0  0  0  0  0  0  0  0  0  0  0  0
    0.9819   -0.4803    0.8948 C   0  0  0  0  0  0  0  0  0  0  0  0
    2.2031   -0.4846    0.9780 O   0  0  0  0  0  0  0  0  0  0  0  0
    0.2383   -0.0589    1.9827 N   0  0  0  0  0  0  0  0  0  0  0  0
   -0.7676   -0.1567    1.8983 H   0  0  0  0  0  0  0  0  0  0  0  0
    0.8171    0.1295    3.3067 C   0  0  0  0  0  0  0  0  0  0  0  0
    1.6155    0.8784    3.2741 H   0  0  0  0  0  0  0  0  0  0  0  0
    0.0520    0.4734    4.0090 H   0  0  0  0  0  0  0  0  0  0  0  0
    1.2330   -0.8128    3.6787 H   0  0  0  0  0  0  0  0  0  0  0  0
  1  2  1  0  0  0  0
  2  3  1  0  0  0  0
  2  4  1  0  0  0  0
  2  5  1  0  0  0  0
  5  6  2  0  0  0  0
  5  7  1  0  0  0  0
  7  8  1  0  0  0  0
  7  9  1  0  0  0  0
  9 10  1  0  0  0  0
  9 11  1  0  0  0  0
  9 24  1  0  0  0  0
 11 12  1  0  0  0  0
 11 13  1  0  0  0  0
 11 17  1  0  0  0  0
 13 14  1  0  0  0  0
 13 15  1  0  0  0  0
 13 16  1  0  0  0  0
 17 18  1  0  0  0  0
 17 19  1  0  0  0  0
 17 20  1  0  0  0  0
 20 21  1  0  0  0  0
 20 22  1  0  0  0  0
 20 23  1  0  0  0  0
 24 25  2  0  0  0  0
 24 26  1  0  0  0  0
 26 27  1  0  0  0  0
 26 28  1  0  0  0  0
 28 29  1  0  0  0  0
 28 30  1  0  0  0  0
 28 31  1  0  0  0  0
M  END
$$$$

  -OEChem-03222214053D

 31 30  0     1  0  0  0  0  0999 V2000
   -2.4481   -4.3686    0.3637 H   0  0  0  0  0  0  0  0  0  0  0  0
   -2.5020   -3.3552   -0.0446 C   0  0  0  0  0  0  0  0  0  0  0  0
   -3.2517   -2.7906    0.5148 H   0  0  0  0  0  0  0  0  0  0  0  0
   -2.8059   -3.4151   -1.0924 H   0  0  0  0  0  0  0  0  0  0  0  0
   -1.1496   -2.6761    0.0666 C   0  0  0  0  0  0  0  0  0  0  0  0
   -0.2199   -3.2612    0.5911 O   0  0  0  0  0  0  0  0  0  0  0  0
   -0.9835   -1.3976   -0.4285 N   0  0  0  0  0  0  0  0  0  0  0  0
   -1.7650   -1.0049   -0.9440 H   0  0  0  0  0  0  0  0  0  0  0  0
    0.3106   -0.6868   -0.4968 C   0  0  1  0  0  0  0  0  0  0  0  0
    1.0072   -1.3099   -1.0689 H   0  0  0  0  0  0  0  0  0  0  0  0
    0.1807    0.7001   -1.1939 C   0  0  1  0  0  0  0  0  0  0  0  0
    1.0853    1.2846   -0.9894 H   0  0  0  0  0  0  0  0  0  0  0  0
    0.1574    0.4389   -2.7138 C   0  0  0  0  0  0  0  0  0  0  0  0
   -0.7562   -0.0892   -3.0038 H   0  0  0  0  0  0  0  0  0  0  0  0
    0.2171    1.3765   -3.2740 H   0  0  0  0  0  0  0  0  0  0  0  0
    1.0172   -0.1696   -3.0119 H   0  0  0  0  0  0  0  0  0  0  0  0
   -1.0471    1.5356   -0.7101 C   0  0  0  0  0  0  0  0  0  0  0  0
   -1.8601    0.8894   -0.3741 H   0  0  0  0  0  0  0  0  0  0  0  0
   -0.7305    2.1212    0.1593 H   0  0  0  0  0  0  0  0  0  0  0  0
   -1.6502    2.4911   -1.7463 C   0  0  0  0  0  0  0  0  0  0  0  0
   -2.0929    1.9406   -2.5819 H   0  0  0  0  0  0  0  0  0  0  0  0
   -2.4380    3.0918   -1.2816 H   0  0  0  0  0  0  0  0  0  0  0  0
   -0.8846    3.1716   -2.1317 H   0  0  0  0  0  0  0  0  0  0  0  0
    0.9814   -0.4908    0.8824 C   0  0  0  0  0  0  0  0  0  0  0  0
    2.2025   -0.4931    0.9688 O   0  0  0  0  0  0  0  0  0  0  0  0
    0.2337   -0.0639    1.9652 N   0  0  0  0  0  0  0  0  0  0  0  0
   -0.7724   -0.1568    1.8774 H   0  0  0  0  0  0  0  0  0  0  0  0
    0.8081    0.1449    3.2879 C   0  0  0  0  0  0  0  0  0  0  0  0
    1.6027    0.8974    3.2474 H   0  0  0  0  0  0  0  0  0  0  0  0
    0.0395    0.4942    3.9837 H   0  0  0  0  0  0  0  0  0  0  0  0
    1.2280   -0.7903    3.6729 H   0  0  0  0  0  0  0  0  0  0  0  0
  1  2  1  0  0  0  0
  2  3  1  0  0  0  0
  2  4  1  0  0  0  0
  2  5  1  0  0  0  0
  5  6  2  0  0  0  0
  5  7  1  0  0  0  0
  7  8  1  0  0  0  0
  7  9  1  0  0  0  0
  9 10  1  0  0  0  0
  9 11  1  0  0  0  0
  9 24  1  0  0  0  0
 11 12  1  0  0  0  0
 11 13  1  0  0  0  0
 11 17  1  0  0  0  0
 13 14  1  0  0  0  0
 13 15  1  0  0  0  0
 13 16  1  0  0  0  0
 17 18  1  0  0  0  0
 17 19  1  0  0  0  0
 17 20  1  0  0  0  0
 20 21  1  0  0  0  0
 20 22  1  0  0  0  0
 20 23  1  0  0  0  0
 24 25  2  0  0  0  0
 24 26  1  0  0  0  0
 26 27  1  0  0  0  0
 26 28  1  0  0  0  0
 28 29  1  0  0  0  0
 28 30  1  0  0  0  0
 28 31  1  0  0  0  0
M  END
$$$$

  -OEChem-03222214053D

 31 30  0     1  0  0  0  0  0999 V2000
   -2.4634   -4.3625    0.3519 H   0  0  0  0  0  0  0  0  0  0  0  0
   -2.5130   -3.3443   -0.0447 C   0  0  0  0  0  0  0  0  0  0  0  0
   -3.2583   -2.7821    0.5230 H   0  0  0  0  0  0  0  0  0  0  0  0
   -2.8199   -3.3908   -1.0924 H   0  0  0  0  0  0  0  0  0  0  0  0
   -1.1572   -2.6732    0.0701 C   0  0  0  0  0  0  0  0  0  0  0  0
   -0.2330   -3.2605    0.6020 O   0  0  0  0  0  0  0  0  0  0  0  0
   -0.9837   -1.3970   -0.4275 N   0  0  0  0  0  0  0  0  0  0  0  0
   -1.7639   -0.9983   -0.9408 H   0  0  0  0  0  0  0  0  0  0  0  0
    0.3137   -0.6922   -0.4952 C   0  0  1  0  0  0  0  0  0  0  0  0
    1.0084   -1.3182   -1.0666 H   0  0  0  0  0  0  0  0  0  0  0  0
    0.1791    0.6894   -1.1994 C   0  0  1  0  0  0  0  0  0  0  0  0
    1.0785    1.2772   -0.9813 H   0  0  0  0  0  0  0  0  0  0  0  0
    0.1916    0.4316   -2.7200 C   0  0  0  0  0  0  0  0  0  0  0  0
   -0.6897   -0.1386   -3.0290 H   0  0  0  0  0  0  0  0  0  0  0  0
    0.2192    1.3730   -3.2761 H   0  0  0  0  0  0  0  0  0  0  0  0
    1.0833   -0.1373   -3.0022 H   0  0  0  0  0  0  0  0  0  0  0  0
   -1.0529    1.5246   -0.7175 C   0  0  0  0  0  0  0  0  0  0  0  0
   -1.7327    0.9174   -0.1161 H   0  0  0  0  0  0  0  0  0  0  0  0
   -0.6765    2.3074   -0.0504 H   0  0  0  0  0  0  0  0  0  0  0  0
   -1.8937    2.1992   -1.8083 C   0  0  0  0  0  0  0  0  0  0  0  0
   -2.3501    1.4567   -2.4692 H   0  0  0  0  0  0  0  0  0  0  0  0
   -2.6974    2.7815   -1.3474 H   0  0  0  0  0  0  0  0  0  0  0  0
   -1.2803    2.8818   -2.4041 H   0  0  0  0  0  0  0  0  0  0  0  0
    0.9861   -0.4939    0.8830 C   0  0  0  0  0  0  0  0  0  0  0  0
    2.2072   -0.4987    0.9674 O   0  0  0  0  0  0  0  0  0  0  0  0
    0.2414   -0.0600    1.9651 N   0  0  0  0  0  0  0  0  0  0  0  0
   -0.7644   -0.1576    1.8808 H   0  0  0  0  0  0  0  0  0  0  0  0
    0.8188    0.1445    3.2872 C   0  0  0  0  0  0  0  0  0  0  0  0
    1.6195    0.8904    3.2455 H   0  0  0  0  0  0  0  0  0  0  0  0
    0.0534    0.5000    3.9834 H   0  0  0  0  0  0  0  0  0  0  0  0
    1.2315   -0.7939    3.6721 H   0  0  0  0  0  0  0  0  0  0  0  0
  1  2  1  0  0  0  0
  2  3  1  0  0  0  0
  2  4  1  0  0  0  0
  2  5  1  0  0  0  0
  5  6  2  0  0  0  0
  5  7  1  0  0  0  0
  7  8  1  0  0  0  0
  7  9  1  0  0  0  0
  9 10  1  0  0  0  0
  9 11  1  0  0  0  0
  9 24  1  0  0  0  0
 11 12  1  0  0  0  0
 11 13  1  0  0  0  0
 11 17  1  0  0  0  0
 13 14  1  0  0  0  0
 13 15  1  0  0  0  0
 13 16  1  0  0  0  0
 17 18  1  0  0  0  0
 17 19  1  0  0  0  0
 17 20  1  0  0  0  0
 20 21  1  0  0  0  0
 20 22  1  0  0  0  0
 20 23  1  0  0  0  0
 24 25  2  0  0  0  0
 24 26  1  0  0  0  0
 26 27  1  0  0  0  0
 26 28  1  0  0  0  0
 28 29  1  0  0  0  0
 28 30  1  0  0  0  0
 28 31  1  0  0  0  0
M  END
$$$$

  -OEChem-03222214053D

 31 30  0     1  0  0  0  0  0999 V2000
   -2.4914   -4.3397    0.3502 H   0  0  0  0  0  0  0  0  0  0  0  0
   -2.5315   -3.3205   -0.0448 C   0  0  0  0  0  0  0  0  0  0  0  0
   -3.2681   -2.7503    0.5262 H   0  0  0  0  0  0  0  0  0  0  0  0
   -2.8428   -3.3619   -1.0913 H   0  0  0  0  0  0  0  0  0  0  0  0
   -1.1680   -2.6645    0.0651 C   0  0  0  0  0  0  0  0  0  0  0  0
   -0.2472   -3.2625    0.5907 O   0  0  0  0  0  0  0  0  0  0  0  0
   -0.9842   -1.3878   -0.4266 N   0  0  0  0  0  0  0  0  0  0  0  0
   -1.7656   -0.9730   -0.9254 H   0  0  0  0  0  0  0  0  0  0  0  0
    0.3174   -0.6910   -0.4874 C   0  0  1  0  0  0  0  0  0  0  0  0
    1.0092   -1.3186   -1.0605 H   0  0  0  0  0  0  0  0  0  0  0  0
    0.1748    0.6811   -1.2032 C   0  0  1  0  0  0  0  0  0  0  0  0
    1.0639    1.2749   -0.9600 H   0  0  0  0  0  0  0  0  0  0  0  0
    0.2258    0.4439   -2.7251 C   0  0  0  0  0  0  0  0  0  0  0  0
   -0.6186   -0.1663   -3.0594 H   0  0  0  0  0  0  0  0  0  0  0  0
    0.2152    1.3947   -3.2662 H   0  0  0  0  0  0  0  0  0  0  0  0
    1.1502   -0.0766   -2.9955 H   0  0  0  0  0  0  0  0  0  0  0  0
   -1.0666    1.5018   -0.7257 C   0  0  0  0  0  0  0  0  0  0  0  0
   -1.5780    0.9939    0.0959 H   0  0  0  0  0  0  0  0  0  0  0  0
   -0.6946    2.4445   -0.3106 H   0  0  0  0  0  0  0  0  0  0  0  0
   -2.1093    1.8557   -1.7935 C   0  0  0  0  0  0  0  0  0  0  0  0
   -2.5281    0.9510   -2.2437 H   0  0  0  0  0  0  0  0  0  0  0  0
   -2.9285    2.4190   -1.3361 H   0  0  0  0  0  0  0  0  0  0  0  0
   -1.6711    2.4783   -2.5792 H   0  0  0  0  0  0  0  0  0  0  0  0
    0.9938   -0.4983    0.8900 C   0  0  0  0  0  0  0  0  0  0  0  0
    2.2152   -0.5091    0.9706 O   0  0  0  0  0  0  0  0  0  0  0  0
    0.2562   -0.0620    1.9760 N   0  0  0  0  0  0  0  0  0  0  0  0
   -0.7504   -0.1561    1.8968 H   0  0  0  0  0  0  0  0  0  0  0  0
    0.8399    0.1372    3.2959 C   0  0  0  0  0  0  0  0  0  0  0  0
    1.6431    0.8803    3.2524 H   0  0  0  0  0  0  0  0  0  0  0  0
    0.0792    0.4945    3.9961 H   0  0  0  0  0  0  0  0  0  0  0  0
    1.2501   -0.8036    3.6779 H   0  0  0  0  0  0  0  0  0  0  0  0
  1  2  1  0  0  0  0
  2  3  1  0  0  0  0
  2  4  1  0  0  0  0
  2  5  1  0  0  0  0
  5  6  2  0  0  0  0
  5  7  1  0  0  0  0
  7  8  1  0  0  0  0
  7  9  1  0  0  0  0
  9 10  1  0  0  0  0
  9 11  1  0  0  0  0
  9 24  1  0  0  0  0
 11 12  1  0  0  0  0
 11 13  1  0  0  0  0
 11 17  1  0  0  0  0
 13 14  1  0  0  0  0
 13 15  1  0  0  0  0
 13 16  1  0  0  0  0
 17 18  1  0  0  0  0
 17 19  1  0  0  0  0
 17 20  1  0  0  0  0
 20 21  1  0  0  0  0
 20 22  1  0  0  0  0
 20 23  1  0  0  0  0
 24 25  2  0  0  0  0
 24 26  1  0  0  0  0
 26 27  1  0  0  0  0
 26 28  1  0  0  0  0
 28 29  1  0  0  0  0
 28 30  1  0  0  0  0
 28 31  1  0  0  0  0
M  END
$$$$

  -OEChem-03222214053D

 31 30  0     1  0  0  0  0  0999 V2000
   -2.5060   -4.3298    0.3425 H   0  0  0  0  0  0  0  0  0  0  0  0
   -2.5429   -3.3076   -0.0449 C   0  0  0  0  0  0  0  0  0  0  0  0
   -3.2743   -2.7387    0.5337 H   0  0  0  0  0  0  0  0  0  0  0  0
   -2.8590   -3.3400   -1.0902 H   0  0  0  0  0  0  0  0  0  0  0  0
   -1.1760   -2.6587    0.0645 C   0  0  0  0  0  0  0  0  0  0  0  0
   -0.2552   -3.2656    0.5802 O   0  0  0  0  0  0  0  0  0  0  0  0
   -0.9886   -1.3786   -0.4169 N   0  0  0  0  0  0  0  0  0  0  0  0
   -1.7725   -0.9507   -0.8999 H   0  0  0  0  0  0  0  0  0  0  0  0
    0.3133   -0.6844   -0.4724 C   0  0  1  0  0  0  0  0  0  0  0  0
    1.0023   -1.3131   -1.0480 H   0  0  0  0  0  0  0  0  0  0  0  0
    0.1681    0.6789   -1.2015 C   0  0  1  0  0  0  0  0  0  0  0  0
    1.0491    1.2773   -0.9414 H   0  0  0  0  0  0  0  0  0  0  0  0
    0.2361    0.4562   -2.7231 C   0  0  0  0  0  0  0  0  0  0  0  0
   -0.5773   -0.1898   -3.0671 H   0  0  0  0  0  0  0  0  0  0  0  0
    0.1796    1.4120   -3.2529 H   0  0  0  0  0  0  0  0  0  0  0  0
    1.1851   -0.0184   -2.9924 H   0  0  0  0  0  0  0  0  0  0  0  0
   -1.0776    1.4935   -0.7405 C   0  0  0  0  0  0  0  0  0  0  0  0
   -1.4267    1.1358    0.2320 H   0  0  0  0  0  0  0  0  0  0  0  0
   -0.7582    2.5302   -0.5915 H   0  0  0  0  0  0  0  0  0  0  0  0
   -2.2656    1.5215   -1.7116 C   0  0  0  0  0  0  0  0  0  0  0  0
   -2.6140    0.5080   -1.9301 H   0  0  0  0  0  0  0  0  0  0  0  0
   -3.0939    2.0801   -1.2650 H   0  0  0  0  0  0  0  0  0  0  0  0
   -1.9957    2.0147   -2.6499 H   0  0  0  0  0  0  0  0  0  0  0  0
    0.9973   -0.4997    0.9029 C   0  0  0  0  0  0  0  0  0  0  0  0
    2.2192   -0.5125    0.9742 O   0  0  0  0  0  0  0  0  0  0  0  0
    0.2700   -0.0685    1.9979 N   0  0  0  0  0  0  0  0  0  0  0  0
   -0.7373   -0.1629    1.9282 H   0  0  0  0  0  0  0  0  0  0  0  0
    0.8663    0.1253    3.3134 C   0  0  0  0  0  0  0  0  0  0  0  0
    1.6663    0.8717    3.2664 H   0  0  0  0  0  0  0  0  0  0  0  0
    0.1112    0.4751    4.0237 H   0  0  0  0  0  0  0  0  0  0  0  0
    1.2847   -0.8160    3.6853 H   0  0  0  0  0  0  0  0  0  0  0  0
  1  2  1  0  0  0  0
  2  3  1  0  0  0  0
  2  4  1  0  0  0  0
  2  5  1  0  0  0  0
  5  6  2  0  0  0  0
  5  7  1  0  0  0  0
  7  8  1  0  0  0  0
  7  9  1  0  0  0  0
  9 10  1  0  0  0  0
  9 11  1  0  0  0  0
  9 24  1  0  0  0  0
 11 12  1  0  0  0  0
 11 13  1  0  0  0  0
 11 17  1  0  0  0  0
 13 14  1  0  0  0  0
 13 15  1  0  0  0  0
 13 16  1  0  0  0  0
 17 18  1  0  0  0  0
 17 19  1  0  0  0  0
 17 20  1  0  0  0  0
 20 21  1  0  0  0  0
 20 22  1  0  0  0  0
 20 23  1  0  0  0  0
 24 25  2  0  0  0  0
 24 26  1  0  0  0  0
 26 27  1  0  0  0  0
 26 28  1  0  0  0  0
 28 29  1  0  0  0  0
 28 30  1  0  0  0  0
 28 31  1  0  0  0  0
M  END
$$$$

  -OEChem-03222214053D

 31 30  0     1  0  0  0  0  0999 V2000
   -2.4582   -4.3741    0.3721 H   0  0  0  0  0  0  0  0  0  0  0  0
   -2.5108   -3.3539   -0.0186 C   0  0  0  0  0  0  0  0  0  0  0  0
   -3.2455   -2.7919    0.5626 H   0  0  0  0  0  0  0  0  0  0  0  0
   -2.8333   -3.3940   -1.0617 H   0  0  0  0  0  0  0  0  0  0  0  0
   -1.1517   -2.6874    0.0796 C   0  0  0  0  0  0  0  0  0  0  0  0
   -0.2183   -3.2840    0.5844 O   0  0  0  0  0  0  0  0  0  0  0  0
   -0.9868   -1.4039   -0.4012 N   0  0  0  0  0  0  0  0  0  0  0  0
   -1.7791   -0.9916   -0.8814 H   0  0  0  0  0  0  0  0  0  0  0  0
    0.3028   -0.6920   -0.4671 C   0  0  1  0  0  0  0  0  0  0  0  0
    0.9947   -1.3170   -1.0434 H   0  0  0  0  0  0  0  0  0  0  0  0
    0.1668    0.6750   -1.1955 C   0  0  1  0  0  0  0  0  0  0  0  0
    1.0561    1.2628   -0.9402 H   0  0  0  0  0  0  0  0  0  0  0  0
    0.2140    0.4532   -2.7162 C   0  0  0  0  0  0  0  0  0  0  0  0
   -0.5898   -0.2127   -3.0443 H   0  0  0  0  0  0  0  0  0  0  0  0
    0.1199    1.4074   -3.2438 H   0  0  0  0  0  0  0  0  0  0  0  0
    1.1695    0.0021   -3.0025 H   0  0  0  0  0  0  0  0  0  0  0  0
   -1.0638    1.5235   -0.7656 C   0  0  0  0  0  0  0  0  0  0  0  0
   -1.2646    1.3589    0.2966 H   0  0  0  0  0  0  0  0  0  0  0  0
   -0.7936    2.5791   -0.8744 H   0  0  0  0  0  0  0  0  0  0  0  0
   -2.3664    1.3052   -1.5533 C   0  0  0  0  0  0  0  0  0  0  0  0
   -2.6915    0.2638   -1.5245 H   0  0  0  0  0  0  0  0  0  0  0  0
   -3.1617    1.9199   -1.1207 H   0  0  0  0  0  0  0  0  0  0  0  0
   -2.2438    1.6040   -2.5985 H   0  0  0  0  0  0  0  0  0  0  0  0
    0.9888   -0.5045    0.9068 C   0  0  0  0  0  0  0  0  0  0  0  0
    2.2109   -0.5036    0.9759 O   0  0  0  0  0  0  0  0  0  0  0  0
    0.2584   -0.0883    2.0055 N   0  0  0  0  0  0  0  0  0  0  0  0
   -0.7486   -0.1846    1.9341 H   0  0  0  0  0  0  0  0  0  0  0  0
    0.8542    0.1101    3.3204 C   0  0  0  0  0  0  0  0  0  0  0  0
    1.6384    0.8731    3.2753 H   0  0  0  0  0  0  0  0  0  0  0  0
    0.0941    0.4402    4.0347 H   0  0  0  0  0  0  0  0  0  0  0  0
    1.2926   -0.8247    3.6852 H   0  0  0  0  0  0  0  0  0  0  0  0
  1  2  1  0  0  0  0
  2  3  1  0  0  0  0
  2  4  1  0  0  0  0
  2  5  1  0  0  0  0
  5  6  2  0  0  0  0
  5  7  1  0  0  0  0
  7  8  1  0  0  0  0
  7  9  1  0  0  0  0
  9 10  1  0  0  0  0
  9 11  1  0  0  0  0
  9 24  1  0  0  0  0
 11 12  1  0  0  0  0
 11 13  1  0  0  0  0
 11 17  1  0  0  0  0
 13 14  1  0  0  0  0
 13 15  1  0  0  0  0
 13 16  1  0  0  0  0
 17 18  1  0  0  0  0
 17 19  1  0  0  0  0
 17 20  1  0  0  0  0
 20 21  1  0  0  0  0
 20 22  1  0  0  0  0
 20 23  1  0  0  0  0
 24 25  2  0  0  0  0
 24 26  1  0  0  0  0
 26 27  1  0  0  0  0
 26 28  1  0  0  0  0
 28 29  1  0  0  0  0
 28 30  1  0  0  0  0
 28 31  1  0  0  0  0
M  END
$$$$

  -OEChem-03222214053D

 31 30  0     1  0  0  0  0  0999 V2000
   -2.3917   -4.4304    0.3664 H   0  0  0  0  0  0  0  0  0  0  0  0
   -2.4583   -3.4146   -0.0337 C   0  0  0  0  0  0  0  0  0  0  0  0
   -3.2206   -2.8662    0.5246 H   0  0  0  0  0  0  0  0  0  0  0  0
   -2.7538   -3.4702   -1.0842 H   0  0  0  0  0  0  0  0  0  0  0  0
   -1.1178   -2.7155    0.0928 C   0  0  0  0  0  0  0  0  0  0  0  0
   -0.1833   -3.2885    0.6223 O   0  0  0  0  0  0  0  0  0  0  0  0
   -0.9706   -1.4323   -0.3952 N   0  0  0  0  0  0  0  0  0  0  0  0
   -1.7492   -1.0608   -0.9290 H   0  0  0  0  0  0  0  0  0  0  0  0
    0.3097   -0.7070   -0.4698 C   0  0  1  0  0  0  0  0  0  0  0  0
    1.0072   -1.3233   -1.0486 H   0  0  0  0  0  0  0  0  0  0  0  0
    0.1674    0.6685   -1.1831 C   0  0  1  0  0  0  0  0  0  0  0  0
    1.0669    1.2490   -0.9465 H   0  0  0  0  0  0  0  0  0  0  0  0
    0.1774    0.4448   -2.7040 C   0  0  0  0  0  0  0  0  0  0  0  0
   -0.6164   -0.2438   -3.0083 H   0  0  0  0  0  0  0  0  0  0  0  0
    0.0405    1.3940   -3.2314 H   0  0  0  0  0  0  0  0  0  0  0  0
    1.1361    0.0188   -3.0164 H   0  0  0  0  0  0  0  0  0  0  0  0
   -1.0462    1.5493   -0.7668 C   0  0  0  0  0  0  0  0  0  0  0  0
   -1.0824    1.6123    0.3247 H   0  0  0  0  0  0  0  0  0  0  0  0
   -0.8455    2.5616   -1.1330 H   0  0  0  0  0  0  0  0  0  0  0  0
   -2.4436    1.1580   -1.2780 C   0  0  0  0  0  0  0  0  0  0  0  0
   -2.8163    0.2530   -0.7960 H   0  0  0  0  0  0  0  0  0  0  0  0
   -3.1482    1.9626   -1.0466 H   0  0  0  0  0  0  0  0  0  0  0  0
   -2.4469    1.0145   -2.3619 H   0  0  0  0  0  0  0  0  0  0  0  0
    0.9902   -0.5111    0.9055 C   0  0  0  0  0  0  0  0  0  0  0  0
    2.2120   -0.5005    0.9805 O   0  0  0  0  0  0  0  0  0  0  0  0
    0.2493   -0.1009    1.9993 N   0  0  0  0  0  0  0  0  0  0  0  0
   -0.7565   -0.2043    1.9193 H   0  0  0  0  0  0  0  0  0  0  0  0
    0.8325    0.0973    3.3197 C   0  0  0  0  0  0  0  0  0  0  0  0
    1.6216    0.8554    3.2814 H   0  0  0  0  0  0  0  0  0  0  0  0
    0.0669    0.4338    4.0250 H   0  0  0  0  0  0  0  0  0  0  0  0
    1.2613   -0.8391    3.6916 H   0  0  0  0  0  0  0  0  0  0  0  0
  1  2  1  0  0  0  0
  2  3  1  0  0  0  0
  2  4  1  0  0  0  0
  2  5  1  0  0  0  0
  5  6  2  0  0  0  0
  5  7  1  0  0  0  0
  7  8  1  0  0  0  0
  7  9  1  0  0  0  0
  9 10  1  0  0  0  0
  9 11  1  0  0  0  0
  9 24  1  0  0  0  0
 11 12  1  0  0  0  0
 11 13  1  0  0  0  0
 11 17  1  0  0  0  0
 13 14  1  0  0  0  0
 13 15  1  0  0  0  0
 13 16  1  0  0  0  0
 17 18  1  0  0  0  0
 17 19  1  0  0  0  0
 17 20  1  0  0  0  0
 20 21  1  0  0  0  0
 20 22  1  0  0  0  0
 20 23  1  0  0  0  0
 24 25  2  0  0  0  0
 24 26  1  0  0  0  0
 26 27  1  0  0  0  0
 26 28  1  0  0  0  0
 28 29  1  0  0  0  0
 28 30  1  0  0  0  0
 28 31  1  0  0  0  0
M  END
$$$$

  -OEChem-03222214053D

 31 30  0     1  0  0  0  0  0999 V2000
   -2.3424   -4.4682    0.3771 H   0  0  0  0  0  0  0  0  0  0  0  0
   -2.4217   -3.4529   -0.0222 C   0  0  0  0  0  0  0  0  0  0  0  0
   -3.1780   -2.9087    0.5482 H   0  0  0  0  0  0  0  0  0  0  0  0
   -2.7335   -3.5111   -1.0677 H   0  0  0  0  0  0  0  0  0  0  0  0
   -1.0834   -2.7462    0.0822 C   0  0  0  0  0  0  0  0  0  0  0  0
   -0.1360   -3.3158    0.5918 O   0  0  0  0  0  0  0  0  0  0  0  0
   -0.9523   -1.4599   -0.4025 N   0  0  0  0  0  0  0  0  0  0  0  0
   -1.7503   -1.0776   -0.8999 H   0  0  0  0  0  0  0  0  0  0  0  0
    0.3177   -0.7162   -0.4773 C   0  0  1  0  0  0  0  0  0  0  0  0
    1.0235   -1.3205   -1.0585 H   0  0  0  0  0  0  0  0  0  0  0  0
    0.1732    0.6704   -1.1721 C   0  0  1  0  0  0  0  0  0  0  0  0
    1.0809    1.2444   -0.9519 H   0  0  0  0  0  0  0  0  0  0  0  0
    0.1503    0.4479   -2.6940 C   0  0  0  0  0  0  0  0  0  0  0  0
   -0.6736   -0.2092   -2.9867 H   0  0  0  0  0  0  0  0  0  0  0  0
    0.0409    1.4009   -3.2210 H   0  0  0  0  0  0  0  0  0  0  0  0
    1.0876   -0.0128   -3.0222 H   0  0  0  0  0  0  0  0  0  0  0  0
   -1.0294    1.5713   -0.7658 C   0  0  0  0  0  0  0  0  0  0  0  0
   -0.9212    1.8340    0.2912 H   0  0  0  0  0  0  0  0  0  0  0  0
   -0.9402    2.5058   -1.3297 H   0  0  0  0  0  0  0  0  0  0  0  0
   -2.4564    1.0440   -0.9773 C   0  0  0  0  0  0  0  0  0  0  0  0
   -2.7310    0.3221   -0.2043 H   0  0  0  0  0  0  0  0  0  0  0  0
   -3.1638    1.8765   -0.9100 H   0  0  0  0  0  0  0  0  0  0  0  0
   -2.5705    0.5832   -1.9621 H   0  0  0  0  0  0  0  0  0  0  0  0
    0.9903   -0.5181    0.9010 C   0  0  0  0  0  0  0  0  0  0  0  0
    2.2115   -0.4940    0.9833 O   0  0  0  0  0  0  0  0  0  0  0  0
    0.2377   -0.1231    1.9925 N   0  0  0  0  0  0  0  0  0  0  0  0
   -0.7667   -0.2332    1.9047 H   0  0  0  0  0  0  0  0  0  0  0  0
    0.8115    0.0759    3.3169 C   0  0  0  0  0  0  0  0  0  0  0  0
    1.5892    0.8463    3.2867 H   0  0  0  0  0  0  0  0  0  0  0  0
    0.0372    0.3963    4.0203 H   0  0  0  0  0  0  0  0  0  0  0  0
    1.2530   -0.8561    3.6856 H   0  0  0  0  0  0  0  0  0  0  0  0
  1  2  1  0  0  0  0
  2  3  1  0  0  0  0
  2  4  1  0  0  0  0
  2  5  1  0  0  0  0
  5  6  2  0  0  0  0
  5  7  1  0  0  0  0
  7  8  1  0  0  0  0
  7  9  1  0  0  0  0
  9 10  1  0  0  0  0
  9 11  1  0  0  0  0
  9 24  1  0  0  0  0
 11 12  1  0  0  0  0
 11 13  1  0  0  0  0
 11 17  1  0  0  0  0
 13 14  1  0  0  0  0
 13 15  1  0  0  0  0
 13 16  1  0  0  0  0
 17 18  1  0  0  0  0
 17 19  1  0  0  0  0
 17 20  1  0  0  0  0
 20 21  1  0  0  0  0
 20 22  1  0  0  0  0
 20 23  1  0  0  0  0
 24 25  2  0  0  0  0
 24 26  1  0  0  0  0
 26 27  1  0  0  0  0
 26 28  1  0  0  0  0
 28 29  1  0  0  0  0
 28 30  1  0  0  0  0
 28 31  1  0  0  0  0
M  END
$$$$

  -OEChem-03222214053D

 31 30  0     1  0  0  0  0  0999 V2000
   -2.2940   -4.5043    0.3915 H   0  0  0  0  0  0  0  0  0  0  0  0
   -2.3853   -3.4889   -0.0050 C   0  0  0  0  0  0  0  0  0  0  0  0
   -3.1315   -2.9483    0.5820 H   0  0  0  0  0  0  0  0  0  0  0  0
   -2.7190   -3.5470   -1.0439 H   0  0  0  0  0  0  0  0  0  0  0  0
   -1.0480   -2.7766    0.0719 C   0  0  0  0  0  0  0  0  0  0  0  0
   -0.0866   -3.3439    0.5572 O   0  0  0  0  0  0  0  0  0  0  0  0
   -0.9340   -1.4873   -0.4091 N   0  0  0  0  0  0  0  0  0  0  0  0
   -1.7472   -1.1018   -0.8782 H   0  0  0  0  0  0  0  0  0  0  0  0
    0.3259   -0.7255   -0.4852 C   0  0  1  0  0  0  0  0  0  0  0  0
    1.0381   -1.3206   -1.0681 H   0  0  0  0  0  0  0  0  0  0  0  0
    0.1826    0.6733   -1.1618 C   0  0  1  0  0  0  0  0  0  0  0  0
    1.1036    1.2352   -0.9663 H   0  0  0  0  0  0  0  0  0  0  0  0
    0.1137    0.4429   -2.6821 C   0  0  0  0  0  0  0  0  0  0  0  0
   -0.7753   -0.1349   -2.9518 H   0  0  0  0  0  0  0  0  0  0  0  0
    0.0825    1.3976   -3.2164 H   0  0  0  0  0  0  0  0  0  0  0  0
    0.9979   -0.1030   -3.0268 H   0  0  0  0  0  0  0  0  0  0  0  0
   -1.0076    1.5993   -0.7652 C   0  0  0  0  0  0  0  0  0  0  0  0
   -0.7685    2.0428    0.2070 H   0  0  0  0  0  0  0  0  0  0  0  0
   -1.0491    2.4272   -1.4809 H   0  0  0  0  0  0  0  0  0  0  0  0
   -2.4173    1.0072   -0.6544 C   0  0  0  0  0  0  0  0  0  0  0  0
   -2.5131    0.3839    0.2386 H   0  0  0  0  0  0  0  0  0  0  0  0
   -3.1472    1.8179   -0.5677 H   0  0  0  0  0  0  0  0  0  0  0  0
   -2.6669    0.4201   -1.5428 H   0  0  0  0  0  0  0  0  0  0  0  0
    0.9925   -0.5264    0.8957 C   0  0  0  0  0  0  0  0  0  0  0  0
    2.2130   -0.4907    0.9832 O   0  0  0  0  0  0  0  0  0  0  0  0
    0.2305   -0.1472    1.9863 N   0  0  0  0  0  0  0  0  0  0  0  0
   -0.7726   -0.2623    1.8921 H   0  0  0  0  0  0  0  0  0  0  0  0
    0.7953    0.0543    3.3144 C   0  0  0  0  0  0  0  0  0  0  0  0
    1.5670    0.8309    3.2902 H   0  0  0  0  0  0  0  0  0  0  0  0
    0.0147    0.3675    4.0141 H   0  0  0  0  0  0  0  0  0  0  0  0
    1.2422   -0.8748    3.6838 H   0  0  0  0  0  0  0  0  0  0  0  0
  1  2  1  0  0  0  0
  2  3  1  0  0  0  0
  2  4  1  0  0  0  0
  2  5  1  0  0  0  0
  5  6  2  0  0  0  0
  5  7  1  0  0  0  0
  7  8  1  0  0  0  0
  7  9  1  0  0  0  0
  9 10  1  0  0  0  0
  9 11  1  0  0  0  0
  9 24  1  0  0  0  0
 11 12  1  0  0  0  0
 11 13  1  0  0  0  0
 11 17  1  0  0  0  0
 13 14  1  0  0  0  0
 13 15  1  0  0  0  0
 13 16  1  0  0  0  0
 17 18  1  0  0  0  0
 17 19  1  0  0  0  0
 17 20  1  0  0  0  0
 20 21  1  0  0  0  0
 20 22  1  0  0  0  0
 20 23  1  0  0  0  0
 24 25  2  0  0  0  0
 24 26  1  0  0  0  0
 26 27  1  0  0  0  0
 26 28  1  0  0  0  0
 28 29  1  0  0  0  0
 28 30  1  0  0  0  0
 28 31  1  0  0  0  0
M  END
$$$$

  -OEChem-03222214053D

 31 30  0     1  0  0  0  0  0999 V2000
   -2.2684   -4.5283    0.3837 H   0  0  0  0  0  0  0  0  0  0  0  0
   -2.3663   -3.5142   -0.0142 C   0  0  0  0  0  0  0  0  0  0  0  0
   -3.1188   -2.9788    0.5695 H   0  0  0  0  0  0  0  0  0  0  0  0
   -2.6959   -3.5758   -1.0540 H   0  0  0  0  0  0  0  0  0  0  0  0
   -1.0347   -2.7919    0.0667 C   0  0  0  0  0  0  0  0  0  0  0  0
   -0.0687   -3.3549    0.5479 O   0  0  0  0  0  0  0  0  0  0  0  0
   -0.9294   -1.4992   -0.4069 N   0  0  0  0  0  0  0  0  0  0  0  0
   -1.7447   -1.1162   -0.8740 H   0  0  0  0  0  0  0  0  0  0  0  0
    0.3266   -0.7294   -0.4783 C   0  0  1  0  0  0  0  0  0  0  0  0
    1.0416   -1.3210   -1.0613 H   0  0  0  0  0  0  0  0  0  0  0  0
    0.1834    0.6733   -1.1499 C   0  0  1  0  0  0  0  0  0  0  0  0
    1.1095    1.2299   -0.9646 H   0  0  0  0  0  0  0  0  0  0  0  0
    0.1052    0.4317   -2.6685 C   0  0  0  0  0  0  0  0  0  0  0  0
   -0.8122   -0.1046   -2.9296 H   0  0  0  0  0  0  0  0  0  0  0  0
    0.1196    1.3813   -3.2124 H   0  0  0  0  0  0  0  0  0  0  0  0
    0.9617   -0.1581   -3.0106 H   0  0  0  0  0  0  0  0  0  0  0  0
   -1.0033    1.6157   -0.7691 C   0  0  0  0  0  0  0  0  0  0  0  0
   -0.6554    2.2330    0.0661 H   0  0  0  0  0  0  0  0  0  0  0  0
   -1.1962    2.3032   -1.5992 H   0  0  0  0  0  0  0  0  0  0  0  0
   -2.3446    1.0202   -0.3311 C   0  0  0  0  0  0  0  0  0  0  0  0
   -2.2440    0.4632    0.6043 H   0  0  0  0  0  0  0  0  0  0  0  0
   -3.0631    1.8278   -0.1594 H   0  0  0  0  0  0  0  0  0  0  0  0
   -2.7512    0.3677   -1.1091 H   0  0  0  0  0  0  0  0  0  0  0  0
    0.9961   -0.5317    0.9015 C   0  0  0  0  0  0  0  0  0  0  0  0
    2.2168   -0.4875    0.9838 O   0  0  0  0  0  0  0  0  0  0  0  0
    0.2381   -0.1617    1.9979 N   0  0  0  0  0  0  0  0  0  0  0  0
   -0.7650   -0.2792    1.9087 H   0  0  0  0  0  0  0  0  0  0  0  0
    0.8098    0.0452    3.3221 C   0  0  0  0  0  0  0  0  0  0  0  0
    1.5678    0.8351    3.2937 H   0  0  0  0  0  0  0  0  0  0  0  0
    0.0295    0.3426    4.0289 H   0  0  0  0  0  0  0  0  0  0  0  0
    1.2752   -0.8774    3.6849 H   0  0  0  0  0  0  0  0  0  0  0  0
  1  2  1  0  0  0  0
  2  3  1  0  0  0  0
  2  4  1  0  0  0  0
  2  5  1  0  0  0  0
  5  6  2  0  0  0  0
  5  7  1  0  0  0  0
  7  8  1  0  0  0  0
  7  9  1  0  0  0  0
  9 10  1  0  0  0  0
  9 11  1  0  0  0  0
  9 24  1  0  0  0  0
 11 12  1  0  0  0  0
 11 13  1  0  0  0  0
 11 17  1  0  0  0  0
 13 14  1  0  0  0  0
 13 15  1  0  0  0  0
 13 16  1  0  0  0  0
 17 18  1  0  0  0  0
 17 19  1  0  0  0  0
 17 20  1  0  0  0  0
 20 21  1  0  0  0  0
 20 22  1  0  0  0  0
 20 23  1  0  0  0  0
 24 25  2  0  0  0  0
 24 26  1  0  0  0  0
 26 27  1  0  0  0  0
 26 28  1  0  0  0  0
 28 29  1  0  0  0  0
 28 30  1  0  0  0  0
 28 31  1  0  0  0  0
M  END
$$$$

  -OEChem-03222214053D

 31 30  0     1  0  0  0  0  0999 V2000
   -2.2640   -4.5371    0.3389 H   0  0  0  0  0  0  0  0  0  0  0  0
   -2.3665   -3.5165   -0.0411 C   0  0  0  0  0  0  0  0  0  0  0  0
   -3.1272   -2.9972    0.5466 H   0  0  0  0  0  0  0  0  0  0  0  0
   -2.6875   -3.5611   -1.0846 H   0  0  0  0  0  0  0  0  0  0  0  0
   -1.0409   -2.7863    0.0628 C   0  0  0  0  0  0  0  0  0  0  0  0
   -0.0746   -3.3499    0.5431 O   0  0  0  0  0  0  0  0  0  0  0  0
   -0.9423   -1.4839   -0.3846 N   0  0  0  0  0  0  0  0  0  0  0  0
   -1.7569   -1.0980   -0.8509 H   0  0  0  0  0  0  0  0  0  0  0  0
    0.3114   -0.7098   -0.4423 C   0  0  1  0  0  0  0  0  0  0  0  0
    1.0229   -1.3053   -1.0255 H   0  0  0  0  0  0  0  0  0  0  0  0
    0.1643    0.6804   -1.1388 C   0  0  1  0  0  0  0  0  0  0  0  0
    1.0806    1.2465   -0.9346 H   0  0  0  0  0  0  0  0  0  0  0  0
    0.1376    0.4217   -2.6568 C   0  0  0  0  0  0  0  0  0  0  0  0
   -0.7652   -0.1278   -2.9413 H   0  0  0  0  0  0  0  0  0  0  0  0
    0.1595    1.3666   -3.2090 H   0  0  0  0  0  0  0  0  0  0  0  0
    1.0113   -0.1608   -2.9664 H   0  0  0  0  0  0  0  0  0  0  0  0
   -1.0383    1.6253   -0.8024 C   0  0  0  0  0  0  0  0  0  0  0  0
   -0.6329    2.4220   -0.1697 H   0  0  0  0  0  0  0  0  0  0  0  0
   -1.3944    2.1122   -1.7163 H   0  0  0  0  0  0  0  0  0  0  0  0
   -2.2633    1.0801   -0.0610 C   0  0  0  0  0  0  0  0  0  0  0  0
   -1.9844    0.6207    0.8892 H   0  0  0  0  0  0  0  0  0  0  0  0
   -2.9530    1.9016    0.1563 H   0  0  0  0  0  0  0  0  0  0  0  0
   -2.7973    0.3523   -0.6781 H   0  0  0  0  0  0  0  0  0  0  0  0
    1.0043   -0.5244    0.9287 C   0  0  0  0  0  0  0  0  0  0  0  0
    2.2263   -0.4728    0.9834 O   0  0  0  0  0  0  0  0  0  0  0  0
    0.2748   -0.1718    2.0492 N   0  0  0  0  0  0  0  0  0  0  0  0
   -0.7278   -0.3102    1.9895 H   0  0  0  0  0  0  0  0  0  0  0  0
    0.8808    0.0173    3.3607 C   0  0  0  0  0  0  0  0  0  0  0  0
    1.6398    0.8058    3.3224 H   0  0  0  0  0  0  0  0  0  0  0  0
    0.1196    0.3079    4.0910 H   0  0  0  0  0  0  0  0  0  0  0  0
    1.3531   -0.9106    3.6999 H   0  0  0  0  0  0  0  0  0  0  0  0
  1  2  1  0  0  0  0
  2  3  1  0  0  0  0
  2  4  1  0  0  0  0
  2  5  1  0  0  0  0
  5  6  2  0  0  0  0
  5  7  1  0  0  0  0
  7  8  1  0  0  0  0
  7  9  1  0  0  0  0
  9 10  1  0  0  0  0
  9 11  1  0  0  0  0
  9 24  1  0  0  0  0
 11 12  1  0  0  0  0
 11 13  1  0  0  0  0
 11 17  1  0  0  0  0
 13 14  1  0  0  0  0
 13 15  1  0  0  0  0
 13 16  1  0  0  0  0
 17 18  1  0  0  0  0
 17 19  1  0  0  0  0
 17 20  1  0  0  0  0
 20 21  1  0  0  0  0
 20 22  1  0  0  0  0
 20 23  1  0  0  0  0
 24 25  2  0  0  0  0
 24 26  1  0  0  0  0
 26 27  1  0  0  0  0
 26 28  1  0  0  0  0
 28 29  1  0  0  0  0
 28 30  1  0  0  0  0
 28 31  1  0  0  0  0
M  END
$$$$

  -OEChem-03222214053D

 31 30  0     1  0  0  0  0  0999 V2000
   -2.2736   -4.5299    0.3226 H   0  0  0  0  0  0  0  0  0  0  0  0
   -2.3798   -3.5025   -0.0374 C   0  0  0  0  0  0  0  0  0  0  0  0
   -3.1398   -2.9964    0.5623 H   0  0  0  0  0  0  0  0  0  0  0  0
   -2.7041   -3.5280   -1.0805 H   0  0  0  0  0  0  0  0  0  0  0  0
   -1.0561   -2.7705    0.0768 C   0  0  0  0  0  0  0  0  0  0  0  0
   -0.0880   -3.3377    0.5491 O   0  0  0  0  0  0  0  0  0  0  0  0
   -0.9626   -1.4598   -0.3457 N   0  0  0  0  0  0  0  0  0  0  0  0
   -1.7787   -1.0679   -0.8047 H   0  0  0  0  0  0  0  0  0  0  0  0
    0.2904   -0.6863   -0.4009 C   0  0  1  0  0  0  0  0  0  0  0  0
    0.9923   -1.2914   -0.9863 H   0  0  0  0  0  0  0  0  0  0  0  0
    0.1339    0.6782   -1.1429 C   0  0  1  0  0  0  0  0  0  0  0  0
    1.0334    1.2613   -0.9127 H   0  0  0  0  0  0  0  0  0  0  0  0
    0.1721    0.3987   -2.6567 C   0  0  0  0  0  0  0  0  0  0  0  0
   -0.6915   -0.2004   -2.9621 H   0  0  0  0  0  0  0  0  0  0  0  0
    0.1638    1.3369   -3.2209 H   0  0  0  0  0  0  0  0  0  0  0  0
    1.0844   -0.1428   -2.9269 H   0  0  0  0  0  0  0  0  0  0  0  0
   -1.0859    1.6192   -0.8583 C   0  0  0  0  0  0  0  0  0  0  0  0
   -0.6714    2.5727   -0.5139 H   0  0  0  0  0  0  0  0  0  0  0  0
   -1.6112    1.8331   -1.7951 H   0  0  0  0  0  0  0  0  0  0  0  0
   -2.1539    1.2105    0.1622 C   0  0  0  0  0  0  0  0  0  0  0  0
   -1.7109    0.9681    1.1277 H   0  0  0  0  0  0  0  0  0  0  0  0
   -2.8452    2.0451    0.3147 H   0  0  0  0  0  0  0  0  0  0  0  0
   -2.7405    0.3613   -0.1958 H   0  0  0  0  0  0  0  0  0  0  0  0
    1.0193   -0.5140    0.9544 C   0  0  0  0  0  0  0  0  0  0  0  0
    2.2424   -0.4609    0.9705 O   0  0  0  0  0  0  0  0  0  0  0  0
    0.3316   -0.1763    2.1050 N   0  0  0  0  0  0  0  0  0  0  0  0
   -0.6720   -0.3196    2.0813 H   0  0  0  0  0  0  0  0  0  0  0  0
    0.9845   -0.0016    3.3963 C   0  0  0  0  0  0  0  0  0  0  0  0
    1.7381    0.7911    3.3418 H   0  0  0  0  0  0  0  0  0  0  0  0
    0.2492    0.2756    4.1574 H   0  0  0  0  0  0  0  0  0  0  0  0
    1.4729   -0.9315    3.7061 H   0  0  0  0  0  0  0  0  0  0  0  0
  1  2  1  0  0  0  0
  2  3  1  0  0  0  0
  2  4  1  0  0  0  0
  2  5  1  0  0  0  0
  5  6  2  0  0  0  0
  5  7  1  0  0  0  0
  7  8  1  0  0  0  0
  7  9  1  0  0  0  0
  9 10  1  0  0  0  0
  9 11  1  0  0  0  0
  9 24  1  0  0  0  0
 11 12  1  0  0  0  0
 11 13  1  0  0  0  0
 11 17  1  0  0  0  0
 13 14  1  0  0  0  0
 13 15  1  0  0  0  0
 13 16  1  0  0  0  0
 17 18  1  0  0  0  0
 17 19  1  0  0  0  0
 17 20  1  0  0  0  0
 20 21  1  0  0  0  0
 20 22  1  0  0  0  0
 20 23  1  0  0  0  0
 24 25  2  0  0  0  0
 24 26  1  0  0  0  0
 26 27  1  0  0  0  0
 26 28  1  0  0  0  0
 28 29  1  0  0  0  0
 28 30  1  0  0  0  0
 28 31  1  0  0  0  0
M  END
$$$$

  -OEChem-03222214053D

 31 30  0     1  0  0  0  0  0999 V2000
   -2.3461   -4.4802    0.2934 H   0  0  0  0  0  0  0  0  0  0  0  0
   -2.4364   -3.4462   -0.0520 C   0  0  0  0  0  0  0  0  0  0  0  0
   -3.1724   -2.9310    0.5697 H   0  0  0  0  0  0  0  0  0  0  0  0
   -2.7827   -3.4515   -1.0883 H   0  0  0  0  0  0  0  0  0  0  0  0
   -1.0936   -2.7463    0.0434 C   0  0  0  0  0  0  0  0  0  0  0  0
   -0.1270   -3.3463    0.4770 O   0  0  0  0  0  0  0  0  0  0  0  0
   -0.9794   -1.4285   -0.3521 N   0  0  0  0  0  0  0  0  0  0  0  0
   -1.7991   -1.0019   -0.7727 H   0  0  0  0  0  0  0  0  0  0  0  0
    0.2880   -0.6786   -0.4061 C   0  0  1  0  0  0  0  0  0  0  0  0
    0.9723   -1.2865   -1.0091 H   0  0  0  0  0  0  0  0  0  0  0  0
    0.1339    0.6879   -1.1405 C   0  0  1  0  0  0  0  0  0  0  0  0
    1.0330    1.2625   -0.8896 H   0  0  0  0  0  0  0  0  0  0  0  0
    0.1812    0.4408   -2.6581 C   0  0  0  0  0  0  0  0  0  0  0  0
   -0.6634   -0.1782   -2.9768 H   0  0  0  0  0  0  0  0  0  0  0  0
    0.1432    1.3903   -3.2019 H   0  0  0  0  0  0  0  0  0  0  0  0
    1.1097   -0.0681   -2.9366 H   0  0  0  0  0  0  0  0  0  0  0  0
   -1.0752    1.6319   -0.8383 C   0  0  0  0  0  0  0  0  0  0  0  0
   -0.6896    2.6561   -0.7969 H   0  0  0  0  0  0  0  0  0  0  0  0
   -1.7689    1.5924   -1.6848 H   0  0  0  0  0  0  0  0  0  0  0  0
   -1.9283    1.4034    0.4147 C   0  0  0  0  0  0  0  0  0  0  0  0
   -1.3192    1.4955    1.3153 H   0  0  0  0  0  0  0  0  0  0  0  0
   -2.7050    2.1726    0.4641 H   0  0  0  0  0  0  0  0  0  0  0  0
   -2.4309    0.4355    0.4073 H   0  0  0  0  0  0  0  0  0  0  0  0
    1.0337   -0.5515    0.9445 C   0  0  0  0  0  0  0  0  0  0  0  0
    2.2576   -0.5232    0.9498 O   0  0  0  0  0  0  0  0  0  0  0  0
    0.3633   -0.2268    2.1086 N   0  0  0  0  0  0  0  0  0  0  0  0
   -0.6452   -0.3317    2.0870 H   0  0  0  0  0  0  0  0  0  0  0  0
    1.0293   -0.0949    3.3980 C   0  0  0  0  0  0  0  0  0  0  0  0
    1.8003    0.6815    3.3543 H   0  0  0  0  0  0  0  0  0  0  0  0
    0.3061    0.1822    4.1707 H   0  0  0  0  0  0  0  0  0  0  0  0
    1.4986   -1.0422    3.6836 H   0  0  0  0  0  0  0  0  0  0  0  0
  1  2  1  0  0  0  0
  2  3  1  0  0  0  0
  2  4  1  0  0  0  0
  2  5  1  0  0  0  0
  5  6  2  0  0  0  0
  5  7  1  0  0  0  0
  7  8  1  0  0  0  0
  7  9  1  0  0  0  0
  9 10  1  0  0  0  0
  9 11  1  0  0  0  0
  9 24  1  0  0  0  0
 11 12  1  0  0  0  0
 11 13  1  0  0  0  0
 11 17  1  0  0  0  0
 13 14  1  0  0  0  0
 13 15  1  0  0  0  0
 13 16  1  0  0  0  0
 17 18  1  0  0  0  0
 17 19  1  0  0  0  0
 17 20  1  0  0  0  0
 20 21  1  0  0  0  0
 20 22  1  0  0  0  0
 20 23  1  0  0  0  0
 24 25  2  0  0  0  0
 24 26  1  0  0  0  0
 26 27  1  0  0  0  0
 26 28  1  0  0  0  0
 28 29  1  0  0  0  0
 28 30  1  0  0  0  0
 28 31  1  0  0  0  0
M  END
$$$$

  -OEChem-03222214053D

 31 30  0     1  0  0  0  0  0999 V2000
   -2.4028   -4.4282    0.2715 H   0  0  0  0  0  0  0  0  0  0  0  0
   -2.4762   -3.3913   -0.0689 C   0  0  0  0  0  0  0  0  0  0  0  0
   -3.2049   -2.8678    0.5544 H   0  0  0  0  0  0  0  0  0  0  0  0
   -2.8204   -3.3857   -1.1059 H   0  0  0  0  0  0  0  0  0  0  0  0
   -1.1230   -2.7130    0.0317 C   0  0  0  0  0  0  0  0  0  0  0  0
   -0.1653   -3.3313    0.4594 O   0  0  0  0  0  0  0  0  0  0  0  0
   -0.9877   -1.3949   -0.3555 N   0  0  0  0  0  0  0  0  0  0  0  0
   -1.8046   -0.9456   -0.7574 H   0  0  0  0  0  0  0  0  0  0  0  0
    0.2917   -0.6620   -0.3942 C   0  0  1  0  0  0  0  0  0  0  0  0
    0.9731   -1.2781   -0.9922 H   0  0  0  0  0  0  0  0  0  0  0  0
    0.1464    0.6932   -1.1470 C   0  0  1  0  0  0  0  0  0  0  0  0
    1.0382    1.2774   -0.8924 H   0  0  0  0  0  0  0  0  0  0  0  0
    0.1929    0.4407   -2.6630 C   0  0  0  0  0  0  0  0  0  0  0  0
   -0.6429   -0.1915   -2.9785 H   0  0  0  0  0  0  0  0  0  0  0  0
    0.1393    1.3875   -3.2097 H   0  0  0  0  0  0  0  0  0  0  0  0
    1.1278   -0.0567   -2.9405 H   0  0  0  0  0  0  0  0  0  0  0  0
   -1.0749    1.6112   -0.8468 C   0  0  0  0  0  0  0  0  0  0  0  0
   -0.7854    2.6444   -1.0673 H   0  0  0  0  0  0  0  0  0  0  0  0
   -1.8828    1.3518   -1.5391 H   0  0  0  0  0  0  0  0  0  0  0  0
   -1.6793    1.5707    0.5596 C   0  0  0  0  0  0  0  0  0  0  0  0
   -0.9366    1.8871    1.2971 H   0  0  0  0  0  0  0  0  0  0  0  0
   -2.5218    2.2670    0.6136 H   0  0  0  0  0  0  0  0  0  0  0  0
   -2.0524    0.5794    0.8221 H   0  0  0  0  0  0  0  0  0  0  0  0
    1.0359   -0.5465    0.9589 C   0  0  0  0  0  0  0  0  0  0  0  0
    2.2601   -0.5305    0.9657 O   0  0  0  0  0  0  0  0  0  0  0  0
    0.3697   -0.2157    2.1243 N   0  0  0  0  0  0  0  0  0  0  0  0
   -0.6403   -0.3042    2.1036 H   0  0  0  0  0  0  0  0  0  0  0  0
    1.0381   -0.0839    3.4126 C   0  0  0  0  0  0  0  0  0  0  0  0
    1.8094    0.6921    3.3676 H   0  0  0  0  0  0  0  0  0  0  0  0
    0.3164    0.1937    4.1866 H   0  0  0  0  0  0  0  0  0  0  0  0
    1.5073   -1.0315    3.6977 H   0  0  0  0  0  0  0  0  0  0  0  0
  1  2  1  0  0  0  0
  2  3  1  0  0  0  0
  2  4  1  0  0  0  0
  2  5  1  0  0  0  0
  5  6  2  0  0  0  0
  5  7  1  0  0  0  0
  7  8  1  0  0  0  0
  7  9  1  0  0  0  0
  9 10  1  0  0  0  0
  9 11  1  0  0  0  0
  9 24  1  0  0  0  0
 11 12  1  0  0  0  0
 11 13  1  0  0  0  0
 11 17  1  0  0  0  0
 13 14  1  0  0  0  0
 13 15  1  0  0  0  0
 13 16  1  0  0  0  0
 17 18  1  0  0  0  0
 17 19  1  0  0  0  0
 17 20  1  0  0  0  0
 20 21  1  0  0  0  0
 20 22  1  0  0  0  0
 20 23  1  0  0  0  0
 24 25  2  0  0  0  0
 24 26  1  0  0  0  0
 26 27  1  0  0  0  0
 26 28  1  0  0  0  0
 28 29  1  0  0  0  0
 28 30  1  0  0  0  0
 28 31  1  0  0  0  0
M  END
$$$$

  -OEChem-03222214053D

 31 30  0     1  0  0  0  0  0999 V2000
   -2.3457   -4.4396    0.3388 H   0  0  0  0  0  0  0  0  0  0  0  0
   -2.4307   -3.4082   -0.0152 C   0  0  0  0  0  0  0  0  0  0  0  0
   -3.1834   -2.8912    0.5848 H   0  0  0  0  0  0  0  0  0  0  0  0
   -2.7513   -3.4213   -1.0597 H   0  0  0  0  0  0  0  0  0  0  0  0
   -1.0933   -2.7029    0.1082 C   0  0  0  0  0  0  0  0  0  0  0  0
   -0.1402   -3.2882    0.5895 O   0  0  0  0  0  0  0  0  0  0  0  0
   -0.9669   -1.3967   -0.3193 N   0  0  0  0  0  0  0  0  0  0  0  0
   -1.7779   -0.9756   -0.7614 H   0  0  0  0  0  0  0  0  0  0  0  0
    0.3024   -0.6458   -0.3460 C   0  0  1  0  0  0  0  0  0  0  0  0
    1.0075   -1.2801   -0.8959 H   0  0  0  0  0  0  0  0  0  0  0  0
    0.1617    0.6621   -1.1769 C   0  0  1  0  0  0  0  0  0  0  0  0
    1.0308    1.2848   -0.9356 H   0  0  0  0  0  0  0  0  0  0  0  0
    0.2384    0.3298   -2.6757 C   0  0  0  0  0  0  0  0  0  0  0  0
   -0.5855   -0.3268   -2.9723 H   0  0  0  0  0  0  0  0  0  0  0  0
    0.1857    1.2454   -3.2731 H   0  0  0  0  0  0  0  0  0  0  0  0
    1.1830   -0.1718   -2.9093 H   0  0  0  0  0  0  0  0  0  0  0  0
   -1.0999    1.5346   -0.9460 C   0  0  0  0  0  0  0  0  0  0  0  0
   -0.9295    2.5084   -1.4175 H   0  0  0  0  0  0  0  0  0  0  0  0
   -1.9540    1.0746   -1.4538 H   0  0  0  0  0  0  0  0  0  0  0  0
   -1.4991    1.7750    0.5085 C   0  0  0  0  0  0  0  0  0  0  0  0
   -0.6540    2.1793    1.0741 H   0  0  0  0  0  0  0  0  0  0  0  0
   -1.8461    0.8521    0.9789 H   0  0  0  0  0  0  0  0  0  0  0  0
   -2.3169    2.5006    0.5516 H   0  0  0  0  0  0  0  0  0  0  0  0
    1.0176   -0.4653    1.0164 C   0  0  0  0  0  0  0  0  0  0  0  0
    2.2407   -0.4194    1.0414 O   0  0  0  0  0  0  0  0  0  0  0  0
    0.3286   -0.1018    2.1586 N   0  0  0  0  0  0  0  0  0  0  0  0
   -0.6783   -0.2180    2.1312 H   0  0  0  0  0  0  0  0  0  0  0  0
    0.9776    0.1137    3.4455 C   0  0  0  0  0  0  0  0  0  0  0  0
    1.7025    0.9317    3.3769 H   0  0  0  0  0  0  0  0  0  0  0  0
    0.2345    0.3752    4.2047 H   0  0  0  0  0  0  0  0  0  0  0  0
    1.4992   -0.7938    3.7672 H   0  0  0  0  0  0  0  0  0  0  0  0
  1  2  1  0  0  0  0
  2  3  1  0  0  0  0
  2  4  1  0  0  0  0
  2  5  1  0  0  0  0
  5  6  2  0  0  0  0
  5  7  1  0  0  0  0
  7  8  1  0  0  0  0
  7  9  1  0  0  0  0
  9 10  1  0  0  0  0
  9 11  1  0  0  0  0
  9 24  1  0  0  0  0
 11 12  1  0  0  0  0
 11 13  1  0  0  0  0
 11 17  1  0  0  0  0
 13 14  1  0  0  0  0
 13 15  1  0  0  0  0
 13 16  1  0  0  0  0
 17 18  1  0  0  0  0
 17 19  1  0  0  0  0
 17 20  1  0  0  0  0
 20 21  1  0  0  0  0
 20 22  1  0  0  0  0
 20 23  1  0  0  0  0
 24 25  2  0  0  0  0
 24 26  1  0  0  0  0
 26 27  1  0  0  0  0
 26 28  1  0  0  0  0
 28 29  1  0  0  0  0
 28 30  1  0  0  0  0
 28 31  1  0  0  0  0
M  END
$$$$

  -OEChem-03222214053D

 31 30  0     1  0  0  0  0  0999 V2000
   -2.5131   -4.3448    0.2437 H   0  0  0  0  0  0  0  0  0  0  0  0
   -2.5579   -3.3045   -0.0915 C   0  0  0  0  0  0  0  0  0  0  0  0
   -3.2818   -2.7672    0.5255 H   0  0  0  0  0  0  0  0  0  0  0  0
   -2.8895   -3.2859   -1.1325 H   0  0  0  0  0  0  0  0  0  0  0  0
   -1.1907   -2.6580    0.0305 C   0  0  0  0  0  0  0  0  0  0  0  0
   -0.2555   -3.2966    0.4776 O   0  0  0  0  0  0  0  0  0  0  0  0
   -1.0179   -1.3440   -0.3560 N   0  0  0  0  0  0  0  0  0  0  0  0
   -1.8167   -0.8780   -0.7741 H   0  0  0  0  0  0  0  0  0  0  0  0
    0.2798   -0.6423   -0.3735 C   0  0  1  0  0  0  0  0  0  0  0  0
    0.9538   -1.2854   -0.9511 H   0  0  0  0  0  0  0  0  0  0  0  0
    0.1887    0.6986   -1.1572 C   0  0  1  0  0  0  0  0  0  0  0  0
    1.0888    1.2792   -0.9240 H   0  0  0  0  0  0  0  0  0  0  0  0
    0.2099    0.4035   -2.6661 C   0  0  0  0  0  0  0  0  0  0  0  0
   -0.6576   -0.1965   -2.9580 H   0  0  0  0  0  0  0  0  0  0  0  0
    0.1964    1.3354   -3.2400 H   0  0  0  0  0  0  0  0  0  0  0  0
    1.1185   -0.1441   -2.9363 H   0  0  0  0  0  0  0  0  0  0  0  0
   -1.0398    1.5971   -0.8677 C   0  0  0  0  0  0  0  0  0  0  0  0
   -0.9527    2.4944   -1.4896 H   0  0  0  0  0  0  0  0  0  0  0  0
   -1.9602    1.0868   -1.1670 H   0  0  0  0  0  0  0  0  0  0  0  0
   -1.1778    2.0588    0.5806 C   0  0  0  0  0  0  0  0  0  0  0  0
   -0.2141    2.3993    0.9726 H   0  0  0  0  0  0  0  0  0  0  0  0
   -1.5603    1.2499    1.2064 H   0  0  0  0  0  0  0  0  0  0  0  0
   -1.8872    2.8899    0.6394 H   0  0  0  0  0  0  0  0  0  0  0  0
    1.0136   -0.5362    0.9863 C   0  0  0  0  0  0  0  0  0  0  0  0
    2.2377   -0.5449    1.0017 O   0  0  0  0  0  0  0  0  0  0  0  0
    0.3486   -0.1846    2.1462 N   0  0  0  0  0  0  0  0  0  0  0  0
   -0.6625   -0.2577    2.1219 H   0  0  0  0  0  0  0  0  0  0  0  0
    1.0131   -0.0592    3.4371 C   0  0  0  0  0  0  0  0  0  0  0  0
    1.7931    0.7082    3.3942 H   0  0  0  0  0  0  0  0  0  0  0  0
    0.2913    0.2271    4.2079 H   0  0  0  0  0  0  0  0  0  0  0  0
    1.4705   -1.0117    3.7251 H   0  0  0  0  0  0  0  0  0  0  0  0
  1  2  1  0  0  0  0
  2  3  1  0  0  0  0
  2  4  1  0  0  0  0
  2  5  1  0  0  0  0
  5  6  2  0  0  0  0
  5  7  1  0  0  0  0
  7  8  1  0  0  0  0
  7  9  1  0  0  0  0
  9 10  1  0  0  0  0
  9 11  1  0  0  0  0
  9 24  1  0  0  0  0
 11 12  1  0  0  0  0
 11 13  1  0  0  0  0
 11 17  1  0  0  0  0
 13 14  1  0  0  0  0
 13 15  1  0  0  0  0
 13 16  1  0  0  0  0
 17 18  1  0  0  0  0
 17 19  1  0  0  0  0
 17 20  1  0  0  0  0
 20 21  1  0  0  0  0
 20 22  1  0  0  0  0
 20 23  1  0  0  0  0
 24 25  2  0  0  0  0
 24 26  1  0  0  0  0
 26 27  1  0  0  0  0
 26 28  1  0  0  0  0
 28 29  1  0  0  0  0
 28 30  1  0  0  0  0
 28 31  1  0  0  0  0
M  END
$$$$

  -OEChem-03222214053D

 31 30  0     1  0  0  0  0  0999 V2000
   -2.4351   -4.3834    0.2362 H   0  0  0  0  0  0  0  0  0  0  0  0
   -2.5025   -3.3445   -0.0996 C   0  0  0  0  0  0  0  0  0  0  0  0
   -3.2419   -2.8243    0.5138 H   0  0  0  0  0  0  0  0  0  0  0  0
   -2.8290   -3.3340   -1.1422 H   0  0  0  0  0  0  0  0  0  0  0  0
   -1.1515   -2.6661    0.0285 C   0  0  0  0  0  0  0  0  0  0  0  0
   -0.2050   -3.2829    0.4824 O   0  0  0  0  0  0  0  0  0  0  0  0
   -1.0052   -1.3509   -0.3656 N   0  0  0  0  0  0  0  0  0  0  0  0
   -1.8073   -0.9135   -0.8078 H   0  0  0  0  0  0  0  0  0  0  0  0
    0.2820   -0.6290   -0.3970 C   0  0  1  0  0  0  0  0  0  0  0  0
    0.9634   -1.2570   -0.9827 H   0  0  0  0  0  0  0  0  0  0  0  0
    0.1679    0.7246   -1.1574 C   0  0  1  0  0  0  0  0  0  0  0  0
    1.0726    1.3079   -0.9508 H   0  0  0  0  0  0  0  0  0  0  0  0
    0.1475    0.4355   -2.6685 C   0  0  0  0  0  0  0  0  0  0  0  0
   -0.7405   -0.1425   -2.9427 H   0  0  0  0  0  0  0  0  0  0  0  0
    0.1436    1.3699   -3.2387 H   0  0  0  0  0  0  0  0  0  0  0  0
    1.0364   -0.1313   -2.9634 H   0  0  0  0  0  0  0  0  0  0  0  0
   -1.0663    1.6046   -0.8277 C   0  0  0  0  0  0  0  0  0  0  0  0
   -1.1387    2.3857   -1.5919 H   0  0  0  0  0  0  0  0  0  0  0  0
   -1.9910    1.0230   -0.8802 H   0  0  0  0  0  0  0  0  0  0  0  0
   -0.9841    2.3191    0.5209 C   0  0  0  0  0  0  0  0  0  0  0  0
    0.0196    2.7220    0.6896 H   0  0  0  0  0  0  0  0  0  0  0  0
   -1.6970    3.1489    0.5444 H   0  0  0  0  0  0  0  0  0  0  0  0
   -1.2405    1.6406    1.3353 H   0  0  0  0  0  0  0  0  0  0  0  0
    1.0109   -0.5152    0.9634 C   0  0  0  0  0  0  0  0  0  0  0  0
    2.2348   -0.5045    0.9851 O   0  0  0  0  0  0  0  0  0  0  0  0
    0.3310   -0.1735    2.1171 N   0  0  0  0  0  0  0  0  0  0  0  0
   -0.6789   -0.2586    2.0829 H   0  0  0  0  0  0  0  0  0  0  0  0
    0.9825   -0.0332    3.4131 C   0  0  0  0  0  0  0  0  0  0  0  0
    1.7524    0.7445    3.3737 H   0  0  0  0  0  0  0  0  0  0  0  0
    0.2502    0.2465    4.1762 H   0  0  0  0  0  0  0  0  0  0  0  0
    1.4505   -0.9779    3.7096 H   0  0  0  0  0  0  0  0  0  0  0  0
  1  2  1  0  0  0  0
  2  3  1  0  0  0  0
  2  4  1  0  0  0  0
  2  5  1  0  0  0  0
  5  6  2  0  0  0  0
  5  7  1  0  0  0  0
  7  8  1  0  0  0  0
  7  9  1  0  0  0  0
  9 10  1  0  0  0  0
  9 11  1  0  0  0  0
  9 24  1  0  0  0  0
 11 12  1  0  0  0  0
 11 13  1  0  0  0  0
 11 17  1  0  0  0  0
 13 14  1  0  0  0  0
 13 15  1  0  0  0  0
 13 16  1  0  0  0  0
 17 18  1  0  0  0  0
 17 19  1  0  0  0  0
 17 20  1  0  0  0  0
 20 21  1  0  0  0  0
 20 22  1  0  0  0  0
 20 23  1  0  0  0  0
 24 25  2  0  0  0  0
 24 26  1  0  0  0  0
 26 27  1  0  0  0  0
 26 28  1  0  0  0  0
 28 29  1  0  0  0  0
 28 30  1  0  0  0  0
 28 31  1  0  0  0  0
M  END
$$$$

  -OEChem-03222214053D

 31 30  0     1  0  0  0  0  0999 V2000
   -2.4355   -4.3754    0.2573 H   0  0  0  0  0  0  0  0  0  0  0  0
   -2.4973   -3.3418   -0.0952 C   0  0  0  0  0  0  0  0  0  0  0  0
   -3.2443   -2.8112    0.4999 H   0  0  0  0  0  0  0  0  0  0  0  0
   -2.8103   -3.3467   -1.1419 H   0  0  0  0  0  0  0  0  0  0  0  0
   -1.1470   -2.6631    0.0403 C   0  0  0  0  0  0  0  0  0  0  0  0
   -0.2067   -3.2742    0.5143 O   0  0  0  0  0  0  0  0  0  0  0  0
   -0.9955   -1.3549   -0.3754 N   0  0  0  0  0  0  0  0  0  0  0  0
   -1.7894   -0.9317   -0.8453 H   0  0  0  0  0  0  0  0  0  0  0  0
    0.2930   -0.6345   -0.4171 C   0  0  1  0  0  0  0  0  0  0  0  0
    0.9800   -1.2592   -0.9998 H   0  0  0  0  0  0  0  0  0  0  0  0
    0.1726    0.7275   -1.1639 C   0  0  1  0  0  0  0  0  0  0  0  0
    1.0856    1.3042   -0.9761 H   0  0  0  0  0  0  0  0  0  0  0  0
    0.1238    0.4387   -2.6751 C   0  0  0  0  0  0  0  0  0  0  0  0
   -0.7758   -0.1279   -2.9351 H   0  0  0  0  0  0  0  0  0  0  0  0
    0.1230    1.3732   -3.2449 H   0  0  0  0  0  0  0  0  0  0  0  0
    1.0005   -0.1389   -2.9851 H   0  0  0  0  0  0  0  0  0  0  0  0
   -1.0574    1.6069   -0.8035 C   0  0  0  0  0  0  0  0  0  0  0  0
   -1.3244    2.2221   -1.6692 H   0  0  0  0  0  0  0  0  0  0  0  0
   -1.9322    0.9952   -0.5703 H   0  0  0  0  0  0  0  0  0  0  0  0
   -0.7864    2.5707    0.3543 C   0  0  0  0  0  0  0  0  0  0  0  0
    0.1114    3.1648    0.1572 H   0  0  0  0  0  0  0  0  0  0  0  0
   -1.6323    3.2547    0.4725 H   0  0  0  0  0  0  0  0  0  0  0  0
   -0.6523    2.0385    1.2954 H   0  0  0  0  0  0  0  0  0  0  0  0
    0.9979   -0.5125    0.9541 C   0  0  0  0  0  0  0  0  0  0  0  0
    2.2211   -0.5038    1.0018 O   0  0  0  0  0  0  0  0  0  0  0  0
    0.2891   -0.1578    2.0866 N   0  0  0  0  0  0  0  0  0  0  0  0
   -0.7201   -0.2403    2.0273 H   0  0  0  0  0  0  0  0  0  0  0  0
    0.9085   -0.0049    3.3968 C   0  0  0  0  0  0  0  0  0  0  0  0
    1.6779    0.7739    3.3696 H   0  0  0  0  0  0  0  0  0  0  0  0
    0.1570    0.2798    4.1391 H   0  0  0  0  0  0  0  0  0  0  0  0
    1.3709   -0.9461    3.7124 H   0  0  0  0  0  0  0  0  0  0  0  0
  1  2  1  0  0  0  0
  2  3  1  0  0  0  0
  2  4  1  0  0  0  0
  2  5  1  0  0  0  0
  5  6  2  0  0  0  0
  5  7  1  0  0  0  0
  7  8  1  0  0  0  0
  7  9  1  0  0  0  0
  9 10  1  0  0  0  0
  9 11  1  0  0  0  0
  9 24  1  0  0  0  0
 11 12  1  0  0  0  0
 11 13  1  0  0  0  0
 11 17  1  0  0  0  0
 13 14  1  0  0  0  0
 13 15  1  0  0  0  0
 13 16  1  0  0  0  0
 17 18  1  0  0  0  0
 17 19  1  0  0  0  0
 17 20  1  0  0  0  0
 20 21  1  0  0  0  0
 20 22  1  0  0  0  0
 20 23  1  0  0  0  0
 24 25  2  0  0  0  0
 24 26  1  0  0  0  0
 26 27  1  0  0  0  0
 26 28  1  0  0  0  0
 28 29  1  0  0  0  0
 28 30  1  0  0  0  0
 28 31  1  0  0  0  0
M  END
$$$$

  -OEChem-03222214053D

 31 30  0     1  0  0  0  0  0999 V2000
   -2.4390   -4.3677    0.3104 H   0  0  0  0  0  0  0  0  0  0  0  0
   -2.4951   -3.3443   -0.0720 C   0  0  0  0  0  0  0  0  0  0  0  0
   -3.2388   -2.7926    0.5079 H   0  0  0  0  0  0  0  0  0  0  0  0
   -2.8080   -3.3776   -1.1184 H   0  0  0  0  0  0  0  0  0  0  0  0
   -1.1411   -2.6698    0.0443 C   0  0  0  0  0  0  0  0  0  0  0  0
   -0.2061   -3.2710    0.5406 O   0  0  0  0  0  0  0  0  0  0  0  0
   -0.9795   -1.3775   -0.4152 N   0  0  0  0  0  0  0  0  0  0  0  0
   -1.7690   -0.9647   -0.9019 H   0  0  0  0  0  0  0  0  0  0  0  0
    0.3117   -0.6604   -0.4624 C   0  0  1  0  0  0  0  0  0  0  0  0
    1.0096   -1.2764   -1.0407 H   0  0  0  0  0  0  0  0  0  0  0  0
    0.1807    0.7167   -1.1741 C   0  0  1  0  0  0  0  0  0  0  0  0
    1.0971    1.2884   -0.9856 H   0  0  0  0  0  0  0  0  0  0  0  0
    0.1118    0.4735   -2.6911 C   0  0  0  0  0  0  0  0  0  0  0  0
   -0.7859   -0.0941   -2.9555 H   0  0  0  0  0  0  0  0  0  0  0  0
    0.0932    1.4263   -3.2298 H   0  0  0  0  0  0  0  0  0  0  0  0
    0.9897   -0.0860   -3.0296 H   0  0  0  0  0  0  0  0  0  0  0  0
   -1.0488    1.5689   -0.7491 C   0  0  0  0  0  0  0  0  0  0  0  0
   -1.5380    1.9958   -1.6309 H   0  0  0  0  0  0  0  0  0  0  0  0
   -1.7983    0.9670   -0.2301 H   0  0  0  0  0  0  0  0  0  0  0  0
   -0.6350    2.7259    0.1637 C   0  0  0  0  0  0  0  0  0  0  0  0
    0.0496    3.3991   -0.3618 H   0  0  0  0  0  0  0  0  0  0  0  0
   -1.5168    3.2986    0.4662 H   0  0  0  0  0  0  0  0  0  0  0  0
   -0.1361    2.3588    1.0641 H   0  0  0  0  0  0  0  0  0  0  0  0
    0.9817   -0.4986    0.9215 C   0  0  0  0  0  0  0  0  0  0  0  0
    2.2028   -0.4995    1.0059 O   0  0  0  0  0  0  0  0  0  0  0  0
    0.2371   -0.1050    2.0190 N   0  0  0  0  0  0  0  0  0  0  0  0
   -0.7702   -0.1795    1.9285 H   0  0  0  0  0  0  0  0  0  0  0  0
    0.8148    0.0819    3.3437 C   0  0  0  0  0  0  0  0  0  0  0  0
    1.6004    0.8445    3.3153 H   0  0  0  0  0  0  0  0  0  0  0  0
    0.0454    0.4071    4.0502 H   0  0  0  0  0  0  0  0  0  0  0  0
    1.2471   -0.8562    3.7074 H   0  0  0  0  0  0  0  0  0  0  0  0
  1  2  1  0  0  0  0
  2  3  1  0  0  0  0
  2  4  1  0  0  0  0
  2  5  1  0  0  0  0
  5  6  2  0  0  0  0
  5  7  1  0  0  0  0
  7  8  1  0  0  0  0
  7  9  1  0  0  0  0
  9 10  1  0  0  0  0
  9 11  1  0  0  0  0
  9 24  1  0  0  0  0
 11 12  1  0  0  0  0
 11 13  1  0  0  0  0
 11 17  1  0  0  0  0
 13 14  1  0  0  0  0
 13 15  1  0  0  0  0
 13 16  1  0  0  0  0
 17 18  1  0  0  0  0
 17 19  1  0  0  0  0
 17 20  1  0  0  0  0
 20 21  1  0  0  0  0
 20 22  1  0  0  0  0
 20 23  1  0  0  0  0
 24 25  2  0  0  0  0
 24 26  1  0  0  0  0
 26 27  1  0  0  0  0
 26 28  1  0  0  0  0
 28 29  1  0  0  0  0
 28 30  1  0  0  0  0
 28 31  1  0  0  0  0
M  END
$$$$

  -OEChem-03222214053D

 31 30  0     1  0  0  0  0  0999 V2000
   -2.4531   -4.3640    0.3045 H   0  0  0  0  0  0  0  0  0  0  0  0
   -2.5049   -3.3414   -0.0800 C   0  0  0  0  0  0  0  0  0  0  0  0
   -3.2552   -2.7887    0.4903 H   0  0  0  0  0  0  0  0  0  0  0  0
   -2.8059   -3.3766   -1.1297 H   0  0  0  0  0  0  0  0  0  0  0  0
   -1.1524   -2.6669    0.0503 C   0  0  0  0  0  0  0  0  0  0  0  0
   -0.2281   -3.2597    0.5758 O   0  0  0  0  0  0  0  0  0  0  0  0
   -0.9797   -1.3839   -0.4299 N   0  0  0  0  0  0  0  0  0  0  0  0
   -1.7609   -0.9754   -0.9336 H   0  0  0  0  0  0  0  0  0  0  0  0
    0.3167   -0.6758   -0.4762 C   0  0  1  0  0  0  0  0  0  0  0  0
    1.0164   -1.2900   -1.0543 H   0  0  0  0  0  0  0  0  0  0  0  0
    0.1775    0.7028   -1.1754 C   0  0  1  0  0  0  0  0  0  0  0  0
    1.0919    1.2735   -0.9737 H   0  0  0  0  0  0  0  0  0  0  0  0
    0.1089    0.4946   -2.6964 C   0  0  0  0  0  0  0  0  0  0  0  0
   -0.7751   -0.0887   -2.9719 H   0  0  0  0  0  0  0  0  0  0  0  0
    0.0634    1.4604   -3.2100 H   0  0  0  0  0  0  0  0  0  0  0  0
    0.9989   -0.0355   -3.0503 H   0  0  0  0  0  0  0  0  0  0  0  0
   -1.0562    1.5294   -0.7170 C   0  0  0  0  0  0  0  0  0  0  0  0
   -1.7289    1.7219   -1.5595 H   0  0  0  0  0  0  0  0  0  0  0  0
   -1.6350    0.9958    0.0412 H   0  0  0  0  0  0  0  0  0  0  0  0
   -0.6199    2.8649   -0.1137 C   0  0  0  0  0  0  0  0  0  0  0  0
   -0.0695    3.4566   -0.8522 H   0  0  0  0  0  0  0  0  0  0  0  0
   -1.4952    3.4375    0.2072 H   0  0  0  0  0  0  0  0  0  0  0  0
    0.0251    2.7006    0.7554 H   0  0  0  0  0  0  0  0  0  0  0  0
    0.9822   -0.4897    0.9074 C   0  0  0  0  0  0  0  0  0  0  0  0
    2.2029   -0.4950    0.9971 O   0  0  0  0  0  0  0  0  0  0  0  0
    0.2345   -0.0689    1.9927 N   0  0  0  0  0  0  0  0  0  0  0  0
   -0.7722   -0.1492    1.9017 H   0  0  0  0  0  0  0  0  0  0  0  0
    0.8083    0.1368    3.3162 C   0  0  0  0  0  0  0  0  0  0  0  0
    1.5988    0.8937    3.2782 H   0  0  0  0  0  0  0  0  0  0  0  0
    0.0383    0.4789    4.0139 H   0  0  0  0  0  0  0  0  0  0  0  0
    1.2331   -0.7979    3.6972 H   0  0  0  0  0  0  0  0  0  0  0  0
  1  2  1  0  0  0  0
  2  3  1  0  0  0  0
  2  4  1  0  0  0  0
  2  5  1  0  0  0  0
  5  6  2  0  0  0  0
  5  7  1  0  0  0  0
  7  8  1  0  0  0  0
  7  9  1  0  0  0  0
  9 10  1  0  0  0  0
  9 11  1  0  0  0  0
  9 24  1  0  0  0  0
 11 12  1  0  0  0  0
 11 13  1  0  0  0  0
 11 17  1  0  0  0  0
 13 14  1  0  0  0  0
 13 15  1  0  0  0  0
 13 16  1  0  0  0  0
 17 18  1  0  0  0  0
 17 19  1  0  0  0  0
 17 20  1  0  0  0  0
 20 21  1  0  0  0  0
 20 22  1  0  0  0  0
 20 23  1  0  0  0  0
 24 25  2  0  0  0  0
 24 26  1  0  0  0  0
 26 27  1  0  0  0  0
 26 28  1  0  0  0  0
 28 29  1  0  0  0  0
 28 30  1  0  0  0  0
 28 31  1  0  0  0  0
M  END
$$$$

  -OEChem-03222214053D

 31 30  0     1  0  0  0  0  0999 V2000
   -2.4770   -4.3474    0.2977 H   0  0  0  0  0  0  0  0  0  0  0  0
   -2.5212   -3.3249   -0.0883 C   0  0  0  0  0  0  0  0  0  0  0  0
   -3.2721   -2.7678    0.4768 H   0  0  0  0  0  0  0  0  0  0  0  0
   -2.8160   -3.3597   -1.1398 H   0  0  0  0  0  0  0  0  0  0  0  0
   -1.1659   -2.6571    0.0493 C   0  0  0  0  0  0  0  0  0  0  0  0
   -0.2458   -3.2559    0.5756 O   0  0  0  0  0  0  0  0  0  0  0  0
   -0.9857   -1.3728   -0.4246 N   0  0  0  0  0  0  0  0  0  0  0  0
   -1.7635   -0.9584   -0.9287 H   0  0  0  0  0  0  0  0  0  0  0  0
    0.3144   -0.6721   -0.4663 C   0  0  1  0  0  0  0  0  0  0  0  0
    1.0097   -1.2896   -1.0460 H   0  0  0  0  0  0  0  0  0  0  0  0
    0.1712    0.6991   -1.1761 C   0  0  1  0  0  0  0  0  0  0  0  0
    1.0775    1.2755   -0.9552 H   0  0  0  0  0  0  0  0  0  0  0  0
    0.1206    0.4997   -2.6981 C   0  0  0  0  0  0  0  0  0  0  0  0
   -0.7435   -0.1075   -2.9850 H   0  0  0  0  0  0  0  0  0  0  0  0
    0.0508    1.4670   -3.2056 H   0  0  0  0  0  0  0  0  0  0  0  0
    1.0284   -0.0027   -3.0468 H   0  0  0  0  0  0  0  0  0  0  0  0
   -1.0692    1.5109   -0.7195 C   0  0  0  0  0  0  0  0  0  0  0  0
   -1.8676    1.4506   -1.4665 H   0  0  0  0  0  0  0  0  0  0  0  0
   -1.4697    1.1097    0.2157 H   0  0  0  0  0  0  0  0  0  0  0  0
   -0.7067    2.9751   -0.4695 C   0  0  0  0  0  0  0  0  0  0  0  0
   -0.3174    3.4348   -1.3832 H   0  0  0  0  0  0  0  0  0  0  0  0
   -1.5923    3.5326   -0.1503 H   0  0  0  0  0  0  0  0  0  0  0  0
    0.0532    3.0532    0.3148 H   0  0  0  0  0  0  0  0  0  0  0  0
    0.9893   -0.4905    0.9140 C   0  0  0  0  0  0  0  0  0  0  0  0
    2.2107   -0.5010    0.9940 O   0  0  0  0  0  0  0  0  0  0  0  0
    0.2531   -0.0674    2.0063 N   0  0  0  0  0  0  0  0  0  0  0  0
   -0.7542   -0.1510    1.9260 H   0  0  0  0  0  0  0  0  0  0  0  0
    0.8392    0.1339    3.3252 C   0  0  0  0  0  0  0  0  0  0  0  0
    1.6278    0.8926    3.2832 H   0  0  0  0  0  0  0  0  0  0  0  0
    0.0748    0.4714    4.0314 H   0  0  0  0  0  0  0  0  0  0  0  0
    1.2696   -0.8013    3.6985 H   0  0  0  0  0  0  0  0  0  0  0  0
  1  2  1  0  0  0  0
  2  3  1  0  0  0  0
  2  4  1  0  0  0  0
  2  5  1  0  0  0  0
  5  6  2  0  0  0  0
  5  7  1  0  0  0  0
  7  8  1  0  0  0  0
  7  9  1  0  0  0  0
  9 10  1  0  0  0  0
  9 11  1  0  0  0  0
  9 24  1  0  0  0  0
 11 12  1  0  0  0  0
 11 13  1  0  0  0  0
 11 17  1  0  0  0  0
 13 14  1  0  0  0  0
 13 15  1  0  0  0  0
 13 16  1  0  0  0  0
 17 18  1  0  0  0  0
 17 19  1  0  0  0  0
 17 20  1  0  0  0  0
 20 21  1  0  0  0  0
 20 22  1  0  0  0  0
 20 23  1  0  0  0  0
 24 25  2  0  0  0  0
 24 26  1  0  0  0  0
 26 27  1  0  0  0  0
 26 28  1  0  0  0  0
 28 29  1  0  0  0  0
 28 30  1  0  0  0  0
 28 31  1  0  0  0  0
M  END
$$$$

  -OEChem-03222214053D

 31 30  0     1  0  0  0  0  0999 V2000
   -2.4814   -4.3388    0.2922 H   0  0  0  0  0  0  0  0  0  0  0  0
   -2.5261   -3.3139   -0.0876 C   0  0  0  0  0  0  0  0  0  0  0  0
   -3.2738   -2.7592    0.4841 H   0  0  0  0  0  0  0  0  0  0  0  0
   -2.8258   -3.3422   -1.1379 H   0  0  0  0  0  0  0  0  0  0  0  0
   -1.1693   -2.6484    0.0476 C   0  0  0  0  0  0  0  0  0  0  0  0
   -0.2477   -3.2508    0.5668 O   0  0  0  0  0  0  0  0  0  0  0  0
   -0.9894   -1.3611   -0.4180 N   0  0  0  0  0  0  0  0  0  0  0  0
   -1.7702   -0.9403   -0.9119 H   0  0  0  0  0  0  0  0  0  0  0  0
    0.3104   -0.6605   -0.4584 C   0  0  1  0  0  0  0  0  0  0  0  0
    1.0037   -1.2807   -1.0380 H   0  0  0  0  0  0  0  0  0  0  0  0
    0.1682    0.7057   -1.1786 C   0  0  1  0  0  0  0  0  0  0  0  0
    1.0672    1.2903   -0.9501 H   0  0  0  0  0  0  0  0  0  0  0  0
    0.1277    0.4936   -2.7005 C   0  0  0  0  0  0  0  0  0  0  0  0
   -0.7370   -0.1125   -2.9881 H   0  0  0  0  0  0  0  0  0  0  0  0
    0.0673    1.4539   -3.2214 H   0  0  0  0  0  0  0  0  0  0  0  0
    1.0357   -0.0167   -3.0375 H   0  0  0  0  0  0  0  0  0  0  0  0
   -1.0765    1.5082   -0.7270 C   0  0  0  0  0  0  0  0  0  0  0  0
   -1.9497    1.2285   -1.3252 H   0  0  0  0  0  0  0  0  0  0  0  0
   -1.3102    1.2838    0.3173 H   0  0  0  0  0  0  0  0  0  0  0  0
   -0.8406    3.0165   -0.8315 C   0  0  0  0  0  0  0  0  0  0  0  0
   -0.6301    3.3059   -1.8654 H   0  0  0  0  0  0  0  0  0  0  0  0
   -1.7292    3.5593   -0.4953 H   0  0  0  0  0  0  0  0  0  0  0  0
    0.0050    3.3163   -0.2043 H   0  0  0  0  0  0  0  0  0  0  0  0
    0.9915   -0.4873    0.9201 C   0  0  0  0  0  0  0  0  0  0  0  0
    2.2134   -0.4966    0.9930 O   0  0  0  0  0  0  0  0  0  0  0  0
    0.2623   -0.0713    2.0197 N   0  0  0  0  0  0  0  0  0  0  0  0
   -0.7450   -0.1626    1.9472 H   0  0  0  0  0  0  0  0  0  0  0  0
    0.8569    0.1166    3.3368 C   0  0  0  0  0  0  0  0  0  0  0  0
    1.6481    0.8726    3.2963 H   0  0  0  0  0  0  0  0  0  0  0  0
    0.0981    0.4509    4.0504 H   0  0  0  0  0  0  0  0  0  0  0  0
    1.2861   -0.8234    3.6995 H   0  0  0  0  0  0  0  0  0  0  0  0
  1  2  1  0  0  0  0
  2  3  1  0  0  0  0
  2  4  1  0  0  0  0
  2  5  1  0  0  0  0
  5  6  2  0  0  0  0
  5  7  1  0  0  0  0
  7  8  1  0  0  0  0
  7  9  1  0  0  0  0
  9 10  1  0  0  0  0
  9 11  1  0  0  0  0
  9 24  1  0  0  0  0
 11 12  1  0  0  0  0
 11 13  1  0  0  0  0
 11 17  1  0  0  0  0
 13 14  1  0  0  0  0
 13 15  1  0  0  0  0
 13 16  1  0  0  0  0
 17 18  1  0  0  0  0
 17 19  1  0  0  0  0
 17 20  1  0  0  0  0
 20 21  1  0  0  0  0
 20 22  1  0  0  0  0
 20 23  1  0  0  0  0
 24 25  2  0  0  0  0
 24 26  1  0  0  0  0
 26 27  1  0  0  0  0
 26 28  1  0  0  0  0
 28 29  1  0  0  0  0
 28 30  1  0  0  0  0
 28 31  1  0  0  0  0
M  END
$$$$

  -OEChem-03222214053D

 31 30  0     1  0  0  0  0  0999 V2000
   -2.4728   -4.3400    0.2965 H   0  0  0  0  0  0  0  0  0  0  0  0
   -2.5204   -3.3160   -0.0853 C   0  0  0  0  0  0  0  0  0  0  0  0
   -3.2690   -2.7620    0.4859 H   0  0  0  0  0  0  0  0  0  0  0  0
   -2.8209   -3.3473   -1.1354 H   0  0  0  0  0  0  0  0  0  0  0  0
   -1.1652   -2.6470    0.0479 C   0  0  0  0  0  0  0  0  0  0  0  0
   -0.2411   -3.2482    0.5642 O   0  0  0  0  0  0  0  0  0  0  0  0
   -0.9904   -1.3586   -0.4165 N   0  0  0  0  0  0  0  0  0  0  0  0
   -1.7714   -0.9436   -0.9148 H   0  0  0  0  0  0  0  0  0  0  0  0
    0.3077   -0.6552   -0.4597 C   0  0  1  0  0  0  0  0  0  0  0  0
    1.0007   -1.2776   -1.0369 H   0  0  0  0  0  0  0  0  0  0  0  0
    0.1708    0.7128   -1.1815 C   0  0  1  0  0  0  0  0  0  0  0  0
    1.0676    1.3019   -0.9567 H   0  0  0  0  0  0  0  0  0  0  0  0
    0.1325    0.4789   -2.7018 C   0  0  0  0  0  0  0  0  0  0  0  0
   -0.7661   -0.0760   -2.9884 H   0  0  0  0  0  0  0  0  0  0  0  0
    0.1426    1.4287   -3.2433 H   0  0  0  0  0  0  0  0  0  0  0  0
    1.0094   -0.0934   -3.0211 H   0  0  0  0  0  0  0  0  0  0  0  0
   -1.0742    1.5138   -0.7270 C   0  0  0  0  0  0  0  0  0  0  0  0
   -1.9862    1.0639   -1.1317 H   0  0  0  0  0  0  0  0  0  0  0  0
   -1.1471    1.4869    0.3637 H   0  0  0  0  0  0  0  0  0  0  0  0
   -1.0104    2.9833   -1.1528 C   0  0  0  0  0  0  0  0  0  0  0  0
   -1.0446    3.0808   -2.2414 H   0  0  0  0  0  0  0  0  0  0  0  0
   -1.8627    3.5286   -0.7363 H   0  0  0  0  0  0  0  0  0  0  0  0
   -0.0898    3.4484   -0.7865 H   0  0  0  0  0  0  0  0  0  0  0  0
    0.9895   -0.4842    0.9187 C   0  0  0  0  0  0  0  0  0  0  0  0
    2.2115   -0.4908    0.9906 O   0  0  0  0  0  0  0  0  0  0  0  0
    0.2598   -0.0725    2.0197 N   0  0  0  0  0  0  0  0  0  0  0  0
   -0.7475   -0.1642    1.9469 H   0  0  0  0  0  0  0  0  0  0  0  0
    0.8540    0.1144    3.3374 C   0  0  0  0  0  0  0  0  0  0  0  0
    1.6441    0.8717    3.2981 H   0  0  0  0  0  0  0  0  0  0  0  0
    0.0944    0.4469    4.0513 H   0  0  0  0  0  0  0  0  0  0  0  0
    1.2844   -0.8254    3.6992 H   0  0  0  0  0  0  0  0  0  0  0  0
  1  2  1  0  0  0  0
  2  3  1  0  0  0  0
  2  4  1  0  0  0  0
  2  5  1  0  0  0  0
  5  6  2  0  0  0  0
  5  7  1  0  0  0  0
  7  8  1  0  0  0  0
  7  9  1  0  0  0  0
  9 10  1  0  0  0  0
  9 11  1  0  0  0  0
  9 24  1  0  0  0  0
 11 12  1  0  0  0  0
 11 13  1  0  0  0  0
 11 17  1  0  0  0  0
 13 14  1  0  0  0  0
 13 15  1  0  0  0  0
 13 16  1  0  0  0  0
 17 18  1  0  0  0  0
 17 19  1  0  0  0  0
 17 20  1  0  0  0  0
 20 21  1  0  0  0  0
 20 22  1  0  0  0  0
 20 23  1  0  0  0  0
 24 25  2  0  0  0  0
 24 26  1  0  0  0  0
 26 27  1  0  0  0  0
 26 28  1  0  0  0  0
 28 29  1  0  0  0  0
 28 30  1  0  0  0  0
 28 31  1  0  0  0  0
M  END
$$$$

  -OEChem-03222214053D

 31 30  0     1  0  0  0  0  0999 V2000
   -2.4819   -4.3259    0.2808 H   0  0  0  0  0  0  0  0  0  0  0  0
   -2.5298   -3.2968   -0.0868 C   0  0  0  0  0  0  0  0  0  0  0  0
   -3.2713   -2.7483    0.4989 H   0  0  0  0  0  0  0  0  0  0  0  0
   -2.8402   -3.3130   -1.1343 H   0  0  0  0  0  0  0  0  0  0  0  0
   -1.1713   -2.6338    0.0429 C   0  0  0  0  0  0  0  0  0  0  0  0
   -0.2431   -3.2453    0.5395 O   0  0  0  0  0  0  0  0  0  0  0  0
   -0.9987   -1.3373   -0.3991 N   0  0  0  0  0  0  0  0  0  0  0  0
   -1.7852   -0.9086   -0.8768 H   0  0  0  0  0  0  0  0  0  0  0  0
    0.2989   -0.6334   -0.4379 C   0  0  1  0  0  0  0  0  0  0  0  0
    0.9843   -1.2579   -1.0225 H   0  0  0  0  0  0  0  0  0  0  0  0
    0.1674    0.7228   -1.1805 C   0  0  1  0  0  0  0  0  0  0  0  0
    1.1509    1.2058   -1.1599 H   0  0  0  0  0  0  0  0  0  0  0  0
   -0.1892    0.4634   -2.6566 C   0  0  0  0  0  0  0  0  0  0  0  0
   -1.2233    0.1198   -2.7558 H   0  0  0  0  0  0  0  0  0  0  0  0
   -0.0664    1.3740   -3.2500 H   0  0  0  0  0  0  0  0  0  0  0  0
    0.4718   -0.2984   -3.0822 H   0  0  0  0  0  0  0  0  0  0  0  0
   -0.8491    1.6789   -0.5079 C   0  0  0  0  0  0  0  0  0  0  0  0
   -1.8353    1.2082   -0.4531 H   0  0  0  0  0  0  0  0  0  0  0  0
   -0.5226    1.8885    0.5144 H   0  0  0  0  0  0  0  0  0  0  0  0
   -0.9856    3.0206   -1.2335 C   0  0  0  0  0  0  0  0  0  0  0  0
   -1.4628    2.8942   -2.2097 H   0  0  0  0  0  0  0  0  0  0  0  0
   -1.6027    3.7027   -0.6408 H   0  0  0  0  0  0  0  0  0  0  0  0
   -0.0024    3.4799   -1.3764 H   0  0  0  0  0  0  0  0  0  0  0  0
    0.9946   -0.4841    0.9360 C   0  0  0  0  0  0  0  0  0  0  0  0
    2.2171   -0.4867    0.9946 O   0  0  0  0  0  0  0  0  0  0  0  0
    0.2763   -0.0913    2.0515 N   0  0  0  0  0  0  0  0  0  0  0  0
   -0.7320   -0.1802    1.9872 H   0  0  0  0  0  0  0  0  0  0  0  0
    0.8842    0.0708    3.3661 C   0  0  0  0  0  0  0  0  0  0  0  0
    1.6761    0.8265    3.3325 H   0  0  0  0  0  0  0  0  0  0  0  0
    0.1329    0.3924    4.0936 H   0  0  0  0  0  0  0  0  0  0  0  0
    1.3153   -0.8766    3.7067 H   0  0  0  0  0  0  0  0  0  0  0  0
  1  2  1  0  0  0  0
  2  3  1  0  0  0  0
  2  4  1  0  0  0  0
  2  5  1  0  0  0  0
  5  6  2  0  0  0  0
  5  7  1  0  0  0  0
  7  8  1  0  0  0  0
  7  9  1  0  0  0  0
  9 10  1  0  0  0  0
  9 11  1  0  0  0  0
  9 24  1  0  0  0  0
 11 12  1  0  0  0  0
 11 13  1  0  0  0  0
 11 17  1  0  0  0  0
 13 14  1  0  0  0  0
 13 15  1  0  0  0  0
 13 16  1  0  0  0  0
 17 18  1  0  0  0  0
 17 19  1  0  0  0  0
 17 20  1  0  0  0  0
 20 21  1  0  0  0  0
 20 22  1  0  0  0  0
 20 23  1  0  0  0  0
 24 25  2  0  0  0  0
 24 26  1  0  0  0  0
 26 27  1  0  0  0  0
 26 28  1  0  0  0  0
 28 29  1  0  0  0  0
 28 30  1  0  0  0  0
 28 31  1  0  0  0  0
M  END
$$$$

  -OEChem-03222214053D

 31 30  0     1  0  0  0  0  0999 V2000
   -2.4846   -4.3284    0.2988 H   0  0  0  0  0  0  0  0  0  0  0  0
   -2.5298   -3.3026   -0.0782 C   0  0  0  0  0  0  0  0  0  0  0  0
   -3.2731   -2.7479    0.4995 H   0  0  0  0  0  0  0  0  0  0  0  0
   -2.8356   -3.3278   -1.1270 H   0  0  0  0  0  0  0  0  0  0  0  0
   -1.1716   -2.6394    0.0508 C   0  0  0  0  0  0  0  0  0  0  0  0
   -0.2473   -3.2447    0.5620 O   0  0  0  0  0  0  0  0  0  0  0  0
   -0.9954   -1.3496   -0.4091 N   0  0  0  0  0  0  0  0  0  0  0  0
   -1.7773   -0.9305   -0.9026 H   0  0  0  0  0  0  0  0  0  0  0  0
    0.3045   -0.6492   -0.4566 C   0  0  1  0  0  0  0  0  0  0  0  0
    0.9895   -1.2748   -1.0402 H   0  0  0  0  0  0  0  0  0  0  0  0
    0.1753    0.7137   -1.1882 C   0  0  1  0  0  0  0  0  0  0  0  0
    1.1583    1.1983   -1.1780 H   0  0  0  0  0  0  0  0  0  0  0  0
   -0.1855    0.4502   -2.6635 C   0  0  0  0  0  0  0  0  0  0  0  0
   -1.2173    0.0986   -2.7583 H   0  0  0  0  0  0  0  0  0  0  0  0
   -0.0709    1.3613   -3.2584 H   0  0  0  0  0  0  0  0  0  0  0  0
    0.4795   -0.3068   -3.0909 H   0  0  0  0  0  0  0  0  0  0  0  0
   -0.8321    1.6688   -0.4921 C   0  0  0  0  0  0  0  0  0  0  0  0
   -1.7349    1.1246   -0.2009 H   0  0  0  0  0  0  0  0  0  0  0  0
   -0.3707    2.0547    0.4226 H   0  0  0  0  0  0  0  0  0  0  0  0
   -1.2649    2.8619   -1.3504 C   0  0  0  0  0  0  0  0  0  0  0  0
   -1.8718    2.5364   -2.2006 H   0  0  0  0  0  0  0  0  0  0  0  0
   -1.8657    3.5528   -0.7509 H   0  0  0  0  0  0  0  0  0  0  0  0
   -0.3890    3.4017   -1.7243 H   0  0  0  0  0  0  0  0  0  0  0  0
    0.9941   -0.4859    0.9183 C   0  0  0  0  0  0  0  0  0  0  0  0
    2.2163   -0.4926    0.9840 O   0  0  0  0  0  0  0  0  0  0  0  0
    0.2688   -0.0772    2.0237 N   0  0  0  0  0  0  0  0  0  0  0  0
   -0.7390   -0.1666    1.9535 H   0  0  0  0  0  0  0  0  0  0  0  0
    0.8678    0.1003    3.3402 C   0  0  0  0  0  0  0  0  0  0  0  0
    1.6611    0.8545    3.3026 H   0  0  0  0  0  0  0  0  0  0  0  0
    0.1118    0.4321    4.0582 H   0  0  0  0  0  0  0  0  0  0  0  0
    1.2950   -0.8434    3.6957 H   0  0  0  0  0  0  0  0  0  0  0  0
  1  2  1  0  0  0  0
  2  3  1  0  0  0  0
  2  4  1  0  0  0  0
  2  5  1  0  0  0  0
  5  6  2  0  0  0  0
  5  7  1  0  0  0  0
  7  8  1  0  0  0  0
  7  9  1  0  0  0  0
  9 10  1  0  0  0  0
  9 11  1  0  0  0  0
  9 24  1  0  0  0  0
 11 12  1  0  0  0  0
 11 13  1  0  0  0  0
 11 17  1  0  0  0  0
 13 14  1  0  0  0  0
 13 15  1  0  0  0  0
 13 16  1  0  0  0  0
 17 18  1  0  0  0  0
 17 19  1  0  0  0  0
 17 20  1  0  0  0  0
 20 21  1  0  0  0  0
 20 22  1  0  0  0  0
 20 23  1  0  0  0  0
 24 25  2  0  0  0  0
 24 26  1  0  0  0  0
 26 27  1  0  0  0  0
 26 28  1  0  0  0  0
 28 29  1  0  0  0  0
 28 30  1  0  0  0  0
 28 31  1  0  0  0  0
M  END
$$$$

  -OEChem-03222214053D

 31 30  0     1  0  0  0  0  0999 V2000
   -2.4966   -4.3276    0.3173 H   0  0  0  0  0  0  0  0  0  0  0  0
   -2.5382   -3.3061   -0.0716 C   0  0  0  0  0  0  0  0  0  0  0  0
   -3.2801   -2.7426    0.4990 H   0  0  0  0  0  0  0  0  0  0  0  0
   -2.8437   -3.3424   -1.1200 H   0  0  0  0  0  0  0  0  0  0  0  0
   -1.1777   -2.6460    0.0505 C   0  0  0  0  0  0  0  0  0  0  0  0
   -0.2536   -3.2525    0.5604 O   0  0  0  0  0  0  0  0  0  0  0  0
   -0.9973   -1.3598   -0.4179 N   0  0  0  0  0  0  0  0  0  0  0  0
   -1.7801   -0.9361   -0.9062 H   0  0  0  0  0  0  0  0  0  0  0  0
    0.3046   -0.6628   -0.4671 C   0  0  1  0  0  0  0  0  0  0  0  0
    0.9897   -1.2896   -1.0493 H   0  0  0  0  0  0  0  0  0  0  0  0
    0.1781    0.7033   -1.1927 C   0  0  1  0  0  0  0  0  0  0  0  0
    1.1609    1.1887   -1.1794 H   0  0  0  0  0  0  0  0  0  0  0  0
   -0.1645    0.4343   -2.6726 C   0  0  0  0  0  0  0  0  0  0  0  0
   -1.1788    0.0377   -2.7769 H   0  0  0  0  0  0  0  0  0  0  0  0
   -0.0848    1.3523   -3.2623 H   0  0  0  0  0  0  0  0  0  0  0  0
    0.5346   -0.2915   -3.1000 H   0  0  0  0  0  0  0  0  0  0  0  0
   -0.8266    1.6606   -0.4865 C   0  0  0  0  0  0  0  0  0  0  0  0
   -1.5974    1.0856    0.0337 H   0  0  0  0  0  0  0  0  0  0  0  0
   -0.2801    2.2262    0.2757 H   0  0  0  0  0  0  0  0  0  0  0  0
   -1.5500    2.6523   -1.4042 C   0  0  0  0  0  0  0  0  0  0  0  0
   -2.2079    2.1329   -2.1073 H   0  0  0  0  0  0  0  0  0  0  0  0
   -2.1640    3.3313   -0.8049 H   0  0  0  0  0  0  0  0  0  0  0  0
   -0.8267    3.2508   -1.9666 H   0  0  0  0  0  0  0  0  0  0  0  0
    0.9929   -0.4904    0.9072 C   0  0  0  0  0  0  0  0  0  0  0  0
    2.2149   -0.5013    0.9752 O   0  0  0  0  0  0  0  0  0  0  0  0
    0.2675   -0.0710    2.0083 N   0  0  0  0  0  0  0  0  0  0  0  0
   -0.7409   -0.1499    1.9360 H   0  0  0  0  0  0  0  0  0  0  0  0
    0.8659    0.1221    3.3229 C   0  0  0  0  0  0  0  0  0  0  0  0
    1.6588    0.8760    3.2769 H   0  0  0  0  0  0  0  0  0  0  0  0
    0.1096    0.4619    4.0366 H   0  0  0  0  0  0  0  0  0  0  0  0
    1.2937   -0.8172    3.6890 H   0  0  0  0  0  0  0  0  0  0  0  0
  1  2  1  0  0  0  0
  2  3  1  0  0  0  0
  2  4  1  0  0  0  0
  2  5  1  0  0  0  0
  5  6  2  0  0  0  0
  5  7  1  0  0  0  0
  7  8  1  0  0  0  0
  7  9  1  0  0  0  0
  9 10  1  0  0  0  0
  9 11  1  0  0  0  0
  9 24  1  0  0  0  0
 11 12  1  0  0  0  0
 11 13  1  0  0  0  0
 11 17  1  0  0  0  0
 13 14  1  0  0  0  0
 13 15  1  0  0  0  0
 13 16  1  0  0  0  0
 17 18  1  0  0  0  0
 17 19  1  0  0  0  0
 17 20  1  0  0  0  0
 20 21  1  0  0  0  0
 20 22  1  0  0  0  0
 20 23  1  0  0  0  0
 24 25  2  0  0  0  0
 24 26  1  0  0  0  0
 26 27  1  0  0  0  0
 26 28  1  0  0  0  0
 28 29  1  0  0  0  0
 28 30  1  0  0  0  0
 28 31  1  0  0  0  0
M  END
$$$$

  -OEChem-03222214053D

 31 30  0     1  0  0  0  0  0999 V2000
   -2.5117   -4.3216    0.3180 H   0  0  0  0  0  0  0  0  0  0  0  0
   -2.5509   -3.2987   -0.0678 C   0  0  0  0  0  0  0  0  0  0  0  0
   -3.2877   -2.7337    0.5082 H   0  0  0  0  0  0  0  0  0  0  0  0
   -2.8616   -3.3311   -1.1148 H   0  0  0  0  0  0  0  0  0  0  0  0
   -1.1872   -2.6445    0.0500 C   0  0  0  0  0  0  0  0  0  0  0  0
   -0.2646   -3.2536    0.5595 O   0  0  0  0  0  0  0  0  0  0  0  0
   -1.0035   -1.3574   -0.4142 N   0  0  0  0  0  0  0  0  0  0  0  0
   -1.7868   -0.9269   -0.8958 H   0  0  0  0  0  0  0  0  0  0  0  0
    0.2997   -0.6637   -0.4604 C   0  0  1  0  0  0  0  0  0  0  0  0
    0.9826   -1.2928   -1.0426 H   0  0  0  0  0  0  0  0  0  0  0  0
    0.1694    0.6970   -1.1944 C   0  0  1  0  0  0  0  0  0  0  0  0
    1.1500    1.1859   -1.1642 H   0  0  0  0  0  0  0  0  0  0  0  0
   -0.1320    0.4264   -2.6827 C   0  0  0  0  0  0  0  0  0  0  0  0
   -1.1199   -0.0247   -2.8132 H   0  0  0  0  0  0  0  0  0  0  0  0
   -0.0884    1.3538   -3.2612 H   0  0  0  0  0  0  0  0  0  0  0  0
    0.6134   -0.2571   -3.1015 H   0  0  0  0  0  0  0  0  0  0  0  0
   -0.8419    1.6582   -0.4973 C   0  0  0  0  0  0  0  0  0  0  0  0
   -1.4394    1.1106    0.2361 H   0  0  0  0  0  0  0  0  0  0  0  0
   -0.2679    2.4063    0.0599 H   0  0  0  0  0  0  0  0  0  0  0  0
   -1.8271    2.3910   -1.4155 C   0  0  0  0  0  0  0  0  0  0  0  0
   -2.4761    1.6846   -1.9413 H   0  0  0  0  0  0  0  0  0  0  0  0
   -2.4613    3.0552   -0.8204 H   0  0  0  0  0  0  0  0  0  0  0  0
   -1.2916    3.0013   -2.1490 H   0  0  0  0  0  0  0  0  0  0  0  0
    0.9952   -0.4928    0.9109 C   0  0  0  0  0  0  0  0  0  0  0  0
    2.2177   -0.5054    0.9711 O   0  0  0  0  0  0  0  0  0  0  0  0
    0.2792   -0.0730    2.0179 N   0  0  0  0  0  0  0  0  0  0  0  0
   -0.7294   -0.1578    1.9552 H   0  0  0  0  0  0  0  0  0  0  0  0
    0.8877    0.1164    3.3284 C   0  0  0  0  0  0  0  0  0  0  0  0
    1.6824    0.8681    3.2774 H   0  0  0  0  0  0  0  0  0  0  0  0
    0.1374    0.4576    4.0480 H   0  0  0  0  0  0  0  0  0  0  0  0
    1.3153   -0.8245    3.6905 H   0  0  0  0  0  0  0  0  0  0  0  0
  1  2  1  0  0  0  0
  2  3  1  0  0  0  0
  2  4  1  0  0  0  0
  2  5  1  0  0  0  0
  5  6  2  0  0  0  0
  5  7  1  0  0  0  0
  7  8  1  0  0  0  0
  7  9  1  0  0  0  0
  9 10  1  0  0  0  0
  9 11  1  0  0  0  0
  9 24  1  0  0  0  0
 11 12  1  0  0  0  0
 11 13  1  0  0  0  0
 11 17  1  0  0  0  0
 13 14  1  0  0  0  0
 13 15  1  0  0  0  0
 13 16  1  0  0  0  0
 17 18  1  0  0  0  0
 17 19  1  0  0  0  0
 17 20  1  0  0  0  0
 20 21  1  0  0  0  0
 20 22  1  0  0  0  0
 20 23  1  0  0  0  0
 24 25  2  0  0  0  0
 24 26  1  0  0  0  0
 26 27  1  0  0  0  0
 26 28  1  0  0  0  0
 28 29  1  0  0  0  0
 28 30  1  0  0  0  0
 28 31  1  0  0  0  0
M  END
$$$$

  -OEChem-03222214053D

 31 30  0     1  0  0  0  0  0999 V2000
   -2.5261   -4.3193    0.3033 H   0  0  0  0  0  0  0  0  0  0  0  0
   -2.5647   -3.2927   -0.0723 C   0  0  0  0  0  0  0  0  0  0  0  0
   -3.3018   -2.7329    0.5081 H   0  0  0  0  0  0  0  0  0  0  0  0
   -2.8737   -3.3141   -1.1202 H   0  0  0  0  0  0  0  0  0  0  0  0
   -1.2010   -2.6400    0.0528 C   0  0  0  0  0  0  0  0  0  0  0  0
   -0.2772   -3.2557    0.5526 O   0  0  0  0  0  0  0  0  0  0  0  0
   -1.0175   -1.3477   -0.3963 N   0  0  0  0  0  0  0  0  0  0  0  0
   -1.8043   -0.9064   -0.8627 H   0  0  0  0  0  0  0  0  0  0  0  0
    0.2853   -0.6550   -0.4387 C   0  0  1  0  0  0  0  0  0  0  0  0
    0.9636   -1.2873   -1.0229 H   0  0  0  0  0  0  0  0  0  0  0  0
    0.1511    0.6950   -1.1891 C   0  0  1  0  0  0  0  0  0  0  0  0
    1.1298    1.1855   -1.1321 H   0  0  0  0  0  0  0  0  0  0  0  0
   -0.1034    0.4276   -2.6859 C   0  0  0  0  0  0  0  0  0  0  0  0
   -1.0654   -0.0673   -2.8472 H   0  0  0  0  0  0  0  0  0  0  0  0
   -0.0879    1.3641   -3.2514 H   0  0  0  0  0  0  0  0  0  0  0  0
    0.6825   -0.2171   -3.0923 H   0  0  0  0  0  0  0  0  0  0  0  0
   -0.8692    1.6634   -0.5162 C   0  0  0  0  0  0  0  0  0  0  0  0
   -1.2714    1.2158    0.3957 H   0  0  0  0  0  0  0  0  0  0  0  0
   -0.3286    2.5657   -0.2112 H   0  0  0  0  0  0  0  0  0  0  0  0
   -2.0626    2.0969   -1.3763 C   0  0  0  0  0  0  0  0  0  0  0  0
   -2.6503    1.2302   -1.6926 H   0  0  0  0  0  0  0  0  0  0  0  0
   -2.7145    2.7571   -0.7961 H   0  0  0  0  0  0  0  0  0  0  0  0
   -1.7288    2.6468   -2.2613 H   0  0  0  0  0  0  0  0  0  0  0  0
    0.9969   -0.4947    0.9264 C   0  0  0  0  0  0  0  0  0  0  0  0
    2.2202   -0.5023    0.9677 O   0  0  0  0  0  0  0  0  0  0  0  0
    0.2992   -0.0848    2.0487 N   0  0  0  0  0  0  0  0  0  0  0  0
   -0.7097   -0.1779    2.0054 H   0  0  0  0  0  0  0  0  0  0  0  0
    0.9317    0.0971    3.3490 C   0  0  0  0  0  0  0  0  0  0  0  0
    1.7205    0.8544    3.2894 H   0  0  0  0  0  0  0  0  0  0  0  0
    0.1937    0.4271    4.0862 H   0  0  0  0  0  0  0  0  0  0  0  0
    1.3723   -0.8442    3.6943 H   0  0  0  0  0  0  0  0  0  0  0  0
  1  2  1  0  0  0  0
  2  3  1  0  0  0  0
  2  4  1  0  0  0  0
  2  5  1  0  0  0  0
  5  6  2  0  0  0  0
  5  7  1  0  0  0  0
  7  8  1  0  0  0  0
  7  9  1  0  0  0  0
  9 10  1  0  0  0  0
  9 11  1  0  0  0  0
  9 24  1  0  0  0  0
 11 12  1  0  0  0  0
 11 13  1  0  0  0  0
 11 17  1  0  0  0  0
 13 14  1  0  0  0  0
 13 15  1  0  0  0  0
 13 16  1  0  0  0  0
 17 18  1  0  0  0  0
 17 19  1  0  0  0  0
 17 20  1  0  0  0  0
 20 21  1  0  0  0  0
 20 22  1  0  0  0  0
 20 23  1  0  0  0  0
 24 25  2  0  0  0  0
 24 26  1  0  0  0  0
 26 27  1  0  0  0  0
 26 28  1  0  0  0  0
 28 29  1  0  0  0  0
 28 30  1  0  0  0  0
 28 31  1  0  0  0  0
M  END
$$$$

  -OEChem-03222214053D

 31 30  0     1  0  0  0  0  0999 V2000
   -2.5203   -4.3201    0.3138 H   0  0  0  0  0  0  0  0  0  0  0  0
   -2.5626   -3.2910   -0.0547 C   0  0  0  0  0  0  0  0  0  0  0  0
   -3.2918   -2.7343    0.5389 H   0  0  0  0  0  0  0  0  0  0  0  0
   -2.8852   -3.3056   -1.0986 H   0  0  0  0  0  0  0  0  0  0  0  0
   -1.1965   -2.6407    0.0569 C   0  0  0  0  0  0  0  0  0  0  0  0
   -0.2664   -3.2612    0.5386 O   0  0  0  0  0  0  0  0  0  0  0  0
   -1.0190   -1.3440   -0.3815 N   0  0  0  0  0  0  0  0  0  0  0  0
   -1.8119   -0.8974   -0.8315 H   0  0  0  0  0  0  0  0  0  0  0  0
    0.2801   -0.6463   -0.4252 C   0  0  1  0  0  0  0  0  0  0  0  0
    0.9570   -1.2777   -1.0124 H   0  0  0  0  0  0  0  0  0  0  0  0
    0.1408    0.6967   -1.1870 C   0  0  1  0  0  0  0  0  0  0  0  0
    1.1181    1.1880   -1.1164 H   0  0  0  0  0  0  0  0  0  0  0  0
   -0.0975    0.4357   -2.6860 C   0  0  0  0  0  0  0  0  0  0  0  0
   -1.0382   -0.0958   -2.8567 H   0  0  0  0  0  0  0  0  0  0  0  0
   -0.1209    1.3803   -3.2378 H   0  0  0  0  0  0  0  0  0  0  0  0
    0.7157   -0.1714   -3.0962 H   0  0  0  0  0  0  0  0  0  0  0  0
   -0.8822    1.6746   -0.5388 C   0  0  0  0  0  0  0  0  0  0  0  0
   -1.0800    1.3893    0.4964 H   0  0  0  0  0  0  0  0  0  0  0  0
   -0.4249    2.6692   -0.5090 H   0  0  0  0  0  0  0  0  0  0  0  0
   -2.2287    1.8080   -1.2618 C   0  0  0  0  0  0  0  0  0  0  0  0
   -2.7213    0.8356   -1.3485 H   0  0  0  0  0  0  0  0  0  0  0  0
   -2.8862    2.4759   -0.6967 H   0  0  0  0  0  0  0  0  0  0  0  0
   -2.0982    2.2317   -2.2620 H   0  0  0  0  0  0  0  0  0  0  0  0
    0.9994   -0.4949    0.9371 C   0  0  0  0  0  0  0  0  0  0  0  0
    2.2229   -0.5027    0.9713 O   0  0  0  0  0  0  0  0  0  0  0  0
    0.3090   -0.0979    2.0683 N   0  0  0  0  0  0  0  0  0  0  0  0
   -0.7007   -0.1847    2.0284 H   0  0  0  0  0  0  0  0  0  0  0  0
    0.9485    0.0653    3.3676 C   0  0  0  0  0  0  0  0  0  0  0  0
    1.7388    0.8216    3.3142 H   0  0  0  0  0  0  0  0  0  0  0  0
    0.2150    0.3871    4.1128 H   0  0  0  0  0  0  0  0  0  0  0  0
    1.3883   -0.8817    3.6982 H   0  0  0  0  0  0  0  0  0  0  0  0
  1  2  1  0  0  0  0
  2  3  1  0  0  0  0
  2  4  1  0  0  0  0
  2  5  1  0  0  0  0
  5  6  2  0  0  0  0
  5  7  1  0  0  0  0
  7  8  1  0  0  0  0
  7  9  1  0  0  0  0
  9 10  1  0  0  0  0
  9 11  1  0  0  0  0
  9 24  1  0  0  0  0
 11 12  1  0  0  0  0
 11 13  1  0  0  0  0
 11 17  1  0  0  0  0
 13 14  1  0  0  0  0
 13 15  1  0  0  0  0
 13 16  1  0  0  0  0
 17 18  1  0  0  0  0
 17 19  1  0  0  0  0
 17 20  1  0  0  0  0
 20 21  1  0  0  0  0
 20 22  1  0  0  0  0
 20 23  1  0  0  0  0
 24 25  2  0  0  0  0
 24 26  1  0  0  0  0
 26 27  1  0  0  0  0
 26 28  1  0  0  0  0
 28 29  1  0  0  0  0
 28 30  1  0  0  0  0
 28 31  1  0  0  0  0
M  END
$$$$

  -OEChem-03222214053D

 31 30  0     1  0  0  0  0  0999 V2000
   -2.4761   -4.3574    0.3392 H   0  0  0  0  0  0  0  0  0  0  0  0
   -2.5314   -3.3311   -0.0351 C   0  0  0  0  0  0  0  0  0  0  0  0
   -3.2658   -2.7802    0.5571 H   0  0  0  0  0  0  0  0  0  0  0  0
   -2.8563   -3.3552   -1.0781 H   0  0  0  0  0  0  0  0  0  0  0  0
   -1.1729   -2.6642    0.0704 C   0  0  0  0  0  0  0  0  0  0  0  0
   -0.2347   -3.2736    0.5507 O   0  0  0  0  0  0  0  0  0  0  0  0
   -1.0120   -1.3663   -0.3718 N   0  0  0  0  0  0  0  0  0  0  0  0
   -1.8074   -0.9376   -0.8339 H   0  0  0  0  0  0  0  0  0  0  0  0
    0.2789   -0.6557   -0.4273 C   0  0  1  0  0  0  0  0  0  0  0  0
    0.9579   -1.2824   -1.0169 H   0  0  0  0  0  0  0  0  0  0  0  0
    0.1431    0.6931   -1.1842 C   0  0  1  0  0  0  0  0  0  0  0  0
    1.1259    1.1744   -1.1215 H   0  0  0  0  0  0  0  0  0  0  0  0
   -0.1213    0.4426   -2.6790 C   0  0  0  0  0  0  0  0  0  0  0  0
   -1.0519   -0.1111   -2.8338 H   0  0  0  0  0  0  0  0  0  0  0  0
   -0.1850    1.3934   -3.2176 H   0  0  0  0  0  0  0  0  0  0  0  0
    0.6976   -0.1388   -3.1142 H   0  0  0  0  0  0  0  0  0  0  0  0
   -0.8648    1.6960   -0.5566 C   0  0  0  0  0  0  0  0  0  0  0  0
   -0.8584    1.6058    0.5314 H   0  0  0  0  0  0  0  0  0  0  0  0
   -0.5120    2.7065   -0.7881 H   0  0  0  0  0  0  0  0  0  0  0  0
   -2.3155    1.5986   -1.0511 C   0  0  0  0  0  0  0  0  0  0  0  0
   -2.7342    0.6081   -0.8599 H   0  0  0  0  0  0  0  0  0  0  0  0
   -2.9315    2.3342   -0.5247 H   0  0  0  0  0  0  0  0  0  0  0  0
   -2.3819    1.8112   -2.1223 H   0  0  0  0  0  0  0  0  0  0  0  0
    0.9944   -0.5028    0.9366 C   0  0  0  0  0  0  0  0  0  0  0  0
    2.2178   -0.5015    0.9751 O   0  0  0  0  0  0  0  0  0  0  0  0
    0.2952   -0.1155    2.0659 N   0  0  0  0  0  0  0  0  0  0  0  0
   -0.7137   -0.2079    2.0192 H   0  0  0  0  0  0  0  0  0  0  0  0
    0.9260    0.0480    3.3694 C   0  0  0  0  0  0  0  0  0  0  0  0
    1.7163    0.8045    3.3212 H   0  0  0  0  0  0  0  0  0  0  0  0
    0.1872    0.3693    4.1097 H   0  0  0  0  0  0  0  0  0  0  0  0
    1.3641   -0.8987    3.7030 H   0  0  0  0  0  0  0  0  0  0  0  0
  1  2  1  0  0  0  0
  2  3  1  0  0  0  0
  2  4  1  0  0  0  0
  2  5  1  0  0  0  0
  5  6  2  0  0  0  0
  5  7  1  0  0  0  0
  7  8  1  0  0  0  0
  7  9  1  0  0  0  0
  9 10  1  0  0  0  0
  9 11  1  0  0  0  0
  9 24  1  0  0  0  0
 11 12  1  0  0  0  0
 11 13  1  0  0  0  0
 11 17  1  0  0  0  0
 13 14  1  0  0  0  0
 13 15  1  0  0  0  0
 13 16  1  0  0  0  0
 17 18  1  0  0  0  0
 17 19  1  0  0  0  0
 17 20  1  0  0  0  0
 20 21  1  0  0  0  0
 20 22  1  0  0  0  0
 20 23  1  0  0  0  0
 24 25  2  0  0  0  0
 24 26  1  0  0  0  0
 26 27  1  0  0  0  0
 26 28  1  0  0  0  0
 28 29  1  0  0  0  0
 28 30  1  0  0  0  0
 28 31  1  0  0  0  0
M  END
$$$$

  -OEChem-03222214053D

 31 30  0     1  0  0  0  0  0999 V2000
   -2.4326   -4.3945    0.3479 H   0  0  0  0  0  0  0  0  0  0  0  0
   -2.4958   -3.3697   -0.0295 C   0  0  0  0  0  0  0  0  0  0  0  0
   -3.2318   -2.8213    0.5631 H   0  0  0  0  0  0  0  0  0  0  0  0
   -2.8239   -3.3991   -1.0713 H   0  0  0  0  0  0  0  0  0  0  0  0
   -1.1417   -2.6933    0.0695 C   0  0  0  0  0  0  0  0  0  0  0  0
   -0.1973   -3.2935    0.5491 O   0  0  0  0  0  0  0  0  0  0  0  0
   -0.9924   -1.3970   -0.3810 N   0  0  0  0  0  0  0  0  0  0  0  0
   -1.7934   -0.9771   -0.8420 H   0  0  0  0  0  0  0  0  0  0  0  0
    0.2913   -0.6743   -0.4426 C   0  0  1  0  0  0  0  0  0  0  0  0
    0.9767   -1.2913   -1.0350 H   0  0  0  0  0  0  0  0  0  0  0  0
    0.1529    0.6867   -1.1786 C   0  0  1  0  0  0  0  0  0  0  0  0
    1.1396    1.1617   -1.1319 H   0  0  0  0  0  0  0  0  0  0  0  0
   -0.1482    0.4495   -2.6681 C   0  0  0  0  0  0  0  0  0  0  0  0
   -1.0738   -0.1167   -2.8058 H   0  0  0  0  0  0  0  0  0  0  0  0
   -0.2421    1.4049   -3.1938 H   0  0  0  0  0  0  0  0  0  0  0  0
    0.6677   -0.1145   -3.1311 H   0  0  0  0  0  0  0  0  0  0  0  0
   -0.8402    1.7050   -0.5538 C   0  0  0  0  0  0  0  0  0  0  0  0
   -0.6394    1.8054    0.5159 H   0  0  0  0  0  0  0  0  0  0  0  0
   -0.6281    2.6813   -1.0021 H   0  0  0  0  0  0  0  0  0  0  0  0
   -2.3388    1.4338   -0.7523 C   0  0  0  0  0  0  0  0  0  0  0  0
   -2.6571    0.5402   -0.2121 H   0  0  0  0  0  0  0  0  0  0  0  0
   -2.9141    2.2790   -0.3622 H   0  0  0  0  0  0  0  0  0  0  0  0
   -2.5870    1.3205   -1.8112 H   0  0  0  0  0  0  0  0  0  0  0  0
    0.9951   -0.5130    0.9252 C   0  0  0  0  0  0  0  0  0  0  0  0
    2.2179   -0.5034    0.9772 O   0  0  0  0  0  0  0  0  0  0  0  0
    0.2778   -0.1286    2.0440 N   0  0  0  0  0  0  0  0  0  0  0  0
   -0.7302   -0.2220    1.9813 H   0  0  0  0  0  0  0  0  0  0  0  0
    0.8889    0.0382    3.3564 C   0  0  0  0  0  0  0  0  0  0  0  0
    1.6796    0.7948    3.3185 H   0  0  0  0  0  0  0  0  0  0  0  0
    0.1389    0.3612    4.0844 H   0  0  0  0  0  0  0  0  0  0  0  0
    1.3220   -0.9076    3.6988 H   0  0  0  0  0  0  0  0  0  0  0  0
  1  2  1  0  0  0  0
  2  3  1  0  0  0  0
  2  4  1  0  0  0  0
  2  5  1  0  0  0  0
  5  6  2  0  0  0  0
  5  7  1  0  0  0  0
  7  8  1  0  0  0  0
  7  9  1  0  0  0  0
  9 10  1  0  0  0  0
  9 11  1  0  0  0  0
  9 24  1  0  0  0  0
 11 12  1  0  0  0  0
 11 13  1  0  0  0  0
 11 17  1  0  0  0  0
 13 14  1  0  0  0  0
 13 15  1  0  0  0  0
 13 16  1  0  0  0  0
 17 18  1  0  0  0  0
 17 19  1  0  0  0  0
 17 20  1  0  0  0  0
 20 21  1  0  0  0  0
 20 22  1  0  0  0  0
 20 23  1  0  0  0  0
 24 25  2  0  0  0  0
 24 26  1  0  0  0  0
 26 27  1  0  0  0  0
 26 28  1  0  0  0  0
 28 29  1  0  0  0  0
 28 30  1  0  0  0  0
 28 31  1  0  0  0  0
M  END
$$$$

  -OEChem-03222214053D

 31 30  0     1  0  0  0  0  0999 V2000
   -2.3999   -4.4192    0.3551 H   0  0  0  0  0  0  0  0  0  0  0  0
   -2.4704   -3.3942   -0.0203 C   0  0  0  0  0  0  0  0  0  0  0  0
   -3.1970   -2.8471    0.5850 H   0  0  0  0  0  0  0  0  0  0  0  0
   -2.8159   -3.4234   -1.0563 H   0  0  0  0  0  0  0  0  0  0  0  0
   -1.1150   -2.7171    0.0562 C   0  0  0  0  0  0  0  0  0  0  0  0
   -0.1631   -3.3165    0.5219 O   0  0  0  0  0  0  0  0  0  0  0  0
   -0.9723   -1.4215   -0.3987 N   0  0  0  0  0  0  0  0  0  0  0  0
   -1.7835   -0.9944   -0.8350 H   0  0  0  0  0  0  0  0  0  0  0  0
    0.3060   -0.6882   -0.4589 C   0  0  1  0  0  0  0  0  0  0  0  0
    0.9982   -1.2967   -1.0520 H   0  0  0  0  0  0  0  0  0  0  0  0
    0.1679    0.6850   -1.1733 C   0  0  1  0  0  0  0  0  0  0  0  0
    1.1581    1.1545   -1.1465 H   0  0  0  0  0  0  0  0  0  0  0  0
   -0.1728    0.4589   -2.6566 C   0  0  0  0  0  0  0  0  0  0  0  0
   -1.1303   -0.0552   -2.7749 H   0  0  0  0  0  0  0  0  0  0  0  0
   -0.2251    1.4155   -3.1857 H   0  0  0  0  0  0  0  0  0  0  0  0
    0.6025   -0.1495   -3.1332 H   0  0  0  0  0  0  0  0  0  0  0  0
   -0.8165    1.7099   -0.5445 C   0  0  0  0  0  0  0  0  0  0  0  0
   -0.4567    1.9790    0.4535 H   0  0  0  0  0  0  0  0  0  0  0  0
   -0.7731    2.6231   -1.1471 H   0  0  0  0  0  0  0  0  0  0  0  0
   -2.2909    1.3007   -0.4290 C   0  0  0  0  0  0  0  0  0  0  0  0
   -2.4293    0.5406    0.3438 H   0  0  0  0  0  0  0  0  0  0  0  0
   -2.8890    2.1722   -0.1453 H   0  0  0  0  0  0  0  0  0  0  0  0
   -2.6746    0.9232   -1.3805 H   0  0  0  0  0  0  0  0  0  0  0  0
    0.9972   -0.5194    0.9136 C   0  0  0  0  0  0  0  0  0  0  0  0
    2.2194   -0.5022    0.9780 O   0  0  0  0  0  0  0  0  0  0  0  0
    0.2641   -0.1380    2.0232 N   0  0  0  0  0  0  0  0  0  0  0  0
   -0.7421   -0.2400    1.9493 H   0  0  0  0  0  0  0  0  0  0  0  0
    0.8589    0.0304    3.3426 C   0  0  0  0  0  0  0  0  0  0  0  0
    1.6488    0.7883    3.3139 H   0  0  0  0  0  0  0  0  0  0  0  0
    0.0999    0.3520    4.0618 H   0  0  0  0  0  0  0  0  0  0  0  0
    1.2895   -0.9148    3.6897 H   0  0  0  0  0  0  0  0  0  0  0  0
  1  2  1  0  0  0  0
  2  3  1  0  0  0  0
  2  4  1  0  0  0  0
  2  5  1  0  0  0  0
  5  6  2  0  0  0  0
  5  7  1  0  0  0  0
  7  8  1  0  0  0  0
  7  9  1  0  0  0  0
  9 10  1  0  0  0  0
  9 11  1  0  0  0  0
  9 24  1  0  0  0  0
 11 12  1  0  0  0  0
 11 13  1  0  0  0  0
 11 17  1  0  0  0  0
 13 14  1  0  0  0  0
 13 15  1  0  0  0  0
 13 16  1  0  0  0  0
 17 18  1  0  0  0  0
 17 19  1  0  0  0  0
 17 20  1  0  0  0  0
 20 21  1  0  0  0  0
 20 22  1  0  0  0  0
 20 23  1  0  0  0  0
 24 25  2  0  0  0  0
 24 26  1  0  0  0  0
 26 27  1  0  0  0  0
 26 28  1  0  0  0  0
 28 29  1  0  0  0  0
 28 30  1  0  0  0  0
 28 31  1  0  0  0  0
M  END
$$$$

  -OEChem-03222214053D

 31 30  0     1  0  0  0  0  0999 V2000
   -2.3767   -4.4527    0.3399 H   0  0  0  0  0  0  0  0  0  0  0  0
   -2.4521   -3.4293   -0.0387 C   0  0  0  0  0  0  0  0  0  0  0  0
   -3.1878   -2.8866    0.5596 H   0  0  0  0  0  0  0  0  0  0  0  0
   -2.7892   -3.4637   -1.0774 H   0  0  0  0  0  0  0  0  0  0  0  0
   -1.1028   -2.7413    0.0466 C   0  0  0  0  0  0  0  0  0  0  0  0
   -0.1476   -3.3351    0.5125 O   0  0  0  0  0  0  0  0  0  0  0  0
   -0.9689   -1.4425   -0.4014 N   0  0  0  0  0  0  0  0  0  0  0  0
   -1.7826   -1.0192   -0.8363 H   0  0  0  0  0  0  0  0  0  0  0  0
    0.3055   -0.7002   -0.4541 C   0  0  1  0  0  0  0  0  0  0  0  0
    1.0006   -1.3047   -1.0479 H   0  0  0  0  0  0  0  0  0  0  0  0
    0.1771    0.6815   -1.1578 C   0  0  1  0  0  0  0  0  0  0  0  0
    1.1727    1.1405   -1.1492 H   0  0  0  0  0  0  0  0  0  0  0  0
   -0.1973    0.4526   -2.6326 C   0  0  0  0  0  0  0  0  0  0  0  0
   -1.1976    0.0202   -2.7252 H   0  0  0  0  0  0  0  0  0  0  0  0
   -0.1785    1.3988   -3.1826 H   0  0  0  0  0  0  0  0  0  0  0  0
    0.5184   -0.2266   -3.1069 H   0  0  0  0  0  0  0  0  0  0  0  0
   -0.8021    1.7243   -0.5465 C   0  0  0  0  0  0  0  0  0  0  0  0
   -0.3224    2.1538    0.3392 H   0  0  0  0  0  0  0  0  0  0  0  0
   -0.9279    2.5440   -1.2619 H   0  0  0  0  0  0  0  0  0  0  0  0
   -2.1943    1.2418   -0.1230 C   0  0  0  0  0  0  0  0  0  0  0  0
   -2.1367    0.5696    0.7365 H   0  0  0  0  0  0  0  0  0  0  0  0
   -2.8056    2.1014    0.1684 H   0  0  0  0  0  0  0  0  0  0  0  0
   -2.6976    0.7321   -0.9494 H   0  0  0  0  0  0  0  0  0  0  0  0
    0.9991   -0.5294    0.9174 C   0  0  0  0  0  0  0  0  0  0  0  0
    2.2215   -0.5050    0.9775 O   0  0  0  0  0  0  0  0  0  0  0  0
    0.2705   -0.1556    2.0323 N   0  0  0  0  0  0  0  0  0  0  0  0
   -0.7362   -0.2535    1.9633 H   0  0  0  0  0  0  0  0  0  0  0  0
    0.8721    0.0351    3.3456 C   0  0  0  0  0  0  0  0  0  0  0  0
    1.6395    0.8153    3.3066 H   0  0  0  0  0  0  0  0  0  0  0  0
    0.1105    0.3380    4.0702 H   0  0  0  0  0  0  0  0  0  0  0  0
    1.3330   -0.8955    3.6934 H   0  0  0  0  0  0  0  0  0  0  0  0
  1  2  1  0  0  0  0
  2  3  1  0  0  0  0
  2  4  1  0  0  0  0
  2  5  1  0  0  0  0
  5  6  2  0  0  0  0
  5  7  1  0  0  0  0
  7  8  1  0  0  0  0
  7  9  1  0  0  0  0
  9 10  1  0  0  0  0
  9 11  1  0  0  0  0
  9 24  1  0  0  0  0
 11 12  1  0  0  0  0
 11 13  1  0  0  0  0
 11 17  1  0  0  0  0
 13 14  1  0  0  0  0
 13 15  1  0  0  0  0
 13 16  1  0  0  0  0
 17 18  1  0  0  0  0
 17 19  1  0  0  0  0
 17 20  1  0  0  0  0
 20 21  1  0  0  0  0
 20 22  1  0  0  0  0
 20 23  1  0  0  0  0
 24 25  2  0  0  0  0
 24 26  1  0  0  0  0
 26 27  1  0  0  0  0
 26 28  1  0  0  0  0
 28 29  1  0  0  0  0
 28 30  1  0  0  0  0
 28 31  1  0  0  0  0
M  END
$$$$

  -OEChem-03222214053D

 31 30  0     1  0  0  0  0  0999 V2000
   -2.2314   -4.5331    0.3394 H   0  0  0  0  0  0  0  0  0  0  0  0
   -2.3469   -3.5091   -0.0272 C   0  0  0  0  0  0  0  0  0  0  0  0
   -3.1097   -3.0053    0.5713 H   0  0  0  0  0  0  0  0  0  0  0  0
   -2.6740   -3.5443   -1.0692 H   0  0  0  0  0  0  0  0  0  0  0  0
   -1.0284   -2.7660    0.0782 C   0  0  0  0  0  0  0  0  0  0  0  0
   -0.0560   -3.3187    0.5590 O   0  0  0  0  0  0  0  0  0  0  0  0
   -0.9434   -1.4602   -0.3603 N   0  0  0  0  0  0  0  0  0  0  0  0
   -1.7674   -1.0691   -0.8055 H   0  0  0  0  0  0  0  0  0  0  0  0
    0.3008   -0.6681   -0.3967 C   0  0  1  0  0  0  0  0  0  0  0  0
    1.0202   -1.2639   -0.9705 H   0  0  0  0  0  0  0  0  0  0  0  0
    0.1462    0.6841   -1.1520 C   0  0  1  0  0  0  0  0  0  0  0  0
    1.1263    1.1749   -1.1373 H   0  0  0  0  0  0  0  0  0  0  0  0
   -0.1783    0.3779   -2.6253 C   0  0  0  0  0  0  0  0  0  0  0  0
   -1.1776   -0.0561   -2.7248 H   0  0  0  0  0  0  0  0  0  0  0  0
   -0.1383    1.2935   -3.2237 H   0  0  0  0  0  0  0  0  0  0  0  0
    0.5497   -0.3255   -3.0419 H   0  0  0  0  0  0  0  0  0  0  0  0
   -0.8899    1.7268   -0.6342 C   0  0  0  0  0  0  0  0  0  0  0  0
   -0.3664    2.3645    0.0860 H   0  0  0  0  0  0  0  0  0  0  0  0
   -1.1964    2.3772   -1.4602 H   0  0  0  0  0  0  0  0  0  0  0  0
   -2.1516    1.2173    0.0721 C   0  0  0  0  0  0  0  0  0  0  0  0
   -2.7742    2.0683    0.3653 H   0  0  0  0  0  0  0  0  0  0  0  0
   -1.9141    0.6543    0.9751 H   0  0  0  0  0  0  0  0  0  0  0  0
   -2.7377    0.5856   -0.6017 H   0  0  0  0  0  0  0  0  0  0  0  0
    1.0014   -0.4608    0.9677 C   0  0  0  0  0  0  0  0  0  0  0  0
    2.2224   -0.3790    1.0050 O   0  0  0  0  0  0  0  0  0  0  0  0
    0.2847   -0.1136    2.0980 N   0  0  0  0  0  0  0  0  0  0  0  0
   -0.7152   -0.2775    2.0602 H   0  0  0  0  0  0  0  0  0  0  0  0
    0.9094    0.1148    3.3946 C   0  0  0  0  0  0  0  0  0  0  0  0
    1.6453    0.9231    3.3291 H   0  0  0  0  0  0  0  0  0  0  0  0
    0.1541    0.3976    4.1339 H   0  0  0  0  0  0  0  0  0  0  0  0
    1.4134   -0.7937    3.7410 H   0  0  0  0  0  0  0  0  0  0  0  0
  1  2  1  0  0  0  0
  2  3  1  0  0  0  0
  2  4  1  0  0  0  0
  2  5  1  0  0  0  0
  5  6  2  0  0  0  0
  5  7  1  0  0  0  0
  7  8  1  0  0  0  0
  7  9  1  0  0  0  0
  9 10  1  0  0  0  0
  9 11  1  0  0  0  0
  9 24  1  0  0  0  0
 11 12  1  0  0  0  0
 11 13  1  0  0  0  0
 11 17  1  0  0  0  0
 13 14  1  0  0  0  0
 13 15  1  0  0  0  0
 13 16  1  0  0  0  0
 17 18  1  0  0  0  0
 17 19  1  0  0  0  0
 17 20  1  0  0  0  0
 20 21  1  0  0  0  0
 20 22  1  0  0  0  0
 20 23  1  0  0  0  0
 24 25  2  0  0  0  0
 24 26  1  0  0  0  0
 26 27  1  0  0  0  0
 26 28  1  0  0  0  0
 28 29  1  0  0  0  0
 28 30  1  0  0  0  0
 28 31  1  0  0  0  0
M  END
$$$$

  -OEChem-03222214053D

 31 30  0     1  0  0  0  0  0999 V2000
   -2.4583   -4.4529    0.1786 H   0  0  0  0  0  0  0  0  0  0  0  0
   -2.5228   -3.4051   -0.1284 C   0  0  0  0  0  0  0  0  0  0  0  0
   -3.2734   -2.9037    0.4871 H   0  0  0  0  0  0  0  0  0  0  0  0
   -2.8324   -3.3650   -1.1756 H   0  0  0  0  0  0  0  0  0  0  0  0
   -1.1759   -2.7280    0.0411 C   0  0  0  0  0  0  0  0  0  0  0  0
   -0.2409   -3.3457    0.5172 O   0  0  0  0  0  0  0  0  0  0  0  0
   -1.0223   -1.4090   -0.3348 N   0  0  0  0  0  0  0  0  0  0  0  0
   -1.8167   -0.9631   -0.7826 H   0  0  0  0  0  0  0  0  0  0  0  0
    0.2618   -0.6839   -0.3327 C   0  0  1  0  0  0  0  0  0  0  0  0
    0.9454   -1.3224   -0.9046 H   0  0  0  0  0  0  0  0  0  0  0  0
    0.2043    0.6617   -1.1149 C   0  0  1  0  0  0  0  0  0  0  0  0
    1.2085    1.0977   -1.0593 H   0  0  0  0  0  0  0  0  0  0  0  0
   -0.0560    0.3446   -2.5998 C   0  0  0  0  0  0  0  0  0  0  0  0
   -1.0692   -0.0425   -2.7448 H   0  0  0  0  0  0  0  0  0  0  0  0
    0.0609    1.2468   -3.2088 H   0  0  0  0  0  0  0  0  0  0  0  0
    0.6568   -0.4001   -2.9680 H   0  0  0  0  0  0  0  0  0  0  0  0
   -0.7925    1.7806   -0.6755 C   0  0  0  0  0  0  0  0  0  0  0  0
   -0.1994    2.5542   -0.1763 H   0  0  0  0  0  0  0  0  0  0  0  0
   -1.2308    2.2522   -1.5612 H   0  0  0  0  0  0  0  0  0  0  0  0
   -1.9374    1.4291    0.2801 C   0  0  0  0  0  0  0  0  0  0  0  0
   -2.5289    2.3277    0.4809 H   0  0  0  0  0  0  0  0  0  0  0  0
   -1.5722    1.0576    1.2350 H   0  0  0  0  0  0  0  0  0  0  0  0
   -2.6017    0.6857   -0.1681 H   0  0  0  0  0  0  0  0  0  0  0  0
    0.9905   -0.5648    1.0290 C   0  0  0  0  0  0  0  0  0  0  0  0
    2.2147   -0.5453    1.0435 O   0  0  0  0  0  0  0  0  0  0  0  0
    0.3218   -0.2287    2.1909 N   0  0  0  0  0  0  0  0  0  0  0  0
   -0.6861   -0.3378    2.1730 H   0  0  0  0  0  0  0  0  0  0  0  0
    0.9889   -0.0816    3.4785 C   0  0  0  0  0  0  0  0  0  0  0  0
    1.7296    0.7238    3.4364 H   0  0  0  0  0  0  0  0  0  0  0  0
    0.2596    0.1616    4.2569 H   0  0  0  0  0  0  0  0  0  0  0  0
    1.4955   -1.0123    3.7555 H   0  0  0  0  0  0  0  0  0  0  0  0
  1  2  1  0  0  0  0
  2  3  1  0  0  0  0
  2  4  1  0  0  0  0
  2  5  1  0  0  0  0
  5  6  2  0  0  0  0
  5  7  1  0  0  0  0
  7  8  1  0  0  0  0
  7  9  1  0  0  0  0
  9 10  1  0  0  0  0
  9 11  1  0  0  0  0
  9 24  1  0  0  0  0
 11 12  1  0  0  0  0
 11 13  1  0  0  0  0
 11 17  1  0  0  0  0
 13 14  1  0  0  0  0
 13 15  1  0  0  0  0
 13 16  1  0  0  0  0
 17 18  1  0  0  0  0
 17 19  1  0  0  0  0
 17 20  1  0  0  0  0
 20 21  1  0  0  0  0
 20 22  1  0  0  0  0
 20 23  1  0  0  0  0
 24 25  2  0  0  0  0
 24 26  1  0  0  0  0
 26 27  1  0  0  0  0
 26 28  1  0  0  0  0
 28 29  1  0  0  0  0
 28 30  1  0  0  0  0
 28 31  1  0  0  0  0
M  END
$$$$

  -OEChem-03222214053D

 31 30  0     1  0  0  0  0  0999 V2000
   -2.3930   -4.4635    0.2339 H   0  0  0  0  0  0  0  0  0  0  0  0
   -2.4770   -3.4198   -0.0824 C   0  0  0  0  0  0  0  0  0  0  0  0
   -3.2058   -2.9160    0.5570 H   0  0  0  0  0  0  0  0  0  0  0  0
   -2.8286   -3.3938   -1.1165 H   0  0  0  0  0  0  0  0  0  0  0  0
   -1.1288   -2.7325    0.0247 C   0  0  0  0  0  0  0  0  0  0  0  0
   -0.1611   -3.3520    0.4273 O   0  0  0  0  0  0  0  0  0  0  0  0
   -1.0106   -1.4024   -0.3245 N   0  0  0  0  0  0  0  0  0  0  0  0
   -1.8359   -0.9511   -0.7063 H   0  0  0  0  0  0  0  0  0  0  0  0
    0.2607   -0.6558   -0.3585 C   0  0  1  0  0  0  0  0  0  0  0  0
    0.9334   -1.2723   -0.9663 H   0  0  0  0  0  0  0  0  0  0  0  0
    0.1362    0.6914   -1.1299 C   0  0  1  0  0  0  0  0  0  0  0  0
    1.1306    1.1499   -1.0769 H   0  0  0  0  0  0  0  0  0  0  0  0
   -0.1255    0.3909   -2.6176 C   0  0  0  0  0  0  0  0  0  0  0  0
   -1.1139   -0.0574   -2.7582 H   0  0  0  0  0  0  0  0  0  0  0  0
   -0.0750    1.3123   -3.2066 H   0  0  0  0  0  0  0  0  0  0  0  0
    0.6280   -0.2990   -3.0110 H   0  0  0  0  0  0  0  0  0  0  0  0
   -0.8665    1.7941   -0.6593 C   0  0  0  0  0  0  0  0  0  0  0  0
   -0.2917    2.7086   -0.4784 H   0  0  0  0  0  0  0  0  0  0  0  0
   -1.5541    2.0186   -1.4815 H   0  0  0  0  0  0  0  0  0  0  0  0
   -1.7392    1.5526    0.5754 C   0  0  0  0  0  0  0  0  0  0  0  0
   -1.1356    1.5545    1.4830 H   0  0  0  0  0  0  0  0  0  0  0  0
   -2.4641    2.3671    0.6681 H   0  0  0  0  0  0  0  0  0  0  0  0
   -2.2999    0.6192    0.5036 H   0  0  0  0  0  0  0  0  0  0  0  0
    1.0336   -0.5648    0.9797 C   0  0  0  0  0  0  0  0  0  0  0  0
    2.2573   -0.5313    0.9564 O   0  0  0  0  0  0  0  0  0  0  0  0
    0.3955   -0.2726    2.1699 N   0  0  0  0  0  0  0  0  0  0  0  0
   -0.6136   -0.3745    2.1738 H   0  0  0  0  0  0  0  0  0  0  0  0
    1.0965   -0.1607    3.4426 C   0  0  0  0  0  0  0  0  0  0  0  0
    1.8635    0.6191    3.3912 H   0  0  0  0  0  0  0  0  0  0  0  0
    0.3941    0.1004    4.2397 H   0  0  0  0  0  0  0  0  0  0  0  0
    1.5764   -1.1112    3.6983 H   0  0  0  0  0  0  0  0  0  0  0  0
  1  2  1  0  0  0  0
  2  3  1  0  0  0  0
  2  4  1  0  0  0  0
  2  5  1  0  0  0  0
  5  6  2  0  0  0  0
  5  7  1  0  0  0  0
  7  8  1  0  0  0  0
  7  9  1  0  0  0  0
  9 10  1  0  0  0  0
  9 11  1  0  0  0  0
  9 24  1  0  0  0  0
 11 12  1  0  0  0  0
 11 13  1  0  0  0  0
 11 17  1  0  0  0  0
 13 14  1  0  0  0  0
 13 15  1  0  0  0  0
 13 16  1  0  0  0  0
 17 18  1  0  0  0  0
 17 19  1  0  0  0  0
 17 20  1  0  0  0  0
 20 21  1  0  0  0  0
 20 22  1  0  0  0  0
 20 23  1  0  0  0  0
 24 25  2  0  0  0  0
 24 26  1  0  0  0  0
 26 27  1  0  0  0  0
 26 28  1  0  0  0  0
 28 29  1  0  0  0  0
 28 30  1  0  0  0  0
 28 31  1  0  0  0  0
M  END
$$$$

  -OEChem-03222214053D

 31 30  0     1  0  0  0  0  0999 V2000
   -2.4268   -4.4267    0.2198 H   0  0  0  0  0  0  0  0  0  0  0  0
   -2.5009   -3.3804   -0.0909 C   0  0  0  0  0  0  0  0  0  0  0  0
   -3.2194   -2.8718    0.5563 H   0  0  0  0  0  0  0  0  0  0  0  0
   -2.8589   -3.3449   -1.1226 H   0  0  0  0  0  0  0  0  0  0  0  0
   -1.1444   -2.7090    0.0098 C   0  0  0  0  0  0  0  0  0  0  0  0
   -0.1794   -3.3444    0.3935 O   0  0  0  0  0  0  0  0  0  0  0  0
   -1.0154   -1.3757   -0.3234 N   0  0  0  0  0  0  0  0  0  0  0  0
   -1.8398   -0.9093   -0.6888 H   0  0  0  0  0  0  0  0  0  0  0  0
    0.2630   -0.6407   -0.3521 C   0  0  1  0  0  0  0  0  0  0  0  0
    0.9292   -1.2593   -0.9649 H   0  0  0  0  0  0  0  0  0  0  0  0
    0.1342    0.6997   -1.1330 C   0  0  1  0  0  0  0  0  0  0  0  0
    1.1247    1.1638   -1.0629 H   0  0  0  0  0  0  0  0  0  0  0  0
   -0.1118    0.4109   -2.6245 C   0  0  0  0  0  0  0  0  0  0  0  0
   -1.0823   -0.0713   -2.7759 H   0  0  0  0  0  0  0  0  0  0  0  0
   -0.0939    1.3422   -3.1994 H   0  0  0  0  0  0  0  0  0  0  0  0
    0.6676   -0.2462   -3.0230 H   0  0  0  0  0  0  0  0  0  0  0  0
   -0.8736    1.7916   -0.6622 C   0  0  0  0  0  0  0  0  0  0  0  0
   -0.3893    2.7689   -0.7611 H   0  0  0  0  0  0  0  0  0  0  0  0
   -1.7258    1.7921   -1.3498 H   0  0  0  0  0  0  0  0  0  0  0  0
   -1.4680    1.6927    0.7426 C   0  0  0  0  0  0  0  0  0  0  0  0
   -0.6964    1.8833    1.4923 H   0  0  0  0  0  0  0  0  0  0  0  0
   -2.2420    2.4564    0.8654 H   0  0  0  0  0  0  0  0  0  0  0  0
   -1.9278    0.7189    0.9232 H   0  0  0  0  0  0  0  0  0  0  0  0
    1.0428   -0.5725    0.9845 C   0  0  0  0  0  0  0  0  0  0  0  0
    2.2665   -0.5519    0.9557 O   0  0  0  0  0  0  0  0  0  0  0  0
    0.4146   -0.2890    2.1828 N   0  0  0  0  0  0  0  0  0  0  0  0
   -0.5958   -0.3757    2.1913 H   0  0  0  0  0  0  0  0  0  0  0  0
    1.1239   -0.1975    3.4526 C   0  0  0  0  0  0  0  0  0  0  0  0
    1.8961    0.5775    3.4062 H   0  0  0  0  0  0  0  0  0  0  0  0
    0.4280    0.0587    4.2569 H   0  0  0  0  0  0  0  0  0  0  0  0
    1.5985   -1.1544    3.6939 H   0  0  0  0  0  0  0  0  0  0  0  0
  1  2  1  0  0  0  0
  2  3  1  0  0  0  0
  2  4  1  0  0  0  0
  2  5  1  0  0  0  0
  5  6  2  0  0  0  0
  5  7  1  0  0  0  0
  7  8  1  0  0  0  0
  7  9  1  0  0  0  0
  9 10  1  0  0  0  0
  9 11  1  0  0  0  0
  9 24  1  0  0  0  0
 11 12  1  0  0  0  0
 11 13  1  0  0  0  0
 11 17  1  0  0  0  0
 13 14  1  0  0  0  0
 13 15  1  0  0  0  0
 13 16  1  0  0  0  0
 17 18  1  0  0  0  0
 17 19  1  0  0  0  0
 17 20  1  0  0  0  0
 20 21  1  0  0  0  0
 20 22  1  0  0  0  0
 20 23  1  0  0  0  0
 24 25  2  0  0  0  0
 24 26  1  0  0  0  0
 26 27  1  0  0  0  0
 26 28  1  0  0  0  0
 28 29  1  0  0  0  0
 28 30  1  0  0  0  0
 28 31  1  0  0  0  0
M  END
$$$$

  -OEChem-03222214053D

 31 30  0     1  0  0  0  0  0999 V2000
   -2.3201   -4.4668    0.3587 H   0  0  0  0  0  0  0  0  0  0  0  0
   -2.4091   -3.4343    0.0090 C   0  0  0  0  0  0  0  0  0  0  0  0
   -3.1713   -2.9260    0.6043 H   0  0  0  0  0  0  0  0  0  0  0  0
   -2.7192   -3.4442   -1.0386 H   0  0  0  0  0  0  0  0  0  0  0  0
   -1.0785   -2.7195    0.1493 C   0  0  0  0  0  0  0  0  0  0  0  0
   -0.1267   -3.2989    0.6405 O   0  0  0  0  0  0  0  0  0  0  0  0
   -0.9589   -1.4086   -0.2664 N   0  0  0  0  0  0  0  0  0  0  0  0
   -1.7707   -0.9876   -0.7072 H   0  0  0  0  0  0  0  0  0  0  0  0
    0.3001   -0.6405   -0.2582 C   0  0  1  0  0  0  0  0  0  0  0  0
    1.0206   -1.2908   -0.7682 H   0  0  0  0  0  0  0  0  0  0  0  0
    0.2022    0.6145   -1.1734 C   0  0  1  0  0  0  0  0  0  0  0  0
    1.1679    1.1222   -1.0686 H   0  0  0  0  0  0  0  0  0  0  0  0
    0.0779    0.1896   -2.6465 C   0  0  0  0  0  0  0  0  0  0  0  0
   -0.8604   -0.3444   -2.8242 H   0  0  0  0  0  0  0  0  0  0  0  0
    0.1049    1.0686   -3.2983 H   0  0  0  0  0  0  0  0  0  0  0  0
    0.9082   -0.4658   -2.9281 H   0  0  0  0  0  0  0  0  0  0  0  0
   -0.8772    1.6914   -0.8762 C   0  0  0  0  0  0  0  0  0  0  0  0
   -0.5154    2.6509   -1.2607 H   0  0  0  0  0  0  0  0  0  0  0  0
   -1.7825    1.4411   -1.4387 H   0  0  0  0  0  0  0  0  0  0  0  0
   -1.3054    1.8864    0.5747 C   0  0  0  0  0  0  0  0  0  0  0  0
   -0.4469    2.1713    1.1898 H   0  0  0  0  0  0  0  0  0  0  0  0
   -1.7644    0.9784    0.9736 H   0  0  0  0  0  0  0  0  0  0  0  0
   -2.0451    2.6905    0.6358 H   0  0  0  0  0  0  0  0  0  0  0  0
    0.9923   -0.4517    1.1157 C   0  0  0  0  0  0  0  0  0  0  0  0
    2.2143   -0.3877    1.1562 O   0  0  0  0  0  0  0  0  0  0  0  0
    0.2875   -0.1020    2.2528 N   0  0  0  0  0  0  0  0  0  0  0  0
   -0.7182   -0.2262    2.2145 H   0  0  0  0  0  0  0  0  0  0  0  0
    0.9208    0.1164    3.5473 C   0  0  0  0  0  0  0  0  0  0  0  0
    1.6364    0.9432    3.4889 H   0  0  0  0  0  0  0  0  0  0  0  0
    0.1673    0.3659    4.3004 H   0  0  0  0  0  0  0  0  0  0  0  0
    1.4503   -0.7861    3.8706 H   0  0  0  0  0  0  0  0  0  0  0  0
  1  2  1  0  0  0  0
  2  3  1  0  0  0  0
  2  4  1  0  0  0  0
  2  5  1  0  0  0  0
  5  6  2  0  0  0  0
  5  7  1  0  0  0  0
  7  8  1  0  0  0  0
  7  9  1  0  0  0  0
  9 10  1  0  0  0  0
  9 11  1  0  0  0  0
  9 24  1  0  0  0  0
 11 12  1  0  0  0  0
 11 13  1  0  0  0  0
 11 17  1  0  0  0  0
 13 14  1  0  0  0  0
 13 15  1  0  0  0  0
 13 16  1  0  0  0  0
 17 18  1  0  0  0  0
 17 19  1  0  0  0  0
 17 20  1  0  0  0  0
 20 21  1  0  0  0  0
 20 22  1  0  0  0  0
 20 23  1  0  0  0  0
 24 25  2  0  0  0  0
 24 26  1  0  0  0  0
 26 27  1  0  0  0  0
 26 28  1  0  0  0  0
 28 29  1  0  0  0  0
 28 30  1  0  0  0  0
 28 31  1  0  0  0  0
M  END
$$$$

  -OEChem-03222214053D

 31 30  0     1  0  0  0  0  0999 V2000
   -2.8005   -4.2035    0.1671 H   0  0  0  0  0  0  0  0  0  0  0  0
   -2.7763   -3.1490   -0.1223 C   0  0  0  0  0  0  0  0  0  0  0  0
   -3.4660   -2.5926    0.5169 H   0  0  0  0  0  0  0  0  0  0  0  0
   -3.1018   -3.0633   -1.1616 H   0  0  0  0  0  0  0  0  0  0  0  0
   -1.3700   -2.6002    0.0274 C   0  0  0  0  0  0  0  0  0  0  0  0
   -0.4811   -3.3165    0.4511 O   0  0  0  0  0  0  0  0  0  0  0  0
   -1.1081   -1.2869   -0.3090 N   0  0  0  0  0  0  0  0  0  0  0  0
   -1.8745   -0.7503   -0.7027 H   0  0  0  0  0  0  0  0  0  0  0  0
    0.2344   -0.6766   -0.3096 C   0  0  1  0  0  0  0  0  0  0  0  0
    0.8506   -1.3728   -0.8909 H   0  0  0  0  0  0  0  0  0  0  0  0
    0.2587    0.6384   -1.1411 C   0  0  1  0  0  0  0  0  0  0  0  0
    1.2830    1.0206   -1.0639 H   0  0  0  0  0  0  0  0  0  0  0  0
    0.0006    0.3305   -2.6260 C   0  0  0  0  0  0  0  0  0  0  0  0
   -1.0138   -0.0502   -2.7783 H   0  0  0  0  0  0  0  0  0  0  0  0
    0.1238    1.2362   -3.2283 H   0  0  0  0  0  0  0  0  0  0  0  0
    0.7106   -0.4176   -2.9928 H   0  0  0  0  0  0  0  0  0  0  0  0
   -0.6740    1.8022   -0.7187 C   0  0  0  0  0  0  0  0  0  0  0  0
   -0.3501    2.7010   -1.2541 H   0  0  0  0  0  0  0  0  0  0  0  0
   -1.6949    1.5806   -1.0459 H   0  0  0  0  0  0  0  0  0  0  0  0
   -0.7293    2.1385    0.7672 C   0  0  0  0  0  0  0  0  0  0  0  0
    0.2797    2.2205    1.1833 H   0  0  0  0  0  0  0  0  0  0  0  0
   -1.2949    1.3787    1.3111 H   0  0  0  0  0  0  0  0  0  0  0  0
   -1.2372    3.0971    0.9105 H   0  0  0  0  0  0  0  0  0  0  0  0
    0.9936   -0.6682    1.0415 C   0  0  0  0  0  0  0  0  0  0  0  0
    2.2154   -0.7474    1.0320 O   0  0  0  0  0  0  0  0  0  0  0  0
    0.3761   -0.3168    2.2276 N   0  0  0  0  0  0  0  0  0  0  0  0
   -0.6381   -0.3190    2.2240 H   0  0  0  0  0  0  0  0  0  0  0  0
    1.0758   -0.2589    3.5045 C   0  0  0  0  0  0  0  0  0  0  0  0
    1.8582    0.5067    3.4777 H   0  0  0  0  0  0  0  0  0  0  0  0
    0.3761   -0.0094    4.3076 H   0  0  0  0  0  0  0  0  0  0  0  0
    1.5360   -1.2261    3.7330 H   0  0  0  0  0  0  0  0  0  0  0  0
  1  2  1  0  0  0  0
  2  3  1  0  0  0  0
  2  4  1  0  0  0  0
  2  5  1  0  0  0  0
  5  6  2  0  0  0  0
  5  7  1  0  0  0  0
  7  8  1  0  0  0  0
  7  9  1  0  0  0  0
  9 10  1  0  0  0  0
  9 11  1  0  0  0  0
  9 24  1  0  0  0  0
 11 12  1  0  0  0  0
 11 13  1  0  0  0  0
 11 17  1  0  0  0  0
 13 14  1  0  0  0  0
 13 15  1  0  0  0  0
 13 16  1  0  0  0  0
 17 18  1  0  0  0  0
 17 19  1  0  0  0  0
 17 20  1  0  0  0  0
 20 21  1  0  0  0  0
 20 22  1  0  0  0  0
 20 23  1  0  0  0  0
 24 25  2  0  0  0  0
 24 26  1  0  0  0  0
 26 27  1  0  0  0  0
 26 28  1  0  0  0  0
 28 29  1  0  0  0  0
 28 30  1  0  0  0  0
 28 31  1  0  0  0  0
M  END
$$$$

  -OEChem-03222214053D

 31 30  0     1  0  0  0  0  0999 V2000
   -2.5085   -4.3457    0.2116 H   0  0  0  0  0  0  0  0  0  0  0  0
   -2.5595   -3.2986   -0.1003 C   0  0  0  0  0  0  0  0  0  0  0  0
   -3.2783   -2.7770    0.5359 H   0  0  0  0  0  0  0  0  0  0  0  0
   -2.9019   -3.2578   -1.1371 H   0  0  0  0  0  0  0  0  0  0  0  0
   -1.1927   -2.6517    0.0214 C   0  0  0  0  0  0  0  0  0  0  0  0
   -0.2485   -3.3011    0.4330 O   0  0  0  0  0  0  0  0  0  0  0  0
   -1.0306   -1.3245   -0.3226 N   0  0  0  0  0  0  0  0  0  0  0  0
   -1.8380   -0.8482   -0.7120 H   0  0  0  0  0  0  0  0  0  0  0  0
    0.2645   -0.6179   -0.3404 C   0  0  1  0  0  0  0  0  0  0  0  0
    0.9260   -1.2609   -0.9329 H   0  0  0  0  0  0  0  0  0  0  0  0
    0.1789    0.7057   -1.1530 C   0  0  1  0  0  0  0  0  0  0  0  0
    1.1747    1.1616   -1.1118 H   0  0  0  0  0  0  0  0  0  0  0  0
   -0.1144    0.3893   -2.6302 C   0  0  0  0  0  0  0  0  0  0  0  0
   -1.1117   -0.0446   -2.7496 H   0  0  0  0  0  0  0  0  0  0  0  0
   -0.0608    1.3012   -3.2332 H   0  0  0  0  0  0  0  0  0  0  0  0
    0.6219   -0.3182   -3.0249 H   0  0  0  0  0  0  0  0  0  0  0  0
   -0.8308    1.7807   -0.6799 C   0  0  0  0  0  0  0  0  0  0  0  0
   -0.7527    2.6324   -1.3641 H   0  0  0  0  0  0  0  0  0  0  0  0
   -1.8510    1.3927   -0.7612 H   0  0  0  0  0  0  0  0  0  0  0  0
   -0.6235    2.3179    0.7342 C   0  0  0  0  0  0  0  0  0  0  0  0
    0.4422    2.4313    0.9573 H   0  0  0  0  0  0  0  0  0  0  0  0
   -1.0839    1.6547    1.4682 H   0  0  0  0  0  0  0  0  0  0  0  0
   -1.1010    3.2976    0.8321 H   0  0  0  0  0  0  0  0  0  0  0  0
    1.0250   -0.5553    1.0071 C   0  0  0  0  0  0  0  0  0  0  0  0
    2.2492   -0.5489    0.9967 O   0  0  0  0  0  0  0  0  0  0  0  0
    0.3821   -0.2474    2.1914 N   0  0  0  0  0  0  0  0  0  0  0  0
   -0.6287   -0.3307    2.1860 H   0  0  0  0  0  0  0  0  0  0  0  0
    1.0725   -0.1551    3.4717 C   0  0  0  0  0  0  0  0  0  0  0  0
    1.8450    0.6204    3.4364 H   0  0  0  0  0  0  0  0  0  0  0  0
    0.3646    0.1008    4.2658 H   0  0  0  0  0  0  0  0  0  0  0  0
    1.5441   -1.1116    3.7212 H   0  0  0  0  0  0  0  0  0  0  0  0
  1  2  1  0  0  0  0
  2  3  1  0  0  0  0
  2  4  1  0  0  0  0
  2  5  1  0  0  0  0
  5  6  2  0  0  0  0
  5  7  1  0  0  0  0
  7  8  1  0  0  0  0
  7  9  1  0  0  0  0
  9 10  1  0  0  0  0
  9 11  1  0  0  0  0
  9 24  1  0  0  0  0
 11 12  1  0  0  0  0
 11 13  1  0  0  0  0
 11 17  1  0  0  0  0
 13 14  1  0  0  0  0
 13 15  1  0  0  0  0
 13 16  1  0  0  0  0
 17 18  1  0  0  0  0
 17 19  1  0  0  0  0
 17 20  1  0  0  0  0
 20 21  1  0  0  0  0
 20 22  1  0  0  0  0
 20 23  1  0  0  0  0
 24 25  2  0  0  0  0
 24 26  1  0  0  0  0
 26 27  1  0  0  0  0
 26 28  1  0  0  0  0
 28 29  1  0  0  0  0
 28 30  1  0  0  0  0
 28 31  1  0  0  0  0
M  END
$$$$

  -OEChem-03222214053D

 31 30  0     1  0  0  0  0  0999 V2000
   -2.4793   -4.3476    0.2114 H   0  0  0  0  0  0  0  0  0  0  0  0
   -2.5354   -3.3022   -0.1057 C   0  0  0  0  0  0  0  0  0  0  0  0
   -3.2574   -2.7809    0.5273 H   0  0  0  0  0  0  0  0  0  0  0  0
   -2.8768   -3.2684   -1.1431 H   0  0  0  0  0  0  0  0  0  0  0  0
   -1.1720   -2.6477    0.0141 C   0  0  0  0  0  0  0  0  0  0  0  0
   -0.2253   -3.2900    0.4308 O   0  0  0  0  0  0  0  0  0  0  0  0
   -1.0144   -1.3239   -0.3451 N   0  0  0  0  0  0  0  0  0  0  0  0
   -1.8224   -0.8569   -0.7443 H   0  0  0  0  0  0  0  0  0  0  0  0
    0.2784   -0.6121   -0.3704 C   0  0  1  0  0  0  0  0  0  0  0  0
    0.9461   -1.2449   -0.9669 H   0  0  0  0  0  0  0  0  0  0  0  0
    0.1774    0.7246   -1.1583 C   0  0  1  0  0  0  0  0  0  0  0  0
    1.1728    1.1829   -1.1480 H   0  0  0  0  0  0  0  0  0  0  0  0
   -0.1645    0.4201   -2.6279 C   0  0  0  0  0  0  0  0  0  0  0  0
   -1.1786    0.0200   -2.7211 H   0  0  0  0  0  0  0  0  0  0  0  0
   -0.0965    1.3306   -3.2316 H   0  0  0  0  0  0  0  0  0  0  0  0
    0.5373   -0.3103   -3.0430 H   0  0  0  0  0  0  0  0  0  0  0  0
   -0.8331    1.7748   -0.6324 C   0  0  0  0  0  0  0  0  0  0  0  0
   -0.9696    2.5311   -1.4125 H   0  0  0  0  0  0  0  0  0  0  0  0
   -1.8091    1.3117   -0.4585 H   0  0  0  0  0  0  0  0  0  0  0  0
   -0.3921    2.5206    0.6287 C   0  0  0  0  0  0  0  0  0  0  0  0
    0.6860    2.7092    0.6162 H   0  0  0  0  0  0  0  0  0  0  0  0
   -0.9085    3.4835    0.6865 H   0  0  0  0  0  0  0  0  0  0  0  0
   -0.6482    1.9598    1.5275 H   0  0  0  0  0  0  0  0  0  0  0  0
    1.0210   -0.5418    0.9846 C   0  0  0  0  0  0  0  0  0  0  0  0
    2.2452   -0.5306    0.9940 O   0  0  0  0  0  0  0  0  0  0  0  0
    0.3525   -0.2275    2.1529 N   0  0  0  0  0  0  0  0  0  0  0  0
   -0.6581   -0.3089    2.1267 H   0  0  0  0  0  0  0  0  0  0  0  0
    1.0175   -0.1232    3.4453 C   0  0  0  0  0  0  0  0  0  0  0  0
    1.7895    0.6531    3.4177 H   0  0  0  0  0  0  0  0  0  0  0  0
    0.2938    0.1386    4.2229 H   0  0  0  0  0  0  0  0  0  0  0  0
    1.4854   -1.0768    3.7121 H   0  0  0  0  0  0  0  0  0  0  0  0
  1  2  1  0  0  0  0
  2  3  1  0  0  0  0
  2  4  1  0  0  0  0
  2  5  1  0  0  0  0
  5  6  2  0  0  0  0
  5  7  1  0  0  0  0
  7  8  1  0  0  0  0
  7  9  1  0  0  0  0
  9 10  1  0  0  0  0
  9 11  1  0  0  0  0
  9 24  1  0  0  0  0
 11 12  1  0  0  0  0
 11 13  1  0  0  0  0
 11 17  1  0  0  0  0
 13 14  1  0  0  0  0
 13 15  1  0  0  0  0
 13 16  1  0  0  0  0
 17 18  1  0  0  0  0
 17 19  1  0  0  0  0
 17 20  1  0  0  0  0
 20 21  1  0  0  0  0
 20 22  1  0  0  0  0
 20 23  1  0  0  0  0
 24 25  2  0  0  0  0
 24 26  1  0  0  0  0
 26 27  1  0  0  0  0
 26 28  1  0  0  0  0
 28 29  1  0  0  0  0
 28 30  1  0  0  0  0
 28 31  1  0  0  0  0
M  END
$$$$

  -OEChem-03222214053D

 31 30  0     1  0  0  0  0  0999 V2000
   -2.4797   -4.3228    0.2735 H   0  0  0  0  0  0  0  0  0  0  0  0
   -2.5262   -3.2865   -0.0739 C   0  0  0  0  0  0  0  0  0  0  0  0
   -3.2466   -2.7418    0.5412 H   0  0  0  0  0  0  0  0  0  0  0  0
   -2.8639   -3.2799   -1.1131 H   0  0  0  0  0  0  0  0  0  0  0  0
   -1.1583   -2.6386    0.0313 C   0  0  0  0  0  0  0  0  0  0  0  0
   -0.2180   -3.2752    0.4702 O   0  0  0  0  0  0  0  0  0  0  0  0
   -0.9914   -1.3272   -0.3678 N   0  0  0  0  0  0  0  0  0  0  0  0
   -1.7918   -0.8731   -0.7963 H   0  0  0  0  0  0  0  0  0  0  0  0
    0.3047   -0.6197   -0.4034 C   0  0  1  0  0  0  0  0  0  0  0  0
    0.9831   -1.2483   -0.9918 H   0  0  0  0  0  0  0  0  0  0  0  0
    0.1870    0.7253   -1.1765 C   0  0  1  0  0  0  0  0  0  0  0  0
    1.1807    1.1876   -1.1823 H   0  0  0  0  0  0  0  0  0  0  0  0
   -0.1815    0.4361   -2.6425 C   0  0  0  0  0  0  0  0  0  0  0  0
   -1.1957    0.0333   -2.7221 H   0  0  0  0  0  0  0  0  0  0  0  0
   -0.1274    1.3544   -3.2357 H   0  0  0  0  0  0  0  0  0  0  0  0
    0.5155   -0.2869   -3.0782 H   0  0  0  0  0  0  0  0  0  0  0  0
   -0.8206    1.7525   -0.5997 C   0  0  0  0  0  0  0  0  0  0  0  0
   -1.2243    2.3672   -1.4113 H   0  0  0  0  0  0  0  0  0  0  0  0
   -1.6658    1.2338   -0.1380 H   0  0  0  0  0  0  0  0  0  0  0  0
   -0.1936    2.7054    0.4235 C   0  0  0  0  0  0  0  0  0  0  0  0
    0.6049    3.2883   -0.0460 H   0  0  0  0  0  0  0  0  0  0  0  0
   -0.9522    3.4000    0.7965 H   0  0  0  0  0  0  0  0  0  0  0  0
    0.2293    2.1762    1.2757 H   0  0  0  0  0  0  0  0  0  0  0  0
    1.0058   -0.5271    0.9712 C   0  0  0  0  0  0  0  0  0  0  0  0
    2.2286   -0.5312    1.0247 O   0  0  0  0  0  0  0  0  0  0  0  0
    0.2931   -0.1820    2.1055 N   0  0  0  0  0  0  0  0  0  0  0  0
   -0.7163   -0.2532    2.0393 H   0  0  0  0  0  0  0  0  0  0  0  0
    0.9072   -0.0709    3.4224 C   0  0  0  0  0  0  0  0  0  0  0  0
    1.7007    0.6838    3.4135 H   0  0  0  0  0  0  0  0  0  0  0  0
    0.1599    0.2246    4.1649 H   0  0  0  0  0  0  0  0  0  0  0  0
    1.3381   -1.0313    3.7247 H   0  0  0  0  0  0  0  0  0  0  0  0
  1  2  1  0  0  0  0
  2  3  1  0  0  0  0
  2  4  1  0  0  0  0
  2  5  1  0  0  0  0
  5  6  2  0  0  0  0
  5  7  1  0  0  0  0
  7  8  1  0  0  0  0
  7  9  1  0  0  0  0
  9 10  1  0  0  0  0
  9 11  1  0  0  0  0
  9 24  1  0  0  0  0
 11 12  1  0  0  0  0
 11 13  1  0  0  0  0
 11 17  1  0  0  0  0
 13 14  1  0  0  0  0
 13 15  1  0  0  0  0
 13 16  1  0  0  0  0
 17 18  1  0  0  0  0
 17 19  1  0  0  0  0
 17 20  1  0  0  0  0
 20 21  1  0  0  0  0
 20 22  1  0  0  0  0
 20 23  1  0  0  0  0
 24 25  2  0  0  0  0
 24 26  1  0  0  0  0
 26 27  1  0  0  0  0
 26 28  1  0  0  0  0
 28 29  1  0  0  0  0
 28 30  1  0  0  0  0
 28 31  1  0  0  0  0
M  END
$$$$

  -OEChem-03222214053D

 31 30  0     1  0  0  0  0  0999 V2000
   -2.4882   -4.3291    0.2872 H   0  0  0  0  0  0  0  0  0  0  0  0
   -2.5310   -3.3013   -0.0846 C   0  0  0  0  0  0  0  0  0  0  0  0
   -3.2676   -2.7460    0.5007 H   0  0  0  0  0  0  0  0  0  0  0  0
   -2.8442   -3.3198   -1.1313 H   0  0  0  0  0  0  0  0  0  0  0  0
   -1.1684   -2.6457    0.0384 C   0  0  0  0  0  0  0  0  0  0  0  0
   -0.2417   -3.2622    0.5315 O   0  0  0  0  0  0  0  0  0  0  0  0
   -0.9889   -1.3512   -0.4073 N   0  0  0  0  0  0  0  0  0  0  0  0
   -1.7759   -0.9146   -0.8768 H   0  0  0  0  0  0  0  0  0  0  0  0
    0.3117   -0.6514   -0.4423 C   0  0  1  0  0  0  0  0  0  0  0  0
    0.9975   -1.2757   -1.0264 H   0  0  0  0  0  0  0  0  0  0  0  0
    0.1889    0.7085   -1.1794 C   0  0  1  0  0  0  0  0  0  0  0  0
    1.1824    1.1719   -1.1849 H   0  0  0  0  0  0  0  0  0  0  0  0
   -0.1985    0.4713   -2.6488 C   0  0  0  0  0  0  0  0  0  0  0  0
   -1.2072    0.0554   -2.7301 H   0  0  0  0  0  0  0  0  0  0  0  0
   -0.1680    1.4142   -3.2040 H   0  0  0  0  0  0  0  0  0  0  0  0
    0.5036   -0.2229   -3.1214 H   0  0  0  0  0  0  0  0  0  0  0  0
   -0.8186    1.6892   -0.5246 C   0  0  0  0  0  0  0  0  0  0  0  0
   -1.4497    2.1512   -1.2911 H   0  0  0  0  0  0  0  0  0  0  0  0
   -1.4854    1.1614    0.1629 H   0  0  0  0  0  0  0  0  0  0  0  0
   -0.1013    2.8094    0.2334 C   0  0  0  0  0  0  0  0  0  0  0  0
    0.4991    3.4111   -0.4559 H   0  0  0  0  0  0  0  0  0  0  0  0
   -0.8330    3.4640    0.7163 H   0  0  0  0  0  0  0  0  0  0  0  0
    0.5599    2.4029    1.0037 H   0  0  0  0  0  0  0  0  0  0  0  0
    0.9956   -0.5029    0.9367 C   0  0  0  0  0  0  0  0  0  0  0  0
    2.2174   -0.5101    1.0077 O   0  0  0  0  0  0  0  0  0  0  0  0
    0.2670   -0.1054    2.0438 N   0  0  0  0  0  0  0  0  0  0  0  0
   -0.7413   -0.1780    1.9667 H   0  0  0  0  0  0  0  0  0  0  0  0
    0.8616    0.0739    3.3620 C   0  0  0  0  0  0  0  0  0  0  0  0
    1.6483    0.8348    3.3280 H   0  0  0  0  0  0  0  0  0  0  0  0
    0.1015    0.3972    4.0793 H   0  0  0  0  0  0  0  0  0  0  0  0
    1.2963   -0.8669    3.7157 H   0  0  0  0  0  0  0  0  0  0  0  0
  1  2  1  0  0  0  0
  2  3  1  0  0  0  0
  2  4  1  0  0  0  0
  2  5  1  0  0  0  0
  5  6  2  0  0  0  0
  5  7  1  0  0  0  0
  7  8  1  0  0  0  0
  7  9  1  0  0  0  0
  9 10  1  0  0  0  0
  9 11  1  0  0  0  0
  9 24  1  0  0  0  0
 11 12  1  0  0  0  0
 11 13  1  0  0  0  0
 11 17  1  0  0  0  0
 13 14  1  0  0  0  0
 13 15  1  0  0  0  0
 13 16  1  0  0  0  0
 17 18  1  0  0  0  0
 17 19  1  0  0  0  0
 17 20  1  0  0  0  0
 20 21  1  0  0  0  0
 20 22  1  0  0  0  0
 20 23  1  0  0  0  0
 24 25  2  0  0  0  0
 24 26  1  0  0  0  0
 26 27  1  0  0  0  0
 26 28  1  0  0  0  0
 28 29  1  0  0  0  0
 28 30  1  0  0  0  0
 28 31  1  0  0  0  0
M  END
$$$$

  -OEChem-03222214053D

 31 30  0     1  0  0  0  0  0999 V2000
   -2.5034   -4.3322    0.2721 H   0  0  0  0  0  0  0  0  0  0  0  0
   -2.5442   -3.3047   -0.1009 C   0  0  0  0  0  0  0  0  0  0  0  0
   -3.2885   -2.7506    0.4760 H   0  0  0  0  0  0  0  0  0  0  0  0
   -2.8456   -3.3245   -1.1510 H   0  0  0  0  0  0  0  0  0  0  0  0
   -1.1847   -2.6456    0.0370 C   0  0  0  0  0  0  0  0  0  0  0  0
   -0.2624   -3.2583    0.5430 O   0  0  0  0  0  0  0  0  0  0  0  0
   -1.0032   -1.3515   -0.4087 N   0  0  0  0  0  0  0  0  0  0  0  0
   -1.7859   -0.9165   -0.8871 H   0  0  0  0  0  0  0  0  0  0  0  0
    0.2982   -0.6546   -0.4366 C   0  0  1  0  0  0  0  0  0  0  0  0
    0.9826   -1.2796   -1.0212 H   0  0  0  0  0  0  0  0  0  0  0  0
    0.1765    0.7029   -1.1729 C   0  0  1  0  0  0  0  0  0  0  0  0
    1.1707    1.1645   -1.1554 H   0  0  0  0  0  0  0  0  0  0  0  0
   -0.1863    0.4829   -2.6505 C   0  0  0  0  0  0  0  0  0  0  0  0
   -1.1818    0.0404   -2.7525 H   0  0  0  0  0  0  0  0  0  0  0  0
   -0.1753    1.4369   -3.1872 H   0  0  0  0  0  0  0  0  0  0  0  0
    0.5404   -0.1833   -3.1261 H   0  0  0  0  0  0  0  0  0  0  0  0
   -0.8385    1.6723   -0.5132 C   0  0  0  0  0  0  0  0  0  0  0  0
   -1.6403    1.9195   -1.2168 H   0  0  0  0  0  0  0  0  0  0  0  0
   -1.3137    1.2110    0.3563 H   0  0  0  0  0  0  0  0  0  0  0  0
   -0.1595    2.9696   -0.0720 C   0  0  0  0  0  0  0  0  0  0  0  0
    0.2797    3.4840   -0.9326 H   0  0  0  0  0  0  0  0  0  0  0  0
   -0.8893    3.6368    0.3963 H   0  0  0  0  0  0  0  0  0  0  0  0
    0.6328    2.7590    0.6536 H   0  0  0  0  0  0  0  0  0  0  0  0
    0.9928   -0.4958    0.9370 C   0  0  0  0  0  0  0  0  0  0  0  0
    2.2154   -0.5035    0.9955 O   0  0  0  0  0  0  0  0  0  0  0  0
    0.2781   -0.0902    2.0500 N   0  0  0  0  0  0  0  0  0  0  0  0
   -0.7308   -0.1730    1.9890 H   0  0  0  0  0  0  0  0  0  0  0  0
    0.8903    0.1029    3.3580 C   0  0  0  0  0  0  0  0  0  0  0  0
    1.6733    0.8670    3.3064 H   0  0  0  0  0  0  0  0  0  0  0  0
    0.1384    0.4294    4.0827 H   0  0  0  0  0  0  0  0  0  0  0  0
    1.3340   -0.8330    3.7139 H   0  0  0  0  0  0  0  0  0  0  0  0
  1  2  1  0  0  0  0
  2  3  1  0  0  0  0
  2  4  1  0  0  0  0
  2  5  1  0  0  0  0
  5  6  2  0  0  0  0
  5  7  1  0  0  0  0
  7  8  1  0  0  0  0
  7  9  1  0  0  0  0
  9 10  1  0  0  0  0
  9 11  1  0  0  0  0
  9 24  1  0  0  0  0
 11 12  1  0  0  0  0
 11 13  1  0  0  0  0
 11 17  1  0  0  0  0
 13 14  1  0  0  0  0
 13 15  1  0  0  0  0
 13 16  1  0  0  0  0
 17 18  1  0  0  0  0
 17 19  1  0  0  0  0
 17 20  1  0  0  0  0
 20 21  1  0  0  0  0
 20 22  1  0  0  0  0
 20 23  1  0  0  0  0
 24 25  2  0  0  0  0
 24 26  1  0  0  0  0
 26 27  1  0  0  0  0
 26 28  1  0  0  0  0
 28 29  1  0  0  0  0
 28 30  1  0  0  0  0
 28 31  1  0  0  0  0
M  END
$$$$

  -OEChem-03222214053D

 31 30  0     1  0  0  0  0  0999 V2000
   -2.5014   -4.3286    0.2619 H   0  0  0  0  0  0  0  0  0  0  0  0
   -2.5473   -3.2957   -0.0954 C   0  0  0  0  0  0  0  0  0  0  0  0
   -3.2854   -2.7510    0.4984 H   0  0  0  0  0  0  0  0  0  0  0  0
   -2.8614   -3.3001   -1.1420 H   0  0  0  0  0  0  0  0  0  0  0  0
   -1.1862   -2.6381    0.0360 C   0  0  0  0  0  0  0  0  0  0  0  0
   -0.2590   -3.2558    0.5268 O   0  0  0  0  0  0  0  0  0  0  0  0
   -1.0090   -1.3386   -0.3950 N   0  0  0  0  0  0  0  0  0  0  0  0
   -1.7966   -0.8959   -0.8578 H   0  0  0  0  0  0  0  0  0  0  0  0
    0.2896   -0.6377   -0.4197 C   0  0  1  0  0  0  0  0  0  0  0  0
    0.9736   -1.2625   -1.0055 H   0  0  0  0  0  0  0  0  0  0  0  0
    0.1612    0.7111   -1.1700 C   0  0  1  0  0  0  0  0  0  0  0  0
    1.1527    1.1771   -1.1312 H   0  0  0  0  0  0  0  0  0  0  0  0
   -0.1742    0.4881   -2.6532 C   0  0  0  0  0  0  0  0  0  0  0  0
   -1.1567    0.0217   -2.7715 H   0  0  0  0  0  0  0  0  0  0  0  0
   -0.1785    1.4438   -3.1866 H   0  0  0  0  0  0  0  0  0  0  0  0
    0.5753   -0.1590   -3.1196 H   0  0  0  0  0  0  0  0  0  0  0  0
   -0.8628    1.6825   -0.5315 C   0  0  0  0  0  0  0  0  0  0  0  0
   -1.7890    1.6948   -1.1155 H   0  0  0  0  0  0  0  0  0  0  0  0
   -1.1300    1.3602    0.4772 H   0  0  0  0  0  0  0  0  0  0  0  0
   -0.3005    3.1018   -0.4435 C   0  0  0  0  0  0  0  0  0  0  0  0
   -0.0417    3.4741   -1.4395 H   0  0  0  0  0  0  0  0  0  0  0  0
   -1.0428    3.7743   -0.0034 H   0  0  0  0  0  0  0  0  0  0  0  0
    0.5972    3.1199    0.1829 H   0  0  0  0  0  0  0  0  0  0  0  0
    0.9935   -0.4899    0.9511 C   0  0  0  0  0  0  0  0  0  0  0  0
    2.2166   -0.4970    0.9998 O   0  0  0  0  0  0  0  0  0  0  0  0
    0.2889   -0.0988    2.0757 N   0  0  0  0  0  0  0  0  0  0  0  0
   -0.7196   -0.1929    2.0250 H   0  0  0  0  0  0  0  0  0  0  0  0
    0.9135    0.0590    3.3829 C   0  0  0  0  0  0  0  0  0  0  0  0
    1.7059    0.8138    3.3417 H   0  0  0  0  0  0  0  0  0  0  0  0
    0.1718    0.3793    4.1207 H   0  0  0  0  0  0  0  0  0  0  0  0
    1.3480   -0.8898    3.7148 H   0  0  0  0  0  0  0  0  0  0  0  0
  1  2  1  0  0  0  0
  2  3  1  0  0  0  0
  2  4  1  0  0  0  0
  2  5  1  0  0  0  0
  5  6  2  0  0  0  0
  5  7  1  0  0  0  0
  7  8  1  0  0  0  0
  7  9  1  0  0  0  0
  9 10  1  0  0  0  0
  9 11  1  0  0  0  0
  9 24  1  0  0  0  0
 11 12  1  0  0  0  0
 11 13  1  0  0  0  0
 11 17  1  0  0  0  0
 13 14  1  0  0  0  0
 13 15  1  0  0  0  0
 13 16  1  0  0  0  0
 17 18  1  0  0  0  0
 17 19  1  0  0  0  0
 17 20  1  0  0  0  0
 20 21  1  0  0  0  0
 20 22  1  0  0  0  0
 20 23  1  0  0  0  0
 24 25  2  0  0  0  0
 24 26  1  0  0  0  0
 26 27  1  0  0  0  0
 26 28  1  0  0  0  0
 28 29  1  0  0  0  0
 28 30  1  0  0  0  0
 28 31  1  0  0  0  0
M  END
$$$$

  -OEChem-03222214053D

 31 30  0     1  0  0  0  0  0999 V2000
   -2.4971   -4.3242    0.2589 H   0  0  0  0  0  0  0  0  0  0  0  0
   -2.5437   -3.2898   -0.0937 C   0  0  0  0  0  0  0  0  0  0  0  0
   -3.2796   -2.7474    0.5047 H   0  0  0  0  0  0  0  0  0  0  0  0
   -2.8606   -3.2893   -1.1395 H   0  0  0  0  0  0  0  0  0  0  0  0
   -1.1822   -2.6328    0.0353 C   0  0  0  0  0  0  0  0  0  0  0  0
   -0.2522   -3.2535    0.5169 O   0  0  0  0  0  0  0  0  0  0  0  0
   -1.0092   -1.3298   -0.3867 N   0  0  0  0  0  0  0  0  0  0  0  0
   -1.8004   -0.8862   -0.8424 H   0  0  0  0  0  0  0  0  0  0  0  0
    0.2871   -0.6247   -0.4131 C   0  0  1  0  0  0  0  0  0  0  0  0
    0.9709   -1.2483   -1.0007 H   0  0  0  0  0  0  0  0  0  0  0  0
    0.1555    0.7218   -1.1693 C   0  0  1  0  0  0  0  0  0  0  0  0
    1.1434    1.1950   -1.1278 H   0  0  0  0  0  0  0  0  0  0  0  0
   -0.1781    0.4831   -2.6518 C   0  0  0  0  0  0  0  0  0  0  0  0
   -1.1672    0.0294   -2.7663 H   0  0  0  0  0  0  0  0  0  0  0  0
   -0.1664    1.4275   -3.2041 H   0  0  0  0  0  0  0  0  0  0  0  0
    0.5629   -0.1827   -3.1052 H   0  0  0  0  0  0  0  0  0  0  0  0
   -0.8707    1.6912   -0.5361 C   0  0  0  0  0  0  0  0  0  0  0  0
   -1.8703    1.4988   -0.9390 H   0  0  0  0  0  0  0  0  0  0  0  0
   -0.9241    1.5422    0.5438 H   0  0  0  0  0  0  0  0  0  0  0  0
   -0.4880    3.1528   -0.7793 C   0  0  0  0  0  0  0  0  0  0  0  0
   -0.4579    3.3736   -1.8503 H   0  0  0  0  0  0  0  0  0  0  0  0
   -1.2223    3.8150   -0.3109 H   0  0  0  0  0  0  0  0  0  0  0  0
    0.4952    3.3684   -0.3489 H   0  0  0  0  0  0  0  0  0  0  0  0
    0.9936   -0.4876    0.9574 C   0  0  0  0  0  0  0  0  0  0  0  0
    2.2168   -0.4890    1.0026 O   0  0  0  0  0  0  0  0  0  0  0  0
    0.2902   -0.1088    2.0871 N   0  0  0  0  0  0  0  0  0  0  0  0
   -0.7177   -0.2111    2.0387 H   0  0  0  0  0  0  0  0  0  0  0  0
    0.9176    0.0377    3.3944 C   0  0  0  0  0  0  0  0  0  0  0  0
    1.7096    0.7932    3.3576 H   0  0  0  0  0  0  0  0  0  0  0  0
    0.1775    0.3517    4.1364 H   0  0  0  0  0  0  0  0  0  0  0  0
    1.3531   -0.9137    3.7177 H   0  0  0  0  0  0  0  0  0  0  0  0
  1  2  1  0  0  0  0
  2  3  1  0  0  0  0
  2  4  1  0  0  0  0
  2  5  1  0  0  0  0
  5  6  2  0  0  0  0
  5  7  1  0  0  0  0
  7  8  1  0  0  0  0
  7  9  1  0  0  0  0
  9 10  1  0  0  0  0
  9 11  1  0  0  0  0
  9 24  1  0  0  0  0
 11 12  1  0  0  0  0
 11 13  1  0  0  0  0
 11 17  1  0  0  0  0
 13 14  1  0  0  0  0
 13 15  1  0  0  0  0
 13 16  1  0  0  0  0
 17 18  1  0  0  0  0
 17 19  1  0  0  0  0
 17 20  1  0  0  0  0
 20 21  1  0  0  0  0
 20 22  1  0  0  0  0
 20 23  1  0  0  0  0
 24 25  2  0  0  0  0
 24 26  1  0  0  0  0
 26 27  1  0  0  0  0
 26 28  1  0  0  0  0
 28 29  1  0  0  0  0
 28 30  1  0  0  0  0
 28 31  1  0  0  0  0
M  END
$$$$

  -OEChem-03222214053D

 31 30  0     1  0  0  0  0  0999 V2000
   -2.4889   -4.3250    0.2616 H   0  0  0  0  0  0  0  0  0  0  0  0
   -2.5372   -3.2929   -0.0970 C   0  0  0  0  0  0  0  0  0  0  0  0
   -3.2796   -2.7501    0.4929 H   0  0  0  0  0  0  0  0  0  0  0  0
   -2.8467   -3.3002   -1.1449 H   0  0  0  0  0  0  0  0  0  0  0  0
   -1.1794   -2.6301    0.0393 C   0  0  0  0  0  0  0  0  0  0  0  0
   -0.2506   -3.2456    0.5299 O   0  0  0  0  0  0  0  0  0  0  0  0
   -1.0077   -1.3288   -0.3887 N   0  0  0  0  0  0  0  0  0  0  0  0
   -1.7962   -0.8921   -0.8557 H   0  0  0  0  0  0  0  0  0  0  0  0
    0.2896   -0.6250   -0.4203 C   0  0  1  0  0  0  0  0  0  0  0  0
    0.9725   -1.2505   -1.0067 H   0  0  0  0  0  0  0  0  0  0  0  0
    0.1591    0.7244   -1.1735 C   0  0  1  0  0  0  0  0  0  0  0  0
    1.1448    1.2027   -1.1390 H   0  0  0  0  0  0  0  0  0  0  0  0
   -0.1834    0.4718   -2.6529 C   0  0  0  0  0  0  0  0  0  0  0  0
   -1.2003    0.0827   -2.7605 H   0  0  0  0  0  0  0  0  0  0  0  0
   -0.1032    1.3960   -3.2317 H   0  0  0  0  0  0  0  0  0  0  0  0
    0.5128   -0.2528   -3.0868 H   0  0  0  0  0  0  0  0  0  0  0  0
   -0.8636    1.6876   -0.5245 C   0  0  0  0  0  0  0  0  0  0  0  0
   -1.8835    1.3338   -0.7048 H   0  0  0  0  0  0  0  0  0  0  0  0
   -0.7112    1.7182    0.5565 H   0  0  0  0  0  0  0  0  0  0  0  0
   -0.7222    3.1221   -1.0411 C   0  0  0  0  0  0  0  0  0  0  0  0
   -0.9757    3.1846   -2.1029 H   0  0  0  0  0  0  0  0  0  0  0  0
   -1.3970    3.7843   -0.4904 H   0  0  0  0  0  0  0  0  0  0  0  0
    0.3024    3.4808   -0.9018 H   0  0  0  0  0  0  0  0  0  0  0  0
    0.9935   -0.4861    0.9511 C   0  0  0  0  0  0  0  0  0  0  0  0
    2.2166   -0.4898    1.0000 O   0  0  0  0  0  0  0  0  0  0  0  0
    0.2863   -0.1033    2.0771 N   0  0  0  0  0  0  0  0  0  0  0  0
   -0.7224   -0.1934    2.0223 H   0  0  0  0  0  0  0  0  0  0  0  0
    0.9077    0.0501    3.3865 C   0  0  0  0  0  0  0  0  0  0  0  0
    1.6947    0.8108    3.3515 H   0  0  0  0  0  0  0  0  0  0  0  0
    0.1622    0.3603    4.1247 H   0  0  0  0  0  0  0  0  0  0  0  0
    1.3481   -0.8976    3.7135 H   0  0  0  0  0  0  0  0  0  0  0  0
  1  2  1  0  0  0  0
  2  3  1  0  0  0  0
  2  4  1  0  0  0  0
  2  5  1  0  0  0  0
  5  6  2  0  0  0  0
  5  7  1  0  0  0  0
  7  8  1  0  0  0  0
  7  9  1  0  0  0  0
  9 10  1  0  0  0  0
  9 11  1  0  0  0  0
  9 24  1  0  0  0  0
 11 12  1  0  0  0  0
 11 13  1  0  0  0  0
 11 17  1  0  0  0  0
 13 14  1  0  0  0  0
 13 15  1  0  0  0  0
 13 16  1  0  0  0  0
 17 18  1  0  0  0  0
 17 19  1  0  0  0  0
 17 20  1  0  0  0  0
 20 21  1  0  0  0  0
 20 22  1  0  0  0  0
 20 23  1  0  0  0  0
 24 25  2  0  0  0  0
 24 26  1  0  0  0  0
 26 27  1  0  0  0  0
 26 28  1  0  0  0  0
 28 29  1  0  0  0  0
 28 30  1  0  0  0  0
 28 31  1  0  0  0  0
M  END
$$$$

  -OEChem-03222214053D

 31 30  0     1  0  0  0  0  0999 V2000
   -2.4962   -4.3158    0.2757 H   0  0  0  0  0  0  0  0  0  0  0  0
   -2.5439   -3.2818   -0.0779 C   0  0  0  0  0  0  0  0  0  0  0  0
   -3.2753   -2.7379    0.5244 H   0  0  0  0  0  0  0  0  0  0  0  0
   -2.8685   -3.2831   -1.1212 H   0  0  0  0  0  0  0  0  0  0  0  0
   -1.1808   -2.6262    0.0414 C   0  0  0  0  0  0  0  0  0  0  0  0
   -0.2460   -3.2509    0.5084 O   0  0  0  0  0  0  0  0  0  0  0  0
   -1.0108   -1.3209   -0.3756 N   0  0  0  0  0  0  0  0  0  0  0  0
   -1.8069   -0.8738   -0.8191 H   0  0  0  0  0  0  0  0  0  0  0  0
    0.2863   -0.6158   -0.4119 C   0  0  1  0  0  0  0  0  0  0  0  0
    0.9595   -1.2438   -1.0069 H   0  0  0  0  0  0  0  0  0  0  0  0
    0.1626    0.7303   -1.1771 C   0  0  1  0  0  0  0  0  0  0  0  0
    1.1846    1.0845   -1.3548 H   0  0  0  0  0  0  0  0  0  0  0  0
   -0.4877    0.5100   -2.5566 C   0  0  0  0  0  0  0  0  0  0  0  0
   -1.5654    0.3472   -2.4624 H   0  0  0  0  0  0  0  0  0  0  0  0
   -0.3241    1.3783   -3.2016 H   0  0  0  0  0  0  0  0  0  0  0  0
   -0.0447   -0.3596   -3.0525 H   0  0  0  0  0  0  0  0  0  0  0  0
   -0.5618    1.8238   -0.3562 C   0  0  0  0  0  0  0  0  0  0  0  0
   -1.5595    1.4758   -0.0717 H   0  0  0  0  0  0  0  0  0  0  0  0
   -0.0002    2.0187    0.5619 H   0  0  0  0  0  0  0  0  0  0  0  0
   -0.6890    3.1551   -1.1027 C   0  0  0  0  0  0  0  0  0  0  0  0
   -1.3686    3.0648   -1.9551 H   0  0  0  0  0  0  0  0  0  0  0  0
   -1.0876    3.9218   -0.4314 H   0  0  0  0  0  0  0  0  0  0  0  0
    0.2896    3.4868   -1.4634 H   0  0  0  0  0  0  0  0  0  0  0  0
    0.9982   -0.4915    0.9562 C   0  0  0  0  0  0  0  0  0  0  0  0
    2.2214   -0.4895    1.0006 O   0  0  0  0  0  0  0  0  0  0  0  0
    0.2909   -0.1203    2.0864 N   0  0  0  0  0  0  0  0  0  0  0  0
   -0.7179   -0.2087    2.0304 H   0  0  0  0  0  0  0  0  0  0  0  0
    0.9121    0.0217    3.3971 C   0  0  0  0  0  0  0  0  0  0  0  0
    1.7014    0.7802    3.3684 H   0  0  0  0  0  0  0  0  0  0  0  0
    0.1671    0.3288    4.1370 H   0  0  0  0  0  0  0  0  0  0  0  0
    1.3497   -0.9295    3.7181 H   0  0  0  0  0  0  0  0  0  0  0  0
  1  2  1  0  0  0  0
  2  3  1  0  0  0  0
  2  4  1  0  0  0  0
  2  5  1  0  0  0  0
  5  6  2  0  0  0  0
  5  7  1  0  0  0  0
  7  8  1  0  0  0  0
  7  9  1  0  0  0  0
  9 10  1  0  0  0  0
  9 11  1  0  0  0  0
  9 24  1  0  0  0  0
 11 12  1  0  0  0  0
 11 13  1  0  0  0  0
 11 17  1  0  0  0  0
 13 14  1  0  0  0  0
 13 15  1  0  0  0  0
 13 16  1  0  0  0  0
 17 18  1  0  0  0  0
 17 19  1  0  0  0  0
 17 20  1  0  0  0  0
 20 21  1  0  0  0  0
 20 22  1  0  0  0  0
 20 23  1  0  0  0  0
 24 25  2  0  0  0  0
 24 26  1  0  0  0  0
 26 27  1  0  0  0  0
 26 28  1  0  0  0  0
 28 29  1  0  0  0  0
 28 30  1  0  0  0  0
 28 31  1  0  0  0  0
M  END
$$$$

  -OEChem-03222214053D

 31 30  0     1  0  0  0  0  0999 V2000
   -2.5051   -4.3169    0.2823 H   0  0  0  0  0  0  0  0  0  0  0  0
   -2.5503   -3.2850   -0.0774 C   0  0  0  0  0  0  0  0  0  0  0  0
   -3.2859   -2.7374    0.5165 H   0  0  0  0  0  0  0  0  0  0  0  0
   -2.8673   -3.2920   -1.1231 H   0  0  0  0  0  0  0  0  0  0  0  0
   -1.1883   -2.6284    0.0483 C   0  0  0  0  0  0  0  0  0  0  0  0
   -0.2579   -3.2475    0.5313 O   0  0  0  0  0  0  0  0  0  0  0  0
   -1.0139   -1.3288   -0.3839 N   0  0  0  0  0  0  0  0  0  0  0  0
   -1.8053   -0.8879   -0.8419 H   0  0  0  0  0  0  0  0  0  0  0  0
    0.2856   -0.6280   -0.4250 C   0  0  1  0  0  0  0  0  0  0  0  0
    0.9580   -1.2596   -1.0169 H   0  0  0  0  0  0  0  0  0  0  0  0
    0.1674    0.7204   -1.1854 C   0  0  1  0  0  0  0  0  0  0  0  0
    1.1862    1.0793   -1.3703 H   0  0  0  0  0  0  0  0  0  0  0  0
   -0.4827    0.4925   -2.5647 C   0  0  0  0  0  0  0  0  0  0  0  0
   -1.5569    0.3083   -2.4697 H   0  0  0  0  0  0  0  0  0  0  0  0
   -0.3365    1.3659   -3.2073 H   0  0  0  0  0  0  0  0  0  0  0  0
   -0.0245   -0.3669   -3.0643 H   0  0  0  0  0  0  0  0  0  0  0  0
   -0.5507    1.8047   -0.3429 C   0  0  0  0  0  0  0  0  0  0  0  0
   -1.4272    1.3691    0.1465 H   0  0  0  0  0  0  0  0  0  0  0  0
    0.1304    2.1504    0.4417 H   0  0  0  0  0  0  0  0  0  0  0  0
   -1.0155    3.0237   -1.1460 C   0  0  0  0  0  0  0  0  0  0  0  0
   -1.8129    2.7555   -1.8453 H   0  0  0  0  0  0  0  0  0  0  0  0
   -1.4038    3.7892   -0.4674 H   0  0  0  0  0  0  0  0  0  0  0  0
   -0.1794    3.4522   -1.7075 H   0  0  0  0  0  0  0  0  0  0  0  0
    0.9967   -0.4878    0.9418 C   0  0  0  0  0  0  0  0  0  0  0  0
    2.2198   -0.4873    0.9866 O   0  0  0  0  0  0  0  0  0  0  0  0
    0.2902   -0.0998    2.0666 N   0  0  0  0  0  0  0  0  0  0  0  0
   -0.7186   -0.1880    2.0123 H   0  0  0  0  0  0  0  0  0  0  0  0
    0.9129    0.0571    3.3750 C   0  0  0  0  0  0  0  0  0  0  0  0
    1.7012    0.8165    3.3365 H   0  0  0  0  0  0  0  0  0  0  0  0
    0.1687    0.3708    4.1132 H   0  0  0  0  0  0  0  0  0  0  0  0
    1.3522   -0.8904    3.7047 H   0  0  0  0  0  0  0  0  0  0  0  0
  1  2  1  0  0  0  0
  2  3  1  0  0  0  0
  2  4  1  0  0  0  0
  2  5  1  0  0  0  0
  5  6  2  0  0  0  0
  5  7  1  0  0  0  0
  7  8  1  0  0  0  0
  7  9  1  0  0  0  0
  9 10  1  0  0  0  0
  9 11  1  0  0  0  0
  9 24  1  0  0  0  0
 11 12  1  0  0  0  0
 11 13  1  0  0  0  0
 11 17  1  0  0  0  0
 13 14  1  0  0  0  0
 13 15  1  0  0  0  0
 13 16  1  0  0  0  0
 17 18  1  0  0  0  0
 17 19  1  0  0  0  0
 17 20  1  0  0  0  0
 20 21  1  0  0  0  0
 20 22  1  0  0  0  0
 20 23  1  0  0  0  0
 24 25  2  0  0  0  0
 24 26  1  0  0  0  0
 26 27  1  0  0  0  0
 26 28  1  0  0  0  0
 28 29  1  0  0  0  0
 28 30  1  0  0  0  0
 28 31  1  0  0  0  0
M  END
$$$$

  -OEChem-03222214053D

 31 30  0     1  0  0  0  0  0999 V2000
   -2.5135   -4.3205    0.2912 H   0  0  0  0  0  0  0  0  0  0  0  0
   -2.5593   -3.2900   -0.0726 C   0  0  0  0  0  0  0  0  0  0  0  0
   -3.2948   -2.7406    0.5198 H   0  0  0  0  0  0  0  0  0  0  0  0
   -2.8765   -3.3008   -1.1181 H   0  0  0  0  0  0  0  0  0  0  0  0
   -1.1974   -2.6328    0.0503 C   0  0  0  0  0  0  0  0  0  0  0  0
   -0.2680   -3.2496    0.5381 O   0  0  0  0  0  0  0  0  0  0  0  0
   -1.0234   -1.3339   -0.3837 N   0  0  0  0  0  0  0  0  0  0  0  0
   -1.8150   -0.8930   -0.8416 H   0  0  0  0  0  0  0  0  0  0  0  0
    0.2764   -0.6342   -0.4262 C   0  0  1  0  0  0  0  0  0  0  0  0
    0.9470   -1.2682   -1.0178 H   0  0  0  0  0  0  0  0  0  0  0  0
    0.1629    0.7141   -1.1878 C   0  0  1  0  0  0  0  0  0  0  0  0
    1.1828    1.0739   -1.3653 H   0  0  0  0  0  0  0  0  0  0  0  0
   -0.4629    0.4769   -2.5780 C   0  0  0  0  0  0  0  0  0  0  0  0
   -1.5298    0.2476   -2.5009 H   0  0  0  0  0  0  0  0  0  0  0  0
   -0.3423    1.3622   -3.2096 H   0  0  0  0  0  0  0  0  0  0  0  0
    0.0348   -0.3586   -3.0804 H   0  0  0  0  0  0  0  0  0  0  0  0
   -0.5552    1.8028   -0.3435 C   0  0  0  0  0  0  0  0  0  0  0  0
   -1.2716    1.3260    0.3322 H   0  0  0  0  0  0  0  0  0  0  0  0
    0.1908    2.3122    0.2761 H   0  0  0  0  0  0  0  0  0  0  0  0
   -1.3352    2.8516   -1.1441 C   0  0  0  0  0  0  0  0  0  0  0  0
   -2.1756    2.3977   -1.6773 H   0  0  0  0  0  0  0  0  0  0  0  0
   -1.7353    3.6121   -0.4665 H   0  0  0  0  0  0  0  0  0  0  0  0
   -0.6793    3.3478   -1.8660 H   0  0  0  0  0  0  0  0  0  0  0  0
    0.9944   -0.4893    0.9371 C   0  0  0  0  0  0  0  0  0  0  0  0
    2.2178   -0.4871    0.9744 O   0  0  0  0  0  0  0  0  0  0  0  0
    0.2957   -0.0976    2.0654 N   0  0  0  0  0  0  0  0  0  0  0  0
   -0.7130   -0.1937    2.0207 H   0  0  0  0  0  0  0  0  0  0  0  0
    0.9276    0.0697    3.3678 C   0  0  0  0  0  0  0  0  0  0  0  0
    1.7120    0.8323    3.3186 H   0  0  0  0  0  0  0  0  0  0  0  0
    0.1877    0.3849    4.1096 H   0  0  0  0  0  0  0  0  0  0  0  0
    1.3732   -0.8741    3.6993 H   0  0  0  0  0  0  0  0  0  0  0  0
  1  2  1  0  0  0  0
  2  3  1  0  0  0  0
  2  4  1  0  0  0  0
  2  5  1  0  0  0  0
  5  6  2  0  0  0  0
  5  7  1  0  0  0  0
  7  8  1  0  0  0  0
  7  9  1  0  0  0  0
  9 10  1  0  0  0  0
  9 11  1  0  0  0  0
  9 24  1  0  0  0  0
 11 12  1  0  0  0  0
 11 13  1  0  0  0  0
 11 17  1  0  0  0  0
 13 14  1  0  0  0  0
 13 15  1  0  0  0  0
 13 16  1  0  0  0  0
 17 18  1  0  0  0  0
 17 19  1  0  0  0  0
 17 20  1  0  0  0  0
 20 21  1  0  0  0  0
 20 22  1  0  0  0  0
 20 23  1  0  0  0  0
 24 25  2  0  0  0  0
 24 26  1  0  0  0  0
 26 27  1  0  0  0  0
 26 28  1  0  0  0  0
 28 29  1  0  0  0  0
 28 30  1  0  0  0  0
 28 31  1  0  0  0  0
M  END
$$$$

  -OEChem-03222214053D

 31 30  0     1  0  0  0  0  0999 V2000
   -2.5183   -4.3225    0.2924 H   0  0  0  0  0  0  0  0  0  0  0  0
   -2.5681   -3.2900   -0.0652 C   0  0  0  0  0  0  0  0  0  0  0  0
   -3.2984   -2.7443    0.5370 H   0  0  0  0  0  0  0  0  0  0  0  0
   -2.8949   -3.2953   -1.1078 H   0  0  0  0  0  0  0  0  0  0  0  0
   -1.2054   -2.6332    0.0485 C   0  0  0  0  0  0  0  0  0  0  0  0
   -0.2685   -3.2552    0.5149 O   0  0  0  0  0  0  0  0  0  0  0  0
   -1.0373   -1.3283   -0.3693 N   0  0  0  0  0  0  0  0  0  0  0  0
   -1.8358   -0.8781   -0.8059 H   0  0  0  0  0  0  0  0  0  0  0  0
    0.2599   -0.6251   -0.4091 C   0  0  1  0  0  0  0  0  0  0  0  0
    0.9272   -1.2597   -1.0038 H   0  0  0  0  0  0  0  0  0  0  0  0
    0.1455    0.7167   -1.1813 C   0  0  1  0  0  0  0  0  0  0  0  0
    1.1688    1.0767   -1.3376 H   0  0  0  0  0  0  0  0  0  0  0  0
   -0.4326    0.4632   -2.5893 C   0  0  0  0  0  0  0  0  0  0  0  0
   -1.4870    0.1759   -2.5459 H   0  0  0  0  0  0  0  0  0  0  0  0
   -0.3397    1.3595   -3.2099 H   0  0  0  0  0  0  0  0  0  0  0  0
    0.1207   -0.3410   -3.0848 H   0  0  0  0  0  0  0  0  0  0  0  0
   -0.5823    1.8221   -0.3610 C   0  0  0  0  0  0  0  0  0  0  0  0
   -1.1014    1.3687    0.4870 H   0  0  0  0  0  0  0  0  0  0  0  0
    0.1708    2.5044    0.0478 H   0  0  0  0  0  0  0  0  0  0  0  0
   -1.6356    2.6407   -1.1169 C   0  0  0  0  0  0  0  0  0  0  0  0
   -2.4526    2.0032   -1.4674 H   0  0  0  0  0  0  0  0  0  0  0  0
   -2.0599    3.3990   -0.4519 H   0  0  0  0  0  0  0  0  0  0  0  0
   -1.1873    3.1533   -1.9735 H   0  0  0  0  0  0  0  0  0  0  0  0
    0.9930   -0.4910    0.9481 C   0  0  0  0  0  0  0  0  0  0  0  0
    2.2169   -0.4872    0.9679 O   0  0  0  0  0  0  0  0  0  0  0  0
    0.3123   -0.1138    2.0924 N   0  0  0  0  0  0  0  0  0  0  0  0
   -0.6972   -0.2077    2.0633 H   0  0  0  0  0  0  0  0  0  0  0  0
    0.9647    0.0415    3.3863 C   0  0  0  0  0  0  0  0  0  0  0  0
    1.7496    0.8033    3.3311 H   0  0  0  0  0  0  0  0  0  0  0  0
    0.2372    0.3518    4.1422 H   0  0  0  0  0  0  0  0  0  0  0  0
    1.4138   -0.9057    3.7033 H   0  0  0  0  0  0  0  0  0  0  0  0
  1  2  1  0  0  0  0
  2  3  1  0  0  0  0
  2  4  1  0  0  0  0
  2  5  1  0  0  0  0
  5  6  2  0  0  0  0
  5  7  1  0  0  0  0
  7  8  1  0  0  0  0
  7  9  1  0  0  0  0
  9 10  1  0  0  0  0
  9 11  1  0  0  0  0
  9 24  1  0  0  0  0
 11 12  1  0  0  0  0
 11 13  1  0  0  0  0
 11 17  1  0  0  0  0
 13 14  1  0  0  0  0
 13 15  1  0  0  0  0
 13 16  1  0  0  0  0
 17 18  1  0  0  0  0
 17 19  1  0  0  0  0
 17 20  1  0  0  0  0
 20 21  1  0  0  0  0
 20 22  1  0  0  0  0
 20 23  1  0  0  0  0
 24 25  2  0  0  0  0
 24 26  1  0  0  0  0
 26 27  1  0  0  0  0
 26 28  1  0  0  0  0
 28 29  1  0  0  0  0
 28 30  1  0  0  0  0
 28 31  1  0  0  0  0
M  END
$$$$

  -OEChem-03222214053D

 31 30  0     1  0  0  0  0  0999 V2000
   -2.5207   -4.3234    0.2856 H   0  0  0  0  0  0  0  0  0  0  0  0
   -2.5729   -3.2866   -0.0589 C   0  0  0  0  0  0  0  0  0  0  0  0
   -3.2996   -2.7484    0.5544 H   0  0  0  0  0  0  0  0  0  0  0  0
   -2.9060   -3.2793   -1.0995 H   0  0  0  0  0  0  0  0  0  0  0  0
   -1.2098   -2.6304    0.0537 C   0  0  0  0  0  0  0  0  0  0  0  0
   -0.2683   -3.2589    0.5020 O   0  0  0  0  0  0  0  0  0  0  0  0
   -1.0469   -1.3194   -0.3462 N   0  0  0  0  0  0  0  0  0  0  0  0
   -1.8518   -0.8605   -0.7613 H   0  0  0  0  0  0  0  0  0  0  0  0
    0.2473   -0.6125   -0.3859 C   0  0  1  0  0  0  0  0  0  0  0  0
    0.9113   -1.2473   -0.9845 H   0  0  0  0  0  0  0  0  0  0  0  0
    0.1245    0.7206   -1.1716 C   0  0  1  0  0  0  0  0  0  0  0  0
    1.1520    1.0788   -1.3036 H   0  0  0  0  0  0  0  0  0  0  0  0
   -0.4103    0.4609   -2.5950 C   0  0  0  0  0  0  0  0  0  0  0  0
   -1.4534    0.1332   -2.5822 H   0  0  0  0  0  0  0  0  0  0  0  0
   -0.3354    1.3685   -3.2015 H   0  0  0  0  0  0  0  0  0  0  0  0
    0.1849   -0.3166   -3.0844 H   0  0  0  0  0  0  0  0  0  0  0  0
   -0.6115    1.8452   -0.3842 C   0  0  0  0  0  0  0  0  0  0  0  0
   -0.8903    1.4929    0.6098 H   0  0  0  0  0  0  0  0  0  0  0  0
    0.0856    2.6781   -0.2433 H   0  0  0  0  0  0  0  0  0  0  0  0
   -1.8874    2.3939   -1.0337 C   0  0  0  0  0  0  0  0  0  0  0  0
   -2.6272    1.5994   -1.1687 H   0  0  0  0  0  0  0  0  0  0  0  0
   -2.3269    3.1628   -0.3909 H   0  0  0  0  0  0  0  0  0  0  0  0
   -1.6689    2.8499   -2.0038 H   0  0  0  0  0  0  0  0  0  0  0  0
    0.9961   -0.4923    0.9645 C   0  0  0  0  0  0  0  0  0  0  0  0
    2.2202   -0.4879    0.9689 O   0  0  0  0  0  0  0  0  0  0  0  0
    0.3319   -0.1324    2.1240 N   0  0  0  0  0  0  0  0  0  0  0  0
   -0.6773   -0.2330    2.1093 H   0  0  0  0  0  0  0  0  0  0  0  0
    1.0043   -0.0020    3.4106 C   0  0  0  0  0  0  0  0  0  0  0  0
    1.7864    0.7628    3.3592 H   0  0  0  0  0  0  0  0  0  0  0  0
    0.2882    0.2902    4.1843 H   0  0  0  0  0  0  0  0  0  0  0  0
    1.4611   -0.9540    3.7010 H   0  0  0  0  0  0  0  0  0  0  0  0
  1  2  1  0  0  0  0
  2  3  1  0  0  0  0
  2  4  1  0  0  0  0
  2  5  1  0  0  0  0
  5  6  2  0  0  0  0
  5  7  1  0  0  0  0
  7  8  1  0  0  0  0
  7  9  1  0  0  0  0
  9 10  1  0  0  0  0
  9 11  1  0  0  0  0
  9 24  1  0  0  0  0
 11 12  1  0  0  0  0
 11 13  1  0  0  0  0
 11 17  1  0  0  0  0
 13 14  1  0  0  0  0
 13 15  1  0  0  0  0
 13 16  1  0  0  0  0
 17 18  1  0  0  0  0
 17 19  1  0  0  0  0
 17 20  1  0  0  0  0
 20 21  1  0  0  0  0
 20 22  1  0  0  0  0
 20 23  1  0  0  0  0
 24 25  2  0  0  0  0
 24 26  1  0  0  0  0
 26 27  1  0  0  0  0
 26 28  1  0  0  0  0
 28 29  1  0  0  0  0
 28 30  1  0  0  0  0
 28 31  1  0  0  0  0
M  END
$$$$

  -OEChem-03222214053D

 31 30  0     1  0  0  0  0  0999 V2000
   -2.5134   -4.3258    0.3043 H   0  0  0  0  0  0  0  0  0  0  0  0
   -2.5679   -3.2892   -0.0405 C   0  0  0  0  0  0  0  0  0  0  0  0
   -3.2888   -2.7506    0.5790 H   0  0  0  0  0  0  0  0  0  0  0  0
   -2.9099   -3.2822   -1.0782 H   0  0  0  0  0  0  0  0  0  0  0  0
   -1.2032   -2.6340    0.0604 C   0  0  0  0  0  0  0  0  0  0  0  0
   -0.2575   -3.2654    0.4957 O   0  0  0  0  0  0  0  0  0  0  0  0
   -1.0431   -1.3209   -0.3344 N   0  0  0  0  0  0  0  0  0  0  0  0
   -1.8512   -0.8599   -0.7408 H   0  0  0  0  0  0  0  0  0  0  0  0
    0.2499   -0.6121   -0.3795 C   0  0  1  0  0  0  0  0  0  0  0  0
    0.9122   -1.2446   -0.9821 H   0  0  0  0  0  0  0  0  0  0  0  0
    0.1185    0.7187   -1.1680 C   0  0  1  0  0  0  0  0  0  0  0  0
    1.1479    1.0749   -1.2908 H   0  0  0  0  0  0  0  0  0  0  0  0
   -0.4091    0.4694   -2.5943 C   0  0  0  0  0  0  0  0  0  0  0  0
   -1.4392    0.1022   -2.5872 H   0  0  0  0  0  0  0  0  0  0  0  0
   -0.3716    1.3944   -3.1780 H   0  0  0  0  0  0  0  0  0  0  0  0
    0.2143   -0.2741   -3.1010 H   0  0  0  0  0  0  0  0  0  0  0  0
   -0.6140    1.8557   -0.3997 C   0  0  0  0  0  0  0  0  0  0  0  0
   -0.6325    1.6562    0.6718 H   0  0  0  0  0  0  0  0  0  0  0  0
   -0.0393    2.7781   -0.5354 H   0  0  0  0  0  0  0  0  0  0  0  0
   -2.0497    2.1368   -0.8584 C   0  0  0  0  0  0  0  0  0  0  0  0
   -2.6643    1.2359   -0.7730 H   0  0  0  0  0  0  0  0  0  0  0  0
   -2.4925    2.9155   -0.2299 H   0  0  0  0  0  0  0  0  0  0  0  0
   -2.0718    2.4877   -1.8944 H   0  0  0  0  0  0  0  0  0  0  0  0
    1.0008   -0.5014    0.9700 C   0  0  0  0  0  0  0  0  0  0  0  0
    2.2249   -0.4950    0.9729 O   0  0  0  0  0  0  0  0  0  0  0  0
    0.3363   -0.1504    2.1318 N   0  0  0  0  0  0  0  0  0  0  0  0
   -0.6736   -0.2432    2.1138 H   0  0  0  0  0  0  0  0  0  0  0  0
    1.0080   -0.0267    3.4191 C   0  0  0  0  0  0  0  0  0  0  0  0
    1.7895    0.7391    3.3719 H   0  0  0  0  0  0  0  0  0  0  0  0
    0.2913    0.2606    4.1941 H   0  0  0  0  0  0  0  0  0  0  0  0
    1.4656   -0.9801    3.7038 H   0  0  0  0  0  0  0  0  0  0  0  0
  1  2  1  0  0  0  0
  2  3  1  0  0  0  0
  2  4  1  0  0  0  0
  2  5  1  0  0  0  0
  5  6  2  0  0  0  0
  5  7  1  0  0  0  0
  7  8  1  0  0  0  0
  7  9  1  0  0  0  0
  9 10  1  0  0  0  0
  9 11  1  0  0  0  0
  9 24  1  0  0  0  0
 11 12  1  0  0  0  0
 11 13  1  0  0  0  0
 11 17  1  0  0  0  0
 13 14  1  0  0  0  0
 13 15  1  0  0  0  0
 13 16  1  0  0  0  0
 17 18  1  0  0  0  0
 17 19  1  0  0  0  0
 17 20  1  0  0  0  0
 20 21  1  0  0  0  0
 20 22  1  0  0  0  0
 20 23  1  0  0  0  0
 24 25  2  0  0  0  0
 24 26  1  0  0  0  0
 26 27  1  0  0  0  0
 26 28  1  0  0  0  0
 28 29  1  0  0  0  0
 28 30  1  0  0  0  0
 28 31  1  0  0  0  0
M  END
$$$$

  -OEChem-03222214053D

 31 30  0     1  0  0  0  0  0999 V2000
   -2.4923   -4.3395    0.3293 H   0  0  0  0  0  0  0  0  0  0  0  0
   -2.5491   -3.3058   -0.0236 C   0  0  0  0  0  0  0  0  0  0  0  0
   -3.2682   -2.7628    0.5940 H   0  0  0  0  0  0  0  0  0  0  0  0
   -2.8948   -3.3073   -1.0600 H   0  0  0  0  0  0  0  0  0  0  0  0
   -1.1849   -2.6488    0.0674 C   0  0  0  0  0  0  0  0  0  0  0  0
   -0.2375   -3.2755    0.5054 O   0  0  0  0  0  0  0  0  0  0  0  0
   -1.0282   -1.3387   -0.3385 N   0  0  0  0  0  0  0  0  0  0  0  0
   -1.8377   -0.8835   -0.7484 H   0  0  0  0  0  0  0  0  0  0  0  0
    0.2628   -0.6267   -0.3918 C   0  0  1  0  0  0  0  0  0  0  0  0
    0.9271   -1.2559   -0.9956 H   0  0  0  0  0  0  0  0  0  0  0  0
    0.1291    0.7103   -1.1718 C   0  0  1  0  0  0  0  0  0  0  0  0
    1.1583    1.0628   -1.3058 H   0  0  0  0  0  0  0  0  0  0  0  0
   -0.4281    0.4825   -2.5892 C   0  0  0  0  0  0  0  0  0  0  0  0
   -1.4473    0.0868   -2.5663 H   0  0  0  0  0  0  0  0  0  0  0  0
   -0.4339    1.4240   -3.1474 H   0  0  0  0  0  0  0  0  0  0  0  0
    0.2022   -0.2300   -3.1307 H   0  0  0  0  0  0  0  0  0  0  0  0
   -0.5911    1.8519   -0.4047 C   0  0  0  0  0  0  0  0  0  0  0  0
   -0.3655    1.8087    0.6616 H   0  0  0  0  0  0  0  0  0  0  0  0
   -0.1852    2.8028   -0.7657 H   0  0  0  0  0  0  0  0  0  0  0  0
   -2.1119    1.9057   -0.5950 C   0  0  0  0  0  0  0  0  0  0  0  0
   -2.5756    0.9656   -0.2846 H   0  0  0  0  0  0  0  0  0  0  0  0
   -2.5304    2.7118    0.0152 H   0  0  0  0  0  0  0  0  0  0  0  0
   -2.3732    2.1041   -1.6386 H   0  0  0  0  0  0  0  0  0  0  0  0
    1.0035   -0.5108    0.9622 C   0  0  0  0  0  0  0  0  0  0  0  0
    2.2274   -0.5048    0.9783 O   0  0  0  0  0  0  0  0  0  0  0  0
    0.3239   -0.1556    2.1139 N   0  0  0  0  0  0  0  0  0  0  0  0
   -0.6859   -0.2453    2.0816 H   0  0  0  0  0  0  0  0  0  0  0  0
    0.9768   -0.0257    3.4103 C   0  0  0  0  0  0  0  0  0  0  0  0
    1.7611    0.7376    3.3704 H   0  0  0  0  0  0  0  0  0  0  0  0
    0.2492    0.2686    4.1724 H   0  0  0  0  0  0  0  0  0  0  0  0
    1.4271   -0.9786    3.7079 H   0  0  0  0  0  0  0  0  0  0  0  0
  1  2  1  0  0  0  0
  2  3  1  0  0  0  0
  2  4  1  0  0  0  0
  2  5  1  0  0  0  0
  5  6  2  0  0  0  0
  5  7  1  0  0  0  0
  7  8  1  0  0  0  0
  7  9  1  0  0  0  0
  9 10  1  0  0  0  0
  9 11  1  0  0  0  0
  9 24  1  0  0  0  0
 11 12  1  0  0  0  0
 11 13  1  0  0  0  0
 11 17  1  0  0  0  0
 13 14  1  0  0  0  0
 13 15  1  0  0  0  0
 13 16  1  0  0  0  0
 17 18  1  0  0  0  0
 17 19  1  0  0  0  0
 17 20  1  0  0  0  0
 20 21  1  0  0  0  0
 20 22  1  0  0  0  0
 20 23  1  0  0  0  0
 24 25  2  0  0  0  0
 24 26  1  0  0  0  0
 26 27  1  0  0  0  0
 26 28  1  0  0  0  0
 28 29  1  0  0  0  0
 28 30  1  0  0  0  0
 28 31  1  0  0  0  0
M  END
$$$$

  -OEChem-03222214053D

 31 30  0     1  0  0  0  0  0999 V2000
   -2.4692   -4.3629    0.3436 H   0  0  0  0  0  0  0  0  0  0  0  0
   -2.5287   -3.3323   -0.0180 C   0  0  0  0  0  0  0  0  0  0  0  0
   -3.2469   -2.7848    0.5969 H   0  0  0  0  0  0  0  0  0  0  0  0
   -2.8777   -3.3437   -1.0533 H   0  0  0  0  0  0  0  0  0  0  0  0
   -1.1650   -2.6724    0.0624 C   0  0  0  0  0  0  0  0  0  0  0  0
   -0.2156   -3.2946    0.5024 O   0  0  0  0  0  0  0  0  0  0  0  0
   -1.0108   -1.3664   -0.3579 N   0  0  0  0  0  0  0  0  0  0  0  0
   -1.8224   -0.9160   -0.7692 H   0  0  0  0  0  0  0  0  0  0  0  0
    0.2781   -0.6498   -0.4142 C   0  0  1  0  0  0  0  0  0  0  0  0
    0.9478   -1.2728   -1.0183 H   0  0  0  0  0  0  0  0  0  0  0  0
    0.1466    0.7000   -1.1725 C   0  0  1  0  0  0  0  0  0  0  0  0
    1.1743    1.0492   -1.3246 H   0  0  0  0  0  0  0  0  0  0  0  0
   -0.4501    0.4971   -2.5768 C   0  0  0  0  0  0  0  0  0  0  0  0
   -1.4684    0.1011   -2.5340 H   0  0  0  0  0  0  0  0  0  0  0  0
   -0.4721    1.4481   -3.1181 H   0  0  0  0  0  0  0  0  0  0  0  0
    0.1658   -0.2058   -3.1470 H   0  0  0  0  0  0  0  0  0  0  0  0
   -0.5592    1.8403   -0.3945 C   0  0  0  0  0  0  0  0  0  0  0  0
   -0.1259    1.9417    0.6034 H   0  0  0  0  0  0  0  0  0  0  0  0
   -0.3478    2.7791   -0.9172 H   0  0  0  0  0  0  0  0  0  0  0  0
   -2.0829    1.7146   -0.2739 C   0  0  0  0  0  0  0  0  0  0  0  0
   -2.3590    0.8165    0.2841 H   0  0  0  0  0  0  0  0  0  0  0  0
   -2.4802    2.5811    0.2637 H   0  0  0  0  0  0  0  0  0  0  0  0
   -2.5573    1.6833   -1.2586 H   0  0  0  0  0  0  0  0  0  0  0  0
    1.0026   -0.5217    0.9463 C   0  0  0  0  0  0  0  0  0  0  0  0
    2.2261   -0.5115    0.9796 O   0  0  0  0  0  0  0  0  0  0  0  0
    0.3028   -0.1581    2.0833 N   0  0  0  0  0  0  0  0  0  0  0  0
   -0.7064   -0.2458    2.0345 H   0  0  0  0  0  0  0  0  0  0  0  0
    0.9349   -0.0088    3.3877 C   0  0  0  0  0  0  0  0  0  0  0  0
    1.7179    0.7559    3.3495 H   0  0  0  0  0  0  0  0  0  0  0  0
    0.1951    0.2941    4.1346 H   0  0  0  0  0  0  0  0  0  0  0  0
    1.3825   -0.9565    3.7050 H   0  0  0  0  0  0  0  0  0  0  0  0
  1  2  1  0  0  0  0
  2  3  1  0  0  0  0
  2  4  1  0  0  0  0
  2  5  1  0  0  0  0
  5  6  2  0  0  0  0
  5  7  1  0  0  0  0
  7  8  1  0  0  0  0
  7  9  1  0  0  0  0
  9 10  1  0  0  0  0
  9 11  1  0  0  0  0
  9 24  1  0  0  0  0
 11 12  1  0  0  0  0
 11 13  1  0  0  0  0
 11 17  1  0  0  0  0
 13 14  1  0  0  0  0
 13 15  1  0  0  0  0
 13 16  1  0  0  0  0
 17 18  1  0  0  0  0
 17 19  1  0  0  0  0
 17 20  1  0  0  0  0
 20 21  1  0  0  0  0
 20 22  1  0  0  0  0
 20 23  1  0  0  0  0
 24 25  2  0  0  0  0
 24 26  1  0  0  0  0
 26 27  1  0  0  0  0
 26 28  1  0  0  0  0
 28 29  1  0  0  0  0
 28 30  1  0  0  0  0
 28 31  1  0  0  0  0
M  END
$$$$

  -OEChem-03222214053D

 31 30  0     1  0  0  0  0  0999 V2000
   -2.4581   -4.3854    0.3260 H   0  0  0  0  0  0  0  0  0  0  0  0
   -2.5175   -3.3555   -0.0375 C   0  0  0  0  0  0  0  0  0  0  0  0
   -3.2400   -2.8085    0.5727 H   0  0  0  0  0  0  0  0  0  0  0  0
   -2.8609   -3.3688   -1.0747 H   0  0  0  0  0  0  0  0  0  0  0  0
   -1.1558   -2.6924    0.0502 C   0  0  0  0  0  0  0  0  0  0  0  0
   -0.2071   -3.3103    0.4978 O   0  0  0  0  0  0  0  0  0  0  0  0
   -1.0030   -1.3874   -0.3728 N   0  0  0  0  0  0  0  0  0  0  0  0
   -1.8139   -0.9386   -0.7871 H   0  0  0  0  0  0  0  0  0  0  0  0
    0.2842   -0.6670   -0.4199 C   0  0  1  0  0  0  0  0  0  0  0  0
    0.9582   -1.2866   -1.0228 H   0  0  0  0  0  0  0  0  0  0  0  0
    0.1612    0.6912   -1.1648 C   0  0  1  0  0  0  0  0  0  0  0  0
    1.1877    1.0360   -1.3331 H   0  0  0  0  0  0  0  0  0  0  0  0
   -0.4679    0.5018   -2.5566 C   0  0  0  0  0  0  0  0  0  0  0  0
   -1.5075    0.1710   -2.4900 H   0  0  0  0  0  0  0  0  0  0  0  0
   -0.4424    1.4434   -3.1139 H   0  0  0  0  0  0  0  0  0  0  0  0
    0.0946   -0.2455   -3.1252 H   0  0  0  0  0  0  0  0  0  0  0  0
   -0.5432    1.8320   -0.3868 C   0  0  0  0  0  0  0  0  0  0  0  0
    0.0417    2.0711    0.5068 H   0  0  0  0  0  0  0  0  0  0  0  0
   -0.5351    2.7293   -1.0142 H   0  0  0  0  0  0  0  0  0  0  0  0
   -1.9926    1.5608    0.0360 C   0  0  0  0  0  0  0  0  0  0  0  0
   -2.0481    0.7417    0.7568 H   0  0  0  0  0  0  0  0  0  0  0  0
   -2.4073    2.4546    0.5121 H   0  0  0  0  0  0  0  0  0  0  0  0
   -2.6157    1.3175   -0.8287 H   0  0  0  0  0  0  0  0  0  0  0  0
    1.0041   -0.5273    0.9421 C   0  0  0  0  0  0  0  0  0  0  0  0
    2.2274   -0.5157    0.9780 O   0  0  0  0  0  0  0  0  0  0  0  0
    0.3031   -0.1592    2.0768 N   0  0  0  0  0  0  0  0  0  0  0  0
   -0.7065   -0.2394    2.0268 H   0  0  0  0  0  0  0  0  0  0  0  0
    0.9337    0.0112    3.3794 C   0  0  0  0  0  0  0  0  0  0  0  0
    1.7033    0.7891    3.3343 H   0  0  0  0  0  0  0  0  0  0  0  0
    0.1890    0.3068    4.1244 H   0  0  0  0  0  0  0  0  0  0  0  0
    1.3980   -0.9259    3.7042 H   0  0  0  0  0  0  0  0  0  0  0  0
  1  2  1  0  0  0  0
  2  3  1  0  0  0  0
  2  4  1  0  0  0  0
  2  5  1  0  0  0  0
  5  6  2  0  0  0  0
  5  7  1  0  0  0  0
  7  8  1  0  0  0  0
  7  9  1  0  0  0  0
  9 10  1  0  0  0  0
  9 11  1  0  0  0  0
  9 24  1  0  0  0  0
 11 12  1  0  0  0  0
 11 13  1  0  0  0  0
 11 17  1  0  0  0  0
 13 14  1  0  0  0  0
 13 15  1  0  0  0  0
 13 16  1  0  0  0  0
 17 18  1  0  0  0  0
 17 19  1  0  0  0  0
 17 20  1  0  0  0  0
 20 21  1  0  0  0  0
 20 22  1  0  0  0  0
 20 23  1  0  0  0  0
 24 25  2  0  0  0  0
 24 26  1  0  0  0  0
 26 27  1  0  0  0  0
 26 28  1  0  0  0  0
 28 29  1  0  0  0  0
 28 30  1  0  0  0  0
 28 31  1  0  0  0  0
M  END
$$$$

  -OEChem-03222214053D

 31 30  0     1  0  0  0  0  0999 V2000
   -2.3235   -4.4764    0.3097 H   0  0  0  0  0  0  0  0  0  0  0  0
   -2.4231   -3.4448   -0.0398 C   0  0  0  0  0  0  0  0  0  0  0  0
   -3.1796   -2.9400    0.5654 H   0  0  0  0  0  0  0  0  0  0  0  0
   -2.7481   -3.4575   -1.0829 H   0  0  0  0  0  0  0  0  0  0  0  0
   -1.0943   -2.7230    0.0811 C   0  0  0  0  0  0  0  0  0  0  0  0
   -0.1295   -3.2991    0.5499 O   0  0  0  0  0  0  0  0  0  0  0  0
   -0.9903   -1.4101   -0.3312 N   0  0  0  0  0  0  0  0  0  0  0  0
   -1.8104   -0.9959   -0.7628 H   0  0  0  0  0  0  0  0  0  0  0  0
    0.2692   -0.6417   -0.3630 C   0  0  1  0  0  0  0  0  0  0  0  0
    0.9626   -1.2583   -0.9468 H   0  0  0  0  0  0  0  0  0  0  0  0
    0.1426    0.6899   -1.1544 C   0  0  1  0  0  0  0  0  0  0  0  0
    1.1646    1.0493   -1.3208 H   0  0  0  0  0  0  0  0  0  0  0  0
   -0.4655    0.4278   -2.5439 C   0  0  0  0  0  0  0  0  0  0  0  0
   -1.5198    0.1463   -2.4721 H   0  0  0  0  0  0  0  0  0  0  0  0
   -0.3925    1.3266   -3.1643 H   0  0  0  0  0  0  0  0  0  0  0  0
    0.0758   -0.3776   -3.0505 H   0  0  0  0  0  0  0  0  0  0  0  0
   -0.6194    1.8517   -0.4654 C   0  0  0  0  0  0  0  0  0  0  0  0
    0.0379    2.2795    0.2991 H   0  0  0  0  0  0  0  0  0  0  0  0
   -0.8069    2.6421   -1.1996 H   0  0  0  0  0  0  0  0  0  0  0  0
   -1.9459    1.4885    0.2156 C   0  0  0  0  0  0  0  0  0  0  0  0
   -2.4042    2.3927    0.6278 H   0  0  0  0  0  0  0  0  0  0  0  0
   -1.8074    0.7823    1.0341 H   0  0  0  0  0  0  0  0  0  0  0  0
   -2.6409    1.0539   -0.5085 H   0  0  0  0  0  0  0  0  0  0  0  0
    1.0048   -0.4640    0.9875 C   0  0  0  0  0  0  0  0  0  0  0  0
    2.2274   -0.4011    0.9939 O   0  0  0  0  0  0  0  0  0  0  0  0
    0.3254   -0.1198    2.1417 N   0  0  0  0  0  0  0  0  0  0  0  0
   -0.6789   -0.2591    2.1276 H   0  0  0  0  0  0  0  0  0  0  0  0
    0.9892    0.0747    3.4246 C   0  0  0  0  0  0  0  0  0  0  0  0
    1.7298    0.8784    3.3552 H   0  0  0  0  0  0  0  0  0  0  0  0
    0.2580    0.3461    4.1917 H   0  0  0  0  0  0  0  0  0  0  0  0
    1.4955   -0.8450    3.7361 H   0  0  0  0  0  0  0  0  0  0  0  0
  1  2  1  0  0  0  0
  2  3  1  0  0  0  0
  2  4  1  0  0  0  0
  2  5  1  0  0  0  0
  5  6  2  0  0  0  0
  5  7  1  0  0  0  0
  7  8  1  0  0  0  0
  7  9  1  0  0  0  0
  9 10  1  0  0  0  0
  9 11  1  0  0  0  0
  9 24  1  0  0  0  0
 11 12  1  0  0  0  0
 11 13  1  0  0  0  0
 11 17  1  0  0  0  0
 13 14  1  0  0  0  0
 13 15  1  0  0  0  0
 13 16  1  0  0  0  0
 17 18  1  0  0  0  0
 17 19  1  0  0  0  0
 17 20  1  0  0  0  0
 20 21  1  0  0  0  0
 20 22  1  0  0  0  0
 20 23  1  0  0  0  0
 24 25  2  0  0  0  0
 24 26  1  0  0  0  0
 26 27  1  0  0  0  0
 26 28  1  0  0  0  0
 28 29  1  0  0  0  0
 28 30  1  0  0  0  0
 28 31  1  0  0  0  0
M  END
$$$$

  -OEChem-03222214053D

 31 30  0     1  0  0  0  0  0999 V2000
   -2.5796   -4.3833    0.0786 H   0  0  0  0  0  0  0  0  0  0  0  0
   -2.6206   -3.3226   -0.1854 C   0  0  0  0  0  0  0  0  0  0  0  0
   -3.3541   -2.8287    0.4563 H   0  0  0  0  0  0  0  0  0  0  0  0
   -2.9368   -3.2327   -1.2274 H   0  0  0  0  0  0  0  0  0  0  0  0
   -1.2561   -2.6859    0.0004 C   0  0  0  0  0  0  0  0  0  0  0  0
   -0.3342   -3.3443    0.4468 O   0  0  0  0  0  0  0  0  0  0  0  0
   -1.0701   -1.3573   -0.3241 N   0  0  0  0  0  0  0  0  0  0  0  0
   -1.8587   -0.8674   -0.7346 H   0  0  0  0  0  0  0  0  0  0  0  0
    0.2303   -0.6613   -0.2837 C   0  0  1  0  0  0  0  0  0  0  0  0
    0.8927   -1.3209   -0.8572 H   0  0  0  0  0  0  0  0  0  0  0  0
    0.2484    0.6680   -1.0919 C   0  0  1  0  0  0  0  0  0  0  0  0
    1.3026    0.9466   -1.2026 H   0  0  0  0  0  0  0  0  0  0  0  0
   -0.2915    0.4119   -2.5111 C   0  0  0  0  0  0  0  0  0  0  0  0
   -1.3717    0.2386   -2.4965 H   0  0  0  0  0  0  0  0  0  0  0  0
   -0.0908    1.2743   -3.1547 H   0  0  0  0  0  0  0  0  0  0  0  0
    0.1959   -0.4613   -2.9567 H   0  0  0  0  0  0  0  0  0  0  0  0
   -0.4718    1.9127   -0.5034 C   0  0  0  0  0  0  0  0  0  0  0  0
    0.2581    2.4563    0.1058 H   0  0  0  0  0  0  0  0  0  0  0  0
   -0.7634    2.5848   -1.3173 H   0  0  0  0  0  0  0  0  0  0  0  0
   -1.6956    1.6632    0.3850 C   0  0  0  0  0  0  0  0  0  0  0  0
   -2.1405    2.6226    0.6667 H   0  0  0  0  0  0  0  0  0  0  0  0
   -1.4431    1.1386    1.3024 H   0  0  0  0  0  0  0  0  0  0  0  0
   -2.4486    1.0853   -0.1582 H   0  0  0  0  0  0  0  0  0  0  0  0
    0.9675   -0.5974    1.0776 C   0  0  0  0  0  0  0  0  0  0  0  0
    2.1919   -0.5945    1.0832 O   0  0  0  0  0  0  0  0  0  0  0  0
    0.3154   -0.2851    2.2555 N   0  0  0  0  0  0  0  0  0  0  0  0
   -0.6953   -0.3692    2.2435 H   0  0  0  0  0  0  0  0  0  0  0  0
    0.9965   -0.1810    3.5400 C   0  0  0  0  0  0  0  0  0  0  0  0
    1.7384    0.6240    3.5159 H   0  0  0  0  0  0  0  0  0  0  0  0
    0.2756    0.0380    4.3333 H   0  0  0  0  0  0  0  0  0  0  0  0
    1.5041   -1.1208    3.7815 H   0  0  0  0  0  0  0  0  0  0  0  0
  1  2  1  0  0  0  0
  2  3  1  0  0  0  0
  2  4  1  0  0  0  0
  2  5  1  0  0  0  0
  5  6  2  0  0  0  0
  5  7  1  0  0  0  0
  7  8  1  0  0  0  0
  7  9  1  0  0  0  0
  9 10  1  0  0  0  0
  9 11  1  0  0  0  0
  9 24  1  0  0  0  0
 11 12  1  0  0  0  0
 11 13  1  0  0  0  0
 11 17  1  0  0  0  0
 13 14  1  0  0  0  0
 13 15  1  0  0  0  0
 13 16  1  0  0  0  0
 17 18  1  0  0  0  0
 17 19  1  0  0  0  0
 17 20  1  0  0  0  0
 20 21  1  0  0  0  0
 20 22  1  0  0  0  0
 20 23  1  0  0  0  0
 24 25  2  0  0  0  0
 24 26  1  0  0  0  0
 26 27  1  0  0  0  0
 26 28  1  0  0  0  0
 28 29  1  0  0  0  0
 28 30  1  0  0  0  0
 28 31  1  0  0  0  0
M  END
$$$$

  -OEChem-03222214053D

 31 30  0     1  0  0  0  0  0999 V2000
   -2.4069   -4.4580    0.1513 H   0  0  0  0  0  0  0  0  0  0  0  0
   -2.4954   -3.4053   -0.1326 C   0  0  0  0  0  0  0  0  0  0  0  0
   -3.2256   -2.9248    0.5228 H   0  0  0  0  0  0  0  0  0  0  0  0
   -2.8478   -3.3490   -1.1653 H   0  0  0  0  0  0  0  0  0  0  0  0
   -1.1500   -2.7157   -0.0051 C   0  0  0  0  0  0  0  0  0  0  0  0
   -0.1779   -3.3463    0.3690 O   0  0  0  0  0  0  0  0  0  0  0  0
   -1.0381   -1.3724   -0.3026 N   0  0  0  0  0  0  0  0  0  0  0  0
   -1.8685   -0.9076   -0.6562 H   0  0  0  0  0  0  0  0  0  0  0  0
    0.2323   -0.6211   -0.3146 C   0  0  1  0  0  0  0  0  0  0  0  0
    0.8936   -1.2416   -0.9311 H   0  0  0  0  0  0  0  0  0  0  0  0
    0.1462    0.7154   -1.1105 C   0  0  1  0  0  0  0  0  0  0  0  0
    1.1844    1.0355   -1.2556 H   0  0  0  0  0  0  0  0  0  0  0  0
   -0.4213    0.4351   -2.5151 C   0  0  0  0  0  0  0  0  0  0  0  0
   -1.4893    0.2020   -2.4678 H   0  0  0  0  0  0  0  0  0  0  0  0
   -0.2878    1.3095   -3.1601 H   0  0  0  0  0  0  0  0  0  0  0  0
    0.0999   -0.4076   -2.9805 H   0  0  0  0  0  0  0  0  0  0  0  0
   -0.5942    1.9470   -0.5061 C   0  0  0  0  0  0  0  0  0  0  0  0
    0.1639    2.6753   -0.1988 H   0  0  0  0  0  0  0  0  0  0  0  0
   -1.1837    2.4295   -1.2926 H   0  0  0  0  0  0  0  0  0  0  0  0
   -1.5213    1.7321    0.6919 C   0  0  0  0  0  0  0  0  0  0  0  0
   -2.1695    2.6061    0.8086 H   0  0  0  0  0  0  0  0  0  0  0  0
   -0.9517    1.6323    1.6150 H   0  0  0  0  0  0  0  0  0  0  0  0
   -2.1596    0.8569    0.5521 H   0  0  0  0  0  0  0  0  0  0  0  0
    1.0246   -0.5717    1.0149 C   0  0  0  0  0  0  0  0  0  0  0  0
    2.2474   -0.5259    0.9735 O   0  0  0  0  0  0  0  0  0  0  0  0
    0.4053   -0.3246    2.2252 N   0  0  0  0  0  0  0  0  0  0  0  0
   -0.6033   -0.4300    2.2426 H   0  0  0  0  0  0  0  0  0  0  0  0
    1.1267   -0.2436    3.4890 C   0  0  0  0  0  0  0  0  0  0  0  0
    1.8840    0.5465    3.4494 H   0  0  0  0  0  0  0  0  0  0  0  0
    0.4350   -0.0153    4.3053 H   0  0  0  0  0  0  0  0  0  0  0  0
    1.6215   -1.1958    3.7073 H   0  0  0  0  0  0  0  0  0  0  0  0
  1  2  1  0  0  0  0
  2  3  1  0  0  0  0
  2  4  1  0  0  0  0
  2  5  1  0  0  0  0
  5  6  2  0  0  0  0
  5  7  1  0  0  0  0
  7  8  1  0  0  0  0
  7  9  1  0  0  0  0
  9 10  1  0  0  0  0
  9 11  1  0  0  0  0
  9 24  1  0  0  0  0
 11 12  1  0  0  0  0
 11 13  1  0  0  0  0
 11 17  1  0  0  0  0
 13 14  1  0  0  0  0
 13 15  1  0  0  0  0
 13 16  1  0  0  0  0
 17 18  1  0  0  0  0
 17 19  1  0  0  0  0
 17 20  1  0  0  0  0
 20 21  1  0  0  0  0
 20 22  1  0  0  0  0
 20 23  1  0  0  0  0
 24 25  2  0  0  0  0
 24 26  1  0  0  0  0
 26 27  1  0  0  0  0
 26 28  1  0  0  0  0
 28 29  1  0  0  0  0
 28 30  1  0  0  0  0
 28 31  1  0  0  0  0
M  END
$$$$

  -OEChem-03222214053D

 31 30  0     1  0  0  0  0  0999 V2000
   -2.5111   -4.3938    0.1741 H   0  0  0  0  0  0  0  0  0  0  0  0
   -2.5717   -3.3391   -0.1092 C   0  0  0  0  0  0  0  0  0  0  0  0
   -3.2816   -2.8379    0.5530 H   0  0  0  0  0  0  0  0  0  0  0  0
   -2.9319   -3.2721   -1.1386 H   0  0  0  0  0  0  0  0  0  0  0  0
   -1.2057   -2.6893    0.0054 C   0  0  0  0  0  0  0  0  0  0  0  0
   -0.2474   -3.3496    0.3634 O   0  0  0  0  0  0  0  0  0  0  0  0
   -1.0599   -1.3477   -0.2853 N   0  0  0  0  0  0  0  0  0  0  0  0
   -1.8816   -0.8576   -0.6252 H   0  0  0  0  0  0  0  0  0  0  0  0
    0.2294   -0.6301   -0.3056 C   0  0  1  0  0  0  0  0  0  0  0  0
    0.8715   -1.2681   -0.9247 H   0  0  0  0  0  0  0  0  0  0  0  0
    0.1562    0.6965   -1.1205 C   0  0  1  0  0  0  0  0  0  0  0  0
    1.2025    0.9976   -1.2483 H   0  0  0  0  0  0  0  0  0  0  0  0
   -0.3869    0.4146   -2.5342 C   0  0  0  0  0  0  0  0  0  0  0  0
   -1.4515    0.1636   -2.5044 H   0  0  0  0  0  0  0  0  0  0  0  0
   -0.2581    1.2954   -3.1715 H   0  0  0  0  0  0  0  0  0  0  0  0
    0.1539   -0.4179   -2.9957 H   0  0  0  0  0  0  0  0  0  0  0  0
   -0.5598    1.9529   -0.5380 C   0  0  0  0  0  0  0  0  0  0  0  0
    0.1562    2.7817   -0.5275 H   0  0  0  0  0  0  0  0  0  0  0  0
   -1.3626    2.2455   -1.2230 H   0  0  0  0  0  0  0  0  0  0  0  0
   -1.1903    1.8620    0.8498 C   0  0  0  0  0  0  0  0  0  0  0  0
   -0.4182    1.9103    1.6204 H   0  0  0  0  0  0  0  0  0  0  0  0
   -1.8582    2.7149    1.0047 H   0  0  0  0  0  0  0  0  0  0  0  0
   -1.7777    0.9476    0.9641 H   0  0  0  0  0  0  0  0  0  0  0  0
    1.0319   -0.6127    1.0195 C   0  0  0  0  0  0  0  0  0  0  0  0
    2.2551   -0.5975    0.9702 O   0  0  0  0  0  0  0  0  0  0  0  0
    0.4273   -0.3590    2.2367 N   0  0  0  0  0  0  0  0  0  0  0  0
   -0.5837   -0.4367    2.2607 H   0  0  0  0  0  0  0  0  0  0  0  0
    1.1601   -0.3126    3.4957 C   0  0  0  0  0  0  0  0  0  0  0  0
    1.9274    0.4681    3.4644 H   0  0  0  0  0  0  0  0  0  0  0  0
    0.4786   -0.0915    4.3225 H   0  0  0  0  0  0  0  0  0  0  0  0
    1.6443   -1.2752    3.6915 H   0  0  0  0  0  0  0  0  0  0  0  0
  1  2  1  0  0  0  0
  2  3  1  0  0  0  0
  2  4  1  0  0  0  0
  2  5  1  0  0  0  0
  5  6  2  0  0  0  0
  5  7  1  0  0  0  0
  7  8  1  0  0  0  0
  7  9  1  0  0  0  0
  9 10  1  0  0  0  0
  9 11  1  0  0  0  0
  9 24  1  0  0  0  0
 11 12  1  0  0  0  0
 11 13  1  0  0  0  0
 11 17  1  0  0  0  0
 13 14  1  0  0  0  0
 13 15  1  0  0  0  0
 13 16  1  0  0  0  0
 17 18  1  0  0  0  0
 17 19  1  0  0  0  0
 17 20  1  0  0  0  0
 20 21  1  0  0  0  0
 20 22  1  0  0  0  0
 20 23  1  0  0  0  0
 24 25  2  0  0  0  0
 24 26  1  0  0  0  0
 26 27  1  0  0  0  0
 26 28  1  0  0  0  0
 28 29  1  0  0  0  0
 28 30  1  0  0  0  0
 28 31  1  0  0  0  0
M  END
$$$$

  -OEChem-03222214053D

 31 30  0     1  0  0  0  0  0999 V2000
   -2.4207   -4.4387    0.3579 H   0  0  0  0  0  0  0  0  0  0  0  0
   -2.4936   -3.3976    0.0307 C   0  0  0  0  0  0  0  0  0  0  0  0
   -3.2427   -2.8884    0.6417 H   0  0  0  0  0  0  0  0  0  0  0  0
   -2.8108   -3.3801   -1.0148 H   0  0  0  0  0  0  0  0  0  0  0  0
   -1.1492   -2.7100    0.1764 C   0  0  0  0  0  0  0  0  0  0  0  0
   -0.2044   -3.3174    0.6468 O   0  0  0  0  0  0  0  0  0  0  0  0
   -1.0086   -1.3932   -0.2137 N   0  0  0  0  0  0  0  0  0  0  0  0
   -1.8163   -0.9506   -0.6410 H   0  0  0  0  0  0  0  0  0  0  0  0
    0.2668   -0.6520   -0.2169 C   0  0  1  0  0  0  0  0  0  0  0  0
    0.9555   -1.3312   -0.7335 H   0  0  0  0  0  0  0  0  0  0  0  0
    0.2225    0.5818   -1.1695 C   0  0  1  0  0  0  0  0  0  0  0  0
    1.2693    0.8999   -1.2403 H   0  0  0  0  0  0  0  0  0  0  0  0
   -0.1996    0.1556   -2.5874 C   0  0  0  0  0  0  0  0  0  0  0  0
   -1.2507   -0.1473   -2.6122 H   0  0  0  0  0  0  0  0  0  0  0  0
   -0.0639    0.9860   -3.2877 H   0  0  0  0  0  0  0  0  0  0  0  0
    0.4121   -0.6833   -2.9343 H   0  0  0  0  0  0  0  0  0  0  0  0
   -0.5572    1.8684   -0.7727 C   0  0  0  0  0  0  0  0  0  0  0  0
    0.0435    2.7370   -1.0631 H   0  0  0  0  0  0  0  0  0  0  0  0
   -1.4784    1.9101   -1.3632 H   0  0  0  0  0  0  0  0  0  0  0  0
   -0.9782    2.0434    0.6813 C   0  0  0  0  0  0  0  0  0  0  0  0
   -0.0983    2.1604    1.3195 H   0  0  0  0  0  0  0  0  0  0  0  0
   -1.5792    1.1953    1.0194 H   0  0  0  0  0  0  0  0  0  0  0  0
   -1.5848    2.9484    0.7825 H   0  0  0  0  0  0  0  0  0  0  0  0
    0.9902   -0.5092    1.1467 C   0  0  0  0  0  0  0  0  0  0  0  0
    2.2136   -0.4645    1.1639 O   0  0  0  0  0  0  0  0  0  0  0  0
    0.3129   -0.1713    2.3046 N   0  0  0  0  0  0  0  0  0  0  0  0
   -0.6950   -0.2819    2.2828 H   0  0  0  0  0  0  0  0  0  0  0  0
    0.9730    0.0020    3.5927 C   0  0  0  0  0  0  0  0  0  0  0  0
    1.7239    0.7969    3.5349 H   0  0  0  0  0  0  0  0  0  0  0  0
    0.2415    0.2757    4.3588 H   0  0  0  0  0  0  0  0  0  0  0  0
    1.4655   -0.9273    3.8978 H   0  0  0  0  0  0  0  0  0  0  0  0
  1  2  1  0  0  0  0
  2  3  1  0  0  0  0
  2  4  1  0  0  0  0
  2  5  1  0  0  0  0
  5  6  2  0  0  0  0
  5  7  1  0  0  0  0
  7  8  1  0  0  0  0
  7  9  1  0  0  0  0
  9 10  1  0  0  0  0
  9 11  1  0  0  0  0
  9 24  1  0  0  0  0
 11 12  1  0  0  0  0
 11 13  1  0  0  0  0
 11 17  1  0  0  0  0
 13 14  1  0  0  0  0
 13 15  1  0  0  0  0
 13 16  1  0  0  0  0
 17 18  1  0  0  0  0
 17 19  1  0  0  0  0
 17 20  1  0  0  0  0
 20 21  1  0  0  0  0
 20 22  1  0  0  0  0
 20 23  1  0  0  0  0
 24 25  2  0  0  0  0
 24 26  1  0  0  0  0
 26 27  1  0  0  0  0
 26 28  1  0  0  0  0
 28 29  1  0  0  0  0
 28 30  1  0  0  0  0
 28 31  1  0  0  0  0
M  END
$$$$

  -OEChem-03222214053D

 31 30  0     1  0  0  0  0  0999 V2000
   -2.7545   -4.2495    0.2097 H   0  0  0  0  0  0  0  0  0  0  0  0
   -2.7469   -3.1932   -0.0742 C   0  0  0  0  0  0  0  0  0  0  0  0
   -3.4332   -2.6488    0.5788 H   0  0  0  0  0  0  0  0  0  0  0  0
   -3.0896   -3.1056   -1.1081 H   0  0  0  0  0  0  0  0  0  0  0  0
   -1.3451   -2.6280    0.0580 C   0  0  0  0  0  0  0  0  0  0  0  0
   -0.4389   -3.3385    0.4540 O   0  0  0  0  0  0  0  0  0  0  0  0
   -1.1078   -1.3051   -0.2579 N   0  0  0  0  0  0  0  0  0  0  0  0
   -1.8907   -0.7696   -0.6198 H   0  0  0  0  0  0  0  0  0  0  0  0
    0.2230   -0.6691   -0.2558 C   0  0  1  0  0  0  0  0  0  0  0  0
    0.8408   -1.3707   -0.8294 H   0  0  0  0  0  0  0  0  0  0  0  0
    0.2573    0.6142   -1.1405 C   0  0  1  0  0  0  0  0  0  0  0  0
    1.3241    0.8521   -1.2243 H   0  0  0  0  0  0  0  0  0  0  0  0
   -0.2391    0.3084   -2.5644 C   0  0  0  0  0  0  0  0  0  0  0  0
   -1.3129    0.0988   -2.5719 H   0  0  0  0  0  0  0  0  0  0  0  0
   -0.0507    1.1634   -3.2214 H   0  0  0  0  0  0  0  0  0  0  0  0
    0.2873   -0.5585   -2.9762 H   0  0  0  0  0  0  0  0  0  0  0  0
   -0.4078    1.9299   -0.6527 C   0  0  0  0  0  0  0  0  0  0  0  0
    0.1149    2.7663   -1.1288 H   0  0  0  0  0  0  0  0  0  0  0  0
   -1.4417    1.9521   -1.0121 H   0  0  0  0  0  0  0  0  0  0  0  0
   -0.4612    2.1964    0.8460 C   0  0  0  0  0  0  0  0  0  0  0  0
    0.5393    2.1359    1.2846 H   0  0  0  0  0  0  0  0  0  0  0  0
   -1.1308    1.4872    1.3379 H   0  0  0  0  0  0  0  0  0  0  0  0
   -0.8501    3.2028    1.0283 H   0  0  0  0  0  0  0  0  0  0  0  0
    0.9907   -0.6673    1.0906 C   0  0  0  0  0  0  0  0  0  0  0  0
    2.2140   -0.7133    1.0723 O   0  0  0  0  0  0  0  0  0  0  0  0
    0.3725   -0.3473    2.2858 N   0  0  0  0  0  0  0  0  0  0  0  0
   -0.6414   -0.3680    2.2884 H   0  0  0  0  0  0  0  0  0  0  0  0
    1.0799   -0.2836    3.5582 C   0  0  0  0  0  0  0  0  0  0  0  0
    1.8497    0.4946    3.5294 H   0  0  0  0  0  0  0  0  0  0  0  0
    0.3823   -0.0481    4.3674 H   0  0  0  0  0  0  0  0  0  0  0  0
    1.5568   -1.2443    3.7793 H   0  0  0  0  0  0  0  0  0  0  0  0
  1  2  1  0  0  0  0
  2  3  1  0  0  0  0
  2  4  1  0  0  0  0
  2  5  1  0  0  0  0
  5  6  2  0  0  0  0
  5  7  1  0  0  0  0
  7  8  1  0  0  0  0
  7  9  1  0  0  0  0
  9 10  1  0  0  0  0
  9 11  1  0  0  0  0
  9 24  1  0  0  0  0
 11 12  1  0  0  0  0
 11 13  1  0  0  0  0
 11 17  1  0  0  0  0
 13 14  1  0  0  0  0
 13 15  1  0  0  0  0
 13 16  1  0  0  0  0
 17 18  1  0  0  0  0
 17 19  1  0  0  0  0
 17 20  1  0  0  0  0
 20 21  1  0  0  0  0
 20 22  1  0  0  0  0
 20 23  1  0  0  0  0
 24 25  2  0  0  0  0
 24 26  1  0  0  0  0
 26 27  1  0  0  0  0
 26 28  1  0  0  0  0
 28 29  1  0  0  0  0
 28 30  1  0  0  0  0
 28 31  1  0  0  0  0
M  END
$$$$

  -OEChem-03222214053D

 31 30  0     1  0  0  0  0  0999 V2000
   -2.5738   -4.3305    0.2105 H   0  0  0  0  0  0  0  0  0  0  0  0
   -2.6148   -3.2764   -0.0788 C   0  0  0  0  0  0  0  0  0  0  0  0
   -3.3080   -2.7561    0.5865 H   0  0  0  0  0  0  0  0  0  0  0  0
   -2.9826   -3.2079   -1.1054 H   0  0  0  0  0  0  0  0  0  0  0  0
   -1.2345   -2.6551    0.0204 C   0  0  0  0  0  0  0  0  0  0  0  0
   -0.2880   -3.3330    0.3773 O   0  0  0  0  0  0  0  0  0  0  0  0
   -1.0630   -1.3181   -0.2784 N   0  0  0  0  0  0  0  0  0  0  0  0
   -1.8772   -0.8124   -0.6128 H   0  0  0  0  0  0  0  0  0  0  0  0
    0.2385   -0.6237   -0.2969 C   0  0  1  0  0  0  0  0  0  0  0  0
    0.8740   -1.2806   -0.9031 H   0  0  0  0  0  0  0  0  0  0  0  0
    0.1871    0.6848   -1.1426 C   0  0  1  0  0  0  0  0  0  0  0  0
    1.2365    0.9752   -1.2686 H   0  0  0  0  0  0  0  0  0  0  0  0
   -0.3678    0.4002   -2.5491 C   0  0  0  0  0  0  0  0  0  0  0  0
   -1.4341    0.1584   -2.5121 H   0  0  0  0  0  0  0  0  0  0  0  0
   -0.2370    1.2763   -3.1921 H   0  0  0  0  0  0  0  0  0  0  0  0
    0.1641   -0.4391   -3.0085 H   0  0  0  0  0  0  0  0  0  0  0  0
   -0.5215    1.9446   -0.5825 C   0  0  0  0  0  0  0  0  0  0  0  0
   -0.2307    2.7914   -1.2131 H   0  0  0  0  0  0  0  0  0  0  0  0
   -1.6043    1.8206   -0.6864 H   0  0  0  0  0  0  0  0  0  0  0  0
   -0.2384    2.3321    0.8651 C   0  0  0  0  0  0  0  0  0  0  0  0
    0.8271    2.2339    1.0949 H   0  0  0  0  0  0  0  0  0  0  0  0
   -0.8259    1.7164    1.5486 H   0  0  0  0  0  0  0  0  0  0  0  0
   -0.5286    3.3740    1.0311 H   0  0  0  0  0  0  0  0  0  0  0  0
    1.0275   -0.6165    1.0356 C   0  0  0  0  0  0  0  0  0  0  0  0
    2.2513   -0.6137    1.0000 O   0  0  0  0  0  0  0  0  0  0  0  0
    0.4108   -0.3459    2.2433 N   0  0  0  0  0  0  0  0  0  0  0  0
   -0.6009   -0.4152    2.2575 H   0  0  0  0  0  0  0  0  0  0  0  0
    1.1305   -0.2757    3.5086 C   0  0  0  0  0  0  0  0  0  0  0  0
    1.8828    0.5195    3.4779 H   0  0  0  0  0  0  0  0  0  0  0  0
    0.4362   -0.0616    4.3264 H   0  0  0  0  0  0  0  0  0  0  0  0
    1.6314   -1.2269    3.7174 H   0  0  0  0  0  0  0  0  0  0  0  0
  1  2  1  0  0  0  0
  2  3  1  0  0  0  0
  2  4  1  0  0  0  0
  2  5  1  0  0  0  0
  5  6  2  0  0  0  0
  5  7  1  0  0  0  0
  7  8  1  0  0  0  0
  7  9  1  0  0  0  0
  9 10  1  0  0  0  0
  9 11  1  0  0  0  0
  9 24  1  0  0  0  0
 11 12  1  0  0  0  0
 11 13  1  0  0  0  0
 11 17  1  0  0  0  0
 13 14  1  0  0  0  0
 13 15  1  0  0  0  0
 13 16  1  0  0  0  0
 17 18  1  0  0  0  0
 17 19  1  0  0  0  0
 17 20  1  0  0  0  0
 20 21  1  0  0  0  0
 20 22  1  0  0  0  0
 20 23  1  0  0  0  0
 24 25  2  0  0  0  0
 24 26  1  0  0  0  0
 26 27  1  0  0  0  0
 26 28  1  0  0  0  0
 28 29  1  0  0  0  0
 28 30  1  0  0  0  0
 28 31  1  0  0  0  0
M  END
$$$$

  -OEChem-03222214053D

 31 30  0     1  0  0  0  0  0999 V2000
   -2.5999   -4.2927    0.2151 H   0  0  0  0  0  0  0  0  0  0  0  0
   -2.6282   -3.2425   -0.0892 C   0  0  0  0  0  0  0  0  0  0  0  0
   -3.3284   -2.7083    0.5573 H   0  0  0  0  0  0  0  0  0  0  0  0
   -2.9788   -3.1859   -1.1225 H   0  0  0  0  0  0  0  0  0  0  0  0
   -1.2448   -2.6303    0.0239 C   0  0  0  0  0  0  0  0  0  0  0  0
   -0.3110   -3.3096    0.4100 O   0  0  0  0  0  0  0  0  0  0  0  0
   -1.0547   -1.3020   -0.3024 N   0  0  0  0  0  0  0  0  0  0  0  0
   -1.8573   -0.7979   -0.6664 H   0  0  0  0  0  0  0  0  0  0  0  0
    0.2559   -0.6229   -0.3230 C   0  0  1  0  0  0  0  0  0  0  0  0
    0.8943   -1.2827   -0.9230 H   0  0  0  0  0  0  0  0  0  0  0  0
    0.2109    0.6945   -1.1535 C   0  0  1  0  0  0  0  0  0  0  0  0
    1.2582    0.9779   -1.3084 H   0  0  0  0  0  0  0  0  0  0  0  0
   -0.3897    0.4289   -2.5454 C   0  0  0  0  0  0  0  0  0  0  0  0
   -1.4637    0.2302   -2.4811 H   0  0  0  0  0  0  0  0  0  0  0  0
   -0.2404    1.2972   -3.1948 H   0  0  0  0  0  0  0  0  0  0  0  0
    0.0975   -0.4316   -3.0150 H   0  0  0  0  0  0  0  0  0  0  0  0
   -0.4833    1.9401   -0.5493 C   0  0  0  0  0  0  0  0  0  0  0  0
   -0.4100    2.7482   -1.2849 H   0  0  0  0  0  0  0  0  0  0  0  0
   -1.5475    1.7309   -0.4025 H   0  0  0  0  0  0  0  0  0  0  0  0
    0.0935    2.4731    0.7621 C   0  0  0  0  0  0  0  0  0  0  0  0
    1.1771    2.3228    0.8050 H   0  0  0  0  0  0  0  0  0  0  0  0
   -0.3777    1.9902    1.6188 H   0  0  0  0  0  0  0  0  0  0  0  0
   -0.1069    3.5459    0.8435 H   0  0  0  0  0  0  0  0  0  0  0  0
    1.0129   -0.6074    1.0259 C   0  0  0  0  0  0  0  0  0  0  0  0
    2.2370   -0.6252    1.0240 O   0  0  0  0  0  0  0  0  0  0  0  0
    0.3623   -0.3074    2.2083 N   0  0  0  0  0  0  0  0  0  0  0  0
   -0.6501   -0.3664    2.1893 H   0  0  0  0  0  0  0  0  0  0  0  0
    1.0405   -0.2554    3.4971 C   0  0  0  0  0  0  0  0  0  0  0  0
    1.8287    0.5047    3.4852 H   0  0  0  0  0  0  0  0  0  0  0  0
    0.3293   -0.0015    4.2888 H   0  0  0  0  0  0  0  0  0  0  0  0
    1.4899   -1.2262    3.7313 H   0  0  0  0  0  0  0  0  0  0  0  0
  1  2  1  0  0  0  0
  2  3  1  0  0  0  0
  2  4  1  0  0  0  0
  2  5  1  0  0  0  0
  5  6  2  0  0  0  0
  5  7  1  0  0  0  0
  7  8  1  0  0  0  0
  7  9  1  0  0  0  0
  9 10  1  0  0  0  0
  9 11  1  0  0  0  0
  9 24  1  0  0  0  0
 11 12  1  0  0  0  0
 11 13  1  0  0  0  0
 11 17  1  0  0  0  0
 13 14  1  0  0  0  0
 13 15  1  0  0  0  0
 13 16  1  0  0  0  0
 17 18  1  0  0  0  0
 17 19  1  0  0  0  0
 17 20  1  0  0  0  0
 20 21  1  0  0  0  0
 20 22  1  0  0  0  0
 20 23  1  0  0  0  0
 24 25  2  0  0  0  0
 24 26  1  0  0  0  0
 26 27  1  0  0  0  0
 26 28  1  0  0  0  0
 28 29  1  0  0  0  0
 28 30  1  0  0  0  0
 28 31  1  0  0  0  0
M  END
$$$$

  -OEChem-03222214053D

 31 30  0     1  0  0  0  0  0999 V2000
   -2.5143   -4.3177    0.2382 H   0  0  0  0  0  0  0  0  0  0  0  0
   -2.5591   -3.2722   -0.0804 C   0  0  0  0  0  0  0  0  0  0  0  0
   -3.2671   -2.7399    0.5593 H   0  0  0  0  0  0  0  0  0  0  0  0
   -2.9111   -3.2353   -1.1142 H   0  0  0  0  0  0  0  0  0  0  0  0
   -1.1855   -2.6364    0.0234 C   0  0  0  0  0  0  0  0  0  0  0  0
   -0.2399   -3.2962    0.4143 O   0  0  0  0  0  0  0  0  0  0  0  0
   -1.0183   -1.3104   -0.3238 N   0  0  0  0  0  0  0  0  0  0  0  0
   -1.8291   -0.8288   -0.6995 H   0  0  0  0  0  0  0  0  0  0  0  0
    0.2802   -0.6075   -0.3585 C   0  0  1  0  0  0  0  0  0  0  0  0
    0.9340   -1.2461   -0.9643 H   0  0  0  0  0  0  0  0  0  0  0  0
    0.1875    0.7221   -1.1645 C   0  0  1  0  0  0  0  0  0  0  0  0
    1.2205    1.0320   -1.3594 H   0  0  0  0  0  0  0  0  0  0  0  0
   -0.4623    0.4643   -2.5363 C   0  0  0  0  0  0  0  0  0  0  0  0
   -1.5345    0.2713   -2.4357 H   0  0  0  0  0  0  0  0  0  0  0  0
   -0.3309    1.3344   -3.1874 H   0  0  0  0  0  0  0  0  0  0  0  0
    0.0040   -0.3966   -3.0258 H   0  0  0  0  0  0  0  0  0  0  0  0
   -0.5223    1.9263   -0.4976 C   0  0  0  0  0  0  0  0  0  0  0  0
   -0.7308    2.6721   -1.2720 H   0  0  0  0  0  0  0  0  0  0  0  0
   -1.4846    1.6069   -0.0863 H   0  0  0  0  0  0  0  0  0  0  0  0
    0.2831    2.6370    0.5955 C   0  0  0  0  0  0  0  0  0  0  0  0
    1.3299    2.7472    0.2953 H   0  0  0  0  0  0  0  0  0  0  0  0
   -0.1319    3.6355    0.7633 H   0  0  0  0  0  0  0  0  0  0  0  0
    0.2430    2.1076    1.5448 H   0  0  0  0  0  0  0  0  0  0  0  0
    1.0197   -0.5700    0.9985 C   0  0  0  0  0  0  0  0  0  0  0  0
    2.2437   -0.5710    1.0162 O   0  0  0  0  0  0  0  0  0  0  0  0
    0.3413   -0.2687    2.1658 N   0  0  0  0  0  0  0  0  0  0  0  0
   -0.6696   -0.3396    2.1274 H   0  0  0  0  0  0  0  0  0  0  0  0
    0.9942   -0.2013    3.4672 C   0  0  0  0  0  0  0  0  0  0  0  0
    1.7753    0.5662    3.4650 H   0  0  0  0  0  0  0  0  0  0  0  0
    0.2657    0.0519    4.2431 H   0  0  0  0  0  0  0  0  0  0  0  0
    1.4482   -1.1659    3.7177 H   0  0  0  0  0  0  0  0  0  0  0  0
  1  2  1  0  0  0  0
  2  3  1  0  0  0  0
  2  4  1  0  0  0  0
  2  5  1  0  0  0  0
  5  6  2  0  0  0  0
  5  7  1  0  0  0  0
  7  8  1  0  0  0  0
  7  9  1  0  0  0  0
  9 10  1  0  0  0  0
  9 11  1  0  0  0  0
  9 24  1  0  0  0  0
 11 12  1  0  0  0  0
 11 13  1  0  0  0  0
 11 17  1  0  0  0  0
 13 14  1  0  0  0  0
 13 15  1  0  0  0  0
 13 16  1  0  0  0  0
 17 18  1  0  0  0  0
 17 19  1  0  0  0  0
 17 20  1  0  0  0  0
 20 21  1  0  0  0  0
 20 22  1  0  0  0  0
 20 23  1  0  0  0  0
 24 25  2  0  0  0  0
 24 26  1  0  0  0  0
 26 27  1  0  0  0  0
 26 28  1  0  0  0  0
 28 29  1  0  0  0  0
 28 30  1  0  0  0  0
 28 31  1  0  0  0  0
M  END
$$$$

  -OEChem-03222214053D

 31 30  0     1  0  0  0  0  0999 V2000
   -2.5060   -4.3058    0.2904 H   0  0  0  0  0  0  0  0  0  0  0  0
   -2.5461   -3.2702   -0.0595 C   0  0  0  0  0  0  0  0  0  0  0  0
   -3.2614   -2.7193    0.5556 H   0  0  0  0  0  0  0  0  0  0  0  0
   -2.8862   -3.2636   -1.0979 H   0  0  0  0  0  0  0  0  0  0  0  0
   -1.1733   -2.6322    0.0414 C   0  0  0  0  0  0  0  0  0  0  0  0
   -0.2382   -3.2743    0.4835 O   0  0  0  0  0  0  0  0  0  0  0  0
   -0.9953   -1.3245   -0.3652 N   0  0  0  0  0  0  0  0  0  0  0  0
   -1.7948   -0.8620   -0.7863 H   0  0  0  0  0  0  0  0  0  0  0  0
    0.3070   -0.6280   -0.4042 C   0  0  1  0  0  0  0  0  0  0  0  0
    0.9747   -1.2627   -0.9983 H   0  0  0  0  0  0  0  0  0  0  0  0
    0.1944    0.7137   -1.1851 C   0  0  1  0  0  0  0  0  0  0  0  0
    1.2190    1.0414   -1.3946 H   0  0  0  0  0  0  0  0  0  0  0  0
   -0.4828    0.4950   -2.5496 C   0  0  0  0  0  0  0  0  0  0  0  0
   -1.5501    0.2835   -2.4344 H   0  0  0  0  0  0  0  0  0  0  0  0
   -0.3768    1.3903   -3.1704 H   0  0  0  0  0  0  0  0  0  0  0  0
   -0.0147   -0.3413   -3.0789 H   0  0  0  0  0  0  0  0  0  0  0  0
   -0.5166    1.8615   -0.4276 C   0  0  0  0  0  0  0  0  0  0  0  0
   -1.0171    2.5212   -1.1440 H   0  0  0  0  0  0  0  0  0  0  0  0
   -1.2909    1.4486    0.2262 H   0  0  0  0  0  0  0  0  0  0  0  0
    0.4431    2.7266    0.3992 C   0  0  0  0  0  0  0  0  0  0  0  0
    1.1706    3.2131   -0.2579 H   0  0  0  0  0  0  0  0  0  0  0  0
   -0.1187    3.5042    0.9255 H   0  0  0  0  0  0  0  0  0  0  0  0
    0.9926    2.1439    1.1393 H   0  0  0  0  0  0  0  0  0  0  0  0
    1.0087   -0.5329    0.9698 C   0  0  0  0  0  0  0  0  0  0  0  0
    2.2313   -0.5509    1.0271 O   0  0  0  0  0  0  0  0  0  0  0  0
    0.2923   -0.1733    2.0983 N   0  0  0  0  0  0  0  0  0  0  0  0
   -0.7171   -0.2400    2.0275 H   0  0  0  0  0  0  0  0  0  0  0  0
    0.8997   -0.0601    3.4180 C   0  0  0  0  0  0  0  0  0  0  0  0
    1.6994    0.6878    3.4098 H   0  0  0  0  0  0  0  0  0  0  0  0
    0.1504    0.2454    4.1541 H   0  0  0  0  0  0  0  0  0  0  0  0
    1.3208   -1.0222    3.7282 H   0  0  0  0  0  0  0  0  0  0  0  0
  1  2  1  0  0  0  0
  2  3  1  0  0  0  0
  2  4  1  0  0  0  0
  2  5  1  0  0  0  0
  5  6  2  0  0  0  0
  5  7  1  0  0  0  0
  7  8  1  0  0  0  0
  7  9  1  0  0  0  0
  9 10  1  0  0  0  0
  9 11  1  0  0  0  0
  9 24  1  0  0  0  0
 11 12  1  0  0  0  0
 11 13  1  0  0  0  0
 11 17  1  0  0  0  0
 13 14  1  0  0  0  0
 13 15  1  0  0  0  0
 13 16  1  0  0  0  0
 17 18  1  0  0  0  0
 17 19  1  0  0  0  0
 17 20  1  0  0  0  0
 20 21  1  0  0  0  0
 20 22  1  0  0  0  0
 20 23  1  0  0  0  0
 24 25  2  0  0  0  0
 24 26  1  0  0  0  0
 26 27  1  0  0  0  0
 26 28  1  0  0  0  0
 28 29  1  0  0  0  0
 28 30  1  0  0  0  0
 28 31  1  0  0  0  0
M  END
$$$$

  -OEChem-03222214053D

 31 30  0     1  0  0  0  0  0999 V2000
   -2.5140   -4.3249    0.2633 H   0  0  0  0  0  0  0  0  0  0  0  0
   -2.5579   -3.2906   -0.0899 C   0  0  0  0  0  0  0  0  0  0  0  0
   -3.2910   -2.7456    0.5094 H   0  0  0  0  0  0  0  0  0  0  0  0
   -2.8765   -3.2904   -1.1351 H   0  0  0  0  0  0  0  0  0  0  0  0
   -1.1939   -2.6383    0.0373 C   0  0  0  0  0  0  0  0  0  0  0  0
   -0.2646   -3.2642    0.5134 O   0  0  0  0  0  0  0  0  0  0  0  0
   -1.0162   -1.3348   -0.3820 N   0  0  0  0  0  0  0  0  0  0  0  0
   -1.8082   -0.8840   -0.8293 H   0  0  0  0  0  0  0  0  0  0  0  0
    0.2844   -0.6358   -0.4086 C   0  0  1  0  0  0  0  0  0  0  0  0
    0.9563   -1.2716   -0.9967 H   0  0  0  0  0  0  0  0  0  0  0  0
    0.1860    0.7082   -1.1798 C   0  0  1  0  0  0  0  0  0  0  0  0
    1.2141    1.0353   -1.3746 H   0  0  0  0  0  0  0  0  0  0  0  0
   -0.4775    0.5120   -2.5539 C   0  0  0  0  0  0  0  0  0  0  0  0
   -1.5425    0.2827   -2.4528 H   0  0  0  0  0  0  0  0  0  0  0  0
   -0.3785    1.4235   -3.1519 H   0  0  0  0  0  0  0  0  0  0  0  0
    0.0067   -0.3055   -3.0976 H   0  0  0  0  0  0  0  0  0  0  0  0
   -0.5370    1.8257   -0.3876 C   0  0  0  0  0  0  0  0  0  0  0  0
   -1.2399    2.3507   -1.0426 H   0  0  0  0  0  0  0  0  0  0  0  0
   -1.1264    1.4027    0.4304 H   0  0  0  0  0  0  0  0  0  0  0  0
    0.4473    2.8620    0.1604 C   0  0  0  0  0  0  0  0  0  0  0  0
    0.9886    3.3464   -0.6582 H   0  0  0  0  0  0  0  0  0  0  0  0
   -0.0914    3.6312    0.7219 H   0  0  0  0  0  0  0  0  0  0  0  0
    1.1744    2.3915    0.8292 H   0  0  0  0  0  0  0  0  0  0  0  0
    0.9953   -0.5046    0.9599 C   0  0  0  0  0  0  0  0  0  0  0  0
    2.2187   -0.5091    1.0033 O   0  0  0  0  0  0  0  0  0  0  0  0
    0.2943   -0.1237    2.0906 N   0  0  0  0  0  0  0  0  0  0  0  0
   -0.7156   -0.2002    2.0396 H   0  0  0  0  0  0  0  0  0  0  0  0
    0.9232    0.0406    3.3949 C   0  0  0  0  0  0  0  0  0  0  0  0
    1.7040    0.8071    3.3502 H   0  0  0  0  0  0  0  0  0  0  0  0
    0.1809    0.3487    4.1372 H   0  0  0  0  0  0  0  0  0  0  0  0
    1.3731   -0.9023    3.7233 H   0  0  0  0  0  0  0  0  0  0  0  0
  1  2  1  0  0  0  0
  2  3  1  0  0  0  0
  2  4  1  0  0  0  0
  2  5  1  0  0  0  0
  5  6  2  0  0  0  0
  5  7  1  0  0  0  0
  7  8  1  0  0  0  0
  7  9  1  0  0  0  0
  9 10  1  0  0  0  0
  9 11  1  0  0  0  0
  9 24  1  0  0  0  0
 11 12  1  0  0  0  0
 11 13  1  0  0  0  0
 11 17  1  0  0  0  0
 13 14  1  0  0  0  0
 13 15  1  0  0  0  0
 13 16  1  0  0  0  0
 17 18  1  0  0  0  0
 17 19  1  0  0  0  0
 17 20  1  0  0  0  0
 20 21  1  0  0  0  0
 20 22  1  0  0  0  0
 20 23  1  0  0  0  0
 24 25  2  0  0  0  0
 24 26  1  0  0  0  0
 26 27  1  0  0  0  0
 26 28  1  0  0  0  0
 28 29  1  0  0  0  0
 28 30  1  0  0  0  0
 28 31  1  0  0  0  0
M  END
$$$$

  -OEChem-03222214053D

 31 30  0     1  0  0  0  0  0999 V2000
   -2.5142   -4.3322    0.2426 H   0  0  0  0  0  0  0  0  0  0  0  0
   -2.5637   -3.2942   -0.0990 C   0  0  0  0  0  0  0  0  0  0  0  0
   -3.2992   -2.7596    0.5067 H   0  0  0  0  0  0  0  0  0  0  0  0
   -2.8832   -3.2838   -1.1438 H   0  0  0  0  0  0  0  0  0  0  0  0
   -1.2032   -2.6361    0.0348 C   0  0  0  0  0  0  0  0  0  0  0  0
   -0.2705   -3.2618    0.5049 O   0  0  0  0  0  0  0  0  0  0  0  0
   -1.0323   -1.3268   -0.3686 N   0  0  0  0  0  0  0  0  0  0  0  0
   -1.8278   -0.8732   -0.8069 H   0  0  0  0  0  0  0  0  0  0  0  0
    0.2646   -0.6223   -0.3889 C   0  0  1  0  0  0  0  0  0  0  0  0
    0.9354   -1.2580   -0.9787 H   0  0  0  0  0  0  0  0  0  0  0  0
    0.1683    0.7156   -1.1681 C   0  0  1  0  0  0  0  0  0  0  0  0
    1.2026    1.0372   -1.3367 H   0  0  0  0  0  0  0  0  0  0  0  0
   -0.4592    0.5175   -2.5583 C   0  0  0  0  0  0  0  0  0  0  0  0
   -1.5192    0.2578   -2.4834 H   0  0  0  0  0  0  0  0  0  0  0  0
   -0.3723    1.4383   -3.1438 H   0  0  0  0  0  0  0  0  0  0  0  0
    0.0584   -0.2809   -3.0994 H   0  0  0  0  0  0  0  0  0  0  0  0
   -0.5656    1.8420   -0.3968 C   0  0  0  0  0  0  0  0  0  0  0  0
   -1.4454    2.1699   -0.9602 H   0  0  0  0  0  0  0  0  0  0  0  0
   -0.9337    1.4875    0.5678 H   0  0  0  0  0  0  0  0  0  0  0  0
    0.3425    3.0526   -0.1757 C   0  0  0  0  0  0  0  0  0  0  0  0
    0.6777    3.4609   -1.1343 H   0  0  0  0  0  0  0  0  0  0  0  0
   -0.1983    3.8348    0.3653 H   0  0  0  0  0  0  0  0  0  0  0  0
    1.2214    2.7687    0.4124 H   0  0  0  0  0  0  0  0  0  0  0  0
    0.9889   -0.4980    0.9743 C   0  0  0  0  0  0  0  0  0  0  0  0
    2.2127   -0.4922    1.0017 O   0  0  0  0  0  0  0  0  0  0  0  0
    0.3025   -0.1314    2.1186 N   0  0  0  0  0  0  0  0  0  0  0  0
   -0.7065   -0.2287    2.0845 H   0  0  0  0  0  0  0  0  0  0  0  0
    0.9496    0.0183    3.4160 C   0  0  0  0  0  0  0  0  0  0  0  0
    1.7275    0.7877    3.3706 H   0  0  0  0  0  0  0  0  0  0  0  0
    0.2171    0.3147    4.1725 H   0  0  0  0  0  0  0  0  0  0  0  0
    1.4068   -0.9274    3.7258 H   0  0  0  0  0  0  0  0  0  0  0  0
  1  2  1  0  0  0  0
  2  3  1  0  0  0  0
  2  4  1  0  0  0  0
  2  5  1  0  0  0  0
  5  6  2  0  0  0  0
  5  7  1  0  0  0  0
  7  8  1  0  0  0  0
  7  9  1  0  0  0  0
  9 10  1  0  0  0  0
  9 11  1  0  0  0  0
  9 24  1  0  0  0  0
 11 12  1  0  0  0  0
 11 13  1  0  0  0  0
 11 17  1  0  0  0  0
 13 14  1  0  0  0  0
 13 15  1  0  0  0  0
 13 16  1  0  0  0  0
 17 18  1  0  0  0  0
 17 19  1  0  0  0  0
 17 20  1  0  0  0  0
 20 21  1  0  0  0  0
 20 22  1  0  0  0  0
 20 23  1  0  0  0  0
 24 25  2  0  0  0  0
 24 26  1  0  0  0  0
 26 27  1  0  0  0  0
 26 28  1  0  0  0  0
 28 29  1  0  0  0  0
 28 30  1  0  0  0  0
 28 31  1  0  0  0  0
M  END
$$$$

  -OEChem-03222214053D

 31 30  0     1  0  0  0  0  0999 V2000
   -2.5071   -4.3311    0.2423 H   0  0  0  0  0  0  0  0  0  0  0  0
   -2.5599   -3.2915   -0.0937 C   0  0  0  0  0  0  0  0  0  0  0  0
   -3.2910   -2.7606    0.5206 H   0  0  0  0  0  0  0  0  0  0  0  0
   -2.8878   -3.2757   -1.1359 H   0  0  0  0  0  0  0  0  0  0  0  0
   -1.1990   -2.6329    0.0327 C   0  0  0  0  0  0  0  0  0  0  0  0
   -0.2598   -3.2622    0.4849 O   0  0  0  0  0  0  0  0  0  0  0  0
   -1.0360   -1.3179   -0.3551 N   0  0  0  0  0  0  0  0  0  0  0  0
   -1.8374   -0.8599   -0.7775 H   0  0  0  0  0  0  0  0  0  0  0  0
    0.2573   -0.6076   -0.3751 C   0  0  1  0  0  0  0  0  0  0  0  0
    0.9275   -1.2386   -0.9706 H   0  0  0  0  0  0  0  0  0  0  0  0
    0.1509    0.7285   -1.1574 C   0  0  1  0  0  0  0  0  0  0  0  0
    1.1876    1.0521   -1.3066 H   0  0  0  0  0  0  0  0  0  0  0  0
   -0.4550    0.5278   -2.5564 C   0  0  0  0  0  0  0  0  0  0  0  0
   -1.5113    0.2492   -2.4969 H   0  0  0  0  0  0  0  0  0  0  0  0
   -0.3761    1.4522   -3.1369 H   0  0  0  0  0  0  0  0  0  0  0  0
    0.0832   -0.2595   -3.0937 H   0  0  0  0  0  0  0  0  0  0  0  0
   -0.5873    1.8630   -0.4042 C   0  0  0  0  0  0  0  0  0  0  0  0
   -1.5987    1.9827   -0.8056 H   0  0  0  0  0  0  0  0  0  0  0  0
   -0.6971    1.6307    0.6554 H   0  0  0  0  0  0  0  0  0  0  0  0
    0.1640    3.1904   -0.5194 C   0  0  0  0  0  0  0  0  0  0  0  0
    0.2748    3.4792   -1.5692 H   0  0  0  0  0  0  0  0  0  0  0  0
   -0.3855    3.9802    0.0017 H   0  0  0  0  0  0  0  0  0  0  0  0
    1.1590    3.1074   -0.0702 H   0  0  0  0  0  0  0  0  0  0  0  0
    0.9873   -0.4993    0.9861 C   0  0  0  0  0  0  0  0  0  0  0  0
    2.2111   -0.4910    1.0078 O   0  0  0  0  0  0  0  0  0  0  0  0
    0.3046   -0.1518    2.1387 N   0  0  0  0  0  0  0  0  0  0  0  0
   -0.7045   -0.2490    2.1065 H   0  0  0  0  0  0  0  0  0  0  0  0
    0.9559   -0.0233    3.4362 C   0  0  0  0  0  0  0  0  0  0  0  0
    1.7357    0.7447    3.4000 H   0  0  0  0  0  0  0  0  0  0  0  0
    0.2260    0.2631    4.1992 H   0  0  0  0  0  0  0  0  0  0  0  0
    1.4113   -0.9750    3.7297 H   0  0  0  0  0  0  0  0  0  0  0  0
  1  2  1  0  0  0  0
  2  3  1  0  0  0  0
  2  4  1  0  0  0  0
  2  5  1  0  0  0  0
  5  6  2  0  0  0  0
  5  7  1  0  0  0  0
  7  8  1  0  0  0  0
  7  9  1  0  0  0  0
  9 10  1  0  0  0  0
  9 11  1  0  0  0  0
  9 24  1  0  0  0  0
 11 12  1  0  0  0  0
 11 13  1  0  0  0  0
 11 17  1  0  0  0  0
 13 14  1  0  0  0  0
 13 15  1  0  0  0  0
 13 16  1  0  0  0  0
 17 18  1  0  0  0  0
 17 19  1  0  0  0  0
 17 20  1  0  0  0  0
 20 21  1  0  0  0  0
 20 22  1  0  0  0  0
 20 23  1  0  0  0  0
 24 25  2  0  0  0  0
 24 26  1  0  0  0  0
 26 27  1  0  0  0  0
 26 28  1  0  0  0  0
 28 29  1  0  0  0  0
 28 30  1  0  0  0  0
 28 31  1  0  0  0  0
M  END
$$$$

  -OEChem-03222214053D

 31 30  0     1  0  0  0  0  0999 V2000
   -2.4980   -4.3250    0.2489 H   0  0  0  0  0  0  0  0  0  0  0  0
   -2.5525   -3.2856   -0.0870 C   0  0  0  0  0  0  0  0  0  0  0  0
   -3.2808   -2.7545    0.5304 H   0  0  0  0  0  0  0  0  0  0  0  0
   -2.8852   -3.2706   -1.1276 H   0  0  0  0  0  0  0  0  0  0  0  0
   -1.1906   -2.6277    0.0323 C   0  0  0  0  0  0  0  0  0  0  0  0
   -0.2488   -3.2588    0.4762 O   0  0  0  0  0  0  0  0  0  0  0  0
   -1.0298   -1.3116   -0.3529 N   0  0  0  0  0  0  0  0  0  0  0  0
   -1.8340   -0.8523   -0.7685 H   0  0  0  0  0  0  0  0  0  0  0  0
    0.2625   -0.5989   -0.3762 C   0  0  1  0  0  0  0  0  0  0  0  0
    0.9340   -1.2266   -0.9739 H   0  0  0  0  0  0  0  0  0  0  0  0
    0.1476    0.7382   -1.1572 C   0  0  1  0  0  0  0  0  0  0  0  0
    1.1812    1.0708   -1.3074 H   0  0  0  0  0  0  0  0  0  0  0  0
   -0.4669    0.5277   -2.5523 C   0  0  0  0  0  0  0  0  0  0  0  0
   -1.5287    0.2738   -2.4837 H   0  0  0  0  0  0  0  0  0  0  0  0
   -0.3702    1.4370   -3.1528 H   0  0  0  0  0  0  0  0  0  0  0  0
    0.0517   -0.2808   -3.0774 H   0  0  0  0  0  0  0  0  0  0  0  0
   -0.5905    1.8666   -0.3979 C   0  0  0  0  0  0  0  0  0  0  0  0
   -1.6674    1.8010   -0.5825 H   0  0  0  0  0  0  0  0  0  0  0  0
   -0.4416    1.7747    0.6784 H   0  0  0  0  0  0  0  0  0  0  0  0
   -0.0759    3.2502   -0.8025 C   0  0  0  0  0  0  0  0  0  0  0  0
   -0.2364    3.4286   -1.8698 H   0  0  0  0  0  0  0  0  0  0  0  0
   -0.6059    4.0249   -0.2402 H   0  0  0  0  0  0  0  0  0  0  0  0
    0.9940    3.3399   -0.5886 H   0  0  0  0  0  0  0  0  0  0  0  0
    0.9897   -0.4974    0.9867 C   0  0  0  0  0  0  0  0  0  0  0  0
    2.2134   -0.4867    1.0130 O   0  0  0  0  0  0  0  0  0  0  0  0
    0.3010   -0.1562    2.1376 N   0  0  0  0  0  0  0  0  0  0  0  0
   -0.7075   -0.2560    2.0999 H   0  0  0  0  0  0  0  0  0  0  0  0
    0.9463   -0.0377    3.4390 C   0  0  0  0  0  0  0  0  0  0  0  0
    1.7294    0.7274    3.4112 H   0  0  0  0  0  0  0  0  0  0  0  0
    0.2140    0.2479    4.2001 H   0  0  0  0  0  0  0  0  0  0  0  0
    1.3965   -0.9928    3.7297 H   0  0  0  0  0  0  0  0  0  0  0  0
  1  2  1  0  0  0  0
  2  3  1  0  0  0  0
  2  4  1  0  0  0  0
  2  5  1  0  0  0  0
  5  6  2  0  0  0  0
  5  7  1  0  0  0  0
  7  8  1  0  0  0  0
  7  9  1  0  0  0  0
  9 10  1  0  0  0  0
  9 11  1  0  0  0  0
  9 24  1  0  0  0  0
 11 12  1  0  0  0  0
 11 13  1  0  0  0  0
 11 17  1  0  0  0  0
 13 14  1  0  0  0  0
 13 15  1  0  0  0  0
 13 16  1  0  0  0  0
 17 18  1  0  0  0  0
 17 19  1  0  0  0  0
 17 20  1  0  0  0  0
 20 21  1  0  0  0  0
 20 22  1  0  0  0  0
 20 23  1  0  0  0  0
 24 25  2  0  0  0  0
 24 26  1  0  0  0  0
 26 27  1  0  0  0  0
 26 28  1  0  0  0  0
 28 29  1  0  0  0  0
 28 30  1  0  0  0  0
 28 31  1  0  0  0  0
M  END
$$$$

  -OEChem-03222214053D

 31 30  0     1  0  0  0  0  0999 V2000
   -2.4934   -4.3175    0.2644 H   0  0  0  0  0  0  0  0  0  0  0  0
   -2.5443   -3.2808   -0.0808 C   0  0  0  0  0  0  0  0  0  0  0  0
   -3.2710   -2.7417    0.5317 H   0  0  0  0  0  0  0  0  0  0  0  0
   -2.8761   -3.2739   -1.1219 H   0  0  0  0  0  0  0  0  0  0  0  0
   -1.1807   -2.6258    0.0341 C   0  0  0  0  0  0  0  0  0  0  0  0
   -0.2413   -3.2551    0.4855 O   0  0  0  0  0  0  0  0  0  0  0  0
   -1.0163   -1.3143   -0.3648 N   0  0  0  0  0  0  0  0  0  0  0  0
   -1.8171   -0.8607   -0.7931 H   0  0  0  0  0  0  0  0  0  0  0  0
    0.2781   -0.6048   -0.3941 C   0  0  1  0  0  0  0  0  0  0  0  0
    0.9512   -1.2307   -0.9917 H   0  0  0  0  0  0  0  0  0  0  0  0
    0.1550    0.7373   -1.1663 C   0  0  1  0  0  0  0  0  0  0  0  0
    1.1823    1.0820   -1.3311 H   0  0  0  0  0  0  0  0  0  0  0  0
   -0.4816    0.5203   -2.5517 C   0  0  0  0  0  0  0  0  0  0  0  0
   -1.5554    0.3283   -2.4667 H   0  0  0  0  0  0  0  0  0  0  0  0
   -0.3383    1.4015   -3.1835 H   0  0  0  0  0  0  0  0  0  0  0  0
   -0.0137   -0.3312   -3.0560 H   0  0  0  0  0  0  0  0  0  0  0  0
   -0.5772    1.8475   -0.3763 C   0  0  0  0  0  0  0  0  0  0  0  0
   -1.6471    1.6239   -0.3188 H   0  0  0  0  0  0  0  0  0  0  0  0
   -0.1934    1.8976    0.6446 H   0  0  0  0  0  0  0  0  0  0  0  0
   -0.3682    3.2343   -0.9909 C   0  0  0  0  0  0  0  0  0  0  0  0
   -0.8326    3.3000   -1.9788 H   0  0  0  0  0  0  0  0  0  0  0  0
   -0.8212    3.9968   -0.3500 H   0  0  0  0  0  0  0  0  0  0  0  0
    0.6995    3.4549   -1.0878 H   0  0  0  0  0  0  0  0  0  0  0  0
    0.9951   -0.4965    0.9732 C   0  0  0  0  0  0  0  0  0  0  0  0
    2.2184   -0.4924    1.0113 O   0  0  0  0  0  0  0  0  0  0  0  0
    0.2939   -0.1436    2.1132 N   0  0  0  0  0  0  0  0  0  0  0  0
   -0.7152   -0.2315    2.0626 H   0  0  0  0  0  0  0  0  0  0  0  0
    0.9235   -0.0136    3.4209 C   0  0  0  0  0  0  0  0  0  0  0  0
    1.7103    0.7478    3.3941 H   0  0  0  0  0  0  0  0  0  0  0  0
    0.1830    0.2831    4.1696 H   0  0  0  0  0  0  0  0  0  0  0  0
    1.3659   -0.9672    3.7278 H   0  0  0  0  0  0  0  0  0  0  0  0
  1  2  1  0  0  0  0
  2  3  1  0  0  0  0
  2  4  1  0  0  0  0
  2  5  1  0  0  0  0
  5  6  2  0  0  0  0
  5  7  1  0  0  0  0
  7  8  1  0  0  0  0
  7  9  1  0  0  0  0
  9 10  1  0  0  0  0
  9 11  1  0  0  0  0
  9 24  1  0  0  0  0
 11 12  1  0  0  0  0
 11 13  1  0  0  0  0
 11 17  1  0  0  0  0
 13 14  1  0  0  0  0
 13 15  1  0  0  0  0
 13 16  1  0  0  0  0
 17 18  1  0  0  0  0
 17 19  1  0  0  0  0
 17 20  1  0  0  0  0
 20 21  1  0  0  0  0
 20 22  1  0  0  0  0
 20 23  1  0  0  0  0
 24 25  2  0  0  0  0
 24 26  1  0  0  0  0
 26 27  1  0  0  0  0
 26 28  1  0  0  0  0
 28 29  1  0  0  0  0
 28 30  1  0  0  0  0
 28 31  1  0  0  0  0
M  END
$$$$

  -OEChem-03222214053D

 31 30  0     1  0  0  0  0  0999 V2000
   -2.4996   -4.3183    0.2857 H   0  0  0  0  0  0  0  0  0  0  0  0
   -2.5509   -3.2823   -0.0618 C   0  0  0  0  0  0  0  0  0  0  0  0
   -3.2766   -2.7419    0.5506 H   0  0  0  0  0  0  0  0  0  0  0  0
   -2.8847   -3.2777   -1.1023 H   0  0  0  0  0  0  0  0  0  0  0  0
   -1.1868   -2.6273    0.0490 C   0  0  0  0  0  0  0  0  0  0  0  0
   -0.2458   -3.2574    0.4958 O   0  0  0  0  0  0  0  0  0  0  0  0
   -1.0228   -1.3168   -0.3536 N   0  0  0  0  0  0  0  0  0  0  0  0
   -1.8267   -0.8624   -0.7752 H   0  0  0  0  0  0  0  0  0  0  0  0
    0.2728   -0.6083   -0.3933 C   0  0  1  0  0  0  0  0  0  0  0  0
    0.9358   -1.2422   -0.9939 H   0  0  0  0  0  0  0  0  0  0  0  0
    0.1639    0.7359   -1.1733 C   0  0  1  0  0  0  0  0  0  0  0  0
    1.1702    0.9453   -1.5535 H   0  0  0  0  0  0  0  0  0  0  0  0
   -0.7567    0.6074   -2.4031 C   0  0  0  0  0  0  0  0  0  0  0  0
   -1.8102    0.6059   -2.1071 H   0  0  0  0  0  0  0  0  0  0  0  0
   -0.5935    1.4401   -3.0938 H   0  0  0  0  0  0  0  0  0  0  0  0
   -0.5411   -0.3189   -2.9453 H   0  0  0  0  0  0  0  0  0  0  0  0
   -0.2162    1.9348   -0.2714 C   0  0  0  0  0  0  0  0  0  0  0  0
   -1.1676    1.7316    0.2302 H   0  0  0  0  0  0  0  0  0  0  0  0
    0.5493    2.0671    0.4996 H   0  0  0  0  0  0  0  0  0  0  0  0
   -0.3250    3.2589   -1.0334 C   0  0  0  0  0  0  0  0  0  0  0  0
   -1.1789    3.2505   -1.7170 H   0  0  0  0  0  0  0  0  0  0  0  0
   -0.4642    4.0835   -0.3277 H   0  0  0  0  0  0  0  0  0  0  0  0
    0.5876    3.4463   -1.6077 H   0  0  0  0  0  0  0  0  0  0  0  0
    0.9945   -0.5006    0.9709 C   0  0  0  0  0  0  0  0  0  0  0  0
    2.2178   -0.4924    1.0077 O   0  0  0  0  0  0  0  0  0  0  0  0
    0.2912   -0.1449    2.1085 N   0  0  0  0  0  0  0  0  0  0  0  0
   -0.7174   -0.2385    2.0574 H   0  0  0  0  0  0  0  0  0  0  0  0
    0.9201   -0.0126    3.4165 C   0  0  0  0  0  0  0  0  0  0  0  0
    1.7035    0.7522    3.3902 H   0  0  0  0  0  0  0  0  0  0  0  0
    0.1783    0.2808    4.1652 H   0  0  0  0  0  0  0  0  0  0  0  0
    1.3670   -0.9642    3.7235 H   0  0  0  0  0  0  0  0  0  0  0  0
  1  2  1  0  0  0  0
  2  3  1  0  0  0  0
  2  4  1  0  0  0  0
  2  5  1  0  0  0  0
  5  6  2  0  0  0  0
  5  7  1  0  0  0  0
  7  8  1  0  0  0  0
  7  9  1  0  0  0  0
  9 10  1  0  0  0  0
  9 11  1  0  0  0  0
  9 24  1  0  0  0  0
 11 12  1  0  0  0  0
 11 13  1  0  0  0  0
 11 17  1  0  0  0  0
 13 14  1  0  0  0  0
 13 15  1  0  0  0  0
 13 16  1  0  0  0  0
 17 18  1  0  0  0  0
 17 19  1  0  0  0  0
 17 20  1  0  0  0  0
 20 21  1  0  0  0  0
 20 22  1  0  0  0  0
 20 23  1  0  0  0  0
 24 25  2  0  0  0  0
 24 26  1  0  0  0  0
 26 27  1  0  0  0  0
 26 28  1  0  0  0  0
 28 29  1  0  0  0  0
 28 30  1  0  0  0  0
 28 31  1  0  0  0  0
M  END
$$$$

  -OEChem-03222214053D

 31 30  0     1  0  0  0  0  0999 V2000
   -2.5046   -4.3215    0.2932 H   0  0  0  0  0  0  0  0  0  0  0  0
   -2.5571   -3.2864   -0.0565 C   0  0  0  0  0  0  0  0  0  0  0  0
   -3.2817   -2.7446    0.5560 H   0  0  0  0  0  0  0  0  0  0  0  0
   -2.8926   -3.2841   -1.0964 H   0  0  0  0  0  0  0  0  0  0  0  0
   -1.1935   -2.6302    0.0505 C   0  0  0  0  0  0  0  0  0  0  0  0
   -0.2521   -3.2570    0.5010 O   0  0  0  0  0  0  0  0  0  0  0  0
   -1.0310   -1.3210   -0.3567 N   0  0  0  0  0  0  0  0  0  0  0  0
   -1.8349   -0.8690   -0.7809 H   0  0  0  0  0  0  0  0  0  0  0  0
    0.2640   -0.6116   -0.3985 C   0  0  1  0  0  0  0  0  0  0  0  0
    0.9264   -1.2481   -0.9968 H   0  0  0  0  0  0  0  0  0  0  0  0
    0.1629    0.7311   -1.1813 C   0  0  1  0  0  0  0  0  0  0  0  0
    1.1677    0.9466   -1.5619 H   0  0  0  0  0  0  0  0  0  0  0  0
   -0.7497    0.5890   -2.4167 C   0  0  0  0  0  0  0  0  0  0  0  0
   -1.8045    0.5637   -2.1266 H   0  0  0  0  0  0  0  0  0  0  0  0
   -0.6001    1.4277   -3.1035 H   0  0  0  0  0  0  0  0  0  0  0  0
   -0.5122   -0.3304   -2.9614 H   0  0  0  0  0  0  0  0  0  0  0  0
   -0.2167    1.9228   -0.2664 C   0  0  0  0  0  0  0  0  0  0  0  0
   -1.0276    1.6202    0.4034 H   0  0  0  0  0  0  0  0  0  0  0  0
    0.6481    2.1861    0.3525 H   0  0  0  0  0  0  0  0  0  0  0  0
   -0.6772    3.1778   -1.0151 C   0  0  0  0  0  0  0  0  0  0  0  0
   -1.6272    3.0052   -1.5295 H   0  0  0  0  0  0  0  0  0  0  0  0
   -0.8205    3.9999   -0.3075 H   0  0  0  0  0  0  0  0  0  0  0  0
    0.0751    3.4818   -1.7496 H   0  0  0  0  0  0  0  0  0  0  0  0
    0.9916   -0.4947    0.9626 C   0  0  0  0  0  0  0  0  0  0  0  0
    2.2151   -0.4848    0.9923 O   0  0  0  0  0  0  0  0  0  0  0  0
    0.2963   -0.1339    2.1035 N   0  0  0  0  0  0  0  0  0  0  0  0
   -0.7124   -0.2295    2.0605 H   0  0  0  0  0  0  0  0  0  0  0  0
    0.9345    0.0057    3.4063 C   0  0  0  0  0  0  0  0  0  0  0  0
    1.7188    0.7692    3.3695 H   0  0  0  0  0  0  0  0  0  0  0  0
    0.1982    0.3047    4.1582 H   0  0  0  0  0  0  0  0  0  0  0  0
    1.3819   -0.9447    3.7160 H   0  0  0  0  0  0  0  0  0  0  0  0
  1  2  1  0  0  0  0
  2  3  1  0  0  0  0
  2  4  1  0  0  0  0
  2  5  1  0  0  0  0
  5  6  2  0  0  0  0
  5  7  1  0  0  0  0
  7  8  1  0  0  0  0
  7  9  1  0  0  0  0
  9 10  1  0  0  0  0
  9 11  1  0  0  0  0
  9 24  1  0  0  0  0
 11 12  1  0  0  0  0
 11 13  1  0  0  0  0
 11 17  1  0  0  0  0
 13 14  1  0  0  0  0
 13 15  1  0  0  0  0
 13 16  1  0  0  0  0
 17 18  1  0  0  0  0
 17 19  1  0  0  0  0
 17 20  1  0  0  0  0
 20 21  1  0  0  0  0
 20 22  1  0  0  0  0
 20 23  1  0  0  0  0
 24 25  2  0  0  0  0
 24 26  1  0  0  0  0
 26 27  1  0  0  0  0
 26 28  1  0  0  0  0
 28 29  1  0  0  0  0
 28 30  1  0  0  0  0
 28 31  1  0  0  0  0
M  END
$$$$

  -OEChem-03222214053D

 31 30  0     1  0  0  0  0  0999 V2000
   -2.5077   -4.3314    0.2848 H   0  0  0  0  0  0  0  0  0  0  0  0
   -2.5658   -3.2943   -0.0577 C   0  0  0  0  0  0  0  0  0  0  0  0
   -3.2931   -2.7607    0.5587 H   0  0  0  0  0  0  0  0  0  0  0  0
   -2.9018   -3.2866   -1.0974 H   0  0  0  0  0  0  0  0  0  0  0  0
   -1.2054   -2.6320    0.0529 C   0  0  0  0  0  0  0  0  0  0  0  0
   -0.2598   -3.2580    0.4958 O   0  0  0  0  0  0  0  0  0  0  0  0
   -1.0497   -1.3184   -0.3423 N   0  0  0  0  0  0  0  0  0  0  0  0
   -1.8570   -0.8654   -0.7590 H   0  0  0  0  0  0  0  0  0  0  0  0
    0.2429   -0.6052   -0.3841 C   0  0  1  0  0  0  0  0  0  0  0  0
    0.9004   -1.2447   -0.9849 H   0  0  0  0  0  0  0  0  0  0  0  0
    0.1517    0.7329   -1.1755 C   0  0  1  0  0  0  0  0  0  0  0  0
    1.1616    0.9455   -1.5443 H   0  0  0  0  0  0  0  0  0  0  0  0
   -0.7317    0.5668   -2.4305 C   0  0  0  0  0  0  0  0  0  0  0  0
   -1.7911    0.4991   -2.1654 H   0  0  0  0  0  0  0  0  0  0  0  0
   -0.5975    1.4138   -3.1100 H   0  0  0  0  0  0  0  0  0  0  0  0
   -0.4502   -0.3409   -2.9741 H   0  0  0  0  0  0  0  0  0  0  0  0
   -0.2330    1.9384   -0.2744 C   0  0  0  0  0  0  0  0  0  0  0  0
   -0.8683    1.5882    0.5437 H   0  0  0  0  0  0  0  0  0  0  0  0
    0.6785    2.3535    0.1689 H   0  0  0  0  0  0  0  0  0  0  0  0
   -1.0132    3.0607   -0.9687 C   0  0  0  0  0  0  0  0  0  0  0  0
   -1.9913    2.7100   -1.3110 H   0  0  0  0  0  0  0  0  0  0  0  0
   -1.1761    3.8854   -0.2680 H   0  0  0  0  0  0  0  0  0  0  0  0
   -0.4513    3.4456   -1.8254 H   0  0  0  0  0  0  0  0  0  0  0  0
    0.9870   -0.4936    0.9691 C   0  0  0  0  0  0  0  0  0  0  0  0
    2.2108   -0.4775    0.9802 O   0  0  0  0  0  0  0  0  0  0  0  0
    0.3102   -0.1436    2.1244 N   0  0  0  0  0  0  0  0  0  0  0  0
   -0.6986   -0.2455    2.0995 H   0  0  0  0  0  0  0  0  0  0  0  0
    0.9701   -0.0074    3.4168 C   0  0  0  0  0  0  0  0  0  0  0  0
    1.7453    0.7647    3.3719 H   0  0  0  0  0  0  0  0  0  0  0  0
    0.2448    0.2784    4.1844 H   0  0  0  0  0  0  0  0  0  0  0  0
    1.4330   -0.9553    3.7114 H   0  0  0  0  0  0  0  0  0  0  0  0
  1  2  1  0  0  0  0
  2  3  1  0  0  0  0
  2  4  1  0  0  0  0
  2  5  1  0  0  0  0
  5  6  2  0  0  0  0
  5  7  1  0  0  0  0
  7  8  1  0  0  0  0
  7  9  1  0  0  0  0
  9 10  1  0  0  0  0
  9 11  1  0  0  0  0
  9 24  1  0  0  0  0
 11 12  1  0  0  0  0
 11 13  1  0  0  0  0
 11 17  1  0  0  0  0
 13 14  1  0  0  0  0
 13 15  1  0  0  0  0
 13 16  1  0  0  0  0
 17 18  1  0  0  0  0
 17 19  1  0  0  0  0
 17 20  1  0  0  0  0
 20 21  1  0  0  0  0
 20 22  1  0  0  0  0
 20 23  1  0  0  0  0
 24 25  2  0  0  0  0
 24 26  1  0  0  0  0
 26 27  1  0  0  0  0
 26 28  1  0  0  0  0
 28 29  1  0  0  0  0
 28 30  1  0  0  0  0
 28 31  1  0  0  0  0
M  END
$$$$

  -OEChem-03222214053D

 31 30  0     1  0  0  0  0  0999 V2000
   -2.5101   -4.3330    0.2860 H   0  0  0  0  0  0  0  0  0  0  0  0
   -2.5719   -3.2933   -0.0480 C   0  0  0  0  0  0  0  0  0  0  0  0
   -3.2912   -2.7640    0.5814 H   0  0  0  0  0  0  0  0  0  0  0  0
   -2.9209   -3.2775   -1.0834 H   0  0  0  0  0  0  0  0  0  0  0  0
   -1.2100   -2.6324    0.0507 C   0  0  0  0  0  0  0  0  0  0  0  0
   -0.2567   -3.2653    0.4669 O   0  0  0  0  0  0  0  0  0  0  0  0
   -1.0616   -1.3114   -0.3222 N   0  0  0  0  0  0  0  0  0  0  0  0
   -1.8775   -0.8475   -0.7089 H   0  0  0  0  0  0  0  0  0  0  0  0
    0.2274   -0.5929   -0.3626 C   0  0  1  0  0  0  0  0  0  0  0  0
    0.8813   -1.2311   -0.9687 H   0  0  0  0  0  0  0  0  0  0  0  0
    0.1335    0.7402   -1.1626 C   0  0  1  0  0  0  0  0  0  0  0  0
    1.1521    0.9500   -1.5089 H   0  0  0  0  0  0  0  0  0  0  0  0
   -0.7054    0.5508   -2.4447 C   0  0  0  0  0  0  0  0  0  0  0  0
   -1.7691    0.4385   -2.2168 H   0  0  0  0  0  0  0  0  0  0  0  0
   -0.5809    1.4071   -3.1142 H   0  0  0  0  0  0  0  0  0  0  0  0
   -0.3726   -0.3420   -2.9838 H   0  0  0  0  0  0  0  0  0  0  0  0
   -0.2611    1.9696   -0.2915 C   0  0  0  0  0  0  0  0  0  0  0  0
   -0.6649    1.6316    0.6643 H   0  0  0  0  0  0  0  0  0  0  0  0
    0.6420    2.5507   -0.0762 H   0  0  0  0  0  0  0  0  0  0  0  0
   -1.3250    2.9015   -0.8837 C   0  0  0  0  0  0  0  0  0  0  0  0
   -2.2715    2.3739   -1.0326 H   0  0  0  0  0  0  0  0  0  0  0  0
   -1.5065    3.7353   -0.1987 H   0  0  0  0  0  0  0  0  0  0  0  0
   -0.9898    3.3153   -1.8396 H   0  0  0  0  0  0  0  0  0  0  0  0
    0.9881   -0.4991    0.9832 C   0  0  0  0  0  0  0  0  0  0  0  0
    2.2119   -0.4788    0.9775 O   0  0  0  0  0  0  0  0  0  0  0  0
    0.3286   -0.1715    2.1550 N   0  0  0  0  0  0  0  0  0  0  0  0
   -0.6803   -0.2753    2.1441 H   0  0  0  0  0  0  0  0  0  0  0  0
    1.0086   -0.0551    3.4389 C   0  0  0  0  0  0  0  0  0  0  0  0
    1.7860    0.7150    3.3926 H   0  0  0  0  0  0  0  0  0  0  0  0
    0.2961    0.2227    4.2213 H   0  0  0  0  0  0  0  0  0  0  0  0
    1.4729   -1.0084    3.7131 H   0  0  0  0  0  0  0  0  0  0  0  0
  1  2  1  0  0  0  0
  2  3  1  0  0  0  0
  2  4  1  0  0  0  0
  2  5  1  0  0  0  0
  5  6  2  0  0  0  0
  5  7  1  0  0  0  0
  7  8  1  0  0  0  0
  7  9  1  0  0  0  0
  9 10  1  0  0  0  0
  9 11  1  0  0  0  0
  9 24  1  0  0  0  0
 11 12  1  0  0  0  0
 11 13  1  0  0  0  0
 11 17  1  0  0  0  0
 13 14  1  0  0  0  0
 13 15  1  0  0  0  0
 13 16  1  0  0  0  0
 17 18  1  0  0  0  0
 17 19  1  0  0  0  0
 17 20  1  0  0  0  0
 20 21  1  0  0  0  0
 20 22  1  0  0  0  0
 20 23  1  0  0  0  0
 24 25  2  0  0  0  0
 24 26  1  0  0  0  0
 26 27  1  0  0  0  0
 26 28  1  0  0  0  0
 28 29  1  0  0  0  0
 28 30  1  0  0  0  0
 28 31  1  0  0  0  0
M  END
$$$$

  -OEChem-03222214053D

 31 30  0     1  0  0  0  0  0999 V2000
   -2.5116   -4.3300    0.2946 H   0  0  0  0  0  0  0  0  0  0  0  0
   -2.5733   -3.2888   -0.0345 C   0  0  0  0  0  0  0  0  0  0  0  0
   -3.2862   -2.7606    0.6029 H   0  0  0  0  0  0  0  0  0  0  0  0
   -2.9303   -3.2673   -1.0669 H   0  0  0  0  0  0  0  0  0  0  0  0
   -1.2088   -2.6322    0.0558 C   0  0  0  0  0  0  0  0  0  0  0  0
   -0.2519   -3.2722    0.4524 O   0  0  0  0  0  0  0  0  0  0  0  0
   -1.0625   -1.3072   -0.3035 N   0  0  0  0  0  0  0  0  0  0  0  0
   -1.8829   -0.8360   -0.6714 H   0  0  0  0  0  0  0  0  0  0  0  0
    0.2257   -0.5884   -0.3473 C   0  0  1  0  0  0  0  0  0  0  0  0
    0.8756   -1.2237   -0.9608 H   0  0  0  0  0  0  0  0  0  0  0  0
    0.1175    0.7422   -1.1500 C   0  0  1  0  0  0  0  0  0  0  0  0
    1.1434    0.9478   -1.4769 H   0  0  0  0  0  0  0  0  0  0  0  0
   -0.6886    0.5487   -2.4516 C   0  0  0  0  0  0  0  0  0  0  0  0
   -1.7539    0.4038   -2.2512 H   0  0  0  0  0  0  0  0  0  0  0  0
   -0.5717    1.4195   -3.1038 H   0  0  0  0  0  0  0  0  0  0  0  0
   -0.3201   -0.3271   -2.9954 H   0  0  0  0  0  0  0  0  0  0  0  0
   -0.2789    1.9922   -0.3074 C   0  0  0  0  0  0  0  0  0  0  0  0
   -0.3893    1.7327    0.7449 H   0  0  0  0  0  0  0  0  0  0  0  0
    0.5374    2.7197   -0.3691 H   0  0  0  0  0  0  0  0  0  0  0  0
   -1.5747    2.6961   -0.7279 C   0  0  0  0  0  0  0  0  0  0  0  0
   -2.4259    2.0120   -0.6624 H   0  0  0  0  0  0  0  0  0  0  0  0
   -1.7662    3.5439   -0.0631 H   0  0  0  0  0  0  0  0  0  0  0  0
   -1.5003    3.0803   -1.7495 H   0  0  0  0  0  0  0  0  0  0  0  0
    0.9961   -0.5110    0.9937 C   0  0  0  0  0  0  0  0  0  0  0  0
    2.2198   -0.4926    0.9801 O   0  0  0  0  0  0  0  0  0  0  0  0
    0.3441   -0.1976    2.1736 N   0  0  0  0  0  0  0  0  0  0  0  0
   -0.6651   -0.2989    2.1672 H   0  0  0  0  0  0  0  0  0  0  0  0
    1.0324   -0.0974    3.4543 C   0  0  0  0  0  0  0  0  0  0  0  0
    1.8089    0.6735    3.4131 H   0  0  0  0  0  0  0  0  0  0  0  0
    0.3247    0.1695    4.2447 H   0  0  0  0  0  0  0  0  0  0  0  0
    1.4989   -1.0538    3.7129 H   0  0  0  0  0  0  0  0  0  0  0  0
  1  2  1  0  0  0  0
  2  3  1  0  0  0  0
  2  4  1  0  0  0  0
  2  5  1  0  0  0  0
  5  6  2  0  0  0  0
  5  7  1  0  0  0  0
  7  8  1  0  0  0  0
  7  9  1  0  0  0  0
  9 10  1  0  0  0  0
  9 11  1  0  0  0  0
  9 24  1  0  0  0  0
 11 12  1  0  0  0  0
 11 13  1  0  0  0  0
 11 17  1  0  0  0  0
 13 14  1  0  0  0  0
 13 15  1  0  0  0  0
 13 16  1  0  0  0  0
 17 18  1  0  0  0  0
 17 19  1  0  0  0  0
 17 20  1  0  0  0  0
 20 21  1  0  0  0  0
 20 22  1  0  0  0  0
 20 23  1  0  0  0  0
 24 25  2  0  0  0  0
 24 26  1  0  0  0  0
 26 27  1  0  0  0  0
 26 28  1  0  0  0  0
 28 29  1  0  0  0  0
 28 30  1  0  0  0  0
 28 31  1  0  0  0  0
M  END
$$$$

  -OEChem-03222214053D

 31 30  0     1  0  0  0  0  0999 V2000
   -2.5103   -4.3245    0.3200 H   0  0  0  0  0  0  0  0  0  0  0  0
   -2.5669   -3.2848   -0.0149 C   0  0  0  0  0  0  0  0  0  0  0  0
   -3.2721   -2.7476    0.6237 H   0  0  0  0  0  0  0  0  0  0  0  0
   -2.9305   -3.2672   -1.0452 H   0  0  0  0  0  0  0  0  0  0  0  0
   -1.1978   -2.6359    0.0628 C   0  0  0  0  0  0  0  0  0  0  0  0
   -0.2411   -3.2802    0.4526 O   0  0  0  0  0  0  0  0  0  0  0  0
   -1.0471   -1.3137   -0.3040 N   0  0  0  0  0  0  0  0  0  0  0  0
   -1.8677   -0.8400   -0.6684 H   0  0  0  0  0  0  0  0  0  0  0  0
    0.2430   -0.5990   -0.3549 C   0  0  1  0  0  0  0  0  0  0  0  0
    0.8925   -1.2315   -0.9717 H   0  0  0  0  0  0  0  0  0  0  0  0
    0.1183    0.7338   -1.1508 C   0  0  1  0  0  0  0  0  0  0  0  0
    1.1446    0.9399   -1.4766 H   0  0  0  0  0  0  0  0  0  0  0  0
   -0.6920    0.5587   -2.4509 C   0  0  0  0  0  0  0  0  0  0  0  0
   -1.7501    0.3705   -2.2486 H   0  0  0  0  0  0  0  0  0  0  0  0
   -0.6116    1.4588   -3.0686 H   0  0  0  0  0  0  0  0  0  0  0  0
   -0.2980   -0.2837   -3.0284 H   0  0  0  0  0  0  0  0  0  0  0  0
   -0.2698    1.9872   -0.3142 C   0  0  0  0  0  0  0  0  0  0  0  0
   -0.0723    1.8407    0.7471 H   0  0  0  0  0  0  0  0  0  0  0  0
    0.3744    2.8134   -0.6330 H   0  0  0  0  0  0  0  0  0  0  0  0
   -1.7199    2.4543   -0.4812 C   0  0  0  0  0  0  0  0  0  0  0  0
   -2.4135    1.6500   -0.2183 H   0  0  0  0  0  0  0  0  0  0  0  0
   -1.9131    3.3047    0.1799 H   0  0  0  0  0  0  0  0  0  0  0  0
   -1.9168    2.7751   -1.5084 H   0  0  0  0  0  0  0  0  0  0  0  0
    1.0060   -0.5238    0.9896 C   0  0  0  0  0  0  0  0  0  0  0  0
    2.2298   -0.5114    0.9856 O   0  0  0  0  0  0  0  0  0  0  0  0
    0.3438   -0.2048    2.1626 N   0  0  0  0  0  0  0  0  0  0  0  0
   -0.6665   -0.2928    2.1443 H   0  0  0  0  0  0  0  0  0  0  0  0
    1.0182   -0.1050    3.4506 C   0  0  0  0  0  0  0  0  0  0  0  0
    1.7993    0.6618    3.4167 H   0  0  0  0  0  0  0  0  0  0  0  0
    0.3027    0.1672    4.2322 H   0  0  0  0  0  0  0  0  0  0  0  0
    1.4767   -1.0633    3.7165 H   0  0  0  0  0  0  0  0  0  0  0  0
  1  2  1  0  0  0  0
  2  3  1  0  0  0  0
  2  4  1  0  0  0  0
  2  5  1  0  0  0  0
  5  6  2  0  0  0  0
  5  7  1  0  0  0  0
  7  8  1  0  0  0  0
  7  9  1  0  0  0  0
  9 10  1  0  0  0  0
  9 11  1  0  0  0  0
  9 24  1  0  0  0  0
 11 12  1  0  0  0  0
 11 13  1  0  0  0  0
 11 17  1  0  0  0  0
 13 14  1  0  0  0  0
 13 15  1  0  0  0  0
 13 16  1  0  0  0  0
 17 18  1  0  0  0  0
 17 19  1  0  0  0  0
 17 20  1  0  0  0  0
 20 21  1  0  0  0  0
 20 22  1  0  0  0  0
 20 23  1  0  0  0  0
 24 25  2  0  0  0  0
 24 26  1  0  0  0  0
 26 27  1  0  0  0  0
 26 28  1  0  0  0  0
 28 29  1  0  0  0  0
 28 30  1  0  0  0  0
 28 31  1  0  0  0  0
M  END
$$$$

  -OEChem-03222214053D

 31 30  0     1  0  0  0  0  0999 V2000
   -2.5016   -4.3302    0.3435 H   0  0  0  0  0  0  0  0  0  0  0  0
   -2.5571   -3.2940   -0.0024 C   0  0  0  0  0  0  0  0  0  0  0  0
   -3.2617   -2.7495    0.6308 H   0  0  0  0  0  0  0  0  0  0  0  0
   -2.9213   -3.2872   -1.0326 H   0  0  0  0  0  0  0  0  0  0  0  0
   -1.1864   -2.6471    0.0678 C   0  0  0  0  0  0  0  0  0  0  0  0
   -0.2328   -3.2886    0.4697 O   0  0  0  0  0  0  0  0  0  0  0  0
   -1.0305   -1.3305   -0.3181 N   0  0  0  0  0  0  0  0  0  0  0  0
   -1.8489   -0.8601   -0.6913 H   0  0  0  0  0  0  0  0  0  0  0  0
    0.2621   -0.6193   -0.3745 C   0  0  1  0  0  0  0  0  0  0  0  0
    0.9144   -1.2502   -0.9898 H   0  0  0  0  0  0  0  0  0  0  0  0
    0.1327    0.7202   -1.1593 C   0  0  1  0  0  0  0  0  0  0  0  0
    1.1536    0.9285   -1.4993 H   0  0  0  0  0  0  0  0  0  0  0  0
   -0.7079    0.5758   -2.4426 C   0  0  0  0  0  0  0  0  0  0  0  0
   -1.7572    0.3619   -2.2216 H   0  0  0  0  0  0  0  0  0  0  0  0
   -0.6607    1.4996   -3.0276 H   0  0  0  0  0  0  0  0  0  0  0  0
   -0.3140   -0.2385   -3.0590 H   0  0  0  0  0  0  0  0  0  0  0  0
   -0.2431    1.9638   -0.3102 C   0  0  0  0  0  0  0  0  0  0  0  0
    0.2093    1.9236    0.6821 H   0  0  0  0  0  0  0  0  0  0  0  0
    0.1856    2.8439   -0.8007 H   0  0  0  0  0  0  0  0  0  0  0  0
   -1.7500    2.2079   -0.1790 C   0  0  0  0  0  0  0  0  0  0  0  0
   -2.2455    1.3283    0.2422 H   0  0  0  0  0  0  0  0  0  0  0  0
   -1.9295    3.0569    0.4875 H   0  0  0  0  0  0  0  0  0  0  0  0
   -2.1993    2.4395   -1.1491 H   0  0  0  0  0  0  0  0  0  0  0  0
    1.0111   -0.5313    0.9763 C   0  0  0  0  0  0  0  0  0  0  0  0
    2.2349   -0.5232    0.9879 O   0  0  0  0  0  0  0  0  0  0  0  0
    0.3320   -0.1950    2.1345 N   0  0  0  0  0  0  0  0  0  0  0  0
   -0.6784   -0.2756    2.1008 H   0  0  0  0  0  0  0  0  0  0  0  0
    0.9868   -0.0764    3.4309 C   0  0  0  0  0  0  0  0  0  0  0  0
    1.7693    0.6889    3.3973 H   0  0  0  0  0  0  0  0  0  0  0  0
    0.2598    0.2089    4.1970 H   0  0  0  0  0  0  0  0  0  0  0  0
    1.4394   -1.0312    3.7186 H   0  0  0  0  0  0  0  0  0  0  0  0
  1  2  1  0  0  0  0
  2  3  1  0  0  0  0
  2  4  1  0  0  0  0
  2  5  1  0  0  0  0
  5  6  2  0  0  0  0
  5  7  1  0  0  0  0
  7  8  1  0  0  0  0
  7  9  1  0  0  0  0
  9 10  1  0  0  0  0
  9 11  1  0  0  0  0
  9 24  1  0  0  0  0
 11 12  1  0  0  0  0
 11 13  1  0  0  0  0
 11 17  1  0  0  0  0
 13 14  1  0  0  0  0
 13 15  1  0  0  0  0
 13 16  1  0  0  0  0
 17 18  1  0  0  0  0
 17 19  1  0  0  0  0
 17 20  1  0  0  0  0
 20 21  1  0  0  0  0
 20 22  1  0  0  0  0
 20 23  1  0  0  0  0
 24 25  2  0  0  0  0
 24 26  1  0  0  0  0
 26 27  1  0  0  0  0
 26 28  1  0  0  0  0
 28 29  1  0  0  0  0
 28 30  1  0  0  0  0
 28 31  1  0  0  0  0
M  END
$$$$

  -OEChem-03222214053D

 31 30  0     1  0  0  0  0  0999 V2000
   -2.4934   -4.3421    0.3454 H   0  0  0  0  0  0  0  0  0  0  0  0
   -2.5476   -3.3079   -0.0065 C   0  0  0  0  0  0  0  0  0  0  0  0
   -3.2545   -2.7601    0.6209 H   0  0  0  0  0  0  0  0  0  0  0  0
   -2.9079   -3.3069   -1.0379 H   0  0  0  0  0  0  0  0  0  0  0  0
   -1.1778   -2.6596    0.0656 C   0  0  0  0  0  0  0  0  0  0  0  0
   -0.2267   -3.2948    0.4829 O   0  0  0  0  0  0  0  0  0  0  0  0
   -1.0210   -1.3475   -0.3340 N   0  0  0  0  0  0  0  0  0  0  0  0
   -1.8374   -0.8818   -0.7176 H   0  0  0  0  0  0  0  0  0  0  0  0
    0.2714   -0.6357   -0.3881 C   0  0  1  0  0  0  0  0  0  0  0  0
    0.9273   -1.2671   -0.9987 H   0  0  0  0  0  0  0  0  0  0  0  0
    0.1495    0.7088   -1.1649 C   0  0  1  0  0  0  0  0  0  0  0  0
    1.1651    0.9174   -1.5198 H   0  0  0  0  0  0  0  0  0  0  0  0
   -0.7214    0.5895   -2.4296 C   0  0  0  0  0  0  0  0  0  0  0  0
   -1.7676    0.3843   -2.1881 H   0  0  0  0  0  0  0  0  0  0  0  0
   -0.6787    1.5205   -3.0036 H   0  0  0  0  0  0  0  0  0  0  0  0
   -0.3495   -0.2206   -3.0650 H   0  0  0  0  0  0  0  0  0  0  0  0
   -0.2215    1.9416   -0.3039 C   0  0  0  0  0  0  0  0  0  0  0  0
    0.4212    2.0016    0.5786 H   0  0  0  0  0  0  0  0  0  0  0  0
   -0.0182    2.8423   -0.8926 H   0  0  0  0  0  0  0  0  0  0  0  0
   -1.6914    1.9872    0.1274 C   0  0  0  0  0  0  0  0  0  0  0  0
   -1.9602    1.0868    0.6862 H   0  0  0  0  0  0  0  0  0  0  0  0
   -1.8588    2.8542    0.7736 H   0  0  0  0  0  0  0  0  0  0  0  0
   -2.3529    2.0785   -0.7384 H   0  0  0  0  0  0  0  0  0  0  0  0
    1.0113   -0.5307    0.9662 C   0  0  0  0  0  0  0  0  0  0  0  0
    2.2350   -0.5220    0.9859 O   0  0  0  0  0  0  0  0  0  0  0  0
    0.3238   -0.1810    2.1151 N   0  0  0  0  0  0  0  0  0  0  0  0
   -0.6861   -0.2637    2.0754 H   0  0  0  0  0  0  0  0  0  0  0  0
    0.9690   -0.0484    3.4145 C   0  0  0  0  0  0  0  0  0  0  0  0
    1.7547    0.7134    3.3776 H   0  0  0  0  0  0  0  0  0  0  0  0
    0.2372    0.2492    4.1713 H   0  0  0  0  0  0  0  0  0  0  0  0
    1.4157   -1.0013    3.7174 H   0  0  0  0  0  0  0  0  0  0  0  0
  1  2  1  0  0  0  0
  2  3  1  0  0  0  0
  2  4  1  0  0  0  0
  2  5  1  0  0  0  0
  5  6  2  0  0  0  0
  5  7  1  0  0  0  0
  7  8  1  0  0  0  0
  7  9  1  0  0  0  0
  9 10  1  0  0  0  0
  9 11  1  0  0  0  0
  9 24  1  0  0  0  0
 11 12  1  0  0  0  0
 11 13  1  0  0  0  0
 11 17  1  0  0  0  0
 13 14  1  0  0  0  0
 13 15  1  0  0  0  0
 13 16  1  0  0  0  0
 17 18  1  0  0  0  0
 17 19  1  0  0  0  0
 17 20  1  0  0  0  0
 20 21  1  0  0  0  0
 20 22  1  0  0  0  0
 20 23  1  0  0  0  0
 24 25  2  0  0  0  0
 24 26  1  0  0  0  0
 26 27  1  0  0  0  0
 26 28  1  0  0  0  0
 28 29  1  0  0  0  0
 28 30  1  0  0  0  0
 28 31  1  0  0  0  0
M  END
$$$$

  -OEChem-03222214053D

 31 30  0     1  0  0  0  0  0999 V2000
   -2.4673   -4.3910    0.2389 H   0  0  0  0  0  0  0  0  0  0  0  0
   -2.5334   -3.3495   -0.0887 C   0  0  0  0  0  0  0  0  0  0  0  0
   -3.2625   -2.8298    0.5375 H   0  0  0  0  0  0  0  0  0  0  0  0
   -2.8725   -3.3289   -1.1271 H   0  0  0  0  0  0  0  0  0  0  0  0
   -1.1774   -2.6792    0.0263 C   0  0  0  0  0  0  0  0  0  0  0  0
   -0.2218   -3.3080    0.4436 O   0  0  0  0  0  0  0  0  0  0  0  0
   -1.0379   -1.3541   -0.3338 N   0  0  0  0  0  0  0  0  0  0  0  0
   -1.8547   -0.8940   -0.7229 H   0  0  0  0  0  0  0  0  0  0  0  0
    0.2460   -0.6263   -0.3650 C   0  0  1  0  0  0  0  0  0  0  0  0
    0.9013   -1.2516   -0.9828 H   0  0  0  0  0  0  0  0  0  0  0  0
    0.1472    0.7213   -1.1383 C   0  0  1  0  0  0  0  0  0  0  0  0
    1.1626    0.9280   -1.4953 H   0  0  0  0  0  0  0  0  0  0  0  0
   -0.7362    0.6089   -2.3945 C   0  0  0  0  0  0  0  0  0  0  0  0
   -1.7887    0.4615   -2.1381 H   0  0  0  0  0  0  0  0  0  0  0  0
   -0.6557    1.5214   -2.9936 H   0  0  0  0  0  0  0  0  0  0  0  0
   -0.4083   -0.2338   -3.0117 H   0  0  0  0  0  0  0  0  0  0  0  0
   -0.2447    1.9556   -0.2917 C   0  0  0  0  0  0  0  0  0  0  0  0
    0.5206    2.1198    0.4738 H   0  0  0  0  0  0  0  0  0  0  0  0
   -0.2433    2.8425   -0.9338 H   0  0  0  0  0  0  0  0  0  0  0  0
   -1.6118    1.8520    0.3987 C   0  0  0  0  0  0  0  0  0  0  0  0
   -2.4144    1.8009   -0.3422 H   0  0  0  0  0  0  0  0  0  0  0  0
   -1.7780    2.7381    1.0188 H   0  0  0  0  0  0  0  0  0  0  0  0
   -1.6775    0.9721    1.0403 H   0  0  0  0  0  0  0  0  0  0  0  0
    1.0138   -0.5327    0.9760 C   0  0  0  0  0  0  0  0  0  0  0  0
    2.2375   -0.5025    0.9610 O   0  0  0  0  0  0  0  0  0  0  0  0
    0.3630   -0.2166    2.1548 N   0  0  0  0  0  0  0  0  0  0  0  0
   -0.6462   -0.3159    2.1512 H   0  0  0  0  0  0  0  0  0  0  0  0
    1.0528   -0.0753    3.4305 C   0  0  0  0  0  0  0  0  0  0  0  0
    1.7902    0.7327    3.3801 H   0  0  0  0  0  0  0  0  0  0  0  0
    0.3373    0.1611    4.2235 H   0  0  0  0  0  0  0  0  0  0  0  0
    1.5671   -1.0059    3.6924 H   0  0  0  0  0  0  0  0  0  0  0  0
  1  2  1  0  0  0  0
  2  3  1  0  0  0  0
  2  4  1  0  0  0  0
  2  5  1  0  0  0  0
  5  6  2  0  0  0  0
  5  7  1  0  0  0  0
  7  8  1  0  0  0  0
  7  9  1  0  0  0  0
  9 10  1  0  0  0  0
  9 11  1  0  0  0  0
  9 24  1  0  0  0  0
 11 12  1  0  0  0  0
 11 13  1  0  0  0  0
 11 17  1  0  0  0  0
 13 14  1  0  0  0  0
 13 15  1  0  0  0  0
 13 16  1  0  0  0  0
 17 18  1  0  0  0  0
 17 19  1  0  0  0  0
 17 20  1  0  0  0  0
 20 21  1  0  0  0  0
 20 22  1  0  0  0  0
 20 23  1  0  0  0  0
 24 25  2  0  0  0  0
 24 26  1  0  0  0  0
 26 27  1  0  0  0  0
 26 28  1  0  0  0  0
 28 29  1  0  0  0  0
 28 30  1  0  0  0  0
 28 31  1  0  0  0  0
M  END
$$$$

  -OEChem-03222214053D

 31 30  0     1  0  0  0  0  0999 V2000
   -2.6639   -4.3264    0.1379 H   0  0  0  0  0  0  0  0  0  0  0  0
   -2.6919   -3.2668   -0.1323 C   0  0  0  0  0  0  0  0  0  0  0  0
   -3.4078   -2.7572    0.5170 H   0  0  0  0  0  0  0  0  0  0  0  0
   -3.0228   -3.1781   -1.1699 H   0  0  0  0  0  0  0  0  0  0  0  0
   -1.3142   -2.6518    0.0278 C   0  0  0  0  0  0  0  0  0  0  0  0
   -0.3912   -3.3288    0.4434 O   0  0  0  0  0  0  0  0  0  0  0  0
   -1.1168   -1.3220   -0.2851 N   0  0  0  0  0  0  0  0  0  0  0  0
   -1.9104   -0.8139   -0.6626 H   0  0  0  0  0  0  0  0  0  0  0  0
    0.1955   -0.6462   -0.2725 C   0  0  1  0  0  0  0  0  0  0  0  0
    0.8220   -1.3264   -0.8622 H   0  0  0  0  0  0  0  0  0  0  0  0
    0.2382    0.6661   -1.1096 C   0  0  1  0  0  0  0  0  0  0  0  0
    1.2812    0.7860   -1.4249 H   0  0  0  0  0  0  0  0  0  0  0  0
   -0.5957    0.5308   -2.3968 C   0  0  0  0  0  0  0  0  0  0  0  0
   -1.6672    0.5166   -2.1768 H   0  0  0  0  0  0  0  0  0  0  0  0
   -0.3961    1.3729   -3.0669 H   0  0  0  0  0  0  0  0  0  0  0  0
   -0.3340   -0.3917   -2.9251 H   0  0  0  0  0  0  0  0  0  0  0  0
   -0.1342    1.9847   -0.3895 C   0  0  0  0  0  0  0  0  0  0  0  0
    0.7069    2.2646    0.2537 H   0  0  0  0  0  0  0  0  0  0  0  0
   -0.2501    2.7850   -1.1277 H   0  0  0  0  0  0  0  0  0  0  0  0
   -1.3900    1.9309    0.4910 C   0  0  0  0  0  0  0  0  0  0  0  0
   -1.5427    2.9032    0.9690 H   0  0  0  0  0  0  0  0  0  0  0  0
   -1.3250    1.1806    1.2740 H   0  0  0  0  0  0  0  0  0  0  0  0
   -2.2688    1.7096   -0.1212 H   0  0  0  0  0  0  0  0  0  0  0  0
    0.9764   -0.6078    1.0655 C   0  0  0  0  0  0  0  0  0  0  0  0
    2.2002   -0.6178    1.0326 O   0  0  0  0  0  0  0  0  0  0  0  0
    0.3644   -0.2992    2.2661 N   0  0  0  0  0  0  0  0  0  0  0  0
   -0.6470   -0.3731    2.2847 H   0  0  0  0  0  0  0  0  0  0  0  0
    1.0858   -0.2165    3.5298 C   0  0  0  0  0  0  0  0  0  0  0  0
    1.8323    0.5837    3.4927 H   0  0  0  0  0  0  0  0  0  0  0  0
    0.3920   -0.0034    4.3484 H   0  0  0  0  0  0  0  0  0  0  0  0
    1.5939   -1.1629    3.7432 H   0  0  0  0  0  0  0  0  0  0  0  0
  1  2  1  0  0  0  0
  2  3  1  0  0  0  0
  2  4  1  0  0  0  0
  2  5  1  0  0  0  0
  5  6  2  0  0  0  0
  5  7  1  0  0  0  0
  7  8  1  0  0  0  0
  7  9  1  0  0  0  0
  9 10  1  0  0  0  0
  9 11  1  0  0  0  0
  9 24  1  0  0  0  0
 11 12  1  0  0  0  0
 11 13  1  0  0  0  0
 11 17  1  0  0  0  0
 13 14  1  0  0  0  0
 13 15  1  0  0  0  0
 13 16  1  0  0  0  0
 17 18  1  0  0  0  0
 17 19  1  0  0  0  0
 17 20  1  0  0  0  0
 20 21  1  0  0  0  0
 20 22  1  0  0  0  0
 20 23  1  0  0  0  0
 24 25  2  0  0  0  0
 24 26  1  0  0  0  0
 26 27  1  0  0  0  0
 26 28  1  0  0  0  0
 28 29  1  0  0  0  0
 28 30  1  0  0  0  0
 28 31  1  0  0  0  0
M  END
$$$$

  -OEChem-03222214053D

 31 30  0     1  0  0  0  0  0999 V2000
   -2.3955   -4.4562    0.1585 H   0  0  0  0  0  0  0  0  0  0  0  0
   -2.4977   -3.3990   -0.1031 C   0  0  0  0  0  0  0  0  0  0  0  0
   -3.2207   -2.9376    0.5738 H   0  0  0  0  0  0  0  0  0  0  0  0
   -2.8683   -3.3253   -1.1283 H   0  0  0  0  0  0  0  0  0  0  0  0
   -1.1557   -2.7014    0.0151 C   0  0  0  0  0  0  0  0  0  0  0  0
   -0.1740   -3.3294    0.3681 O   0  0  0  0  0  0  0  0  0  0  0  0
   -1.0578   -1.3529   -0.2640 N   0  0  0  0  0  0  0  0  0  0  0  0
   -1.8968   -0.8909   -0.6002 H   0  0  0  0  0  0  0  0  0  0  0  0
    0.2079   -0.5927   -0.2927 C   0  0  1  0  0  0  0  0  0  0  0  0
    0.8510   -1.2218   -0.9201 H   0  0  0  0  0  0  0  0  0  0  0  0
    0.1355    0.7291   -1.1178 C   0  0  1  0  0  0  0  0  0  0  0  0
    1.1559    0.9055   -1.4769 H   0  0  0  0  0  0  0  0  0  0  0  0
   -0.7357    0.5290   -2.3723 C   0  0  0  0  0  0  0  0  0  0  0  0
   -1.7967    0.4772   -2.1095 H   0  0  0  0  0  0  0  0  0  0  0  0
   -0.5955    1.3617   -3.0690 H   0  0  0  0  0  0  0  0  0  0  0  0
   -0.4559   -0.3935   -2.8912 H   0  0  0  0  0  0  0  0  0  0  0  0
   -0.2874    2.0490   -0.4162 C   0  0  0  0  0  0  0  0  0  0  0  0
    0.6171    2.5458   -0.0490 H   0  0  0  0  0  0  0  0  0  0  0  0
   -0.7317    2.7200   -1.1588 H   0  0  0  0  0  0  0  0  0  0  0  0
   -1.2546    1.9360    0.7648 C   0  0  0  0  0  0  0  0  0  0  0  0
   -1.8011    2.8775    0.8782 H   0  0  0  0  0  0  0  0  0  0  0  0
   -0.7192    1.7646    1.6981 H   0  0  0  0  0  0  0  0  0  0  0  0
   -1.9830    1.1368    0.6035 H   0  0  0  0  0  0  0  0  0  0  0  0
    1.0295   -0.5581    1.0185 C   0  0  0  0  0  0  0  0  0  0  0  0
    2.2503   -0.4939    0.9512 O   0  0  0  0  0  0  0  0  0  0  0  0
    0.4325   -0.3342    2.2447 N   0  0  0  0  0  0  0  0  0  0  0  0
   -0.5734   -0.4580    2.2820 H   0  0  0  0  0  0  0  0  0  0  0  0
    1.1804   -0.2710    3.4941 C   0  0  0  0  0  0  0  0  0  0  0  0
    1.9170    0.5386    3.4597 H   0  0  0  0  0  0  0  0  0  0  0  0
    0.5026   -0.0838    4.3323 H   0  0  0  0  0  0  0  0  0  0  0  0
    1.7037   -1.2159    3.6741 H   0  0  0  0  0  0  0  0  0  0  0  0
  1  2  1  0  0  0  0
  2  3  1  0  0  0  0
  2  4  1  0  0  0  0
  2  5  1  0  0  0  0
  5  6  2  0  0  0  0
  5  7  1  0  0  0  0
  7  8  1  0  0  0  0
  7  9  1  0  0  0  0
  9 10  1  0  0  0  0
  9 11  1  0  0  0  0
  9 24  1  0  0  0  0
 11 12  1  0  0  0  0
 11 13  1  0  0  0  0
 11 17  1  0  0  0  0
 13 14  1  0  0  0  0
 13 15  1  0  0  0  0
 13 16  1  0  0  0  0
 17 18  1  0  0  0  0
 17 19  1  0  0  0  0
 17 20  1  0  0  0  0
 20 21  1  0  0  0  0
 20 22  1  0  0  0  0
 20 23  1  0  0  0  0
 24 25  2  0  0  0  0
 24 26  1  0  0  0  0
 26 27  1  0  0  0  0
 26 28  1  0  0  0  0
 28 29  1  0  0  0  0
 28 30  1  0  0  0  0
 28 31  1  0  0  0  0
M  END
$$$$

  -OEChem-03222214053D

 31 30  0     1  0  0  0  0  0999 V2000
   -2.7226   -4.2791    0.1016 H   0  0  0  0  0  0  0  0  0  0  0  0
   -2.7279   -3.2171   -0.1603 C   0  0  0  0  0  0  0  0  0  0  0  0
   -3.4191   -2.6945    0.5053 H   0  0  0  0  0  0  0  0  0  0  0  0
   -3.0735   -3.1114   -1.1914 H   0  0  0  0  0  0  0  0  0  0  0  0
   -1.3323   -2.6390   -0.0194 C   0  0  0  0  0  0  0  0  0  0  0  0
   -0.4116   -3.3545    0.3310 O   0  0  0  0  0  0  0  0  0  0  0  0
   -1.1172   -1.2995   -0.2760 N   0  0  0  0  0  0  0  0  0  0  0  0
   -1.9120   -0.7603   -0.6051 H   0  0  0  0  0  0  0  0  0  0  0  0
    0.2055   -0.6429   -0.2611 C   0  0  1  0  0  0  0  0  0  0  0  0
    0.8156   -1.3210   -0.8704 H   0  0  0  0  0  0  0  0  0  0  0  0
    0.2582    0.6747   -1.0984 C   0  0  1  0  0  0  0  0  0  0  0  0
    1.3066    0.7645   -1.4061 H   0  0  0  0  0  0  0  0  0  0  0  0
   -0.5543    0.5158   -2.3979 C   0  0  0  0  0  0  0  0  0  0  0  0
   -1.6291    0.5345   -2.1935 H   0  0  0  0  0  0  0  0  0  0  0  0
   -0.3224    1.3301   -3.0920 H   0  0  0  0  0  0  0  0  0  0  0  0
   -0.3069   -0.4288   -2.8932 H   0  0  0  0  0  0  0  0  0  0  0  0
   -0.0834    2.0477   -0.4479 C   0  0  0  0  0  0  0  0  0  0  0  0
    0.8498    2.6070   -0.3209 H   0  0  0  0  0  0  0  0  0  0  0  0
   -0.6977    2.6276   -1.1447 H   0  0  0  0  0  0  0  0  0  0  0  0
   -0.8015    2.0490    0.8999 C   0  0  0  0  0  0  0  0  0  0  0  0
   -1.3051    3.0095    1.0454 H   0  0  0  0  0  0  0  0  0  0  0  0
   -0.0842    1.9345    1.7147 H   0  0  0  0  0  0  0  0  0  0  0  0
   -1.5554    1.2586    0.9491 H   0  0  0  0  0  0  0  0  0  0  0  0
    0.9834   -0.6964    1.0764 C   0  0  0  0  0  0  0  0  0  0  0  0
    2.2069   -0.7318    1.0505 O   0  0  0  0  0  0  0  0  0  0  0  0
    0.3639   -0.4430    2.2865 N   0  0  0  0  0  0  0  0  0  0  0  0
   -0.6496   -0.4770    2.2880 H   0  0  0  0  0  0  0  0  0  0  0  0
    1.0712   -0.4534    3.5606 C   0  0  0  0  0  0  0  0  0  0  0  0
    1.8553    0.3109    3.5697 H   0  0  0  0  0  0  0  0  0  0  0  0
    0.3772   -0.2446    4.3800 H   0  0  0  0  0  0  0  0  0  0  0  0
    1.5306   -1.4322    3.7348 H   0  0  0  0  0  0  0  0  0  0  0  0
  1  2  1  0  0  0  0
  2  3  1  0  0  0  0
  2  4  1  0  0  0  0
  2  5  1  0  0  0  0
  5  6  2  0  0  0  0
  5  7  1  0  0  0  0
  7  8  1  0  0  0  0
  7  9  1  0  0  0  0
  9 10  1  0  0  0  0
  9 11  1  0  0  0  0
  9 24  1  0  0  0  0
 11 12  1  0  0  0  0
 11 13  1  0  0  0  0
 11 17  1  0  0  0  0
 13 14  1  0  0  0  0
 13 15  1  0  0  0  0
 13 16  1  0  0  0  0
 17 18  1  0  0  0  0
 17 19  1  0  0  0  0
 17 20  1  0  0  0  0
 20 21  1  0  0  0  0
 20 22  1  0  0  0  0
 20 23  1  0  0  0  0
 24 25  2  0  0  0  0
 24 26  1  0  0  0  0
 26 27  1  0  0  0  0
 26 28  1  0  0  0  0
 28 29  1  0  0  0  0
 28 30  1  0  0  0  0
 28 31  1  0  0  0  0
M  END
$$$$

  -OEChem-03222214053D

 31 30  0     1  0  0  0  0  0999 V2000
   -2.5647   -4.3807    0.2710 H   0  0  0  0  0  0  0  0  0  0  0  0
   -2.6149   -3.3245   -0.0090 C   0  0  0  0  0  0  0  0  0  0  0  0
   -3.3215   -2.8188    0.6531 H   0  0  0  0  0  0  0  0  0  0  0  0
   -2.9722   -3.2515   -1.0389 H   0  0  0  0  0  0  0  0  0  0  0  0
   -1.2433   -2.6871    0.1098 C   0  0  0  0  0  0  0  0  0  0  0  0
   -0.2963   -3.3516    0.4892 O   0  0  0  0  0  0  0  0  0  0  0  0
   -1.0794   -1.3525   -0.2044 N   0  0  0  0  0  0  0  0  0  0  0  0
   -1.8942   -0.8601   -0.5571 H   0  0  0  0  0  0  0  0  0  0  0  0
    0.2178   -0.6474   -0.2287 C   0  0  1  0  0  0  0  0  0  0  0  0
    0.8497   -1.3325   -0.8071 H   0  0  0  0  0  0  0  0  0  0  0  0
    0.2081    0.6200   -1.1438 C   0  0  1  0  0  0  0  0  0  0  0  0
    1.2592    0.7346   -1.4335 H   0  0  0  0  0  0  0  0  0  0  0  0
   -0.5612    0.3461   -2.4496 C   0  0  0  0  0  0  0  0  0  0  0  0
   -1.6395    0.3004   -2.2688 H   0  0  0  0  0  0  0  0  0  0  0  0
   -0.3679    1.1419   -3.1761 H   0  0  0  0  0  0  0  0  0  0  0  0
   -0.2393   -0.6018   -2.8927 H   0  0  0  0  0  0  0  0  0  0  0  0
   -0.1885    2.0243   -0.5970 C   0  0  0  0  0  0  0  0  0  0  0  0
    0.6416    2.7131   -0.7873 H   0  0  0  0  0  0  0  0  0  0  0  0
   -1.0404    2.3961   -1.1757 H   0  0  0  0  0  0  0  0  0  0  0  0
   -0.5763    2.1575    0.8708 C   0  0  0  0  0  0  0  0  0  0  0  0
    0.3076    2.0722    1.5075 H   0  0  0  0  0  0  0  0  0  0  0  0
   -1.3175    1.4031    1.1490 H   0  0  0  0  0  0  0  0  0  0  0  0
   -1.0134    3.1449    1.0476 H   0  0  0  0  0  0  0  0  0  0  0  0
    1.0068   -0.6160    1.1038 C   0  0  0  0  0  0  0  0  0  0  0  0
    2.2305   -0.5993    1.0677 O   0  0  0  0  0  0  0  0  0  0  0  0
    0.3869   -0.3352    2.3084 N   0  0  0  0  0  0  0  0  0  0  0  0
   -0.6245   -0.4091    2.3229 H   0  0  0  0  0  0  0  0  0  0  0  0
    1.1061   -0.2445    3.5729 C   0  0  0  0  0  0  0  0  0  0  0  0
    1.8339    0.5733    3.5423 H   0  0  0  0  0  0  0  0  0  0  0  0
    0.4072   -0.0529    4.3925 H   0  0  0  0  0  0  0  0  0  0  0  0
    1.6359   -1.1805    3.7792 H   0  0  0  0  0  0  0  0  0  0  0  0
  1  2  1  0  0  0  0
  2  3  1  0  0  0  0
  2  4  1  0  0  0  0
  2  5  1  0  0  0  0
  5  6  2  0  0  0  0
  5  7  1  0  0  0  0
  7  8  1  0  0  0  0
  7  9  1  0  0  0  0
  9 10  1  0  0  0  0
  9 11  1  0  0  0  0
  9 24  1  0  0  0  0
 11 12  1  0  0  0  0
 11 13  1  0  0  0  0
 11 17  1  0  0  0  0
 13 14  1  0  0  0  0
 13 15  1  0  0  0  0
 13 16  1  0  0  0  0
 17 18  1  0  0  0  0
 17 19  1  0  0  0  0
 17 20  1  0  0  0  0
 20 21  1  0  0  0  0
 20 22  1  0  0  0  0
 20 23  1  0  0  0  0
 24 25  2  0  0  0  0
 24 26  1  0  0  0  0
 26 27  1  0  0  0  0
 26 28  1  0  0  0  0
 28 29  1  0  0  0  0
 28 30  1  0  0  0  0
 28 31  1  0  0  0  0
M  END
$$$$

  -OEChem-03222214053D

 31 30  0     1  0  0  0  0  0999 V2000
   -2.4213   -4.4393    0.2742 H   0  0  0  0  0  0  0  0  0  0  0  0
   -2.5107   -3.3852   -0.0037 C   0  0  0  0  0  0  0  0  0  0  0  0
   -3.2147   -2.9007    0.6768 H   0  0  0  0  0  0  0  0  0  0  0  0
   -2.8963   -3.3226   -1.0241 H   0  0  0  0  0  0  0  0  0  0  0  0
   -1.1561   -2.7076    0.0810 C   0  0  0  0  0  0  0  0  0  0  0  0
   -0.1762   -3.3498    0.4125 O   0  0  0  0  0  0  0  0  0  0  0  0
   -1.0452   -1.3618   -0.2073 N   0  0  0  0  0  0  0  0  0  0  0  0
   -1.8874   -0.8859   -0.5153 H   0  0  0  0  0  0  0  0  0  0  0  0
    0.2258   -0.6123   -0.2478 C   0  0  1  0  0  0  0  0  0  0  0  0
    0.8675   -1.2630   -0.8545 H   0  0  0  0  0  0  0  0  0  0  0  0
    0.1399    0.6674   -1.1428 C   0  0  1  0  0  0  0  0  0  0  0  0
    1.1823    0.8285   -1.4416 H   0  0  0  0  0  0  0  0  0  0  0  0
   -0.6370    0.3872   -2.4422 C   0  0  0  0  0  0  0  0  0  0  0  0
   -1.7080    0.2783   -2.2459 H   0  0  0  0  0  0  0  0  0  0  0  0
   -0.4998    1.2114   -3.1494 H   0  0  0  0  0  0  0  0  0  0  0  0
   -0.2729   -0.5302   -2.9158 H   0  0  0  0  0  0  0  0  0  0  0  0
   -0.2966    2.0500   -0.5757 C   0  0  0  0  0  0  0  0  0  0  0  0
    0.3541    2.8148   -1.0130 H   0  0  0  0  0  0  0  0  0  0  0  0
   -1.3122    2.2617   -0.9256 H   0  0  0  0  0  0  0  0  0  0  0  0
   -0.3176    2.2579    0.9329 C   0  0  0  0  0  0  0  0  0  0  0  0
    0.6825    2.1244    1.3552 H   0  0  0  0  0  0  0  0  0  0  0  0
   -1.0232    1.5705    1.4057 H   0  0  0  0  0  0  0  0  0  0  0  0
   -0.6417    3.2781    1.1592 H   0  0  0  0  0  0  0  0  0  0  0  0
    1.0444   -0.5840    1.0668 C   0  0  0  0  0  0  0  0  0  0  0  0
    2.2658   -0.5293    1.0049 O   0  0  0  0  0  0  0  0  0  0  0  0
    0.4422   -0.3511    2.2906 N   0  0  0  0  0  0  0  0  0  0  0  0
   -0.5653   -0.4627    2.3237 H   0  0  0  0  0  0  0  0  0  0  0  0
    1.1847   -0.2816    3.5427 C   0  0  0  0  0  0  0  0  0  0  0  0
    1.9177    0.5313    3.5095 H   0  0  0  0  0  0  0  0  0  0  0  0
    0.5021   -0.0954    4.3771 H   0  0  0  0  0  0  0  0  0  0  0  0
    1.7113   -1.2239    3.7274 H   0  0  0  0  0  0  0  0  0  0  0  0
  1  2  1  0  0  0  0
  2  3  1  0  0  0  0
  2  4  1  0  0  0  0
  2  5  1  0  0  0  0
  5  6  2  0  0  0  0
  5  7  1  0  0  0  0
  7  8  1  0  0  0  0
  7  9  1  0  0  0  0
  9 10  1  0  0  0  0
  9 11  1  0  0  0  0
  9 24  1  0  0  0  0
 11 12  1  0  0  0  0
 11 13  1  0  0  0  0
 11 17  1  0  0  0  0
 13 14  1  0  0  0  0
 13 15  1  0  0  0  0
 13 16  1  0  0  0  0
 17 18  1  0  0  0  0
 17 19  1  0  0  0  0
 17 20  1  0  0  0  0
 20 21  1  0  0  0  0
 20 22  1  0  0  0  0
 20 23  1  0  0  0  0
 24 25  2  0  0  0  0
 24 26  1  0  0  0  0
 26 27  1  0  0  0  0
 26 28  1  0  0  0  0
 28 29  1  0  0  0  0
 28 30  1  0  0  0  0
 28 31  1  0  0  0  0
M  END
$$$$

  -OEChem-03222214053D

 31 30  0     1  0  0  0  0  0999 V2000
   -2.6134   -4.3244    0.2711 H   0  0  0  0  0  0  0  0  0  0  0  0
   -2.6461   -3.2716   -0.0246 C   0  0  0  0  0  0  0  0  0  0  0  0
   -3.3284   -2.7408    0.6435 H   0  0  0  0  0  0  0  0  0  0  0  0
   -3.0224   -3.2056   -1.0482 H   0  0  0  0  0  0  0  0  0  0  0  0
   -1.2590   -2.6626    0.0584 C   0  0  0  0  0  0  0  0  0  0  0  0
   -0.3119   -3.3527    0.3891 O   0  0  0  0  0  0  0  0  0  0  0  0
   -1.0822   -1.3235   -0.2286 N   0  0  0  0  0  0  0  0  0  0  0  0
   -1.8994   -0.8080   -0.5402 H   0  0  0  0  0  0  0  0  0  0  0  0
    0.2234   -0.6350   -0.2615 C   0  0  1  0  0  0  0  0  0  0  0  0
    0.8386   -1.3079   -0.8712 H   0  0  0  0  0  0  0  0  0  0  0  0
    0.1922    0.6577   -1.1416 C   0  0  1  0  0  0  0  0  0  0  0  0
    1.2390    0.7759   -1.4451 H   0  0  0  0  0  0  0  0  0  0  0  0
   -0.6106    0.4374   -2.4363 C   0  0  0  0  0  0  0  0  0  0  0  0
   -1.6840    0.3835   -2.2312 H   0  0  0  0  0  0  0  0  0  0  0  0
   -0.4364    1.2630   -3.1339 H   0  0  0  0  0  0  0  0  0  0  0  0
   -0.3007   -0.4916   -2.9257 H   0  0  0  0  0  0  0  0  0  0  0  0
   -0.1793    2.0490   -0.5570 C   0  0  0  0  0  0  0  0  0  0  0  0
    0.3203    2.8067   -1.1701 H   0  0  0  0  0  0  0  0  0  0  0  0
   -1.2570    2.1998   -0.6776 H   0  0  0  0  0  0  0  0  0  0  0  0
    0.1409    2.3499    0.9026 C   0  0  0  0  0  0  0  0  0  0  0  0
    1.1774    2.0903    1.1379 H   0  0  0  0  0  0  0  0  0  0  0  0
   -0.5420    1.8117    1.5628 H   0  0  0  0  0  0  0  0  0  0  0  0
    0.0090    3.4191    1.0944 H   0  0  0  0  0  0  0  0  0  0  0  0
    1.0273   -0.6510    1.0613 C   0  0  0  0  0  0  0  0  0  0  0  0
    2.2507   -0.6587    1.0148 O   0  0  0  0  0  0  0  0  0  0  0  0
    0.4199   -0.3917    2.2769 N   0  0  0  0  0  0  0  0  0  0  0  0
   -0.5926   -0.4482    2.2954 H   0  0  0  0  0  0  0  0  0  0  0  0
    1.1476   -0.3528    3.5391 C   0  0  0  0  0  0  0  0  0  0  0  0
    1.9094    0.4335    3.5184 H   0  0  0  0  0  0  0  0  0  0  0  0
    0.4610   -0.1450    4.3652 H   0  0  0  0  0  0  0  0  0  0  0  0
    1.6379   -1.3138    3.7277 H   0  0  0  0  0  0  0  0  0  0  0  0
  1  2  1  0  0  0  0
  2  3  1  0  0  0  0
  2  4  1  0  0  0  0
  2  5  1  0  0  0  0
  5  6  2  0  0  0  0
  5  7  1  0  0  0  0
  7  8  1  0  0  0  0
  7  9  1  0  0  0  0
  9 10  1  0  0  0  0
  9 11  1  0  0  0  0
  9 24  1  0  0  0  0
 11 12  1  0  0  0  0
 11 13  1  0  0  0  0
 11 17  1  0  0  0  0
 13 14  1  0  0  0  0
 13 15  1  0  0  0  0
 13 16  1  0  0  0  0
 17 18  1  0  0  0  0
 17 19  1  0  0  0  0
 17 20  1  0  0  0  0
 20 21  1  0  0  0  0
 20 22  1  0  0  0  0
 20 23  1  0  0  0  0
 24 25  2  0  0  0  0
 24 26  1  0  0  0  0
 26 27  1  0  0  0  0
 26 28  1  0  0  0  0
 28 29  1  0  0  0  0
 28 30  1  0  0  0  0
 28 31  1  0  0  0  0
M  END
$$$$

  -OEChem-03222214053D

 31 30  0     1  0  0  0  0  0999 V2000
   -2.7072   -4.2428    0.2505 H   0  0  0  0  0  0  0  0  0  0  0  0
   -2.7076   -3.1912   -0.0503 C   0  0  0  0  0  0  0  0  0  0  0  0
   -3.3847   -2.6386    0.6054 H   0  0  0  0  0  0  0  0  0  0  0  0
   -3.0670   -3.1206   -1.0797 H   0  0  0  0  0  0  0  0  0  0  0  0
   -1.3057   -2.6199    0.0488 C   0  0  0  0  0  0  0  0  0  0  0  0
   -0.3845   -3.3319    0.4046 O   0  0  0  0  0  0  0  0  0  0  0  0
   -1.0856   -1.2917   -0.2592 N   0  0  0  0  0  0  0  0  0  0  0  0
   -1.8824   -0.7598   -0.5949 H   0  0  0  0  0  0  0  0  0  0  0  0
    0.2406   -0.6417   -0.2853 C   0  0  1  0  0  0  0  0  0  0  0  0
    0.8509   -1.3256   -0.8877 H   0  0  0  0  0  0  0  0  0  0  0  0
    0.2388    0.6629   -1.1490 C   0  0  1  0  0  0  0  0  0  0  0  0
    1.2812    0.7597   -1.4743 H   0  0  0  0  0  0  0  0  0  0  0  0
   -0.6016    0.4869   -2.4267 C   0  0  0  0  0  0  0  0  0  0  0  0
   -1.6715    0.4796   -2.1979 H   0  0  0  0  0  0  0  0  0  0  0  0
   -0.4076    1.3083   -3.1237 H   0  0  0  0  0  0  0  0  0  0  0  0
   -0.3434   -0.4513   -2.9284 H   0  0  0  0  0  0  0  0  0  0  0  0
   -0.0941    2.0464   -0.5297 C   0  0  0  0  0  0  0  0  0  0  0  0
    0.2048    2.8084   -1.2575 H   0  0  0  0  0  0  0  0  0  0  0  0
   -1.1788    2.1275   -0.4054 H   0  0  0  0  0  0  0  0  0  0  0  0
    0.5507    2.4164    0.8042 C   0  0  0  0  0  0  0  0  0  0  0  0
    1.5883    2.0714    0.8475 H   0  0  0  0  0  0  0  0  0  0  0  0
   -0.0149    2.0006    1.6388 H   0  0  0  0  0  0  0  0  0  0  0  0
    0.5493    3.5042    0.9227 H   0  0  0  0  0  0  0  0  0  0  0  0
    1.0049   -0.6694    1.0591 C   0  0  0  0  0  0  0  0  0  0  0  0
    2.2274   -0.7345    1.0539 O   0  0  0  0  0  0  0  0  0  0  0  0
    0.3642   -0.3746    2.2488 N   0  0  0  0  0  0  0  0  0  0  0  0
   -0.6496   -0.3929    2.2290 H   0  0  0  0  0  0  0  0  0  0  0  0
    1.0445   -0.3743    3.5376 C   0  0  0  0  0  0  0  0  0  0  0  0
    1.8559    0.3611    3.5425 H   0  0  0  0  0  0  0  0  0  0  0  0
    0.3422   -0.1173    4.3361 H   0  0  0  0  0  0  0  0  0  0  0  0
    1.4641   -1.3636    3.7483 H   0  0  0  0  0  0  0  0  0  0  0  0
  1  2  1  0  0  0  0
  2  3  1  0  0  0  0
  2  4  1  0  0  0  0
  2  5  1  0  0  0  0
  5  6  2  0  0  0  0
  5  7  1  0  0  0  0
  7  8  1  0  0  0  0
  7  9  1  0  0  0  0
  9 10  1  0  0  0  0
  9 11  1  0  0  0  0
  9 24  1  0  0  0  0
 11 12  1  0  0  0  0
 11 13  1  0  0  0  0
 11 17  1  0  0  0  0
 13 14  1  0  0  0  0
 13 15  1  0  0  0  0
 13 16  1  0  0  0  0
 17 18  1  0  0  0  0
 17 19  1  0  0  0  0
 17 20  1  0  0  0  0
 20 21  1  0  0  0  0
 20 22  1  0  0  0  0
 20 23  1  0  0  0  0
 24 25  2  0  0  0  0
 24 26  1  0  0  0  0
 26 27  1  0  0  0  0
 26 28  1  0  0  0  0
 28 29  1  0  0  0  0
 28 30  1  0  0  0  0
 28 31  1  0  0  0  0
M  END
$$$$

  -OEChem-03222214053D

 31 30  0     1  0  0  0  0  0999 V2000
   -2.5550   -4.3018    0.2561 H   0  0  0  0  0  0  0  0  0  0  0  0
   -2.5930   -3.2525   -0.0502 C   0  0  0  0  0  0  0  0  0  0  0  0
   -3.2802   -2.7186    0.6103 H   0  0  0  0  0  0  0  0  0  0  0  0
   -2.9666   -3.1995   -1.0755 H   0  0  0  0  0  0  0  0  0  0  0  0
   -1.2090   -2.6362    0.0299 C   0  0  0  0  0  0  0  0  0  0  0  0
   -0.2635   -3.3154    0.3861 O   0  0  0  0  0  0  0  0  0  0  0  0
   -1.0324   -1.3064   -0.2989 N   0  0  0  0  0  0  0  0  0  0  0  0
   -1.8475   -0.8044   -0.6365 H   0  0  0  0  0  0  0  0  0  0  0  0
    0.2728   -0.6149   -0.3403 C   0  0  1  0  0  0  0  0  0  0  0  0
    0.9075   -1.2634   -0.9560 H   0  0  0  0  0  0  0  0  0  0  0  0
    0.2008    0.7141   -1.1612 C   0  0  1  0  0  0  0  0  0  0  0  0
    1.2195    0.8619   -1.5374 H   0  0  0  0  0  0  0  0  0  0  0  0
   -0.7007    0.5584   -2.3999 C   0  0  0  0  0  0  0  0  0  0  0  0
   -1.7578    0.5352   -2.1185 H   0  0  0  0  0  0  0  0  0  0  0  0
   -0.5492    1.3969   -3.0870 H   0  0  0  0  0  0  0  0  0  0  0  0
   -0.4581   -0.3649   -2.9357 H   0  0  0  0  0  0  0  0  0  0  0  0
   -0.1600    2.0438   -0.4511 C   0  0  0  0  0  0  0  0  0  0  0  0
   -0.1578    2.8347   -1.2087 H   0  0  0  0  0  0  0  0  0  0  0  0
   -1.1773    1.9790   -0.0526 H   0  0  0  0  0  0  0  0  0  0  0  0
    0.7768    2.4983    0.6718 C   0  0  0  0  0  0  0  0  0  0  0  0
    1.8106    2.2069    0.4604 H   0  0  0  0  0  0  0  0  0  0  0  0
    0.7406    3.5883    0.7595 H   0  0  0  0  0  0  0  0  0  0  0  0
    0.4754    2.0896    1.6356 H   0  0  0  0  0  0  0  0  0  0  0  0
    1.0205   -0.6125    1.0125 C   0  0  0  0  0  0  0  0  0  0  0  0
    2.2441   -0.6487    1.0283 O   0  0  0  0  0  0  0  0  0  0  0  0
    0.3467   -0.3250    2.1864 N   0  0  0  0  0  0  0  0  0  0  0  0
   -0.6652   -0.3779    2.1453 H   0  0  0  0  0  0  0  0  0  0  0  0
    0.9982   -0.3147    3.4900 C   0  0  0  0  0  0  0  0  0  0  0  0
    1.8186    0.4106    3.5037 H   0  0  0  0  0  0  0  0  0  0  0  0
    0.2814   -0.0371    4.2686 H   0  0  0  0  0  0  0  0  0  0  0  0
    1.4004   -1.3061    3.7235 H   0  0  0  0  0  0  0  0  0  0  0  0
  1  2  1  0  0  0  0
  2  3  1  0  0  0  0
  2  4  1  0  0  0  0
  2  5  1  0  0  0  0
  5  6  2  0  0  0  0
  5  7  1  0  0  0  0
  7  8  1  0  0  0  0
  7  9  1  0  0  0  0
  9 10  1  0  0  0  0
  9 11  1  0  0  0  0
  9 24  1  0  0  0  0
 11 12  1  0  0  0  0
 11 13  1  0  0  0  0
 11 17  1  0  0  0  0
 13 14  1  0  0  0  0
 13 15  1  0  0  0  0
 13 16  1  0  0  0  0
 17 18  1  0  0  0  0
 17 19  1  0  0  0  0
 17 20  1  0  0  0  0
 20 21  1  0  0  0  0
 20 22  1  0  0  0  0
 20 23  1  0  0  0  0
 24 25  2  0  0  0  0
 24 26  1  0  0  0  0
 26 27  1  0  0  0  0
 26 28  1  0  0  0  0
 28 29  1  0  0  0  0
 28 30  1  0  0  0  0
 28 31  1  0  0  0  0
M  END
$$$$

  -OEChem-03222214053D

 31 30  0     1  0  0  0  0  0999 V2000
   -2.5284   -4.2919    0.3163 H   0  0  0  0  0  0  0  0  0  0  0  0
   -2.5654   -3.2533   -0.0256 C   0  0  0  0  0  0  0  0  0  0  0  0
   -3.2576   -2.6981    0.6120 H   0  0  0  0  0  0  0  0  0  0  0  0
   -2.9317   -3.2352   -1.0549 H   0  0  0  0  0  0  0  0  0  0  0  0
   -1.1828   -2.6327    0.0441 C   0  0  0  0  0  0  0  0  0  0  0  0
   -0.2400   -3.2978    0.4322 O   0  0  0  0  0  0  0  0  0  0  0  0
   -1.0047   -1.3151   -0.3296 N   0  0  0  0  0  0  0  0  0  0  0  0
   -1.8157   -0.8299   -0.6998 H   0  0  0  0  0  0  0  0  0  0  0  0
    0.2999   -0.6215   -0.3760 C   0  0  1  0  0  0  0  0  0  0  0  0
    0.9496   -1.2647   -0.9811 H   0  0  0  0  0  0  0  0  0  0  0  0
    0.2032    0.7154   -1.1805 C   0  0  1  0  0  0  0  0  0  0  0  0
    1.2072    0.8823   -1.5865 H   0  0  0  0  0  0  0  0  0  0  0  0
   -0.7332    0.5774   -2.3959 C   0  0  0  0  0  0  0  0  0  0  0  0
   -1.7822    0.5529   -2.0858 H   0  0  0  0  0  0  0  0  0  0  0  0
   -0.5985    1.4251   -3.0752 H   0  0  0  0  0  0  0  0  0  0  0  0
   -0.5071   -0.3385   -2.9514 H   0  0  0  0  0  0  0  0  0  0  0  0
   -0.1607    2.0074   -0.4049 C   0  0  0  0  0  0  0  0  0  0  0  0
   -0.4484    2.7777   -1.1281 H   0  0  0  0  0  0  0  0  0  0  0  0
   -1.0315    1.8165    0.2301 H   0  0  0  0  0  0  0  0  0  0  0  0
    0.9674    2.6009    0.4512 C   0  0  0  0  0  0  0  0  0  0  0  0
    1.8878    2.6823   -0.1352 H   0  0  0  0  0  0  0  0  0  0  0  0
    0.6839    3.6041    0.7834 H   0  0  0  0  0  0  0  0  0  0  0  0
    1.1765    2.0111    1.3416 H   0  0  0  0  0  0  0  0  0  0  0  0
    1.0161   -0.5748    0.9918 C   0  0  0  0  0  0  0  0  0  0  0  0
    2.2383   -0.6222    1.0404 O   0  0  0  0  0  0  0  0  0  0  0  0
    0.3103   -0.2477    2.1371 N   0  0  0  0  0  0  0  0  0  0  0  0
   -0.7001   -0.2978    2.0691 H   0  0  0  0  0  0  0  0  0  0  0  0
    0.9252   -0.2134    3.4579 C   0  0  0  0  0  0  0  0  0  0  0  0
    1.7545    0.5015    3.4774 H   0  0  0  0  0  0  0  0  0  0  0  0
    0.1914    0.0919    4.2096 H   0  0  0  0  0  0  0  0  0  0  0  0
    1.3076   -1.2038    3.7262 H   0  0  0  0  0  0  0  0  0  0  0  0
  1  2  1  0  0  0  0
  2  3  1  0  0  0  0
  2  4  1  0  0  0  0
  2  5  1  0  0  0  0
  5  6  2  0  0  0  0
  5  7  1  0  0  0  0
  7  8  1  0  0  0  0
  7  9  1  0  0  0  0
  9 10  1  0  0  0  0
  9 11  1  0  0  0  0
  9 24  1  0  0  0  0
 11 12  1  0  0  0  0
 11 13  1  0  0  0  0
 11 17  1  0  0  0  0
 13 14  1  0  0  0  0
 13 15  1  0  0  0  0
 13 16  1  0  0  0  0
 17 18  1  0  0  0  0
 17 19  1  0  0  0  0
 17 20  1  0  0  0  0
 20 21  1  0  0  0  0
 20 22  1  0  0  0  0
 20 23  1  0  0  0  0
 24 25  2  0  0  0  0
 24 26  1  0  0  0  0
 26 27  1  0  0  0  0
 26 28  1  0  0  0  0
 28 29  1  0  0  0  0
 28 30  1  0  0  0  0
 28 31  1  0  0  0  0
M  END
$$$$

  -OEChem-03222214053D

 31 30  0     1  0  0  0  0  0999 V2000
   -2.5245   -4.3029    0.3034 H   0  0  0  0  0  0  0  0  0  0  0  0
   -2.5635   -3.2668   -0.0452 C   0  0  0  0  0  0  0  0  0  0  0  0
   -3.2711   -2.7134    0.5766 H   0  0  0  0  0  0  0  0  0  0  0  0
   -2.9119   -3.2578   -1.0807 H   0  0  0  0  0  0  0  0  0  0  0  0
   -1.1877   -2.6340    0.0451 C   0  0  0  0  0  0  0  0  0  0  0  0
   -0.2499   -3.2807    0.4745 O   0  0  0  0  0  0  0  0  0  0  0  0
   -1.0095   -1.3245   -0.3557 N   0  0  0  0  0  0  0  0  0  0  0  0
   -1.8122   -0.8556   -0.7631 H   0  0  0  0  0  0  0  0  0  0  0  0
    0.2934   -0.6284   -0.3914 C   0  0  1  0  0  0  0  0  0  0  0  0
    0.9520   -1.2726   -0.9857 H   0  0  0  0  0  0  0  0  0  0  0  0
    0.2000    0.7097   -1.1897 C   0  0  1  0  0  0  0  0  0  0  0  0
    1.2016    0.8898   -1.5964 H   0  0  0  0  0  0  0  0  0  0  0  0
   -0.7407    0.5929   -2.4029 C   0  0  0  0  0  0  0  0  0  0  0  0
   -1.7885    0.5528   -2.0898 H   0  0  0  0  0  0  0  0  0  0  0  0
   -0.6148    1.4586   -3.0610 H   0  0  0  0  0  0  0  0  0  0  0  0
   -0.5091   -0.3079   -2.9804 H   0  0  0  0  0  0  0  0  0  0  0  0
   -0.1770    1.9559   -0.3503 C   0  0  0  0  0  0  0  0  0  0  0  0
   -0.7121    2.6709   -0.9838 H   0  0  0  0  0  0  0  0  0  0  0  0
   -0.8602    1.6720    0.4555 H   0  0  0  0  0  0  0  0  0  0  0  0
    1.0372    2.6916    0.2299 C   0  0  0  0  0  0  0  0  0  0  0  0
    1.7068    3.0136   -0.5736 H   0  0  0  0  0  0  0  0  0  0  0  0
    0.7059    3.5790    0.7775 H   0  0  0  0  0  0  0  0  0  0  0  0
    1.6037    2.0619    0.9186 H   0  0  0  0  0  0  0  0  0  0  0  0
    1.0061   -0.5329    0.9772 C   0  0  0  0  0  0  0  0  0  0  0  0
    2.2280   -0.5847    1.0289 O   0  0  0  0  0  0  0  0  0  0  0  0
    0.3019   -0.1731    2.1129 N   0  0  0  0  0  0  0  0  0  0  0  0
   -0.7090   -0.2234    2.0492 H   0  0  0  0  0  0  0  0  0  0  0  0
    0.9208   -0.0698    3.4280 C   0  0  0  0  0  0  0  0  0  0  0  0
    1.7284    0.6697    3.4154 H   0  0  0  0  0  0  0  0  0  0  0  0
    0.1806    0.2422    4.1709 H   0  0  0  0  0  0  0  0  0  0  0  0
    1.3336   -1.0373    3.7324 H   0  0  0  0  0  0  0  0  0  0  0  0
  1  2  1  0  0  0  0
  2  3  1  0  0  0  0
  2  4  1  0  0  0  0
  2  5  1  0  0  0  0
  5  6  2  0  0  0  0
  5  7  1  0  0  0  0
  7  8  1  0  0  0  0
  7  9  1  0  0  0  0
  9 10  1  0  0  0  0
  9 11  1  0  0  0  0
  9 24  1  0  0  0  0
 11 12  1  0  0  0  0
 11 13  1  0  0  0  0
 11 17  1  0  0  0  0
 13 14  1  0  0  0  0
 13 15  1  0  0  0  0
 13 16  1  0  0  0  0
 17 18  1  0  0  0  0
 17 19  1  0  0  0  0
 17 20  1  0  0  0  0
 20 21  1  0  0  0  0
 20 22  1  0  0  0  0
 20 23  1  0  0  0  0
 24 25  2  0  0  0  0
 24 26  1  0  0  0  0
 26 27  1  0  0  0  0
 26 28  1  0  0  0  0
 28 29  1  0  0  0  0
 28 30  1  0  0  0  0
 28 31  1  0  0  0  0
M  END
$$$$

  -OEChem-03222214053D

 31 30  0     1  0  0  0  0  0999 V2000
   -2.5188   -4.3272    0.2631 H   0  0  0  0  0  0  0  0  0  0  0  0
   -2.5693   -3.2882   -0.0751 C   0  0  0  0  0  0  0  0  0  0  0  0
   -3.2951   -2.7530    0.5415 H   0  0  0  0  0  0  0  0  0  0  0  0
   -2.9025   -3.2739   -1.1156 H   0  0  0  0  0  0  0  0  0  0  0  0
   -1.2047   -2.6351    0.0421 C   0  0  0  0  0  0  0  0  0  0  0  0
   -0.2655   -3.2687    0.4878 O   0  0  0  0  0  0  0  0  0  0  0  0
   -1.0381   -1.3213   -0.3491 N   0  0  0  0  0  0  0  0  0  0  0  0
   -1.8412   -0.8605   -0.7650 H   0  0  0  0  0  0  0  0  0  0  0  0
    0.2581   -0.6140   -0.3751 C   0  0  1  0  0  0  0  0  0  0  0  0
    0.9180   -1.2613   -0.9646 H   0  0  0  0  0  0  0  0  0  0  0  0
    0.1869    0.7173   -1.1809 C   0  0  1  0  0  0  0  0  0  0  0  0
    1.1983    0.8884   -1.5672 H   0  0  0  0  0  0  0  0  0  0  0  0
   -0.7269    0.6016   -2.4138 C   0  0  0  0  0  0  0  0  0  0  0  0
   -1.7806    0.5466   -2.1237 H   0  0  0  0  0  0  0  0  0  0  0  0
   -0.5957    1.4750   -3.0605 H   0  0  0  0  0  0  0  0  0  0  0  0
   -0.4733   -0.2914   -2.9941 H   0  0  0  0  0  0  0  0  0  0  0  0
   -0.2048    1.9555   -0.3353 C   0  0  0  0  0  0  0  0  0  0  0  0
   -0.9395    2.5566   -0.8811 H   0  0  0  0  0  0  0  0  0  0  0  0
   -0.6847    1.6598    0.6000 H   0  0  0  0  0  0  0  0  0  0  0  0
    0.9996    2.8556   -0.0500 C   0  0  0  0  0  0  0  0  0  0  0  0
    1.4367    3.2203   -0.9849 H   0  0  0  0  0  0  0  0  0  0  0  0
    0.6905    3.7182    0.5477 H   0  0  0  0  0  0  0  0  0  0  0  0
    1.7673    2.3077    0.5052 H   0  0  0  0  0  0  0  0  0  0  0  0
    0.9886   -0.5074    0.9859 C   0  0  0  0  0  0  0  0  0  0  0  0
    2.2125   -0.5107    1.0120 O   0  0  0  0  0  0  0  0  0  0  0  0
    0.3026   -0.1559    2.1354 N   0  0  0  0  0  0  0  0  0  0  0  0
   -0.7072   -0.2416    2.0983 H   0  0  0  0  0  0  0  0  0  0  0  0
    0.9501   -0.0222    3.4341 C   0  0  0  0  0  0  0  0  0  0  0  0
    1.7305    0.7451    3.3965 H   0  0  0  0  0  0  0  0  0  0  0  0
    0.2186    0.2684    4.1939 H   0  0  0  0  0  0  0  0  0  0  0  0
    1.4042   -0.9728    3.7332 H   0  0  0  0  0  0  0  0  0  0  0  0
  1  2  1  0  0  0  0
  2  3  1  0  0  0  0
  2  4  1  0  0  0  0
  2  5  1  0  0  0  0
  5  6  2  0  0  0  0
  5  7  1  0  0  0  0
  7  8  1  0  0  0  0
  7  9  1  0  0  0  0
  9 10  1  0  0  0  0
  9 11  1  0  0  0  0
  9 24  1  0  0  0  0
 11 12  1  0  0  0  0
 11 13  1  0  0  0  0
 11 17  1  0  0  0  0
 13 14  1  0  0  0  0
 13 15  1  0  0  0  0
 13 16  1  0  0  0  0
 17 18  1  0  0  0  0
 17 19  1  0  0  0  0
 17 20  1  0  0  0  0
 20 21  1  0  0  0  0
 20 22  1  0  0  0  0
 20 23  1  0  0  0  0
 24 25  2  0  0  0  0
 24 26  1  0  0  0  0
 26 27  1  0  0  0  0
 26 28  1  0  0  0  0
 28 29  1  0  0  0  0
 28 30  1  0  0  0  0
 28 31  1  0  0  0  0
M  END
$$$$

  -OEChem-03222214053D

 31 30  0     1  0  0  0  0  0999 V2000
   -2.5168   -4.3297    0.2459 H   0  0  0  0  0  0  0  0  0  0  0  0
   -2.5718   -3.2872   -0.0810 C   0  0  0  0  0  0  0  0  0  0  0  0
   -3.2956   -2.7602    0.5454 H   0  0  0  0  0  0  0  0  0  0  0  0
   -2.9104   -3.2626   -1.1196 H   0  0  0  0  0  0  0  0  0  0  0  0
   -1.2083   -2.6320    0.0364 C   0  0  0  0  0  0  0  0  0  0  0  0
   -0.2639   -3.2693    0.4659 O   0  0  0  0  0  0  0  0  0  0  0  0
   -1.0491   -1.3114   -0.3338 N   0  0  0  0  0  0  0  0  0  0  0  0
   -1.8571   -0.8453   -0.7341 H   0  0  0  0  0  0  0  0  0  0  0  0
    0.2429   -0.5973   -0.3536 C   0  0  1  0  0  0  0  0  0  0  0  0
    0.9028   -1.2408   -0.9475 H   0  0  0  0  0  0  0  0  0  0  0  0
    0.1700    0.7310   -1.1626 C   0  0  1  0  0  0  0  0  0  0  0  0
    1.1920    0.8960   -1.5229 H   0  0  0  0  0  0  0  0  0  0  0  0
   -0.7104    0.6064   -2.4186 C   0  0  0  0  0  0  0  0  0  0  0  0
   -1.7691    0.5237   -2.1554 H   0  0  0  0  0  0  0  0  0  0  0  0
   -0.5841    1.4885   -3.0542 H   0  0  0  0  0  0  0  0  0  0  0  0
   -0.4229   -0.2758   -2.9994 H   0  0  0  0  0  0  0  0  0  0  0  0
   -0.2325    1.9839   -0.3406 C   0  0  0  0  0  0  0  0  0  0  0  0
   -1.1521    2.4164   -0.7482 H   0  0  0  0  0  0  0  0  0  0  0  0
   -0.4497    1.7339    0.6980 H   0  0  0  0  0  0  0  0  0  0  0  0
    0.8589    3.0549   -0.3776 C   0  0  0  0  0  0  0  0  0  0  0  0
    1.0582    3.3656   -1.4080 H   0  0  0  0  0  0  0  0  0  0  0  0
    0.5444    3.9325    0.1951 H   0  0  0  0  0  0  0  0  0  0  0  0
    1.7860    2.6698    0.0597 H   0  0  0  0  0  0  0  0  0  0  0  0
    0.9824   -0.5066    1.0039 C   0  0  0  0  0  0  0  0  0  0  0  0
    2.2062   -0.4909    1.0187 O   0  0  0  0  0  0  0  0  0  0  0  0
    0.3042   -0.1770    2.1645 N   0  0  0  0  0  0  0  0  0  0  0  0
   -0.7047   -0.2778    2.1371 H   0  0  0  0  0  0  0  0  0  0  0  0
    0.9636   -0.0598    3.4590 C   0  0  0  0  0  0  0  0  0  0  0  0
    1.7395    0.7123    3.4258 H   0  0  0  0  0  0  0  0  0  0  0  0
    0.2380    0.2153    4.2303 H   0  0  0  0  0  0  0  0  0  0  0  0
    1.4258   -1.0122    3.7394 H   0  0  0  0  0  0  0  0  0  0  0  0
  1  2  1  0  0  0  0
  2  3  1  0  0  0  0
  2  4  1  0  0  0  0
  2  5  1  0  0  0  0
  5  6  2  0  0  0  0
  5  7  1  0  0  0  0
  7  8  1  0  0  0  0
  7  9  1  0  0  0  0
  9 10  1  0  0  0  0
  9 11  1  0  0  0  0
  9 24  1  0  0  0  0
 11 12  1  0  0  0  0
 11 13  1  0  0  0  0
 11 17  1  0  0  0  0
 13 14  1  0  0  0  0
 13 15  1  0  0  0  0
 13 16  1  0  0  0  0
 17 18  1  0  0  0  0
 17 19  1  0  0  0  0
 17 20  1  0  0  0  0
 20 21  1  0  0  0  0
 20 22  1  0  0  0  0
 20 23  1  0  0  0  0
 24 25  2  0  0  0  0
 24 26  1  0  0  0  0
 26 27  1  0  0  0  0
 26 28  1  0  0  0  0
 28 29  1  0  0  0  0
 28 30  1  0  0  0  0
 28 31  1  0  0  0  0
M  END
$$$$

  -OEChem-03222214053D

 31 30  0     1  0  0  0  0  0999 V2000
   -2.5091   -4.3257    0.2509 H   0  0  0  0  0  0  0  0  0  0  0  0
   -2.5652   -3.2827   -0.0743 C   0  0  0  0  0  0  0  0  0  0  0  0
   -3.2847   -2.7560    0.5572 H   0  0  0  0  0  0  0  0  0  0  0  0
   -2.9104   -3.2565   -1.1107 H   0  0  0  0  0  0  0  0  0  0  0  0
   -1.2008   -2.6282    0.0352 C   0  0  0  0  0  0  0  0  0  0  0  0
   -0.2529   -3.2686    0.4518 O   0  0  0  0  0  0  0  0  0  0  0  0
   -1.0449   -1.3048   -0.3266 N   0  0  0  0  0  0  0  0  0  0  0  0
   -1.8552   -0.8374   -0.7206 H   0  0  0  0  0  0  0  0  0  0  0  0
    0.2462   -0.5895   -0.3474 C   0  0  1  0  0  0  0  0  0  0  0  0
    0.9060   -1.2262   -0.9487 H   0  0  0  0  0  0  0  0  0  0  0  0
    0.1561    0.7432   -1.1485 C   0  0  1  0  0  0  0  0  0  0  0  0
    1.1817    0.9134   -1.4962 H   0  0  0  0  0  0  0  0  0  0  0  0
   -0.7145    0.6222   -2.4114 C   0  0  0  0  0  0  0  0  0  0  0  0
   -1.7741    0.5268   -2.1562 H   0  0  0  0  0  0  0  0  0  0  0  0
   -0.5934    1.5109   -3.0388 H   0  0  0  0  0  0  0  0  0  0  0  0
   -0.4149   -0.2525   -2.9978 H   0  0  0  0  0  0  0  0  0  0  0  0
   -0.2465    1.9987   -0.3322 C   0  0  0  0  0  0  0  0  0  0  0  0
   -1.2940    2.2504   -0.5268 H   0  0  0  0  0  0  0  0  0  0  0  0
   -0.1603    1.8283    0.7404 H   0  0  0  0  0  0  0  0  0  0  0  0
    0.6388    3.1981   -0.6762 C   0  0  0  0  0  0  0  0  0  0  0  0
    0.5737    3.4314   -1.7433 H   0  0  0  0  0  0  0  0  0  0  0  0
    0.3180    4.0768   -0.1087 H   0  0  0  0  0  0  0  0  0  0  0  0
    1.6832    2.9873   -0.4246 H   0  0  0  0  0  0  0  0  0  0  0  0
    0.9847   -0.5123    1.0109 C   0  0  0  0  0  0  0  0  0  0  0  0
    2.2085   -0.5005    1.0287 O   0  0  0  0  0  0  0  0  0  0  0  0
    0.3025   -0.1935    2.1724 N   0  0  0  0  0  0  0  0  0  0  0  0
   -0.7072   -0.2830    2.1382 H   0  0  0  0  0  0  0  0  0  0  0  0
    0.9562   -0.0907    3.4709 C   0  0  0  0  0  0  0  0  0  0  0  0
    1.7358    0.6781    3.4486 H   0  0  0  0  0  0  0  0  0  0  0  0
    0.2279    0.1806    4.2409 H   0  0  0  0  0  0  0  0  0  0  0  0
    1.4128   -1.0477    3.7450 H   0  0  0  0  0  0  0  0  0  0  0  0
  1  2  1  0  0  0  0
  2  3  1  0  0  0  0
  2  4  1  0  0  0  0
  2  5  1  0  0  0  0
  5  6  2  0  0  0  0
  5  7  1  0  0  0  0
  7  8  1  0  0  0  0
  7  9  1  0  0  0  0
  9 10  1  0  0  0  0
  9 11  1  0  0  0  0
  9 24  1  0  0  0  0
 11 12  1  0  0  0  0
 11 13  1  0  0  0  0
 11 17  1  0  0  0  0
 13 14  1  0  0  0  0
 13 15  1  0  0  0  0
 13 16  1  0  0  0  0
 17 18  1  0  0  0  0
 17 19  1  0  0  0  0
 17 20  1  0  0  0  0
 20 21  1  0  0  0  0
 20 22  1  0  0  0  0
 20 23  1  0  0  0  0
 24 25  2  0  0  0  0
 24 26  1  0  0  0  0
 26 27  1  0  0  0  0
 26 28  1  0  0  0  0
 28 29  1  0  0  0  0
 28 30  1  0  0  0  0
 28 31  1  0  0  0  0
M  END
$$$$

  -OEChem-03222214053D

 31 30  0     1  0  0  0  0  0999 V2000
   -2.5006   -4.3214    0.2634 H   0  0  0  0  0  0  0  0  0  0  0  0
   -2.5564   -3.2803   -0.0673 C   0  0  0  0  0  0  0  0  0  0  0  0
   -3.2758   -2.7499    0.5611 H   0  0  0  0  0  0  0  0  0  0  0  0
   -2.9014   -3.2597   -1.1038 H   0  0  0  0  0  0  0  0  0  0  0  0
   -1.1915   -2.6262    0.0389 C   0  0  0  0  0  0  0  0  0  0  0  0
   -0.2434   -3.2658    0.4563 O   0  0  0  0  0  0  0  0  0  0  0  0
   -1.0343   -1.3049   -0.3308 N   0  0  0  0  0  0  0  0  0  0  0  0
   -1.8448   -0.8387   -0.7259 H   0  0  0  0  0  0  0  0  0  0  0  0
    0.2583   -0.5907   -0.3584 C   0  0  1  0  0  0  0  0  0  0  0  0
    0.9191   -1.2227   -0.9636 H   0  0  0  0  0  0  0  0  0  0  0  0
    0.1547    0.7483   -1.1495 C   0  0  1  0  0  0  0  0  0  0  0  0
    1.1754    0.9308   -1.5047 H   0  0  0  0  0  0  0  0  0  0  0  0
   -0.7338    0.6265   -2.4011 C   0  0  0  0  0  0  0  0  0  0  0  0
   -1.7919    0.5605   -2.1303 H   0  0  0  0  0  0  0  0  0  0  0  0
   -0.6014    1.4974   -3.0498 H   0  0  0  0  0  0  0  0  0  0  0  0
   -0.4612   -0.2651   -2.9747 H   0  0  0  0  0  0  0  0  0  0  0  0
   -0.2406    1.9904   -0.3121 C   0  0  0  0  0  0  0  0  0  0  0  0
   -1.3306    2.0735   -0.2577 H   0  0  0  0  0  0  0  0  0  0  0  0
    0.1305    1.9118    0.7105 H   0  0  0  0  0  0  0  0  0  0  0  0
    0.3569    3.2774   -0.8874 C   0  0  0  0  0  0  0  0  0  0  0  0
   -0.0063    3.4567   -1.9034 H   0  0  0  0  0  0  0  0  0  0  0  0
    0.0723    4.1313   -0.2653 H   0  0  0  0  0  0  0  0  0  0  0  0
    1.4495    3.2169   -0.9103 H   0  0  0  0  0  0  0  0  0  0  0  0
    0.9897   -0.5128    1.0030 C   0  0  0  0  0  0  0  0  0  0  0  0
    2.2133   -0.5038    1.0295 O   0  0  0  0  0  0  0  0  0  0  0  0
    0.2970   -0.1889    2.1568 N   0  0  0  0  0  0  0  0  0  0  0  0
   -0.7122   -0.2782    2.1130 H   0  0  0  0  0  0  0  0  0  0  0  0
    0.9380   -0.0843    3.4613 C   0  0  0  0  0  0  0  0  0  0  0  0
    1.7191    0.6831    3.4450 H   0  0  0  0  0  0  0  0  0  0  0  0
    0.2028    0.1898    4.2236 H   0  0  0  0  0  0  0  0  0  0  0  0
    1.3899   -1.0415    3.7418 H   0  0  0  0  0  0  0  0  0  0  0  0
  1  2  1  0  0  0  0
  2  3  1  0  0  0  0
  2  4  1  0  0  0  0
  2  5  1  0  0  0  0
  5  6  2  0  0  0  0
  5  7  1  0  0  0  0
  7  8  1  0  0  0  0
  7  9  1  0  0  0  0
  9 10  1  0  0  0  0
  9 11  1  0  0  0  0
  9 24  1  0  0  0  0
 11 12  1  0  0  0  0
 11 13  1  0  0  0  0
 11 17  1  0  0  0  0
 13 14  1  0  0  0  0
 13 15  1  0  0  0  0
 13 16  1  0  0  0  0
 17 18  1  0  0  0  0
 17 19  1  0  0  0  0
 17 20  1  0  0  0  0
 20 21  1  0  0  0  0
 20 22  1  0  0  0  0
 20 23  1  0  0  0  0
 24 25  2  0  0  0  0
 24 26  1  0  0  0  0
 26 27  1  0  0  0  0
 26 28  1  0  0  0  0
 28 29  1  0  0  0  0
 28 30  1  0  0  0  0
 28 31  1  0  0  0  0
M  END
$$$$

  -OEChem-03222214053D

 31 30  0     1  0  0  0  0  0999 V2000
   -2.4978   -4.3172    0.2729 H   0  0  0  0  0  0  0  0  0  0  0  0
   -2.5501   -3.2784   -0.0657 C   0  0  0  0  0  0  0  0  0  0  0  0
   -3.2729   -2.7427    0.5543 H   0  0  0  0  0  0  0  0  0  0  0  0
   -2.8889   -3.2649   -1.1044 H   0  0  0  0  0  0  0  0  0  0  0  0
   -1.1852   -2.6251    0.0446 C   0  0  0  0  0  0  0  0  0  0  0  0
   -0.2419   -3.2605    0.4789 O   0  0  0  0  0  0  0  0  0  0  0  0
   -1.0233   -1.3098   -0.3428 N   0  0  0  0  0  0  0  0  0  0  0  0
   -1.8295   -0.8496   -0.7533 H   0  0  0  0  0  0  0  0  0  0  0  0
    0.2713   -0.5994   -0.3771 C   0  0  1  0  0  0  0  0  0  0  0  0
    0.9342   -1.2308   -0.9803 H   0  0  0  0  0  0  0  0  0  0  0  0
    0.1601    0.7433   -1.1614 C   0  0  1  0  0  0  0  0  0  0  0  0
    1.1724    0.9414   -1.5321 H   0  0  0  0  0  0  0  0  0  0  0  0
   -0.7507    0.6179   -2.3976 C   0  0  0  0  0  0  0  0  0  0  0  0
   -1.8059    0.6025   -2.1087 H   0  0  0  0  0  0  0  0  0  0  0  0
   -0.5934    1.4595   -3.0783 H   0  0  0  0  0  0  0  0  0  0  0  0
   -0.5222   -0.3011   -2.9470 H   0  0  0  0  0  0  0  0  0  0  0  0
   -0.2271    1.9624   -0.2896 C   0  0  0  0  0  0  0  0  0  0  0  0
   -1.2781    1.8898    0.0071 H   0  0  0  0  0  0  0  0  0  0  0  0
    0.3763    1.9823    0.6213 H   0  0  0  0  0  0  0  0  0  0  0  0
    0.0250    3.2961   -0.9995 C   0  0  0  0  0  0  0  0  0  0  0  0
   -0.6335    3.4111   -1.8649 H   0  0  0  0  0  0  0  0  0  0  0  0
   -0.1691    4.1253   -0.3125 H   0  0  0  0  0  0  0  0  0  0  0  0
    1.0646    3.3628   -1.3353 H   0  0  0  0  0  0  0  0  0  0  0  0
    0.9945   -0.5080    0.9877 C   0  0  0  0  0  0  0  0  0  0  0  0
    2.2179   -0.5010    1.0234 O   0  0  0  0  0  0  0  0  0  0  0  0
    0.2927   -0.1674    2.1312 N   0  0  0  0  0  0  0  0  0  0  0  0
   -0.7165   -0.2538    2.0792 H   0  0  0  0  0  0  0  0  0  0  0  0
    0.9229   -0.0505    3.4401 C   0  0  0  0  0  0  0  0  0  0  0  0
    1.7048    0.7160    3.4228 H   0  0  0  0  0  0  0  0  0  0  0  0
    0.1814    0.2318    4.1934 H   0  0  0  0  0  0  0  0  0  0  0  0
    1.3720   -1.0051    3.7342 H   0  0  0  0  0  0  0  0  0  0  0  0
  1  2  1  0  0  0  0
  2  3  1  0  0  0  0
  2  4  1  0  0  0  0
  2  5  1  0  0  0  0
  5  6  2  0  0  0  0
  5  7  1  0  0  0  0
  7  8  1  0  0  0  0
  7  9  1  0  0  0  0
  9 10  1  0  0  0  0
  9 11  1  0  0  0  0
  9 24  1  0  0  0  0
 11 12  1  0  0  0  0
 11 13  1  0  0  0  0
 11 17  1  0  0  0  0
 13 14  1  0  0  0  0
 13 15  1  0  0  0  0
 13 16  1  0  0  0  0
 17 18  1  0  0  0  0
 17 19  1  0  0  0  0
 17 20  1  0  0  0  0
 20 21  1  0  0  0  0
 20 22  1  0  0  0  0
 20 23  1  0  0  0  0
 24 25  2  0  0  0  0
 24 26  1  0  0  0  0
 26 27  1  0  0  0  0
 26 28  1  0  0  0  0
 28 29  1  0  0  0  0
 28 30  1  0  0  0  0
 28 31  1  0  0  0  0
M  END
$$$$

  -OEChem-03222214053D

 31 30  0     1  0  0  0  0  0999 V2000
   -2.4969   -4.3175    0.3095 H   0  0  0  0  0  0  0  0  0  0  0  0
   -2.5495   -3.2812   -0.0364 C   0  0  0  0  0  0  0  0  0  0  0  0
   -3.2676   -2.7393    0.5835 H   0  0  0  0  0  0  0  0  0  0  0  0
   -2.8941   -3.2750   -1.0734 H   0  0  0  0  0  0  0  0  0  0  0  0
   -1.1830   -2.6298    0.0613 C   0  0  0  0  0  0  0  0  0  0  0  0
   -0.2383   -3.2632    0.4951 O   0  0  0  0  0  0  0  0  0  0  0  0
   -1.0221   -1.3178   -0.3381 N   0  0  0  0  0  0  0  0  0  0  0  0
   -1.8312   -0.8615   -0.7471 H   0  0  0  0  0  0  0  0  0  0  0  0
    0.2721   -0.6048   -0.3842 C   0  0  1  0  0  0  0  0  0  0  0  0
    0.9316   -1.2442   -0.9824 H   0  0  0  0  0  0  0  0  0  0  0  0
    0.1745    0.7413   -1.1784 C   0  0  1  0  0  0  0  0  0  0  0  0
    1.0994    0.8072   -1.7626 H   0  0  0  0  0  0  0  0  0  0  0  0
   -0.9831    0.7469   -2.1985 C   0  0  0  0  0  0  0  0  0  0  0  0
   -1.9475    0.8636   -1.6944 H   0  0  0  0  0  0  0  0  0  0  0  0
   -0.8648    1.5675   -2.9121 H   0  0  0  0  0  0  0  0  0  0  0  0
   -0.9919   -0.1849   -2.7733 H   0  0  0  0  0  0  0  0  0  0  0  0
    0.1637    1.9964   -0.2691 C   0  0  0  0  0  0  0  0  0  0  0  0
   -0.6764    1.9358    0.4301 H   0  0  0  0  0  0  0  0  0  0  0  0
    1.0882    2.0292    0.3168 H   0  0  0  0  0  0  0  0  0  0  0  0
    0.0686    3.3158   -1.0415 C   0  0  0  0  0  0  0  0  0  0  0  0
   -0.9091    3.4227   -1.5203 H   0  0  0  0  0  0  0  0  0  0  0  0
    0.2025    4.1577   -0.3557 H   0  0  0  0  0  0  0  0  0  0  0  0
    0.8475    3.3672   -1.8086 H   0  0  0  0  0  0  0  0  0  0  0  0
    0.9919   -0.5060    0.9824 C   0  0  0  0  0  0  0  0  0  0  0  0
    2.2152   -0.5110    1.0246 O   0  0  0  0  0  0  0  0  0  0  0  0
    0.2849   -0.1585    2.1202 N   0  0  0  0  0  0  0  0  0  0  0  0
   -0.7241   -0.2436    2.0631 H   0  0  0  0  0  0  0  0  0  0  0  0
    0.9082   -0.0437    3.4323 C   0  0  0  0  0  0  0  0  0  0  0  0
    1.6951    0.7177    3.4175 H   0  0  0  0  0  0  0  0  0  0  0  0
    0.1645    0.2446    4.1811 H   0  0  0  0  0  0  0  0  0  0  0  0
    1.3492   -1.0008    3.7304 H   0  0  0  0  0  0  0  0  0  0  0  0
  1  2  1  0  0  0  0
  2  3  1  0  0  0  0
  2  4  1  0  0  0  0
  2  5  1  0  0  0  0
  5  6  2  0  0  0  0
  5  7  1  0  0  0  0
  7  8  1  0  0  0  0
  7  9  1  0  0  0  0
  9 10  1  0  0  0  0
  9 11  1  0  0  0  0
  9 24  1  0  0  0  0
 11 12  1  0  0  0  0
 11 13  1  0  0  0  0
 11 17  1  0  0  0  0
 13 14  1  0  0  0  0
 13 15  1  0  0  0  0
 13 16  1  0  0  0  0
 17 18  1  0  0  0  0
 17 19  1  0  0  0  0
 17 20  1  0  0  0  0
 20 21  1  0  0  0  0
 20 22  1  0  0  0  0
 20 23  1  0  0  0  0
 24 25  2  0  0  0  0
 24 26  1  0  0  0  0
 26 27  1  0  0  0  0
 26 28  1  0  0  0  0
 28 29  1  0  0  0  0
 28 30  1  0  0  0  0
 28 31  1  0  0  0  0
M  END
$$$$

  -OEChem-03222214053D

 31 30  0     1  0  0  0  0  0999 V2000
   -2.4952   -4.3283    0.3113 H   0  0  0  0  0  0  0  0  0  0  0  0
   -2.5545   -3.2918   -0.0332 C   0  0  0  0  0  0  0  0  0  0  0  0
   -3.2716   -2.7546    0.5919 H   0  0  0  0  0  0  0  0  0  0  0  0
   -2.9053   -3.2851   -1.0680 H   0  0  0  0  0  0  0  0  0  0  0  0
   -1.1906   -2.6336    0.0572 C   0  0  0  0  0  0  0  0  0  0  0  0
   -0.2385   -3.2651    0.4778 O   0  0  0  0  0  0  0  0  0  0  0  0
   -1.0395   -1.3175   -0.3324 N   0  0  0  0  0  0  0  0  0  0  0  0
   -1.8550   -0.8587   -0.7260 H   0  0  0  0  0  0  0  0  0  0  0  0
    0.2507   -0.5980   -0.3779 C   0  0  1  0  0  0  0  0  0  0  0  0
    0.9075   -1.2402   -0.9763 H   0  0  0  0  0  0  0  0  0  0  0  0
    0.1688    0.7428   -1.1808 C   0  0  1  0  0  0  0  0  0  0  0  0
    1.0979    0.8103   -1.7579 H   0  0  0  0  0  0  0  0  0  0  0  0
   -0.9759    0.7284   -2.2166 C   0  0  0  0  0  0  0  0  0  0  0  0
   -1.9492    0.8296   -1.7265 H   0  0  0  0  0  0  0  0  0  0  0  0
   -0.8611    1.5494   -2.9306 H   0  0  0  0  0  0  0  0  0  0  0  0
   -0.9614   -0.2048   -2.7889 H   0  0  0  0  0  0  0  0  0  0  0  0
    0.1535    1.9975   -0.2679 C   0  0  0  0  0  0  0  0  0  0  0  0
   -0.5408    1.8325    0.5612 H   0  0  0  0  0  0  0  0  0  0  0  0
    1.1536    2.1438    0.1547 H   0  0  0  0  0  0  0  0  0  0  0  0
   -0.2790    3.2928   -0.9633 C   0  0  0  0  0  0  0  0  0  0  0  0
   -1.3304    3.2483   -1.2622 H   0  0  0  0  0  0  0  0  0  0  0  0
   -0.1566    4.1390   -0.2804 H   0  0  0  0  0  0  0  0  0  0  0  0
    0.3367    3.4747   -1.8496 H   0  0  0  0  0  0  0  0  0  0  0  0
    0.9847   -0.5007    0.9818 C   0  0  0  0  0  0  0  0  0  0  0  0
    2.2085   -0.4912    1.0076 O   0  0  0  0  0  0  0  0  0  0  0  0
    0.2921   -0.1639    2.1316 N   0  0  0  0  0  0  0  0  0  0  0  0
   -0.7167   -0.2612    2.0909 H   0  0  0  0  0  0  0  0  0  0  0  0
    0.9350   -0.0441    3.4339 C   0  0  0  0  0  0  0  0  0  0  0  0
    1.7195    0.7195    3.4063 H   0  0  0  0  0  0  0  0  0  0  0  0
    0.2020    0.2444    4.1931 H   0  0  0  0  0  0  0  0  0  0  0  0
    1.3833   -0.9994    3.7270 H   0  0  0  0  0  0  0  0  0  0  0  0
  1  2  1  0  0  0  0
  2  3  1  0  0  0  0
  2  4  1  0  0  0  0
  2  5  1  0  0  0  0
  5  6  2  0  0  0  0
  5  7  1  0  0  0  0
  7  8  1  0  0  0  0
  7  9  1  0  0  0  0
  9 10  1  0  0  0  0
  9 11  1  0  0  0  0
  9 24  1  0  0  0  0
 11 12  1  0  0  0  0
 11 13  1  0  0  0  0
 11 17  1  0  0  0  0
 13 14  1  0  0  0  0
 13 15  1  0  0  0  0
 13 16  1  0  0  0  0
 17 18  1  0  0  0  0
 17 19  1  0  0  0  0
 17 20  1  0  0  0  0
 20 21  1  0  0  0  0
 20 22  1  0  0  0  0
 20 23  1  0  0  0  0
 24 25  2  0  0  0  0
 24 26  1  0  0  0  0
 26 27  1  0  0  0  0
 26 28  1  0  0  0  0
 28 29  1  0  0  0  0
 28 30  1  0  0  0  0
 28 31  1  0  0  0  0
M  END
$$$$

  -OEChem-03222214053D

 31 30  0     1  0  0  0  0  0999 V2000
   -2.4988   -4.3349    0.3042 H   0  0  0  0  0  0  0  0  0  0  0  0
   -2.5635   -3.2957   -0.0314 C   0  0  0  0  0  0  0  0  0  0  0  0
   -3.2773   -2.7655    0.6033 H   0  0  0  0  0  0  0  0  0  0  0  0
   -2.9216   -3.2820   -1.0637 H   0  0  0  0  0  0  0  0  0  0  0  0
   -1.2007   -2.6344    0.0543 C   0  0  0  0  0  0  0  0  0  0  0  0
   -0.2425   -3.2697    0.4549 O   0  0  0  0  0  0  0  0  0  0  0  0
   -1.0575   -1.3112   -0.3140 N   0  0  0  0  0  0  0  0  0  0  0  0
   -1.8790   -0.8463   -0.6872 H   0  0  0  0  0  0  0  0  0  0  0  0
    0.2299   -0.5870   -0.3575 C   0  0  1  0  0  0  0  0  0  0  0  0
    0.8808   -1.2311   -0.9608 H   0  0  0  0  0  0  0  0  0  0  0  0
    0.1577    0.7487   -1.1699 C   0  0  1  0  0  0  0  0  0  0  0  0
    1.0967    0.8116   -1.7314 H   0  0  0  0  0  0  0  0  0  0  0  0
   -0.9595    0.7045   -2.2354 C   0  0  0  0  0  0  0  0  0  0  0  0
   -1.9492    0.7731   -1.7738 H   0  0  0  0  0  0  0  0  0  0  0  0
   -0.8490    1.5302   -2.9446 H   0  0  0  0  0  0  0  0  0  0  0  0
   -0.9018   -0.2270   -2.8078 H   0  0  0  0  0  0  0  0  0  0  0  0
    0.1343    2.0221   -0.2759 C   0  0  0  0  0  0  0  0  0  0  0  0
   -0.3681    1.7953    0.6670 H   0  0  0  0  0  0  0  0  0  0  0  0
    1.1650    2.3100   -0.0419 H   0  0  0  0  0  0  0  0  0  0  0  0
   -0.6121    3.2297   -0.8547 C   0  0  0  0  0  0  0  0  0  0  0  0
   -1.6759    3.0117   -0.9859 H   0  0  0  0  0  0  0  0  0  0  0  0
   -0.5234    4.0804   -0.1721 H   0  0  0  0  0  0  0  0  0  0  0  0
   -0.1833    3.5194   -1.8190 H   0  0  0  0  0  0  0  0  0  0  0  0
    0.9833   -0.5048    0.9931 C   0  0  0  0  0  0  0  0  0  0  0  0
    2.2071   -0.4870    0.9992 O   0  0  0  0  0  0  0  0  0  0  0  0
    0.3094   -0.1878    2.1596 N   0  0  0  0  0  0  0  0  0  0  0  0
   -0.6999   -0.2841    2.1342 H   0  0  0  0  0  0  0  0  0  0  0  0
    0.9740   -0.0776    3.4520 C   0  0  0  0  0  0  0  0  0  0  0  0
    1.7535    0.6909    3.4185 H   0  0  0  0  0  0  0  0  0  0  0  0
    0.2523    0.1992    4.2262 H   0  0  0  0  0  0  0  0  0  0  0  0
    1.4327   -1.0329    3.7282 H   0  0  0  0  0  0  0  0  0  0  0  0
  1  2  1  0  0  0  0
  2  3  1  0  0  0  0
  2  4  1  0  0  0  0
  2  5  1  0  0  0  0
  5  6  2  0  0  0  0
  5  7  1  0  0  0  0
  7  8  1  0  0  0  0
  7  9  1  0  0  0  0
  9 10  1  0  0  0  0
  9 11  1  0  0  0  0
  9 24  1  0  0  0  0
 11 12  1  0  0  0  0
 11 13  1  0  0  0  0
 11 17  1  0  0  0  0
 13 14  1  0  0  0  0
 13 15  1  0  0  0  0
 13 16  1  0  0  0  0
 17 18  1  0  0  0  0
 17 19  1  0  0  0  0
 17 20  1  0  0  0  0
 20 21  1  0  0  0  0
 20 22  1  0  0  0  0
 20 23  1  0  0  0  0
 24 25  2  0  0  0  0
 24 26  1  0  0  0  0
 26 27  1  0  0  0  0
 26 28  1  0  0  0  0
 28 29  1  0  0  0  0
 28 30  1  0  0  0  0
 28 31  1  0  0  0  0
M  END
$$$$

  -OEChem-03222214053D

 31 30  0     1  0  0  0  0  0999 V2000
   -2.5073   -4.3325    0.2948 H   0  0  0  0  0  0  0  0  0  0  0  0
   -2.5724   -3.2896   -0.0286 C   0  0  0  0  0  0  0  0  0  0  0  0
   -3.2834   -2.7659    0.6146 H   0  0  0  0  0  0  0  0  0  0  0  0
   -2.9344   -3.2640   -1.0592 H   0  0  0  0  0  0  0  0  0  0  0  0
   -1.2089   -2.6306    0.0591 C   0  0  0  0  0  0  0  0  0  0  0  0
   -0.2480   -3.2727    0.4419 O   0  0  0  0  0  0  0  0  0  0  0  0
   -1.0675   -1.3019   -0.2885 N   0  0  0  0  0  0  0  0  0  0  0  0
   -1.8914   -0.8307   -0.6481 H   0  0  0  0  0  0  0  0  0  0  0  0
    0.2197   -0.5780   -0.3332 C   0  0  1  0  0  0  0  0  0  0  0  0
    0.8637   -1.2213   -0.9446 H   0  0  0  0  0  0  0  0  0  0  0  0
    0.1423    0.7550   -1.1503 C   0  0  1  0  0  0  0  0  0  0  0  0
    1.0936    0.8106   -1.6921 H   0  0  0  0  0  0  0  0  0  0  0  0
   -0.9391    0.6854   -2.2508 C   0  0  0  0  0  0  0  0  0  0  0  0
   -1.9460    0.7248   -1.8249 H   0  0  0  0  0  0  0  0  0  0  0  0
   -0.8249    1.5152   -2.9546 H   0  0  0  0  0  0  0  0  0  0  0  0
   -0.8384   -0.2438   -2.8211 H   0  0  0  0  0  0  0  0  0  0  0  0
    0.1141    2.0555   -0.2883 C   0  0  0  0  0  0  0  0  0  0  0  0
   -0.1189    1.8177    0.7496 H   0  0  0  0  0  0  0  0  0  0  0  0
    1.1136    2.5037   -0.2994 H   0  0  0  0  0  0  0  0  0  0  0  0
   -0.9127    3.1175   -0.7013 C   0  0  0  0  0  0  0  0  0  0  0  0
   -1.9319    2.7256   -0.6345 H   0  0  0  0  0  0  0  0  0  0  0  0
   -0.8380    3.9810   -0.0331 H   0  0  0  0  0  0  0  0  0  0  0  0
   -0.7257    3.4631   -1.7223 H   0  0  0  0  0  0  0  0  0  0  0  0
    0.9886   -0.5175    1.0096 C   0  0  0  0  0  0  0  0  0  0  0  0
    2.2124   -0.4958    1.0005 O   0  0  0  0  0  0  0  0  0  0  0  0
    0.3296   -0.2195    2.1898 N   0  0  0  0  0  0  0  0  0  0  0  0
   -0.6796   -0.3210    2.1772 H   0  0  0  0  0  0  0  0  0  0  0  0
    1.0117   -0.1306    3.4748 C   0  0  0  0  0  0  0  0  0  0  0  0
    1.7842    0.6451    3.4459 H   0  0  0  0  0  0  0  0  0  0  0  0
    0.2993    0.1232    4.2655 H   0  0  0  0  0  0  0  0  0  0  0  0
    1.4824   -1.0874    3.7242 H   0  0  0  0  0  0  0  0  0  0  0  0
  1  2  1  0  0  0  0
  2  3  1  0  0  0  0
  2  4  1  0  0  0  0
  2  5  1  0  0  0  0
  5  6  2  0  0  0  0
  5  7  1  0  0  0  0
  7  8  1  0  0  0  0
  7  9  1  0  0  0  0
  9 10  1  0  0  0  0
  9 11  1  0  0  0  0
  9 24  1  0  0  0  0
 11 12  1  0  0  0  0
 11 13  1  0  0  0  0
 11 17  1  0  0  0  0
 13 14  1  0  0  0  0
 13 15  1  0  0  0  0
 13 16  1  0  0  0  0
 17 18  1  0  0  0  0
 17 19  1  0  0  0  0
 17 20  1  0  0  0  0
 20 21  1  0  0  0  0
 20 22  1  0  0  0  0
 20 23  1  0  0  0  0
 24 25  2  0  0  0  0
 24 26  1  0  0  0  0
 26 27  1  0  0  0  0
 26 28  1  0  0  0  0
 28 29  1  0  0  0  0
 28 30  1  0  0  0  0
 28 31  1  0  0  0  0
M  END
$$$$

  -OEChem-03222214053D

 31 30  0     1  0  0  0  0  0999 V2000
   -2.5130   -4.3243    0.3163 H   0  0  0  0  0  0  0  0  0  0  0  0
   -2.5723   -3.2821   -0.0104 C   0  0  0  0  0  0  0  0  0  0  0  0
   -3.2742   -2.7502    0.6363 H   0  0  0  0  0  0  0  0  0  0  0  0
   -2.9422   -3.2570   -1.0381 H   0  0  0  0  0  0  0  0  0  0  0  0
   -1.2025   -2.6341    0.0631 C   0  0  0  0  0  0  0  0  0  0  0  0
   -0.2423   -3.2853    0.4324 O   0  0  0  0  0  0  0  0  0  0  0  0
   -1.0554   -1.3056   -0.2834 N   0  0  0  0  0  0  0  0  0  0  0  0
   -1.8808   -0.8258   -0.6282 H   0  0  0  0  0  0  0  0  0  0  0  0
    0.2348   -0.5879   -0.3342 C   0  0  1  0  0  0  0  0  0  0  0  0
    0.8765   -1.2256   -0.9541 H   0  0  0  0  0  0  0  0  0  0  0  0
    0.1342    0.7514   -1.1389 C   0  0  1  0  0  0  0  0  0  0  0  0
    1.0910    0.8053   -1.6707 H   0  0  0  0  0  0  0  0  0  0  0  0
   -0.9293    0.6854   -2.2560 C   0  0  0  0  0  0  0  0  0  0  0  0
   -1.9439    0.6976   -1.8478 H   0  0  0  0  0  0  0  0  0  0  0  0
   -0.8176    1.5345   -2.9372 H   0  0  0  0  0  0  0  0  0  0  0  0
   -0.8032   -0.2298   -2.8435 H   0  0  0  0  0  0  0  0  0  0  0  0
    0.1120    2.0654   -0.2949 C   0  0  0  0  0  0  0  0  0  0  0  0
    0.2198    1.8622    0.7693 H   0  0  0  0  0  0  0  0  0  0  0  0
    0.9811    2.6668   -0.5822 H   0  0  0  0  0  0  0  0  0  0  0  0
   -1.1363    2.9409   -0.4584 C   0  0  0  0  0  0  0  0  0  0  0  0
   -2.0362    2.3847   -0.1795 H   0  0  0  0  0  0  0  0  0  0  0  0
   -1.0606    3.8163    0.1939 H   0  0  0  0  0  0  0  0  0  0  0  0
   -1.2377    3.2963   -1.4880 H   0  0  0  0  0  0  0  0  0  0  0  0
    1.0019   -0.5390    1.0091 C   0  0  0  0  0  0  0  0  0  0  0  0
    2.2258   -0.5227    1.0045 O   0  0  0  0  0  0  0  0  0  0  0  0
    0.3370   -0.2416    2.1862 N   0  0  0  0  0  0  0  0  0  0  0  0
   -0.6731   -0.3321    2.1661 H   0  0  0  0  0  0  0  0  0  0  0  0
    1.0111   -0.1545    3.4752 C   0  0  0  0  0  0  0  0  0  0  0  0
    1.7876    0.6173    3.4510 H   0  0  0  0  0  0  0  0  0  0  0  0
    0.2947    0.1039    4.2606 H   0  0  0  0  0  0  0  0  0  0  0  0
    1.4752   -1.1135    3.7286 H   0  0  0  0  0  0  0  0  0  0  0  0
  1  2  1  0  0  0  0
  2  3  1  0  0  0  0
  2  4  1  0  0  0  0
  2  5  1  0  0  0  0
  5  6  2  0  0  0  0
  5  7  1  0  0  0  0
  7  8  1  0  0  0  0
  7  9  1  0  0  0  0
  9 10  1  0  0  0  0
  9 11  1  0  0  0  0
  9 24  1  0  0  0  0
 11 12  1  0  0  0  0
 11 13  1  0  0  0  0
 11 17  1  0  0  0  0
 13 14  1  0  0  0  0
 13 15  1  0  0  0  0
 13 16  1  0  0  0  0
 17 18  1  0  0  0  0
 17 19  1  0  0  0  0
 17 20  1  0  0  0  0
 20 21  1  0  0  0  0
 20 22  1  0  0  0  0
 20 23  1  0  0  0  0
 24 25  2  0  0  0  0
 24 26  1  0  0  0  0
 26 27  1  0  0  0  0
 26 28  1  0  0  0  0
 28 29  1  0  0  0  0
 28 30  1  0  0  0  0
 28 31  1  0  0  0  0
M  END
$$$$

  -OEChem-03222214053D

 31 30  0     1  0  0  0  0  0999 V2000
   -2.5151   -4.3188    0.3451 H   0  0  0  0  0  0  0  0  0  0  0  0
   -2.5674   -3.2801    0.0060 C   0  0  0  0  0  0  0  0  0  0  0  0
   -3.2621   -2.7350    0.6494 H   0  0  0  0  0  0  0  0  0  0  0  0
   -2.9414   -3.2642   -1.0205 H   0  0  0  0  0  0  0  0  0  0  0  0
   -1.1923   -2.6419    0.0674 C   0  0  0  0  0  0  0  0  0  0  0  0
   -0.2366   -3.2948    0.4448 O   0  0  0  0  0  0  0  0  0  0  0  0
   -1.0359   -1.3192   -0.2968 N   0  0  0  0  0  0  0  0  0  0  0  0
   -1.8576   -0.8401   -0.6510 H   0  0  0  0  0  0  0  0  0  0  0  0
    0.2582   -0.6089   -0.3529 C   0  0  1  0  0  0  0  0  0  0  0  0
    0.9019   -1.2424   -0.9749 H   0  0  0  0  0  0  0  0  0  0  0  0
    0.1390    0.7380   -1.1414 C   0  0  1  0  0  0  0  0  0  0  0  0
    1.0931    0.7966   -1.6779 H   0  0  0  0  0  0  0  0  0  0  0  0
   -0.9341    0.6983   -2.2487 C   0  0  0  0  0  0  0  0  0  0  0  0
   -1.9452    0.6683   -1.8322 H   0  0  0  0  0  0  0  0  0  0  0  0
   -0.8488    1.5839   -2.8861 H   0  0  0  0  0  0  0  0  0  0  0  0
   -0.7923   -0.1853   -2.8793 H   0  0  0  0  0  0  0  0  0  0  0  0
    0.1269    2.0463   -0.2938 C   0  0  0  0  0  0  0  0  0  0  0  0
    0.5505    1.9003    0.7001 H   0  0  0  0  0  0  0  0  0  0  0  0
    0.7813    2.7690   -0.7926 H   0  0  0  0  0  0  0  0  0  0  0  0
   -1.2467    2.7115   -0.1536 C   0  0  0  0  0  0  0  0  0  0  0  0
   -1.9648    2.0140    0.2883 H   0  0  0  0  0  0  0  0  0  0  0  0
   -1.1689    3.5860    0.4997 H   0  0  0  0  0  0  0  0  0  0  0  0
   -1.6254    3.0485   -1.1229 H   0  0  0  0  0  0  0  0  0  0  0  0
    1.0112   -0.5516    0.9970 C   0  0  0  0  0  0  0  0  0  0  0  0
    2.2350   -0.5463    1.0069 O   0  0  0  0  0  0  0  0  0  0  0  0
    0.3329   -0.2364    2.1617 N   0  0  0  0  0  0  0  0  0  0  0  0
   -0.6775   -0.3165    2.1284 H   0  0  0  0  0  0  0  0  0  0  0  0
    0.9901   -0.1371    3.4586 C   0  0  0  0  0  0  0  0  0  0  0  0
    1.7729    0.6285    3.4349 H   0  0  0  0  0  0  0  0  0  0  0  0
    0.2646    0.1368    4.2303 H   0  0  0  0  0  0  0  0  0  0  0  0
    1.4434   -1.0960    3.7313 H   0  0  0  0  0  0  0  0  0  0  0  0
  1  2  1  0  0  0  0
  2  3  1  0  0  0  0
  2  4  1  0  0  0  0
  2  5  1  0  0  0  0
  5  6  2  0  0  0  0
  5  7  1  0  0  0  0
  7  8  1  0  0  0  0
  7  9  1  0  0  0  0
  9 10  1  0  0  0  0
  9 11  1  0  0  0  0
  9 24  1  0  0  0  0
 11 12  1  0  0  0  0
 11 13  1  0  0  0  0
 11 17  1  0  0  0  0
 13 14  1  0  0  0  0
 13 15  1  0  0  0  0
 13 16  1  0  0  0  0
 17 18  1  0  0  0  0
 17 19  1  0  0  0  0
 17 20  1  0  0  0  0
 20 21  1  0  0  0  0
 20 22  1  0  0  0  0
 20 23  1  0  0  0  0
 24 25  2  0  0  0  0
 24 26  1  0  0  0  0
 26 27  1  0  0  0  0
 26 28  1  0  0  0  0
 28 29  1  0  0  0  0
 28 30  1  0  0  0  0
 28 31  1  0  0  0  0
M  END
$$$$

  -OEChem-03222214053D

 31 30  0     1  0  0  0  0  0999 V2000
   -2.5099   -4.3221    0.3615 H   0  0  0  0  0  0  0  0  0  0  0  0
   -2.5599   -3.2867    0.0123 C   0  0  0  0  0  0  0  0  0  0  0  0
   -3.2562   -2.7350    0.6483 H   0  0  0  0  0  0  0  0  0  0  0  0
   -2.9311   -3.2806   -1.0153 H   0  0  0  0  0  0  0  0  0  0  0  0
   -1.1839   -2.6500    0.0713 C   0  0  0  0  0  0  0  0  0  0  0  0
   -0.2313   -3.2996    0.4623 O   0  0  0  0  0  0  0  0  0  0  0  0
   -1.0230   -1.3332   -0.3121 N   0  0  0  0  0  0  0  0  0  0  0  0
   -1.8414   -0.8578   -0.6783 H   0  0  0  0  0  0  0  0  0  0  0  0
    0.2732   -0.6271   -0.3709 C   0  0  1  0  0  0  0  0  0  0  0  0
    0.9203   -1.2609   -0.9885 H   0  0  0  0  0  0  0  0  0  0  0  0
    0.1514    0.7229   -1.1527 C   0  0  1  0  0  0  0  0  0  0  0  0
    1.0968    0.7861   -1.7036 H   0  0  0  0  0  0  0  0  0  0  0  0
   -0.9460    0.7163   -2.2359 C   0  0  0  0  0  0  0  0  0  0  0  0
   -1.9475    0.6621   -1.8001 H   0  0  0  0  0  0  0  0  0  0  0  0
   -0.8832    1.6283   -2.8379 H   0  0  0  0  0  0  0  0  0  0  0  0
   -0.8114   -0.1409   -2.9032 H   0  0  0  0  0  0  0  0  0  0  0  0
    0.1476    2.0157   -0.2913 C   0  0  0  0  0  0  0  0  0  0  0  0
    0.8042    1.9280    0.5772 H   0  0  0  0  0  0  0  0  0  0  0  0
    0.5657    2.8238   -0.9006 H   0  0  0  0  0  0  0  0  0  0  0  0
   -1.2470    2.4633    0.1579 C   0  0  0  0  0  0  0  0  0  0  0  0
   -1.7522    1.6559    0.6962 H   0  0  0  0  0  0  0  0  0  0  0  0
   -1.1616    3.3244    0.8277 H   0  0  0  0  0  0  0  0  0  0  0  0
   -1.8614    2.7605   -0.6969 H   0  0  0  0  0  0  0  0  0  0  0  0
    1.0150   -0.5532    0.9846 C   0  0  0  0  0  0  0  0  0  0  0  0
    2.2389   -0.5576    1.0064 O   0  0  0  0  0  0  0  0  0  0  0  0
    0.3269   -0.2190    2.1379 N   0  0  0  0  0  0  0  0  0  0  0  0
   -0.6840   -0.2874    2.0938 H   0  0  0  0  0  0  0  0  0  0  0  0
    0.9709   -0.1014    3.4397 C   0  0  0  0  0  0  0  0  0  0  0  0
    1.7581    0.6594    3.4108 H   0  0  0  0  0  0  0  0  0  0  0  0
    0.2392    0.1900    4.1991 H   0  0  0  0  0  0  0  0  0  0  0  0
    1.4159   -1.0580    3.7334 H   0  0  0  0  0  0  0  0  0  0  0  0
  1  2  1  0  0  0  0
  2  3  1  0  0  0  0
  2  4  1  0  0  0  0
  2  5  1  0  0  0  0
  5  6  2  0  0  0  0
  5  7  1  0  0  0  0
  7  8  1  0  0  0  0
  7  9  1  0  0  0  0
  9 10  1  0  0  0  0
  9 11  1  0  0  0  0
  9 24  1  0  0  0  0
 11 12  1  0  0  0  0
 11 13  1  0  0  0  0
 11 17  1  0  0  0  0
 13 14  1  0  0  0  0
 13 15  1  0  0  0  0
 13 16  1  0  0  0  0
 17 18  1  0  0  0  0
 17 19  1  0  0  0  0
 17 20  1  0  0  0  0
 20 21  1  0  0  0  0
 20 22  1  0  0  0  0
 20 23  1  0  0  0  0
 24 25  2  0  0  0  0
 24 26  1  0  0  0  0
 26 27  1  0  0  0  0
 26 28  1  0  0  0  0
 28 29  1  0  0  0  0
 28 30  1  0  0  0  0
 28 31  1  0  0  0  0
M  END
$$$$

  -OEChem-03222214053D

 31 30  0     1  0  0  0  0  0999 V2000
   -2.5026   -4.3426    0.3364 H   0  0  0  0  0  0  0  0  0  0  0  0
   -2.5581   -3.3056   -0.0074 C   0  0  0  0  0  0  0  0  0  0  0  0
   -3.2623   -2.7626    0.6274 H   0  0  0  0  0  0  0  0  0  0  0  0
   -2.9228   -3.2967   -1.0373 H   0  0  0  0  0  0  0  0  0  0  0  0
   -1.1875   -2.6588    0.0639 C   0  0  0  0  0  0  0  0  0  0  0  0
   -0.2333   -3.3032    0.4596 O   0  0  0  0  0  0  0  0  0  0  0  0
   -1.0322   -1.3389   -0.3110 N   0  0  0  0  0  0  0  0  0  0  0  0
   -1.8513   -0.8650   -0.6781 H   0  0  0  0  0  0  0  0  0  0  0  0
    0.2613   -0.6270   -0.3585 C   0  0  1  0  0  0  0  0  0  0  0  0
    0.9088   -1.2671   -0.9695 H   0  0  0  0  0  0  0  0  0  0  0  0
    0.1647    0.7156   -1.1545 C   0  0  1  0  0  0  0  0  0  0  0  0
    1.1092    0.7734   -1.7072 H   0  0  0  0  0  0  0  0  0  0  0  0
   -0.9441    0.7228   -2.2249 C   0  0  0  0  0  0  0  0  0  0  0  0
   -1.9412    0.6861   -1.7775 H   0  0  0  0  0  0  0  0  0  0  0  0
   -0.8747    1.6322   -2.8303 H   0  0  0  0  0  0  0  0  0  0  0  0
   -0.8302   -0.1385   -2.8911 H   0  0  0  0  0  0  0  0  0  0  0  0
    0.1492    2.0059   -0.2981 C   0  0  0  0  0  0  0  0  0  0  0  0
    0.9566    1.9846    0.4399 H   0  0  0  0  0  0  0  0  0  0  0  0
    0.3536    2.8602   -0.9516 H   0  0  0  0  0  0  0  0  0  0  0  0
   -1.1865    2.2605    0.4114 C   0  0  0  0  0  0  0  0  0  0  0  0
   -1.4984    1.3874    0.9899 H   0  0  0  0  0  0  0  0  0  0  0  0
   -1.0862    3.1092    1.0947 H   0  0  0  0  0  0  0  0  0  0  0  0
   -1.9717    2.4989   -0.3117 H   0  0  0  0  0  0  0  0  0  0  0  0
    1.0136   -0.5465    0.9917 C   0  0  0  0  0  0  0  0  0  0  0  0
    2.2378   -0.5488    1.0005 O   0  0  0  0  0  0  0  0  0  0  0  0
    0.3419   -0.2175    2.1554 N   0  0  0  0  0  0  0  0  0  0  0  0
   -0.6693   -0.2873    2.1258 H   0  0  0  0  0  0  0  0  0  0  0  0
    1.0037   -0.0958    3.4478 C   0  0  0  0  0  0  0  0  0  0  0  0
    1.7925    0.6626    3.4054 H   0  0  0  0  0  0  0  0  0  0  0  0
    0.2831    0.2011    4.2154 H   0  0  0  0  0  0  0  0  0  0  0  0
    1.4496   -1.0524    3.7395 H   0  0  0  0  0  0  0  0  0  0  0  0
  1  2  1  0  0  0  0
  2  3  1  0  0  0  0
  2  4  1  0  0  0  0
  2  5  1  0  0  0  0
  5  6  2  0  0  0  0
  5  7  1  0  0  0  0
  7  8  1  0  0  0  0
  7  9  1  0  0  0  0
  9 10  1  0  0  0  0
  9 11  1  0  0  0  0
  9 24  1  0  0  0  0
 11 12  1  0  0  0  0
 11 13  1  0  0  0  0
 11 17  1  0  0  0  0
 13 14  1  0  0  0  0
 13 15  1  0  0  0  0
 13 16  1  0  0  0  0
 17 18  1  0  0  0  0
 17 19  1  0  0  0  0
 17 20  1  0  0  0  0
 20 21  1  0  0  0  0
 20 22  1  0  0  0  0
 20 23  1  0  0  0  0
 24 25  2  0  0  0  0
 24 26  1  0  0  0  0
 26 27  1  0  0  0  0
 26 28  1  0  0  0  0
 28 29  1  0  0  0  0
 28 30  1  0  0  0  0
 28 31  1  0  0  0  0
M  END
$$$$

  -OEChem-03222214053D

 31 30  0     1  0  0  0  0  0999 V2000
   -2.4923   -4.3864    0.2406 H   0  0  0  0  0  0  0  0  0  0  0  0
   -2.5625   -3.3368   -0.0591 C   0  0  0  0  0  0  0  0  0  0  0  0
   -3.2838   -2.8338    0.5892 H   0  0  0  0  0  0  0  0  0  0  0  0
   -2.9147   -3.2899   -1.0923 H   0  0  0  0  0  0  0  0  0  0  0  0
   -1.2048   -2.6697    0.0568 C   0  0  0  0  0  0  0  0  0  0  0  0
   -0.2454   -3.3093    0.4483 O   0  0  0  0  0  0  0  0  0  0  0  0
   -1.0675   -1.3356   -0.2715 N   0  0  0  0  0  0  0  0  0  0  0  0
   -1.8886   -0.8655   -0.6388 H   0  0  0  0  0  0  0  0  0  0  0  0
    0.2173   -0.6081   -0.2977 C   0  0  1  0  0  0  0  0  0  0  0  0
    0.8572   -1.2636   -0.9008 H   0  0  0  0  0  0  0  0  0  0  0  0
    0.1792    0.7094   -1.1380 C   0  0  1  0  0  0  0  0  0  0  0  0
    1.1344    0.7378   -1.6746 H   0  0  0  0  0  0  0  0  0  0  0  0
   -0.9201    0.6980   -2.2163 C   0  0  0  0  0  0  0  0  0  0  0  0
   -1.9182    0.7258   -1.7701 H   0  0  0  0  0  0  0  0  0  0  0  0
   -0.8149    1.5693   -2.8704 H   0  0  0  0  0  0  0  0  0  0  0  0
   -0.8364   -0.2017   -2.8342 H   0  0  0  0  0  0  0  0  0  0  0  0
    0.1311    2.0342   -0.3418 C   0  0  0  0  0  0  0  0  0  0  0  0
    1.0330    2.1010    0.2759 H   0  0  0  0  0  0  0  0  0  0  0  0
    0.1614    2.8796   -1.0369 H   0  0  0  0  0  0  0  0  0  0  0  0
   -1.0932    2.1857    0.5720 C   0  0  0  0  0  0  0  0  0  0  0  0
   -1.2768    1.2964    1.1734 H   0  0  0  0  0  0  0  0  0  0  0  0
   -0.9483    3.0353    1.2462 H   0  0  0  0  0  0  0  0  0  0  0  0
   -1.9876    2.3762   -0.0282 H   0  0  0  0  0  0  0  0  0  0  0  0
    1.0074   -0.5434    1.0335 C   0  0  0  0  0  0  0  0  0  0  0  0
    2.2310   -0.5194    0.9974 O   0  0  0  0  0  0  0  0  0  0  0  0
    0.3834   -0.2555    2.2336 N   0  0  0  0  0  0  0  0  0  0  0  0
   -0.6260   -0.3517    2.2484 H   0  0  0  0  0  0  0  0  0  0  0  0
    1.0986   -0.1607    3.4997 C   0  0  0  0  0  0  0  0  0  0  0  0
    1.8627    0.6225    3.4511 H   0  0  0  0  0  0  0  0  0  0  0  0
    0.4045    0.0863    4.3087 H   0  0  0  0  0  0  0  0  0  0  0  0
    1.5841   -1.1136    3.7362 H   0  0  0  0  0  0  0  0  0  0  0  0
  1  2  1  0  0  0  0
  2  3  1  0  0  0  0
  2  4  1  0  0  0  0
  2  5  1  0  0  0  0
  5  6  2  0  0  0  0
  5  7  1  0  0  0  0
  7  8  1  0  0  0  0
  7  9  1  0  0  0  0
  9 10  1  0  0  0  0
  9 11  1  0  0  0  0
  9 24  1  0  0  0  0
 11 12  1  0  0  0  0
 11 13  1  0  0  0  0
 11 17  1  0  0  0  0
 13 14  1  0  0  0  0
 13 15  1  0  0  0  0
 13 16  1  0  0  0  0
 17 18  1  0  0  0  0
 17 19  1  0  0  0  0
 17 20  1  0  0  0  0
 20 21  1  0  0  0  0
 20 22  1  0  0  0  0
 20 23  1  0  0  0  0
 24 25  2  0  0  0  0
 24 26  1  0  0  0  0
 26 27  1  0  0  0  0
 26 28  1  0  0  0  0
 28 29  1  0  0  0  0
 28 30  1  0  0  0  0
 28 31  1  0  0  0  0
M  END
$$$$

  -OEChem-03222214053D

 31 30  0     1  0  0  0  0  0999 V2000
   -2.4503   -4.4150    0.2005 H   0  0  0  0  0  0  0  0  0  0  0  0
   -2.5306   -3.3622   -0.0854 C   0  0  0  0  0  0  0  0  0  0  0  0
   -3.2520   -2.8735    0.5738 H   0  0  0  0  0  0  0  0  0  0  0  0
   -2.8893   -3.3048   -1.1159 H   0  0  0  0  0  0  0  0  0  0  0  0
   -1.1775   -2.6858    0.0310 C   0  0  0  0  0  0  0  0  0  0  0  0
   -0.2081   -3.3271    0.3937 O   0  0  0  0  0  0  0  0  0  0  0  0
   -1.0560   -1.3427   -0.2664 N   0  0  0  0  0  0  0  0  0  0  0  0
   -1.8869   -0.8720   -0.6105 H   0  0  0  0  0  0  0  0  0  0  0  0
    0.2215   -0.6007   -0.2954 C   0  0  1  0  0  0  0  0  0  0  0  0
    0.8605   -1.2455   -0.9107 H   0  0  0  0  0  0  0  0  0  0  0  0
    0.1780    0.7213   -1.1307 C   0  0  1  0  0  0  0  0  0  0  0  0
    1.1225    0.7461   -1.6862 H   0  0  0  0  0  0  0  0  0  0  0  0
   -0.9429    0.6961   -2.1881 C   0  0  0  0  0  0  0  0  0  0  0  0
   -1.9286    0.7728   -1.7193 H   0  0  0  0  0  0  0  0  0  0  0  0
   -0.8292    1.5352   -2.8821 H   0  0  0  0  0  0  0  0  0  0  0  0
   -0.8983   -0.2289   -2.7720 H   0  0  0  0  0  0  0  0  0  0  0  0
    0.1246    2.0717   -0.3728 C   0  0  0  0  0  0  0  0  0  0  0  0
    1.1242    2.2918    0.0180 H   0  0  0  0  0  0  0  0  0  0  0  0
   -0.1143    2.8674   -1.0863 H   0  0  0  0  0  0  0  0  0  0  0  0
   -0.8640    2.1507    0.7957 C   0  0  0  0  0  0  0  0  0  0  0  0
   -1.3315    3.1398    0.8143 H   0  0  0  0  0  0  0  0  0  0  0  0
   -0.3497    2.0188    1.7496 H   0  0  0  0  0  0  0  0  0  0  0  0
   -1.6544    1.4009    0.7008 H   0  0  0  0  0  0  0  0  0  0  0  0
    1.0161   -0.5715    1.0322 C   0  0  0  0  0  0  0  0  0  0  0  0
    2.2392   -0.5312    0.9957 O   0  0  0  0  0  0  0  0  0  0  0  0
    0.3870   -0.3260    2.2386 N   0  0  0  0  0  0  0  0  0  0  0  0
   -0.6223   -0.4257    2.2466 H   0  0  0  0  0  0  0  0  0  0  0  0
    1.0988   -0.2582    3.5085 C   0  0  0  0  0  0  0  0  0  0  0  0
    1.8535    0.5350    3.4833 H   0  0  0  0  0  0  0  0  0  0  0  0
    0.4003   -0.0424    4.3225 H   0  0  0  0  0  0  0  0  0  0  0  0
    1.5957   -1.2111    3.7193 H   0  0  0  0  0  0  0  0  0  0  0  0
  1  2  1  0  0  0  0
  2  3  1  0  0  0  0
  2  4  1  0  0  0  0
  2  5  1  0  0  0  0
  5  6  2  0  0  0  0
  5  7  1  0  0  0  0
  7  8  1  0  0  0  0
  7  9  1  0  0  0  0
  9 10  1  0  0  0  0
  9 11  1  0  0  0  0
  9 24  1  0  0  0  0
 11 12  1  0  0  0  0
 11 13  1  0  0  0  0
 11 17  1  0  0  0  0
 13 14  1  0  0  0  0
 13 15  1  0  0  0  0
 13 16  1  0  0  0  0
 17 18  1  0  0  0  0
 17 19  1  0  0  0  0
 17 20  1  0  0  0  0
 20 21  1  0  0  0  0
 20 22  1  0  0  0  0
 20 23  1  0  0  0  0
 24 25  2  0  0  0  0
 24 26  1  0  0  0  0
 26 27  1  0  0  0  0
 26 28  1  0  0  0  0
 28 29  1  0  0  0  0
 28 30  1  0  0  0  0
 28 31  1  0  0  0  0
M  END
$$$$

  -OEChem-03222214053D

 31 30  0     1  0  0  0  0  0999 V2000
   -2.7570   -4.2555    0.1395 H   0  0  0  0  0  0  0  0  0  0  0  0
   -2.7535   -3.1932   -0.1213 C   0  0  0  0  0  0  0  0  0  0  0  0
   -3.4388   -2.6655    0.5462 H   0  0  0  0  0  0  0  0  0  0  0  0
   -3.1008   -3.0839   -1.1514 H   0  0  0  0  0  0  0  0  0  0  0  0
   -1.3529   -2.6266    0.0171 C   0  0  0  0  0  0  0  0  0  0  0  0
   -0.4398   -3.3469    0.3775 O   0  0  0  0  0  0  0  0  0  0  0  0
   -1.1249   -1.2921   -0.2552 N   0  0  0  0  0  0  0  0  0  0  0  0
   -1.9150   -0.7502   -0.5903 H   0  0  0  0  0  0  0  0  0  0  0  0
    0.2035   -0.6442   -0.2443 C   0  0  1  0  0  0  0  0  0  0  0  0
    0.8055   -1.3454   -0.8351 H   0  0  0  0  0  0  0  0  0  0  0  0
    0.3004    0.6560   -1.1142 C   0  0  1  0  0  0  0  0  0  0  0  0
    1.2669    0.5843   -1.6262 H   0  0  0  0  0  0  0  0  0  0  0  0
   -0.7683    0.6622   -2.2248 C   0  0  0  0  0  0  0  0  0  0  0  0
   -1.7642    0.8402   -1.8075 H   0  0  0  0  0  0  0  0  0  0  0  0
   -0.5561    1.4513   -2.9533 H   0  0  0  0  0  0  0  0  0  0  0  0
   -0.7721   -0.2924   -2.7609 H   0  0  0  0  0  0  0  0  0  0  0  0
    0.3182    2.0551   -0.4369 C   0  0  0  0  0  0  0  0  0  0  0  0
    1.3622    2.3285   -0.2488 H   0  0  0  0  0  0  0  0  0  0  0  0
   -0.0742    2.7977   -1.1395 H   0  0  0  0  0  0  0  0  0  0  0  0
   -0.4324    2.2097    0.8854 C   0  0  0  0  0  0  0  0  0  0  0  0
   -0.7772    3.2428    0.9924 H   0  0  0  0  0  0  0  0  0  0  0  0
    0.2274    2.0020    1.7298 H   0  0  0  0  0  0  0  0  0  0  0  0
   -1.3057    1.5520    0.9225 H   0  0  0  0  0  0  0  0  0  0  0  0
    0.9638   -0.6946    1.1024 C   0  0  0  0  0  0  0  0  0  0  0  0
    2.1872   -0.7385    1.0961 O   0  0  0  0  0  0  0  0  0  0  0  0
    0.3236   -0.4239    2.2983 N   0  0  0  0  0  0  0  0  0  0  0  0
   -0.6900   -0.4514    2.2815 H   0  0  0  0  0  0  0  0  0  0  0  0
    1.0077   -0.4364    3.5849 C   0  0  0  0  0  0  0  0  0  0  0  0
    1.8059    0.3131    3.6011 H   0  0  0  0  0  0  0  0  0  0  0  0
    0.3038   -0.2072    4.3905 H   0  0  0  0  0  0  0  0  0  0  0  0
    1.4454   -1.4220    3.7750 H   0  0  0  0  0  0  0  0  0  0  0  0
  1  2  1  0  0  0  0
  2  3  1  0  0  0  0
  2  4  1  0  0  0  0
  2  5  1  0  0  0  0
  5  6  2  0  0  0  0
  5  7  1  0  0  0  0
  7  8  1  0  0  0  0
  7  9  1  0  0  0  0
  9 10  1  0  0  0  0
  9 11  1  0  0  0  0
  9 24  1  0  0  0  0
 11 12  1  0  0  0  0
 11 13  1  0  0  0  0
 11 17  1  0  0  0  0
 13 14  1  0  0  0  0
 13 15  1  0  0  0  0
 13 16  1  0  0  0  0
 17 18  1  0  0  0  0
 17 19  1  0  0  0  0
 17 20  1  0  0  0  0
 20 21  1  0  0  0  0
 20 22  1  0  0  0  0
 20 23  1  0  0  0  0
 24 25  2  0  0  0  0
 24 26  1  0  0  0  0
 26 27  1  0  0  0  0
 26 28  1  0  0  0  0
 28 29  1  0  0  0  0
 28 30  1  0  0  0  0
 28 31  1  0  0  0  0
M  END
$$$$

  -OEChem-03222214053D

 31 30  0     1  0  0  0  0  0999 V2000
   -2.6178   -4.3354    0.1527 H   0  0  0  0  0  0  0  0  0  0  0  0
   -2.6566   -3.2710   -0.0964 C   0  0  0  0  0  0  0  0  0  0  0  0
   -3.3470   -2.7745    0.5895 H   0  0  0  0  0  0  0  0  0  0  0  0
   -3.0266   -3.1632   -1.1188 H   0  0  0  0  0  0  0  0  0  0  0  0
   -1.2741   -2.6576    0.0215 C   0  0  0  0  0  0  0  0  0  0  0  0
   -0.3272   -3.3531    0.3410 O   0  0  0  0  0  0  0  0  0  0  0  0
   -1.1007   -1.3103   -0.2270 N   0  0  0  0  0  0  0  0  0  0  0  0
   -1.9185   -0.7909   -0.5300 H   0  0  0  0  0  0  0  0  0  0  0  0
    0.2044   -0.6169   -0.2494 C   0  0  1  0  0  0  0  0  0  0  0  0
    0.8100   -1.2884   -0.8706 H   0  0  0  0  0  0  0  0  0  0  0  0
    0.2147    0.6925   -1.1158 C   0  0  1  0  0  0  0  0  0  0  0  0
    1.1773    0.6556   -1.6393 H   0  0  0  0  0  0  0  0  0  0  0  0
   -0.8595    0.6377   -2.2206 C   0  0  0  0  0  0  0  0  0  0  0  0
   -1.8607    0.7675   -1.7985 H   0  0  0  0  0  0  0  0  0  0  0  0
   -0.6907    1.4323   -2.9545 H   0  0  0  0  0  0  0  0  0  0  0  0
   -0.8186   -0.3192   -2.7510 H   0  0  0  0  0  0  0  0  0  0  0  0
    0.1971    2.1108   -0.4671 C   0  0  0  0  0  0  0  0  0  0  0  0
    1.1946    2.5481   -0.5838 H   0  0  0  0  0  0  0  0  0  0  0  0
   -0.4881    2.7514   -1.0317 H   0  0  0  0  0  0  0  0  0  0  0  0
   -0.1801    2.2408    1.0049 C   0  0  0  0  0  0  0  0  0  0  0  0
    0.6679    1.9804    1.6424 H   0  0  0  0  0  0  0  0  0  0  0  0
   -0.4453    3.2790    1.2267 H   0  0  0  0  0  0  0  0  0  0  0  0
   -1.0414    1.6106    1.2440 H   0  0  0  0  0  0  0  0  0  0  0  0
    1.0108   -0.6753    1.0705 C   0  0  0  0  0  0  0  0  0  0  0  0
    2.2342   -0.6787    1.0245 O   0  0  0  0  0  0  0  0  0  0  0  0
    0.3999   -0.4557    2.2929 N   0  0  0  0  0  0  0  0  0  0  0  0
   -0.6120   -0.5241    2.3062 H   0  0  0  0  0  0  0  0  0  0  0  0
    1.1242   -0.4809    3.5576 C   0  0  0  0  0  0  0  0  0  0  0  0
    1.9097    0.2820    3.5654 H   0  0  0  0  0  0  0  0  0  0  0  0
    0.4414   -0.2798    4.3883 H   0  0  0  0  0  0  0  0  0  0  0  0
    1.5847   -1.4620    3.7147 H   0  0  0  0  0  0  0  0  0  0  0  0
  1  2  1  0  0  0  0
  2  3  1  0  0  0  0
  2  4  1  0  0  0  0
  2  5  1  0  0  0  0
  5  6  2  0  0  0  0
  5  7  1  0  0  0  0
  7  8  1  0  0  0  0
  7  9  1  0  0  0  0
  9 10  1  0  0  0  0
  9 11  1  0  0  0  0
  9 24  1  0  0  0  0
 11 12  1  0  0  0  0
 11 13  1  0  0  0  0
 11 17  1  0  0  0  0
 13 14  1  0  0  0  0
 13 15  1  0  0  0  0
 13 16  1  0  0  0  0
 17 18  1  0  0  0  0
 17 19  1  0  0  0  0
 17 20  1  0  0  0  0
 20 21  1  0  0  0  0
 20 22  1  0  0  0  0
 20 23  1  0  0  0  0
 24 25  2  0  0  0  0
 24 26  1  0  0  0  0
 26 27  1  0  0  0  0
 26 28  1  0  0  0  0
 28 29  1  0  0  0  0
 28 30  1  0  0  0  0
 28 31  1  0  0  0  0
M  END
$$$$

  -OEChem-03222214053D

 31 30  0     1  0  0  0  0  0999 V2000
   -2.4784   -4.4107    0.2100 H   0  0  0  0  0  0  0  0  0  0  0  0
   -2.5526   -3.3514   -0.0524 C   0  0  0  0  0  0  0  0  0  0  0  0
   -3.2504   -2.8674    0.6349 H   0  0  0  0  0  0  0  0  0  0  0  0
   -2.9372   -3.2683   -1.0718 H   0  0  0  0  0  0  0  0  0  0  0  0
   -1.1886   -2.6941    0.0424 C   0  0  0  0  0  0  0  0  0  0  0  0
   -0.2159   -3.3587    0.3499 O   0  0  0  0  0  0  0  0  0  0  0  0
   -1.0610   -1.3425   -0.2121 N   0  0  0  0  0  0  0  0  0  0  0  0
   -1.8987   -0.8499   -0.5057 H   0  0  0  0  0  0  0  0  0  0  0  0
    0.2213   -0.6087   -0.2494 C   0  0  1  0  0  0  0  0  0  0  0  0
    0.8436   -1.2598   -0.8758 H   0  0  0  0  0  0  0  0  0  0  0  0
    0.1632    0.6977   -1.1211 C   0  0  1  0  0  0  0  0  0  0  0  0
    1.1332    0.6913   -1.6320 H   0  0  0  0  0  0  0  0  0  0  0  0
   -0.8913    0.5880   -2.2396 C   0  0  0  0  0  0  0  0  0  0  0  0
   -1.9041    0.6598   -1.8314 H   0  0  0  0  0  0  0  0  0  0  0  0
   -0.7565    1.3951   -2.9670 H   0  0  0  0  0  0  0  0  0  0  0  0
   -0.7903   -0.3634   -2.7719 H   0  0  0  0  0  0  0  0  0  0  0  0
    0.0982    2.1320   -0.5068 C   0  0  0  0  0  0  0  0  0  0  0  0
    0.9474    2.7032   -0.8972 H   0  0  0  0  0  0  0  0  0  0  0  0
   -0.8052    2.6287   -0.8757 H   0  0  0  0  0  0  0  0  0  0  0  0
    0.0886    2.3073    1.0069 C   0  0  0  0  0  0  0  0  0  0  0  0
    1.0447    2.0020    1.4400 H   0  0  0  0  0  0  0  0  0  0  0  0
   -0.0608    3.3631    1.2526 H   0  0  0  0  0  0  0  0  0  0  0  0
   -0.7304    1.7388    1.4552 H   0  0  0  0  0  0  0  0  0  0  0  0
    1.0378   -0.6405    1.0649 C   0  0  0  0  0  0  0  0  0  0  0  0
    2.2609   -0.6217    1.0115 O   0  0  0  0  0  0  0  0  0  0  0  0
    0.4278   -0.4365    2.2905 N   0  0  0  0  0  0  0  0  0  0  0  0
   -0.5824   -0.5256    2.3088 H   0  0  0  0  0  0  0  0  0  0  0  0
    1.1579   -0.4453    3.5517 C   0  0  0  0  0  0  0  0  0  0  0  0
    1.9386    0.3227    3.5492 H   0  0  0  0  0  0  0  0  0  0  0  0
    0.4776   -0.2407    4.3838 H   0  0  0  0  0  0  0  0  0  0  0  0
    1.6248   -1.4222    3.7155 H   0  0  0  0  0  0  0  0  0  0  0  0
  1  2  1  0  0  0  0
  2  3  1  0  0  0  0
  2  4  1  0  0  0  0
  2  5  1  0  0  0  0
  5  6  2  0  0  0  0
  5  7  1  0  0  0  0
  7  8  1  0  0  0  0
  7  9  1  0  0  0  0
  9 10  1  0  0  0  0
  9 11  1  0  0  0  0
  9 24  1  0  0  0  0
 11 12  1  0  0  0  0
 11 13  1  0  0  0  0
 11 17  1  0  0  0  0
 13 14  1  0  0  0  0
 13 15  1  0  0  0  0
 13 16  1  0  0  0  0
 17 18  1  0  0  0  0
 17 19  1  0  0  0  0
 17 20  1  0  0  0  0
 20 21  1  0  0  0  0
 20 22  1  0  0  0  0
 20 23  1  0  0  0  0
 24 25  2  0  0  0  0
 24 26  1  0  0  0  0
 26 27  1  0  0  0  0
 26 28  1  0  0  0  0
 28 29  1  0  0  0  0
 28 30  1  0  0  0  0
 28 31  1  0  0  0  0
M  END
$$$$

  -OEChem-03222214053D

 31 30  0     1  0  0  0  0  0999 V2000
   -2.6278   -4.3195    0.3074 H   0  0  0  0  0  0  0  0  0  0  0  0
   -2.6553   -3.2686    0.0051 C   0  0  0  0  0  0  0  0  0  0  0  0
   -3.3299   -2.7286    0.6739 H   0  0  0  0  0  0  0  0  0  0  0  0
   -3.0374   -3.2067   -1.0166 H   0  0  0  0  0  0  0  0  0  0  0  0
   -1.2629   -2.6700    0.0747 C   0  0  0  0  0  0  0  0  0  0  0  0
   -0.3174   -3.3693    0.3899 O   0  0  0  0  0  0  0  0  0  0  0  0
   -1.0797   -1.3310   -0.2097 N   0  0  0  0  0  0  0  0  0  0  0  0
   -1.8981   -0.8089   -0.5066 H   0  0  0  0  0  0  0  0  0  0  0  0
    0.2292   -0.6457   -0.2470 C   0  0  1  0  0  0  0  0  0  0  0  0
    0.8381   -1.3256   -0.8558 H   0  0  0  0  0  0  0  0  0  0  0  0
    0.2062    0.6490   -1.1377 C   0  0  1  0  0  0  0  0  0  0  0  0
    1.1855    0.6069   -1.6289 H   0  0  0  0  0  0  0  0  0  0  0  0
   -0.8301    0.5548   -2.2732 C   0  0  0  0  0  0  0  0  0  0  0  0
   -1.8489    0.6510   -1.8857 H   0  0  0  0  0  0  0  0  0  0  0  0
   -0.6641    1.3546   -3.0020 H   0  0  0  0  0  0  0  0  0  0  0  0
   -0.7400   -0.4025   -2.7969 H   0  0  0  0  0  0  0  0  0  0  0  0
    0.1806    2.0975   -0.5591 C   0  0  0  0  0  0  0  0  0  0  0  0
    0.8615    2.7060   -1.1642 H   0  0  0  0  0  0  0  0  0  0  0  0
   -0.8236    2.5080   -0.7076 H   0  0  0  0  0  0  0  0  0  0  0  0
    0.5194    2.3474    0.9063 C   0  0  0  0  0  0  0  0  0  0  0  0
    1.5078    1.9516    1.1553 H   0  0  0  0  0  0  0  0  0  0  0  0
   -0.2399    1.9081    1.5566 H   0  0  0  0  0  0  0  0  0  0  0  0
    0.5348    3.4243    1.0987 H   0  0  0  0  0  0  0  0  0  0  0  0
    1.0229   -0.6780    1.0806 C   0  0  0  0  0  0  0  0  0  0  0  0
    2.2462   -0.7189    1.0488 O   0  0  0  0  0  0  0  0  0  0  0  0
    0.4013   -0.4226    2.2902 N   0  0  0  0  0  0  0  0  0  0  0  0
   -0.6120   -0.4635    2.2932 H   0  0  0  0  0  0  0  0  0  0  0  0
    1.1118   -0.4171    3.5626 C   0  0  0  0  0  0  0  0  0  0  0  0
    1.8884    0.3550    3.5646 H   0  0  0  0  0  0  0  0  0  0  0  0
    0.4183   -0.2097    4.3829 H   0  0  0  0  0  0  0  0  0  0  0  0
    1.5816   -1.3897    3.7423 H   0  0  0  0  0  0  0  0  0  0  0  0
  1  2  1  0  0  0  0
  2  3  1  0  0  0  0
  2  4  1  0  0  0  0
  2  5  1  0  0  0  0
  5  6  2  0  0  0  0
  5  7  1  0  0  0  0
  7  8  1  0  0  0  0
  7  9  1  0  0  0  0
  9 10  1  0  0  0  0
  9 11  1  0  0  0  0
  9 24  1  0  0  0  0
 11 12  1  0  0  0  0
 11 13  1  0  0  0  0
 11 17  1  0  0  0  0
 13 14  1  0  0  0  0
 13 15  1  0  0  0  0
 13 16  1  0  0  0  0
 17 18  1  0  0  0  0
 17 19  1  0  0  0  0
 17 20  1  0  0  0  0
 20 21  1  0  0  0  0
 20 22  1  0  0  0  0
 20 23  1  0  0  0  0
 24 25  2  0  0  0  0
 24 26  1  0  0  0  0
 26 27  1  0  0  0  0
 26 28  1  0  0  0  0
 28 29  1  0  0  0  0
 28 30  1  0  0  0  0
 28 31  1  0  0  0  0
M  END
$$$$

  -OEChem-03222214053D

 31 30  0     1  0  0  0  0  0999 V2000
   -2.7637   -4.2089    0.3125 H   0  0  0  0  0  0  0  0  0  0  0  0
   -2.7469   -3.1611   -0.0010 C   0  0  0  0  0  0  0  0  0  0  0  0
   -3.4033   -2.5875    0.6577 H   0  0  0  0  0  0  0  0  0  0  0  0
   -3.1198   -3.0951   -1.0259 H   0  0  0  0  0  0  0  0  0  0  0  0
   -1.3324   -2.6174    0.0720 C   0  0  0  0  0  0  0  0  0  0  0  0
   -0.4187   -3.3492    0.4065 O   0  0  0  0  0  0  0  0  0  0  0  0
   -1.0925   -1.2925   -0.2362 N   0  0  0  0  0  0  0  0  0  0  0  0
   -1.8861   -0.7436   -0.5510 H   0  0  0  0  0  0  0  0  0  0  0  0
    0.2438   -0.6611   -0.2701 C   0  0  1  0  0  0  0  0  0  0  0  0
    0.8389   -1.3595   -0.8711 H   0  0  0  0  0  0  0  0  0  0  0  0
    0.2595    0.6429   -1.1485 C   0  0  1  0  0  0  0  0  0  0  0  0
    1.2297    0.5718   -1.6544 H   0  0  0  0  0  0  0  0  0  0  0  0
   -0.7997    0.6091   -2.2662 C   0  0  0  0  0  0  0  0  0  0  0  0
   -1.8059    0.7445   -1.8581 H   0  0  0  0  0  0  0  0  0  0  0  0
   -0.6135    1.4107   -2.9882 H   0  0  0  0  0  0  0  0  0  0  0  0
   -0.7607   -0.3440   -2.8038 H   0  0  0  0  0  0  0  0  0  0  0  0
    0.2906    2.0813   -0.5529 C   0  0  0  0  0  0  0  0  0  0  0  0
    0.7736    2.7284   -1.2931 H   0  0  0  0  0  0  0  0  0  0  0  0
   -0.7410    2.4329   -0.4480 H   0  0  0  0  0  0  0  0  0  0  0  0
    0.9725    2.3371    0.7885 C   0  0  0  0  0  0  0  0  0  0  0  0
    1.9516    1.8512    0.8300 H   0  0  0  0  0  0  0  0  0  0  0  0
    0.3482    1.9963    1.6150 H   0  0  0  0  0  0  0  0  0  0  0  0
    1.1259    3.4125    0.9202 H   0  0  0  0  0  0  0  0  0  0  0  0
    0.9986   -0.7111    1.0788 C   0  0  0  0  0  0  0  0  0  0  0  0
    2.2169   -0.8331    1.0869 O   0  0  0  0  0  0  0  0  0  0  0  0
    0.3514   -0.4106    2.2644 N   0  0  0  0  0  0  0  0  0  0  0  0
   -0.6620   -0.3939    2.2314 H   0  0  0  0  0  0  0  0  0  0  0  0
    1.0139   -0.4577    3.5615 C   0  0  0  0  0  0  0  0  0  0  0  0
    1.8637    0.2327    3.5837 H   0  0  0  0  0  0  0  0  0  0  0  0
    0.3162   -0.1700    4.3534 H   0  0  0  0  0  0  0  0  0  0  0  0
    1.3768   -1.4699    3.7683 H   0  0  0  0  0  0  0  0  0  0  0  0
  1  2  1  0  0  0  0
  2  3  1  0  0  0  0
  2  4  1  0  0  0  0
  2  5  1  0  0  0  0
  5  6  2  0  0  0  0
  5  7  1  0  0  0  0
  7  8  1  0  0  0  0
  7  9  1  0  0  0  0
  9 10  1  0  0  0  0
  9 11  1  0  0  0  0
  9 24  1  0  0  0  0
 11 12  1  0  0  0  0
 11 13  1  0  0  0  0
 11 17  1  0  0  0  0
 13 14  1  0  0  0  0
 13 15  1  0  0  0  0
 13 16  1  0  0  0  0
 17 18  1  0  0  0  0
 17 19  1  0  0  0  0
 17 20  1  0  0  0  0
 20 21  1  0  0  0  0
 20 22  1  0  0  0  0
 20 23  1  0  0  0  0
 24 25  2  0  0  0  0
 24 26  1  0  0  0  0
 26 27  1  0  0  0  0
 26 28  1  0  0  0  0
 28 29  1  0  0  0  0
 28 30  1  0  0  0  0
 28 31  1  0  0  0  0
M  END
$$$$

  -OEChem-03222214053D

 31 30  0     1  0  0  0  0  0999 V2000
   -2.6292   -4.2657    0.2901 H   0  0  0  0  0  0  0  0  0  0  0  0
   -2.6424   -3.2166   -0.0196 C   0  0  0  0  0  0  0  0  0  0  0  0
   -3.3099   -2.6628    0.6446 H   0  0  0  0  0  0  0  0  0  0  0  0
   -3.0233   -3.1575   -1.0420 H   0  0  0  0  0  0  0  0  0  0  0  0
   -1.2424   -2.6356    0.0468 C   0  0  0  0  0  0  0  0  0  0  0  0
   -0.3102   -3.3410    0.3859 O   0  0  0  0  0  0  0  0  0  0  0  0
   -1.0373   -1.3091   -0.2799 N   0  0  0  0  0  0  0  0  0  0  0  0
   -1.8453   -0.7873   -0.6040 H   0  0  0  0  0  0  0  0  0  0  0  0
    0.2821   -0.6420   -0.3253 C   0  0  1  0  0  0  0  0  0  0  0  0
    0.9026   -1.3047   -0.9404 H   0  0  0  0  0  0  0  0  0  0  0  0
    0.2271    0.6926   -1.1552 C   0  0  1  0  0  0  0  0  0  0  0  0
    1.1706    0.6766   -1.7127 H   0  0  0  0  0  0  0  0  0  0  0  0
   -0.8907    0.6834   -2.2156 C   0  0  0  0  0  0  0  0  0  0  0  0
   -1.8753    0.7876   -1.7498 H   0  0  0  0  0  0  0  0  0  0  0  0
   -0.7560    1.5140   -2.9159 H   0  0  0  0  0  0  0  0  0  0  0  0
   -0.8663   -0.2474   -2.7917 H   0  0  0  0  0  0  0  0  0  0  0  0
    0.2353    2.0931   -0.4799 C   0  0  0  0  0  0  0  0  0  0  0  0
    0.4320    2.8316   -1.2645 H   0  0  0  0  0  0  0  0  0  0  0  0
   -0.7653    2.2991   -0.0865 H   0  0  0  0  0  0  0  0  0  0  0  0
    1.2346    2.3584    0.6476 C   0  0  0  0  0  0  0  0  0  0  0  0
    2.2008    1.8940    0.4284 H   0  0  0  0  0  0  0  0  0  0  0  0
    1.3921    3.4365    0.7486 H   0  0  0  0  0  0  0  0  0  0  0  0
    0.8625    1.9991    1.6066 H   0  0  0  0  0  0  0  0  0  0  0  0
    1.0183   -0.6670    1.0335 C   0  0  0  0  0  0  0  0  0  0  0  0
    2.2371   -0.7793    1.0658 O   0  0  0  0  0  0  0  0  0  0  0  0
    0.3396   -0.3714    2.2031 N   0  0  0  0  0  0  0  0  0  0  0  0
   -0.6728   -0.3686    2.1463 H   0  0  0  0  0  0  0  0  0  0  0  0
    0.9728   -0.4121    3.5152 C   0  0  0  0  0  0  0  0  0  0  0  0
    1.8203    0.2803    3.5546 H   0  0  0  0  0  0  0  0  0  0  0  0
    0.2569   -0.1228    4.2903 H   0  0  0  0  0  0  0  0  0  0  0  0
    1.3339   -1.4229    3.7330 H   0  0  0  0  0  0  0  0  0  0  0  0
  1  2  1  0  0  0  0
  2  3  1  0  0  0  0
  2  4  1  0  0  0  0
  2  5  1  0  0  0  0
  5  6  2  0  0  0  0
  5  7  1  0  0  0  0
  7  8  1  0  0  0  0
  7  9  1  0  0  0  0
  9 10  1  0  0  0  0
  9 11  1  0  0  0  0
  9 24  1  0  0  0  0
 11 12  1  0  0  0  0
 11 13  1  0  0  0  0
 11 17  1  0  0  0  0
 13 14  1  0  0  0  0
 13 15  1  0  0  0  0
 13 16  1  0  0  0  0
 17 18  1  0  0  0  0
 17 19  1  0  0  0  0
 17 20  1  0  0  0  0
 20 21  1  0  0  0  0
 20 22  1  0  0  0  0
 20 23  1  0  0  0  0
 24 25  2  0  0  0  0
 24 26  1  0  0  0  0
 26 27  1  0  0  0  0
 26 28  1  0  0  0  0
 28 29  1  0  0  0  0
 28 30  1  0  0  0  0
 28 31  1  0  0  0  0
M  END
$$$$

  -OEChem-03222214053D

 31 30  0     1  0  0  0  0  0999 V2000
   -2.5613   -4.2753    0.3463 H   0  0  0  0  0  0  0  0  0  0  0  0
   -2.5865   -3.2369    0.0037 C   0  0  0  0  0  0  0  0  0  0  0  0
   -3.2617   -2.6704    0.6493 H   0  0  0  0  0  0  0  0  0  0  0  0
   -2.9658   -3.2144   -1.0207 H   0  0  0  0  0  0  0  0  0  0  0  0
   -1.1937   -2.6376    0.0545 C   0  0  0  0  0  0  0  0  0  0  0  0
   -0.2547   -3.3198    0.4215 O   0  0  0  0  0  0  0  0  0  0  0  0
   -1.0030   -1.3209   -0.3173 N   0  0  0  0  0  0  0  0  0  0  0  0
   -1.8139   -0.8227   -0.6697 H   0  0  0  0  0  0  0  0  0  0  0  0
    0.3086   -0.6388   -0.3713 C   0  0  1  0  0  0  0  0  0  0  0  0
    0.9490   -1.2895   -0.9789 H   0  0  0  0  0  0  0  0  0  0  0  0
    0.2218    0.7056   -1.1795 C   0  0  1  0  0  0  0  0  0  0  0  0
    1.1394    0.7196   -1.7784 H   0  0  0  0  0  0  0  0  0  0  0  0
   -0.9428    0.7191   -2.1891 C   0  0  0  0  0  0  0  0  0  0  0  0
   -1.9053    0.8156   -1.6773 H   0  0  0  0  0  0  0  0  0  0  0  0
   -0.8380    1.5634   -2.8779 H   0  0  0  0  0  0  0  0  0  0  0  0
   -0.9460   -0.1990   -2.7854 H   0  0  0  0  0  0  0  0  0  0  0  0
    0.2271    2.0650   -0.4288 C   0  0  0  0  0  0  0  0  0  0  0  0
    0.1530    2.8597   -1.1787 H   0  0  0  0  0  0  0  0  0  0  0  0
   -0.6632    2.1319    0.2046 H   0  0  0  0  0  0  0  0  0  0  0  0
    1.4596    2.3784    0.4285 C   0  0  0  0  0  0  0  0  0  0  0  0
    2.3697    2.0035   -0.0501 H   0  0  0  0  0  0  0  0  0  0  0  0
    1.5564    3.4619    0.5460 H   0  0  0  0  0  0  0  0  0  0  0  0
    1.3815    1.9539    1.4295 H   0  0  0  0  0  0  0  0  0  0  0  0
    1.0185   -0.6119    1.0003 C   0  0  0  0  0  0  0  0  0  0  0  0
    2.2363   -0.7205    1.0629 O   0  0  0  0  0  0  0  0  0  0  0  0
    0.3088   -0.2841    2.1430 N   0  0  0  0  0  0  0  0  0  0  0  0
   -0.7016   -0.2927    2.0596 H   0  0  0  0  0  0  0  0  0  0  0  0
    0.9054   -0.2994    3.4725 C   0  0  0  0  0  0  0  0  0  0  0  0
    1.7598    0.3841    3.5185 H   0  0  0  0  0  0  0  0  0  0  0  0
    0.1719    0.0169    4.2201 H   0  0  0  0  0  0  0  0  0  0  0  0
    1.2478   -1.3085    3.7248 H   0  0  0  0  0  0  0  0  0  0  0  0
  1  2  1  0  0  0  0
  2  3  1  0  0  0  0
  2  4  1  0  0  0  0
  2  5  1  0  0  0  0
  5  6  2  0  0  0  0
  5  7  1  0  0  0  0
  7  8  1  0  0  0  0
  7  9  1  0  0  0  0
  9 10  1  0  0  0  0
  9 11  1  0  0  0  0
  9 24  1  0  0  0  0
 11 12  1  0  0  0  0
 11 13  1  0  0  0  0
 11 17  1  0  0  0  0
 13 14  1  0  0  0  0
 13 15  1  0  0  0  0
 13 16  1  0  0  0  0
 17 18  1  0  0  0  0
 17 19  1  0  0  0  0
 17 20  1  0  0  0  0
 20 21  1  0  0  0  0
 20 22  1  0  0  0  0
 20 23  1  0  0  0  0
 24 25  2  0  0  0  0
 24 26  1  0  0  0  0
 26 27  1  0  0  0  0
 26 28  1  0  0  0  0
 28 29  1  0  0  0  0
 28 30  1  0  0  0  0
 28 31  1  0  0  0  0
M  END
$$$$

  -OEChem-03222214053D

 31 30  0     1  0  0  0  0  0999 V2000
   -2.5445   -4.2804    0.3469 H   0  0  0  0  0  0  0  0  0  0  0  0
   -2.5729   -3.2445   -0.0032 C   0  0  0  0  0  0  0  0  0  0  0  0
   -3.2594   -2.6779    0.6304 H   0  0  0  0  0  0  0  0  0  0  0  0
   -2.9408   -3.2321   -1.0320 H   0  0  0  0  0  0  0  0  0  0  0  0
   -1.1850   -2.6352    0.0589 C   0  0  0  0  0  0  0  0  0  0  0  0
   -0.2489   -3.3015    0.4605 O   0  0  0  0  0  0  0  0  0  0  0  0
   -0.9971   -1.3259   -0.3382 N   0  0  0  0  0  0  0  0  0  0  0  0
   -1.8052   -0.8416   -0.7158 H   0  0  0  0  0  0  0  0  0  0  0  0
    0.3110   -0.6374   -0.3862 C   0  0  1  0  0  0  0  0  0  0  0  0
    0.9623   -1.2869   -0.9828 H   0  0  0  0  0  0  0  0  0  0  0  0
    0.2169    0.7050   -1.1945 C   0  0  1  0  0  0  0  0  0  0  0  0
    1.1249    0.7345   -1.8071 H   0  0  0  0  0  0  0  0  0  0  0  0
   -0.9609    0.7267   -2.1892 C   0  0  0  0  0  0  0  0  0  0  0  0
   -1.9172    0.8186   -1.6649 H   0  0  0  0  0  0  0  0  0  0  0  0
   -0.8640    1.5771   -2.8716 H   0  0  0  0  0  0  0  0  0  0  0  0
   -0.9708   -0.1858   -2.7942 H   0  0  0  0  0  0  0  0  0  0  0  0
    0.2119    2.0315   -0.3883 C   0  0  0  0  0  0  0  0  0  0  0  0
   -0.1138    2.8376   -1.0539 H   0  0  0  0  0  0  0  0  0  0  0  0
   -0.5215    1.9684    0.4217 H   0  0  0  0  0  0  0  0  0  0  0  0
    1.5700    2.4606    0.1844 C   0  0  0  0  0  0  0  0  0  0  0  0
    2.3593    2.3406   -0.5640 H   0  0  0  0  0  0  0  0  0  0  0  0
    1.5276    3.5155    0.4713 H   0  0  0  0  0  0  0  0  0  0  0  0
    1.8417    1.8933    1.0751 H   0  0  0  0  0  0  0  0  0  0  0  0
    1.0156   -0.5664    0.9867 C   0  0  0  0  0  0  0  0  0  0  0  0
    2.2315   -0.6929    1.0575 O   0  0  0  0  0  0  0  0  0  0  0  0
    0.3051   -0.2123    2.1202 N   0  0  0  0  0  0  0  0  0  0  0  0
   -0.7054   -0.2204    2.0375 H   0  0  0  0  0  0  0  0  0  0  0  0
    0.9036   -0.1873    3.4486 C   0  0  0  0  0  0  0  0  0  0  0  0
    1.7415    0.5171    3.4783 H   0  0  0  0  0  0  0  0  0  0  0  0
    0.1643    0.1264    4.1915 H   0  0  0  0  0  0  0  0  0  0  0  0
    1.2703   -1.1828    3.7210 H   0  0  0  0  0  0  0  0  0  0  0  0
  1  2  1  0  0  0  0
  2  3  1  0  0  0  0
  2  4  1  0  0  0  0
  2  5  1  0  0  0  0
  5  6  2  0  0  0  0
  5  7  1  0  0  0  0
  7  8  1  0  0  0  0
  7  9  1  0  0  0  0
  9 10  1  0  0  0  0
  9 11  1  0  0  0  0
  9 24  1  0  0  0  0
 11 12  1  0  0  0  0
 11 13  1  0  0  0  0
 11 17  1  0  0  0  0
 13 14  1  0  0  0  0
 13 15  1  0  0  0  0
 13 16  1  0  0  0  0
 17 18  1  0  0  0  0
 17 19  1  0  0  0  0
 17 20  1  0  0  0  0
 20 21  1  0  0  0  0
 20 22  1  0  0  0  0
 20 23  1  0  0  0  0
 24 25  2  0  0  0  0
 24 26  1  0  0  0  0
 26 27  1  0  0  0  0
 26 28  1  0  0  0  0
 28 29  1  0  0  0  0
 28 30  1  0  0  0  0
 28 31  1  0  0  0  0
M  END
$$$$

  -OEChem-03222214053D

 31 30  0     1  0  0  0  0  0999 V2000
   -2.5217   -4.2976    0.3288 H   0  0  0  0  0  0  0  0  0  0  0  0
   -2.5627   -3.2616   -0.0199 C   0  0  0  0  0  0  0  0  0  0  0  0
   -3.2667   -2.7079    0.6058 H   0  0  0  0  0  0  0  0  0  0  0  0
   -2.9171   -3.2533   -1.0534 H   0  0  0  0  0  0  0  0  0  0  0  0
   -1.1858   -2.6295    0.0617 C   0  0  0  0  0  0  0  0  0  0  0  0
   -0.2457   -3.2789    0.4813 O   0  0  0  0  0  0  0  0  0  0  0  0
   -1.0103   -1.3195   -0.3388 N   0  0  0  0  0  0  0  0  0  0  0  0
   -1.8178   -0.8495   -0.7351 H   0  0  0  0  0  0  0  0  0  0  0  0
    0.2913   -0.6194   -0.3793 C   0  0  1  0  0  0  0  0  0  0  0  0
    0.9479   -1.2722   -0.9663 H   0  0  0  0  0  0  0  0  0  0  0  0
    0.2105    0.7141   -1.2007 C   0  0  1  0  0  0  0  0  0  0  0  0
    1.1226    0.7438   -1.8071 H   0  0  0  0  0  0  0  0  0  0  0  0
   -0.9597    0.7327   -2.2030 C   0  0  0  0  0  0  0  0  0  0  0  0
   -1.9199    0.8198   -1.6851 H   0  0  0  0  0  0  0  0  0  0  0  0
   -0.8603    1.5850   -2.8829 H   0  0  0  0  0  0  0  0  0  0  0  0
   -0.9612   -0.1794   -2.8086 H   0  0  0  0  0  0  0  0  0  0  0  0
    0.1922    2.0215   -0.3665 C   0  0  0  0  0  0  0  0  0  0  0  0
   -0.3563    2.7935   -0.9162 H   0  0  0  0  0  0  0  0  0  0  0  0
   -0.3443    1.8695    0.5737 H   0  0  0  0  0  0  0  0  0  0  0  0
    1.5913    2.5843   -0.0926 C   0  0  0  0  0  0  0  0  0  0  0  0
    2.1153    2.7812   -1.0330 H   0  0  0  0  0  0  0  0  0  0  0  0
    1.5111    3.5253    0.4599 H   0  0  0  0  0  0  0  0  0  0  0  0
    2.1936    1.8938    0.5011 H   0  0  0  0  0  0  0  0  0  0  0  0
    1.0016   -0.5278    0.9925 C   0  0  0  0  0  0  0  0  0  0  0  0
    2.2195   -0.6341    1.0579 O   0  0  0  0  0  0  0  0  0  0  0  0
    0.2958   -0.1726    2.1285 N   0  0  0  0  0  0  0  0  0  0  0  0
   -0.7152   -0.2015    2.0563 H   0  0  0  0  0  0  0  0  0  0  0  0
    0.9062   -0.1070    3.4497 C   0  0  0  0  0  0  0  0  0  0  0  0
    1.7281    0.6167    3.4563 H   0  0  0  0  0  0  0  0  0  0  0  0
    0.1667    0.2054    4.1930 H   0  0  0  0  0  0  0  0  0  0  0  0
    1.2974   -1.0883    3.7384 H   0  0  0  0  0  0  0  0  0  0  0  0
  1  2  1  0  0  0  0
  2  3  1  0  0  0  0
  2  4  1  0  0  0  0
  2  5  1  0  0  0  0
  5  6  2  0  0  0  0
  5  7  1  0  0  0  0
  7  8  1  0  0  0  0
  7  9  1  0  0  0  0
  9 10  1  0  0  0  0
  9 11  1  0  0  0  0
  9 24  1  0  0  0  0
 11 12  1  0  0  0  0
 11 13  1  0  0  0  0
 11 17  1  0  0  0  0
 13 14  1  0  0  0  0
 13 15  1  0  0  0  0
 13 16  1  0  0  0  0
 17 18  1  0  0  0  0
 17 19  1  0  0  0  0
 17 20  1  0  0  0  0
 20 21  1  0  0  0  0
 20 22  1  0  0  0  0
 20 23  1  0  0  0  0
 24 25  2  0  0  0  0
 24 26  1  0  0  0  0
 26 27  1  0  0  0  0
 26 28  1  0  0  0  0
 28 29  1  0  0  0  0
 28 30  1  0  0  0  0
 28 31  1  0  0  0  0
M  END
$$$$

  -OEChem-03222214053D

 31 30  0     1  0  0  0  0  0999 V2000
   -2.5115   -4.3224    0.2886 H   0  0  0  0  0  0  0  0  0  0  0  0
   -2.5657   -3.2829   -0.0477 C   0  0  0  0  0  0  0  0  0  0  0  0
   -3.2814   -2.7473    0.5805 H   0  0  0  0  0  0  0  0  0  0  0  0
   -2.9142   -3.2668   -1.0832 H   0  0  0  0  0  0  0  0  0  0  0  0
   -1.1991   -2.6316    0.0502 C   0  0  0  0  0  0  0  0  0  0  0  0
   -0.2521   -3.2709    0.4704 O   0  0  0  0  0  0  0  0  0  0  0  0
   -1.0405   -1.3128   -0.3279 N   0  0  0  0  0  0  0  0  0  0  0  0
   -1.8524   -0.8468   -0.7199 H   0  0  0  0  0  0  0  0  0  0  0  0
    0.2530   -0.5988   -0.3582 C   0  0  1  0  0  0  0  0  0  0  0  0
    0.9086   -1.2537   -0.9441 H   0  0  0  0  0  0  0  0  0  0  0  0
    0.1989    0.7273   -1.1879 C   0  0  1  0  0  0  0  0  0  0  0  0
    1.1256    0.7433   -1.7728 H   0  0  0  0  0  0  0  0  0  0  0  0
   -0.9463    0.7415   -2.2176 C   0  0  0  0  0  0  0  0  0  0  0  0
   -1.9195    0.8205   -1.7233 H   0  0  0  0  0  0  0  0  0  0  0  0
   -0.8349    1.5969   -2.8916 H   0  0  0  0  0  0  0  0  0  0  0  0
   -0.9280   -0.1696   -2.8243 H   0  0  0  0  0  0  0  0  0  0  0  0
    0.1674    2.0353   -0.3518 C   0  0  0  0  0  0  0  0  0  0  0  0
   -0.5721    2.7240   -0.7735 H   0  0  0  0  0  0  0  0  0  0  0  0
   -0.1460    1.8521    0.6770 H   0  0  0  0  0  0  0  0  0  0  0  0
    1.5181    2.7543   -0.3704 C   0  0  0  0  0  0  0  0  0  0  0  0
    1.7989    3.0205   -1.3940 H   0  0  0  0  0  0  0  0  0  0  0  0
    1.4633    3.6714    0.2237 H   0  0  0  0  0  0  0  0  0  0  0  0
    2.2992    2.1150    0.0528 H   0  0  0  0  0  0  0  0  0  0  0  0
    0.9832   -0.5120    1.0045 C   0  0  0  0  0  0  0  0  0  0  0  0
    2.2068   -0.5256    1.0361 O   0  0  0  0  0  0  0  0  0  0  0  0
    0.2917   -0.1802    2.1567 N   0  0  0  0  0  0  0  0  0  0  0  0
   -0.7183   -0.2619    2.1129 H   0  0  0  0  0  0  0  0  0  0  0  0
    0.9336   -0.0744    3.4607 C   0  0  0  0  0  0  0  0  0  0  0  0
    1.7214    0.6862    3.4402 H   0  0  0  0  0  0  0  0  0  0  0  0
    0.2009    0.2104    4.2216 H   0  0  0  0  0  0  0  0  0  0  0  0
    1.3776   -1.0339    3.7462 H   0  0  0  0  0  0  0  0  0  0  0  0
  1  2  1  0  0  0  0
  2  3  1  0  0  0  0
  2  4  1  0  0  0  0
  2  5  1  0  0  0  0
  5  6  2  0  0  0  0
  5  7  1  0  0  0  0
  7  8  1  0  0  0  0
  7  9  1  0  0  0  0
  9 10  1  0  0  0  0
  9 11  1  0  0  0  0
  9 24  1  0  0  0  0
 11 12  1  0  0  0  0
 11 13  1  0  0  0  0
 11 17  1  0  0  0  0
 13 14  1  0  0  0  0
 13 15  1  0  0  0  0
 13 16  1  0  0  0  0
 17 18  1  0  0  0  0
 17 19  1  0  0  0  0
 17 20  1  0  0  0  0
 20 21  1  0  0  0  0
 20 22  1  0  0  0  0
 20 23  1  0  0  0  0
 24 25  2  0  0  0  0
 24 26  1  0  0  0  0
 26 27  1  0  0  0  0
 26 28  1  0  0  0  0
 28 29  1  0  0  0  0
 28 30  1  0  0  0  0
 28 31  1  0  0  0  0
M  END
$$$$

  -OEChem-03222214053D

 31 30  0     1  0  0  0  0  0999 V2000
   -2.5133   -4.3213    0.2637 H   0  0  0  0  0  0  0  0  0  0  0  0
   -2.5675   -3.2781   -0.0606 C   0  0  0  0  0  0  0  0  0  0  0  0
   -3.2863   -2.7504    0.5707 H   0  0  0  0  0  0  0  0  0  0  0  0
   -2.9120   -3.2505   -1.0971 H   0  0  0  0  0  0  0  0  0  0  0  0
   -1.2021   -2.6264    0.0504 C   0  0  0  0  0  0  0  0  0  0  0  0
   -0.2553   -3.2688    0.4663 O   0  0  0  0  0  0  0  0  0  0  0  0
   -1.0446   -1.3033   -0.3117 N   0  0  0  0  0  0  0  0  0  0  0  0
   -1.8559   -0.8353   -0.7029 H   0  0  0  0  0  0  0  0  0  0  0  0
    0.2480   -0.5885   -0.3383 C   0  0  1  0  0  0  0  0  0  0  0  0
    0.9024   -1.2385   -0.9310 H   0  0  0  0  0  0  0  0  0  0  0  0
    0.1846    0.7402   -1.1624 C   0  0  1  0  0  0  0  0  0  0  0  0
    1.1229    0.7507   -1.7290 H   0  0  0  0  0  0  0  0  0  0  0  0
   -0.9391    0.7488   -2.2154 C   0  0  0  0  0  0  0  0  0  0  0  0
   -1.9237    0.8051   -1.7410 H   0  0  0  0  0  0  0  0  0  0  0  0
   -0.8280    1.6147   -2.8758 H   0  0  0  0  0  0  0  0  0  0  0  0
   -0.8933   -0.1545   -2.8323 H   0  0  0  0  0  0  0  0  0  0  0  0
    0.1483    2.0608   -0.3429 C   0  0  0  0  0  0  0  0  0  0  0  0
   -0.7700    2.6130   -0.5676 H   0  0  0  0  0  0  0  0  0  0  0  0
    0.1367    1.8821    0.7317 H   0  0  0  0  0  0  0  0  0  0  0  0
    1.3437    2.9565   -0.6727 C   0  0  0  0  0  0  0  0  0  0  0  0
    1.3545    3.2083   -1.7378 H   0  0  0  0  0  0  0  0  0  0  0  0
    1.2882    3.8853   -0.0970 H   0  0  0  0  0  0  0  0  0  0  0  0
    2.2804    2.4484   -0.4207 H   0  0  0  0  0  0  0  0  0  0  0  0
    0.9828   -0.5188    1.0224 C   0  0  0  0  0  0  0  0  0  0  0  0
    2.2065   -0.5048    1.0464 O   0  0  0  0  0  0  0  0  0  0  0  0
    0.2921   -0.2022    2.1795 N   0  0  0  0  0  0  0  0  0  0  0  0
   -0.7165   -0.3004    2.1394 H   0  0  0  0  0  0  0  0  0  0  0  0
    0.9375   -0.1030    3.4824 C   0  0  0  0  0  0  0  0  0  0  0  0
    1.7131    0.6701    3.4688 H   0  0  0  0  0  0  0  0  0  0  0  0
    0.2034    0.1602    4.2498 H   0  0  0  0  0  0  0  0  0  0  0  0
    1.3976   -1.0590    3.7540 H   0  0  0  0  0  0  0  0  0  0  0  0
  1  2  1  0  0  0  0
  2  3  1  0  0  0  0
  2  4  1  0  0  0  0
  2  5  1  0  0  0  0
  5  6  2  0  0  0  0
  5  7  1  0  0  0  0
  7  8  1  0  0  0  0
  7  9  1  0  0  0  0
  9 10  1  0  0  0  0
  9 11  1  0  0  0  0
  9 24  1  0  0  0  0
 11 12  1  0  0  0  0
 11 13  1  0  0  0  0
 11 17  1  0  0  0  0
 13 14  1  0  0  0  0
 13 15  1  0  0  0  0
 13 16  1  0  0  0  0
 17 18  1  0  0  0  0
 17 19  1  0  0  0  0
 17 20  1  0  0  0  0
 20 21  1  0  0  0  0
 20 22  1  0  0  0  0
 20 23  1  0  0  0  0
 24 25  2  0  0  0  0
 24 26  1  0  0  0  0
 26 27  1  0  0  0  0
 26 28  1  0  0  0  0
 28 29  1  0  0  0  0
 28 30  1  0  0  0  0
 28 31  1  0  0  0  0
M  END
$$$$

  -OEChem-03222214053D

 31 30  0     1  0  0  0  0  0999 V2000
   -2.5133   -4.3125    0.2732 H   0  0  0  0  0  0  0  0  0  0  0  0
   -2.5628   -3.2699   -0.0543 C   0  0  0  0  0  0  0  0  0  0  0  0
   -3.2770   -2.7365    0.5777 H   0  0  0  0  0  0  0  0  0  0  0  0
   -2.9105   -3.2434   -1.0899 H   0  0  0  0  0  0  0  0  0  0  0  0
   -1.1935   -2.6252    0.0503 C   0  0  0  0  0  0  0  0  0  0  0  0
   -0.2477   -3.2731    0.4601 O   0  0  0  0  0  0  0  0  0  0  0  0
   -1.0317   -1.3026   -0.3118 N   0  0  0  0  0  0  0  0  0  0  0  0
   -1.8438   -0.8301   -0.6959 H   0  0  0  0  0  0  0  0  0  0  0  0
    0.2625   -0.5905   -0.3404 C   0  0  1  0  0  0  0  0  0  0  0  0
    0.9182   -1.2315   -0.9415 H   0  0  0  0  0  0  0  0  0  0  0  0
    0.1764    0.7490   -1.1466 C   0  0  1  0  0  0  0  0  0  0  0  0
    1.1179    0.7701   -1.7074 H   0  0  0  0  0  0  0  0  0  0  0  0
   -0.9452    0.7653   -2.2011 C   0  0  0  0  0  0  0  0  0  0  0  0
   -1.9310    0.8086   -1.7282 H   0  0  0  0  0  0  0  0  0  0  0  0
   -0.8395    1.6405   -2.8496 H   0  0  0  0  0  0  0  0  0  0  0  0
   -0.8923   -0.1295   -2.8295 H   0  0  0  0  0  0  0  0  0  0  0  0
    0.1437    2.0657   -0.3224 C   0  0  0  0  0  0  0  0  0  0  0  0
   -0.8769    2.4602   -0.2881 H   0  0  0  0  0  0  0  0  0  0  0  0
    0.4551    1.9131    0.7108 H   0  0  0  0  0  0  0  0  0  0  0  0
    1.0839    3.1186   -0.9141 C   0  0  0  0  0  0  0  0  0  0  0  0
    0.8104    3.3419   -1.9499 H   0  0  0  0  0  0  0  0  0  0  0  0
    1.0240    4.0436   -0.3327 H   0  0  0  0  0  0  0  0  0  0  0  0
    2.1194    2.7637   -0.8920 H   0  0  0  0  0  0  0  0  0  0  0  0
    0.9900   -0.5282    1.0239 C   0  0  0  0  0  0  0  0  0  0  0  0
    2.2135   -0.5199    1.0571 O   0  0  0  0  0  0  0  0  0  0  0  0
    0.2896   -0.2120    2.1753 N   0  0  0  0  0  0  0  0  0  0  0  0
   -0.7191   -0.3043    2.1246 H   0  0  0  0  0  0  0  0  0  0  0  0
    0.9228   -0.1193    3.4848 C   0  0  0  0  0  0  0  0  0  0  0  0
    1.7041    0.6480    3.4797 H   0  0  0  0  0  0  0  0  0  0  0  0
    0.1830    0.1487    4.2450 H   0  0  0  0  0  0  0  0  0  0  0  0
    1.3731   -1.0788    3.7602 H   0  0  0  0  0  0  0  0  0  0  0  0
  1  2  1  0  0  0  0
  2  3  1  0  0  0  0
  2  4  1  0  0  0  0
  2  5  1  0  0  0  0
  5  6  2  0  0  0  0
  5  7  1  0  0  0  0
  7  8  1  0  0  0  0
  7  9  1  0  0  0  0
  9 10  1  0  0  0  0
  9 11  1  0  0  0  0
  9 24  1  0  0  0  0
 11 12  1  0  0  0  0
 11 13  1  0  0  0  0
 11 17  1  0  0  0  0
 13 14  1  0  0  0  0
 13 15  1  0  0  0  0
 13 16  1  0  0  0  0
 17 18  1  0  0  0  0
 17 19  1  0  0  0  0
 17 20  1  0  0  0  0
 20 21  1  0  0  0  0
 20 22  1  0  0  0  0
 20 23  1  0  0  0  0
 24 25  2  0  0  0  0
 24 26  1  0  0  0  0
 26 27  1  0  0  0  0
 26 28  1  0  0  0  0
 28 29  1  0  0  0  0
 28 30  1  0  0  0  0
 28 31  1  0  0  0  0
M  END
$$$$

  -OEChem-03222214053D

 31 30  0     1  0  0  0  0  0999 V2000
   -2.5040   -4.3102    0.2924 H   0  0  0  0  0  0  0  0  0  0  0  0
   -2.5533   -3.2705   -0.0439 C   0  0  0  0  0  0  0  0  0  0  0  0
   -3.2661   -2.7314    0.5847 H   0  0  0  0  0  0  0  0  0  0  0  0
   -2.9023   -3.2526   -1.0792 H   0  0  0  0  0  0  0  0  0  0  0  0
   -1.1833   -2.6262    0.0526 C   0  0  0  0  0  0  0  0  0  0  0  0
   -0.2367   -3.2721    0.4634 O   0  0  0  0  0  0  0  0  0  0  0  0
   -1.0206   -1.3074   -0.3229 N   0  0  0  0  0  0  0  0  0  0  0  0
   -1.8309   -0.8394   -0.7161 H   0  0  0  0  0  0  0  0  0  0  0  0
    0.2750   -0.5972   -0.3581 C   0  0  1  0  0  0  0  0  0  0  0  0
    0.9332   -1.2342   -0.9609 H   0  0  0  0  0  0  0  0  0  0  0  0
    0.1772    0.7502   -1.1520 C   0  0  1  0  0  0  0  0  0  0  0  0
    1.1114    0.7869   -1.7235 H   0  0  0  0  0  0  0  0  0  0  0  0
   -0.9665    0.7697   -2.1852 C   0  0  0  0  0  0  0  0  0  0  0  0
   -1.9409    0.8354   -1.6917 H   0  0  0  0  0  0  0  0  0  0  0  0
   -0.8651    1.6293   -2.8537 H   0  0  0  0  0  0  0  0  0  0  0  0
   -0.9404   -0.1354   -2.8005 H   0  0  0  0  0  0  0  0  0  0  0  0
    0.1549    2.0471   -0.2992 C   0  0  0  0  0  0  0  0  0  0  0  0
   -0.8723    2.2822   -0.0032 H   0  0  0  0  0  0  0  0  0  0  0  0
    0.7397    1.9339    0.6155 H   0  0  0  0  0  0  0  0  0  0  0  0
    0.7749    3.2323   -1.0456 C   0  0  0  0  0  0  0  0  0  0  0  0
    0.2122    3.4619   -1.9548 H   0  0  0  0  0  0  0  0  0  0  0  0
    0.7685    4.1197   -0.4055 H   0  0  0  0  0  0  0  0  0  0  0  0
    1.8118    3.0138   -1.3198 H   0  0  0  0  0  0  0  0  0  0  0  0
    0.9936   -0.5276    1.0102 C   0  0  0  0  0  0  0  0  0  0  0  0
    2.2169   -0.5287    1.0542 O   0  0  0  0  0  0  0  0  0  0  0  0
    0.2832   -0.2003    2.1519 N   0  0  0  0  0  0  0  0  0  0  0  0
   -0.7257   -0.2829    2.0907 H   0  0  0  0  0  0  0  0  0  0  0  0
    0.9036   -0.1000    3.4664 C   0  0  0  0  0  0  0  0  0  0  0  0
    1.6887    0.6633    3.4626 H   0  0  0  0  0  0  0  0  0  0  0  0
    0.1577    0.1779    4.2170 H   0  0  0  0  0  0  0  0  0  0  0  0
    1.3461   -1.0598    3.7536 H   0  0  0  0  0  0  0  0  0  0  0  0
  1  2  1  0  0  0  0
  2  3  1  0  0  0  0
  2  4  1  0  0  0  0
  2  5  1  0  0  0  0
  5  6  2  0  0  0  0
  5  7  1  0  0  0  0
  7  8  1  0  0  0  0
  7  9  1  0  0  0  0
  9 10  1  0  0  0  0
  9 11  1  0  0  0  0
  9 24  1  0  0  0  0
 11 12  1  0  0  0  0
 11 13  1  0  0  0  0
 11 17  1  0  0  0  0
 13 14  1  0  0  0  0
 13 15  1  0  0  0  0
 13 16  1  0  0  0  0
 17 18  1  0  0  0  0
 17 19  1  0  0  0  0
 17 20  1  0  0  0  0
 20 21  1  0  0  0  0
 20 22  1  0  0  0  0
 20 23  1  0  0  0  0
 24 25  2  0  0  0  0
 24 26  1  0  0  0  0
 26 27  1  0  0  0  0
 26 28  1  0  0  0  0
 28 29  1  0  0  0  0
 28 30  1  0  0  0  0
 28 31  1  0  0  0  0
M  END
$$$$

  -OEChem-03222214053D

 31 30  0     1  0  0  0  0  0999 V2000
   -2.4968   -4.3113    0.3095 H   0  0  0  0  0  0  0  0  0  0  0  0
   -2.5467   -3.2745   -0.0356 C   0  0  0  0  0  0  0  0  0  0  0  0
   -3.2609   -2.7308    0.5873 H   0  0  0  0  0  0  0  0  0  0  0  0
   -2.8941   -3.2656   -1.0715 H   0  0  0  0  0  0  0  0  0  0  0  0
   -1.1775   -2.6279    0.0574 C   0  0  0  0  0  0  0  0  0  0  0  0
   -0.2321   -3.2679    0.4799 O   0  0  0  0  0  0  0  0  0  0  0  0
   -1.0143   -1.3141   -0.3356 N   0  0  0  0  0  0  0  0  0  0  0  0
   -1.8242   -0.8516   -0.7363 H   0  0  0  0  0  0  0  0  0  0  0  0
    0.2817   -0.6044   -0.3783 C   0  0  1  0  0  0  0  0  0  0  0  0
    0.9420   -1.2405   -0.9795 H   0  0  0  0  0  0  0  0  0  0  0  0
    0.1776    0.7452   -1.1674 C   0  0  1  0  0  0  0  0  0  0  0  0
    1.1045    0.8003   -1.7493 H   0  0  0  0  0  0  0  0  0  0  0  0
   -0.9795    0.7614   -2.1868 C   0  0  0  0  0  0  0  0  0  0  0  0
   -1.9446    0.8657   -1.6813 H   0  0  0  0  0  0  0  0  0  0  0  0
   -0.8665    1.5943   -2.8863 H   0  0  0  0  0  0  0  0  0  0  0  0
   -0.9834   -0.1617   -2.7754 H   0  0  0  0  0  0  0  0  0  0  0  0
    0.1645    2.0166   -0.2800 C   0  0  0  0  0  0  0  0  0  0  0  0
   -0.7918    2.0932    0.2471 H   0  0  0  0  0  0  0  0  0  0  0  0
    0.9568    1.9616    0.4713 H   0  0  0  0  0  0  0  0  0  0  0  0
    0.4264    3.2991   -1.0757 C   0  0  0  0  0  0  0  0  0  0  0  0
   -0.3954    3.5101   -1.7655 H   0  0  0  0  0  0  0  0  0  0  0  0
    0.5205    4.1479   -0.3916 H   0  0  0  0  0  0  0  0  0  0  0  0
    1.3556    3.2128   -1.6476 H   0  0  0  0  0  0  0  0  0  0  0  0
    0.9944   -0.5189    0.9922 C   0  0  0  0  0  0  0  0  0  0  0  0
    2.2173   -0.5295    1.0426 O   0  0  0  0  0  0  0  0  0  0  0  0
    0.2798   -0.1773    2.1269 N   0  0  0  0  0  0  0  0  0  0  0  0
   -0.7294   -0.2526    2.0606 H   0  0  0  0  0  0  0  0  0  0  0  0
    0.8933   -0.0670    3.4437 C   0  0  0  0  0  0  0  0  0  0  0  0
    1.6823    0.6924    3.4368 H   0  0  0  0  0  0  0  0  0  0  0  0
    0.1445    0.2218    4.1871 H   0  0  0  0  0  0  0  0  0  0  0  0
    1.3297   -1.0258    3.7429 H   0  0  0  0  0  0  0  0  0  0  0  0
  1  2  1  0  0  0  0
  2  3  1  0  0  0  0
  2  4  1  0  0  0  0
  2  5  1  0  0  0  0
  5  6  2  0  0  0  0
  5  7  1  0  0  0  0
  7  8  1  0  0  0  0
  7  9  1  0  0  0  0
  9 10  1  0  0  0  0
  9 11  1  0  0  0  0
  9 24  1  0  0  0  0
 11 12  1  0  0  0  0
 11 13  1  0  0  0  0
 11 17  1  0  0  0  0
 13 14  1  0  0  0  0
 13 15  1  0  0  0  0
 13 16  1  0  0  0  0
 17 18  1  0  0  0  0
 17 19  1  0  0  0  0
 17 20  1  0  0  0  0
 20 21  1  0  0  0  0
 20 22  1  0  0  0  0
 20 23  1  0  0  0  0
 24 25  2  0  0  0  0
 24 26  1  0  0  0  0
 26 27  1  0  0  0  0
 26 28  1  0  0  0  0
 28 29  1  0  0  0  0
 28 30  1  0  0  0  0
 28 31  1  0  0  0  0
M  END
$$$$

  -OEChem-03222214053D

 31 30  0     1  0  0  0  0  0999 V2000
   -2.4785   -4.3135    0.3572 H   0  0  0  0  0  0  0  0  0  0  0  0
   -2.5334   -3.2809    0.0006 C   0  0  0  0  0  0  0  0  0  0  0  0
   -3.2408   -2.7306    0.6255 H   0  0  0  0  0  0  0  0  0  0  0  0
   -2.8936   -3.2849   -1.0310 H   0  0  0  0  0  0  0  0  0  0  0  0
   -1.1635   -2.6323    0.0695 C   0  0  0  0  0  0  0  0  0  0  0  0
   -0.2130   -3.2680    0.4871 O   0  0  0  0  0  0  0  0  0  0  0  0
   -1.0060   -1.3228   -0.3404 N   0  0  0  0  0  0  0  0  0  0  0  0
   -1.8231   -0.8635   -0.7296 H   0  0  0  0  0  0  0  0  0  0  0  0
    0.2865   -0.6055   -0.3948 C   0  0  1  0  0  0  0  0  0  0  0  0
    0.9536   -1.2467   -0.9828 H   0  0  0  0  0  0  0  0  0  0  0  0
    0.1941    0.7432   -1.1992 C   0  0  1  0  0  0  0  0  0  0  0  0
    0.9592    0.6782   -1.9807 H   0  0  0  0  0  0  0  0  0  0  0  0
   -1.1536    0.9233   -1.9324 C   0  0  0  0  0  0  0  0  0  0  0  0
   -1.9618    1.1102   -1.2183 H   0  0  0  0  0  0  0  0  0  0  0  0
   -1.1079    1.7627   -2.6316 H   0  0  0  0  0  0  0  0  0  0  0  0
   -1.3939    0.0332   -2.5224 H   0  0  0  0  0  0  0  0  0  0  0  0
    0.5553    1.9950   -0.3559 C   0  0  0  0  0  0  0  0  0  0  0  0
   -0.1089    2.0600    0.5115 H   0  0  0  0  0  0  0  0  0  0  0  0
    1.5824    1.8958    0.0109 H   0  0  0  0  0  0  0  0  0  0  0  0
    0.4709    3.3167   -1.1263 C   0  0  0  0  0  0  0  0  0  0  0  0
   -0.5666    3.5715   -1.3610 H   0  0  0  0  0  0  0  0  0  0  0  0
    0.8870    4.1264   -0.5192 H   0  0  0  0  0  0  0  0  0  0  0  0
    1.0423    3.2545   -2.0577 H   0  0  0  0  0  0  0  0  0  0  0  0
    0.9874   -0.5074    0.9834 C   0  0  0  0  0  0  0  0  0  0  0  0
    2.2093   -0.5451    1.0506 O   0  0  0  0  0  0  0  0  0  0  0  0
    0.2648   -0.1600    2.1114 N   0  0  0  0  0  0  0  0  0  0  0  0
   -0.7443   -0.2263    2.0355 H   0  0  0  0  0  0  0  0  0  0  0  0
    0.8667   -0.0619    3.4349 C   0  0  0  0  0  0  0  0  0  0  0  0
    1.6662    0.6865    3.4381 H   0  0  0  0  0  0  0  0  0  0  0  0
    0.1146    0.2350    4.1720 H   0  0  0  0  0  0  0  0  0  0  0  0
    1.2870   -1.0273    3.7359 H   0  0  0  0  0  0  0  0  0  0  0  0
  1  2  1  0  0  0  0
  2  3  1  0  0  0  0
  2  4  1  0  0  0  0
  2  5  1  0  0  0  0
  5  6  2  0  0  0  0
  5  7  1  0  0  0  0
  7  8  1  0  0  0  0
  7  9  1  0  0  0  0
  9 10  1  0  0  0  0
  9 11  1  0  0  0  0
  9 24  1  0  0  0  0
 11 12  1  0  0  0  0
 11 13  1  0  0  0  0
 11 17  1  0  0  0  0
 13 14  1  0  0  0  0
 13 15  1  0  0  0  0
 13 16  1  0  0  0  0
 17 18  1  0  0  0  0
 17 19  1  0  0  0  0
 17 20  1  0  0  0  0
 20 21  1  0  0  0  0
 20 22  1  0  0  0  0
 20 23  1  0  0  0  0
 24 25  2  0  0  0  0
 24 26  1  0  0  0  0
 26 27  1  0  0  0  0
 26 28  1  0  0  0  0
 28 29  1  0  0  0  0
 28 30  1  0  0  0  0
 28 31  1  0  0  0  0
M  END
$$$$

  -OEChem-03222214053D

 31 30  0     1  0  0  0  0  0999 V2000
   -2.4819   -4.3245    0.3444 H   0  0  0  0  0  0  0  0  0  0  0  0
   -2.5421   -3.2892   -0.0034 C   0  0  0  0  0  0  0  0  0  0  0  0
   -3.2494   -2.7470    0.6285 H   0  0  0  0  0  0  0  0  0  0  0  0
   -2.9056   -3.2858   -1.0337 H   0  0  0  0  0  0  0  0  0  0  0  0
   -1.1750   -2.6350    0.0660 C   0  0  0  0  0  0  0  0  0  0  0  0
   -0.2184   -3.2708    0.4692 O   0  0  0  0  0  0  0  0  0  0  0  0
   -1.0268   -1.3187   -0.3250 N   0  0  0  0  0  0  0  0  0  0  0  0
   -1.8497   -0.8560   -0.6974 H   0  0  0  0  0  0  0  0  0  0  0  0
    0.2619   -0.5946   -0.3782 C   0  0  1  0  0  0  0  0  0  0  0  0
    0.9228   -1.2397   -0.9693 H   0  0  0  0  0  0  0  0  0  0  0  0
    0.1861    0.7478   -1.1949 C   0  0  1  0  0  0  0  0  0  0  0  0
    0.9622    0.6810   -1.9655 H   0  0  0  0  0  0  0  0  0  0  0  0
   -1.1496    0.9027   -1.9576 C   0  0  0  0  0  0  0  0  0  0  0  0
   -1.9747    1.0897   -1.2630 H   0  0  0  0  0  0  0  0  0  0  0  0
   -1.0988    1.7328   -2.6683 H   0  0  0  0  0  0  0  0  0  0  0  0
   -1.3684    0.0018   -2.5396 H   0  0  0  0  0  0  0  0  0  0  0  0
    0.5418    2.0062   -0.3530 C   0  0  0  0  0  0  0  0  0  0  0  0
    0.0282    1.9593    0.6110 H   0  0  0  0  0  0  0  0  0  0  0  0
    1.6201    2.0099   -0.1591 H   0  0  0  0  0  0  0  0  0  0  0  0
    0.1472    3.3466   -0.9835 C   0  0  0  0  0  0  0  0  0  0  0  0
   -0.9404    3.4519   -1.0398 H   0  0  0  0  0  0  0  0  0  0  0  0
    0.5349    4.1700   -0.3758 H   0  0  0  0  0  0  0  0  0  0  0  0
    0.5679    3.4344   -1.9902 H   0  0  0  0  0  0  0  0  0  0  0  0
    0.9836   -0.5072    0.9897 C   0  0  0  0  0  0  0  0  0  0  0  0
    2.2070   -0.5206    1.0337 O   0  0  0  0  0  0  0  0  0  0  0  0
    0.2778   -0.1779    2.1339 N   0  0  0  0  0  0  0  0  0  0  0  0
   -0.7315   -0.2587    2.0773 H   0  0  0  0  0  0  0  0  0  0  0  0
    0.9031   -0.0771    3.4462 C   0  0  0  0  0  0  0  0  0  0  0  0
    1.6934    0.6810    3.4373 H   0  0  0  0  0  0  0  0  0  0  0  0
    0.1613    0.2081    4.1982 H   0  0  0  0  0  0  0  0  0  0  0  0
    1.3402   -1.0386    3.7352 H   0  0  0  0  0  0  0  0  0  0  0  0
  1  2  1  0  0  0  0
  2  3  1  0  0  0  0
  2  4  1  0  0  0  0
  2  5  1  0  0  0  0
  5  6  2  0  0  0  0
  5  7  1  0  0  0  0
  7  8  1  0  0  0  0
  7  9  1  0  0  0  0
  9 10  1  0  0  0  0
  9 11  1  0  0  0  0
  9 24  1  0  0  0  0
 11 12  1  0  0  0  0
 11 13  1  0  0  0  0
 11 17  1  0  0  0  0
 13 14  1  0  0  0  0
 13 15  1  0  0  0  0
 13 16  1  0  0  0  0
 17 18  1  0  0  0  0
 17 19  1  0  0  0  0
 17 20  1  0  0  0  0
 20 21  1  0  0  0  0
 20 22  1  0  0  0  0
 20 23  1  0  0  0  0
 24 25  2  0  0  0  0
 24 26  1  0  0  0  0
 26 27  1  0  0  0  0
 26 28  1  0  0  0  0
 28 29  1  0  0  0  0
 28 30  1  0  0  0  0
 28 31  1  0  0  0  0
M  END
$$$$

  -OEChem-03222214053D

 31 30  0     1  0  0  0  0  0999 V2000
   -2.4923   -4.3265    0.3327 H   0  0  0  0  0  0  0  0  0  0  0  0
   -2.5539   -3.2879   -0.0048 C   0  0  0  0  0  0  0  0  0  0  0  0
   -3.2580   -2.7516    0.6356 H   0  0  0  0  0  0  0  0  0  0  0  0
   -2.9227   -3.2745   -1.0332 H   0  0  0  0  0  0  0  0  0  0  0  0
   -1.1861   -2.6350    0.0646 C   0  0  0  0  0  0  0  0  0  0  0  0
   -0.2265   -3.2764    0.4520 O   0  0  0  0  0  0  0  0  0  0  0  0
   -1.0416   -1.3118   -0.3034 N   0  0  0  0  0  0  0  0  0  0  0  0
   -1.8671   -0.8438   -0.6637 H   0  0  0  0  0  0  0  0  0  0  0  0
    0.2462   -0.5860   -0.3552 C   0  0  1  0  0  0  0  0  0  0  0  0
    0.8994   -1.2327   -0.9531 H   0  0  0  0  0  0  0  0  0  0  0  0
    0.1790    0.7539   -1.1787 C   0  0  1  0  0  0  0  0  0  0  0  0
    0.9671    0.6803   -1.9365 H   0  0  0  0  0  0  0  0  0  0  0  0
   -1.1397    0.8779   -1.9768 C   0  0  0  0  0  0  0  0  0  0  0  0
   -1.9881    1.0473   -1.3064 H   0  0  0  0  0  0  0  0  0  0  0  0
   -1.0872    1.7062   -2.6894 H   0  0  0  0  0  0  0  0  0  0  0  0
   -1.3226   -0.0305   -2.5597 H   0  0  0  0  0  0  0  0  0  0  0  0
    0.5287    2.0350   -0.3583 C   0  0  0  0  0  0  0  0  0  0  0  0
    0.2264    1.9064    0.6824 H   0  0  0  0  0  0  0  0  0  0  0  0
    1.6152    2.1742   -0.3699 H   0  0  0  0  0  0  0  0  0  0  0  0
   -0.1552    3.3325   -0.8071 C   0  0  0  0  0  0  0  0  0  0  0  0
   -1.2414    3.2667   -0.6946 H   0  0  0  0  0  0  0  0  0  0  0  0
    0.1976    4.1672   -0.1936 H   0  0  0  0  0  0  0  0  0  0  0  0
    0.0859    3.5523   -1.8516 H   0  0  0  0  0  0  0  0  0  0  0  0
    0.9856   -0.5196    1.0042 C   0  0  0  0  0  0  0  0  0  0  0  0
    2.2096   -0.5134    1.0285 O   0  0  0  0  0  0  0  0  0  0  0  0
    0.2942   -0.2106    2.1630 N   0  0  0  0  0  0  0  0  0  0  0  0
   -0.7149   -0.3032    2.1207 H   0  0  0  0  0  0  0  0  0  0  0  0
    0.9382   -0.1167    3.4669 C   0  0  0  0  0  0  0  0  0  0  0  0
    1.7204    0.6496    3.4547 H   0  0  0  0  0  0  0  0  0  0  0  0
    0.2045    0.1528    4.2324 H   0  0  0  0  0  0  0  0  0  0  0  0
    1.3898   -1.0764    3.7395 H   0  0  0  0  0  0  0  0  0  0  0  0
  1  2  1  0  0  0  0
  2  3  1  0  0  0  0
  2  4  1  0  0  0  0
  2  5  1  0  0  0  0
  5  6  2  0  0  0  0
  5  7  1  0  0  0  0
  7  8  1  0  0  0  0
  7  9  1  0  0  0  0
  9 10  1  0  0  0  0
  9 11  1  0  0  0  0
  9 24  1  0  0  0  0
 11 12  1  0  0  0  0
 11 13  1  0  0  0  0
 11 17  1  0  0  0  0
 13 14  1  0  0  0  0
 13 15  1  0  0  0  0
 13 16  1  0  0  0  0
 17 18  1  0  0  0  0
 17 19  1  0  0  0  0
 17 20  1  0  0  0  0
 20 21  1  0  0  0  0
 20 22  1  0  0  0  0
 20 23  1  0  0  0  0
 24 25  2  0  0  0  0
 24 26  1  0  0  0  0
 26 27  1  0  0  0  0
 26 28  1  0  0  0  0
 28 29  1  0  0  0  0
 28 30  1  0  0  0  0
 28 31  1  0  0  0  0
M  END
$$$$

  -OEChem-03222214053D

 31 30  0     1  0  0  0  0  0999 V2000
   -2.5022   -4.3206    0.3399 H   0  0  0  0  0  0  0  0  0  0  0  0
   -2.5614   -3.2812    0.0044 C   0  0  0  0  0  0  0  0  0  0  0  0
   -3.2582   -2.7425    0.6509 H   0  0  0  0  0  0  0  0  0  0  0  0
   -2.9378   -3.2643   -1.0214 H   0  0  0  0  0  0  0  0  0  0  0  0
   -1.1899   -2.6356    0.0654 C   0  0  0  0  0  0  0  0  0  0  0  0
   -0.2288   -3.2872    0.4315 O   0  0  0  0  0  0  0  0  0  0  0  0
   -1.0425   -1.3090   -0.2897 N   0  0  0  0  0  0  0  0  0  0  0  0
   -1.8698   -0.8309   -0.6324 H   0  0  0  0  0  0  0  0  0  0  0  0
    0.2484   -0.5892   -0.3430 C   0  0  1  0  0  0  0  0  0  0  0  0
    0.8953   -1.2328   -0.9511 H   0  0  0  0  0  0  0  0  0  0  0  0
    0.1712    0.7564   -1.1583 C   0  0  1  0  0  0  0  0  0  0  0  0
    0.9706    0.6763   -1.9036 H   0  0  0  0  0  0  0  0  0  0  0  0
   -1.1272    0.8611   -1.9914 C   0  0  0  0  0  0  0  0  0  0  0  0
   -1.9998    1.0053   -1.3470 H   0  0  0  0  0  0  0  0  0  0  0  0
   -1.0689    1.6966   -2.6947 H   0  0  0  0  0  0  0  0  0  0  0  0
   -1.2737   -0.0467   -2.5856 H   0  0  0  0  0  0  0  0  0  0  0  0
    0.5216    2.0601   -0.3644 C   0  0  0  0  0  0  0  0  0  0  0  0
    0.5198    1.8799    0.7100 H   0  0  0  0  0  0  0  0  0  0  0  0
    1.5402    2.3616   -0.6310 H   0  0  0  0  0  0  0  0  0  0  0  0
   -0.4149    3.2582   -0.5687 C   0  0  0  0  0  0  0  0  0  0  0  0
   -1.4375    3.0126   -0.2675 H   0  0  0  0  0  0  0  0  0  0  0  0
   -0.0744    4.0990    0.0435 H   0  0  0  0  0  0  0  0  0  0  0  0
   -0.4134    3.5813   -1.6138 H   0  0  0  0  0  0  0  0  0  0  0  0
    0.9939   -0.5436    1.0132 C   0  0  0  0  0  0  0  0  0  0  0  0
    2.2179   -0.5424    1.0331 O   0  0  0  0  0  0  0  0  0  0  0  0
    0.3070   -0.2442    2.1773 N   0  0  0  0  0  0  0  0  0  0  0  0
   -0.7035   -0.3206    2.1356 H   0  0  0  0  0  0  0  0  0  0  0  0
    0.9551   -0.1562    3.4796 C   0  0  0  0  0  0  0  0  0  0  0  0
    1.7365    0.6111    3.4685 H   0  0  0  0  0  0  0  0  0  0  0  0
    0.2241    0.1093    4.2489 H   0  0  0  0  0  0  0  0  0  0  0  0
    1.4082   -1.1168    3.7462 H   0  0  0  0  0  0  0  0  0  0  0  0
  1  2  1  0  0  0  0
  2  3  1  0  0  0  0
  2  4  1  0  0  0  0
  2  5  1  0  0  0  0
  5  6  2  0  0  0  0
  5  7  1  0  0  0  0
  7  8  1  0  0  0  0
  7  9  1  0  0  0  0
  9 10  1  0  0  0  0
  9 11  1  0  0  0  0
  9 24  1  0  0  0  0
 11 12  1  0  0  0  0
 11 13  1  0  0  0  0
 11 17  1  0  0  0  0
 13 14  1  0  0  0  0
 13 15  1  0  0  0  0
 13 16  1  0  0  0  0
 17 18  1  0  0  0  0
 17 19  1  0  0  0  0
 17 20  1  0  0  0  0
 20 21  1  0  0  0  0
 20 22  1  0  0  0  0
 20 23  1  0  0  0  0
 24 25  2  0  0  0  0
 24 26  1  0  0  0  0
 26 27  1  0  0  0  0
 26 28  1  0  0  0  0
 28 29  1  0  0  0  0
 28 30  1  0  0  0  0
 28 31  1  0  0  0  0
M  END
$$$$

  -OEChem-03222214053D

 31 30  0     1  0  0  0  0  0999 V2000
   -2.5162   -4.3064    0.3592 H   0  0  0  0  0  0  0  0  0  0  0  0
   -2.5645   -3.2680    0.0183 C   0  0  0  0  0  0  0  0  0  0  0  0
   -3.2555   -2.7187    0.6624 H   0  0  0  0  0  0  0  0  0  0  0  0
   -2.9413   -3.2524   -1.0072 H   0  0  0  0  0  0  0  0  0  0  0  0
   -1.1859   -2.6367    0.0738 C   0  0  0  0  0  0  0  0  0  0  0  0
   -0.2311   -3.2976    0.4391 O   0  0  0  0  0  0  0  0  0  0  0  0
   -1.0246   -1.3149   -0.2922 N   0  0  0  0  0  0  0  0  0  0  0  0
   -1.8473   -0.8315   -0.6378 H   0  0  0  0  0  0  0  0  0  0  0  0
    0.2726   -0.6074   -0.3514 C   0  0  1  0  0  0  0  0  0  0  0  0
    0.9188   -1.2451   -0.9661 H   0  0  0  0  0  0  0  0  0  0  0  0
    0.1670    0.7482   -1.1459 C   0  0  1  0  0  0  0  0  0  0  0  0
    0.9712    0.6699   -1.8866 H   0  0  0  0  0  0  0  0  0  0  0  0
   -1.1195    0.8581   -1.9950 C   0  0  0  0  0  0  0  0  0  0  0  0
   -2.0051    0.9798   -1.3640 H   0  0  0  0  0  0  0  0  0  0  0  0
   -1.0544    1.7123   -2.6756 H   0  0  0  0  0  0  0  0  0  0  0  0
   -1.2471   -0.0379   -2.6109 H   0  0  0  0  0  0  0  0  0  0  0  0
    0.5237    2.0593   -0.3661 C   0  0  0  0  0  0  0  0  0  0  0  0
    0.8741    1.8609    0.6460 H   0  0  0  0  0  0  0  0  0  0  0  0
    1.3627    2.5355   -0.8845 H   0  0  0  0  0  0  0  0  0  0  0  0
   -0.5974    3.1006   -0.2579 C   0  0  0  0  0  0  0  0  0  0  0  0
   -1.4752    2.6716    0.2347 H   0  0  0  0  0  0  0  0  0  0  0  0
   -0.2528    3.9506    0.3390 H   0  0  0  0  0  0  0  0  0  0  0  0
   -0.8861    3.4782   -1.2429 H   0  0  0  0  0  0  0  0  0  0  0  0
    1.0085   -0.5631    1.0088 C   0  0  0  0  0  0  0  0  0  0  0  0
    2.2321   -0.5835    1.0403 O   0  0  0  0  0  0  0  0  0  0  0  0
    0.3138   -0.2493    2.1640 N   0  0  0  0  0  0  0  0  0  0  0  0
   -0.6974   -0.3049    2.1107 H   0  0  0  0  0  0  0  0  0  0  0  0
    0.9492   -0.1655    3.4726 C   0  0  0  0  0  0  0  0  0  0  0  0
    1.7366    0.5958    3.4683 H   0  0  0  0  0  0  0  0  0  0  0  0
    0.2125    0.1059    4.2346 H   0  0  0  0  0  0  0  0  0  0  0  0
    1.3924   -1.1295    3.7442 H   0  0  0  0  0  0  0  0  0  0  0  0
  1  2  1  0  0  0  0
  2  3  1  0  0  0  0
  2  4  1  0  0  0  0
  2  5  1  0  0  0  0
  5  6  2  0  0  0  0
  5  7  1  0  0  0  0
  7  8  1  0  0  0  0
  7  9  1  0  0  0  0
  9 10  1  0  0  0  0
  9 11  1  0  0  0  0
  9 24  1  0  0  0  0
 11 12  1  0  0  0  0
 11 13  1  0  0  0  0
 11 17  1  0  0  0  0
 13 14  1  0  0  0  0
 13 15  1  0  0  0  0
 13 16  1  0  0  0  0
 17 18  1  0  0  0  0
 17 19  1  0  0  0  0
 17 20  1  0  0  0  0
 20 21  1  0  0  0  0
 20 22  1  0  0  0  0
 20 23  1  0  0  0  0
 24 25  2  0  0  0  0
 24 26  1  0  0  0  0
 26 27  1  0  0  0  0
 26 28  1  0  0  0  0
 28 29  1  0  0  0  0
 28 30  1  0  0  0  0
 28 31  1  0  0  0  0
M  END
$$$$

  -OEChem-03222214053D

 31 30  0     1  0  0  0  0  0999 V2000
   -2.5131   -4.3056    0.3828 H   0  0  0  0  0  0  0  0  0  0  0  0
   -2.5573   -3.2711    0.0299 C   0  0  0  0  0  0  0  0  0  0  0  0
   -3.2460   -2.7115    0.6673 H   0  0  0  0  0  0  0  0  0  0  0  0
   -2.9333   -3.2663   -0.9961 H   0  0  0  0  0  0  0  0  0  0  0  0
   -1.1763   -2.6448    0.0793 C   0  0  0  0  0  0  0  0  0  0  0  0
   -0.2255   -3.3043    0.4573 O   0  0  0  0  0  0  0  0  0  0  0  0
   -1.0079   -1.3300   -0.3091 N   0  0  0  0  0  0  0  0  0  0  0  0
   -1.8266   -0.8499   -0.6684 H   0  0  0  0  0  0  0  0  0  0  0  0
    0.2929   -0.6293   -0.3739 C   0  0  1  0  0  0  0  0  0  0  0  0
    0.9429   -1.2636   -0.9880 H   0  0  0  0  0  0  0  0  0  0  0  0
    0.1712    0.7333   -1.1512 C   0  0  1  0  0  0  0  0  0  0  0  0
    0.9679    0.6614   -1.9003 H   0  0  0  0  0  0  0  0  0  0  0  0
   -1.1248    0.8724   -1.9785 C   0  0  0  0  0  0  0  0  0  0  0  0
   -2.0055    0.9525   -1.3340 H   0  0  0  0  0  0  0  0  0  0  0  0
   -1.0745    1.7654   -2.6094 H   0  0  0  0  0  0  0  0  0  0  0  0
   -1.2500    0.0076   -2.6380 H   0  0  0  0  0  0  0  0  0  0  0  0
    0.5374    2.0330   -0.3662 C   0  0  0  0  0  0  0  0  0  0  0  0
    1.1750    1.8384    0.4971 H   0  0  0  0  0  0  0  0  0  0  0  0
    1.1368    2.6589   -1.0359 H   0  0  0  0  0  0  0  0  0  0  0  0
   -0.6577    2.8846    0.0781 C   0  0  0  0  0  0  0  0  0  0  0  0
   -1.3396    2.2919    0.6956 H   0  0  0  0  0  0  0  0  0  0  0  0
   -0.3048    3.7329    0.6725 H   0  0  0  0  0  0  0  0  0  0  0  0
   -1.2064    3.2814   -0.7809 H   0  0  0  0  0  0  0  0  0  0  0  0
    1.0138   -0.5696    0.9936 C   0  0  0  0  0  0  0  0  0  0  0  0
    2.2363   -0.6136    1.0421 O   0  0  0  0  0  0  0  0  0  0  0  0
    0.3075   -0.2342    2.1353 N   0  0  0  0  0  0  0  0  0  0  0  0
   -0.7035   -0.2696    2.0669 H   0  0  0  0  0  0  0  0  0  0  0  0
    0.9259   -0.1371    3.4508 C   0  0  0  0  0  0  0  0  0  0  0  0
    1.7211    0.6158    3.4452 H   0  0  0  0  0  0  0  0  0  0  0  0
    0.1818    0.1535    4.1984 H   0  0  0  0  0  0  0  0  0  0  0  0
    1.3550   -1.1013    3.7432 H   0  0  0  0  0  0  0  0  0  0  0  0
  1  2  1  0  0  0  0
  2  3  1  0  0  0  0
  2  4  1  0  0  0  0
  2  5  1  0  0  0  0
  5  6  2  0  0  0  0
  5  7  1  0  0  0  0
  7  8  1  0  0  0  0
  7  9  1  0  0  0  0
  9 10  1  0  0  0  0
  9 11  1  0  0  0  0
  9 24  1  0  0  0  0
 11 12  1  0  0  0  0
 11 13  1  0  0  0  0
 11 17  1  0  0  0  0
 13 14  1  0  0  0  0
 13 15  1  0  0  0  0
 13 16  1  0  0  0  0
 17 18  1  0  0  0  0
 17 19  1  0  0  0  0
 17 20  1  0  0  0  0
 20 21  1  0  0  0  0
 20 22  1  0  0  0  0
 20 23  1  0  0  0  0
 24 25  2  0  0  0  0
 24 26  1  0  0  0  0
 26 27  1  0  0  0  0
 26 28  1  0  0  0  0
 28 29  1  0  0  0  0
 28 30  1  0  0  0  0
 28 31  1  0  0  0  0
M  END
$$$$

  -OEChem-03222214053D

 31 30  0     1  0  0  0  0  0999 V2000
   -2.5072   -4.3148    0.3772 H   0  0  0  0  0  0  0  0  0  0  0  0
   -2.5523   -3.2806    0.0237 C   0  0  0  0  0  0  0  0  0  0  0  0
   -3.2457   -2.7229    0.6575 H   0  0  0  0  0  0  0  0  0  0  0  0
   -2.9227   -3.2771   -1.0043 H   0  0  0  0  0  0  0  0  0  0  0  0
   -1.1735   -2.6500    0.0806 C   0  0  0  0  0  0  0  0  0  0  0  0
   -0.2246   -3.3032    0.4743 O   0  0  0  0  0  0  0  0  0  0  0  0
   -1.0057   -1.3375   -0.3154 N   0  0  0  0  0  0  0  0  0  0  0  0
   -1.8218   -0.8645   -0.6897 H   0  0  0  0  0  0  0  0  0  0  0  0
    0.2943   -0.6358   -0.3778 C   0  0  1  0  0  0  0  0  0  0  0  0
    0.9467   -1.2733   -0.9861 H   0  0  0  0  0  0  0  0  0  0  0  0
    0.1800    0.7217   -1.1618 C   0  0  1  0  0  0  0  0  0  0  0  0
    0.9700    0.6508   -1.9181 H   0  0  0  0  0  0  0  0  0  0  0  0
   -1.1279    0.8874   -1.9637 C   0  0  0  0  0  0  0  0  0  0  0  0
   -1.9994    0.9432   -1.3046 H   0  0  0  0  0  0  0  0  0  0  0  0
   -1.0886    1.8045   -2.5603 H   0  0  0  0  0  0  0  0  0  0  0  0
   -1.2612    0.0459   -2.6510 H   0  0  0  0  0  0  0  0  0  0  0  0
    0.5450    2.0098   -0.3707 C   0  0  0  0  0  0  0  0  0  0  0  0
    1.3672    1.8363    0.3277 H   0  0  0  0  0  0  0  0  0  0  0  0
    0.9176    2.7473   -1.0893 H   0  0  0  0  0  0  0  0  0  0  0  0
   -0.6342    2.6562    0.3659 C   0  0  0  0  0  0  0  0  0  0  0  0
   -1.1209    1.9316    1.0250 H   0  0  0  0  0  0  0  0  0  0  0  0
   -0.2757    3.4910    0.9758 H   0  0  0  0  0  0  0  0  0  0  0  0
   -1.3741    3.0466   -0.3390 H   0  0  0  0  0  0  0  0  0  0  0  0
    1.0143   -0.5628    0.9906 C   0  0  0  0  0  0  0  0  0  0  0  0
    2.2365   -0.6144    1.0395 O   0  0  0  0  0  0  0  0  0  0  0  0
    0.3117   -0.2200    2.1322 N   0  0  0  0  0  0  0  0  0  0  0  0
   -0.6996   -0.2552    2.0666 H   0  0  0  0  0  0  0  0  0  0  0  0
    0.9322   -0.1200    3.4467 C   0  0  0  0  0  0  0  0  0  0  0  0
    1.7309    0.6292    3.4381 H   0  0  0  0  0  0  0  0  0  0  0  0
    0.1903    0.1772    4.1939 H   0  0  0  0  0  0  0  0  0  0  0  0
    1.3569   -1.0851    3.7424 H   0  0  0  0  0  0  0  0  0  0  0  0
  1  2  1  0  0  0  0
  2  3  1  0  0  0  0
  2  4  1  0  0  0  0
  2  5  1  0  0  0  0
  5  6  2  0  0  0  0
  5  7  1  0  0  0  0
  7  8  1  0  0  0  0
  7  9  1  0  0  0  0
  9 10  1  0  0  0  0
  9 11  1  0  0  0  0
  9 24  1  0  0  0  0
 11 12  1  0  0  0  0
 11 13  1  0  0  0  0
 11 17  1  0  0  0  0
 13 14  1  0  0  0  0
 13 15  1  0  0  0  0
 13 16  1  0  0  0  0
 17 18  1  0  0  0  0
 17 19  1  0  0  0  0
 17 20  1  0  0  0  0
 20 21  1  0  0  0  0
 20 22  1  0  0  0  0
 20 23  1  0  0  0  0
 24 25  2  0  0  0  0
 24 26  1  0  0  0  0
 26 27  1  0  0  0  0
 26 28  1  0  0  0  0
 28 29  1  0  0  0  0
 28 30  1  0  0  0  0
 28 31  1  0  0  0  0
M  END
$$$$

  -OEChem-03222214053D

 31 30  0     1  0  0  0  0  0999 V2000
   -2.5078   -4.3445    0.3032 H   0  0  0  0  0  0  0  0  0  0  0  0
   -2.5620   -3.3007   -0.0192 C   0  0  0  0  0  0  0  0  0  0  0  0
   -3.2711   -2.7715    0.6220 H   0  0  0  0  0  0  0  0  0  0  0  0
   -2.9199   -3.2705   -1.0512 H   0  0  0  0  0  0  0  0  0  0  0  0
   -1.1925   -2.6540    0.0739 C   0  0  0  0  0  0  0  0  0  0  0  0
   -0.2409   -3.3034    0.4676 O   0  0  0  0  0  0  0  0  0  0  0  0
   -1.0373   -1.3288   -0.2823 N   0  0  0  0  0  0  0  0  0  0  0  0
   -1.8546   -0.8564   -0.6549 H   0  0  0  0  0  0  0  0  0  0  0  0
    0.2562   -0.6152   -0.3261 C   0  0  1  0  0  0  0  0  0  0  0  0
    0.9011   -1.2686   -0.9261 H   0  0  0  0  0  0  0  0  0  0  0  0
    0.1926    0.7162   -1.1564 C   0  0  1  0  0  0  0  0  0  0  0  0
    0.9954    0.6208   -1.8962 H   0  0  0  0  0  0  0  0  0  0  0  0
   -1.1070    0.8838   -1.9689 C   0  0  0  0  0  0  0  0  0  0  0  0
   -1.9806    0.9632   -1.3151 H   0  0  0  0  0  0  0  0  0  0  0  0
   -1.0542    1.7898   -2.5809 H   0  0  0  0  0  0  0  0  0  0  0  0
   -1.2472    0.0315   -2.6414 H   0  0  0  0  0  0  0  0  0  0  0  0
    0.5289    2.0220   -0.3937 C   0  0  0  0  0  0  0  0  0  0  0  0
    1.4529    1.8901    0.1774 H   0  0  0  0  0  0  0  0  0  0  0  0
    0.7278    2.8145   -1.1228 H   0  0  0  0  0  0  0  0  0  0  0  0
   -0.5814    2.5085    0.5474 C   0  0  0  0  0  0  0  0  0  0  0  0
   -0.9529    1.7042    1.1834 H   0  0  0  0  0  0  0  0  0  0  0  0
   -0.1992    3.3089    1.1882 H   0  0  0  0  0  0  0  0  0  0  0  0
   -1.4229    2.9067   -0.0272 H   0  0  0  0  0  0  0  0  0  0  0  0
    1.0115   -0.5567    1.0252 C   0  0  0  0  0  0  0  0  0  0  0  0
    2.2356   -0.5841    1.0324 O   0  0  0  0  0  0  0  0  0  0  0  0
    0.3499   -0.2481    2.1999 N   0  0  0  0  0  0  0  0  0  0  0  0
   -0.6617   -0.3148    2.1758 H   0  0  0  0  0  0  0  0  0  0  0  0
    1.0202   -0.1716    3.4914 C   0  0  0  0  0  0  0  0  0  0  0  0
    1.8035    0.5936    3.4724 H   0  0  0  0  0  0  0  0  0  0  0  0
    0.3029    0.0898    4.2751 H   0  0  0  0  0  0  0  0  0  0  0  0
    1.4749   -1.1356    3.7429 H   0  0  0  0  0  0  0  0  0  0  0  0
  1  2  1  0  0  0  0
  2  3  1  0  0  0  0
  2  4  1  0  0  0  0
  2  5  1  0  0  0  0
  5  6  2  0  0  0  0
  5  7  1  0  0  0  0
  7  8  1  0  0  0  0
  7  9  1  0  0  0  0
  9 10  1  0  0  0  0
  9 11  1  0  0  0  0
  9 24  1  0  0  0  0
 11 12  1  0  0  0  0
 11 13  1  0  0  0  0
 11 17  1  0  0  0  0
 13 14  1  0  0  0  0
 13 15  1  0  0  0  0
 13 16  1  0  0  0  0
 17 18  1  0  0  0  0
 17 19  1  0  0  0  0
 17 20  1  0  0  0  0
 20 21  1  0  0  0  0
 20 22  1  0  0  0  0
 20 23  1  0  0  0  0
 24 25  2  0  0  0  0
 24 26  1  0  0  0  0
 26 27  1  0  0  0  0
 26 28  1  0  0  0  0
 28 29  1  0  0  0  0
 28 30  1  0  0  0  0
 28 31  1  0  0  0  0
M  END
$$$$

  -OEChem-03222214053D

 31 30  0     1  0  0  0  0  0999 V2000
   -2.5561   -4.3457    0.1984 H   0  0  0  0  0  0  0  0  0  0  0  0
   -2.6077   -3.2923   -0.0920 C   0  0  0  0  0  0  0  0  0  0  0  0
   -3.3198   -2.7822    0.5611 H   0  0  0  0  0  0  0  0  0  0  0  0
   -2.9591   -3.2293   -1.1247 H   0  0  0  0  0  0  0  0  0  0  0  0
   -1.2379   -2.6512    0.0291 C   0  0  0  0  0  0  0  0  0  0  0  0
   -0.2867   -3.3177    0.3943 O   0  0  0  0  0  0  0  0  0  0  0  0
   -1.0810   -1.3106   -0.2633 N   0  0  0  0  0  0  0  0  0  0  0  0
   -1.8988   -0.8169   -0.6062 H   0  0  0  0  0  0  0  0  0  0  0  0
    0.2138   -0.5990   -0.2762 C   0  0  1  0  0  0  0  0  0  0  0  0
    0.8430   -1.2701   -0.8732 H   0  0  0  0  0  0  0  0  0  0  0  0
    0.2261    0.7125   -1.1400 C   0  0  1  0  0  0  0  0  0  0  0  0
    1.0413    0.5830   -1.8610 H   0  0  0  0  0  0  0  0  0  0  0  0
   -1.0597    0.8991   -1.9684 C   0  0  0  0  0  0  0  0  0  0  0  0
   -1.9284    1.0516   -1.3206 H   0  0  0  0  0  0  0  0  0  0  0  0
   -0.9648    1.7709   -2.6235 H   0  0  0  0  0  0  0  0  0  0  0  0
   -1.2381    0.0238   -2.6010 H   0  0  0  0  0  0  0  0  0  0  0  0
    0.5454    2.0370   -0.4070 C   0  0  0  0  0  0  0  0  0  0  0  0
    1.5453    1.9445    0.0302 H   0  0  0  0  0  0  0  0  0  0  0  0
    0.5937    2.8602   -1.1274 H   0  0  0  0  0  0  0  0  0  0  0  0
   -0.4305    2.4125    0.7170 C   0  0  0  0  0  0  0  0  0  0  0  0
   -1.2658    2.9833    0.3005 H   0  0  0  0  0  0  0  0  0  0  0  0
    0.0753    3.0364    1.4603 H   0  0  0  0  0  0  0  0  0  0  0  0
   -0.8516    1.5417    1.2159 H   0  0  0  0  0  0  0  0  0  0  0  0
    1.0007   -0.5882    1.0600 C   0  0  0  0  0  0  0  0  0  0  0  0
    2.2249   -0.5949    1.0307 O   0  0  0  0  0  0  0  0  0  0  0  0
    0.3777   -0.3292    2.2677 N   0  0  0  0  0  0  0  0  0  0  0  0
   -0.6339   -0.4002    2.2763 H   0  0  0  0  0  0  0  0  0  0  0  0
    1.0908   -0.2869    3.5379 C   0  0  0  0  0  0  0  0  0  0  0  0
    1.8662    0.4861    3.5169 H   0  0  0  0  0  0  0  0  0  0  0  0
    0.3982   -0.0576    4.3532 H   0  0  0  0  0  0  0  0  0  0  0  0
    1.5624   -1.2537    3.7435 H   0  0  0  0  0  0  0  0  0  0  0  0
  1  2  1  0  0  0  0
  2  3  1  0  0  0  0
  2  4  1  0  0  0  0
  2  5  1  0  0  0  0
  5  6  2  0  0  0  0
  5  7  1  0  0  0  0
  7  8  1  0  0  0  0
  7  9  1  0  0  0  0
  9 10  1  0  0  0  0
  9 11  1  0  0  0  0
  9 24  1  0  0  0  0
 11 12  1  0  0  0  0
 11 13  1  0  0  0  0
 11 17  1  0  0  0  0
 13 14  1  0  0  0  0
 13 15  1  0  0  0  0
 13 16  1  0  0  0  0
 17 18  1  0  0  0  0
 17 19  1  0  0  0  0
 17 20  1  0  0  0  0
 20 21  1  0  0  0  0
 20 22  1  0  0  0  0
 20 23  1  0  0  0  0
 24 25  2  0  0  0  0
 24 26  1  0  0  0  0
 26 27  1  0  0  0  0
 26 28  1  0  0  0  0
 28 29  1  0  0  0  0
 28 30  1  0  0  0  0
 28 31  1  0  0  0  0
M  END
$$$$

  -OEChem-03222214053D

 31 30  0     1  0  0  0  0  0999 V2000
   -2.6322   -4.3054    0.2315 H   0  0  0  0  0  0  0  0  0  0  0  0
   -2.6566   -3.2530   -0.0662 C   0  0  0  0  0  0  0  0  0  0  0  0
   -3.3550   -2.7206    0.5837 H   0  0  0  0  0  0  0  0  0  0  0  0
   -3.0069   -3.1887   -1.0992 H   0  0  0  0  0  0  0  0  0  0  0  0
   -1.2708   -2.6461    0.0504 C   0  0  0  0  0  0  0  0  0  0  0  0
   -0.3379   -3.3347    0.4214 O   0  0  0  0  0  0  0  0  0  0  0  0
   -1.0786   -1.3134   -0.2576 N   0  0  0  0  0  0  0  0  0  0  0  0
   -1.8842   -0.8028   -0.6050 H   0  0  0  0  0  0  0  0  0  0  0  0
    0.2334   -0.6309   -0.2719 C   0  0  1  0  0  0  0  0  0  0  0  0
    0.8578   -1.3191   -0.8542 H   0  0  0  0  0  0  0  0  0  0  0  0
    0.2800    0.6749   -1.1466 C   0  0  1  0  0  0  0  0  0  0  0  0
    1.0827    0.5091   -1.8741 H   0  0  0  0  0  0  0  0  0  0  0  0
   -1.0085    0.8659   -1.9731 C   0  0  0  0  0  0  0  0  0  0  0  0
   -1.8621    1.0817   -1.3233 H   0  0  0  0  0  0  0  0  0  0  0  0
   -0.8935    1.6985   -2.6744 H   0  0  0  0  0  0  0  0  0  0  0  0
   -1.2253   -0.0309   -2.5623 H   0  0  0  0  0  0  0  0  0  0  0  0
    0.6269    2.0329   -0.4781 C   0  0  0  0  0  0  0  0  0  0  0  0
    1.7070    2.0605   -0.2978 H   0  0  0  0  0  0  0  0  0  0  0  0
    0.4103    2.8403   -1.1853 H   0  0  0  0  0  0  0  0  0  0  0  0
   -0.0688    2.3557    0.8463 C   0  0  0  0  0  0  0  0  0  0  0  0
   -0.2432    3.4337    0.9165 H   0  0  0  0  0  0  0  0  0  0  0  0
    0.5617    2.0761    1.6927 H   0  0  0  0  0  0  0  0  0  0  0  0
   -1.0340    1.8465    0.9212 H   0  0  0  0  0  0  0  0  0  0  0  0
    0.9780   -0.6432    1.0844 C   0  0  0  0  0  0  0  0  0  0  0  0
    2.2019   -0.6707    1.0983 O   0  0  0  0  0  0  0  0  0  0  0  0
    0.3099   -0.3641    2.2638 N   0  0  0  0  0  0  0  0  0  0  0  0
   -0.7022   -0.4172    2.2282 H   0  0  0  0  0  0  0  0  0  0  0  0
    0.9684   -0.3566    3.5641 C   0  0  0  0  0  0  0  0  0  0  0  0
    1.7799    0.3786    3.5794 H   0  0  0  0  0  0  0  0  0  0  0  0
    0.2531   -0.0946    4.3493 H   0  0  0  0  0  0  0  0  0  0  0  0
    1.3841   -1.3449    3.7871 H   0  0  0  0  0  0  0  0  0  0  0  0
  1  2  1  0  0  0  0
  2  3  1  0  0  0  0
  2  4  1  0  0  0  0
  2  5  1  0  0  0  0
  5  6  2  0  0  0  0
  5  7  1  0  0  0  0
  7  8  1  0  0  0  0
  7  9  1  0  0  0  0
  9 10  1  0  0  0  0
  9 11  1  0  0  0  0
  9 24  1  0  0  0  0
 11 12  1  0  0  0  0
 11 13  1  0  0  0  0
 11 17  1  0  0  0  0
 13 14  1  0  0  0  0
 13 15  1  0  0  0  0
 13 16  1  0  0  0  0
 17 18  1  0  0  0  0
 17 19  1  0  0  0  0
 17 20  1  0  0  0  0
 20 21  1  0  0  0  0
 20 22  1  0  0  0  0
 20 23  1  0  0  0  0
 24 25  2  0  0  0  0
 24 26  1  0  0  0  0
 26 27  1  0  0  0  0
 26 28  1  0  0  0  0
 28 29  1  0  0  0  0
 28 30  1  0  0  0  0
 28 31  1  0  0  0  0
M  END
$$$$

  -OEChem-03222214053D

 31 30  0     1  0  0  0  0  0999 V2000
   -2.6260   -4.3122    0.2182 H   0  0  0  0  0  0  0  0  0  0  0  0
   -2.6534   -3.2554   -0.0628 C   0  0  0  0  0  0  0  0  0  0  0  0
   -3.3358   -2.7306    0.6102 H   0  0  0  0  0  0  0  0  0  0  0  0
   -3.0259   -3.1739   -1.0869 H   0  0  0  0  0  0  0  0  0  0  0  0
   -1.2637   -2.6543    0.0327 C   0  0  0  0  0  0  0  0  0  0  0  0
   -0.3222   -3.3529    0.3608 O   0  0  0  0  0  0  0  0  0  0  0  0
   -1.0793   -1.3139   -0.2446 N   0  0  0  0  0  0  0  0  0  0  0  0
   -1.8946   -0.7945   -0.5542 H   0  0  0  0  0  0  0  0  0  0  0  0
    0.2299   -0.6255   -0.2682 C   0  0  1  0  0  0  0  0  0  0  0  0
    0.8456   -1.3052   -0.8697 H   0  0  0  0  0  0  0  0  0  0  0  0
    0.2596    0.6867   -1.1422 C   0  0  1  0  0  0  0  0  0  0  0  0
    1.0540    0.5187   -1.8783 H   0  0  0  0  0  0  0  0  0  0  0  0
   -1.0387    0.8510   -1.9615 C   0  0  0  0  0  0  0  0  0  0  0  0
   -1.8851    1.0796   -1.3060 H   0  0  0  0  0  0  0  0  0  0  0  0
   -0.9359    1.6653   -2.6858 H   0  0  0  0  0  0  0  0  0  0  0  0
   -1.2588   -0.0597   -2.5277 H   0  0  0  0  0  0  0  0  0  0  0  0
    0.6004    2.0737   -0.5157 C   0  0  0  0  0  0  0  0  0  0  0  0
    1.6833    2.2164   -0.5977 H   0  0  0  0  0  0  0  0  0  0  0  0
    0.1411    2.8641   -1.1181 H   0  0  0  0  0  0  0  0  0  0  0  0
    0.2341    2.3298    0.9447 C   0  0  0  0  0  0  0  0  0  0  0  0
    1.0094    1.9487    1.6130 H   0  0  0  0  0  0  0  0  0  0  0  0
    0.1594    3.4072    1.1202 H   0  0  0  0  0  0  0  0  0  0  0  0
   -0.7307    1.8764    1.1899 H   0  0  0  0  0  0  0  0  0  0  0  0
    0.9956   -0.6736    1.0752 C   0  0  0  0  0  0  0  0  0  0  0  0
    2.2196   -0.7046    1.0705 O   0  0  0  0  0  0  0  0  0  0  0  0
    0.3431   -0.4288    2.2717 N   0  0  0  0  0  0  0  0  0  0  0  0
   -0.6695   -0.4801    2.2483 H   0  0  0  0  0  0  0  0  0  0  0  0
    1.0191   -0.4634    3.5624 C   0  0  0  0  0  0  0  0  0  0  0  0
    1.8392    0.2620    3.5867 H   0  0  0  0  0  0  0  0  0  0  0  0
    0.3170   -0.2148    4.3637 H   0  0  0  0  0  0  0  0  0  0  0  0
    1.4265   -1.4618    3.7528 H   0  0  0  0  0  0  0  0  0  0  0  0
  1  2  1  0  0  0  0
  2  3  1  0  0  0  0
  2  4  1  0  0  0  0
  2  5  1  0  0  0  0
  5  6  2  0  0  0  0
  5  7  1  0  0  0  0
  7  8  1  0  0  0  0
  7  9  1  0  0  0  0
  9 10  1  0  0  0  0
  9 11  1  0  0  0  0
  9 24  1  0  0  0  0
 11 12  1  0  0  0  0
 11 13  1  0  0  0  0
 11 17  1  0  0  0  0
 13 14  1  0  0  0  0
 13 15  1  0  0  0  0
 13 16  1  0  0  0  0
 17 18  1  0  0  0  0
 17 19  1  0  0  0  0
 17 20  1  0  0  0  0
 20 21  1  0  0  0  0
 20 22  1  0  0  0  0
 20 23  1  0  0  0  0
 24 25  2  0  0  0  0
 24 26  1  0  0  0  0
 26 27  1  0  0  0  0
 26 28  1  0  0  0  0
 28 29  1  0  0  0  0
 28 30  1  0  0  0  0
 28 31  1  0  0  0  0
M  END
$$$$

  -OEChem-03222214053D

 31 30  0     1  0  0  0  0  0999 V2000
   -2.6031   -4.3286    0.2190 H   0  0  0  0  0  0  0  0  0  0  0  0
   -2.6355   -3.2704   -0.0557 C   0  0  0  0  0  0  0  0  0  0  0  0
   -3.3169   -2.7523    0.6232 H   0  0  0  0  0  0  0  0  0  0  0  0
   -3.0125   -3.1845   -1.0775 H   0  0  0  0  0  0  0  0  0  0  0  0
   -1.2475   -2.6647    0.0366 C   0  0  0  0  0  0  0  0  0  0  0  0
   -0.3018   -3.3634    0.3525 O   0  0  0  0  0  0  0  0  0  0  0  0
   -1.0688   -1.3218   -0.2335 N   0  0  0  0  0  0  0  0  0  0  0  0
   -1.8878   -0.8024   -0.5333 H   0  0  0  0  0  0  0  0  0  0  0  0
    0.2383   -0.6292   -0.2602 C   0  0  1  0  0  0  0  0  0  0  0  0
    0.8546   -1.3022   -0.8688 H   0  0  0  0  0  0  0  0  0  0  0  0
    0.2394    0.6871   -1.1338 C   0  0  1  0  0  0  0  0  0  0  0  0
    1.0479    0.5198   -1.8550 H   0  0  0  0  0  0  0  0  0  0  0  0
   -1.0403    0.8108   -1.9888 C   0  0  0  0  0  0  0  0  0  0  0  0
   -1.9084    1.0297   -1.3592 H   0  0  0  0  0  0  0  0  0  0  0  0
   -0.9341    1.6180   -2.7210 H   0  0  0  0  0  0  0  0  0  0  0  0
   -1.2254   -0.1124   -2.5474 H   0  0  0  0  0  0  0  0  0  0  0  0
    0.5635    2.1012   -0.5449 C   0  0  0  0  0  0  0  0  0  0  0  0
    1.5615    2.3826   -0.8979 H   0  0  0  0  0  0  0  0  0  0  0  0
   -0.1294    2.8339   -0.9714 H   0  0  0  0  0  0  0  0  0  0  0  0
    0.5574    2.3244    0.9648 C   0  0  0  0  0  0  0  0  0  0  0  0
    1.4300    1.8658    1.4361 H   0  0  0  0  0  0  0  0  0  0  0  0
    0.6040    3.3972    1.1755 H   0  0  0  0  0  0  0  0  0  0  0  0
   -0.3625    1.9336    1.4081 H   0  0  0  0  0  0  0  0  0  0  0  0
    1.0079   -0.6857    1.0800 C   0  0  0  0  0  0  0  0  0  0  0  0
    2.2311   -0.7418    1.0729 O   0  0  0  0  0  0  0  0  0  0  0  0
    0.3593   -0.4502    2.2802 N   0  0  0  0  0  0  0  0  0  0  0  0
   -0.6537   -0.4902    2.2574 H   0  0  0  0  0  0  0  0  0  0  0  0
    1.0372   -0.5074    3.5691 C   0  0  0  0  0  0  0  0  0  0  0  0
    1.8628    0.2113    3.6009 H   0  0  0  0  0  0  0  0  0  0  0  0
    0.3391   -0.2643    4.3756 H   0  0  0  0  0  0  0  0  0  0  0  0
    1.4373   -1.5115    3.7450 H   0  0  0  0  0  0  0  0  0  0  0  0
  1  2  1  0  0  0  0
  2  3  1  0  0  0  0
  2  4  1  0  0  0  0
  2  5  1  0  0  0  0
  5  6  2  0  0  0  0
  5  7  1  0  0  0  0
  7  8  1  0  0  0  0
  7  9  1  0  0  0  0
  9 10  1  0  0  0  0
  9 11  1  0  0  0  0
  9 24  1  0  0  0  0
 11 12  1  0  0  0  0
 11 13  1  0  0  0  0
 11 17  1  0  0  0  0
 13 14  1  0  0  0  0
 13 15  1  0  0  0  0
 13 16  1  0  0  0  0
 17 18  1  0  0  0  0
 17 19  1  0  0  0  0
 17 20  1  0  0  0  0
 20 21  1  0  0  0  0
 20 22  1  0  0  0  0
 20 23  1  0  0  0  0
 24 25  2  0  0  0  0
 24 26  1  0  0  0  0
 26 27  1  0  0  0  0
 26 28  1  0  0  0  0
 28 29  1  0  0  0  0
 28 30  1  0  0  0  0
 28 31  1  0  0  0  0
M  END
$$$$

  -OEChem-03222214053D

 31 30  0     1  0  0  0  0  0999 V2000
   -2.5851   -4.3310    0.3141 H   0  0  0  0  0  0  0  0  0  0  0  0
   -2.6157   -3.2823    0.0045 C   0  0  0  0  0  0  0  0  0  0  0  0
   -3.2839   -2.7378    0.6758 H   0  0  0  0  0  0  0  0  0  0  0  0
   -3.0079   -3.2282   -1.0139 H   0  0  0  0  0  0  0  0  0  0  0  0
   -1.2230   -2.6825    0.0565 C   0  0  0  0  0  0  0  0  0  0  0  0
   -0.2735   -3.3827    0.3567 O   0  0  0  0  0  0  0  0  0  0  0  0
   -1.0448   -1.3437   -0.2340 N   0  0  0  0  0  0  0  0  0  0  0  0
   -1.8690   -0.8227   -0.5161 H   0  0  0  0  0  0  0  0  0  0  0  0
    0.2616   -0.6501   -0.2723 C   0  0  1  0  0  0  0  0  0  0  0  0
    0.8833   -1.3174   -0.8822 H   0  0  0  0  0  0  0  0  0  0  0  0
    0.2239    0.6709   -1.1398 C   0  0  1  0  0  0  0  0  0  0  0  0
    1.0418    0.5084   -1.8515 H   0  0  0  0  0  0  0  0  0  0  0  0
   -1.0472    0.7682   -2.0099 C   0  0  0  0  0  0  0  0  0  0  0  0
   -1.9299    0.9563   -1.3905 H   0  0  0  0  0  0  0  0  0  0  0  0
   -0.9523    1.5874   -2.7300 H   0  0  0  0  0  0  0  0  0  0  0  0
   -1.1991   -0.1544   -2.5795 H   0  0  0  0  0  0  0  0  0  0  0  0
    0.5362    2.1019   -0.5819 C   0  0  0  0  0  0  0  0  0  0  0  0
    1.3546    2.5133   -1.1825 H   0  0  0  0  0  0  0  0  0  0  0  0
   -0.3326    2.7434   -0.7629 H   0  0  0  0  0  0  0  0  0  0  0  0
    0.9088    2.3204    0.8819 C   0  0  0  0  0  0  0  0  0  0  0  0
    1.8405    1.8087    1.1355 H   0  0  0  0  0  0  0  0  0  0  0  0
    0.1017    1.9898    1.5393 H   0  0  0  0  0  0  0  0  0  0  0  0
    1.0642    3.3885    1.0613 H   0  0  0  0  0  0  0  0  0  0  0  0
    1.0205   -0.6931    1.0739 C   0  0  0  0  0  0  0  0  0  0  0  0
    2.2413   -0.7891    1.0816 O   0  0  0  0  0  0  0  0  0  0  0  0
    0.3613   -0.4419    2.2647 N   0  0  0  0  0  0  0  0  0  0  0  0
   -0.6521   -0.4466    2.2297 H   0  0  0  0  0  0  0  0  0  0  0  0
    1.0251   -0.4770    3.5613 C   0  0  0  0  0  0  0  0  0  0  0  0
    1.8228    0.2721    3.6033 H   0  0  0  0  0  0  0  0  0  0  0  0
    0.3084   -0.2623    4.3595 H   0  0  0  0  0  0  0  0  0  0  0  0
    1.4601   -1.4659    3.7408 H   0  0  0  0  0  0  0  0  0  0  0  0
  1  2  1  0  0  0  0
  2  3  1  0  0  0  0
  2  4  1  0  0  0  0
  2  5  1  0  0  0  0
  5  6  2  0  0  0  0
  5  7  1  0  0  0  0
  7  8  1  0  0  0  0
  7  9  1  0  0  0  0
  9 10  1  0  0  0  0
  9 11  1  0  0  0  0
  9 24  1  0  0  0  0
 11 12  1  0  0  0  0
 11 13  1  0  0  0  0
 11 17  1  0  0  0  0
 13 14  1  0  0  0  0
 13 15  1  0  0  0  0
 13 16  1  0  0  0  0
 17 18  1  0  0  0  0
 17 19  1  0  0  0  0
 17 20  1  0  0  0  0
 20 21  1  0  0  0  0
 20 22  1  0  0  0  0
 20 23  1  0  0  0  0
 24 25  2  0  0  0  0
 24 26  1  0  0  0  0
 26 27  1  0  0  0  0
 26 28  1  0  0  0  0
 28 29  1  0  0  0  0
 28 30  1  0  0  0  0
 28 31  1  0  0  0  0
M  END
$$$$

  -OEChem-03222214053D

 31 30  0     1  0  0  0  0  0999 V2000
   -2.7418   -4.2049    0.3781 H   0  0  0  0  0  0  0  0  0  0  0  0
   -2.7207   -3.1644    0.0414 C   0  0  0  0  0  0  0  0  0  0  0  0
   -3.3617   -2.5706    0.6971 H   0  0  0  0  0  0  0  0  0  0  0  0
   -3.1087   -3.1177   -0.9789 H   0  0  0  0  0  0  0  0  0  0  0  0
   -1.3004   -2.6323    0.0809 C   0  0  0  0  0  0  0  0  0  0  0  0
   -0.3875   -3.3705    0.4020 O   0  0  0  0  0  0  0  0  0  0  0  0
   -1.0562   -1.3129   -0.2492 N   0  0  0  0  0  0  0  0  0  0  0  0
   -1.8528   -0.7619   -0.5521 H   0  0  0  0  0  0  0  0  0  0  0  0
    0.2815   -0.6811   -0.2919 C   0  0  1  0  0  0  0  0  0  0  0  0
    0.8881   -1.3725   -0.8894 H   0  0  0  0  0  0  0  0  0  0  0  0
    0.2749    0.6453   -1.1527 C   0  0  1  0  0  0  0  0  0  0  0  0
    1.0875    0.4539   -1.8631 H   0  0  0  0  0  0  0  0  0  0  0  0
   -0.9909    0.7978   -2.0215 C   0  0  0  0  0  0  0  0  0  0  0  0
   -1.8680    1.0070   -1.4013 H   0  0  0  0  0  0  0  0  0  0  0  0
   -0.8671    1.6246   -2.7287 H   0  0  0  0  0  0  0  0  0  0  0  0
   -1.1734   -0.1111   -2.6039 H   0  0  0  0  0  0  0  0  0  0  0  0
    0.6444    2.0638   -0.6054 C   0  0  0  0  0  0  0  0  0  0  0  0
    1.2494    2.5588   -1.3728 H   0  0  0  0  0  0  0  0  0  0  0  0
   -0.2795    2.6444   -0.5123 H   0  0  0  0  0  0  0  0  0  0  0  0
    1.3714    2.2401    0.7257 C   0  0  0  0  0  0  0  0  0  0  0  0
    2.2887    1.6461    0.7542 H   0  0  0  0  0  0  0  0  0  0  0  0
    0.7251    1.9789    1.5647 H   0  0  0  0  0  0  0  0  0  0  0  0
    1.6533    3.2901    0.8489 H   0  0  0  0  0  0  0  0  0  0  0  0
    0.9993   -0.7283    1.0764 C   0  0  0  0  0  0  0  0  0  0  0  0
    2.2062   -0.9275    1.1292 O   0  0  0  0  0  0  0  0  0  0  0  0
    0.3169   -0.4131    2.2386 N   0  0  0  0  0  0  0  0  0  0  0  0
   -0.6923   -0.3484    2.1647 H   0  0  0  0  0  0  0  0  0  0  0  0
    0.9236   -0.5029    3.5604 C   0  0  0  0  0  0  0  0  0  0  0  0
    1.8106    0.1366    3.6202 H   0  0  0  0  0  0  0  0  0  0  0  0
    0.2130   -0.1773    4.3258 H   0  0  0  0  0  0  0  0  0  0  0  0
    1.2187   -1.5354    3.7753 H   0  0  0  0  0  0  0  0  0  0  0  0
  1  2  1  0  0  0  0
  2  3  1  0  0  0  0
  2  4  1  0  0  0  0
  2  5  1  0  0  0  0
  5  6  2  0  0  0  0
  5  7  1  0  0  0  0
  7  8  1  0  0  0  0
  7  9  1  0  0  0  0
  9 10  1  0  0  0  0
  9 11  1  0  0  0  0
  9 24  1  0  0  0  0
 11 12  1  0  0  0  0
 11 13  1  0  0  0  0
 11 17  1  0  0  0  0
 13 14  1  0  0  0  0
 13 15  1  0  0  0  0
 13 16  1  0  0  0  0
 17 18  1  0  0  0  0
 17 19  1  0  0  0  0
 17 20  1  0  0  0  0
 20 21  1  0  0  0  0
 20 22  1  0  0  0  0
 20 23  1  0  0  0  0
 24 25  2  0  0  0  0
 24 26  1  0  0  0  0
 26 27  1  0  0  0  0
 26 28  1  0  0  0  0
 28 29  1  0  0  0  0
 28 30  1  0  0  0  0
 28 31  1  0  0  0  0
M  END
$$$$

  -OEChem-03222214053D

 31 30  0     1  0  0  0  0  0999 V2000
   -2.6636   -4.2297    0.3680 H   0  0  0  0  0  0  0  0  0  0  0  0
   -2.6543   -3.1899    0.0289 C   0  0  0  0  0  0  0  0  0  0  0  0
   -3.3007   -2.6015    0.6844 H   0  0  0  0  0  0  0  0  0  0  0  0
   -3.0452   -3.1498   -0.9908 H   0  0  0  0  0  0  0  0  0  0  0  0
   -1.2399   -2.6419    0.0641 C   0  0  0  0  0  0  0  0  0  0  0  0
   -0.3196   -3.3652    0.3975 O   0  0  0  0  0  0  0  0  0  0  0  0
   -1.0098   -1.3263   -0.2903 N   0  0  0  0  0  0  0  0  0  0  0  0
   -1.8119   -0.7928   -0.6094 H   0  0  0  0  0  0  0  0  0  0  0  0
    0.3201   -0.6777   -0.3405 C   0  0  1  0  0  0  0  0  0  0  0  0
    0.9474   -1.3436   -0.9454 H   0  0  0  0  0  0  0  0  0  0  0  0
    0.2602    0.6731   -1.1594 C   0  0  1  0  0  0  0  0  0  0  0  0
    1.0468    0.5241   -1.9078 H   0  0  0  0  0  0  0  0  0  0  0  0
   -1.0438    0.8497   -1.9647 C   0  0  0  0  0  0  0  0  0  0  0  0
   -1.8954    1.0193   -1.2984 H   0  0  0  0  0  0  0  0  0  0  0  0
   -0.9608    1.7100   -2.6367 H   0  0  0  0  0  0  0  0  0  0  0  0
   -1.2406   -0.0332   -2.5813 H   0  0  0  0  0  0  0  0  0  0  0  0
    0.6204    2.0692   -0.5617 C   0  0  0  0  0  0  0  0  0  0  0  0
    0.9591    2.6982   -1.3921 H   0  0  0  0  0  0  0  0  0  0  0  0
   -0.2979    2.5215   -0.1728 H   0  0  0  0  0  0  0  0  0  0  0  0
    1.6609    2.1930    0.5521 C   0  0  0  0  0  0  0  0  0  0  0  0
    2.5486    1.5968    0.3215 H   0  0  0  0  0  0  0  0  0  0  0  0
    1.9725    3.2380    0.6430 H   0  0  0  0  0  0  0  0  0  0  0  0
    1.2539    1.8955    1.5189 H   0  0  0  0  0  0  0  0  0  0  0  0
    1.0137   -0.7008    1.0407 C   0  0  0  0  0  0  0  0  0  0  0  0
    2.2179   -0.9062    1.1238 O   0  0  0  0  0  0  0  0  0  0  0  0
    0.3030   -0.3753    2.1835 N   0  0  0  0  0  0  0  0  0  0  0  0
   -0.7040   -0.3134    2.0845 H   0  0  0  0  0  0  0  0  0  0  0  0
    0.8764   -0.4614    3.5204 C   0  0  0  0  0  0  0  0  0  0  0  0
    1.7689    0.1685    3.5972 H   0  0  0  0  0  0  0  0  0  0  0  0
    0.1514   -0.1218    4.2660 H   0  0  0  0  0  0  0  0  0  0  0  0
    1.1547   -1.4955    3.7498 H   0  0  0  0  0  0  0  0  0  0  0  0
  1  2  1  0  0  0  0
  2  3  1  0  0  0  0
  2  4  1  0  0  0  0
  2  5  1  0  0  0  0
  5  6  2  0  0  0  0
  5  7  1  0  0  0  0
  7  8  1  0  0  0  0
  7  9  1  0  0  0  0
  9 10  1  0  0  0  0
  9 11  1  0  0  0  0
  9 24  1  0  0  0  0
 11 12  1  0  0  0  0
 11 13  1  0  0  0  0
 11 17  1  0  0  0  0
 13 14  1  0  0  0  0
 13 15  1  0  0  0  0
 13 16  1  0  0  0  0
 17 18  1  0  0  0  0
 17 19  1  0  0  0  0
 17 20  1  0  0  0  0
 20 21  1  0  0  0  0
 20 22  1  0  0  0  0
 20 23  1  0  0  0  0
 24 25  2  0  0  0  0
 24 26  1  0  0  0  0
 26 27  1  0  0  0  0
 26 28  1  0  0  0  0
 28 29  1  0  0  0  0
 28 30  1  0  0  0  0
 28 31  1  0  0  0  0
M  END
$$$$

  -OEChem-03222214053D

 31 30  0     1  0  0  0  0  0999 V2000
   -2.6011   -4.2409    0.4194 H   0  0  0  0  0  0  0  0  0  0  0  0
   -2.6034   -3.2104    0.0528 C   0  0  0  0  0  0  0  0  0  0  0  0
   -3.2566   -2.6120    0.6921 H   0  0  0  0  0  0  0  0  0  0  0  0
   -2.9937   -3.2019   -0.9675 H   0  0  0  0  0  0  0  0  0  0  0  0
   -1.1952   -2.6458    0.0741 C   0  0  0  0  0  0  0  0  0  0  0  0
   -0.2683   -3.3478    0.4337 O   0  0  0  0  0  0  0  0  0  0  0  0
   -0.9790   -1.3399   -0.3224 N   0  0  0  0  0  0  0  0  0  0  0  0
   -1.7852   -0.8280   -0.6656 H   0  0  0  0  0  0  0  0  0  0  0  0
    0.3438   -0.6774   -0.3825 C   0  0  1  0  0  0  0  0  0  0  0  0
    0.9890   -1.3322   -0.9799 H   0  0  0  0  0  0  0  0  0  0  0  0
    0.2535    0.6809   -1.1846 C   0  0  1  0  0  0  0  0  0  0  0  0
    1.0087    0.5601   -1.9695 H   0  0  0  0  0  0  0  0  0  0  0  0
   -1.0877    0.8800   -1.9220 C   0  0  0  0  0  0  0  0  0  0  0  0
   -1.9059    1.0335   -1.2112 H   0  0  0  0  0  0  0  0  0  0  0  0
   -1.0365    1.7568   -2.5755 H   0  0  0  0  0  0  0  0  0  0  0  0
   -1.3155    0.0137   -2.5516 H   0  0  0  0  0  0  0  0  0  0  0  0
    0.6162    2.0472   -0.5309 C   0  0  0  0  0  0  0  0  0  0  0  0
    0.7067    2.7821   -1.3379 H   0  0  0  0  0  0  0  0  0  0  0  0
   -0.2163    2.3657    0.1048 H   0  0  0  0  0  0  0  0  0  0  0  0
    1.8951    2.1439    0.3065 C   0  0  0  0  0  0  0  0  0  0  0  0
    2.6970    1.5500   -0.1432 H   0  0  0  0  0  0  0  0  0  0  0  0
    2.2259    3.1860    0.3490 H   0  0  0  0  0  0  0  0  0  0  0  0
    1.7322    1.8186    1.3356 H   0  0  0  0  0  0  0  0  0  0  0  0
    1.0171   -0.6502    1.0078 C   0  0  0  0  0  0  0  0  0  0  0  0
    2.2180   -0.8627    1.1191 O   0  0  0  0  0  0  0  0  0  0  0  0
    0.2839   -0.2949    2.1269 N   0  0  0  0  0  0  0  0  0  0  0  0
   -0.7214   -0.2414    2.0067 H   0  0  0  0  0  0  0  0  0  0  0  0
    0.8315   -0.3419    3.4763 C   0  0  0  0  0  0  0  0  0  0  0  0
    1.7112    0.3053    3.5559 H   0  0  0  0  0  0  0  0  0  0  0  0
    0.0856    0.0006    4.1995 H   0  0  0  0  0  0  0  0  0  0  0  0
    1.1229   -1.3656    3.7340 H   0  0  0  0  0  0  0  0  0  0  0  0
  1  2  1  0  0  0  0
  2  3  1  0  0  0  0
  2  4  1  0  0  0  0
  2  5  1  0  0  0  0
  5  6  2  0  0  0  0
  5  7  1  0  0  0  0
  7  8  1  0  0  0  0
  7  9  1  0  0  0  0
  9 10  1  0  0  0  0
  9 11  1  0  0  0  0
  9 24  1  0  0  0  0
 11 12  1  0  0  0  0
 11 13  1  0  0  0  0
 11 17  1  0  0  0  0
 13 14  1  0  0  0  0
 13 15  1  0  0  0  0
 13 16  1  0  0  0  0
 17 18  1  0  0  0  0
 17 19  1  0  0  0  0
 17 20  1  0  0  0  0
 20 21  1  0  0  0  0
 20 22  1  0  0  0  0
 20 23  1  0  0  0  0
 24 25  2  0  0  0  0
 24 26  1  0  0  0  0
 26 27  1  0  0  0  0
 26 28  1  0  0  0  0
 28 29  1  0  0  0  0
 28 30  1  0  0  0  0
 28 31  1  0  0  0  0
M  END
$$$$

  -OEChem-03222214053D

 31 30  0     1  0  0  0  0  0999 V2000
   -2.5517   -4.2609    0.4029 H   0  0  0  0  0  0  0  0  0  0  0  0
   -2.5698   -3.2289    0.0407 C   0  0  0  0  0  0  0  0  0  0  0  0
   -3.2377   -2.6449    0.6782 H   0  0  0  0  0  0  0  0  0  0  0  0
   -2.9533   -3.2230   -0.9825 H   0  0  0  0  0  0  0  0  0  0  0  0
   -1.1721   -2.6401    0.0748 C   0  0  0  0  0  0  0  0  0  0  0  0
   -0.2403   -3.3196    0.4633 O   0  0  0  0  0  0  0  0  0  0  0  0
   -0.9705   -1.3392   -0.3449 N   0  0  0  0  0  0  0  0  0  0  0  0
   -1.7785   -0.8484   -0.7134 H   0  0  0  0  0  0  0  0  0  0  0  0
    0.3446   -0.6619   -0.4052 C   0  0  1  0  0  0  0  0  0  0  0  0
    1.0017   -1.3117   -0.9952 H   0  0  0  0  0  0  0  0  0  0  0  0
    0.2428    0.6943   -1.2051 C   0  0  1  0  0  0  0  0  0  0  0  0
    0.9763    0.5952   -2.0127 H   0  0  0  0  0  0  0  0  0  0  0  0
   -1.1206    0.9073   -1.8976 C   0  0  0  0  0  0  0  0  0  0  0  0
   -1.9150    1.0533   -1.1586 H   0  0  0  0  0  0  0  0  0  0  0  0
   -1.0881    1.7920   -2.5414 H   0  0  0  0  0  0  0  0  0  0  0  0
   -1.3712    0.0510   -2.5320 H   0  0  0  0  0  0  0  0  0  0  0  0
    0.6061    2.0262   -0.4904 C   0  0  0  0  0  0  0  0  0  0  0  0
    0.4713    2.8406   -1.2099 H   0  0  0  0  0  0  0  0  0  0  0  0
   -0.0935    2.2034    0.3329 H   0  0  0  0  0  0  0  0  0  0  0  0
    2.0382    2.1465    0.0462 C   0  0  0  0  0  0  0  0  0  0  0  0
    2.7404    1.6001   -0.5912 H   0  0  0  0  0  0  0  0  0  0  0  0
    2.3373    3.1989    0.0627 H   0  0  0  0  0  0  0  0  0  0  0  0
    2.1175    1.7744    1.0697 H   0  0  0  0  0  0  0  0  0  0  0  0
    1.0168   -0.5929    0.9849 C   0  0  0  0  0  0  0  0  0  0  0  0
    2.2154   -0.8144    1.1033 O   0  0  0  0  0  0  0  0  0  0  0  0
    0.2820   -0.2211    2.0971 N   0  0  0  0  0  0  0  0  0  0  0  0
   -0.7229   -0.1645    1.9750 H   0  0  0  0  0  0  0  0  0  0  0  0
    0.8288   -0.2437    3.4472 C   0  0  0  0  0  0  0  0  0  0  0  0
    1.6930    0.4245    3.5221 H   0  0  0  0  0  0  0  0  0  0  0  0
    0.0743    0.0871    4.1669 H   0  0  0  0  0  0  0  0  0  0  0  0
    1.1434   -1.2580    3.7144 H   0  0  0  0  0  0  0  0  0  0  0  0
  1  2  1  0  0  0  0
  2  3  1  0  0  0  0
  2  4  1  0  0  0  0
  2  5  1  0  0  0  0
  5  6  2  0  0  0  0
  5  7  1  0  0  0  0
  7  8  1  0  0  0  0
  7  9  1  0  0  0  0
  9 10  1  0  0  0  0
  9 11  1  0  0  0  0
  9 24  1  0  0  0  0
 11 12  1  0  0  0  0
 11 13  1  0  0  0  0
 11 17  1  0  0  0  0
 13 14  1  0  0  0  0
 13 15  1  0  0  0  0
 13 16  1  0  0  0  0
 17 18  1  0  0  0  0
 17 19  1  0  0  0  0
 17 20  1  0  0  0  0
 20 21  1  0  0  0  0
 20 22  1  0  0  0  0
 20 23  1  0  0  0  0
 24 25  2  0  0  0  0
 24 26  1  0  0  0  0
 26 27  1  0  0  0  0
 26 28  1  0  0  0  0
 28 29  1  0  0  0  0
 28 30  1  0  0  0  0
 28 31  1  0  0  0  0
M  END
$$$$

  -OEChem-03222214053D

 31 30  0     1  0  0  0  0  0999 V2000
   -2.5196   -4.2593    0.4241 H   0  0  0  0  0  0  0  0  0  0  0  0
   -2.5459   -3.2313    0.0512 C   0  0  0  0  0  0  0  0  0  0  0  0
   -3.2221   -2.6470    0.6798 H   0  0  0  0  0  0  0  0  0  0  0  0
   -2.9248   -3.2394   -0.9736 H   0  0  0  0  0  0  0  0  0  0  0  0
   -1.1538   -2.6292    0.0851 C   0  0  0  0  0  0  0  0  0  0  0  0
   -0.2184   -3.2953    0.4879 O   0  0  0  0  0  0  0  0  0  0  0  0
   -0.9617   -1.3318   -0.3491 N   0  0  0  0  0  0  0  0  0  0  0  0
   -1.7707   -0.8554   -0.7341 H   0  0  0  0  0  0  0  0  0  0  0  0
    0.3472   -0.6428   -0.4084 C   0  0  1  0  0  0  0  0  0  0  0  0
    1.0145   -1.2917   -0.9877 H   0  0  0  0  0  0  0  0  0  0  0  0
    0.2413    0.7050   -1.2216 C   0  0  1  0  0  0  0  0  0  0  0  0
    0.9658    0.6109   -2.0379 H   0  0  0  0  0  0  0  0  0  0  0  0
   -1.1294    0.9121   -1.9023 C   0  0  0  0  0  0  0  0  0  0  0  0
   -1.9156    1.0684   -1.1567 H   0  0  0  0  0  0  0  0  0  0  0  0
   -1.1018    1.7885   -2.5577 H   0  0  0  0  0  0  0  0  0  0  0  0
   -1.3881    0.0492   -2.5242 H   0  0  0  0  0  0  0  0  0  0  0  0
    0.5983    2.0222   -0.4796 C   0  0  0  0  0  0  0  0  0  0  0  0
    0.2426    2.8689   -1.0755 H   0  0  0  0  0  0  0  0  0  0  0  0
    0.0746    2.0678    0.4800 H   0  0  0  0  0  0  0  0  0  0  0  0
    2.0999    2.2482   -0.2609 C   0  0  0  0  0  0  0  0  0  0  0  0
    2.6531    2.0783   -1.1896 H   0  0  0  0  0  0  0  0  0  0  0  0
    2.2717    3.2811    0.0562 H   0  0  0  0  0  0  0  0  0  0  0  0
    2.5084    1.5981    0.5119 H   0  0  0  0  0  0  0  0  0  0  0  0
    1.0118   -0.5488    0.9862 C   0  0  0  0  0  0  0  0  0  0  0  0
    2.2048   -0.7885    1.1201 O   0  0  0  0  0  0  0  0  0  0  0  0
    0.2705   -0.1700    2.0918 N   0  0  0  0  0  0  0  0  0  0  0  0
   -0.7338   -0.1173    1.9633 H   0  0  0  0  0  0  0  0  0  0  0  0
    0.8074   -0.1948    3.4462 C   0  0  0  0  0  0  0  0  0  0  0  0
    1.6779    0.4648    3.5253 H   0  0  0  0  0  0  0  0  0  0  0  0
    0.0515    0.1456    4.1601 H   0  0  0  0  0  0  0  0  0  0  0  0
    1.1098   -1.2117    3.7181 H   0  0  0  0  0  0  0  0  0  0  0  0
  1  2  1  0  0  0  0
  2  3  1  0  0  0  0
  2  4  1  0  0  0  0
  2  5  1  0  0  0  0
  5  6  2  0  0  0  0
  5  7  1  0  0  0  0
  7  8  1  0  0  0  0
  7  9  1  0  0  0  0
  9 10  1  0  0  0  0
  9 11  1  0  0  0  0
  9 24  1  0  0  0  0
 11 12  1  0  0  0  0
 11 13  1  0  0  0  0
 11 17  1  0  0  0  0
 13 14  1  0  0  0  0
 13 15  1  0  0  0  0
 13 16  1  0  0  0  0
 17 18  1  0  0  0  0
 17 19  1  0  0  0  0
 17 20  1  0  0  0  0
 20 21  1  0  0  0  0
 20 22  1  0  0  0  0
 20 23  1  0  0  0  0
 24 25  2  0  0  0  0
 24 26  1  0  0  0  0
 26 27  1  0  0  0  0
 26 28  1  0  0  0  0
 28 29  1  0  0  0  0
 28 30  1  0  0  0  0
 28 31  1  0  0  0  0
M  END
$$$$

  -OEChem-03222214053D

 31 30  0     1  0  0  0  0  0999 V2000
   -2.5042   -4.2873    0.3788 H   0  0  0  0  0  0  0  0  0  0  0  0
   -2.5434   -3.2557    0.0174 C   0  0  0  0  0  0  0  0  0  0  0  0
   -3.2349   -2.6898    0.6461 H   0  0  0  0  0  0  0  0  0  0  0  0
   -2.9129   -3.2580   -1.0108 H   0  0  0  0  0  0  0  0  0  0  0  0
   -1.1613   -2.6317    0.0707 C   0  0  0  0  0  0  0  0  0  0  0  0
   -0.2180   -3.2842    0.4779 O   0  0  0  0  0  0  0  0  0  0  0  0
   -0.9858   -1.3261   -0.3446 N   0  0  0  0  0  0  0  0  0  0  0  0
   -1.7995   -0.8543   -0.7254 H   0  0  0  0  0  0  0  0  0  0  0  0
    0.3139   -0.6207   -0.3926 C   0  0  1  0  0  0  0  0  0  0  0  0
    0.9823   -1.2718   -0.9681 H   0  0  0  0  0  0  0  0  0  0  0  0
    0.2306    0.7172   -1.2205 C   0  0  1  0  0  0  0  0  0  0  0  0
    0.9681    0.6190   -2.0248 H   0  0  0  0  0  0  0  0  0  0  0  0
   -1.1277    0.9183   -1.9246 C   0  0  0  0  0  0  0  0  0  0  0  0
   -1.9278    1.0717   -1.1935 H   0  0  0  0  0  0  0  0  0  0  0  0
   -1.0898    1.7944   -2.5799 H   0  0  0  0  0  0  0  0  0  0  0  0
   -1.3716    0.0530   -2.5492 H   0  0  0  0  0  0  0  0  0  0  0  0
    0.5765    2.0209   -0.4500 C   0  0  0  0  0  0  0  0  0  0  0  0
    0.0356    2.8641   -0.8918 H   0  0  0  0  0  0  0  0  0  0  0  0
    0.2525    1.9651    0.5917 H   0  0  0  0  0  0  0  0  0  0  0  0
    2.0669    2.3663   -0.5272 C   0  0  0  0  0  0  0  0  0  0  0  0
    2.3706    2.5169   -1.5676 H   0  0  0  0  0  0  0  0  0  0  0  0
    2.2647    3.2890    0.0266 H   0  0  0  0  0  0  0  0  0  0  0  0
    2.6828    1.5721   -0.0994 H   0  0  0  0  0  0  0  0  0  0  0  0
    0.9979   -0.5256    0.9945 C   0  0  0  0  0  0  0  0  0  0  0  0
    2.2112   -0.6516    1.0945 O   0  0  0  0  0  0  0  0  0  0  0  0
    0.2662   -0.1674    2.1135 N   0  0  0  0  0  0  0  0  0  0  0  0
   -0.7428   -0.1812    2.0144 H   0  0  0  0  0  0  0  0  0  0  0  0
    0.8431   -0.1093    3.4503 C   0  0  0  0  0  0  0  0  0  0  0  0
    1.6709    0.6071    3.4802 H   0  0  0  0  0  0  0  0  0  0  0  0
    0.0875    0.2080    4.1750 H   0  0  0  0  0  0  0  0  0  0  0  0
    1.2188   -1.0941    3.7471 H   0  0  0  0  0  0  0  0  0  0  0  0
  1  2  1  0  0  0  0
  2  3  1  0  0  0  0
  2  4  1  0  0  0  0
  2  5  1  0  0  0  0
  5  6  2  0  0  0  0
  5  7  1  0  0  0  0
  7  8  1  0  0  0  0
  7  9  1  0  0  0  0
  9 10  1  0  0  0  0
  9 11  1  0  0  0  0
  9 24  1  0  0  0  0
 11 12  1  0  0  0  0
 11 13  1  0  0  0  0
 11 17  1  0  0  0  0
 13 14  1  0  0  0  0
 13 15  1  0  0  0  0
 13 16  1  0  0  0  0
 17 18  1  0  0  0  0
 17 19  1  0  0  0  0
 17 20  1  0  0  0  0
 20 21  1  0  0  0  0
 20 22  1  0  0  0  0
 20 23  1  0  0  0  0
 24 25  2  0  0  0  0
 24 26  1  0  0  0  0
 26 27  1  0  0  0  0
 26 28  1  0  0  0  0
 28 29  1  0  0  0  0
 28 30  1  0  0  0  0
 28 31  1  0  0  0  0
M  END
$$$$

  -OEChem-03222214053D

 31 30  0     1  0  0  0  0  0999 V2000
   -2.5003   -4.3103    0.3230 H   0  0  0  0  0  0  0  0  0  0  0  0
   -2.5501   -3.2732   -0.0213 C   0  0  0  0  0  0  0  0  0  0  0  0
   -3.2587   -2.7279    0.6068 H   0  0  0  0  0  0  0  0  0  0  0  0
   -2.9048   -3.2630   -1.0548 H   0  0  0  0  0  0  0  0  0  0  0  0
   -1.1785   -2.6305    0.0627 C   0  0  0  0  0  0  0  0  0  0  0  0
   -0.2318   -3.2740    0.4770 O   0  0  0  0  0  0  0  0  0  0  0  0
   -1.0160   -1.3153   -0.3262 N   0  0  0  0  0  0  0  0  0  0  0  0
   -1.8294   -0.8492   -0.7151 H   0  0  0  0  0  0  0  0  0  0  0  0
    0.2790   -0.6022   -0.3660 C   0  0  1  0  0  0  0  0  0  0  0  0
    0.9415   -1.2560   -0.9457 H   0  0  0  0  0  0  0  0  0  0  0  0
    0.2180    0.7302   -1.1999 C   0  0  1  0  0  0  0  0  0  0  0  0
    0.9719    0.6167   -1.9873 H   0  0  0  0  0  0  0  0  0  0  0  0
   -1.1210    0.9257   -1.9391 C   0  0  0  0  0  0  0  0  0  0  0  0
   -1.9399    1.0800   -1.2293 H   0  0  0  0  0  0  0  0  0  0  0  0
   -1.0662    1.8003   -2.5956 H   0  0  0  0  0  0  0  0  0  0  0  0
   -1.3473    0.0571   -2.5657 H   0  0  0  0  0  0  0  0  0  0  0  0
    0.5567    2.0398   -0.4288 C   0  0  0  0  0  0  0  0  0  0  0  0
   -0.1573    2.8249   -0.6981 H   0  0  0  0  0  0  0  0  0  0  0  0
    0.4734    1.9252    0.6525 H   0  0  0  0  0  0  0  0  0  0  0  0
    1.9511    2.5546   -0.7896 C   0  0  0  0  0  0  0  0  0  0  0  0
    2.0201    2.7644   -1.8615 H   0  0  0  0  0  0  0  0  0  0  0  0
    2.1635    3.4774   -0.2416 H   0  0  0  0  0  0  0  0  0  0  0  0
    2.7118    1.8127   -0.5266 H   0  0  0  0  0  0  0  0  0  0  0  0
    0.9874   -0.5216    1.0084 C   0  0  0  0  0  0  0  0  0  0  0  0
    2.2099   -0.5456    1.0661 O   0  0  0  0  0  0  0  0  0  0  0  0
    0.2711   -0.1868    2.1446 N   0  0  0  0  0  0  0  0  0  0  0  0
   -0.7381   -0.2577    2.0753 H   0  0  0  0  0  0  0  0  0  0  0  0
    0.8820   -0.0896    3.4641 C   0  0  0  0  0  0  0  0  0  0  0  0
    1.6755    0.6651    3.4652 H   0  0  0  0  0  0  0  0  0  0  0  0
    0.1330    0.1989    4.2075 H   0  0  0  0  0  0  0  0  0  0  0  0
    1.3117   -1.0531    3.7579 H   0  0  0  0  0  0  0  0  0  0  0  0
  1  2  1  0  0  0  0
  2  3  1  0  0  0  0
  2  4  1  0  0  0  0
  2  5  1  0  0  0  0
  5  6  2  0  0  0  0
  5  7  1  0  0  0  0
  7  8  1  0  0  0  0
  7  9  1  0  0  0  0
  9 10  1  0  0  0  0
  9 11  1  0  0  0  0
  9 24  1  0  0  0  0
 11 12  1  0  0  0  0
 11 13  1  0  0  0  0
 11 17  1  0  0  0  0
 13 14  1  0  0  0  0
 13 15  1  0  0  0  0
 13 16  1  0  0  0  0
 17 18  1  0  0  0  0
 17 19  1  0  0  0  0
 17 20  1  0  0  0  0
 20 21  1  0  0  0  0
 20 22  1  0  0  0  0
 20 23  1  0  0  0  0
 24 25  2  0  0  0  0
 24 26  1  0  0  0  0
 26 27  1  0  0  0  0
 26 28  1  0  0  0  0
 28 29  1  0  0  0  0
 28 30  1  0  0  0  0
 28 31  1  0  0  0  0
M  END
$$$$

  -OEChem-03222214053D

 31 30  0     1  0  0  0  0  0999 V2000
   -2.5051   -4.3049    0.3143 H   0  0  0  0  0  0  0  0  0  0  0  0
   -2.5522   -3.2667   -0.0269 C   0  0  0  0  0  0  0  0  0  0  0  0
   -3.2601   -2.7221    0.6024 H   0  0  0  0  0  0  0  0  0  0  0  0
   -2.9059   -3.2527   -1.0607 H   0  0  0  0  0  0  0  0  0  0  0  0
   -1.1792   -2.6272    0.0613 C   0  0  0  0  0  0  0  0  0  0  0  0
   -0.2344   -3.2756    0.4722 O   0  0  0  0  0  0  0  0  0  0  0  0
   -1.0123   -1.3101   -0.3197 N   0  0  0  0  0  0  0  0  0  0  0  0
   -1.8229   -0.8403   -0.7101 H   0  0  0  0  0  0  0  0  0  0  0  0
    0.2853   -0.6016   -0.3550 C   0  0  1  0  0  0  0  0  0  0  0  0
    0.9474   -1.2503   -0.9408 H   0  0  0  0  0  0  0  0  0  0  0  0
    0.2130    0.7403   -1.1736 C   0  0  1  0  0  0  0  0  0  0  0  0
    0.9778    0.6233   -1.9497 H   0  0  0  0  0  0  0  0  0  0  0  0
   -1.1148    0.9357   -1.9318 C   0  0  0  0  0  0  0  0  0  0  0  0
   -1.9472    1.0718   -1.2340 H   0  0  0  0  0  0  0  0  0  0  0  0
   -1.0555    1.8219   -2.5720 H   0  0  0  0  0  0  0  0  0  0  0  0
   -1.3230    0.0747   -2.5748 H   0  0  0  0  0  0  0  0  0  0  0  0
    0.5501    2.0595   -0.4131 C   0  0  0  0  0  0  0  0  0  0  0  0
   -0.3120    2.7342   -0.4330 H   0  0  0  0  0  0  0  0  0  0  0  0
    0.7790    1.8988    0.6400 H   0  0  0  0  0  0  0  0  0  0  0  0
    1.7424    2.7765   -1.0490 C   0  0  0  0  0  0  0  0  0  0  0  0
    1.5358    3.0133   -2.0973 H   0  0  0  0  0  0  0  0  0  0  0  0
    1.9471    3.7099   -0.5161 H   0  0  0  0  0  0  0  0  0  0  0  0
    2.6363    2.1461   -0.9987 H   0  0  0  0  0  0  0  0  0  0  0  0
    0.9896   -0.5343    1.0214 C   0  0  0  0  0  0  0  0  0  0  0  0
    2.2122   -0.5503    1.0807 O   0  0  0  0  0  0  0  0  0  0  0  0
    0.2689   -0.2043    2.1561 N   0  0  0  0  0  0  0  0  0  0  0  0
   -0.7400   -0.2772    2.0833 H   0  0  0  0  0  0  0  0  0  0  0  0
    0.8756   -0.1113    3.4778 C   0  0  0  0  0  0  0  0  0  0  0  0
    1.6665    0.6462    3.4843 H   0  0  0  0  0  0  0  0  0  0  0  0
    0.1237    0.1704    4.2208 H   0  0  0  0  0  0  0  0  0  0  0  0
    1.3079   -1.0748    3.7677 H   0  0  0  0  0  0  0  0  0  0  0  0
  1  2  1  0  0  0  0
  2  3  1  0  0  0  0
  2  4  1  0  0  0  0
  2  5  1  0  0  0  0
  5  6  2  0  0  0  0
  5  7  1  0  0  0  0
  7  8  1  0  0  0  0
  7  9  1  0  0  0  0
  9 10  1  0  0  0  0
  9 11  1  0  0  0  0
  9 24  1  0  0  0  0
 11 12  1  0  0  0  0
 11 13  1  0  0  0  0
 11 17  1  0  0  0  0
 13 14  1  0  0  0  0
 13 15  1  0  0  0  0
 13 16  1  0  0  0  0
 17 18  1  0  0  0  0
 17 19  1  0  0  0  0
 17 20  1  0  0  0  0
 20 21  1  0  0  0  0
 20 22  1  0  0  0  0
 20 23  1  0  0  0  0
 24 25  2  0  0  0  0
 24 26  1  0  0  0  0
 26 27  1  0  0  0  0
 26 28  1  0  0  0  0
 28 29  1  0  0  0  0
 28 30  1  0  0  0  0
 28 31  1  0  0  0  0
M  END
$$$$

  -OEChem-03222214053D

 31 30  0     1  0  0  0  0  0999 V2000
   -2.5090   -4.2933    0.3269 H   0  0  0  0  0  0  0  0  0  0  0  0
   -2.5486   -3.2565   -0.0194 C   0  0  0  0  0  0  0  0  0  0  0  0
   -3.2520   -2.7036    0.6074 H   0  0  0  0  0  0  0  0  0  0  0  0
   -2.9035   -3.2452   -1.0526 H   0  0  0  0  0  0  0  0  0  0  0  0
   -1.1711   -2.6258    0.0633 C   0  0  0  0  0  0  0  0  0  0  0  0
   -0.2302   -3.2792    0.4749 O   0  0  0  0  0  0  0  0  0  0  0  0
   -0.9960   -1.3121   -0.3259 N   0  0  0  0  0  0  0  0  0  0  0  0
   -1.8054   -0.8384   -0.7137 H   0  0  0  0  0  0  0  0  0  0  0  0
    0.3050   -0.6094   -0.3633 C   0  0  1  0  0  0  0  0  0  0  0  0
    0.9694   -1.2501   -0.9550 H   0  0  0  0  0  0  0  0  0  0  0  0
    0.2108    0.7444   -1.1605 C   0  0  1  0  0  0  0  0  0  0  0  0
    0.9789    0.6399   -1.9351 H   0  0  0  0  0  0  0  0  0  0  0  0
   -1.1190    0.9476   -1.9133 C   0  0  0  0  0  0  0  0  0  0  0  0
   -1.9516    1.0643   -1.2125 H   0  0  0  0  0  0  0  0  0  0  0  0
   -1.0681    1.8469   -2.5350 H   0  0  0  0  0  0  0  0  0  0  0  0
   -1.3223    0.0976   -2.5726 H   0  0  0  0  0  0  0  0  0  0  0  0
    0.5533    2.0550   -0.3914 C   0  0  0  0  0  0  0  0  0  0  0  0
   -0.3668    2.5841   -0.1224 H   0  0  0  0  0  0  0  0  0  0  0  0
    1.0899    1.8674    0.5391 H   0  0  0  0  0  0  0  0  0  0  0  0
    1.4557    2.9696   -1.2238 C   0  0  0  0  0  0  0  0  0  0  0  0
    0.9748    3.2292   -2.1717 H   0  0  0  0  0  0  0  0  0  0  0  0
    1.6601    3.8939   -0.6750 H   0  0  0  0  0  0  0  0  0  0  0  0
    2.4098    2.4766   -1.4357 H   0  0  0  0  0  0  0  0  0  0  0  0
    0.9974   -0.5420    1.0186 C   0  0  0  0  0  0  0  0  0  0  0  0
    2.2188   -0.5812    1.0917 O   0  0  0  0  0  0  0  0  0  0  0  0
    0.2678   -0.2034    2.1446 N   0  0  0  0  0  0  0  0  0  0  0  0
   -0.7411   -0.2582    2.0590 H   0  0  0  0  0  0  0  0  0  0  0  0
    0.8593   -0.1173    3.4734 C   0  0  0  0  0  0  0  0  0  0  0  0
    1.6598    0.6299    3.4896 H   0  0  0  0  0  0  0  0  0  0  0  0
    0.1016    0.1742    4.2068 H   0  0  0  0  0  0  0  0  0  0  0  0
    1.2756   -1.0861    3.7690 H   0  0  0  0  0  0  0  0  0  0  0  0
  1  2  1  0  0  0  0
  2  3  1  0  0  0  0
  2  4  1  0  0  0  0
  2  5  1  0  0  0  0
  5  6  2  0  0  0  0
  5  7  1  0  0  0  0
  7  8  1  0  0  0  0
  7  9  1  0  0  0  0
  9 10  1  0  0  0  0
  9 11  1  0  0  0  0
  9 24  1  0  0  0  0
 11 12  1  0  0  0  0
 11 13  1  0  0  0  0
 11 17  1  0  0  0  0
 13 14  1  0  0  0  0
 13 15  1  0  0  0  0
 13 16  1  0  0  0  0
 17 18  1  0  0  0  0
 17 19  1  0  0  0  0
 17 20  1  0  0  0  0
 20 21  1  0  0  0  0
 20 22  1  0  0  0  0
 20 23  1  0  0  0  0
 24 25  2  0  0  0  0
 24 26  1  0  0  0  0
 26 27  1  0  0  0  0
 26 28  1  0  0  0  0
 28 29  1  0  0  0  0
 28 30  1  0  0  0  0
 28 31  1  0  0  0  0
M  END
$$$$

  -OEChem-03222214053D

 31 30  0     1  0  0  0  0  0999 V2000
   -2.5020   -4.2887    0.3551 H   0  0  0  0  0  0  0  0  0  0  0  0
   -2.5409   -3.2557   -0.0029 C   0  0  0  0  0  0  0  0  0  0  0  0
   -3.2369   -2.6930    0.6238 H   0  0  0  0  0  0  0  0  0  0  0  0
   -2.9051   -3.2548   -1.0331 H   0  0  0  0  0  0  0  0  0  0  0  0
   -1.1601   -2.6297    0.0608 C   0  0  0  0  0  0  0  0  0  0  0  0
   -0.2170   -3.2826    0.4681 O   0  0  0  0  0  0  0  0  0  0  0  0
   -0.9856   -1.3198   -0.3408 N   0  0  0  0  0  0  0  0  0  0  0  0
   -1.7980   -0.8475   -0.7241 H   0  0  0  0  0  0  0  0  0  0  0  0
    0.3140   -0.6141   -0.3835 C   0  0  1  0  0  0  0  0  0  0  0  0
    0.9826   -1.2504   -0.9746 H   0  0  0  0  0  0  0  0  0  0  0  0
    0.2109    0.7443   -1.1737 C   0  0  1  0  0  0  0  0  0  0  0  0
    0.9734    0.6585   -1.9560 H   0  0  0  0  0  0  0  0  0  0  0  0
   -1.1349    0.9453   -1.9015 C   0  0  0  0  0  0  0  0  0  0  0  0
   -1.9515    1.0693   -1.1833 H   0  0  0  0  0  0  0  0  0  0  0  0
   -1.1027    1.8351   -2.5362 H   0  0  0  0  0  0  0  0  0  0  0  0
   -1.3534    0.0896   -2.5484 H   0  0  0  0  0  0  0  0  0  0  0  0
    0.5612    2.0327   -0.3770 C   0  0  0  0  0  0  0  0  0  0  0  0
   -0.3257    2.4015    0.1484 H   0  0  0  0  0  0  0  0  0  0  0  0
    1.3303    1.8416    0.3741 H   0  0  0  0  0  0  0  0  0  0  0  0
    1.1394    3.1296   -1.2774 C   0  0  0  0  0  0  0  0  0  0  0  0
    0.4152    3.4420   -2.0346 H   0  0  0  0  0  0  0  0  0  0  0  0
    1.4016    4.0044   -0.6746 H   0  0  0  0  0  0  0  0  0  0  0  0
    2.0444    2.7758   -1.7813 H   0  0  0  0  0  0  0  0  0  0  0  0
    0.9980   -0.5352    1.0025 C   0  0  0  0  0  0  0  0  0  0  0  0
    2.2182   -0.5887    1.0863 O   0  0  0  0  0  0  0  0  0  0  0  0
    0.2620   -0.1888    2.1218 N   0  0  0  0  0  0  0  0  0  0  0  0
   -0.7466   -0.2374    2.0288 H   0  0  0  0  0  0  0  0  0  0  0  0
    0.8445   -0.0988    3.4545 C   0  0  0  0  0  0  0  0  0  0  0  0
    1.6545    0.6380    3.4703 H   0  0  0  0  0  0  0  0  0  0  0  0
    0.0853    0.2095    4.1793 H   0  0  0  0  0  0  0  0  0  0  0  0
    1.2461   -1.0702    3.7618 H   0  0  0  0  0  0  0  0  0  0  0  0
  1  2  1  0  0  0  0
  2  3  1  0  0  0  0
  2  4  1  0  0  0  0
  2  5  1  0  0  0  0
  5  6  2  0  0  0  0
  5  7  1  0  0  0  0
  7  8  1  0  0  0  0
  7  9  1  0  0  0  0
  9 10  1  0  0  0  0
  9 11  1  0  0  0  0
  9 24  1  0  0  0  0
 11 12  1  0  0  0  0
 11 13  1  0  0  0  0
 11 17  1  0  0  0  0
 13 14  1  0  0  0  0
 13 15  1  0  0  0  0
 13 16  1  0  0  0  0
 17 18  1  0  0  0  0
 17 19  1  0  0  0  0
 17 20  1  0  0  0  0
 20 21  1  0  0  0  0
 20 22  1  0  0  0  0
 20 23  1  0  0  0  0
 24 25  2  0  0  0  0
 24 26  1  0  0  0  0
 26 27  1  0  0  0  0
 26 28  1  0  0  0  0
 28 29  1  0  0  0  0
 28 30  1  0  0  0  0
 28 31  1  0  0  0  0
M  END
$$$$

  -OEChem-03222214053D

 31 30  0     1  0  0  0  0  0999 V2000
   -2.4869   -4.2962    0.3742 H   0  0  0  0  0  0  0  0  0  0  0  0
   -2.5313   -3.2658    0.0099 C   0  0  0  0  0  0  0  0  0  0  0  0
   -3.2273   -2.7018    0.6354 H   0  0  0  0  0  0  0  0  0  0  0  0
   -2.8982   -3.2729   -1.0192 H   0  0  0  0  0  0  0  0  0  0  0  0
   -1.1534   -2.6333    0.0647 C   0  0  0  0  0  0  0  0  0  0  0  0
   -0.2064   -3.2780    0.4763 O   0  0  0  0  0  0  0  0  0  0  0  0
   -0.9865   -1.3261   -0.3489 N   0  0  0  0  0  0  0  0  0  0  0  0
   -1.8020   -0.8607   -0.7341 H   0  0  0  0  0  0  0  0  0  0  0  0
    0.3094   -0.6146   -0.4007 C   0  0  1  0  0  0  0  0  0  0  0  0
    0.9797   -1.2511   -0.9900 H   0  0  0  0  0  0  0  0  0  0  0  0
    0.2042    0.7423   -1.1924 C   0  0  1  0  0  0  0  0  0  0  0  0
    0.9640    0.6722   -1.9786 H   0  0  0  0  0  0  0  0  0  0  0  0
   -1.1487    0.9360   -1.9115 C   0  0  0  0  0  0  0  0  0  0  0  0
   -1.9540    1.0954   -1.1878 H   0  0  0  0  0  0  0  0  0  0  0  0
   -1.1142    1.7984   -2.5822 H   0  0  0  0  0  0  0  0  0  0  0  0
   -1.3865    0.0623   -2.5265 H   0  0  0  0  0  0  0  0  0  0  0  0
    0.5645    2.0053   -0.3639 C   0  0  0  0  0  0  0  0  0  0  0  0
   -0.2239    2.2108    0.3675 H   0  0  0  0  0  0  0  0  0  0  0  0
    1.4962    1.8384    0.1841 H   0  0  0  0  0  0  0  0  0  0  0  0
    0.8059    3.2479   -1.2276 C   0  0  0  0  0  0  0  0  0  0  0  0
   -0.1189    3.5880   -1.7008 H   0  0  0  0  0  0  0  0  0  0  0  0
    1.1843    4.0635   -0.6039 H   0  0  0  0  0  0  0  0  0  0  0  0
    1.5461    3.0376   -2.0057 H   0  0  0  0  0  0  0  0  0  0  0  0
    0.9944   -0.5213    0.9848 C   0  0  0  0  0  0  0  0  0  0  0  0
    2.2148   -0.5718    1.0695 O   0  0  0  0  0  0  0  0  0  0  0  0
    0.2567   -0.1693    2.1014 N   0  0  0  0  0  0  0  0  0  0  0  0
   -0.7514   -0.2281    2.0091 H   0  0  0  0  0  0  0  0  0  0  0  0
    0.8382   -0.0709    3.4338 C   0  0  0  0  0  0  0  0  0  0  0  0
    1.6513    0.6626    3.4440 H   0  0  0  0  0  0  0  0  0  0  0  0
    0.0797    0.2466    4.1554 H   0  0  0  0  0  0  0  0  0  0  0  0
    1.2352   -1.0414    3.7495 H   0  0  0  0  0  0  0  0  0  0  0  0
  1  2  1  0  0  0  0
  2  3  1  0  0  0  0
  2  4  1  0  0  0  0
  2  5  1  0  0  0  0
  5  6  2  0  0  0  0
  5  7  1  0  0  0  0
  7  8  1  0  0  0  0
  7  9  1  0  0  0  0
  9 10  1  0  0  0  0
  9 11  1  0  0  0  0
  9 24  1  0  0  0  0
 11 12  1  0  0  0  0
 11 13  1  0  0  0  0
 11 17  1  0  0  0  0
 13 14  1  0  0  0  0
 13 15  1  0  0  0  0
 13 16  1  0  0  0  0
 17 18  1  0  0  0  0
 17 19  1  0  0  0  0
 17 20  1  0  0  0  0
 20 21  1  0  0  0  0
 20 22  1  0  0  0  0
 20 23  1  0  0  0  0
 24 25  2  0  0  0  0
 24 26  1  0  0  0  0
 26 27  1  0  0  0  0
 26 28  1  0  0  0  0
 28 29  1  0  0  0  0
 28 30  1  0  0  0  0
 28 31  1  0  0  0  0
M  END
$$$$

  -OEChem-03222214053D

 31 30  0     1  0  0  0  0  0999 V2000
   -2.4577   -4.3023    0.4116 H   0  0  0  0  0  0  0  0  0  0  0  0
   -2.5101   -3.2759    0.0374 C   0  0  0  0  0  0  0  0  0  0  0  0
   -3.2006   -2.7077    0.6651 H   0  0  0  0  0  0  0  0  0  0  0  0
   -2.8896   -3.2950   -0.9870 H   0  0  0  0  0  0  0  0  0  0  0  0
   -1.1336   -2.6388    0.0693 C   0  0  0  0  0  0  0  0  0  0  0  0
   -0.1804   -3.2758    0.4781 O   0  0  0  0  0  0  0  0  0  0  0  0
   -0.9745   -1.3377   -0.3660 N   0  0  0  0  0  0  0  0  0  0  0  0
   -1.7974   -0.8775   -0.7412 H   0  0  0  0  0  0  0  0  0  0  0  0
    0.3171   -0.6185   -0.4293 C   0  0  1  0  0  0  0  0  0  0  0  0
    0.9996   -1.2541   -1.0052 H   0  0  0  0  0  0  0  0  0  0  0  0
    0.2138    0.7353   -1.2313 C   0  0  1  0  0  0  0  0  0  0  0  0
    0.7356    0.5739   -2.1809 H   0  0  0  0  0  0  0  0  0  0  0  0
   -1.2422    1.1146   -1.5909 C   0  0  0  0  0  0  0  0  0  0  0  0
   -1.8210    1.3224   -0.6854 H   0  0  0  0  0  0  0  0  0  0  0  0
   -1.2731    1.9979   -2.2337 H   0  0  0  0  0  0  0  0  0  0  0  0
   -1.7276    0.3105   -2.1521 H   0  0  0  0  0  0  0  0  0  0  0  0
    0.9255    1.9232   -0.5250 C   0  0  0  0  0  0  0  0  0  0  0  0
    0.4958    2.0799    0.4694 H   0  0  0  0  0  0  0  0  0  0  0  0
    1.9846    1.6732   -0.3997 H   0  0  0  0  0  0  0  0  0  0  0  0
    0.8471    3.2554   -1.2787 C   0  0  0  0  0  0  0  0  0  0  0  0
   -0.1667    3.6651   -1.2546 H   0  0  0  0  0  0  0  0  0  0  0  0
    1.5145    3.9847   -0.8093 H   0  0  0  0  0  0  0  0  0  0  0  0
    1.1564    3.1257   -2.3205 H   0  0  0  0  0  0  0  0  0  0  0  0
    0.9873   -0.5065    0.9644 C   0  0  0  0  0  0  0  0  0  0  0  0
    2.2055   -0.5723    1.0684 O   0  0  0  0  0  0  0  0  0  0  0  0
    0.2382   -0.1455    2.0709 N   0  0  0  0  0  0  0  0  0  0  0  0
   -0.7692   -0.1881    1.9650 H   0  0  0  0  0  0  0  0  0  0  0  0
    0.8032   -0.0491    3.4106 C   0  0  0  0  0  0  0  0  0  0  0  0
    1.6187    0.6815    3.4314 H   0  0  0  0  0  0  0  0  0  0  0  0
    0.0366    0.2708    4.1225 H   0  0  0  0  0  0  0  0  0  0  0  0
    1.1925   -1.0211    3.7315 H   0  0  0  0  0  0  0  0  0  0  0  0
  1  2  1  0  0  0  0
  2  3  1  0  0  0  0
  2  4  1  0  0  0  0
  2  5  1  0  0  0  0
  5  6  2  0  0  0  0
  5  7  1  0  0  0  0
  7  8  1  0  0  0  0
  7  9  1  0  0  0  0
  9 10  1  0  0  0  0
  9 11  1  0  0  0  0
  9 24  1  0  0  0  0
 11 12  1  0  0  0  0
 11 13  1  0  0  0  0
 11 17  1  0  0  0  0
 13 14  1  0  0  0  0
 13 15  1  0  0  0  0
 13 16  1  0  0  0  0
 17 18  1  0  0  0  0
 17 19  1  0  0  0  0
 17 20  1  0  0  0  0
 20 21  1  0  0  0  0
 20 22  1  0  0  0  0
 20 23  1  0  0  0  0
 24 25  2  0  0  0  0
 24 26  1  0  0  0  0
 26 27  1  0  0  0  0
 26 28  1  0  0  0  0
 28 29  1  0  0  0  0
 28 30  1  0  0  0  0
 28 31  1  0  0  0  0
M  END
$$$$

  -OEChem-03222214053D

 31 30  0     1  0  0  0  0  0999 V2000
   -2.4632   -4.3118    0.4029 H   0  0  0  0  0  0  0  0  0  0  0  0
   -2.5207   -3.2832    0.0350 C   0  0  0  0  0  0  0  0  0  0  0  0
   -3.2096   -2.7215    0.6702 H   0  0  0  0  0  0  0  0  0  0  0  0
   -2.9061   -3.2975   -0.9873 H   0  0  0  0  0  0  0  0  0  0  0  0
   -1.1461   -2.6417    0.0632 C   0  0  0  0  0  0  0  0  0  0  0  0
   -0.1868   -3.2824    0.4516 O   0  0  0  0  0  0  0  0  0  0  0  0
   -0.9947   -1.3320   -0.3491 N   0  0  0  0  0  0  0  0  0  0  0  0
   -1.8231   -0.8647   -0.7027 H   0  0  0  0  0  0  0  0  0  0  0  0
    0.2948   -0.6084   -0.4101 C   0  0  1  0  0  0  0  0  0  0  0  0
    0.9701   -1.2473   -0.9909 H   0  0  0  0  0  0  0  0  0  0  0  0
    0.2085    0.7419   -1.2229 C   0  0  1  0  0  0  0  0  0  0  0  0
    0.7457    0.5761   -2.1630 H   0  0  0  0  0  0  0  0  0  0  0  0
   -1.2441    1.0978   -1.6222 C   0  0  0  0  0  0  0  0  0  0  0  0
   -1.8457    1.3167   -0.7343 H   0  0  0  0  0  0  0  0  0  0  0  0
   -1.2703    1.9669   -2.2850 H   0  0  0  0  0  0  0  0  0  0  0  0
   -1.7078    0.2776   -2.1784 H   0  0  0  0  0  0  0  0  0  0  0  0
    0.9164    1.9414   -0.5210 C   0  0  0  0  0  0  0  0  0  0  0  0
    0.6435    1.9727    0.5369 H   0  0  0  0  0  0  0  0  0  0  0  0
    1.9999    1.7911   -0.5825 H   0  0  0  0  0  0  0  0  0  0  0  0
    0.5740    3.3312   -1.0702 C   0  0  0  0  0  0  0  0  0  0  0  0
   -0.4667    3.5949   -0.8587 H   0  0  0  0  0  0  0  0  0  0  0  0
    1.2134    4.0831   -0.5973 H   0  0  0  0  0  0  0  0  0  0  0  0
    0.7417    3.3680   -2.1511 H   0  0  0  0  0  0  0  0  0  0  0  0
    0.9843   -0.5162    0.9747 C   0  0  0  0  0  0  0  0  0  0  0  0
    2.2056   -0.5508    1.0551 O   0  0  0  0  0  0  0  0  0  0  0  0
    0.2486   -0.1758    2.0965 N   0  0  0  0  0  0  0  0  0  0  0  0
   -0.7597   -0.2362    2.0082 H   0  0  0  0  0  0  0  0  0  0  0  0
    0.8359   -0.0715    3.4260 C   0  0  0  0  0  0  0  0  0  0  0  0
    1.6419    0.6699    3.4322 H   0  0  0  0  0  0  0  0  0  0  0  0
    0.0781    0.2388    4.1515 H   0  0  0  0  0  0  0  0  0  0  0  0
    1.2442   -1.0379    3.7400 H   0  0  0  0  0  0  0  0  0  0  0  0
  1  2  1  0  0  0  0
  2  3  1  0  0  0  0
  2  4  1  0  0  0  0
  2  5  1  0  0  0  0
  5  6  2  0  0  0  0
  5  7  1  0  0  0  0
  7  8  1  0  0  0  0
  7  9  1  0  0  0  0
  9 10  1  0  0  0  0
  9 11  1  0  0  0  0
  9 24  1  0  0  0  0
 11 12  1  0  0  0  0
 11 13  1  0  0  0  0
 11 17  1  0  0  0  0
 13 14  1  0  0  0  0
 13 15  1  0  0  0  0
 13 16  1  0  0  0  0
 17 18  1  0  0  0  0
 17 19  1  0  0  0  0
 17 20  1  0  0  0  0
 20 21  1  0  0  0  0
 20 22  1  0  0  0  0
 20 23  1  0  0  0  0
 24 25  2  0  0  0  0
 24 26  1  0  0  0  0
 26 27  1  0  0  0  0
 26 28  1  0  0  0  0
 28 29  1  0  0  0  0
 28 30  1  0  0  0  0
 28 31  1  0  0  0  0
M  END
$$$$

  -OEChem-03222214053D

 31 30  0     1  0  0  0  0  0999 V2000
   -2.4794   -4.3070    0.3939 H   0  0  0  0  0  0  0  0  0  0  0  0
   -2.5335   -3.2753    0.0344 C   0  0  0  0  0  0  0  0  0  0  0  0
   -3.2190   -2.7158    0.6753 H   0  0  0  0  0  0  0  0  0  0  0  0
   -2.9205   -3.2795   -0.9874 H   0  0  0  0  0  0  0  0  0  0  0  0
   -1.1563   -2.6396    0.0653 C   0  0  0  0  0  0  0  0  0  0  0  0
   -0.1973   -3.2892    0.4398 O   0  0  0  0  0  0  0  0  0  0  0  0
   -1.0026   -1.3247   -0.3286 N   0  0  0  0  0  0  0  0  0  0  0  0
   -1.8324   -0.8483   -0.6667 H   0  0  0  0  0  0  0  0  0  0  0  0
    0.2889   -0.6045   -0.3888 C   0  0  1  0  0  0  0  0  0  0  0  0
    0.9569   -1.2449   -0.9769 H   0  0  0  0  0  0  0  0  0  0  0  0
    0.2065    0.7466   -1.2053 C   0  0  1  0  0  0  0  0  0  0  0  0
    0.7568    0.5728   -2.1364 H   0  0  0  0  0  0  0  0  0  0  0  0
   -1.2418    1.0728   -1.6470 C   0  0  0  0  0  0  0  0  0  0  0  0
   -1.8745    1.2815   -0.7784 H   0  0  0  0  0  0  0  0  0  0  0  0
   -1.2652    1.9386   -2.3143 H   0  0  0  0  0  0  0  0  0  0  0  0
   -1.6721    0.2410   -2.2130 H   0  0  0  0  0  0  0  0  0  0  0  0
    0.9099    1.9702   -0.5256 C   0  0  0  0  0  0  0  0  0  0  0  0
    0.8600    1.8910    0.5613 H   0  0  0  0  0  0  0  0  0  0  0  0
    1.9691    1.9577   -0.8032 H   0  0  0  0  0  0  0  0  0  0  0  0
    0.3235    3.3557   -0.8261 C   0  0  0  0  0  0  0  0  0  0  0  0
   -0.7028    3.4391   -0.4564 H   0  0  0  0  0  0  0  0  0  0  0  0
    0.9233    4.1253   -0.3304 H   0  0  0  0  0  0  0  0  0  0  0  0
    0.3374    3.5547   -1.9021 H   0  0  0  0  0  0  0  0  0  0  0  0
    0.9895   -0.5346    0.9907 C   0  0  0  0  0  0  0  0  0  0  0  0
    2.2116   -0.5634    1.0583 O   0  0  0  0  0  0  0  0  0  0  0  0
    0.2633   -0.2081    2.1227 N   0  0  0  0  0  0  0  0  0  0  0  0
   -0.7457   -0.2662    2.0425 H   0  0  0  0  0  0  0  0  0  0  0  0
    0.8624   -0.1132    3.4475 C   0  0  0  0  0  0  0  0  0  0  0  0
    1.6611    0.6362    3.4545 H   0  0  0  0  0  0  0  0  0  0  0  0
    0.1087    0.1812    4.1839 H   0  0  0  0  0  0  0  0  0  0  0  0
    1.2831   -1.0791    3.7463 H   0  0  0  0  0  0  0  0  0  0  0  0
  1  2  1  0  0  0  0
  2  3  1  0  0  0  0
  2  4  1  0  0  0  0
  2  5  1  0  0  0  0
  5  6  2  0  0  0  0
  5  7  1  0  0  0  0
  7  8  1  0  0  0  0
  7  9  1  0  0  0  0
  9 10  1  0  0  0  0
  9 11  1  0  0  0  0
  9 24  1  0  0  0  0
 11 12  1  0  0  0  0
 11 13  1  0  0  0  0
 11 17  1  0  0  0  0
 13 14  1  0  0  0  0
 13 15  1  0  0  0  0
 13 16  1  0  0  0  0
 17 18  1  0  0  0  0
 17 19  1  0  0  0  0
 17 20  1  0  0  0  0
 20 21  1  0  0  0  0
 20 22  1  0  0  0  0
 20 23  1  0  0  0  0
 24 25  2  0  0  0  0
 24 26  1  0  0  0  0
 26 27  1  0  0  0  0
 26 28  1  0  0  0  0
 28 29  1  0  0  0  0
 28 30  1  0  0  0  0
 28 31  1  0  0  0  0
M  END
$$$$

  -OEChem-03222214053D

 31 30  0     1  0  0  0  0  0999 V2000
   -2.4959   -4.2935    0.4038 H   0  0  0  0  0  0  0  0  0  0  0  0
   -2.5415   -3.2609    0.0455 C   0  0  0  0  0  0  0  0  0  0  0  0
   -3.2190   -2.6953    0.6898 H   0  0  0  0  0  0  0  0  0  0  0  0
   -2.9318   -3.2602   -0.9751 H   0  0  0  0  0  0  0  0  0  0  0  0
   -1.1583   -2.6381    0.0720 C   0  0  0  0  0  0  0  0  0  0  0  0
   -0.2040   -3.2979    0.4403 O   0  0  0  0  0  0  0  0  0  0  0  0
   -0.9945   -1.3237   -0.3199 N   0  0  0  0  0  0  0  0  0  0  0  0
   -1.8201   -0.8415   -0.6599 H   0  0  0  0  0  0  0  0  0  0  0  0
    0.3025   -0.6131   -0.3826 C   0  0  1  0  0  0  0  0  0  0  0  0
    0.9675   -1.2498   -0.9779 H   0  0  0  0  0  0  0  0  0  0  0  0
    0.2057    0.7471   -1.1858 C   0  0  1  0  0  0  0  0  0  0  0  0
    0.7652    0.5690   -2.1109 H   0  0  0  0  0  0  0  0  0  0  0  0
   -1.2360    1.0537   -1.6613 C   0  0  0  0  0  0  0  0  0  0  0  0
   -1.8965    1.2438   -0.8094 H   0  0  0  0  0  0  0  0  0  0  0  0
   -1.2530    1.9242   -2.3225 H   0  0  0  0  0  0  0  0  0  0  0  0
   -1.6377    0.2186   -2.2437 H   0  0  0  0  0  0  0  0  0  0  0  0
    0.9082    1.9920   -0.5326 C   0  0  0  0  0  0  0  0  0  0  0  0
    1.1646    1.8152    0.5108 H   0  0  0  0  0  0  0  0  0  0  0  0
    1.8550    2.1581   -1.0573 H   0  0  0  0  0  0  0  0  0  0  0  0
    0.1216    3.3099   -0.5257 C   0  0  0  0  0  0  0  0  0  0  0  0
   -0.8257    3.1988    0.0103 H   0  0  0  0  0  0  0  0  0  0  0  0
    0.7069    4.0842   -0.0203 H   0  0  0  0  0  0  0  0  0  0  0  0
   -0.0771    3.6528   -1.5453 H   0  0  0  0  0  0  0  0  0  0  0  0
    0.9988   -0.5563    0.9991 C   0  0  0  0  0  0  0  0  0  0  0  0
    2.2199   -0.6111    1.0723 O   0  0  0  0  0  0  0  0  0  0  0  0
    0.2727   -0.2284    2.1305 N   0  0  0  0  0  0  0  0  0  0  0  0
   -0.7369   -0.2678    2.0455 H   0  0  0  0  0  0  0  0  0  0  0  0
    0.8677   -0.1484    3.4580 C   0  0  0  0  0  0  0  0  0  0  0  0
    1.6670    0.5999    3.4755 H   0  0  0  0  0  0  0  0  0  0  0  0
    0.1122    0.1393    4.1951 H   0  0  0  0  0  0  0  0  0  0  0  0
    1.2861   -1.1181    3.7478 H   0  0  0  0  0  0  0  0  0  0  0  0
  1  2  1  0  0  0  0
  2  3  1  0  0  0  0
  2  4  1  0  0  0  0
  2  5  1  0  0  0  0
  5  6  2  0  0  0  0
  5  7  1  0  0  0  0
  7  8  1  0  0  0  0
  7  9  1  0  0  0  0
  9 10  1  0  0  0  0
  9 11  1  0  0  0  0
  9 24  1  0  0  0  0
 11 12  1  0  0  0  0
 11 13  1  0  0  0  0
 11 17  1  0  0  0  0
 13 14  1  0  0  0  0
 13 15  1  0  0  0  0
 13 16  1  0  0  0  0
 17 18  1  0  0  0  0
 17 19  1  0  0  0  0
 17 20  1  0  0  0  0
 20 21  1  0  0  0  0
 20 22  1  0  0  0  0
 20 23  1  0  0  0  0
 24 25  2  0  0  0  0
 24 26  1  0  0  0  0
 26 27  1  0  0  0  0
 26 28  1  0  0  0  0
 28 29  1  0  0  0  0
 28 30  1  0  0  0  0
 28 31  1  0  0  0  0
M  END
$$$$

  -OEChem-03222214053D

 31 30  0     1  0  0  0  0  0999 V2000
   -2.5052   -4.2771    0.4320 H   0  0  0  0  0  0  0  0  0  0  0  0
   -2.5412   -3.2485    0.0619 C   0  0  0  0  0  0  0  0  0  0  0  0
   -3.2111   -2.6688    0.7011 H   0  0  0  0  0  0  0  0  0  0  0  0
   -2.9350   -3.2556   -0.9572 H   0  0  0  0  0  0  0  0  0  0  0  0
   -1.1512   -2.6406    0.0775 C   0  0  0  0  0  0  0  0  0  0  0  0
   -0.2030   -3.3075    0.4486 O   0  0  0  0  0  0  0  0  0  0  0  0
   -0.9744   -1.3333   -0.3320 N   0  0  0  0  0  0  0  0  0  0  0  0
   -1.7952   -0.8490   -0.6806 H   0  0  0  0  0  0  0  0  0  0  0  0
    0.3282   -0.6338   -0.3997 C   0  0  1  0  0  0  0  0  0  0  0  0
    0.9952   -1.2641   -0.9995 H   0  0  0  0  0  0  0  0  0  0  0  0
    0.2032    0.7372   -1.1764 C   0  0  1  0  0  0  0  0  0  0  0  0
    0.7659    0.5620   -2.1001 H   0  0  0  0  0  0  0  0  0  0  0  0
   -1.2322    1.0501   -1.6627 C   0  0  0  0  0  0  0  0  0  0  0  0
   -1.9074    1.2193   -0.8182 H   0  0  0  0  0  0  0  0  0  0  0  0
   -1.2359    1.9384   -2.3010 H   0  0  0  0  0  0  0  0  0  0  0  0
   -1.6227    0.2273   -2.2695 H   0  0  0  0  0  0  0  0  0  0  0  0
    0.9094    1.9821   -0.5313 C   0  0  0  0  0  0  0  0  0  0  0  0
    1.4901    1.7294    0.3550 H   0  0  0  0  0  0  0  0  0  0  0  0
    1.6389    2.3527   -1.2590 H   0  0  0  0  0  0  0  0  0  0  0  0
    0.0053    3.1665   -0.1636 C   0  0  0  0  0  0  0  0  0  0  0  0
   -0.7797    2.8502    0.5301 H   0  0  0  0  0  0  0  0  0  0  0  0
    0.6000    3.9428    0.3273 H   0  0  0  0  0  0  0  0  0  0  0  0
   -0.4544    3.6106   -1.0509 H   0  0  0  0  0  0  0  0  0  0  0  0
    1.0095   -0.5693    0.9892 C   0  0  0  0  0  0  0  0  0  0  0  0
    2.2268   -0.6646    1.0817 O   0  0  0  0  0  0  0  0  0  0  0  0
    0.2743   -0.2222    2.1088 N   0  0  0  0  0  0  0  0  0  0  0  0
   -0.7343   -0.2243    2.0065 H   0  0  0  0  0  0  0  0  0  0  0  0
    0.8522   -0.1419    3.4439 C   0  0  0  0  0  0  0  0  0  0  0  0
    1.6636    0.5933    3.4661 H   0  0  0  0  0  0  0  0  0  0  0  0
    0.0911    0.1630    4.1683 H   0  0  0  0  0  0  0  0  0  0  0  0
    1.2508   -1.1161    3.7464 H   0  0  0  0  0  0  0  0  0  0  0  0
  1  2  1  0  0  0  0
  2  3  1  0  0  0  0
  2  4  1  0  0  0  0
  2  5  1  0  0  0  0
  5  6  2  0  0  0  0
  5  7  1  0  0  0  0
  7  8  1  0  0  0  0
  7  9  1  0  0  0  0
  9 10  1  0  0  0  0
  9 11  1  0  0  0  0
  9 24  1  0  0  0  0
 11 12  1  0  0  0  0
 11 13  1  0  0  0  0
 11 17  1  0  0  0  0
 13 14  1  0  0  0  0
 13 15  1  0  0  0  0
 13 16  1  0  0  0  0
 17 18  1  0  0  0  0
 17 19  1  0  0  0  0
 17 20  1  0  0  0  0
 20 21  1  0  0  0  0
 20 22  1  0  0  0  0
 20 23  1  0  0  0  0
 24 25  2  0  0  0  0
 24 26  1  0  0  0  0
 26 27  1  0  0  0  0
 26 28  1  0  0  0  0
 28 29  1  0  0  0  0
 28 30  1  0  0  0  0
 28 31  1  0  0  0  0
M  END
$$$$

  -OEChem-03222214053D

 31 30  0     1  0  0  0  0  0999 V2000
   -2.4997   -4.2786    0.4453 H   0  0  0  0  0  0  0  0  0  0  0  0
   -2.5332   -3.2532    0.0660 C   0  0  0  0  0  0  0  0  0  0  0  0
   -3.2035   -2.6666    0.6988 H   0  0  0  0  0  0  0  0  0  0  0  0
   -2.9244   -3.2688   -0.9541 H   0  0  0  0  0  0  0  0  0  0  0  0
   -1.1427   -2.6468    0.0797 C   0  0  0  0  0  0  0  0  0  0  0  0
   -0.1974   -3.3097    0.4651 O   0  0  0  0  0  0  0  0  0  0  0  0
   -0.9626   -1.3462   -0.3496 N   0  0  0  0  0  0  0  0  0  0  0  0
   -1.7804   -0.8678   -0.7131 H   0  0  0  0  0  0  0  0  0  0  0  0
    0.3413   -0.6502   -0.4213 C   0  0  1  0  0  0  0  0  0  0  0  0
    1.0124   -1.2771   -1.0198 H   0  0  0  0  0  0  0  0  0  0  0  0
    0.2036    0.7242   -1.1831 C   0  0  1  0  0  0  0  0  0  0  0  0
    0.7571    0.5579   -2.1142 H   0  0  0  0  0  0  0  0  0  0  0  0
   -1.2332    1.0643   -1.6403 C   0  0  0  0  0  0  0  0  0  0  0  0
   -1.9017    1.1940   -0.7836 H   0  0  0  0  0  0  0  0  0  0  0  0
   -1.2344    1.9875   -2.2282 H   0  0  0  0  0  0  0  0  0  0  0  0
   -1.6317    0.2726   -2.2825 H   0  0  0  0  0  0  0  0  0  0  0  0
    0.9162    1.9520   -0.5290 C   0  0  0  0  0  0  0  0  0  0  0  0
    1.7224    1.6581    0.1448 H   0  0  0  0  0  0  0  0  0  0  0  0
    1.4064    2.5056   -1.3368 H   0  0  0  0  0  0  0  0  0  0  0  0
   -0.0032    2.9530    0.1831 C   0  0  0  0  0  0  0  0  0  0  0  0
   -0.5929    2.4472    0.9536 H   0  0  0  0  0  0  0  0  0  0  0  0
    0.6002    3.7271    0.6668 H   0  0  0  0  0  0  0  0  0  0  0  0
   -0.6813    3.4459   -0.5189 H   0  0  0  0  0  0  0  0  0  0  0  0
    1.0116   -0.5673    0.9729 C   0  0  0  0  0  0  0  0  0  0  0  0
    2.2257   -0.6842    1.0811 O   0  0  0  0  0  0  0  0  0  0  0  0
    0.2688   -0.2024    2.0818 N   0  0  0  0  0  0  0  0  0  0  0  0
   -0.7385   -0.1912    1.9687 H   0  0  0  0  0  0  0  0  0  0  0  0
    0.8337   -0.1073    3.4214 C   0  0  0  0  0  0  0  0  0  0  0  0
    1.6547    0.6172    3.4401 H   0  0  0  0  0  0  0  0  0  0  0  0
    0.0693    0.2211    4.1319 H   0  0  0  0  0  0  0  0  0  0  0  0
    1.2155   -1.0813    3.7455 H   0  0  0  0  0  0  0  0  0  0  0  0
  1  2  1  0  0  0  0
  2  3  1  0  0  0  0
  2  4  1  0  0  0  0
  2  5  1  0  0  0  0
  5  6  2  0  0  0  0
  5  7  1  0  0  0  0
  7  8  1  0  0  0  0
  7  9  1  0  0  0  0
  9 10  1  0  0  0  0
  9 11  1  0  0  0  0
  9 24  1  0  0  0  0
 11 12  1  0  0  0  0
 11 13  1  0  0  0  0
 11 17  1  0  0  0  0
 13 14  1  0  0  0  0
 13 15  1  0  0  0  0
 13 16  1  0  0  0  0
 17 18  1  0  0  0  0
 17 19  1  0  0  0  0
 17 20  1  0  0  0  0
 20 21  1  0  0  0  0
 20 22  1  0  0  0  0
 20 23  1  0  0  0  0
 24 25  2  0  0  0  0
 24 26  1  0  0  0  0
 26 27  1  0  0  0  0
 26 28  1  0  0  0  0
 28 29  1  0  0  0  0
 28 30  1  0  0  0  0
 28 31  1  0  0  0  0
M  END
$$$$

  -OEChem-03222214053D

 31 30  0     1  0  0  0  0  0999 V2000
   -2.4976   -4.3023    0.4039 H   0  0  0  0  0  0  0  0  0  0  0  0
   -2.5387   -3.2712    0.0408 C   0  0  0  0  0  0  0  0  0  0  0  0
   -3.2218   -2.7022    0.6757 H   0  0  0  0  0  0  0  0  0  0  0  0
   -2.9193   -3.2750   -0.9834 H   0  0  0  0  0  0  0  0  0  0  0  0
   -1.1549   -2.6497    0.0789 C   0  0  0  0  0  0  0  0  0  0  0  0
   -0.2078   -3.3063    0.4706 O   0  0  0  0  0  0  0  0  0  0  0  0
   -0.9821   -1.3418   -0.3315 N   0  0  0  0  0  0  0  0  0  0  0  0
   -1.7991   -0.8669   -0.7015 H   0  0  0  0  0  0  0  0  0  0  0  0
    0.3186   -0.6398   -0.3929 C   0  0  1  0  0  0  0  0  0  0  0  0
    0.9858   -1.2779   -0.9842 H   0  0  0  0  0  0  0  0  0  0  0  0
    0.2120    0.7166   -1.1865 C   0  0  1  0  0  0  0  0  0  0  0  0
    0.7721    0.5348   -2.1104 H   0  0  0  0  0  0  0  0  0  0  0  0
   -1.2190    1.0770   -1.6406 C   0  0  0  0  0  0  0  0  0  0  0  0
   -1.8921    1.1821   -0.7840 H   0  0  0  0  0  0  0  0  0  0  0  0
   -1.2127    2.0214   -2.1943 H   0  0  0  0  0  0  0  0  0  0  0  0
   -1.6157    0.3060   -2.3086 H   0  0  0  0  0  0  0  0  0  0  0  0
    0.9106    1.9477   -0.5408 C   0  0  0  0  0  0  0  0  0  0  0  0
    1.8321    1.6506   -0.0333 H   0  0  0  0  0  0  0  0  0  0  0  0
    1.2190    2.6177   -1.3501 H   0  0  0  0  0  0  0  0  0  0  0  0
    0.0382    2.7733    0.4155 C   0  0  0  0  0  0  0  0  0  0  0  0
   -0.4105    2.1420    1.1855 H   0  0  0  0  0  0  0  0  0  0  0  0
    0.6511    3.5341    0.9086 H   0  0  0  0  0  0  0  0  0  0  0  0
   -0.7624    3.2849   -0.1266 H   0  0  0  0  0  0  0  0  0  0  0  0
    1.0080   -0.5630    0.9928 C   0  0  0  0  0  0  0  0  0  0  0  0
    2.2255   -0.6613    1.0778 O   0  0  0  0  0  0  0  0  0  0  0  0
    0.2850   -0.2144    2.1196 N   0  0  0  0  0  0  0  0  0  0  0  0
   -0.7248   -0.2297    2.0301 H   0  0  0  0  0  0  0  0  0  0  0  0
    0.8768   -0.1339    3.4487 C   0  0  0  0  0  0  0  0  0  0  0  0
    1.6918    0.5975    3.4615 H   0  0  0  0  0  0  0  0  0  0  0  0
    0.1244    0.1763    4.1800 H   0  0  0  0  0  0  0  0  0  0  0  0
    1.2740   -1.1090    3.7498 H   0  0  0  0  0  0  0  0  0  0  0  0
  1  2  1  0  0  0  0
  2  3  1  0  0  0  0
  2  4  1  0  0  0  0
  2  5  1  0  0  0  0
  5  6  2  0  0  0  0
  5  7  1  0  0  0  0
  7  8  1  0  0  0  0
  7  9  1  0  0  0  0
  9 10  1  0  0  0  0
  9 11  1  0  0  0  0
  9 24  1  0  0  0  0
 11 12  1  0  0  0  0
 11 13  1  0  0  0  0
 11 17  1  0  0  0  0
 13 14  1  0  0  0  0
 13 15  1  0  0  0  0
 13 16  1  0  0  0  0
 17 18  1  0  0  0  0
 17 19  1  0  0  0  0
 17 20  1  0  0  0  0
 20 21  1  0  0  0  0
 20 22  1  0  0  0  0
 20 23  1  0  0  0  0
 24 25  2  0  0  0  0
 24 26  1  0  0  0  0
 26 27  1  0  0  0  0
 26 28  1  0  0  0  0
 28 29  1  0  0  0  0
 28 30  1  0  0  0  0
 28 31  1  0  0  0  0
M  END
$$$$

  -OEChem-03222214053D

 31 30  0     1  0  0  0  0  0999 V2000
   -2.5160   -4.3272    0.3121 H   0  0  0  0  0  0  0  0  0  0  0  0
   -2.5627   -3.2834   -0.0115 C   0  0  0  0  0  0  0  0  0  0  0  0
   -3.2613   -2.7463    0.6343 H   0  0  0  0  0  0  0  0  0  0  0  0
   -2.9284   -3.2514   -1.0407 H   0  0  0  0  0  0  0  0  0  0  0  0
   -1.1865   -2.6502    0.0705 C   0  0  0  0  0  0  0  0  0  0  0  0
   -0.2372   -3.3116    0.4492 O   0  0  0  0  0  0  0  0  0  0  0  0
   -1.0228   -1.3253   -0.2838 N   0  0  0  0  0  0  0  0  0  0  0  0
   -1.8424   -0.8417   -0.6368 H   0  0  0  0  0  0  0  0  0  0  0  0
    0.2739   -0.6155   -0.3240 C   0  0  1  0  0  0  0  0  0  0  0  0
    0.9274   -1.2760   -0.9066 H   0  0  0  0  0  0  0  0  0  0  0  0
    0.2322    0.7064   -1.1777 C   0  0  1  0  0  0  0  0  0  0  0  0
    0.8128    0.4839   -2.0800 H   0  0  0  0  0  0  0  0  0  0  0  0
   -1.1850    1.0749   -1.6630 C   0  0  0  0  0  0  0  0  0  0  0  0
   -1.8663    1.2178   -0.8185 H   0  0  0  0  0  0  0  0  0  0  0  0
   -1.1586    2.0020   -2.2445 H   0  0  0  0  0  0  0  0  0  0  0  0
   -1.5850    0.2890   -2.3114 H   0  0  0  0  0  0  0  0  0  0  0  0
    0.9008    1.9682   -0.5709 C   0  0  0  0  0  0  0  0  0  0  0  0
    1.8933    1.6974   -0.1971 H   0  0  0  0  0  0  0  0  0  0  0  0
    1.0602    2.6979   -1.3717 H   0  0  0  0  0  0  0  0  0  0  0  0
    0.1250    2.6677    0.5545 C   0  0  0  0  0  0  0  0  0  0  0  0
   -0.2066    1.9739    1.3232 H   0  0  0  0  0  0  0  0  0  0  0  0
    0.7614    3.4231    1.0253 H   0  0  0  0  0  0  0  0  0  0  0  0
   -0.7573    3.1725    0.1504 H   0  0  0  0  0  0  0  0  0  0  0  0
    1.0030   -0.5763    1.0431 C   0  0  0  0  0  0  0  0  0  0  0  0
    2.2257   -0.6322    1.0799 O   0  0  0  0  0  0  0  0  0  0  0  0
    0.3199   -0.2753    2.2077 N   0  0  0  0  0  0  0  0  0  0  0  0
   -0.6920   -0.3169    2.1586 H   0  0  0  0  0  0  0  0  0  0  0  0
    0.9606   -0.2356    3.5161 C   0  0  0  0  0  0  0  0  0  0  0  0
    1.7581    0.5148    3.5299 H   0  0  0  0  0  0  0  0  0  0  0  0
    0.2297    0.0248    4.2875 H   0  0  0  0  0  0  0  0  0  0  0  0
    1.3912   -1.2125    3.7603 H   0  0  0  0  0  0  0  0  0  0  0  0
  1  2  1  0  0  0  0
  2  3  1  0  0  0  0
  2  4  1  0  0  0  0
  2  5  1  0  0  0  0
  5  6  2  0  0  0  0
  5  7  1  0  0  0  0
  7  8  1  0  0  0  0
  7  9  1  0  0  0  0
  9 10  1  0  0  0  0
  9 11  1  0  0  0  0
  9 24  1  0  0  0  0
 11 12  1  0  0  0  0
 11 13  1  0  0  0  0
 11 17  1  0  0  0  0
 13 14  1  0  0  0  0
 13 15  1  0  0  0  0
 13 16  1  0  0  0  0
 17 18  1  0  0  0  0
 17 19  1  0  0  0  0
 17 20  1  0  0  0  0
 20 21  1  0  0  0  0
 20 22  1  0  0  0  0
 20 23  1  0  0  0  0
 24 25  2  0  0  0  0
 24 26  1  0  0  0  0
 26 27  1  0  0  0  0
 26 28  1  0  0  0  0
 28 29  1  0  0  0  0
 28 30  1  0  0  0  0
 28 31  1  0  0  0  0
M  END
$$$$

  -OEChem-03222214053D

 31 30  0     1  0  0  0  0  0999 V2000
   -2.5499   -4.3097    0.3314 H   0  0  0  0  0  0  0  0  0  0  0  0
   -2.5835   -3.2694   -0.0049 C   0  0  0  0  0  0  0  0  0  0  0  0
   -3.2720   -2.7151    0.6372 H   0  0  0  0  0  0  0  0  0  0  0  0
   -2.9530   -3.2445   -1.0329 H   0  0  0  0  0  0  0  0  0  0  0  0
   -1.1981   -2.6548    0.0643 C   0  0  0  0  0  0  0  0  0  0  0  0
   -0.2570   -3.3257    0.4465 O   0  0  0  0  0  0  0  0  0  0  0  0
   -1.0166   -1.3356   -0.3036 N   0  0  0  0  0  0  0  0  0  0  0  0
   -1.8284   -0.8471   -0.6675 H   0  0  0  0  0  0  0  0  0  0  0  0
    0.2892   -0.6409   -0.3482 C   0  0  1  0  0  0  0  0  0  0  0  0
    0.9433   -1.3012   -0.9300 H   0  0  0  0  0  0  0  0  0  0  0  0
    0.2546    0.6932   -1.1828 C   0  0  1  0  0  0  0  0  0  0  0  0
    0.8044    0.4740   -2.1048 H   0  0  0  0  0  0  0  0  0  0  0  0
   -1.1723    1.0872   -1.6248 C   0  0  0  0  0  0  0  0  0  0  0  0
   -1.8297    1.2291   -0.7620 H   0  0  0  0  0  0  0  0  0  0  0  0
   -1.1536    2.0198   -2.1973 H   0  0  0  0  0  0  0  0  0  0  0  0
   -1.6005    0.3153   -2.2719 H   0  0  0  0  0  0  0  0  0  0  0  0
    0.9404    1.9573   -0.5933 C   0  0  0  0  0  0  0  0  0  0  0  0
    2.0118    1.7553   -0.4875 H   0  0  0  0  0  0  0  0  0  0  0  0
    0.8490    2.7637   -1.3284 H   0  0  0  0  0  0  0  0  0  0  0  0
    0.4246    2.4886    0.7504 C   0  0  0  0  0  0  0  0  0  0  0  0
    1.0111    2.0844    1.5780 H   0  0  0  0  0  0  0  0  0  0  0  0
    0.5335    3.5770    0.7796 H   0  0  0  0  0  0  0  0  0  0  0  0
   -0.6301    2.2465    0.9036 H   0  0  0  0  0  0  0  0  0  0  0  0
    0.9908   -0.6108    1.0305 C   0  0  0  0  0  0  0  0  0  0  0  0
    2.2122   -0.6669    1.0942 O   0  0  0  0  0  0  0  0  0  0  0  0
    0.2761   -0.2951    2.1734 N   0  0  0  0  0  0  0  0  0  0  0  0
   -0.7340   -0.3318    2.0934 H   0  0  0  0  0  0  0  0  0  0  0  0
    0.8772   -0.2770    3.5010 C   0  0  0  0  0  0  0  0  0  0  0  0
    1.7110    0.4320    3.5353 H   0  0  0  0  0  0  0  0  0  0  0  0
    0.1374    0.0268    4.2475 H   0  0  0  0  0  0  0  0  0  0  0  0
    1.2505   -1.2724    3.7641 H   0  0  0  0  0  0  0  0  0  0  0  0
  1  2  1  0  0  0  0
  2  3  1  0  0  0  0
  2  4  1  0  0  0  0
  2  5  1  0  0  0  0
  5  6  2  0  0  0  0
  5  7  1  0  0  0  0
  7  8  1  0  0  0  0
  7  9  1  0  0  0  0
  9 10  1  0  0  0  0
  9 11  1  0  0  0  0
  9 24  1  0  0  0  0
 11 12  1  0  0  0  0
 11 13  1  0  0  0  0
 11 17  1  0  0  0  0
 13 14  1  0  0  0  0
 13 15  1  0  0  0  0
 13 16  1  0  0  0  0
 17 18  1  0  0  0  0
 17 19  1  0  0  0  0
 17 20  1  0  0  0  0
 20 21  1  0  0  0  0
 20 22  1  0  0  0  0
 20 23  1  0  0  0  0
 24 25  2  0  0  0  0
 24 26  1  0  0  0  0
 26 27  1  0  0  0  0
 26 28  1  0  0  0  0
 28 29  1  0  0  0  0
 28 30  1  0  0  0  0
 28 31  1  0  0  0  0
M  END
$$$$

  -OEChem-03222214053D

 31 30  0     1  0  0  0  0  0999 V2000
   -2.5783   -4.3023    0.3148 H   0  0  0  0  0  0  0  0  0  0  0  0
   -2.6034   -3.2589   -0.0129 C   0  0  0  0  0  0  0  0  0  0  0  0
   -3.2809   -2.7024    0.6390 H   0  0  0  0  0  0  0  0  0  0  0  0
   -2.9803   -3.2219   -1.0380 H   0  0  0  0  0  0  0  0  0  0  0  0
   -1.2114   -2.6592    0.0496 C   0  0  0  0  0  0  0  0  0  0  0  0
   -0.2715   -3.3471    0.4031 O   0  0  0  0  0  0  0  0  0  0  0  0
   -1.0224   -1.3345   -0.2938 N   0  0  0  0  0  0  0  0  0  0  0  0
   -1.8370   -0.8268   -0.6237 H   0  0  0  0  0  0  0  0  0  0  0  0
    0.2873   -0.6458   -0.3263 C   0  0  1  0  0  0  0  0  0  0  0  0
    0.9353   -1.3152   -0.9047 H   0  0  0  0  0  0  0  0  0  0  0  0
    0.2819    0.6802   -1.1844 C   0  0  1  0  0  0  0  0  0  0  0  0
    0.8212    0.4383   -2.1070 H   0  0  0  0  0  0  0  0  0  0  0  0
   -1.1486    1.0775   -1.6163 C   0  0  0  0  0  0  0  0  0  0  0  0
   -1.7736    1.2876   -0.7426 H   0  0  0  0  0  0  0  0  0  0  0  0
   -1.1306    1.9715   -2.2474 H   0  0  0  0  0  0  0  0  0  0  0  0
   -1.6127    0.2812   -2.2065 H   0  0  0  0  0  0  0  0  0  0  0  0
    0.9545    1.9776   -0.6406 C   0  0  0  0  0  0  0  0  0  0  0  0
    2.0382    1.8560   -0.7434 H   0  0  0  0  0  0  0  0  0  0  0  0
    0.6788    2.8172   -1.2867 H   0  0  0  0  0  0  0  0  0  0  0  0
    0.6909    2.3938    0.8091 C   0  0  0  0  0  0  0  0  0  0  0  0
    1.3960    1.9152    1.4920 H   0  0  0  0  0  0  0  0  0  0  0  0
    0.8307    3.4744    0.9105 H   0  0  0  0  0  0  0  0  0  0  0  0
   -0.3338    2.1533    1.1061 H   0  0  0  0  0  0  0  0  0  0  0  0
    0.9879   -0.6457    1.0524 C   0  0  0  0  0  0  0  0  0  0  0  0
    2.2082   -0.7232    1.1164 O   0  0  0  0  0  0  0  0  0  0  0  0
    0.2749   -0.3475    2.2016 N   0  0  0  0  0  0  0  0  0  0  0  0
   -0.7353   -0.3701    2.1195 H   0  0  0  0  0  0  0  0  0  0  0  0
    0.8730   -0.3693    3.5305 C   0  0  0  0  0  0  0  0  0  0  0  0
    1.7242    0.3178    3.5813 H   0  0  0  0  0  0  0  0  0  0  0  0
    0.1386   -0.0612    4.2806 H   0  0  0  0  0  0  0  0  0  0  0  0
    1.2201   -1.3785    3.7759 H   0  0  0  0  0  0  0  0  0  0  0  0
  1  2  1  0  0  0  0
  2  3  1  0  0  0  0
  2  4  1  0  0  0  0
  2  5  1  0  0  0  0
  5  6  2  0  0  0  0
  5  7  1  0  0  0  0
  7  8  1  0  0  0  0
  7  9  1  0  0  0  0
  9 10  1  0  0  0  0
  9 11  1  0  0  0  0
  9 24  1  0  0  0  0
 11 12  1  0  0  0  0
 11 13  1  0  0  0  0
 11 17  1  0  0  0  0
 13 14  1  0  0  0  0
 13 15  1  0  0  0  0
 13 16  1  0  0  0  0
 17 18  1  0  0  0  0
 17 19  1  0  0  0  0
 17 20  1  0  0  0  0
 20 21  1  0  0  0  0
 20 22  1  0  0  0  0
 20 23  1  0  0  0  0
 24 25  2  0  0  0  0
 24 26  1  0  0  0  0
 26 27  1  0  0  0  0
 26 28  1  0  0  0  0
 28 29  1  0  0  0  0
 28 30  1  0  0  0  0
 28 31  1  0  0  0  0
M  END
$$$$

  -OEChem-03222214053D

 31 30  0     1  0  0  0  0  0999 V2000
   -2.6113   -4.2939    0.2900 H   0  0  0  0  0  0  0  0  0  0  0  0
   -2.6262   -3.2454   -0.0211 C   0  0  0  0  0  0  0  0  0  0  0  0
   -3.2924   -2.6912    0.6441 H   0  0  0  0  0  0  0  0  0  0  0  0
   -3.0099   -3.1881   -1.0426 H   0  0  0  0  0  0  0  0  0  0  0  0
   -1.2263   -2.6636    0.0408 C   0  0  0  0  0  0  0  0  0  0  0  0
   -0.2926   -3.3683    0.3775 O   0  0  0  0  0  0  0  0  0  0  0  0
   -1.0240   -1.3369   -0.2872 N   0  0  0  0  0  0  0  0  0  0  0  0
   -1.8365   -0.8137   -0.5968 H   0  0  0  0  0  0  0  0  0  0  0  0
    0.2916   -0.6582   -0.3119 C   0  0  1  0  0  0  0  0  0  0  0  0
    0.9352   -1.3293   -0.8931 H   0  0  0  0  0  0  0  0  0  0  0  0
    0.2910    0.6703   -1.1756 C   0  0  1  0  0  0  0  0  0  0  0  0
    0.8333    0.4152   -2.0930 H   0  0  0  0  0  0  0  0  0  0  0  0
   -1.1390    1.0495   -1.6306 C   0  0  0  0  0  0  0  0  0  0  0  0
   -1.7664    1.2921   -0.7669 H   0  0  0  0  0  0  0  0  0  0  0  0
   -1.1208    1.9175   -2.2973 H   0  0  0  0  0  0  0  0  0  0  0  0
   -1.6005    0.2335   -2.1953 H   0  0  0  0  0  0  0  0  0  0  0  0
    0.9541    1.9974   -0.6702 C   0  0  0  0  0  0  0  0  0  0  0  0
    1.9939    1.9821   -1.0140 H   0  0  0  0  0  0  0  0  0  0  0  0
    0.4849    2.8523   -1.1670 H   0  0  0  0  0  0  0  0  0  0  0  0
    1.0101    2.3175    0.8241 C   0  0  0  0  0  0  0  0  0  0  0  0
    1.8015    1.7578    1.3269 H   0  0  0  0  0  0  0  0  0  0  0  0
    1.2366    3.3794    0.9594 H   0  0  0  0  0  0  0  0  0  0  0  0
    0.0459    2.1151    1.2985 H   0  0  0  0  0  0  0  0  0  0  0  0
    0.9889   -0.6808    1.0672 C   0  0  0  0  0  0  0  0  0  0  0  0
    2.2039   -0.8196    1.1349 O   0  0  0  0  0  0  0  0  0  0  0  0
    0.2795   -0.3895    2.2200 N   0  0  0  0  0  0  0  0  0  0  0  0
   -0.7307   -0.3721    2.1356 H   0  0  0  0  0  0  0  0  0  0  0  0
    0.8764   -0.4387    3.5483 C   0  0  0  0  0  0  0  0  0  0  0  0
    1.7250    0.2504    3.6129 H   0  0  0  0  0  0  0  0  0  0  0  0
    0.1408   -0.1504    4.3051 H   0  0  0  0  0  0  0  0  0  0  0  0
    1.2271   -1.4517    3.7714 H   0  0  0  0  0  0  0  0  0  0  0  0
  1  2  1  0  0  0  0
  2  3  1  0  0  0  0
  2  4  1  0  0  0  0
  2  5  1  0  0  0  0
  5  6  2  0  0  0  0
  5  7  1  0  0  0  0
  7  8  1  0  0  0  0
  7  9  1  0  0  0  0
  9 10  1  0  0  0  0
  9 11  1  0  0  0  0
  9 24  1  0  0  0  0
 11 12  1  0  0  0  0
 11 13  1  0  0  0  0
 11 17  1  0  0  0  0
 13 14  1  0  0  0  0
 13 15  1  0  0  0  0
 13 16  1  0  0  0  0
 17 18  1  0  0  0  0
 17 19  1  0  0  0  0
 17 20  1  0  0  0  0
 20 21  1  0  0  0  0
 20 22  1  0  0  0  0
 20 23  1  0  0  0  0
 24 25  2  0  0  0  0
 24 26  1  0  0  0  0
 26 27  1  0  0  0  0
 26 28  1  0  0  0  0
 28 29  1  0  0  0  0
 28 30  1  0  0  0  0
 28 31  1  0  0  0  0
M  END
$$$$

  -OEChem-03222214053D

 31 30  0     1  0  0  0  0  0999 V2000
   -2.6314   -4.2619    0.3740 H   0  0  0  0  0  0  0  0  0  0  0  0
   -2.6331   -3.2233    0.0307 C   0  0  0  0  0  0  0  0  0  0  0  0
   -3.2797   -2.6377    0.6883 H   0  0  0  0  0  0  0  0  0  0  0  0
   -3.0307   -3.1906   -0.9865 H   0  0  0  0  0  0  0  0  0  0  0  0
   -1.2229   -2.6641    0.0545 C   0  0  0  0  0  0  0  0  0  0  0  0
   -0.2940   -3.3833    0.3725 O   0  0  0  0  0  0  0  0  0  0  0  0
   -1.0063   -1.3433   -0.2896 N   0  0  0  0  0  0  0  0  0  0  0  0
   -1.8178   -0.8072   -0.5793 H   0  0  0  0  0  0  0  0  0  0  0  0
    0.3164   -0.6776   -0.3189 C   0  0  1  0  0  0  0  0  0  0  0  0
    0.9619   -1.3487   -0.8982 H   0  0  0  0  0  0  0  0  0  0  0  0
    0.2984    0.6583   -1.1770 C   0  0  1  0  0  0  0  0  0  0  0  0
    0.8496    0.3942   -2.0867 H   0  0  0  0  0  0  0  0  0  0  0  0
   -1.1264    1.0173   -1.6648 C   0  0  0  0  0  0  0  0  0  0  0  0
   -1.7722    1.2676   -0.8170 H   0  0  0  0  0  0  0  0  0  0  0  0
   -1.0995    1.8759   -2.3438 H   0  0  0  0  0  0  0  0  0  0  0  0
   -1.5710    0.1902   -2.2268 H   0  0  0  0  0  0  0  0  0  0  0  0
    0.9589    2.0053   -0.7052 C   0  0  0  0  0  0  0  0  0  0  0  0
    1.8693    2.1324   -1.3007 H   0  0  0  0  0  0  0  0  0  0  0  0
    0.3060    2.8433   -0.9691 H   0  0  0  0  0  0  0  0  0  0  0  0
    1.3732    2.2374    0.7467 C   0  0  0  0  0  0  0  0  0  0  0  0
    2.2202    1.6084    1.0274 H   0  0  0  0  0  0  0  0  0  0  0  0
    1.6919    3.2768    0.8702 H   0  0  0  0  0  0  0  0  0  0  0  0
    0.5318    2.0664    1.4222 H   0  0  0  0  0  0  0  0  0  0  0  0
    0.9890   -0.7020    1.0730 C   0  0  0  0  0  0  0  0  0  0  0  0
    2.1897   -0.9215    1.1724 O   0  0  0  0  0  0  0  0  0  0  0  0
    0.2633   -0.3933    2.2109 N   0  0  0  0  0  0  0  0  0  0  0  0
   -0.7418   -0.3207    2.1005 H   0  0  0  0  0  0  0  0  0  0  0  0
    0.8229   -0.4774    3.5537 C   0  0  0  0  0  0  0  0  0  0  0  0
    1.6958    0.1772    3.6476 H   0  0  0  0  0  0  0  0  0  0  0  0
    0.0795   -0.1671    4.2939 H   0  0  0  0  0  0  0  0  0  0  0  0
    1.1282   -1.5053    3.7761 H   0  0  0  0  0  0  0  0  0  0  0  0
  1  2  1  0  0  0  0
  2  3  1  0  0  0  0
  2  4  1  0  0  0  0
  2  5  1  0  0  0  0
  5  6  2  0  0  0  0
  5  7  1  0  0  0  0
  7  8  1  0  0  0  0
  7  9  1  0  0  0  0
  9 10  1  0  0  0  0
  9 11  1  0  0  0  0
  9 24  1  0  0  0  0
 11 12  1  0  0  0  0
 11 13  1  0  0  0  0
 11 17  1  0  0  0  0
 13 14  1  0  0  0  0
 13 15  1  0  0  0  0
 13 16  1  0  0  0  0
 17 18  1  0  0  0  0
 17 19  1  0  0  0  0
 17 20  1  0  0  0  0
 20 21  1  0  0  0  0
 20 22  1  0  0  0  0
 20 23  1  0  0  0  0
 24 25  2  0  0  0  0
 24 26  1  0  0  0  0
 26 27  1  0  0  0  0
 26 28  1  0  0  0  0
 28 29  1  0  0  0  0
 28 30  1  0  0  0  0
 28 31  1  0  0  0  0
M  END
$$$$

  -OEChem-03222214053D

 31 30  0     1  0  0  0  0  0999 V2000
   -2.6559   -4.2212    0.4497 H   0  0  0  0  0  0  0  0  0  0  0  0
   -2.6425   -3.1888    0.0886 C   0  0  0  0  0  0  0  0  0  0  0  0
   -3.2703   -2.5800    0.7434 H   0  0  0  0  0  0  0  0  0  0  0  0
   -3.0514   -3.1653   -0.9244 H   0  0  0  0  0  0  0  0  0  0  0  0
   -1.2224   -2.6554    0.0865 C   0  0  0  0  0  0  0  0  0  0  0  0
   -0.3028   -3.3852    0.4069 O   0  0  0  0  0  0  0  0  0  0  0  0
   -0.9883   -1.3467   -0.2901 N   0  0  0  0  0  0  0  0  0  0  0  0
   -1.7949   -0.8071   -0.5859 H   0  0  0  0  0  0  0  0  0  0  0  0
    0.3426   -0.6988   -0.3466 C   0  0  1  0  0  0  0  0  0  0  0  0
    0.9847   -1.3654   -0.9348 H   0  0  0  0  0  0  0  0  0  0  0  0
    0.2838    0.6524   -1.1788 C   0  0  1  0  0  0  0  0  0  0  0  0
    0.8249    0.3929   -2.0958 H   0  0  0  0  0  0  0  0  0  0  0  0
   -1.1452    1.0108   -1.6520 C   0  0  0  0  0  0  0  0  0  0  0  0
   -1.7920    1.2301   -0.7964 H   0  0  0  0  0  0  0  0  0  0  0  0
   -1.1247    1.8910   -2.3032 H   0  0  0  0  0  0  0  0  0  0  0  0
   -1.5822    0.1945   -2.2358 H   0  0  0  0  0  0  0  0  0  0  0  0
    0.9559    2.0005   -0.7280 C   0  0  0  0  0  0  0  0  0  0  0  0
    1.6365    2.3004   -1.5322 H   0  0  0  0  0  0  0  0  0  0  0  0
    0.1859    2.7770   -0.6707 H   0  0  0  0  0  0  0  0  0  0  0  0
    1.7412    2.1250    0.5760 C   0  0  0  0  0  0  0  0  0  0  0  0
    2.5911    1.4384    0.5895 H   0  0  0  0  0  0  0  0  0  0  0  0
    1.0996    1.9531    1.4421 H   0  0  0  0  0  0  0  0  0  0  0  0
    2.1404    3.1401    0.6625 H   0  0  0  0  0  0  0  0  0  0  0  0
    1.0027   -0.7136    1.0522 C   0  0  0  0  0  0  0  0  0  0  0  0
    2.1892   -0.9901    1.1746 O   0  0  0  0  0  0  0  0  0  0  0  0
    0.2692   -0.3738    2.1766 N   0  0  0  0  0  0  0  0  0  0  0  0
   -0.7311   -0.2703    2.0488 H   0  0  0  0  0  0  0  0  0  0  0  0
    0.8013   -0.4818    3.5289 C   0  0  0  0  0  0  0  0  0  0  0  0
    1.7098    0.1208    3.6332 H   0  0  0  0  0  0  0  0  0  0  0  0
    0.0658   -0.1232    4.2551 H   0  0  0  0  0  0  0  0  0  0  0  0
    1.0417   -1.5247    3.7616 H   0  0  0  0  0  0  0  0  0  0  0  0
  1  2  1  0  0  0  0
  2  3  1  0  0  0  0
  2  4  1  0  0  0  0
  2  5  1  0  0  0  0
  5  6  2  0  0  0  0
  5  7  1  0  0  0  0
  7  8  1  0  0  0  0
  7  9  1  0  0  0  0
  9 10  1  0  0  0  0
  9 11  1  0  0  0  0
  9 24  1  0  0  0  0
 11 12  1  0  0  0  0
 11 13  1  0  0  0  0
 11 17  1  0  0  0  0
 13 14  1  0  0  0  0
 13 15  1  0  0  0  0
 13 16  1  0  0  0  0
 17 18  1  0  0  0  0
 17 19  1  0  0  0  0
 17 20  1  0  0  0  0
 20 21  1  0  0  0  0
 20 22  1  0  0  0  0
 20 23  1  0  0  0  0
 24 25  2  0  0  0  0
 24 26  1  0  0  0  0
 26 27  1  0  0  0  0
 26 28  1  0  0  0  0
 28 29  1  0  0  0  0
 28 30  1  0  0  0  0
 28 31  1  0  0  0  0
M  END
$$$$

  -OEChem-03222214053D

 31 30  0     1  0  0  0  0  0999 V2000
   -2.6534   -4.2019    0.4586 H   0  0  0  0  0  0  0  0  0  0  0  0
   -2.6333   -3.1750    0.0824 C   0  0  0  0  0  0  0  0  0  0  0  0
   -3.2655   -2.5549    0.7221 H   0  0  0  0  0  0  0  0  0  0  0  0
   -3.0327   -3.1659   -0.9346 H   0  0  0  0  0  0  0  0  0  0  0  0
   -1.2109   -2.6470    0.0864 C   0  0  0  0  0  0  0  0  0  0  0  0
   -0.2995   -3.3749    0.4334 O   0  0  0  0  0  0  0  0  0  0  0  0
   -0.9644   -1.3490   -0.3196 N   0  0  0  0  0  0  0  0  0  0  0  0
   -1.7629   -0.8153   -0.6466 H   0  0  0  0  0  0  0  0  0  0  0  0
    0.3720   -0.7109   -0.3756 C   0  0  1  0  0  0  0  0  0  0  0  0
    1.0243   -1.3717   -0.9587 H   0  0  0  0  0  0  0  0  0  0  0  0
    0.2970    0.6539   -1.1810 C   0  0  1  0  0  0  0  0  0  0  0  0
    0.8303    0.4098   -2.1067 H   0  0  0  0  0  0  0  0  0  0  0  0
   -1.1328    1.0380   -1.6276 C   0  0  0  0  0  0  0  0  0  0  0  0
   -1.7729    1.2259   -0.7595 H   0  0  0  0  0  0  0  0  0  0  0  0
   -1.1105    1.9459   -2.2397 H   0  0  0  0  0  0  0  0  0  0  0  0
   -1.5779    0.2477   -2.2403 H   0  0  0  0  0  0  0  0  0  0  0  0
    0.9762    1.9868   -0.7117 C   0  0  0  0  0  0  0  0  0  0  0  0
    1.4163    2.4514   -1.6009 H   0  0  0  0  0  0  0  0  0  0  0  0
    0.1957    2.6676   -0.3554 H   0  0  0  0  0  0  0  0  0  0  0  0
    2.0471    1.9992    0.3790 C   0  0  0  0  0  0  0  0  0  0  0  0
    2.8331    1.2715    0.1576 H   0  0  0  0  0  0  0  0  0  0  0  0
    2.5116    2.9891    0.4198 H   0  0  0  0  0  0  0  0  0  0  0  0
    1.6206    1.8034    1.3649 H   0  0  0  0  0  0  0  0  0  0  0  0
    1.0016   -0.7023    1.0374 C   0  0  0  0  0  0  0  0  0  0  0  0
    2.1780   -1.0020    1.1968 O   0  0  0  0  0  0  0  0  0  0  0  0
    0.2445   -0.3318    2.1362 N   0  0  0  0  0  0  0  0  0  0  0  0
   -0.7499   -0.2151    1.9782 H   0  0  0  0  0  0  0  0  0  0  0  0
    0.7322   -0.4474    3.5045 C   0  0  0  0  0  0  0  0  0  0  0  0
    1.6453    0.1424    3.6379 H   0  0  0  0  0  0  0  0  0  0  0  0
   -0.0209   -0.0791    4.2078 H   0  0  0  0  0  0  0  0  0  0  0  0
    0.9506   -1.4936    3.7438 H   0  0  0  0  0  0  0  0  0  0  0  0
  1  2  1  0  0  0  0
  2  3  1  0  0  0  0
  2  4  1  0  0  0  0
  2  5  1  0  0  0  0
  5  6  2  0  0  0  0
  5  7  1  0  0  0  0
  7  8  1  0  0  0  0
  7  9  1  0  0  0  0
  9 10  1  0  0  0  0
  9 11  1  0  0  0  0
  9 24  1  0  0  0  0
 11 12  1  0  0  0  0
 11 13  1  0  0  0  0
 11 17  1  0  0  0  0
 13 14  1  0  0  0  0
 13 15  1  0  0  0  0
 13 16  1  0  0  0  0
 17 18  1  0  0  0  0
 17 19  1  0  0  0  0
 17 20  1  0  0  0  0
 20 21  1  0  0  0  0
 20 22  1  0  0  0  0
 20 23  1  0  0  0  0
 24 25  2  0  0  0  0
 24 26  1  0  0  0  0
 26 27  1  0  0  0  0
 26 28  1  0  0  0  0
 28 29  1  0  0  0  0
 28 30  1  0  0  0  0
 28 31  1  0  0  0  0
M  END
$$$$

  -OEChem-03222214053D

 31 30  0     1  0  0  0  0  0999 V2000
   -2.5910   -4.2383    0.4607 H   0  0  0  0  0  0  0  0  0  0  0  0
   -2.5859   -3.2099    0.0879 C   0  0  0  0  0  0  0  0  0  0  0  0
   -3.2283   -2.6008    0.7282 H   0  0  0  0  0  0  0  0  0  0  0  0
   -2.9838   -3.2041   -0.9296 H   0  0  0  0  0  0  0  0  0  0  0  0
   -1.1718   -2.6601    0.0948 C   0  0  0  0  0  0  0  0  0  0  0  0
   -0.2520   -3.3678    0.4601 O   0  0  0  0  0  0  0  0  0  0  0  0
   -0.9433   -1.3670   -0.3362 N   0  0  0  0  0  0  0  0  0  0  0  0
   -1.7477   -0.8562   -0.6841 H   0  0  0  0  0  0  0  0  0  0  0  0
    0.3835   -0.7110   -0.4058 C   0  0  1  0  0  0  0  0  0  0  0  0
    1.0461   -1.3578   -0.9926 H   0  0  0  0  0  0  0  0  0  0  0  0
    0.2678    0.6585   -1.1940 C   0  0  1  0  0  0  0  0  0  0  0  0
    0.7747    0.4421   -2.1410 H   0  0  0  0  0  0  0  0  0  0  0  0
   -1.1786    1.0504   -1.5735 C   0  0  0  0  0  0  0  0  0  0  0  0
   -1.7876    1.2039   -0.6765 H   0  0  0  0  0  0  0  0  0  0  0  0
   -1.1834    1.9798   -2.1525 H   0  0  0  0  0  0  0  0  0  0  0  0
   -1.6428    0.2796   -2.1970 H   0  0  0  0  0  0  0  0  0  0  0  0
    0.9426    1.9769   -0.6960 C   0  0  0  0  0  0  0  0  0  0  0  0
    1.1400    2.5910   -1.5812 H   0  0  0  0  0  0  0  0  0  0  0  0
    0.2250    2.5275   -0.0786 H   0  0  0  0  0  0  0  0  0  0  0  0
    2.2412    1.9143    0.1108 C   0  0  0  0  0  0  0  0  0  0  0  0
    2.9206    1.1644   -0.3058 H   0  0  0  0  0  0  0  0  0  0  0  0
    2.0501    1.6970    1.1640 H   0  0  0  0  0  0  0  0  0  0  0  0
    2.7428    2.8857    0.0700 H   0  0  0  0  0  0  0  0  0  0  0  0
    1.0185   -0.6634    1.0038 C   0  0  0  0  0  0  0  0  0  0  0  0
    2.1960   -0.9587    1.1662 O   0  0  0  0  0  0  0  0  0  0  0  0
    0.2620   -0.2803    2.0980 N   0  0  0  0  0  0  0  0  0  0  0  0
   -0.7335   -0.1695    1.9428 H   0  0  0  0  0  0  0  0  0  0  0  0
    0.7629   -0.3419    3.4650 C   0  0  0  0  0  0  0  0  0  0  0  0
    1.6364    0.3082    3.5819 H   0  0  0  0  0  0  0  0  0  0  0  0
   -0.0089   -0.0122    4.1668 H   0  0  0  0  0  0  0  0  0  0  0  0
    1.0500   -1.3676    3.7203 H   0  0  0  0  0  0  0  0  0  0  0  0
  1  2  1  0  0  0  0
  2  3  1  0  0  0  0
  2  4  1  0  0  0  0
  2  5  1  0  0  0  0
  5  6  2  0  0  0  0
  5  7  1  0  0  0  0
  7  8  1  0  0  0  0
  7  9  1  0  0  0  0
  9 10  1  0  0  0  0
  9 11  1  0  0  0  0
  9 24  1  0  0  0  0
 11 12  1  0  0  0  0
 11 13  1  0  0  0  0
 11 17  1  0  0  0  0
 13 14  1  0  0  0  0
 13 15  1  0  0  0  0
 13 16  1  0  0  0  0
 17 18  1  0  0  0  0
 17 19  1  0  0  0  0
 17 20  1  0  0  0  0
 20 21  1  0  0  0  0
 20 22  1  0  0  0  0
 20 23  1  0  0  0  0
 24 25  2  0  0  0  0
 24 26  1  0  0  0  0
 26 27  1  0  0  0  0
 26 28  1  0  0  0  0
 28 29  1  0  0  0  0
 28 30  1  0  0  0  0
 28 31  1  0  0  0  0
M  END
$$$$

  -OEChem-03222214053D

 31 30  0     1  0  0  0  0  0999 V2000
   -2.5577   -4.2362    0.5026 H   0  0  0  0  0  0  0  0  0  0  0  0
   -2.5606   -3.2143    0.1127 C   0  0  0  0  0  0  0  0  0  0  0  0
   -3.2125   -2.6012    0.7394 H   0  0  0  0  0  0  0  0  0  0  0  0
   -2.9524   -3.2288   -0.9071 H   0  0  0  0  0  0  0  0  0  0  0  0
   -1.1520   -2.6506    0.1195 C   0  0  0  0  0  0  0  0  0  0  0  0
   -0.2307   -3.3364    0.5214 O   0  0  0  0  0  0  0  0  0  0  0  0
   -0.9298   -1.3703   -0.3503 N   0  0  0  0  0  0  0  0  0  0  0  0
   -1.7326   -0.8813   -0.7319 H   0  0  0  0  0  0  0  0  0  0  0  0
    0.3922   -0.7063   -0.4242 C   0  0  1  0  0  0  0  0  0  0  0  0
    1.0672   -1.3559   -0.9933 H   0  0  0  0  0  0  0  0  0  0  0  0
    0.2681    0.6514   -1.2254 C   0  0  1  0  0  0  0  0  0  0  0  0
    0.7547    0.4444   -2.1848 H   0  0  0  0  0  0  0  0  0  0  0  0
   -1.1853    1.0586   -1.5596 C   0  0  0  0  0  0  0  0  0  0  0  0
   -1.7671    1.2072   -0.6440 H   0  0  0  0  0  0  0  0  0  0  0  0
   -1.2012    1.9936   -2.1292 H   0  0  0  0  0  0  0  0  0  0  0  0
   -1.6727    0.2975   -2.1772 H   0  0  0  0  0  0  0  0  0  0  0  0
    0.9521    1.9442   -0.6929 C   0  0  0  0  0  0  0  0  0  0  0  0
    0.9489    2.6779   -1.5059 H   0  0  0  0  0  0  0  0  0  0  0  0
    0.3512    2.3615    0.1220 H   0  0  0  0  0  0  0  0  0  0  0  0
    2.3956    1.8295   -0.1934 C   0  0  0  0  0  0  0  0  0  0  0  0
    2.9383    1.0549   -0.7443 H   0  0  0  0  0  0  0  0  0  0  0  0
    2.4309    1.6097    0.8762 H   0  0  0  0  0  0  0  0  0  0  0  0
    2.9128    2.7821   -0.3428 H   0  0  0  0  0  0  0  0  0  0  0  0
    1.0160   -0.6042    0.9890 C   0  0  0  0  0  0  0  0  0  0  0  0
    2.1877   -0.9085    1.1739 O   0  0  0  0  0  0  0  0  0  0  0  0
    0.2495   -0.1898    2.0645 N   0  0  0  0  0  0  0  0  0  0  0  0
   -0.7447   -0.0852    1.8978 H   0  0  0  0  0  0  0  0  0  0  0  0
    0.7380   -0.2119    3.4372 C   0  0  0  0  0  0  0  0  0  0  0  0
    1.6174    0.4325    3.5408 H   0  0  0  0  0  0  0  0  0  0  0  0
   -0.0361    0.1487    4.1211 H   0  0  0  0  0  0  0  0  0  0  0  0
    1.0119   -1.2316    3.7285 H   0  0  0  0  0  0  0  0  0  0  0  0
  1  2  1  0  0  0  0
  2  3  1  0  0  0  0
  2  4  1  0  0  0  0
  2  5  1  0  0  0  0
  5  6  2  0  0  0  0
  5  7  1  0  0  0  0
  7  8  1  0  0  0  0
  7  9  1  0  0  0  0
  9 10  1  0  0  0  0
  9 11  1  0  0  0  0
  9 24  1  0  0  0  0
 11 12  1  0  0  0  0
 11 13  1  0  0  0  0
 11 17  1  0  0  0  0
 13 14  1  0  0  0  0
 13 15  1  0  0  0  0
 13 16  1  0  0  0  0
 17 18  1  0  0  0  0
 17 19  1  0  0  0  0
 17 20  1  0  0  0  0
 20 21  1  0  0  0  0
 20 22  1  0  0  0  0
 20 23  1  0  0  0  0
 24 25  2  0  0  0  0
 24 26  1  0  0  0  0
 26 27  1  0  0  0  0
 26 28  1  0  0  0  0
 28 29  1  0  0  0  0
 28 30  1  0  0  0  0
 28 31  1  0  0  0  0
M  END
$$$$

  -OEChem-03222214053D

 31 30  0     1  0  0  0  0  0999 V2000
   -2.5219   -4.2314    0.4868 H   0  0  0  0  0  0  0  0  0  0  0  0
   -2.5341   -3.2142    0.0846 C   0  0  0  0  0  0  0  0  0  0  0  0
   -3.1888   -2.5987    0.7061 H   0  0  0  0  0  0  0  0  0  0  0  0
   -2.9293   -3.2446   -0.9335 H   0  0  0  0  0  0  0  0  0  0  0  0
   -1.1304   -2.6392    0.0799 C   0  0  0  0  0  0  0  0  0  0  0  0
   -0.2005   -3.3175    0.4746 O   0  0  0  0  0  0  0  0  0  0  0  0
   -0.9230   -1.3549   -0.3859 N   0  0  0  0  0  0  0  0  0  0  0  0
   -1.7324   -0.8694   -0.7573 H   0  0  0  0  0  0  0  0  0  0  0  0
    0.3915   -0.6757   -0.4515 C   0  0  1  0  0  0  0  0  0  0  0  0
    1.0756   -1.3134   -1.0229 H   0  0  0  0  0  0  0  0  0  0  0  0
    0.2654    0.6891   -1.2359 C   0  0  1  0  0  0  0  0  0  0  0  0
    0.7317    0.5127   -2.2113 H   0  0  0  0  0  0  0  0  0  0  0  0
   -1.1940    1.1112   -1.5227 C   0  0  0  0  0  0  0  0  0  0  0  0
   -1.7494    1.2455   -0.5888 H   0  0  0  0  0  0  0  0  0  0  0  0
   -1.2223    2.0560   -2.0751 H   0  0  0  0  0  0  0  0  0  0  0  0
   -1.7023    0.3644   -2.1406 H   0  0  0  0  0  0  0  0  0  0  0  0
    0.9604    1.9438   -0.6387 C   0  0  0  0  0  0  0  0  0  0  0  0
    0.7773    2.7876   -1.3122 H   0  0  0  0  0  0  0  0  0  0  0  0
    0.5122    2.1997    0.3272 H   0  0  0  0  0  0  0  0  0  0  0  0
    2.4810    1.8327   -0.4726 C   0  0  0  0  0  0  0  0  0  0  0  0
    2.9117    1.1784   -1.2369 H   0  0  0  0  0  0  0  0  0  0  0  0
    2.9347    2.8233   -0.5726 H   0  0  0  0  0  0  0  0  0  0  0  0
    2.7503    1.4555    0.5151 H   0  0  0  0  0  0  0  0  0  0  0  0
    1.0121   -0.5677    0.9634 C   0  0  0  0  0  0  0  0  0  0  0  0
    2.1833   -0.8683    1.1545 O   0  0  0  0  0  0  0  0  0  0  0  0
    0.2365   -0.1634    2.0362 N   0  0  0  0  0  0  0  0  0  0  0  0
   -0.7583   -0.0723    1.8642 H   0  0  0  0  0  0  0  0  0  0  0  0
    0.7151   -0.1935    3.4121 C   0  0  0  0  0  0  0  0  0  0  0  0
    1.6242    0.4086    3.5151 H   0  0  0  0  0  0  0  0  0  0  0  0
   -0.0445    0.2129    4.0865 H   0  0  0  0  0  0  0  0  0  0  0  0
    0.9374   -1.2219    3.7160 H   0  0  0  0  0  0  0  0  0  0  0  0
  1  2  1  0  0  0  0
  2  3  1  0  0  0  0
  2  4  1  0  0  0  0
  2  5  1  0  0  0  0
  5  6  2  0  0  0  0
  5  7  1  0  0  0  0
  7  8  1  0  0  0  0
  7  9  1  0  0  0  0
  9 10  1  0  0  0  0
  9 11  1  0  0  0  0
  9 24  1  0  0  0  0
 11 12  1  0  0  0  0
 11 13  1  0  0  0  0
 11 17  1  0  0  0  0
 13 14  1  0  0  0  0
 13 15  1  0  0  0  0
 13 16  1  0  0  0  0
 17 18  1  0  0  0  0
 17 19  1  0  0  0  0
 17 20  1  0  0  0  0
 20 21  1  0  0  0  0
 20 22  1  0  0  0  0
 20 23  1  0  0  0  0
 24 25  2  0  0  0  0
 24 26  1  0  0  0  0
 26 27  1  0  0  0  0
 26 28  1  0  0  0  0
 28 29  1  0  0  0  0
 28 30  1  0  0  0  0
 28 31  1  0  0  0  0
M  END
$$$$

  -OEChem-03222214053D

 31 30  0     1  0  0  0  0  0999 V2000
   -2.4816   -4.2580    0.4661 H   0  0  0  0  0  0  0  0  0  0  0  0
   -2.5072   -3.2355    0.0783 C   0  0  0  0  0  0  0  0  0  0  0  0
   -3.1794   -2.6406    0.7010 H   0  0  0  0  0  0  0  0  0  0  0  0
   -2.8909   -3.2580   -0.9446 H   0  0  0  0  0  0  0  0  0  0  0  0
   -1.1137   -2.6357    0.0977 C   0  0  0  0  0  0  0  0  0  0  0  0
   -0.1800   -3.2937    0.5172 O   0  0  0  0  0  0  0  0  0  0  0  0
   -0.9184   -1.3538   -0.3799 N   0  0  0  0  0  0  0  0  0  0  0  0
   -1.7287   -0.8878   -0.7739 H   0  0  0  0  0  0  0  0  0  0  0  0
    0.3891   -0.6613   -0.4510 C   0  0  1  0  0  0  0  0  0  0  0  0
    1.0815   -1.2983   -1.0131 H   0  0  0  0  0  0  0  0  0  0  0  0
    0.2607    0.6981   -1.2470 C   0  0  1  0  0  0  0  0  0  0  0  0
    0.7136    0.5265   -2.2296 H   0  0  0  0  0  0  0  0  0  0  0  0
   -1.2031    1.1191   -1.5115 C   0  0  0  0  0  0  0  0  0  0  0  0
   -1.7398    1.2654   -0.5686 H   0  0  0  0  0  0  0  0  0  0  0  0
   -1.2400    2.0565   -2.0757 H   0  0  0  0  0  0  0  0  0  0  0  0
   -1.7251    0.3671   -2.1113 H   0  0  0  0  0  0  0  0  0  0  0  0
    0.9630    1.9355   -0.6248 C   0  0  0  0  0  0  0  0  0  0  0  0
    0.6063    2.8494   -1.1108 H   0  0  0  0  0  0  0  0  0  0  0  0
    0.7141    2.0287    0.4362 H   0  0  0  0  0  0  0  0  0  0  0  0
    2.4854    1.9022   -0.8048 C   0  0  0  0  0  0  0  0  0  0  0  0
    2.7389    1.9546   -1.8679 H   0  0  0  0  0  0  0  0  0  0  0  0
    2.9378    2.7610   -0.2998 H   0  0  0  0  0  0  0  0  0  0  0  0
    2.9303    0.9944   -0.3973 H   0  0  0  0  0  0  0  0  0  0  0  0
    1.0032   -0.5363    0.9695 C   0  0  0  0  0  0  0  0  0  0  0  0
    2.1891   -0.7647    1.1666 O   0  0  0  0  0  0  0  0  0  0  0  0
    0.2160   -0.1327    2.0346 N   0  0  0  0  0  0  0  0  0  0  0  0
   -0.7815   -0.0763    1.8630 H   0  0  0  0  0  0  0  0  0  0  0  0
    0.6994   -0.0999    3.4089 C   0  0  0  0  0  0  0  0  0  0  0  0
    1.5482    0.5861    3.5001 H   0  0  0  0  0  0  0  0  0  0  0  0
   -0.0934    0.2413    4.0811 H   0  0  0  0  0  0  0  0  0  0  0  0
    1.0183   -1.0985    3.7256 H   0  0  0  0  0  0  0  0  0  0  0  0
  1  2  1  0  0  0  0
  2  3  1  0  0  0  0
  2  4  1  0  0  0  0
  2  5  1  0  0  0  0
  5  6  2  0  0  0  0
  5  7  1  0  0  0  0
  7  8  1  0  0  0  0
  7  9  1  0  0  0  0
  9 10  1  0  0  0  0
  9 11  1  0  0  0  0
  9 24  1  0  0  0  0
 11 12  1  0  0  0  0
 11 13  1  0  0  0  0
 11 17  1  0  0  0  0
 13 14  1  0  0  0  0
 13 15  1  0  0  0  0
 13 16  1  0  0  0  0
 17 18  1  0  0  0  0
 17 19  1  0  0  0  0
 17 20  1  0  0  0  0
 20 21  1  0  0  0  0
 20 22  1  0  0  0  0
 20 23  1  0  0  0  0
 24 25  2  0  0  0  0
 24 26  1  0  0  0  0
 26 27  1  0  0  0  0
 26 28  1  0  0  0  0
 28 29  1  0  0  0  0
 28 30  1  0  0  0  0
 28 31  1  0  0  0  0
M  END
$$$$

  -OEChem-03222214053D

 31 30  0     1  0  0  0  0  0999 V2000
   -2.4750   -4.2893    0.4023 H   0  0  0  0  0  0  0  0  0  0  0  0
   -2.5157   -3.2618    0.0296 C   0  0  0  0  0  0  0  0  0  0  0  0
   -3.2028   -2.6878    0.6558 H   0  0  0  0  0  0  0  0  0  0  0  0
   -2.8914   -3.2757   -0.9962 H   0  0  0  0  0  0  0  0  0  0  0  0
   -1.1333   -2.6381    0.0681 C   0  0  0  0  0  0  0  0  0  0  0  0
   -0.1891   -3.2850    0.4821 O   0  0  0  0  0  0  0  0  0  0  0  0
   -0.9585   -1.3399   -0.3706 N   0  0  0  0  0  0  0  0  0  0  0  0
   -1.7744   -0.8732   -0.7530 H   0  0  0  0  0  0  0  0  0  0  0  0
    0.3406   -0.6323   -0.4252 C   0  0  1  0  0  0  0  0  0  0  0  0
    1.0260   -1.2743   -0.9907 H   0  0  0  0  0  0  0  0  0  0  0  0
    0.2475    0.7150   -1.2409 C   0  0  1  0  0  0  0  0  0  0  0  0
    0.7238    0.5313   -2.2103 H   0  0  0  0  0  0  0  0  0  0  0  0
   -1.2085    1.1280   -1.5523 C   0  0  0  0  0  0  0  0  0  0  0  0
   -1.7702    1.2921   -0.6269 H   0  0  0  0  0  0  0  0  0  0  0  0
   -1.2302    2.0532   -2.1372 H   0  0  0  0  0  0  0  0  0  0  0  0
   -1.7130    0.3623   -2.1497 H   0  0  0  0  0  0  0  0  0  0  0  0
    0.9406    1.9485   -0.5928 C   0  0  0  0  0  0  0  0  0  0  0  0
    0.4468    2.8690   -0.9201 H   0  0  0  0  0  0  0  0  0  0  0  0
    0.8689    1.9435    0.4969 H   0  0  0  0  0  0  0  0  0  0  0  0
    2.4015    2.0584   -1.0356 C   0  0  0  0  0  0  0  0  0  0  0  0
    2.4669    2.1758   -2.1217 H   0  0  0  0  0  0  0  0  0  0  0  0
    2.8711    2.9276   -0.5652 H   0  0  0  0  0  0  0  0  0  0  0  0
    2.9629    1.1649   -0.7469 H   0  0  0  0  0  0  0  0  0  0  0  0
    0.9934   -0.5247    0.9762 C   0  0  0  0  0  0  0  0  0  0  0  0
    2.2075   -0.6168    1.1027 O   0  0  0  0  0  0  0  0  0  0  0  0
    0.2318   -0.1541    2.0712 N   0  0  0  0  0  0  0  0  0  0  0  0
   -0.7744   -0.1760    1.9486 H   0  0  0  0  0  0  0  0  0  0  0  0
    0.7771   -0.0624    3.4194 C   0  0  0  0  0  0  0  0  0  0  0  0
    1.5993    0.6601    3.4520 H   0  0  0  0  0  0  0  0  0  0  0  0
    0.0031    0.2656    4.1194 H   0  0  0  0  0  0  0  0  0  0  0  0
    1.1518   -1.0379    3.7468 H   0  0  0  0  0  0  0  0  0  0  0  0
  1  2  1  0  0  0  0
  2  3  1  0  0  0  0
  2  4  1  0  0  0  0
  2  5  1  0  0  0  0
  5  6  2  0  0  0  0
  5  7  1  0  0  0  0
  7  8  1  0  0  0  0
  7  9  1  0  0  0  0
  9 10  1  0  0  0  0
  9 11  1  0  0  0  0
  9 24  1  0  0  0  0
 11 12  1  0  0  0  0
 11 13  1  0  0  0  0
 11 17  1  0  0  0  0
 13 14  1  0  0  0  0
 13 15  1  0  0  0  0
 13 16  1  0  0  0  0
 17 18  1  0  0  0  0
 17 19  1  0  0  0  0
 17 20  1  0  0  0  0
 20 21  1  0  0  0  0
 20 22  1  0  0  0  0
 20 23  1  0  0  0  0
 24 25  2  0  0  0  0
 24 26  1  0  0  0  0
 26 27  1  0  0  0  0
 26 28  1  0  0  0  0
 28 29  1  0  0  0  0
 28 30  1  0  0  0  0
 28 31  1  0  0  0  0
M  END
$$$$

  -OEChem-03222214053D

 31 30  0     1  0  0  0  0  0999 V2000
   -2.4848   -4.2909    0.3753 H   0  0  0  0  0  0  0  0  0  0  0  0
   -2.5269   -3.2603    0.0112 C   0  0  0  0  0  0  0  0  0  0  0  0
   -3.2197   -2.6948    0.6388 H   0  0  0  0  0  0  0  0  0  0  0  0
   -2.8966   -3.2661   -1.0170 H   0  0  0  0  0  0  0  0  0  0  0  0
   -1.1465   -2.6330    0.0629 C   0  0  0  0  0  0  0  0  0  0  0  0
   -0.2019   -3.2819    0.4733 O   0  0  0  0  0  0  0  0  0  0  0  0
   -0.9731   -1.3278   -0.3550 N   0  0  0  0  0  0  0  0  0  0  0  0
   -1.7881   -0.8562   -0.7331 H   0  0  0  0  0  0  0  0  0  0  0  0
    0.3259   -0.6203   -0.4005 C   0  0  1  0  0  0  0  0  0  0  0  0
    1.0062   -1.2645   -0.9695 H   0  0  0  0  0  0  0  0  0  0  0  0
    0.2445    0.7248   -1.2208 C   0  0  1  0  0  0  0  0  0  0  0  0
    0.7403    0.5243   -2.1770 H   0  0  0  0  0  0  0  0  0  0  0  0
   -1.2033    1.1259   -1.5803 C   0  0  0  0  0  0  0  0  0  0  0  0
   -1.7943    1.2978   -0.6749 H   0  0  0  0  0  0  0  0  0  0  0  0
   -1.2088    2.0444   -2.1761 H   0  0  0  0  0  0  0  0  0  0  0  0
   -1.6857    0.3503   -2.1834 H   0  0  0  0  0  0  0  0  0  0  0  0
    0.9295    1.9741   -0.5810 C   0  0  0  0  0  0  0  0  0  0  0  0
    0.2865    2.8534   -0.6893 H   0  0  0  0  0  0  0  0  0  0  0  0
    1.1042    1.8733    0.4906 H   0  0  0  0  0  0  0  0  0  0  0  0
    2.2489    2.2938   -1.2847 C   0  0  0  0  0  0  0  0  0  0  0  0
    2.0833    2.4884   -2.3487 H   0  0  0  0  0  0  0  0  0  0  0  0
    2.7078    3.1809   -0.8378 H   0  0  0  0  0  0  0  0  0  0  0  0
    2.9455    1.4554   -1.1834 H   0  0  0  0  0  0  0  0  0  0  0  0
    0.9916   -0.5291    0.9943 C   0  0  0  0  0  0  0  0  0  0  0  0
    2.2105   -0.5836    1.0964 O   0  0  0  0  0  0  0  0  0  0  0  0
    0.2404   -0.1729    2.1007 N   0  0  0  0  0  0  0  0  0  0  0  0
   -0.7668   -0.2180    1.9936 H   0  0  0  0  0  0  0  0  0  0  0  0
    0.8043   -0.0792    3.4409 C   0  0  0  0  0  0  0  0  0  0  0  0
    1.6169    0.6545    3.4650 H   0  0  0  0  0  0  0  0  0  0  0  0
    0.0364    0.2349    4.1541 H   0  0  0  0  0  0  0  0  0  0  0  0
    1.1978   -1.0508    3.7579 H   0  0  0  0  0  0  0  0  0  0  0  0
  1  2  1  0  0  0  0
  2  3  1  0  0  0  0
  2  4  1  0  0  0  0
  2  5  1  0  0  0  0
  5  6  2  0  0  0  0
  5  7  1  0  0  0  0
  7  8  1  0  0  0  0
  7  9  1  0  0  0  0
  9 10  1  0  0  0  0
  9 11  1  0  0  0  0
  9 24  1  0  0  0  0
 11 12  1  0  0  0  0
 11 13  1  0  0  0  0
 11 17  1  0  0  0  0
 13 14  1  0  0  0  0
 13 15  1  0  0  0  0
 13 16  1  0  0  0  0
 17 18  1  0  0  0  0
 17 19  1  0  0  0  0
 17 20  1  0  0  0  0
 20 21  1  0  0  0  0
 20 22  1  0  0  0  0
 20 23  1  0  0  0  0
 24 25  2  0  0  0  0
 24 26  1  0  0  0  0
 26 27  1  0  0  0  0
 26 28  1  0  0  0  0
 28 29  1  0  0  0  0
 28 30  1  0  0  0  0
 28 31  1  0  0  0  0
M  END
$$$$

  -OEChem-03222214053D

 31 30  0     1  0  0  0  0  0999 V2000
   -2.4958   -4.2742    0.3835 H   0  0  0  0  0  0  0  0  0  0  0  0
   -2.5279   -3.2444    0.0162 C   0  0  0  0  0  0  0  0  0  0  0  0
   -3.2146   -2.6696    0.6423 H   0  0  0  0  0  0  0  0  0  0  0  0
   -2.8985   -3.2502   -1.0117 H   0  0  0  0  0  0  0  0  0  0  0  0
   -1.1411   -2.6305    0.0646 C   0  0  0  0  0  0  0  0  0  0  0  0
   -0.2020   -3.2897    0.4707 O   0  0  0  0  0  0  0  0  0  0  0  0
   -0.9559   -1.3276   -0.3561 N   0  0  0  0  0  0  0  0  0  0  0  0
   -1.7667   -0.8504   -0.7363 H   0  0  0  0  0  0  0  0  0  0  0  0
    0.3482   -0.6289   -0.3990 C   0  0  1  0  0  0  0  0  0  0  0  0
    1.0310   -1.2662   -0.9729 H   0  0  0  0  0  0  0  0  0  0  0  0
    0.2496    0.7289   -1.1973 C   0  0  1  0  0  0  0  0  0  0  0  0
    0.7525    0.5283   -2.1499 H   0  0  0  0  0  0  0  0  0  0  0  0
   -1.1944    1.1308   -1.5674 C   0  0  0  0  0  0  0  0  0  0  0  0
   -1.8007    1.2735   -0.6671 H   0  0  0  0  0  0  0  0  0  0  0  0
   -1.1940    2.0676   -2.1342 H   0  0  0  0  0  0  0  0  0  0  0  0
   -1.6622    0.3690   -2.1989 H   0  0  0  0  0  0  0  0  0  0  0  0
    0.9336    1.9848   -0.5670 C   0  0  0  0  0  0  0  0  0  0  0  0
    0.1930    2.7678   -0.3727 H   0  0  0  0  0  0  0  0  0  0  0  0
    1.4116    1.7816    0.3909 H   0  0  0  0  0  0  0  0  0  0  0  0
    2.0097    2.5454   -1.4990 C   0  0  0  0  0  0  0  0  0  0  0  0
    1.5758    2.8253   -2.4641 H   0  0  0  0  0  0  0  0  0  0  0  0
    2.4667    3.4344   -1.0537 H   0  0  0  0  0  0  0  0  0  0  0  0
    2.7945    1.8008   -1.6668 H   0  0  0  0  0  0  0  0  0  0  0  0
    0.9983   -0.5454    1.0034 C   0  0  0  0  0  0  0  0  0  0  0  0
    2.2141   -0.6284    1.1234 O   0  0  0  0  0  0  0  0  0  0  0  0
    0.2370   -0.1841    2.1011 N   0  0  0  0  0  0  0  0  0  0  0  0
   -0.7693   -0.2076    1.9790 H   0  0  0  0  0  0  0  0  0  0  0  0
    0.7838   -0.0956    3.4489 C   0  0  0  0  0  0  0  0  0  0  0  0
    1.6031    0.6304    3.4830 H   0  0  0  0  0  0  0  0  0  0  0  0
    0.0091    0.2264    4.1513 H   0  0  0  0  0  0  0  0  0  0  0  0
    1.1634   -1.0708    3.7717 H   0  0  0  0  0  0  0  0  0  0  0  0
  1  2  1  0  0  0  0
  2  3  1  0  0  0  0
  2  4  1  0  0  0  0
  2  5  1  0  0  0  0
  5  6  2  0  0  0  0
  5  7  1  0  0  0  0
  7  8  1  0  0  0  0
  7  9  1  0  0  0  0
  9 10  1  0  0  0  0
  9 11  1  0  0  0  0
  9 24  1  0  0  0  0
 11 12  1  0  0  0  0
 11 13  1  0  0  0  0
 11 17  1  0  0  0  0
 13 14  1  0  0  0  0
 13 15  1  0  0  0  0
 13 16  1  0  0  0  0
 17 18  1  0  0  0  0
 17 19  1  0  0  0  0
 17 20  1  0  0  0  0
 20 21  1  0  0  0  0
 20 22  1  0  0  0  0
 20 23  1  0  0  0  0
 24 25  2  0  0  0  0
 24 26  1  0  0  0  0
 26 27  1  0  0  0  0
 26 28  1  0  0  0  0
 28 29  1  0  0  0  0
 28 30  1  0  0  0  0
 28 31  1  0  0  0  0
M  END
$$$$

  -OEChem-03222214053D

 31 30  0     1  0  0  0  0  0999 V2000
   -2.4955   -4.2648    0.3961 H   0  0  0  0  0  0  0  0  0  0  0  0
   -2.5231   -3.2369    0.0229 C   0  0  0  0  0  0  0  0  0  0  0  0
   -3.2080   -2.6558    0.6450 H   0  0  0  0  0  0  0  0  0  0  0  0
   -2.8927   -3.2467   -1.0053 H   0  0  0  0  0  0  0  0  0  0  0  0
   -1.1339   -2.6285    0.0698 C   0  0  0  0  0  0  0  0  0  0  0  0
   -0.1987   -3.2880    0.4845 O   0  0  0  0  0  0  0  0  0  0  0  0
   -0.9423   -1.3311   -0.3649 N   0  0  0  0  0  0  0  0  0  0  0  0
   -1.7498   -0.8573   -0.7560 H   0  0  0  0  0  0  0  0  0  0  0  0
    0.3642   -0.6369   -0.4125 C   0  0  1  0  0  0  0  0  0  0  0  0
    1.0492   -1.2694   -0.9888 H   0  0  0  0  0  0  0  0  0  0  0  0
    0.2492    0.7290   -1.1926 C   0  0  1  0  0  0  0  0  0  0  0  0
    0.7508    0.5391   -2.1480 H   0  0  0  0  0  0  0  0  0  0  0  0
   -1.1966    1.1411   -1.5424 C   0  0  0  0  0  0  0  0  0  0  0  0
   -1.7964    1.2621   -0.6346 H   0  0  0  0  0  0  0  0  0  0  0  0
   -1.2010    2.0919   -2.0847 H   0  0  0  0  0  0  0  0  0  0  0  0
   -1.6688    0.3942   -2.1881 H   0  0  0  0  0  0  0  0  0  0  0  0
    0.9408    1.9704   -0.5521 C   0  0  0  0  0  0  0  0  0  0  0  0
    0.2018    2.6118   -0.0610 H   0  0  0  0  0  0  0  0  0  0  0  0
    1.6730    1.6930    0.2070 H   0  0  0  0  0  0  0  0  0  0  0  0
    1.7200    2.7702   -1.5991 C   0  0  0  0  0  0  0  0  0  0  0  0
    1.0556    3.1117   -2.3985 H   0  0  0  0  0  0  0  0  0  0  0  0
    2.1808    3.6466   -1.1334 H   0  0  0  0  0  0  0  0  0  0  0  0
    2.5129    2.1565   -2.0381 H   0  0  0  0  0  0  0  0  0  0  0  0
    1.0039   -0.5442    0.9949 C   0  0  0  0  0  0  0  0  0  0  0  0
    2.2153   -0.6602    1.1306 O   0  0  0  0  0  0  0  0  0  0  0  0
    0.2365   -0.1701    2.0838 N   0  0  0  0  0  0  0  0  0  0  0  0
   -0.7684   -0.1720    1.9492 H   0  0  0  0  0  0  0  0  0  0  0  0
    0.7691   -0.0921    3.4377 C   0  0  0  0  0  0  0  0  0  0  0  0
    1.5967    0.6237    3.4831 H   0  0  0  0  0  0  0  0  0  0  0  0
   -0.0092    0.2372    4.1324 H   0  0  0  0  0  0  0  0  0  0  0  0
    1.1334   -1.0728    3.7616 H   0  0  0  0  0  0  0  0  0  0  0  0
  1  2  1  0  0  0  0
  2  3  1  0  0  0  0
  2  4  1  0  0  0  0
  2  5  1  0  0  0  0
  5  6  2  0  0  0  0
  5  7  1  0  0  0  0
  7  8  1  0  0  0  0
  7  9  1  0  0  0  0
  9 10  1  0  0  0  0
  9 11  1  0  0  0  0
  9 24  1  0  0  0  0
 11 12  1  0  0  0  0
 11 13  1  0  0  0  0
 11 17  1  0  0  0  0
 13 14  1  0  0  0  0
 13 15  1  0  0  0  0
 13 16  1  0  0  0  0
 17 18  1  0  0  0  0
 17 19  1  0  0  0  0
 17 20  1  0  0  0  0
 20 21  1  0  0  0  0
 20 22  1  0  0  0  0
 20 23  1  0  0  0  0
 24 25  2  0  0  0  0
 24 26  1  0  0  0  0
 26 27  1  0  0  0  0
 26 28  1  0  0  0  0
 28 29  1  0  0  0  0
 28 30  1  0  0  0  0
 28 31  1  0  0  0  0
M  END
$$$$

  -OEChem-03222214053D

 31 30  0     1  0  0  0  0  0999 V2000
   -2.4799   -4.2711    0.4115 H   0  0  0  0  0  0  0  0  0  0  0  0
   -2.5127   -3.2456    0.0326 C   0  0  0  0  0  0  0  0  0  0  0  0
   -3.1998   -2.6642    0.6520 H   0  0  0  0  0  0  0  0  0  0  0  0
   -2.8828   -3.2633   -0.9952 H   0  0  0  0  0  0  0  0  0  0  0  0
   -1.1269   -2.6295    0.0752 C   0  0  0  0  0  0  0  0  0  0  0  0
   -0.1894   -3.2791    0.4997 O   0  0  0  0  0  0  0  0  0  0  0  0
   -0.9422   -1.3361   -0.3738 N   0  0  0  0  0  0  0  0  0  0  0  0
   -1.7508   -0.8736   -0.7760 H   0  0  0  0  0  0  0  0  0  0  0  0
    0.3609   -0.6366   -0.4311 C   0  0  1  0  0  0  0  0  0  0  0  0
    1.0482   -1.2682   -1.0057 H   0  0  0  0  0  0  0  0  0  0  0  0
    0.2404    0.7288   -1.2106 C   0  0  1  0  0  0  0  0  0  0  0  0
    0.7364    0.5544   -2.1717 H   0  0  0  0  0  0  0  0  0  0  0  0
   -1.2155    1.1403   -1.5269 C   0  0  0  0  0  0  0  0  0  0  0  0
   -1.7929    1.2585   -0.6044 H   0  0  0  0  0  0  0  0  0  0  0  0
   -1.2443    2.0891   -2.0694 H   0  0  0  0  0  0  0  0  0  0  0  0
   -1.7012    0.3922   -2.1610 H   0  0  0  0  0  0  0  0  0  0  0  0
    0.9452    1.9443   -0.5454 C   0  0  0  0  0  0  0  0  0  0  0  0
    0.2805    2.4207    0.1827 H   0  0  0  0  0  0  0  0  0  0  0  0
    1.8458    1.6285   -0.0139 H   0  0  0  0  0  0  0  0  0  0  0  0
    1.4281    2.9681   -1.5788 C   0  0  0  0  0  0  0  0  0  0  0  0
    0.5900    3.3955   -2.1358 H   0  0  0  0  0  0  0  0  0  0  0  0
    1.9544    3.7845   -1.0746 H   0  0  0  0  0  0  0  0  0  0  0  0
    2.1187    2.5004   -2.2877 H   0  0  0  0  0  0  0  0  0  0  0  0
    1.0006   -0.5271    0.9764 C   0  0  0  0  0  0  0  0  0  0  0  0
    2.2108   -0.6504    1.1163 O   0  0  0  0  0  0  0  0  0  0  0  0
    0.2330   -0.1454    2.0627 N   0  0  0  0  0  0  0  0  0  0  0  0
   -0.7717   -0.1465    1.9273 H   0  0  0  0  0  0  0  0  0  0  0  0
    0.7633   -0.0712    3.4179 C   0  0  0  0  0  0  0  0  0  0  0  0
    1.5943    0.6403    3.4659 H   0  0  0  0  0  0  0  0  0  0  0  0
   -0.0146    0.2616    4.1114 H   0  0  0  0  0  0  0  0  0  0  0  0
    1.1218   -1.0539    3.7422 H   0  0  0  0  0  0  0  0  0  0  0  0
  1  2  1  0  0  0  0
  2  3  1  0  0  0  0
  2  4  1  0  0  0  0
  2  5  1  0  0  0  0
  5  6  2  0  0  0  0
  5  7  1  0  0  0  0
  7  8  1  0  0  0  0
  7  9  1  0  0  0  0
  9 10  1  0  0  0  0
  9 11  1  0  0  0  0
  9 24  1  0  0  0  0
 11 12  1  0  0  0  0
 11 13  1  0  0  0  0
 11 17  1  0  0  0  0
 13 14  1  0  0  0  0
 13 15  1  0  0  0  0
 13 16  1  0  0  0  0
 17 18  1  0  0  0  0
 17 19  1  0  0  0  0
 17 20  1  0  0  0  0
 20 21  1  0  0  0  0
 20 22  1  0  0  0  0
 20 23  1  0  0  0  0
 24 25  2  0  0  0  0
 24 26  1  0  0  0  0
 26 27  1  0  0  0  0
 26 28  1  0  0  0  0
 28 29  1  0  0  0  0
 28 30  1  0  0  0  0
 28 31  1  0  0  0  0
M  END
$$$$

  -OEChem-03222214053D

 31 30  0     1  0  0  0  0  0999 V2000
   -2.4616   -4.2872    0.4263 H   0  0  0  0  0  0  0  0  0  0  0  0
   -2.5051   -3.2634    0.0438 C   0  0  0  0  0  0  0  0  0  0  0  0
   -3.1918   -2.6849    0.6662 H   0  0  0  0  0  0  0  0  0  0  0  0
   -2.8832   -3.2875   -0.9810 H   0  0  0  0  0  0  0  0  0  0  0  0
   -1.1238   -2.6366    0.0729 C   0  0  0  0  0  0  0  0  0  0  0  0
   -0.1773   -3.2778    0.4905 O   0  0  0  0  0  0  0  0  0  0  0  0
   -0.9529   -1.3419   -0.3778 N   0  0  0  0  0  0  0  0  0  0  0  0
   -1.7693   -0.8835   -0.7687 H   0  0  0  0  0  0  0  0  0  0  0  0
    0.3438   -0.6312   -0.4419 C   0  0  1  0  0  0  0  0  0  0  0  0
    1.0313   -1.2628   -1.0164 H   0  0  0  0  0  0  0  0  0  0  0  0
    0.2260    0.7306   -1.2283 C   0  0  1  0  0  0  0  0  0  0  0  0
    0.7297    0.5684   -2.1875 H   0  0  0  0  0  0  0  0  0  0  0  0
   -1.2330    1.1287   -1.5509 C   0  0  0  0  0  0  0  0  0  0  0  0
   -1.8010    1.2911   -0.6292 H   0  0  0  0  0  0  0  0  0  0  0  0
   -1.2707    2.0457   -2.1435 H   0  0  0  0  0  0  0  0  0  0  0  0
   -1.7255    0.3527   -2.1447 H   0  0  0  0  0  0  0  0  0  0  0  0
    0.9394    1.9232   -0.5348 C   0  0  0  0  0  0  0  0  0  0  0  0
    0.3866    2.2273    0.3601 H   0  0  0  0  0  0  0  0  0  0  0  0
    1.9415    1.6133   -0.2227 H   0  0  0  0  0  0  0  0  0  0  0  0
    1.1373    3.1360   -1.4515 C   0  0  0  0  0  0  0  0  0  0  0  0
    0.1859    3.6248   -1.6770 H   0  0  0  0  0  0  0  0  0  0  0  0
    1.7828    3.8695   -0.9587 H   0  0  0  0  0  0  0  0  0  0  0  0
    1.6130    2.8351   -2.3900 H   0  0  0  0  0  0  0  0  0  0  0  0
    0.9935   -0.5129    0.9612 C   0  0  0  0  0  0  0  0  0  0  0  0
    2.2068   -0.6142    1.0909 O   0  0  0  0  0  0  0  0  0  0  0  0
    0.2295   -0.1364    2.0520 N   0  0  0  0  0  0  0  0  0  0  0  0
   -0.7762   -0.1574    1.9252 H   0  0  0  0  0  0  0  0  0  0  0  0
    0.7694   -0.0463    3.4023 C   0  0  0  0  0  0  0  0  0  0  0  0
    1.5975    0.6694    3.4370 H   0  0  0  0  0  0  0  0  0  0  0  0
   -0.0053    0.2899    4.0976 H   0  0  0  0  0  0  0  0  0  0  0  0
    1.1346   -1.0240    3.7338 H   0  0  0  0  0  0  0  0  0  0  0  0
  1  2  1  0  0  0  0
  2  3  1  0  0  0  0
  2  4  1  0  0  0  0
  2  5  1  0  0  0  0
  5  6  2  0  0  0  0
  5  7  1  0  0  0  0
  7  8  1  0  0  0  0
  7  9  1  0  0  0  0
  9 10  1  0  0  0  0
  9 11  1  0  0  0  0
  9 24  1  0  0  0  0
 11 12  1  0  0  0  0
 11 13  1  0  0  0  0
 11 17  1  0  0  0  0
 13 14  1  0  0  0  0
 13 15  1  0  0  0  0
 13 16  1  0  0  0  0
 17 18  1  0  0  0  0
 17 19  1  0  0  0  0
 17 20  1  0  0  0  0
 20 21  1  0  0  0  0
 20 22  1  0  0  0  0
 20 23  1  0  0  0  0
 24 25  2  0  0  0  0
 24 26  1  0  0  0  0
 26 27  1  0  0  0  0
 26 28  1  0  0  0  0
 28 29  1  0  0  0  0
 28 30  1  0  0  0  0
 28 31  1  0  0  0  0
M  END
$$$$

  -OEChem-03222214053D

 31 30  0     1  0  0  0  0  0999 V2000
   -2.4451   -4.2972    0.4287 H   0  0  0  0  0  0  0  0  0  0  0  0
   -2.4937   -3.2756    0.0408 C   0  0  0  0  0  0  0  0  0  0  0  0
   -3.1879   -2.6987    0.6566 H   0  0  0  0  0  0  0  0  0  0  0  0
   -2.8657   -3.3076   -0.9860 H   0  0  0  0  0  0  0  0  0  0  0  0
   -1.1171   -2.6389    0.0747 C   0  0  0  0  0  0  0  0  0  0  0  0
   -0.1707   -3.2678    0.5108 O   0  0  0  0  0  0  0  0  0  0  0  0
   -0.9513   -1.3494   -0.3932 N   0  0  0  0  0  0  0  0  0  0  0  0
   -1.7649   -0.9084   -0.8087 H   0  0  0  0  0  0  0  0  0  0  0  0
    0.3435   -0.6366   -0.4661 C   0  0  1  0  0  0  0  0  0  0  0  0
    1.0372   -1.2657   -1.0357 H   0  0  0  0  0  0  0  0  0  0  0  0
    0.2181    0.7208   -1.2547 C   0  0  1  0  0  0  0  0  0  0  0  0
    0.4390    0.5075   -2.3060 H   0  0  0  0  0  0  0  0  0  0  0  0
   -1.2170    1.3005   -1.1980 C   0  0  0  0  0  0  0  0  0  0  0  0
   -1.5053    1.5084   -0.1626 H   0  0  0  0  0  0  0  0  0  0  0  0
   -1.2951    2.2258   -1.7734 H   0  0  0  0  0  0  0  0  0  0  0  0
   -1.9416    0.6110   -1.6392 H   0  0  0  0  0  0  0  0  0  0  0  0
    1.2317    1.7937   -0.7630 C   0  0  0  0  0  0  0  0  0  0  0  0
    1.0801    2.0042    0.3004 H   0  0  0  0  0  0  0  0  0  0  0  0
    2.2439    1.3929   -0.8836 H   0  0  0  0  0  0  0  0  0  0  0  0
    1.1557    3.1354   -1.5005 C   0  0  0  0  0  0  0  0  0  0  0  0
    0.2561    3.6912   -1.2220 H   0  0  0  0  0  0  0  0  0  0  0  0
    2.0223    3.7499   -1.2376 H   0  0  0  0  0  0  0  0  0  0  0  0
    1.1596    2.9790   -2.5837 H   0  0  0  0  0  0  0  0  0  0  0  0
    0.9895   -0.5005    0.9369 C   0  0  0  0  0  0  0  0  0  0  0  0
    2.2041   -0.5826    1.0690 O   0  0  0  0  0  0  0  0  0  0  0  0
    0.2205   -0.1127    2.0201 N   0  0  0  0  0  0  0  0  0  0  0  0
   -0.7846   -0.1460    1.8918 H   0  0  0  0  0  0  0  0  0  0  0  0
    0.7556   -0.0038    3.3708 C   0  0  0  0  0  0  0  0  0  0  0  0
    1.5828    0.7133    3.3994 H   0  0  0  0  0  0  0  0  0  0  0  0
   -0.0218    0.3406    4.0592 H   0  0  0  0  0  0  0  0  0  0  0  0
    1.1206   -0.9769    3.7158 H   0  0  0  0  0  0  0  0  0  0  0  0
  1  2  1  0  0  0  0
  2  3  1  0  0  0  0
  2  4  1  0  0  0  0
  2  5  1  0  0  0  0
  5  6  2  0  0  0  0
  5  7  1  0  0  0  0
  7  8  1  0  0  0  0
  7  9  1  0  0  0  0
  9 10  1  0  0  0  0
  9 11  1  0  0  0  0
  9 24  1  0  0  0  0
 11 12  1  0  0  0  0
 11 13  1  0  0  0  0
 11 17  1  0  0  0  0
 13 14  1  0  0  0  0
 13 15  1  0  0  0  0
 13 16  1  0  0  0  0
 17 18  1  0  0  0  0
 17 19  1  0  0  0  0
 17 20  1  0  0  0  0
 20 21  1  0  0  0  0
 20 22  1  0  0  0  0
 20 23  1  0  0  0  0
 24 25  2  0  0  0  0
 24 26  1  0  0  0  0
 26 27  1  0  0  0  0
 26 28  1  0  0  0  0
 28 29  1  0  0  0  0
 28 30  1  0  0  0  0
 28 31  1  0  0  0  0
M  END
$$$$

  -OEChem-03222214053D

 31 30  0     1  0  0  0  0  0999 V2000
   -2.4495   -4.2998    0.4266 H   0  0  0  0  0  0  0  0  0  0  0  0
   -2.5014   -3.2762    0.0444 C   0  0  0  0  0  0  0  0  0  0  0  0
   -3.1925   -2.7033    0.6673 H   0  0  0  0  0  0  0  0  0  0  0  0
   -2.8797   -3.3037   -0.9802 H   0  0  0  0  0  0  0  0  0  0  0  0
   -1.1251   -2.6386    0.0725 C   0  0  0  0  0  0  0  0  0  0  0  0
   -0.1733   -3.2737    0.4874 O   0  0  0  0  0  0  0  0  0  0  0  0
   -0.9639   -1.3420   -0.3767 N   0  0  0  0  0  0  0  0  0  0  0  0
   -1.7836   -0.8913   -0.7690 H   0  0  0  0  0  0  0  0  0  0  0  0
    0.3303   -0.6268   -0.4480 C   0  0  1  0  0  0  0  0  0  0  0  0
    1.0192   -1.2587   -1.0201 H   0  0  0  0  0  0  0  0  0  0  0  0
    0.2182    0.7284   -1.2495 C   0  0  1  0  0  0  0  0  0  0  0  0
    0.4532    0.5080   -2.2963 H   0  0  0  0  0  0  0  0  0  0  0  0
   -1.2275    1.2876   -1.2313 C   0  0  0  0  0  0  0  0  0  0  0  0
   -1.5344    1.5214   -0.2068 H   0  0  0  0  0  0  0  0  0  0  0  0
   -1.3122    2.1926   -1.8380 H   0  0  0  0  0  0  0  0  0  0  0  0
   -1.9358    0.5764   -1.6642 H   0  0  0  0  0  0  0  0  0  0  0  0
    1.2281    1.8186   -0.7670 C   0  0  0  0  0  0  0  0  0  0  0  0
    1.2351    1.8833    0.3236 H   0  0  0  0  0  0  0  0  0  0  0  0
    2.2327    1.5213   -1.0862 H   0  0  0  0  0  0  0  0  0  0  0  0
    0.9523    3.2495   -1.2439 C   0  0  0  0  0  0  0  0  0  0  0  0
    0.0518    3.6571   -0.7746 H   0  0  0  0  0  0  0  0  0  0  0  0
    1.7926    3.8963   -0.9736 H   0  0  0  0  0  0  0  0  0  0  0  0
    0.8349    3.2750   -2.3316 H   0  0  0  0  0  0  0  0  0  0  0  0
    0.9858   -0.5117    0.9519 C   0  0  0  0  0  0  0  0  0  0  0  0
    2.2026   -0.5840    1.0700 O   0  0  0  0  0  0  0  0  0  0  0  0
    0.2259   -0.1414    2.0476 N   0  0  0  0  0  0  0  0  0  0  0  0
   -0.7804   -0.1794    1.9304 H   0  0  0  0  0  0  0  0  0  0  0  0
    0.7761   -0.0413    3.3932 C   0  0  0  0  0  0  0  0  0  0  0  0
    1.5968    0.6834    3.4189 H   0  0  0  0  0  0  0  0  0  0  0  0
    0.0040    0.2887    4.0945 H   0  0  0  0  0  0  0  0  0  0  0  0
    1.1542   -1.0143    3.7242 H   0  0  0  0  0  0  0  0  0  0  0  0
  1  2  1  0  0  0  0
  2  3  1  0  0  0  0
  2  4  1  0  0  0  0
  2  5  1  0  0  0  0
  5  6  2  0  0  0  0
  5  7  1  0  0  0  0
  7  8  1  0  0  0  0
  7  9  1  0  0  0  0
  9 10  1  0  0  0  0
  9 11  1  0  0  0  0
  9 24  1  0  0  0  0
 11 12  1  0  0  0  0
 11 13  1  0  0  0  0
 11 17  1  0  0  0  0
 13 14  1  0  0  0  0
 13 15  1  0  0  0  0
 13 16  1  0  0  0  0
 17 18  1  0  0  0  0
 17 19  1  0  0  0  0
 17 20  1  0  0  0  0
 20 21  1  0  0  0  0
 20 22  1  0  0  0  0
 20 23  1  0  0  0  0
 24 25  2  0  0  0  0
 24 26  1  0  0  0  0
 26 27  1  0  0  0  0
 26 28  1  0  0  0  0
 28 29  1  0  0  0  0
 28 30  1  0  0  0  0
 28 31  1  0  0  0  0
M  END
$$$$

  -OEChem-03222214053D

 31 30  0     1  0  0  0  0  0999 V2000
   -2.4611   -4.2874    0.4428 H   0  0  0  0  0  0  0  0  0  0  0  0
   -2.5074   -3.2638    0.0599 C   0  0  0  0  0  0  0  0  0  0  0  0
   -3.1871   -2.6842    0.6891 H   0  0  0  0  0  0  0  0  0  0  0  0
   -2.8960   -3.2884   -0.9609 H   0  0  0  0  0  0  0  0  0  0  0  0
   -1.1247   -2.6393    0.0734 C   0  0  0  0  0  0  0  0  0  0  0  0
   -0.1726   -3.2877    0.4663 O   0  0  0  0  0  0  0  0  0  0  0  0
   -0.9582   -1.3407   -0.3681 N   0  0  0  0  0  0  0  0  0  0  0  0
   -1.7819   -0.8749   -0.7329 H   0  0  0  0  0  0  0  0  0  0  0  0
    0.3387   -0.6297   -0.4411 C   0  0  1  0  0  0  0  0  0  0  0  0
    1.0250   -1.2602   -1.0180 H   0  0  0  0  0  0  0  0  0  0  0  0
    0.2233    0.7320   -1.2389 C   0  0  1  0  0  0  0  0  0  0  0  0
    0.4629    0.5081   -2.2839 H   0  0  0  0  0  0  0  0  0  0  0  0
   -1.2345    1.2637   -1.2466 C   0  0  0  0  0  0  0  0  0  0  0  0
   -1.5707    1.4774   -0.2269 H   0  0  0  0  0  0  0  0  0  0  0  0
   -1.3248    2.1736   -1.8451 H   0  0  0  0  0  0  0  0  0  0  0  0
   -1.9175    0.5440   -1.7057 H   0  0  0  0  0  0  0  0  0  0  0  0
    1.2297    1.8463   -0.7788 C   0  0  0  0  0  0  0  0  0  0  0  0
    1.4621    1.7603    0.2826 H   0  0  0  0  0  0  0  0  0  0  0  0
    2.1686    1.6988   -1.3225 H   0  0  0  0  0  0  0  0  0  0  0  0
    0.7824    3.3049   -0.9409 C   0  0  0  0  0  0  0  0  0  0  0  0
   -0.0854    3.5244   -0.3115 H   0  0  0  0  0  0  0  0  0  0  0  0
    1.5940    3.9739   -0.6389 H   0  0  0  0  0  0  0  0  0  0  0  0
    0.5362    3.5193   -1.9853 H   0  0  0  0  0  0  0  0  0  0  0  0
    0.9906   -0.5324    0.9614 C   0  0  0  0  0  0  0  0  0  0  0  0
    2.2053   -0.6272    1.0851 O   0  0  0  0  0  0  0  0  0  0  0  0
    0.2293   -0.1690    2.0584 N   0  0  0  0  0  0  0  0  0  0  0  0
   -0.7768   -0.1850    1.9349 H   0  0  0  0  0  0  0  0  0  0  0  0
    0.7752   -0.0779    3.4063 C   0  0  0  0  0  0  0  0  0  0  0  0
    1.5985    0.6435    3.4383 H   0  0  0  0  0  0  0  0  0  0  0  0
    0.0018    0.2518    4.1064 H   0  0  0  0  0  0  0  0  0  0  0  0
    1.1488   -1.0538    3.7341 H   0  0  0  0  0  0  0  0  0  0  0  0
  1  2  1  0  0  0  0
  2  3  1  0  0  0  0
  2  4  1  0  0  0  0
  2  5  1  0  0  0  0
  5  6  2  0  0  0  0
  5  7  1  0  0  0  0
  7  8  1  0  0  0  0
  7  9  1  0  0  0  0
  9 10  1  0  0  0  0
  9 11  1  0  0  0  0
  9 24  1  0  0  0  0
 11 12  1  0  0  0  0
 11 13  1  0  0  0  0
 11 17  1  0  0  0  0
 13 14  1  0  0  0  0
 13 15  1  0  0  0  0
 13 16  1  0  0  0  0
 17 18  1  0  0  0  0
 17 19  1  0  0  0  0
 17 20  1  0  0  0  0
 20 21  1  0  0  0  0
 20 22  1  0  0  0  0
 20 23  1  0  0  0  0
 24 25  2  0  0  0  0
 24 26  1  0  0  0  0
 26 27  1  0  0  0  0
 26 28  1  0  0  0  0
 28 29  1  0  0  0  0
 28 30  1  0  0  0  0
 28 31  1  0  0  0  0
M  END
$$$$

  -OEChem-03222214053D

 31 30  0     1  0  0  0  0  0999 V2000
   -2.4703   -4.2717    0.4628 H   0  0  0  0  0  0  0  0  0  0  0  0
   -2.5093   -3.2488    0.0769 C   0  0  0  0  0  0  0  0  0  0  0  0
   -3.1814   -2.6613    0.7068 H   0  0  0  0  0  0  0  0  0  0  0  0
   -2.9023   -3.2735   -0.9424 H   0  0  0  0  0  0  0  0  0  0  0  0
   -1.1213   -2.6361    0.0834 C   0  0  0  0  0  0  0  0  0  0  0  0
   -0.1733   -3.2932    0.4713 O   0  0  0  0  0  0  0  0  0  0  0  0
   -0.9458   -1.3406   -0.3641 N   0  0  0  0  0  0  0  0  0  0  0  0
   -1.7687   -0.8686   -0.7230 H   0  0  0  0  0  0  0  0  0  0  0  0
    0.3551   -0.6367   -0.4412 C   0  0  1  0  0  0  0  0  0  0  0  0
    1.0414   -1.2634   -1.0224 H   0  0  0  0  0  0  0  0  0  0  0  0
    0.2238    0.7317   -1.2254 C   0  0  1  0  0  0  0  0  0  0  0  0
    0.4723    0.5017   -2.2673 H   0  0  0  0  0  0  0  0  0  0  0  0
   -1.2394    1.2445   -1.2641 C   0  0  0  0  0  0  0  0  0  0  0  0
   -1.6091    1.4378   -0.2520 H   0  0  0  0  0  0  0  0  0  0  0  0
   -1.3213    2.1618   -1.8526 H   0  0  0  0  0  0  0  0  0  0  0  0
   -1.8984    0.5213   -1.7526 H   0  0  0  0  0  0  0  0  0  0  0  0
    1.2264    1.8622   -0.7860 C   0  0  0  0  0  0  0  0  0  0  0  0
    1.7318    1.6262    0.1486 H   0  0  0  0  0  0  0  0  0  0  0  0
    2.0138    1.9135   -1.5451 H   0  0  0  0  0  0  0  0  0  0  0  0
    0.6648    3.2778   -0.5942 C   0  0  0  0  0  0  0  0  0  0  0  0
   -0.1188    3.2891    0.1694 H   0  0  0  0  0  0  0  0  0  0  0  0
    1.4656    3.9476   -0.2659 H   0  0  0  0  0  0  0  0  0  0  0  0
    0.2635    3.6715   -1.5326 H   0  0  0  0  0  0  0  0  0  0  0  0
    0.9977   -0.5423    0.9665 C   0  0  0  0  0  0  0  0  0  0  0  0
    2.2064   -0.6829    1.1047 O   0  0  0  0  0  0  0  0  0  0  0  0
    0.2344   -0.1724    2.0599 N   0  0  0  0  0  0  0  0  0  0  0  0
   -0.7702   -0.1558    1.9258 H   0  0  0  0  0  0  0  0  0  0  0  0
    0.7694   -0.1084    3.4139 C   0  0  0  0  0  0  0  0  0  0  0  0
    1.5984    0.6053    3.4649 H   0  0  0  0  0  0  0  0  0  0  0  0
   -0.0071    0.2156    4.1131 H   0  0  0  0  0  0  0  0  0  0  0  0
    1.1322   -1.0927    3.7281 H   0  0  0  0  0  0  0  0  0  0  0  0
  1  2  1  0  0  0  0
  2  3  1  0  0  0  0
  2  4  1  0  0  0  0
  2  5  1  0  0  0  0
  5  6  2  0  0  0  0
  5  7  1  0  0  0  0
  7  8  1  0  0  0  0
  7  9  1  0  0  0  0
  9 10  1  0  0  0  0
  9 11  1  0  0  0  0
  9 24  1  0  0  0  0
 11 12  1  0  0  0  0
 11 13  1  0  0  0  0
 11 17  1  0  0  0  0
 13 14  1  0  0  0  0
 13 15  1  0  0  0  0
 13 16  1  0  0  0  0
 17 18  1  0  0  0  0
 17 19  1  0  0  0  0
 17 20  1  0  0  0  0
 20 21  1  0  0  0  0
 20 22  1  0  0  0  0
 20 23  1  0  0  0  0
 24 25  2  0  0  0  0
 24 26  1  0  0  0  0
 26 27  1  0  0  0  0
 26 28  1  0  0  0  0
 28 29  1  0  0  0  0
 28 30  1  0  0  0  0
 28 31  1  0  0  0  0
M  END
$$$$

  -OEChem-03222214053D

 31 30  0     1  0  0  0  0  0999 V2000
   -2.4727   -4.2648    0.4803 H   0  0  0  0  0  0  0  0  0  0  0  0
   -2.5064   -3.2448    0.0868 C   0  0  0  0  0  0  0  0  0  0  0  0
   -3.1757   -2.6491    0.7118 H   0  0  0  0  0  0  0  0  0  0  0  0
   -2.8989   -3.2749   -0.9326 H   0  0  0  0  0  0  0  0  0  0  0  0
   -1.1152   -2.6391    0.0897 C   0  0  0  0  0  0  0  0  0  0  0  0
   -0.1707   -3.2985    0.4824 O   0  0  0  0  0  0  0  0  0  0  0  0
   -0.9330   -1.3505   -0.3751 N   0  0  0  0  0  0  0  0  0  0  0  0
   -1.7527   -0.8805   -0.7438 H   0  0  0  0  0  0  0  0  0  0  0  0
    0.3703   -0.6520   -0.4570 C   0  0  1  0  0  0  0  0  0  0  0  0
    1.0594   -1.2728   -1.0409 H   0  0  0  0  0  0  0  0  0  0  0  0
    0.2175    0.7238   -1.2168 C   0  0  1  0  0  0  0  0  0  0  0  0
    0.4715    0.4963   -2.2580 H   0  0  0  0  0  0  0  0  0  0  0  0
   -1.2421    1.2407   -1.2666 C   0  0  0  0  0  0  0  0  0  0  0  0
   -1.6309    1.4110   -0.2578 H   0  0  0  0  0  0  0  0  0  0  0  0
   -1.3039    2.1738   -1.8334 H   0  0  0  0  0  0  0  0  0  0  0  0
   -1.8938    0.5297   -1.7824 H   0  0  0  0  0  0  0  0  0  0  0  0
    1.2231    1.8467   -0.7777 C   0  0  0  0  0  0  0  0  0  0  0  0
    1.9714    1.4847   -0.0734 H   0  0  0  0  0  0  0  0  0  0  0  0
    1.7894    2.1307   -1.6707 H   0  0  0  0  0  0  0  0  0  0  0  0
    0.6282    3.1429   -0.2094 C   0  0  0  0  0  0  0  0  0  0  0  0
   -0.0036    2.9294    0.6580 H   0  0  0  0  0  0  0  0  0  0  0  0
    1.4368    3.8052    0.1146 H   0  0  0  0  0  0  0  0  0  0  0  0
    0.0421    3.6784   -0.9612 H   0  0  0  0  0  0  0  0  0  0  0  0
    1.0048   -0.5420    0.9545 C   0  0  0  0  0  0  0  0  0  0  0  0
    2.2071   -0.7159    1.1103 O   0  0  0  0  0  0  0  0  0  0  0  0
    0.2358   -0.1549    2.0380 N   0  0  0  0  0  0  0  0  0  0  0  0
   -0.7661   -0.1109    1.8907 H   0  0  0  0  0  0  0  0  0  0  0  0
    0.7567   -0.0896    3.3973 C   0  0  0  0  0  0  0  0  0  0  0  0
    1.5940    0.6142    3.4535 H   0  0  0  0  0  0  0  0  0  0  0  0
   -0.0234    0.2477    4.0863 H   0  0  0  0  0  0  0  0  0  0  0  0
    1.1040   -1.0767    3.7208 H   0  0  0  0  0  0  0  0  0  0  0  0
  1  2  1  0  0  0  0
  2  3  1  0  0  0  0
  2  4  1  0  0  0  0
  2  5  1  0  0  0  0
  5  6  2  0  0  0  0
  5  7  1  0  0  0  0
  7  8  1  0  0  0  0
  7  9  1  0  0  0  0
  9 10  1  0  0  0  0
  9 11  1  0  0  0  0
  9 24  1  0  0  0  0
 11 12  1  0  0  0  0
 11 13  1  0  0  0  0
 11 17  1  0  0  0  0
 13 14  1  0  0  0  0
 13 15  1  0  0  0  0
 13 16  1  0  0  0  0
 17 18  1  0  0  0  0
 17 19  1  0  0  0  0
 17 20  1  0  0  0  0
 20 21  1  0  0  0  0
 20 22  1  0  0  0  0
 20 23  1  0  0  0  0
 24 25  2  0  0  0  0
 24 26  1  0  0  0  0
 26 27  1  0  0  0  0
 26 28  1  0  0  0  0
 28 29  1  0  0  0  0
 28 30  1  0  0  0  0
 28 31  1  0  0  0  0
M  END
$$$$

  -OEChem-03222214053D

 31 30  0     1  0  0  0  0  0999 V2000
   -2.4757   -4.2679    0.4734 H   0  0  0  0  0  0  0  0  0  0  0  0
   -2.5074   -3.2482    0.0789 C   0  0  0  0  0  0  0  0  0  0  0  0
   -3.1789   -2.6518    0.7010 H   0  0  0  0  0  0  0  0  0  0  0  0
   -2.8959   -3.2790   -0.9418 H   0  0  0  0  0  0  0  0  0  0  0  0
   -1.1165   -2.6424    0.0865 C   0  0  0  0  0  0  0  0  0  0  0  0
   -0.1752   -3.2961    0.4961 O   0  0  0  0  0  0  0  0  0  0  0  0
   -0.9318   -1.3566   -0.3843 N   0  0  0  0  0  0  0  0  0  0  0  0
   -1.7462   -0.8929   -0.7726 H   0  0  0  0  0  0  0  0  0  0  0  0
    0.3720   -0.6604   -0.4642 C   0  0  1  0  0  0  0  0  0  0  0  0
    1.0623   -1.2797   -1.0485 H   0  0  0  0  0  0  0  0  0  0  0  0
    0.2150    0.7140   -1.2159 C   0  0  1  0  0  0  0  0  0  0  0  0
    0.4703    0.4907   -2.2576 H   0  0  0  0  0  0  0  0  0  0  0  0
   -1.2354    1.2487   -1.2561 C   0  0  0  0  0  0  0  0  0  0  0  0
   -1.6329    1.3810   -0.2448 H   0  0  0  0  0  0  0  0  0  0  0  0
   -1.2735    2.2089   -1.7792 H   0  0  0  0  0  0  0  0  0  0  0  0
   -1.8889    0.5652   -1.8063 H   0  0  0  0  0  0  0  0  0  0  0  0
    1.2208    1.8221   -0.7679 C   0  0  0  0  0  0  0  0  0  0  0  0
    2.1090    1.3924   -0.3004 H   0  0  0  0  0  0  0  0  0  0  0  0
    1.5827    2.3115   -1.6780 H   0  0  0  0  0  0  0  0  0  0  0  0
    0.6610    2.9388    0.1253 C   0  0  0  0  0  0  0  0  0  0  0  0
    0.2005    2.5186    1.0242 H   0  0  0  0  0  0  0  0  0  0  0  0
    1.4743    3.6016    0.4363 H   0  0  0  0  0  0  0  0  0  0  0  0
   -0.0792    3.5447   -0.4043 H   0  0  0  0  0  0  0  0  0  0  0  0
    1.0077   -0.5398    0.9461 C   0  0  0  0  0  0  0  0  0  0  0  0
    2.2113   -0.7033    1.1021 O   0  0  0  0  0  0  0  0  0  0  0  0
    0.2385   -0.1447    2.0265 N   0  0  0  0  0  0  0  0  0  0  0  0
   -0.7640   -0.1111    1.8805 H   0  0  0  0  0  0  0  0  0  0  0  0
    0.7602   -0.0606    3.3843 C   0  0  0  0  0  0  0  0  0  0  0  0
    1.5990    0.6422    3.4297 H   0  0  0  0  0  0  0  0  0  0  0  0
   -0.0188    0.2887    4.0685 H   0  0  0  0  0  0  0  0  0  0  0  0
    1.1052   -1.0437    3.7218 H   0  0  0  0  0  0  0  0  0  0  0  0
  1  2  1  0  0  0  0
  2  3  1  0  0  0  0
  2  4  1  0  0  0  0
  2  5  1  0  0  0  0
  5  6  2  0  0  0  0
  5  7  1  0  0  0  0
  7  8  1  0  0  0  0
  7  9  1  0  0  0  0
  9 10  1  0  0  0  0
  9 11  1  0  0  0  0
  9 24  1  0  0  0  0
 11 12  1  0  0  0  0
 11 13  1  0  0  0  0
 11 17  1  0  0  0  0
 13 14  1  0  0  0  0
 13 15  1  0  0  0  0
 13 16  1  0  0  0  0
 17 18  1  0  0  0  0
 17 19  1  0  0  0  0
 17 20  1  0  0  0  0
 20 21  1  0  0  0  0
 20 22  1  0  0  0  0
 20 23  1  0  0  0  0
 24 25  2  0  0  0  0
 24 26  1  0  0  0  0
 26 27  1  0  0  0  0
 26 28  1  0  0  0  0
 28 29  1  0  0  0  0
 28 30  1  0  0  0  0
 28 31  1  0  0  0  0
M  END
$$$$

  -OEChem-03222214053D

 31 30  0     1  0  0  0  0  0999 V2000
   -2.4824   -4.2878    0.4257 H   0  0  0  0  0  0  0  0  0  0  0  0
   -2.5198   -3.2611    0.0502 C   0  0  0  0  0  0  0  0  0  0  0  0
   -3.2023   -2.6826    0.6771 H   0  0  0  0  0  0  0  0  0  0  0  0
   -2.8987   -3.2759   -0.9745 H   0  0  0  0  0  0  0  0  0  0  0  0
   -1.1344   -2.6434    0.0829 C   0  0  0  0  0  0  0  0  0  0  0  0
   -0.1909   -3.2969    0.4881 O   0  0  0  0  0  0  0  0  0  0  0  0
   -0.9553   -1.3459   -0.3565 N   0  0  0  0  0  0  0  0  0  0  0  0
   -1.7696   -0.8774   -0.7396 H   0  0  0  0  0  0  0  0  0  0  0  0
    0.3465   -0.6459   -0.4223 C   0  0  1  0  0  0  0  0  0  0  0  0
    1.0300   -1.2801   -0.9987 H   0  0  0  0  0  0  0  0  0  0  0  0
    0.2271    0.7054   -1.2167 C   0  0  1  0  0  0  0  0  0  0  0  0
    0.4972    0.4562   -2.2488 H   0  0  0  0  0  0  0  0  0  0  0  0
   -1.2108    1.2650   -1.2764 C   0  0  0  0  0  0  0  0  0  0  0  0
   -1.6233    1.3942   -0.2708 H   0  0  0  0  0  0  0  0  0  0  0  0
   -1.2199    2.2342   -1.7852 H   0  0  0  0  0  0  0  0  0  0  0  0
   -1.8654    0.5963   -1.8433 H   0  0  0  0  0  0  0  0  0  0  0  0
    1.2141    1.8263   -0.7797 C   0  0  0  0  0  0  0  0  0  0  0  0
    2.1695    1.3827   -0.4843 H   0  0  0  0  0  0  0  0  0  0  0  0
    1.4253    2.4428   -1.6594 H   0  0  0  0  0  0  0  0  0  0  0  0
    0.7350    2.7795    0.3265 C   0  0  0  0  0  0  0  0  0  0  0  0
    0.4153    2.2352    1.2155 H   0  0  0  0  0  0  0  0  0  0  0  0
    1.5533    3.4468    0.6130 H   0  0  0  0  0  0  0  0  0  0  0  0
   -0.0969    3.3986   -0.0211 H   0  0  0  0  0  0  0  0  0  0  0  0
    1.0032   -0.5486    0.9791 C   0  0  0  0  0  0  0  0  0  0  0  0
    2.2155   -0.6682    1.1033 O   0  0  0  0  0  0  0  0  0  0  0  0
    0.2519   -0.1794    2.0813 N   0  0  0  0  0  0  0  0  0  0  0  0
   -0.7546   -0.1794    1.9607 H   0  0  0  0  0  0  0  0  0  0  0  0
    0.8016   -0.1180    3.4296 C   0  0  0  0  0  0  0  0  0  0  0  0
    1.6345    0.5917    3.4726 H   0  0  0  0  0  0  0  0  0  0  0  0
    0.0339    0.2095    4.1370 H   0  0  0  0  0  0  0  0  0  0  0  0
    1.1628   -1.1044    3.7396 H   0  0  0  0  0  0  0  0  0  0  0  0
  1  2  1  0  0  0  0
  2  3  1  0  0  0  0
  2  4  1  0  0  0  0
  2  5  1  0  0  0  0
  5  6  2  0  0  0  0
  5  7  1  0  0  0  0
  7  8  1  0  0  0  0
  7  9  1  0  0  0  0
  9 10  1  0  0  0  0
  9 11  1  0  0  0  0
  9 24  1  0  0  0  0
 11 12  1  0  0  0  0
 11 13  1  0  0  0  0
 11 17  1  0  0  0  0
 13 14  1  0  0  0  0
 13 15  1  0  0  0  0
 13 16  1  0  0  0  0
 17 18  1  0  0  0  0
 17 19  1  0  0  0  0
 17 20  1  0  0  0  0
 20 21  1  0  0  0  0
 20 22  1  0  0  0  0
 20 23  1  0  0  0  0
 24 25  2  0  0  0  0
 24 26  1  0  0  0  0
 26 27  1  0  0  0  0
 26 28  1  0  0  0  0
 28 29  1  0  0  0  0
 28 30  1  0  0  0  0
 28 31  1  0  0  0  0
M  END
$$$$

  -OEChem-03222214053D

 31 30  0     1  0  0  0  0  0999 V2000
   -2.5171   -4.2901    0.3932 H   0  0  0  0  0  0  0  0  0  0  0  0
   -2.5440   -3.2609    0.0240 C   0  0  0  0  0  0  0  0  0  0  0  0
   -3.2314   -2.6824    0.6454 H   0  0  0  0  0  0  0  0  0  0  0  0
   -2.9094   -3.2670   -1.0057 H   0  0  0  0  0  0  0  0  0  0  0  0
   -1.1558   -2.6511    0.0785 C   0  0  0  0  0  0  0  0  0  0  0  0
   -0.2206   -3.3120    0.4909 O   0  0  0  0  0  0  0  0  0  0  0  0
   -0.9655   -1.3501   -0.3461 N   0  0  0  0  0  0  0  0  0  0  0  0
   -1.7737   -0.8750   -0.7344 H   0  0  0  0  0  0  0  0  0  0  0  0
    0.3412   -0.6568   -0.4002 C   0  0  1  0  0  0  0  0  0  0  0  0
    1.0214   -1.2998   -0.9709 H   0  0  0  0  0  0  0  0  0  0  0  0
    0.2519    0.6875   -1.2087 C   0  0  1  0  0  0  0  0  0  0  0  0
    0.5128    0.4278   -2.2404 H   0  0  0  0  0  0  0  0  0  0  0  0
   -1.1802    1.2628   -1.2536 C   0  0  0  0  0  0  0  0  0  0  0  0
   -1.5943    1.3599   -0.2451 H   0  0  0  0  0  0  0  0  0  0  0  0
   -1.1819    2.2504   -1.7259 H   0  0  0  0  0  0  0  0  0  0  0  0
   -1.8382    0.6179   -1.8438 H   0  0  0  0  0  0  0  0  0  0  0  0
    1.2244    1.8324   -0.8012 C   0  0  0  0  0  0  0  0  0  0  0  0
    2.2375    1.4220   -0.7315 H   0  0  0  0  0  0  0  0  0  0  0  0
    1.2356    2.5549   -1.6239 H   0  0  0  0  0  0  0  0  0  0  0  0
    0.9360    2.6244    0.4854 C   0  0  0  0  0  0  0  0  0  0  0  0
    1.1500    2.0418    1.3801 H   0  0  0  0  0  0  0  0  0  0  0  0
    1.5825    3.5067    0.5142 H   0  0  0  0  0  0  0  0  0  0  0  0
   -0.1004    2.9686    0.5236 H   0  0  0  0  0  0  0  0  0  0  0  0
    0.9922   -0.5787    1.0010 C   0  0  0  0  0  0  0  0  0  0  0  0
    2.2074   -0.6687    1.1206 O   0  0  0  0  0  0  0  0  0  0  0  0
    0.2333   -0.2174    2.1014 N   0  0  0  0  0  0  0  0  0  0  0  0
   -0.7726   -0.2383    1.9770 H   0  0  0  0  0  0  0  0  0  0  0  0
    0.7748   -0.1768    3.4538 C   0  0  0  0  0  0  0  0  0  0  0  0
    1.6236    0.5132    3.5084 H   0  0  0  0  0  0  0  0  0  0  0  0
    0.0098    0.1639    4.1578 H   0  0  0  0  0  0  0  0  0  0  0  0
    1.1115   -1.1730    3.7596 H   0  0  0  0  0  0  0  0  0  0  0  0
  1  2  1  0  0  0  0
  2  3  1  0  0  0  0
  2  4  1  0  0  0  0
  2  5  1  0  0  0  0
  5  6  2  0  0  0  0
  5  7  1  0  0  0  0
  7  8  1  0  0  0  0
  7  9  1  0  0  0  0
  9 10  1  0  0  0  0
  9 11  1  0  0  0  0
  9 24  1  0  0  0  0
 11 12  1  0  0  0  0
 11 13  1  0  0  0  0
 11 17  1  0  0  0  0
 13 14  1  0  0  0  0
 13 15  1  0  0  0  0
 13 16  1  0  0  0  0
 17 18  1  0  0  0  0
 17 19  1  0  0  0  0
 17 20  1  0  0  0  0
 20 21  1  0  0  0  0
 20 22  1  0  0  0  0
 20 23  1  0  0  0  0
 24 25  2  0  0  0  0
 24 26  1  0  0  0  0
 26 27  1  0  0  0  0
 26 28  1  0  0  0  0
 28 29  1  0  0  0  0
 28 30  1  0  0  0  0
 28 31  1  0  0  0  0
M  END
$$$$

  -OEChem-03222214053D

 31 30  0     1  0  0  0  0  0999 V2000
   -2.5555   -4.2701    0.3874 H   0  0  0  0  0  0  0  0  0  0  0  0
   -2.5694   -3.2395    0.0212 C   0  0  0  0  0  0  0  0  0  0  0  0
   -3.2432   -2.6526    0.6500 H   0  0  0  0  0  0  0  0  0  0  0  0
   -2.9428   -3.2370   -1.0056 H   0  0  0  0  0  0  0  0  0  0  0  0
   -1.1715   -2.6517    0.0668 C   0  0  0  0  0  0  0  0  0  0  0  0
   -0.2440   -3.3293    0.4695 O   0  0  0  0  0  0  0  0  0  0  0  0
   -0.9648   -1.3510   -0.3504 N   0  0  0  0  0  0  0  0  0  0  0  0
   -1.7681   -0.8598   -0.7285 H   0  0  0  0  0  0  0  0  0  0  0  0
    0.3498   -0.6720   -0.3900 C   0  0  1  0  0  0  0  0  0  0  0  0
    1.0274   -1.3230   -0.9545 H   0  0  0  0  0  0  0  0  0  0  0  0
    0.2792    0.6689   -1.2117 C   0  0  1  0  0  0  0  0  0  0  0  0
    0.5269    0.4018   -2.2448 H   0  0  0  0  0  0  0  0  0  0  0  0
   -1.1500    1.2596   -1.2408 C   0  0  0  0  0  0  0  0  0  0  0  0
   -1.5460    1.3766   -0.2273 H   0  0  0  0  0  0  0  0  0  0  0  0
   -1.1562    2.2404   -1.7269 H   0  0  0  0  0  0  0  0  0  0  0  0
   -1.8247    0.6146   -1.8117 H   0  0  0  0  0  0  0  0  0  0  0  0
    1.2389    1.8349   -0.8282 C   0  0  0  0  0  0  0  0  0  0  0  0
    2.2673    1.4905   -0.9803 H   0  0  0  0  0  0  0  0  0  0  0  0
    1.0765    2.6505   -1.5405 H   0  0  0  0  0  0  0  0  0  0  0  0
    1.1576    2.4315    0.5855 C   0  0  0  0  0  0  0  0  0  0  0  0
    1.7659    1.8671    1.2947 H   0  0  0  0  0  0  0  0  0  0  0  0
    1.5503    3.4527    0.5703 H   0  0  0  0  0  0  0  0  0  0  0  0
    0.1265    2.4699    0.9460 H   0  0  0  0  0  0  0  0  0  0  0  0
    0.9918   -0.6055    1.0142 C   0  0  0  0  0  0  0  0  0  0  0  0
    2.2012   -0.7467    1.1447 O   0  0  0  0  0  0  0  0  0  0  0  0
    0.2313   -0.2386    2.1114 N   0  0  0  0  0  0  0  0  0  0  0  0
   -0.7734   -0.2278    1.9765 H   0  0  0  0  0  0  0  0  0  0  0  0
    0.7600   -0.2263    3.4692 C   0  0  0  0  0  0  0  0  0  0  0  0
    1.6259    0.4405    3.5385 H   0  0  0  0  0  0  0  0  0  0  0  0
   -0.0030    0.1272    4.1690 H   0  0  0  0  0  0  0  0  0  0  0  0
    1.0670   -1.2341    3.7682 H   0  0  0  0  0  0  0  0  0  0  0  0
  1  2  1  0  0  0  0
  2  3  1  0  0  0  0
  2  4  1  0  0  0  0
  2  5  1  0  0  0  0
  5  6  2  0  0  0  0
  5  7  1  0  0  0  0
  7  8  1  0  0  0  0
  7  9  1  0  0  0  0
  9 10  1  0  0  0  0
  9 11  1  0  0  0  0
  9 24  1  0  0  0  0
 11 12  1  0  0  0  0
 11 13  1  0  0  0  0
 11 17  1  0  0  0  0
 13 14  1  0  0  0  0
 13 15  1  0  0  0  0
 13 16  1  0  0  0  0
 17 18  1  0  0  0  0
 17 19  1  0  0  0  0
 17 20  1  0  0  0  0
 20 21  1  0  0  0  0
 20 22  1  0  0  0  0
 20 23  1  0  0  0  0
 24 25  2  0  0  0  0
 24 26  1  0  0  0  0
 26 27  1  0  0  0  0
 26 28  1  0  0  0  0
 28 29  1  0  0  0  0
 28 30  1  0  0  0  0
 28 31  1  0  0  0  0
M  END
$$$$

  -OEChem-03222214053D

 31 30  0     1  0  0  0  0  0999 V2000
   -2.5844   -4.2624    0.3763 H   0  0  0  0  0  0  0  0  0  0  0  0
   -2.5870   -3.2290    0.0178 C   0  0  0  0  0  0  0  0  0  0  0  0
   -3.2471   -2.6377    0.6569 H   0  0  0  0  0  0  0  0  0  0  0  0
   -2.9690   -3.2131   -1.0057 H   0  0  0  0  0  0  0  0  0  0  0  0
   -1.1808   -2.6608    0.0562 C   0  0  0  0  0  0  0  0  0  0  0  0
   -0.2586   -3.3574    0.4375 O   0  0  0  0  0  0  0  0  0  0  0  0
   -0.9614   -1.3581   -0.3487 N   0  0  0  0  0  0  0  0  0  0  0  0
   -1.7645   -0.8502   -0.7037 H   0  0  0  0  0  0  0  0  0  0  0  0
    0.3588   -0.6879   -0.3771 C   0  0  1  0  0  0  0  0  0  0  0  0
    1.0351   -1.3451   -0.9361 H   0  0  0  0  0  0  0  0  0  0  0  0
    0.3036    0.6507   -1.2163 C   0  0  1  0  0  0  0  0  0  0  0  0
    0.5281    0.3713   -2.2513 H   0  0  0  0  0  0  0  0  0  0  0  0
   -1.1262    1.2485   -1.2171 C   0  0  0  0  0  0  0  0  0  0  0  0
   -1.4752    1.4139   -0.1927 H   0  0  0  0  0  0  0  0  0  0  0  0
   -1.1561    2.2054   -1.7472 H   0  0  0  0  0  0  0  0  0  0  0  0
   -1.8293    0.5879   -1.7327 H   0  0  0  0  0  0  0  0  0  0  0  0
    1.2456    1.8511   -0.8724 C   0  0  0  0  0  0  0  0  0  0  0  0
    2.2428    1.5904   -1.2425 H   0  0  0  0  0  0  0  0  0  0  0  0
    0.9302    2.7271   -1.4480 H   0  0  0  0  0  0  0  0  0  0  0  0
    1.4285    2.2931    0.5843 C   0  0  0  0  0  0  0  0  0  0  0  0
    2.1591    1.6739    1.1077 H   0  0  0  0  0  0  0  0  0  0  0  0
    1.8085    3.3189    0.6059 H   0  0  0  0  0  0  0  0  0  0  0  0
    0.4760    2.2741    1.1214 H   0  0  0  0  0  0  0  0  0  0  0  0
    0.9866   -0.6428    1.0345 C   0  0  0  0  0  0  0  0  0  0  0  0
    2.1829   -0.8588    1.1831 O   0  0  0  0  0  0  0  0  0  0  0  0
    0.2223   -0.2814    2.1307 N   0  0  0  0  0  0  0  0  0  0  0  0
   -0.7786   -0.2191    1.9834 H   0  0  0  0  0  0  0  0  0  0  0  0
    0.7380   -0.2943    3.4932 C   0  0  0  0  0  0  0  0  0  0  0  0
    1.5933    0.3833    3.5853 H   0  0  0  0  0  0  0  0  0  0  0  0
   -0.0361    0.0316    4.1942 H   0  0  0  0  0  0  0  0  0  0  0  0
    1.0569   -1.3045    3.7715 H   0  0  0  0  0  0  0  0  0  0  0  0
  1  2  1  0  0  0  0
  2  3  1  0  0  0  0
  2  4  1  0  0  0  0
  2  5  1  0  0  0  0
  5  6  2  0  0  0  0
  5  7  1  0  0  0  0
  7  8  1  0  0  0  0
  7  9  1  0  0  0  0
  9 10  1  0  0  0  0
  9 11  1  0  0  0  0
  9 24  1  0  0  0  0
 11 12  1  0  0  0  0
 11 13  1  0  0  0  0
 11 17  1  0  0  0  0
 13 14  1  0  0  0  0
 13 15  1  0  0  0  0
 13 16  1  0  0  0  0
 17 18  1  0  0  0  0
 17 19  1  0  0  0  0
 17 20  1  0  0  0  0
 20 21  1  0  0  0  0
 20 22  1  0  0  0  0
 20 23  1  0  0  0  0
 24 25  2  0  0  0  0
 24 26  1  0  0  0  0
 26 27  1  0  0  0  0
 26 28  1  0  0  0  0
 28 29  1  0  0  0  0
 28 30  1  0  0  0  0
 28 31  1  0  0  0  0
M  END
$$$$

  -OEChem-03222214053D

 31 30  0     1  0  0  0  0  0999 V2000
   -2.5734   -4.2687    0.4177 H   0  0  0  0  0  0  0  0  0  0  0  0
   -2.5727   -3.2357    0.0581 C   0  0  0  0  0  0  0  0  0  0  0  0
   -3.2281   -2.6408    0.6985 H   0  0  0  0  0  0  0  0  0  0  0  0
   -2.9588   -3.2204   -0.9638 H   0  0  0  0  0  0  0  0  0  0  0  0
   -1.1636   -2.6737    0.0894 C   0  0  0  0  0  0  0  0  0  0  0  0
   -0.2447   -3.3732    0.4730 O   0  0  0  0  0  0  0  0  0  0  0  0
   -0.9379   -1.3783   -0.3366 N   0  0  0  0  0  0  0  0  0  0  0  0
   -1.7416   -0.8709   -0.6898 H   0  0  0  0  0  0  0  0  0  0  0  0
    0.3839   -0.7086   -0.3700 C   0  0  1  0  0  0  0  0  0  0  0  0
    1.0688   -1.3682   -0.9156 H   0  0  0  0  0  0  0  0  0  0  0  0
    0.3196    0.6272   -1.2244 C   0  0  1  0  0  0  0  0  0  0  0  0
    0.5354    0.3314   -2.2568 H   0  0  0  0  0  0  0  0  0  0  0  0
   -1.1199    1.2079   -1.2319 C   0  0  0  0  0  0  0  0  0  0  0  0
   -1.4533    1.4154   -0.2099 H   0  0  0  0  0  0  0  0  0  0  0  0
   -1.1739    2.1377   -1.8068 H   0  0  0  0  0  0  0  0  0  0  0  0
   -1.8245    0.5214   -1.7095 H   0  0  0  0  0  0  0  0  0  0  0  0
    1.2472    1.8591   -0.9224 C   0  0  0  0  0  0  0  0  0  0  0  0
    2.1530    1.7113   -1.5199 H   0  0  0  0  0  0  0  0  0  0  0  0
    0.7870    2.7746   -1.3064 H   0  0  0  0  0  0  0  0  0  0  0  0
    1.7388    2.1666    0.4928 C   0  0  0  0  0  0  0  0  0  0  0  0
    2.1710    3.1715    0.5155 H   0  0  0  0  0  0  0  0  0  0  0  0
    2.5254    1.4766    0.8027 H   0  0  0  0  0  0  0  0  0  0  0  0
    0.9117    2.1420    1.2071 H   0  0  0  0  0  0  0  0  0  0  0  0
    0.9809   -0.6525    1.0558 C   0  0  0  0  0  0  0  0  0  0  0  0
    2.1568   -0.9369    1.2459 O   0  0  0  0  0  0  0  0  0  0  0  0
    0.1947   -0.2772    2.1317 N   0  0  0  0  0  0  0  0  0  0  0  0
   -0.7976   -0.1724    1.9540 H   0  0  0  0  0  0  0  0  0  0  0  0
    0.6684   -0.3149    3.5090 C   0  0  0  0  0  0  0  0  0  0  0  0
    1.5268    0.3531    3.6358 H   0  0  0  0  0  0  0  0  0  0  0  0
   -0.1238    0.0075    4.1913 H   0  0  0  0  0  0  0  0  0  0  0  0
    0.9698   -1.3319    3.7819 H   0  0  0  0  0  0  0  0  0  0  0  0
  1  2  1  0  0  0  0
  2  3  1  0  0  0  0
  2  4  1  0  0  0  0
  2  5  1  0  0  0  0
  5  6  2  0  0  0  0
  5  7  1  0  0  0  0
  7  8  1  0  0  0  0
  7  9  1  0  0  0  0
  9 10  1  0  0  0  0
  9 11  1  0  0  0  0
  9 24  1  0  0  0  0
 11 12  1  0  0  0  0
 11 13  1  0  0  0  0
 11 17  1  0  0  0  0
 13 14  1  0  0  0  0
 13 15  1  0  0  0  0
 13 16  1  0  0  0  0
 17 18  1  0  0  0  0
 17 19  1  0  0  0  0
 17 20  1  0  0  0  0
 20 21  1  0  0  0  0
 20 22  1  0  0  0  0
 20 23  1  0  0  0  0
 24 25  2  0  0  0  0
 24 26  1  0  0  0  0
 26 27  1  0  0  0  0
 26 28  1  0  0  0  0
 28 29  1  0  0  0  0
 28 30  1  0  0  0  0
 28 31  1  0  0  0  0
M  END
$$$$

  -OEChem-03222214053D

 31 30  0     1  0  0  0  0  0999 V2000
   -2.6053   -4.2254    0.4713 H   0  0  0  0  0  0  0  0  0  0  0  0
   -2.5930   -3.1977    0.0965 C   0  0  0  0  0  0  0  0  0  0  0  0
   -3.2280   -2.5825    0.7383 H   0  0  0  0  0  0  0  0  0  0  0  0
   -2.9939   -3.1899   -0.9199 H   0  0  0  0  0  0  0  0  0  0  0  0
   -1.1741   -2.6605    0.0973 C   0  0  0  0  0  0  0  0  0  0  0  0
   -0.2596   -3.3785    0.4558 O   0  0  0  0  0  0  0  0  0  0  0  0
   -0.9348   -1.3703   -0.3376 N   0  0  0  0  0  0  0  0  0  0  0  0
   -1.7384   -0.8492   -0.6704 H   0  0  0  0  0  0  0  0  0  0  0  0
    0.3956   -0.7185   -0.3926 C   0  0  1  0  0  0  0  0  0  0  0  0
    1.0718   -1.3726   -0.9552 H   0  0  0  0  0  0  0  0  0  0  0  0
    0.3070    0.6378   -1.2156 C   0  0  1  0  0  0  0  0  0  0  0  0
    0.5135    0.3486   -2.2518 H   0  0  0  0  0  0  0  0  0  0  0  0
   -1.1351    1.2126   -1.2239 C   0  0  0  0  0  0  0  0  0  0  0  0
   -1.4687    1.4256   -0.2032 H   0  0  0  0  0  0  0  0  0  0  0  0
   -1.1884    2.1382   -1.8060 H   0  0  0  0  0  0  0  0  0  0  0  0
   -1.8389    0.5227   -1.6978 H   0  0  0  0  0  0  0  0  0  0  0  0
    1.2469    1.8699   -0.9314 C   0  0  0  0  0  0  0  0  0  0  0  0
    1.9710    1.8961   -1.7525 H   0  0  0  0  0  0  0  0  0  0  0  0
    0.6769    2.8009   -1.0055 H   0  0  0  0  0  0  0  0  0  0  0  0
    2.0714    1.9894    0.3488 C   0  0  0  0  0  0  0  0  0  0  0  0
    2.8381    1.2129    0.3948 H   0  0  0  0  0  0  0  0  0  0  0  0
    2.5885    2.9536    0.3581 H   0  0  0  0  0  0  0  0  0  0  0  0
    1.4341    1.9481    1.2355 H   0  0  0  0  0  0  0  0  0  0  0  0
    0.9898   -0.6769    1.0368 C   0  0  0  0  0  0  0  0  0  0  0  0
    2.1486   -1.0161    1.2404 O   0  0  0  0  0  0  0  0  0  0  0  0
    0.2051   -0.2913    2.1109 N   0  0  0  0  0  0  0  0  0  0  0  0
   -0.7810   -0.1504    1.9243 H   0  0  0  0  0  0  0  0  0  0  0  0
    0.6591   -0.3766    3.4929 C   0  0  0  0  0  0  0  0  0  0  0  0
    1.5494    0.2432    3.6418 H   0  0  0  0  0  0  0  0  0  0  0  0
   -0.1235   -0.0246    4.1716 H   0  0  0  0  0  0  0  0  0  0  0  0
    0.9038   -1.4124    3.7511 H   0  0  0  0  0  0  0  0  0  0  0  0
  1  2  1  0  0  0  0
  2  3  1  0  0  0  0
  2  4  1  0  0  0  0
  2  5  1  0  0  0  0
  5  6  2  0  0  0  0
  5  7  1  0  0  0  0
  7  8  1  0  0  0  0
  7  9  1  0  0  0  0
  9 10  1  0  0  0  0
  9 11  1  0  0  0  0
  9 24  1  0  0  0  0
 11 12  1  0  0  0  0
 11 13  1  0  0  0  0
 11 17  1  0  0  0  0
 13 14  1  0  0  0  0
 13 15  1  0  0  0  0
 13 16  1  0  0  0  0
 17 18  1  0  0  0  0
 17 19  1  0  0  0  0
 17 20  1  0  0  0  0
 20 21  1  0  0  0  0
 20 22  1  0  0  0  0
 20 23  1  0  0  0  0
 24 25  2  0  0  0  0
 24 26  1  0  0  0  0
 26 27  1  0  0  0  0
 26 28  1  0  0  0  0
 28 29  1  0  0  0  0
 28 30  1  0  0  0  0
 28 31  1  0  0  0  0
M  END
$$$$

  -OEChem-03222214053D

 31 30  0     1  0  0  0  0  0999 V2000
   -2.6351   -4.1911    0.4879 H   0  0  0  0  0  0  0  0  0  0  0  0
   -2.6073   -3.1675    0.1029 C   0  0  0  0  0  0  0  0  0  0  0  0
   -3.2322   -2.5363    0.7390 H   0  0  0  0  0  0  0  0  0  0  0  0
   -3.0094   -3.1640   -0.9130 H   0  0  0  0  0  0  0  0  0  0  0  0
   -1.1807   -2.6509    0.0979 C   0  0  0  0  0  0  0  0  0  0  0  0
   -0.2772   -3.3766    0.4688 O   0  0  0  0  0  0  0  0  0  0  0  0
   -0.9230   -1.3703   -0.3547 N   0  0  0  0  0  0  0  0  0  0  0  0
   -1.7182   -0.8439   -0.6990 H   0  0  0  0  0  0  0  0  0  0  0  0
    0.4154   -0.7348   -0.4096 C   0  0  1  0  0  0  0  0  0  0  0  0
    1.0934   -1.3874   -0.9717 H   0  0  0  0  0  0  0  0  0  0  0  0
    0.3187    0.6335   -1.2076 C   0  0  1  0  0  0  0  0  0  0  0  0
    0.5367    0.3467   -2.2422 H   0  0  0  0  0  0  0  0  0  0  0  0
   -1.1184    1.2148   -1.2333 C   0  0  0  0  0  0  0  0  0  0  0  0
   -1.4743    1.4038   -0.2154 H   0  0  0  0  0  0  0  0  0  0  0  0
   -1.1458    2.1573   -1.7903 H   0  0  0  0  0  0  0  0  0  0  0  0
   -1.8141    0.5396   -1.7398 H   0  0  0  0  0  0  0  0  0  0  0  0
    1.2652    1.8576   -0.9202 C   0  0  0  0  0  0  0  0  0  0  0  0
    1.7725    2.0887   -1.8629 H   0  0  0  0  0  0  0  0  0  0  0  0
    0.6630    2.7378   -0.6715 H   0  0  0  0  0  0  0  0  0  0  0  0
    2.3496    1.8011    0.1539 C   0  0  0  0  0  0  0  0  0  0  0  0
    3.0255    0.9600   -0.0234 H   0  0  0  0  0  0  0  0  0  0  0  0
    2.9460    2.7178    0.1177 H   0  0  0  0  0  0  0  0  0  0  0  0
    1.9172    1.7343    1.1552 H   0  0  0  0  0  0  0  0  0  0  0  0
    0.9897   -0.6835    1.0280 C   0  0  0  0  0  0  0  0  0  0  0  0
    2.1373   -1.0440    1.2569 O   0  0  0  0  0  0  0  0  0  0  0  0
    0.1936   -0.2739    2.0843 N   0  0  0  0  0  0  0  0  0  0  0  0
   -0.7863   -0.1170    1.8789 H   0  0  0  0  0  0  0  0  0  0  0  0
    0.6205   -0.3588    3.4748 C   0  0  0  0  0  0  0  0  0  0  0  0
    1.5265    0.2353    3.6338 H   0  0  0  0  0  0  0  0  0  0  0  0
   -0.1628    0.0237    4.1359 H   0  0  0  0  0  0  0  0  0  0  0  0
    0.8293   -1.3989    3.7473 H   0  0  0  0  0  0  0  0  0  0  0  0
  1  2  1  0  0  0  0
  2  3  1  0  0  0  0
  2  4  1  0  0  0  0
  2  5  1  0  0  0  0
  5  6  2  0  0  0  0
  5  7  1  0  0  0  0
  7  8  1  0  0  0  0
  7  9  1  0  0  0  0
  9 10  1  0  0  0  0
  9 11  1  0  0  0  0
  9 24  1  0  0  0  0
 11 12  1  0  0  0  0
 11 13  1  0  0  0  0
 11 17  1  0  0  0  0
 13 14  1  0  0  0  0
 13 15  1  0  0  0  0
 13 16  1  0  0  0  0
 17 18  1  0  0  0  0
 17 19  1  0  0  0  0
 17 20  1  0  0  0  0
 20 21  1  0  0  0  0
 20 22  1  0  0  0  0
 20 23  1  0  0  0  0
 24 25  2  0  0  0  0
 24 26  1  0  0  0  0
 26 27  1  0  0  0  0
 26 28  1  0  0  0  0
 28 29  1  0  0  0  0
 28 30  1  0  0  0  0
 28 31  1  0  0  0  0
M  END
$$$$

  -OEChem-03222214053D

 31 30  0     1  0  0  0  0  0999 V2000
   -2.5996   -4.2022    0.5158 H   0  0  0  0  0  0  0  0  0  0  0  0
   -2.5777   -3.1845    0.1153 C   0  0  0  0  0  0  0  0  0  0  0  0
   -3.2141   -2.5493    0.7360 H   0  0  0  0  0  0  0  0  0  0  0  0
   -2.9706   -3.2003   -0.9042 H   0  0  0  0  0  0  0  0  0  0  0  0
   -1.1559   -2.6551    0.1158 C   0  0  0  0  0  0  0  0  0  0  0  0
   -0.2514   -3.3632    0.5168 O   0  0  0  0  0  0  0  0  0  0  0  0
   -0.9038   -1.3832   -0.3639 N   0  0  0  0  0  0  0  0  0  0  0  0
   -1.6962   -0.8792   -0.7467 H   0  0  0  0  0  0  0  0  0  0  0  0
    0.4307   -0.7406   -0.4254 C   0  0  1  0  0  0  0  0  0  0  0  0
    1.1167   -1.3881   -0.9835 H   0  0  0  0  0  0  0  0  0  0  0  0
    0.3078    0.6267   -1.2140 C   0  0  1  0  0  0  0  0  0  0  0  0
    0.5255    0.3467   -2.2505 H   0  0  0  0  0  0  0  0  0  0  0  0
   -1.1269    1.2093   -1.2238 C   0  0  0  0  0  0  0  0  0  0  0  0
   -1.4860    1.3654   -0.2014 H   0  0  0  0  0  0  0  0  0  0  0  0
   -1.1477    2.1713   -1.7469 H   0  0  0  0  0  0  0  0  0  0  0  0
   -1.8211    0.5498   -1.7530 H   0  0  0  0  0  0  0  0  0  0  0  0
    1.2481    1.8460   -0.9201 C   0  0  0  0  0  0  0  0  0  0  0  0
    1.5302    2.2715   -1.8891 H   0  0  0  0  0  0  0  0  0  0  0  0
    0.6829    2.6195   -0.3890 H   0  0  0  0  0  0  0  0  0  0  0  0
    2.5340    1.6573   -0.1159 C   0  0  0  0  0  0  0  0  0  0  0  0
    3.0784    0.7713   -0.4564 H   0  0  0  0  0  0  0  0  0  0  0  0
    3.1836    2.5264   -0.2562 H   0  0  0  0  0  0  0  0  0  0  0  0
    2.3263    1.5801    0.9543 H   0  0  0  0  0  0  0  0  0  0  0  0
    1.0024   -0.6508    1.0117 C   0  0  0  0  0  0  0  0  0  0  0  0
    2.1471   -1.0123    1.2536 O   0  0  0  0  0  0  0  0  0  0  0  0
    0.2010   -0.2209    2.0554 N   0  0  0  0  0  0  0  0  0  0  0  0
   -0.7793   -0.0779    1.8418 H   0  0  0  0  0  0  0  0  0  0  0  0
    0.6180   -0.2828    3.4503 C   0  0  0  0  0  0  0  0  0  0  0  0
    1.5301    0.3036    3.6043 H   0  0  0  0  0  0  0  0  0  0  0  0
   -0.1653    0.1223    4.0978 H   0  0  0  0  0  0  0  0  0  0  0  0
    0.8117   -1.3196    3.7448 H   0  0  0  0  0  0  0  0  0  0  0  0
  1  2  1  0  0  0  0
  2  3  1  0  0  0  0
  2  4  1  0  0  0  0
  2  5  1  0  0  0  0
  5  6  2  0  0  0  0
  5  7  1  0  0  0  0
  7  8  1  0  0  0  0
  7  9  1  0  0  0  0
  9 10  1  0  0  0  0
  9 11  1  0  0  0  0
  9 24  1  0  0  0  0
 11 12  1  0  0  0  0
 11 13  1  0  0  0  0
 11 17  1  0  0  0  0
 13 14  1  0  0  0  0
 13 15  1  0  0  0  0
 13 16  1  0  0  0  0
 17 18  1  0  0  0  0
 17 19  1  0  0  0  0
 17 20  1  0  0  0  0
 20 21  1  0  0  0  0
 20 22  1  0  0  0  0
 20 23  1  0  0  0  0
 24 25  2  0  0  0  0
 24 26  1  0  0  0  0
 26 27  1  0  0  0  0
 26 28  1  0  0  0  0
 28 29  1  0  0  0  0
 28 30  1  0  0  0  0
 28 31  1  0  0  0  0
M  END
$$$$

  -OEChem-03222214053D

 31 30  0     1  0  0  0  0  0999 V2000
   -2.5413   -4.2230    0.5475 H   0  0  0  0  0  0  0  0  0  0  0  0
   -2.5363   -3.2099    0.1346 C   0  0  0  0  0  0  0  0  0  0  0  0
   -3.1865   -2.5786    0.7449 H   0  0  0  0  0  0  0  0  0  0  0  0
   -2.9249   -3.2455   -0.8860 H   0  0  0  0  0  0  0  0  0  0  0  0
   -1.1246   -2.6542    0.1340 C   0  0  0  0  0  0  0  0  0  0  0  0
   -0.2099   -3.3368    0.5554 O   0  0  0  0  0  0  0  0  0  0  0  0
   -0.8941   -1.3870   -0.3677 N   0  0  0  0  0  0  0  0  0  0  0  0
   -1.6902   -0.9126   -0.7795 H   0  0  0  0  0  0  0  0  0  0  0  0
    0.4304   -0.7285   -0.4504 C   0  0  1  0  0  0  0  0  0  0  0  0
    1.1202   -1.3653   -1.0158 H   0  0  0  0  0  0  0  0  0  0  0  0
    0.2708    0.6363   -1.2283 C   0  0  1  0  0  0  0  0  0  0  0  0
    0.4600    0.3761   -2.2754 H   0  0  0  0  0  0  0  0  0  0  0  0
   -1.1601    1.2226   -1.1718 C   0  0  0  0  0  0  0  0  0  0  0  0
   -1.4863    1.3454   -0.1339 H   0  0  0  0  0  0  0  0  0  0  0  0
   -1.1940    2.2026   -1.6594 H   0  0  0  0  0  0  0  0  0  0  0  0
   -1.8722    0.5809   -1.6990 H   0  0  0  0  0  0  0  0  0  0  0  0
    1.2141    1.8395   -0.9198 C   0  0  0  0  0  0  0  0  0  0  0  0
    1.2819    2.4418   -1.8321 H   0  0  0  0  0  0  0  0  0  0  0  0
    0.7570    2.4717   -0.1507 H   0  0  0  0  0  0  0  0  0  0  0  0
    2.6409    1.5454   -0.4506 C   0  0  0  0  0  0  0  0  0  0  0  0
    3.0327    0.6427   -0.9299 H   0  0  0  0  0  0  0  0  0  0  0  0
    2.6852    1.4347    0.6354 H   0  0  0  0  0  0  0  0  0  0  0  0
    3.2937    2.3827   -0.7147 H   0  0  0  0  0  0  0  0  0  0  0  0
    1.0224   -0.6036    0.9769 C   0  0  0  0  0  0  0  0  0  0  0  0
    2.1704   -0.9597    1.2107 O   0  0  0  0  0  0  0  0  0  0  0  0
    0.2316   -0.1651    2.0251 N   0  0  0  0  0  0  0  0  0  0  0  0
   -0.7536   -0.0392    1.8231 H   0  0  0  0  0  0  0  0  0  0  0  0
    0.6664   -0.2104    3.4153 C   0  0  0  0  0  0  0  0  0  0  0  0
    1.5766    0.3830    3.5517 H   0  0  0  0  0  0  0  0  0  0  0  0
   -0.1107    0.1964    4.0693 H   0  0  0  0  0  0  0  0  0  0  0  0
    0.8704   -1.2432    3.7175 H   0  0  0  0  0  0  0  0  0  0  0  0
  1  2  1  0  0  0  0
  2  3  1  0  0  0  0
  2  4  1  0  0  0  0
  2  5  1  0  0  0  0
  5  6  2  0  0  0  0
  5  7  1  0  0  0  0
  7  8  1  0  0  0  0
  7  9  1  0  0  0  0
  9 10  1  0  0  0  0
  9 11  1  0  0  0  0
  9 24  1  0  0  0  0
 11 12  1  0  0  0  0
 11 13  1  0  0  0  0
 11 17  1  0  0  0  0
 13 14  1  0  0  0  0
 13 15  1  0  0  0  0
 13 16  1  0  0  0  0
 17 18  1  0  0  0  0
 17 19  1  0  0  0  0
 17 20  1  0  0  0  0
 20 21  1  0  0  0  0
 20 22  1  0  0  0  0
 20 23  1  0  0  0  0
 24 25  2  0  0  0  0
 24 26  1  0  0  0  0
 26 27  1  0  0  0  0
 26 28  1  0  0  0  0
 28 29  1  0  0  0  0
 28 30  1  0  0  0  0
 28 31  1  0  0  0  0
M  END
$$$$

  -OEChem-03222214053D

 31 30  0     1  0  0  0  0  0999 V2000
   -2.5513   -4.1995    0.5172 H   0  0  0  0  0  0  0  0  0  0  0  0
   -2.5413   -3.1911    0.0936 C   0  0  0  0  0  0  0  0  0  0  0  0
   -3.1956   -2.5530    0.6919 H   0  0  0  0  0  0  0  0  0  0  0  0
   -2.9213   -3.2364   -0.9297 H   0  0  0  0  0  0  0  0  0  0  0  0
   -1.1289   -2.6369    0.0993 C   0  0  0  0  0  0  0  0  0  0  0  0
   -0.2168   -3.3174    0.5298 O   0  0  0  0  0  0  0  0  0  0  0  0
   -0.8951   -1.3707   -0.4029 N   0  0  0  0  0  0  0  0  0  0  0  0
   -1.6892   -0.8944   -0.8167 H   0  0  0  0  0  0  0  0  0  0  0  0
    0.4289   -0.7103   -0.4726 C   0  0  1  0  0  0  0  0  0  0  0  0
    1.1227   -1.3441   -1.0366 H   0  0  0  0  0  0  0  0  0  0  0  0
    0.2780    0.6588   -1.2367 C   0  0  1  0  0  0  0  0  0  0  0  0
    0.4566    0.4267   -2.2922 H   0  0  0  0  0  0  0  0  0  0  0  0
   -1.1405    1.2679   -1.1423 C   0  0  0  0  0  0  0  0  0  0  0  0
   -1.4457    1.3763   -0.0967 H   0  0  0  0  0  0  0  0  0  0  0  0
   -1.1674    2.2574   -1.6106 H   0  0  0  0  0  0  0  0  0  0  0  0
   -1.8730    0.6471   -1.6665 H   0  0  0  0  0  0  0  0  0  0  0  0
    1.2434    1.8204   -0.8722 C   0  0  0  0  0  0  0  0  0  0  0  0
    1.1621    2.5813   -1.6558 H   0  0  0  0  0  0  0  0  0  0  0  0
    0.9258    2.2863    0.0669 H   0  0  0  0  0  0  0  0  0  0  0  0
    2.7244    1.4505   -0.7373 C   0  0  0  0  0  0  0  0  0  0  0  0
    2.9740    0.5912   -1.3674 H   0  0  0  0  0  0  0  0  0  0  0  0
    3.3441    2.2966   -1.0496 H   0  0  0  0  0  0  0  0  0  0  0  0
    2.9851    1.2277    0.2991 H   0  0  0  0  0  0  0  0  0  0  0  0
    1.0172   -0.5746    0.9556 C   0  0  0  0  0  0  0  0  0  0  0  0
    2.1660   -0.9216    1.1958 O   0  0  0  0  0  0  0  0  0  0  0  0
    0.2208   -0.1314    1.9975 N   0  0  0  0  0  0  0  0  0  0  0  0
   -0.7647   -0.0145    1.7915 H   0  0  0  0  0  0  0  0  0  0  0  0
    0.6505   -0.1671    3.3895 C   0  0  0  0  0  0  0  0  0  0  0  0
    1.5691    0.4141    3.5226 H   0  0  0  0  0  0  0  0  0  0  0  0
   -0.1226    0.2593    4.0356 H   0  0  0  0  0  0  0  0  0  0  0  0
    0.8382   -1.1991    3.7044 H   0  0  0  0  0  0  0  0  0  0  0  0
  1  2  1  0  0  0  0
  2  3  1  0  0  0  0
  2  4  1  0  0  0  0
  2  5  1  0  0  0  0
  5  6  2  0  0  0  0
  5  7  1  0  0  0  0
  7  8  1  0  0  0  0
  7  9  1  0  0  0  0
  9 10  1  0  0  0  0
  9 11  1  0  0  0  0
  9 24  1  0  0  0  0
 11 12  1  0  0  0  0
 11 13  1  0  0  0  0
 11 17  1  0  0  0  0
 13 14  1  0  0  0  0
 13 15  1  0  0  0  0
 13 16  1  0  0  0  0
 17 18  1  0  0  0  0
 17 19  1  0  0  0  0
 17 20  1  0  0  0  0
 20 21  1  0  0  0  0
 20 22  1  0  0  0  0
 20 23  1  0  0  0  0
 24 25  2  0  0  0  0
 24 26  1  0  0  0  0
 26 27  1  0  0  0  0
 26 28  1  0  0  0  0
 28 29  1  0  0  0  0
 28 30  1  0  0  0  0
 28 31  1  0  0  0  0
M  END
$$$$

  -OEChem-03222214053D

 31 30  0     1  0  0  0  0  0999 V2000
   -2.4978   -4.2185    0.5333 H   0  0  0  0  0  0  0  0  0  0  0  0
   -2.5019   -3.2142    0.0996 C   0  0  0  0  0  0  0  0  0  0  0  0
   -3.1792   -2.5840    0.6807 H   0  0  0  0  0  0  0  0  0  0  0  0
   -2.8647   -3.2784   -0.9290 H   0  0  0  0  0  0  0  0  0  0  0  0
   -1.1013   -2.6309    0.1217 C   0  0  0  0  0  0  0  0  0  0  0  0
   -0.1851   -3.2854    0.5828 O   0  0  0  0  0  0  0  0  0  0  0  0
   -0.8809   -1.3713   -0.4035 N   0  0  0  0  0  0  0  0  0  0  0  0
   -1.6725   -0.9260   -0.8550 H   0  0  0  0  0  0  0  0  0  0  0  0
    0.4368   -0.6992   -0.4872 C   0  0  1  0  0  0  0  0  0  0  0  0
    1.1401   -1.3280   -1.0443 H   0  0  0  0  0  0  0  0  0  0  0  0
    0.2718    0.6712   -1.2484 C   0  0  1  0  0  0  0  0  0  0  0  0
    0.4208    0.4574   -2.3122 H   0  0  0  0  0  0  0  0  0  0  0  0
   -1.1408    1.2849   -1.1013 C   0  0  0  0  0  0  0  0  0  0  0  0
   -1.4040    1.4007   -0.0452 H   0  0  0  0  0  0  0  0  0  0  0  0
   -1.1865    2.2709   -1.5745 H   0  0  0  0  0  0  0  0  0  0  0  0
   -1.8955    0.6636   -1.5919 H   0  0  0  0  0  0  0  0  0  0  0  0
    1.2560    1.8063   -0.8619 C   0  0  0  0  0  0  0  0  0  0  0  0
    1.0310    2.7013   -1.4513 H   0  0  0  0  0  0  0  0  0  0  0  0
    1.1227    2.0713    0.1921 H   0  0  0  0  0  0  0  0  0  0  0  0
    2.7294    1.4533   -1.1042 C   0  0  0  0  0  0  0  0  0  0  0  0
    2.8985    1.2755   -2.1706 H   0  0  0  0  0  0  0  0  0  0  0  0
    3.3651    2.2865   -0.7894 H   0  0  0  0  0  0  0  0  0  0  0  0
    3.0482    0.5652   -0.5627 H   0  0  0  0  0  0  0  0  0  0  0  0
    1.0109   -0.5406    0.9495 C   0  0  0  0  0  0  0  0  0  0  0  0
    2.1713   -0.8281    1.2101 O   0  0  0  0  0  0  0  0  0  0  0  0
    0.1959   -0.0921    1.9753 N   0  0  0  0  0  0  0  0  0  0  0  0
   -0.7913   -0.0122    1.7606 H   0  0  0  0  0  0  0  0  0  0  0  0
    0.6170   -0.0740    3.3705 C   0  0  0  0  0  0  0  0  0  0  0  0
    1.5060    0.5536    3.4939 H   0  0  0  0  0  0  0  0  0  0  0  0
   -0.1799    0.3303    4.0018 H   0  0  0  0  0  0  0  0  0  0  0  0
    0.8513   -1.0880    3.7121 H   0  0  0  0  0  0  0  0  0  0  0  0
  1  2  1  0  0  0  0
  2  3  1  0  0  0  0
  2  4  1  0  0  0  0
  2  5  1  0  0  0  0
  5  6  2  0  0  0  0
  5  7  1  0  0  0  0
  7  8  1  0  0  0  0
  7  9  1  0  0  0  0
  9 10  1  0  0  0  0
  9 11  1  0  0  0  0
  9 24  1  0  0  0  0
 11 12  1  0  0  0  0
 11 13  1  0  0  0  0
 11 17  1  0  0  0  0
 13 14  1  0  0  0  0
 13 15  1  0  0  0  0
 13 16  1  0  0  0  0
 17 18  1  0  0  0  0
 17 19  1  0  0  0  0
 17 20  1  0  0  0  0
 20 21  1  0  0  0  0
 20 22  1  0  0  0  0
 20 23  1  0  0  0  0
 24 25  2  0  0  0  0
 24 26  1  0  0  0  0
 26 27  1  0  0  0  0
 26 28  1  0  0  0  0
 28 29  1  0  0  0  0
 28 30  1  0  0  0  0
 28 31  1  0  0  0  0
M  END
$$$$

  -OEChem-03222214053D

 31 30  0     1  0  0  0  0  0999 V2000
   -2.4679   -4.2707    0.4362 H   0  0  0  0  0  0  0  0  0  0  0  0
   -2.4969   -3.2504    0.0431 C   0  0  0  0  0  0  0  0  0  0  0  0
   -3.1879   -2.6601    0.6493 H   0  0  0  0  0  0  0  0  0  0  0  0
   -2.8598   -3.2819   -0.9869 H   0  0  0  0  0  0  0  0  0  0  0  0
   -1.1108   -2.6349    0.0877 C   0  0  0  0  0  0  0  0  0  0  0  0
   -0.1825   -3.2712    0.5507 O   0  0  0  0  0  0  0  0  0  0  0  0
   -0.9160   -1.3583   -0.4041 N   0  0  0  0  0  0  0  0  0  0  0  0
   -1.7137   -0.9174   -0.8495 H   0  0  0  0  0  0  0  0  0  0  0  0
    0.3906   -0.6655   -0.4726 C   0  0  1  0  0  0  0  0  0  0  0  0
    1.0901   -1.2970   -1.0318 H   0  0  0  0  0  0  0  0  0  0  0  0
    0.2550    0.6933   -1.2563 C   0  0  1  0  0  0  0  0  0  0  0  0
    0.4188    0.4800   -2.3181 H   0  0  0  0  0  0  0  0  0  0  0  0
   -1.1579    1.3081   -1.1284 C   0  0  0  0  0  0  0  0  0  0  0  0
   -1.4227    1.4488   -0.0755 H   0  0  0  0  0  0  0  0  0  0  0  0
   -1.2047    2.2811   -1.6274 H   0  0  0  0  0  0  0  0  0  0  0  0
   -1.9105    0.6734   -1.6046 H   0  0  0  0  0  0  0  0  0  0  0  0
    1.2447    1.8079   -0.8225 C   0  0  0  0  0  0  0  0  0  0  0  0
    0.9301    2.7677   -1.2451 H   0  0  0  0  0  0  0  0  0  0  0  0
    1.2589    1.9366    0.2637 H   0  0  0  0  0  0  0  0  0  0  0  0
    2.6583    1.5350   -1.3451 C   0  0  0  0  0  0  0  0  0  0  0  0
    2.6614    1.5073   -2.4389 H   0  0  0  0  0  0  0  0  0  0  0  0
    3.3365    2.3288   -1.0176 H   0  0  0  0  0  0  0  0  0  0  0  0
    3.0428    0.5812   -0.9751 H   0  0  0  0  0  0  0  0  0  0  0  0
    1.0009   -0.5188    0.9464 C   0  0  0  0  0  0  0  0  0  0  0  0
    2.2023   -0.6628    1.1310 O   0  0  0  0  0  0  0  0  0  0  0  0
    0.2080   -0.1019    2.0016 N   0  0  0  0  0  0  0  0  0  0  0  0
   -0.7924   -0.1030    1.8379 H   0  0  0  0  0  0  0  0  0  0  0  0
    0.6976   -0.0147    3.3713 C   0  0  0  0  0  0  0  0  0  0  0  0
    1.5389    0.6835    3.4342 H   0  0  0  0  0  0  0  0  0  0  0  0
   -0.0959    0.3419    4.0349 H   0  0  0  0  0  0  0  0  0  0  0  0
    1.0288   -0.9981    3.7216 H   0  0  0  0  0  0  0  0  0  0  0  0
  1  2  1  0  0  0  0
  2  3  1  0  0  0  0
  2  4  1  0  0  0  0
  2  5  1  0  0  0  0
  5  6  2  0  0  0  0
  5  7  1  0  0  0  0
  7  8  1  0  0  0  0
  7  9  1  0  0  0  0
  9 10  1  0  0  0  0
  9 11  1  0  0  0  0
  9 24  1  0  0  0  0
 11 12  1  0  0  0  0
 11 13  1  0  0  0  0
 11 17  1  0  0  0  0
 13 14  1  0  0  0  0
 13 15  1  0  0  0  0
 13 16  1  0  0  0  0
 17 18  1  0  0  0  0
 17 19  1  0  0  0  0
 17 20  1  0  0  0  0
 20 21  1  0  0  0  0
 20 22  1  0  0  0  0
 20 23  1  0  0  0  0
 24 25  2  0  0  0  0
 24 26  1  0  0  0  0
 26 27  1  0  0  0  0
 26 28  1  0  0  0  0
 28 29  1  0  0  0  0
 28 30  1  0  0  0  0
 28 31  1  0  0  0  0
M  END
$$$$

  -OEChem-03222214053D

 31 30  0     1  0  0  0  0  0999 V2000
   -2.4665   -4.2808    0.3991 H   0  0  0  0  0  0  0  0  0  0  0  0
   -2.5025   -3.2566    0.0170 C   0  0  0  0  0  0  0  0  0  0  0  0
   -3.2006   -2.6784    0.6269 H   0  0  0  0  0  0  0  0  0  0  0  0
   -2.8610   -3.2798   -1.0148 H   0  0  0  0  0  0  0  0  0  0  0  0
   -1.1218   -2.6306    0.0736 C   0  0  0  0  0  0  0  0  0  0  0  0
   -0.1883   -3.2667    0.5268 O   0  0  0  0  0  0  0  0  0  0  0  0
   -0.9372   -1.3429   -0.3919 N   0  0  0  0  0  0  0  0  0  0  0  0
   -1.7387   -0.8972   -0.8258 H   0  0  0  0  0  0  0  0  0  0  0  0
    0.3656   -0.6430   -0.4494 C   0  0  1  0  0  0  0  0  0  0  0  0
    1.0612   -1.2790   -1.0086 H   0  0  0  0  0  0  0  0  0  0  0  0
    0.2515    0.7053   -1.2550 C   0  0  1  0  0  0  0  0  0  0  0  0
    0.4292    0.4763   -2.3114 H   0  0  0  0  0  0  0  0  0  0  0  0
   -1.1681    1.3131   -1.1661 C   0  0  0  0  0  0  0  0  0  0  0  0
   -1.4516    1.4772   -0.1214 H   0  0  0  0  0  0  0  0  0  0  0  0
   -1.2133    2.2726   -1.6914 H   0  0  0  0  0  0  0  0  0  0  0  0
   -1.9085    0.6626   -1.6402 H   0  0  0  0  0  0  0  0  0  0  0  0
    1.2361    1.8277   -0.8117 C   0  0  0  0  0  0  0  0  0  0  0  0
    0.8114    2.8103   -1.0397 H   0  0  0  0  0  0  0  0  0  0  0  0
    1.4291    1.8308    0.2630 H   0  0  0  0  0  0  0  0  0  0  0  0
    2.5478    1.7332   -1.5918 C   0  0  0  0  0  0  0  0  0  0  0  0
    2.3670    1.8247   -2.6672 H   0  0  0  0  0  0  0  0  0  0  0  0
    3.2252    2.5361   -1.2854 H   0  0  0  0  0  0  0  0  0  0  0  0
    3.0384    0.7741   -1.3970 H   0  0  0  0  0  0  0  0  0  0  0  0
    0.9967   -0.5132    0.9595 C   0  0  0  0  0  0  0  0  0  0  0  0
    2.2088   -0.6096    1.1043 O   0  0  0  0  0  0  0  0  0  0  0  0
    0.2201   -0.1177    2.0344 N   0  0  0  0  0  0  0  0  0  0  0  0
   -0.7838   -0.1497    1.8970 H   0  0  0  0  0  0  0  0  0  0  0  0
    0.7426   -0.0218    3.3913 C   0  0  0  0  0  0  0  0  0  0  0  0
    1.5722    0.6918    3.4332 H   0  0  0  0  0  0  0  0  0  0  0  0
   -0.0401    0.3199    4.0751 H   0  0  0  0  0  0  0  0  0  0  0  0
    1.1008   -0.9991    3.7320 H   0  0  0  0  0  0  0  0  0  0  0  0
  1  2  1  0  0  0  0
  2  3  1  0  0  0  0
  2  4  1  0  0  0  0
  2  5  1  0  0  0  0
  5  6  2  0  0  0  0
  5  7  1  0  0  0  0
  7  8  1  0  0  0  0
  7  9  1  0  0  0  0
  9 10  1  0  0  0  0
  9 11  1  0  0  0  0
  9 24  1  0  0  0  0
 11 12  1  0  0  0  0
 11 13  1  0  0  0  0
 11 17  1  0  0  0  0
 13 14  1  0  0  0  0
 13 15  1  0  0  0  0
 13 16  1  0  0  0  0
 17 18  1  0  0  0  0
 17 19  1  0  0  0  0
 17 20  1  0  0  0  0
 20 21  1  0  0  0  0
 20 22  1  0  0  0  0
 20 23  1  0  0  0  0
 24 25  2  0  0  0  0
 24 26  1  0  0  0  0
 26 27  1  0  0  0  0
 26 28  1  0  0  0  0
 28 29  1  0  0  0  0
 28 30  1  0  0  0  0
 28 31  1  0  0  0  0
M  END
$$$$

  -OEChem-03222214053D

 31 30  0     1  0  0  0  0  0999 V2000
   -2.4761   -4.2651    0.4071 H   0  0  0  0  0  0  0  0  0  0  0  0
   -2.5048   -3.2406    0.0249 C   0  0  0  0  0  0  0  0  0  0  0  0
   -3.1947   -2.6562    0.6383 H   0  0  0  0  0  0  0  0  0  0  0  0
   -2.8694   -3.2609   -1.0049 H   0  0  0  0  0  0  0  0  0  0  0  0
   -1.1180   -2.6272    0.0737 C   0  0  0  0  0  0  0  0  0  0  0  0
   -0.1874   -3.2742    0.5169 O   0  0  0  0  0  0  0  0  0  0  0  0
   -0.9253   -1.3394   -0.3886 N   0  0  0  0  0  0  0  0  0  0  0  0
   -1.7271   -0.8834   -0.8104 H   0  0  0  0  0  0  0  0  0  0  0  0
    0.3806   -0.6443   -0.4419 C   0  0  1  0  0  0  0  0  0  0  0  0
    1.0776   -1.2778   -1.0024 H   0  0  0  0  0  0  0  0  0  0  0  0
    0.2630    0.7101   -1.2399 C   0  0  1  0  0  0  0  0  0  0  0  0
    0.4460    0.4712   -2.2931 H   0  0  0  0  0  0  0  0  0  0  0  0
   -1.1621    1.3076   -1.1735 C   0  0  0  0  0  0  0  0  0  0  0  0
   -1.4627    1.4713   -0.1335 H   0  0  0  0  0  0  0  0  0  0  0  0
   -1.2033    2.2658   -1.7015 H   0  0  0  0  0  0  0  0  0  0  0  0
   -1.8906    0.6518   -1.6585 H   0  0  0  0  0  0  0  0  0  0  0  0
    1.2428    1.8492   -0.8092 C   0  0  0  0  0  0  0  0  0  0  0  0
    0.7197    2.8093   -0.7564 H   0  0  0  0  0  0  0  0  0  0  0  0
    1.6787    1.6997    0.1787 H   0  0  0  0  0  0  0  0  0  0  0  0
    2.3692    2.0023   -1.8319 C   0  0  0  0  0  0  0  0  0  0  0  0
    1.9641    2.2479   -2.8185 H   0  0  0  0  0  0  0  0  0  0  0  0
    3.0475    2.8047   -1.5262 H   0  0  0  0  0  0  0  0  0  0  0  0
    2.9437    1.0734   -1.9067 H   0  0  0  0  0  0  0  0  0  0  0  0
    0.9996   -0.5250    0.9734 C   0  0  0  0  0  0  0  0  0  0  0  0
    2.2079   -0.6475    1.1313 O   0  0  0  0  0  0  0  0  0  0  0  0
    0.2169   -0.1310    2.0444 N   0  0  0  0  0  0  0  0  0  0  0  0
   -0.7859   -0.1413    1.8956 H   0  0  0  0  0  0  0  0  0  0  0  0
    0.7268   -0.0488    3.4069 C   0  0  0  0  0  0  0  0  0  0  0  0
    1.5622    0.6570    3.4615 H   0  0  0  0  0  0  0  0  0  0  0  0
   -0.0592    0.2956    4.0853 H   0  0  0  0  0  0  0  0  0  0  0  0
    1.0730   -1.0312    3.7450 H   0  0  0  0  0  0  0  0  0  0  0  0
  1  2  1  0  0  0  0
  2  3  1  0  0  0  0
  2  4  1  0  0  0  0
  2  5  1  0  0  0  0
  5  6  2  0  0  0  0
  5  7  1  0  0  0  0
  7  8  1  0  0  0  0
  7  9  1  0  0  0  0
  9 10  1  0  0  0  0
  9 11  1  0  0  0  0
  9 24  1  0  0  0  0
 11 12  1  0  0  0  0
 11 13  1  0  0  0  0
 11 17  1  0  0  0  0
 13 14  1  0  0  0  0
 13 15  1  0  0  0  0
 13 16  1  0  0  0  0
 17 18  1  0  0  0  0
 17 19  1  0  0  0  0
 17 20  1  0  0  0  0
 20 21  1  0  0  0  0
 20 22  1  0  0  0  0
 20 23  1  0  0  0  0
 24 25  2  0  0  0  0
 24 26  1  0  0  0  0
 26 27  1  0  0  0  0
 26 28  1  0  0  0  0
 28 29  1  0  0  0  0
 28 30  1  0  0  0  0
 28 31  1  0  0  0  0
M  END
$$$$

  -OEChem-03222214053D

 31 30  0     1  0  0  0  0  0999 V2000
   -2.4853   -4.2479    0.4189 H   0  0  0  0  0  0  0  0  0  0  0  0
   -2.5049   -3.2249    0.0320 C   0  0  0  0  0  0  0  0  0  0  0  0
   -3.1894   -2.6316    0.6427 H   0  0  0  0  0  0  0  0  0  0  0  0
   -2.8693   -3.2466   -0.9979 H   0  0  0  0  0  0  0  0  0  0  0  0
   -1.1130   -2.6229    0.0790 C   0  0  0  0  0  0  0  0  0  0  0  0
   -0.1881   -3.2758    0.5254 O   0  0  0  0  0  0  0  0  0  0  0  0
   -0.9090   -1.3399   -0.3923 N   0  0  0  0  0  0  0  0  0  0  0  0
   -1.7066   -0.8811   -0.8195 H   0  0  0  0  0  0  0  0  0  0  0  0
    0.4015   -0.6533   -0.4458 C   0  0  1  0  0  0  0  0  0  0  0  0
    1.1004   -1.2825   -1.0087 H   0  0  0  0  0  0  0  0  0  0  0  0
    0.2690    0.7093   -1.2244 C   0  0  1  0  0  0  0  0  0  0  0  0
    0.4591    0.4679   -2.2761 H   0  0  0  0  0  0  0  0  0  0  0  0
   -1.1547    1.3082   -1.1676 C   0  0  0  0  0  0  0  0  0  0  0  0
   -1.4730    1.4487   -0.1295 H   0  0  0  0  0  0  0  0  0  0  0  0
   -1.1802    2.2799   -1.6719 H   0  0  0  0  0  0  0  0  0  0  0  0
   -1.8762    0.6647   -1.6793 H   0  0  0  0  0  0  0  0  0  0  0  0
    1.2488    1.8486   -0.7985 C   0  0  0  0  0  0  0  0  0  0  0  0
    0.7016    2.7181   -0.4195 H   0  0  0  0  0  0  0  0  0  0  0  0
    1.9289    1.5456   -0.0027 H   0  0  0  0  0  0  0  0  0  0  0  0
    2.1215    2.2796   -1.9788 C   0  0  0  0  0  0  0  0  0  0  0  0
    1.5006    2.6498   -2.8006 H   0  0  0  0  0  0  0  0  0  0  0  0
    2.8022    3.0793   -1.6708 H   0  0  0  0  0  0  0  0  0  0  0  0
    2.7197    1.4369   -2.3398 H   0  0  0  0  0  0  0  0  0  0  0  0
    1.0076   -0.5315    0.9763 C   0  0  0  0  0  0  0  0  0  0  0  0
    2.2090   -0.6901    1.1533 O   0  0  0  0  0  0  0  0  0  0  0  0
    0.2184   -0.1265    2.0386 N   0  0  0  0  0  0  0  0  0  0  0  0
   -0.7821   -0.1113    1.8756 H   0  0  0  0  0  0  0  0  0  0  0  0
    0.7112   -0.0576    3.4082 C   0  0  0  0  0  0  0  0  0  0  0  0
    1.5546    0.6372    3.4779 H   0  0  0  0  0  0  0  0  0  0  0  0
   -0.0795    0.2933    4.0779 H   0  0  0  0  0  0  0  0  0  0  0  0
    1.0401   -1.0461    3.7459 H   0  0  0  0  0  0  0  0  0  0  0  0
  1  2  1  0  0  0  0
  2  3  1  0  0  0  0
  2  4  1  0  0  0  0
  2  5  1  0  0  0  0
  5  6  2  0  0  0  0
  5  7  1  0  0  0  0
  7  8  1  0  0  0  0
  7  9  1  0  0  0  0
  9 10  1  0  0  0  0
  9 11  1  0  0  0  0
  9 24  1  0  0  0  0
 11 12  1  0  0  0  0
 11 13  1  0  0  0  0
 11 17  1  0  0  0  0
 13 14  1  0  0  0  0
 13 15  1  0  0  0  0
 13 16  1  0  0  0  0
 17 18  1  0  0  0  0
 17 19  1  0  0  0  0
 17 20  1  0  0  0  0
 20 21  1  0  0  0  0
 20 22  1  0  0  0  0
 20 23  1  0  0  0  0
 24 25  2  0  0  0  0
 24 26  1  0  0  0  0
 26 27  1  0  0  0  0
 26 28  1  0  0  0  0
 28 29  1  0  0  0  0
 28 30  1  0  0  0  0
 28 31  1  0  0  0  0
M  END
$$$$

  -OEChem-03222214053D

 31 30  0     1  0  0  0  0  0999 V2000
   -2.4874   -4.2438    0.4258 H   0  0  0  0  0  0  0  0  0  0  0  0
   -2.5040   -3.2221    0.0352 C   0  0  0  0  0  0  0  0  0  0  0  0
   -3.1887   -2.6251    0.6421 H   0  0  0  0  0  0  0  0  0  0  0  0
   -2.8659   -3.2468   -0.9955 H   0  0  0  0  0  0  0  0  0  0  0  0
   -1.1114   -2.6221    0.0823 C   0  0  0  0  0  0  0  0  0  0  0  0
   -0.1892   -3.2718    0.5387 O   0  0  0  0  0  0  0  0  0  0  0  0
   -0.9046   -1.3443   -0.4008 N   0  0  0  0  0  0  0  0  0  0  0  0
   -1.6996   -0.8897   -0.8372 H   0  0  0  0  0  0  0  0  0  0  0  0
    0.4066   -0.6607   -0.4597 C   0  0  1  0  0  0  0  0  0  0  0  0
    1.1060   -1.2867   -1.0255 H   0  0  0  0  0  0  0  0  0  0  0  0
    0.2624    0.7061   -1.2229 C   0  0  1  0  0  0  0  0  0  0  0  0
    0.4550    0.4735   -2.2760 H   0  0  0  0  0  0  0  0  0  0  0  0
   -1.1560    1.3134   -1.1497 C   0  0  0  0  0  0  0  0  0  0  0  0
   -1.4743    1.4263   -0.1083 H   0  0  0  0  0  0  0  0  0  0  0  0
   -1.1739    2.3000   -1.6237 H   0  0  0  0  0  0  0  0  0  0  0  0
   -1.8809    0.6879   -1.6788 H   0  0  0  0  0  0  0  0  0  0  0  0
    1.2511    1.8252   -0.7846 C   0  0  0  0  0  0  0  0  0  0  0  0
    0.7600    2.5472   -0.1236 H   0  0  0  0  0  0  0  0  0  0  0  0
    2.1018    1.4147   -0.2377 H   0  0  0  0  0  0  0  0  0  0  0  0
    1.8530    2.5363   -1.9988 C   0  0  0  0  0  0  0  0  0  0  0  0
    1.0665    2.9909   -2.6089 H   0  0  0  0  0  0  0  0  0  0  0  0
    2.5366    3.3249   -1.6698 H   0  0  0  0  0  0  0  0  0  0  0  0
    2.4150    1.8297   -2.6175 H   0  0  0  0  0  0  0  0  0  0  0  0
    1.0129   -0.5260    0.9618 C   0  0  0  0  0  0  0  0  0  0  0  0
    2.2118   -0.6947    1.1452 O   0  0  0  0  0  0  0  0  0  0  0  0
    0.2229   -0.1093    2.0189 N   0  0  0  0  0  0  0  0  0  0  0  0
   -0.7768   -0.0906    1.8526 H   0  0  0  0  0  0  0  0  0  0  0  0
    0.7112   -0.0399    3.3899 C   0  0  0  0  0  0  0  0  0  0  0  0
    1.5597    0.6489    3.4599 H   0  0  0  0  0  0  0  0  0  0  0  0
   -0.0792    0.3186    4.0559 H   0  0  0  0  0  0  0  0  0  0  0  0
    1.0317   -1.0298    3.7315 H   0  0  0  0  0  0  0  0  0  0  0  0
  1  2  1  0  0  0  0
  2  3  1  0  0  0  0
  2  4  1  0  0  0  0
  2  5  1  0  0  0  0
  5  6  2  0  0  0  0
  5  7  1  0  0  0  0
  7  8  1  0  0  0  0
  7  9  1  0  0  0  0
  9 10  1  0  0  0  0
  9 11  1  0  0  0  0
  9 24  1  0  0  0  0
 11 12  1  0  0  0  0
 11 13  1  0  0  0  0
 11 17  1  0  0  0  0
 13 14  1  0  0  0  0
 13 15  1  0  0  0  0
 13 16  1  0  0  0  0
 17 18  1  0  0  0  0
 17 19  1  0  0  0  0
 17 20  1  0  0  0  0
 20 21  1  0  0  0  0
 20 22  1  0  0  0  0
 20 23  1  0  0  0  0
 24 25  2  0  0  0  0
 24 26  1  0  0  0  0
 26 27  1  0  0  0  0
 26 28  1  0  0  0  0
 28 29  1  0  0  0  0
 28 30  1  0  0  0  0
 28 31  1  0  0  0  0
M  END
$$$$

  -OEChem-03222214053D

 31 30  0     1  0  0  0  0  0999 V2000
   -2.4736   -4.2590    0.4274 H   0  0  0  0  0  0  0  0  0  0  0  0
   -2.4999   -3.2387    0.0341 C   0  0  0  0  0  0  0  0  0  0  0  0
   -3.1935   -2.6474    0.6365 H   0  0  0  0  0  0  0  0  0  0  0  0
   -2.8574   -3.2704   -0.9977 H   0  0  0  0  0  0  0  0  0  0  0  0
   -1.1138   -2.6244    0.0851 C   0  0  0  0  0  0  0  0  0  0  0  0
   -0.1876   -3.2618    0.5507 O   0  0  0  0  0  0  0  0  0  0  0  0
   -0.9175   -1.3475   -0.4045 N   0  0  0  0  0  0  0  0  0  0  0  0
   -1.7127   -0.9075   -0.8554 H   0  0  0  0  0  0  0  0  0  0  0  0
    0.3898   -0.6572   -0.4717 C   0  0  1  0  0  0  0  0  0  0  0  0
    1.0879   -1.2835   -1.0387 H   0  0  0  0  0  0  0  0  0  0  0  0
    0.2453    0.7074   -1.2364 C   0  0  1  0  0  0  0  0  0  0  0  0
    0.4375    0.4877   -2.2922 H   0  0  0  0  0  0  0  0  0  0  0  0
   -1.1730    1.3143   -1.1372 C   0  0  0  0  0  0  0  0  0  0  0  0
   -1.4757    1.4164   -0.0901 H   0  0  0  0  0  0  0  0  0  0  0  0
   -1.2074    2.3047   -1.5993 H   0  0  0  0  0  0  0  0  0  0  0  0
   -1.9040    0.6911   -1.6605 H   0  0  0  0  0  0  0  0  0  0  0  0
    1.2478    1.7994   -0.7771 C   0  0  0  0  0  0  0  0  0  0  0  0
    0.8544    2.3496    0.0845 H   0  0  0  0  0  0  0  0  0  0  0  0
    2.1916    1.3382   -0.4736 H   0  0  0  0  0  0  0  0  0  0  0  0
    1.6036    2.7667   -1.9108 C   0  0  0  0  0  0  0  0  0  0  0  0
    0.7201    3.3068   -2.2616 H   0  0  0  0  0  0  0  0  0  0  0  0
    2.3353    3.4996   -1.5576 H   0  0  0  0  0  0  0  0  0  0  0  0
    2.0405    2.2234   -2.7544 H   0  0  0  0  0  0  0  0  0  0  0  0
    1.0078   -0.5098    0.9440 C   0  0  0  0  0  0  0  0  0  0  0  0
    2.2108   -0.6596    1.1160 O   0  0  0  0  0  0  0  0  0  0  0  0
    0.2244   -0.0912    2.0052 N   0  0  0  0  0  0  0  0  0  0  0  0
   -0.7772   -0.0865    1.8483 H   0  0  0  0  0  0  0  0  0  0  0  0
    0.7243   -0.0115    3.3715 C   0  0  0  0  0  0  0  0  0  0  0  0
    1.5698    0.6820    3.4307 H   0  0  0  0  0  0  0  0  0  0  0  0
   -0.0623    0.3464    4.0423 H   0  0  0  0  0  0  0  0  0  0  0  0
    1.0530   -0.9978    3.7157 H   0  0  0  0  0  0  0  0  0  0  0  0
  1  2  1  0  0  0  0
  2  3  1  0  0  0  0
  2  4  1  0  0  0  0
  2  5  1  0  0  0  0
  5  6  2  0  0  0  0
  5  7  1  0  0  0  0
  7  8  1  0  0  0  0
  7  9  1  0  0  0  0
  9 10  1  0  0  0  0
  9 11  1  0  0  0  0
  9 24  1  0  0  0  0
 11 12  1  0  0  0  0
 11 13  1  0  0  0  0
 11 17  1  0  0  0  0
 13 14  1  0  0  0  0
 13 15  1  0  0  0  0
 13 16  1  0  0  0  0
 17 18  1  0  0  0  0
 17 19  1  0  0  0  0
 17 20  1  0  0  0  0
 20 21  1  0  0  0  0
 20 22  1  0  0  0  0
 20 23  1  0  0  0  0
 24 25  2  0  0  0  0
 24 26  1  0  0  0  0
 26 27  1  0  0  0  0
 26 28  1  0  0  0  0
 28 29  1  0  0  0  0
 28 30  1  0  0  0  0
 28 31  1  0  0  0  0
M  END
$$$$

  -OEChem-03222214053D

 31 30  0     1  0  0  0  0  0999 V2000
   -2.4522   -4.2831    0.4355 H   0  0  0  0  0  0  0  0  0  0  0  0
   -2.4921   -3.2632    0.0421 C   0  0  0  0  0  0  0  0  0  0  0  0
   -3.1857   -2.6788    0.6510 H   0  0  0  0  0  0  0  0  0  0  0  0
   -2.8587   -3.2982   -0.9866 H   0  0  0  0  0  0  0  0  0  0  0  0
   -1.1122   -2.6343    0.0802 C   0  0  0  0  0  0  0  0  0  0  0  0
   -0.1740   -3.2626    0.5344 O   0  0  0  0  0  0  0  0  0  0  0  0
   -0.9346   -1.3526   -0.4042 N   0  0  0  0  0  0  0  0  0  0  0  0
   -1.7402   -0.9160   -0.8394 H   0  0  0  0  0  0  0  0  0  0  0  0
    0.3649   -0.6482   -0.4777 C   0  0  1  0  0  0  0  0  0  0  0  0
    1.0619   -1.2746   -1.0457 H   0  0  0  0  0  0  0  0  0  0  0  0
    0.2263    0.7134   -1.2521 C   0  0  1  0  0  0  0  0  0  0  0  0
    0.4303    0.5021   -2.3073 H   0  0  0  0  0  0  0  0  0  0  0  0
   -1.1995    1.3073   -1.1614 C   0  0  0  0  0  0  0  0  0  0  0  0
   -1.4877    1.4549   -0.1158 H   0  0  0  0  0  0  0  0  0  0  0  0
   -1.2619    2.2702   -1.6736 H   0  0  0  0  0  0  0  0  0  0  0  0
   -1.9301    0.6518   -1.6436 H   0  0  0  0  0  0  0  0  0  0  0  0
    1.2389    1.7859   -0.7693 C   0  0  0  0  0  0  0  0  0  0  0  0
    0.9611    2.1560    0.2233 H   0  0  0  0  0  0  0  0  0  0  0  0
    2.2295    1.3257   -0.6906 H   0  0  0  0  0  0  0  0  0  0  0  0
    1.3779    2.9748   -1.7275 C   0  0  0  0  0  0  0  0  0  0  0  0
    0.4771    3.5939   -1.7303 H   0  0  0  0  0  0  0  0  0  0  0  0
    2.2164    3.6044   -1.4141 H   0  0  0  0  0  0  0  0  0  0  0  0
    1.5717    2.6264   -2.7465 H   0  0  0  0  0  0  0  0  0  0  0  0
    0.9970   -0.4989    0.9314 C   0  0  0  0  0  0  0  0  0  0  0  0
    2.2066   -0.6119    1.0848 O   0  0  0  0  0  0  0  0  0  0  0  0
    0.2191   -0.0929    2.0014 N   0  0  0  0  0  0  0  0  0  0  0  0
   -0.7844   -0.1123    1.8585 H   0  0  0  0  0  0  0  0  0  0  0  0
    0.7353    0.0079    3.3603 C   0  0  0  0  0  0  0  0  0  0  0  0
    1.5724    0.7126    3.4018 H   0  0  0  0  0  0  0  0  0  0  0  0
   -0.0475    0.3636    4.0366 H   0  0  0  0  0  0  0  0  0  0  0  0
    1.0804   -0.9706    3.7107 H   0  0  0  0  0  0  0  0  0  0  0  0
  1  2  1  0  0  0  0
  2  3  1  0  0  0  0
  2  4  1  0  0  0  0
  2  5  1  0  0  0  0
  5  6  2  0  0  0  0
  5  7  1  0  0  0  0
  7  8  1  0  0  0  0
  7  9  1  0  0  0  0
  9 10  1  0  0  0  0
  9 11  1  0  0  0  0
  9 24  1  0  0  0  0
 11 12  1  0  0  0  0
 11 13  1  0  0  0  0
 11 17  1  0  0  0  0
 13 14  1  0  0  0  0
 13 15  1  0  0  0  0
 13 16  1  0  0  0  0
 17 18  1  0  0  0  0
 17 19  1  0  0  0  0
 17 20  1  0  0  0  0
 20 21  1  0  0  0  0
 20 22  1  0  0  0  0
 20 23  1  0  0  0  0
 24 25  2  0  0  0  0
 24 26  1  0  0  0  0
 26 27  1  0  0  0  0
 26 28  1  0  0  0  0
 28 29  1  0  0  0  0
 28 30  1  0  0  0  0
 28 31  1  0  0  0  0
M  END
$$$$

  -OEChem-03222214053D

 31 30  0     1  0  0  0  0  0999 V2000
   -2.4591   -4.2875    0.3899 H   0  0  0  0  0  0  0  0  0  0  0  0
   -2.4994   -3.2663    0.0006 C   0  0  0  0  0  0  0  0  0  0  0  0
   -3.2163   -2.6927    0.5928 H   0  0  0  0  0  0  0  0  0  0  0  0
   -2.8375   -3.3003   -1.0378 H   0  0  0  0  0  0  0  0  0  0  0  0
   -1.1274   -2.6237    0.0798 C   0  0  0  0  0  0  0  0  0  0  0  0
   -0.1992   -3.2395    0.5703 O   0  0  0  0  0  0  0  0  0  0  0  0
   -0.9457   -1.3429   -0.4051 N   0  0  0  0  0  0  0  0  0  0  0  0
   -1.7341   -0.9272   -0.8902 H   0  0  0  0  0  0  0  0  0  0  0  0
    0.3556   -0.6442   -0.4739 C   0  0  1  0  0  0  0  0  0  0  0  0
    1.0495   -1.2727   -1.0436 H   0  0  0  0  0  0  0  0  0  0  0  0
    0.2073    0.7061   -1.2558 C   0  0  1  0  0  0  0  0  0  0  0  0
    0.1389    0.4665   -2.3222 H   0  0  0  0  0  0  0  0  0  0  0  0
   -1.0836    1.4640   -0.8588 C   0  0  0  0  0  0  0  0  0  0  0  0
   -1.0490    1.7549    0.1956 H   0  0  0  0  0  0  0  0  0  0  0  0
   -1.2093    2.3658   -1.4633 H   0  0  0  0  0  0  0  0  0  0  0  0
   -1.9772    0.8579   -1.0258 H   0  0  0  0  0  0  0  0  0  0  0  0
    1.4350    1.6337   -1.0407 C   0  0  0  0  0  0  0  0  0  0  0  0
    1.5618    1.8646    0.0214 H   0  0  0  0  0  0  0  0  0  0  0  0
    2.3326    1.1014   -1.3734 H   0  0  0  0  0  0  0  0  0  0  0  0
    1.3568    2.9728   -1.7824 C   0  0  0  0  0  0  0  0  0  0  0  0
    0.6108    3.6333   -1.3314 H   0  0  0  0  0  0  0  0  0  0  0  0
    2.3257    3.4792   -1.7316 H   0  0  0  0  0  0  0  0  0  0  0  0
    1.1044    2.8143   -2.8354 H   0  0  0  0  0  0  0  0  0  0  0  0
    0.9989   -0.4878    0.9283 C   0  0  0  0  0  0  0  0  0  0  0  0
    2.2122   -0.5844    1.0641 O   0  0  0  0  0  0  0  0  0  0  0  0
    0.2337   -0.0741    2.0043 N   0  0  0  0  0  0  0  0  0  0  0  0
   -0.7717   -0.1129    1.8775 H   0  0  0  0  0  0  0  0  0  0  0  0
    0.7683    0.0345    3.3556 C   0  0  0  0  0  0  0  0  0  0  0  0
    1.6036    0.7422    3.3824 H   0  0  0  0  0  0  0  0  0  0  0  0
   -0.0060    0.3904    4.0415 H   0  0  0  0  0  0  0  0  0  0  0  0
    1.1222   -0.9411    3.7054 H   0  0  0  0  0  0  0  0  0  0  0  0
  1  2  1  0  0  0  0
  2  3  1  0  0  0  0
  2  4  1  0  0  0  0
  2  5  1  0  0  0  0
  5  6  2  0  0  0  0
  5  7  1  0  0  0  0
  7  8  1  0  0  0  0
  7  9  1  0  0  0  0
  9 10  1  0  0  0  0
  9 11  1  0  0  0  0
  9 24  1  0  0  0  0
 11 12  1  0  0  0  0
 11 13  1  0  0  0  0
 11 17  1  0  0  0  0
 13 14  1  0  0  0  0
 13 15  1  0  0  0  0
 13 16  1  0  0  0  0
 17 18  1  0  0  0  0
 17 19  1  0  0  0  0
 17 20  1  0  0  0  0
 20 21  1  0  0  0  0
 20 22  1  0  0  0  0
 20 23  1  0  0  0  0
 24 25  2  0  0  0  0
 24 26  1  0  0  0  0
 26 27  1  0  0  0  0
 26 28  1  0  0  0  0
 28 29  1  0  0  0  0
 28 30  1  0  0  0  0
 28 31  1  0  0  0  0
M  END
$$$$

  -OEChem-03222214053D

 31 30  0     1  0  0  0  0  0999 V2000
   -2.4611   -4.2827    0.3975 H   0  0  0  0  0  0  0  0  0  0  0  0
   -2.4998   -3.2602    0.0108 C   0  0  0  0  0  0  0  0  0  0  0  0
   -3.2134   -2.6860    0.6065 H   0  0  0  0  0  0  0  0  0  0  0  0
   -2.8408   -3.2907   -1.0267 H   0  0  0  0  0  0  0  0  0  0  0  0
   -1.1259   -2.6212    0.0874 C   0  0  0  0  0  0  0  0  0  0  0  0
   -0.1965   -3.2439    0.5669 O   0  0  0  0  0  0  0  0  0  0  0  0
   -0.9442   -1.3384   -0.3929 N   0  0  0  0  0  0  0  0  0  0  0  0
   -1.7348   -0.9200   -0.8721 H   0  0  0  0  0  0  0  0  0  0  0  0
    0.3581   -0.6403   -0.4656 C   0  0  1  0  0  0  0  0  0  0  0  0
    1.0501   -1.2705   -1.0358 H   0  0  0  0  0  0  0  0  0  0  0  0
    0.2125    0.7109   -1.2555 C   0  0  1  0  0  0  0  0  0  0  0  0
    0.1417    0.4693   -2.3213 H   0  0  0  0  0  0  0  0  0  0  0  0
   -1.0934    1.4512   -0.8655 C   0  0  0  0  0  0  0  0  0  0  0  0
   -1.0608    1.7566    0.1849 H   0  0  0  0  0  0  0  0  0  0  0  0
   -1.2392    2.3410   -1.4837 H   0  0  0  0  0  0  0  0  0  0  0  0
   -1.9789    0.8312   -1.0226 H   0  0  0  0  0  0  0  0  0  0  0  0
    1.4383    1.6569   -1.0574 C   0  0  0  0  0  0  0  0  0  0  0  0
    1.7244    1.7100   -0.0046 H   0  0  0  0  0  0  0  0  0  0  0  0
    2.2870    1.2354   -1.6060 H   0  0  0  0  0  0  0  0  0  0  0  0
    1.2340    3.1133   -1.4927 C   0  0  0  0  0  0  0  0  0  0  0  0
    0.5342    3.6307   -0.8297 H   0  0  0  0  0  0  0  0  0  0  0  0
    2.1887    3.6465   -1.4532 H   0  0  0  0  0  0  0  0  0  0  0  0
    0.8570    3.1582   -2.5192 H   0  0  0  0  0  0  0  0  0  0  0  0
    0.9983   -0.4963    0.9391 C   0  0  0  0  0  0  0  0  0  0  0  0
    2.2087   -0.6175    1.0802 O   0  0  0  0  0  0  0  0  0  0  0  0
    0.2326   -0.0892    2.0172 N   0  0  0  0  0  0  0  0  0  0  0  0
   -0.7724   -0.1059    1.8835 H   0  0  0  0  0  0  0  0  0  0  0  0
    0.7616   -0.0035    3.3721 C   0  0  0  0  0  0  0  0  0  0  0  0
    1.6012    0.6983    3.4125 H   0  0  0  0  0  0  0  0  0  0  0  0
   -0.0138    0.3477    4.0594 H   0  0  0  0  0  0  0  0  0  0  0  0
    1.1073   -0.9863    3.7099 H   0  0  0  0  0  0  0  0  0  0  0  0
  1  2  1  0  0  0  0
  2  3  1  0  0  0  0
  2  4  1  0  0  0  0
  2  5  1  0  0  0  0
  5  6  2  0  0  0  0
  5  7  1  0  0  0  0
  7  8  1  0  0  0  0
  7  9  1  0  0  0  0
  9 10  1  0  0  0  0
  9 11  1  0  0  0  0
  9 24  1  0  0  0  0
 11 12  1  0  0  0  0
 11 13  1  0  0  0  0
 11 17  1  0  0  0  0
 13 14  1  0  0  0  0
 13 15  1  0  0  0  0
 13 16  1  0  0  0  0
 17 18  1  0  0  0  0
 17 19  1  0  0  0  0
 17 20  1  0  0  0  0
 20 21  1  0  0  0  0
 20 22  1  0  0  0  0
 20 23  1  0  0  0  0
 24 25  2  0  0  0  0
 24 26  1  0  0  0  0
 26 27  1  0  0  0  0
 26 28  1  0  0  0  0
 28 29  1  0  0  0  0
 28 30  1  0  0  0  0
 28 31  1  0  0  0  0
M  END
$$$$

  -OEChem-03222214053D

 31 30  0     1  0  0  0  0  0999 V2000
   -2.4648   -4.2690    0.4232 H   0  0  0  0  0  0  0  0  0  0  0  0
   -2.4988   -3.2480    0.0325 C   0  0  0  0  0  0  0  0  0  0  0  0
   -3.2020   -2.6657    0.6326 H   0  0  0  0  0  0  0  0  0  0  0  0
   -2.8494   -3.2794   -1.0018 H   0  0  0  0  0  0  0  0  0  0  0  0
   -1.1195   -2.6195    0.0944 C   0  0  0  0  0  0  0  0  0  0  0  0
   -0.1895   -3.2505    0.5614 O   0  0  0  0  0  0  0  0  0  0  0  0
   -0.9344   -1.3378   -0.3876 N   0  0  0  0  0  0  0  0  0  0  0  0
   -1.7277   -0.9142   -0.8573 H   0  0  0  0  0  0  0  0  0  0  0  0
    0.3695   -0.6422   -0.4655 C   0  0  1  0  0  0  0  0  0  0  0  0
    1.0618   -1.2706   -1.0371 H   0  0  0  0  0  0  0  0  0  0  0  0
    0.2169    0.7142   -1.2516 C   0  0  1  0  0  0  0  0  0  0  0  0
    0.1448    0.4714   -2.3171 H   0  0  0  0  0  0  0  0  0  0  0  0
   -1.1073    1.4302   -0.8704 C   0  0  0  0  0  0  0  0  0  0  0  0
   -1.1031    1.7056    0.1887 H   0  0  0  0  0  0  0  0  0  0  0  0
   -1.2522    2.3342   -1.4678 H   0  0  0  0  0  0  0  0  0  0  0  0
   -1.9818    0.8054   -1.0657 H   0  0  0  0  0  0  0  0  0  0  0  0
    1.4394    1.6803   -1.0743 C   0  0  0  0  0  0  0  0  0  0  0  0
    1.9210    1.5423   -0.1066 H   0  0  0  0  0  0  0  0  0  0  0  0
    2.1838    1.4190   -1.8334 H   0  0  0  0  0  0  0  0  0  0  0  0
    1.1583    3.1864   -1.1587 C   0  0  0  0  0  0  0  0  0  0  0  0
    0.5184    3.5161   -0.3347 H   0  0  0  0  0  0  0  0  0  0  0  0
    2.1001    3.7400   -1.0948 H   0  0  0  0  0  0  0  0  0  0  0  0
    0.6806    3.4371   -2.1106 H   0  0  0  0  0  0  0  0  0  0  0  0
    1.0009   -0.5059    0.9449 C   0  0  0  0  0  0  0  0  0  0  0  0
    2.2055   -0.6628    1.1013 O   0  0  0  0  0  0  0  0  0  0  0  0
    0.2306   -0.1000    2.0202 N   0  0  0  0  0  0  0  0  0  0  0  0
   -0.7731   -0.0975    1.8768 H   0  0  0  0  0  0  0  0  0  0  0  0
    0.7478   -0.0361    3.3809 C   0  0  0  0  0  0  0  0  0  0  0  0
    1.5960    0.6544    3.4369 H   0  0  0  0  0  0  0  0  0  0  0  0
   -0.0292    0.3174    4.0653 H   0  0  0  0  0  0  0  0  0  0  0  0
    1.0778   -1.0272    3.7103 H   0  0  0  0  0  0  0  0  0  0  0  0
  1  2  1  0  0  0  0
  2  3  1  0  0  0  0
  2  4  1  0  0  0  0
  2  5  1  0  0  0  0
  5  6  2  0  0  0  0
  5  7  1  0  0  0  0
  7  8  1  0  0  0  0
  7  9  1  0  0  0  0
  9 10  1  0  0  0  0
  9 11  1  0  0  0  0
  9 24  1  0  0  0  0
 11 12  1  0  0  0  0
 11 13  1  0  0  0  0
 11 17  1  0  0  0  0
 13 14  1  0  0  0  0
 13 15  1  0  0  0  0
 13 16  1  0  0  0  0
 17 18  1  0  0  0  0
 17 19  1  0  0  0  0
 17 20  1  0  0  0  0
 20 21  1  0  0  0  0
 20 22  1  0  0  0  0
 20 23  1  0  0  0  0
 24 25  2  0  0  0  0
 24 26  1  0  0  0  0
 26 27  1  0  0  0  0
 26 28  1  0  0  0  0
 28 29  1  0  0  0  0
 28 30  1  0  0  0  0
 28 31  1  0  0  0  0
M  END
$$$$

  -OEChem-03222214053D

 31 30  0     1  0  0  0  0  0999 V2000
   -2.4641   -4.2607    0.4504 H   0  0  0  0  0  0  0  0  0  0  0  0
   -2.4964   -3.2417    0.0541 C   0  0  0  0  0  0  0  0  0  0  0  0
   -3.1901   -2.6519    0.6576 H   0  0  0  0  0  0  0  0  0  0  0  0
   -2.8577   -3.2776   -0.9764 H   0  0  0  0  0  0  0  0  0  0  0  0
   -1.1127   -2.6212    0.0983 C   0  0  0  0  0  0  0  0  0  0  0  0
   -0.1811   -3.2580    0.5535 O   0  0  0  0  0  0  0  0  0  0  0  0
   -0.9244   -1.3428   -0.3916 N   0  0  0  0  0  0  0  0  0  0  0  0
   -1.7215   -0.9130   -0.8489 H   0  0  0  0  0  0  0  0  0  0  0  0
    0.3810   -0.6498   -0.4745 C   0  0  1  0  0  0  0  0  0  0  0  0
    1.0747   -1.2725   -1.0508 H   0  0  0  0  0  0  0  0  0  0  0  0
    0.2149    0.7150   -1.2416 C   0  0  1  0  0  0  0  0  0  0  0  0
    0.1507    0.4710   -2.3075 H   0  0  0  0  0  0  0  0  0  0  0  0
   -1.1239    1.4128   -0.8812 C   0  0  0  0  0  0  0  0  0  0  0  0
   -1.1628    1.6470    0.1870 H   0  0  0  0  0  0  0  0  0  0  0  0
   -1.2494    2.3377   -1.4502 H   0  0  0  0  0  0  0  0  0  0  0  0
   -1.9856    0.7902   -1.1336 H   0  0  0  0  0  0  0  0  0  0  0  0
    1.4365    1.6873   -1.0739 C   0  0  0  0  0  0  0  0  0  0  0  0
    2.1176    1.3517   -0.2931 H   0  0  0  0  0  0  0  0  0  0  0  0
    2.0121    1.6459   -2.0042 H   0  0  0  0  0  0  0  0  0  0  0  0
    1.1406    3.1643   -0.7787 C   0  0  0  0  0  0  0  0  0  0  0  0
    0.5898    3.2744    0.1603 H   0  0  0  0  0  0  0  0  0  0  0  0
    2.0817    3.7147   -0.6836 H   0  0  0  0  0  0  0  0  0  0  0  0
    0.5672    3.6189   -1.5919 H   0  0  0  0  0  0  0  0  0  0  0  0
    1.0057   -0.5103    0.9401 C   0  0  0  0  0  0  0  0  0  0  0  0
    2.2034   -0.6995    1.1126 O   0  0  0  0  0  0  0  0  0  0  0  0
    0.2310   -0.0984    2.0102 N   0  0  0  0  0  0  0  0  0  0  0  0
   -0.7705   -0.0735    1.8561 H   0  0  0  0  0  0  0  0  0  0  0  0
    0.7363   -0.0410    3.3756 C   0  0  0  0  0  0  0  0  0  0  0  0
    1.5910    0.6405    3.4400 H   0  0  0  0  0  0  0  0  0  0  0  0
   -0.0431    0.3198    4.0532 H   0  0  0  0  0  0  0  0  0  0  0  0
    1.0527   -1.0356    3.7070 H   0  0  0  0  0  0  0  0  0  0  0  0
  1  2  1  0  0  0  0
  2  3  1  0  0  0  0
  2  4  1  0  0  0  0
  2  5  1  0  0  0  0
  5  6  2  0  0  0  0
  5  7  1  0  0  0  0
  7  8  1  0  0  0  0
  7  9  1  0  0  0  0
  9 10  1  0  0  0  0
  9 11  1  0  0  0  0
  9 24  1  0  0  0  0
 11 12  1  0  0  0  0
 11 13  1  0  0  0  0
 11 17  1  0  0  0  0
 13 14  1  0  0  0  0
 13 15  1  0  0  0  0
 13 16  1  0  0  0  0
 17 18  1  0  0  0  0
 17 19  1  0  0  0  0
 17 20  1  0  0  0  0
 20 21  1  0  0  0  0
 20 22  1  0  0  0  0
 20 23  1  0  0  0  0
 24 25  2  0  0  0  0
 24 26  1  0  0  0  0
 26 27  1  0  0  0  0
 26 28  1  0  0  0  0
 28 29  1  0  0  0  0
 28 30  1  0  0  0  0
 28 31  1  0  0  0  0
M  END
$$$$

  -OEChem-03222214053D

 31 30  0     1  0  0  0  0  0999 V2000
   -2.4663   -4.2601    0.4600 H   0  0  0  0  0  0  0  0  0  0  0  0
   -2.4966   -3.2427    0.0590 C   0  0  0  0  0  0  0  0  0  0  0  0
   -3.1880   -2.6481    0.6610 H   0  0  0  0  0  0  0  0  0  0  0  0
   -2.8597   -3.2826   -0.9708 H   0  0  0  0  0  0  0  0  0  0  0  0
   -1.1113   -2.6254    0.0973 C   0  0  0  0  0  0  0  0  0  0  0  0
   -0.1801   -3.2613    0.5548 O   0  0  0  0  0  0  0  0  0  0  0  0
   -0.9210   -1.3506   -0.4005 N   0  0  0  0  0  0  0  0  0  0  0  0
   -1.7190   -0.9188   -0.8544 H   0  0  0  0  0  0  0  0  0  0  0  0
    0.3845   -0.6593   -0.4847 C   0  0  1  0  0  0  0  0  0  0  0  0
    1.0797   -1.2760   -1.0655 H   0  0  0  0  0  0  0  0  0  0  0  0
    0.2074    0.7113   -1.2298 C   0  0  1  0  0  0  0  0  0  0  0  0
    0.1590    0.4663   -2.2964 H   0  0  0  0  0  0  0  0  0  0  0  0
   -1.1349    1.4092   -0.8959 C   0  0  0  0  0  0  0  0  0  0  0  0
   -1.2116    1.6172    0.1755 H   0  0  0  0  0  0  0  0  0  0  0  0
   -1.2271    2.3493   -1.4469 H   0  0  0  0  0  0  0  0  0  0  0  0
   -1.9897    0.7966   -1.1935 H   0  0  0  0  0  0  0  0  0  0  0  0
    1.4317    1.6721   -1.0545 C   0  0  0  0  0  0  0  0  0  0  0  0
    2.2543    1.1830   -0.5308 H   0  0  0  0  0  0  0  0  0  0  0  0
    1.8160    1.8834   -2.0578 H   0  0  0  0  0  0  0  0  0  0  0  0
    1.1766    3.0325   -0.3907 C   0  0  0  0  0  0  0  0  0  0  0  0
    0.7535    2.9000    0.6097 H   0  0  0  0  0  0  0  0  0  0  0  0
    2.1224    3.5736   -0.2898 H   0  0  0  0  0  0  0  0  0  0  0  0
    0.5020    3.6499   -0.9901 H   0  0  0  0  0  0  0  0  0  0  0  0
    1.0104   -0.5081    0.9287 C   0  0  0  0  0  0  0  0  0  0  0  0
    2.2079   -0.6948    1.1049 O   0  0  0  0  0  0  0  0  0  0  0  0
    0.2350   -0.0869    1.9948 N   0  0  0  0  0  0  0  0  0  0  0  0
   -0.7663   -0.0603    1.8393 H   0  0  0  0  0  0  0  0  0  0  0  0
    0.7396   -0.0154    3.3599 C   0  0  0  0  0  0  0  0  0  0  0  0
    1.5946    0.6667    3.4175 H   0  0  0  0  0  0  0  0  0  0  0  0
   -0.0403    0.3527    4.0331 H   0  0  0  0  0  0  0  0  0  0  0  0
    1.0557   -1.0066    3.7020 H   0  0  0  0  0  0  0  0  0  0  0  0
  1  2  1  0  0  0  0
  2  3  1  0  0  0  0
  2  4  1  0  0  0  0
  2  5  1  0  0  0  0
  5  6  2  0  0  0  0
  5  7  1  0  0  0  0
  7  8  1  0  0  0  0
  7  9  1  0  0  0  0
  9 10  1  0  0  0  0
  9 11  1  0  0  0  0
  9 24  1  0  0  0  0
 11 12  1  0  0  0  0
 11 13  1  0  0  0  0
 11 17  1  0  0  0  0
 13 14  1  0  0  0  0
 13 15  1  0  0  0  0
 13 16  1  0  0  0  0
 17 18  1  0  0  0  0
 17 19  1  0  0  0  0
 17 20  1  0  0  0  0
 20 21  1  0  0  0  0
 20 22  1  0  0  0  0
 20 23  1  0  0  0  0
 24 25  2  0  0  0  0
 24 26  1  0  0  0  0
 26 27  1  0  0  0  0
 26 28  1  0  0  0  0
 28 29  1  0  0  0  0
 28 30  1  0  0  0  0
 28 31  1  0  0  0  0
M  END
$$$$

  -OEChem-03222214053D

 31 30  0     1  0  0  0  0  0999 V2000
   -2.4758   -4.2644    0.4454 H   0  0  0  0  0  0  0  0  0  0  0  0
   -2.5047   -3.2463    0.0465 C   0  0  0  0  0  0  0  0  0  0  0  0
   -3.1969   -2.6526    0.6483 H   0  0  0  0  0  0  0  0  0  0  0  0
   -2.8655   -3.2838   -0.9841 H   0  0  0  0  0  0  0  0  0  0  0  0
   -1.1193   -2.6294    0.0898 C   0  0  0  0  0  0  0  0  0  0  0  0
   -0.1897   -3.2645    0.5518 O   0  0  0  0  0  0  0  0  0  0  0  0
   -0.9274   -1.3526   -0.4021 N   0  0  0  0  0  0  0  0  0  0  0  0
   -1.7243   -0.9163   -0.8539 H   0  0  0  0  0  0  0  0  0  0  0  0
    0.3783   -0.6624   -0.4796 C   0  0  1  0  0  0  0  0  0  0  0  0
    1.0715   -1.2808   -1.0611 H   0  0  0  0  0  0  0  0  0  0  0  0
    0.2070    0.7041   -1.2246 C   0  0  1  0  0  0  0  0  0  0  0  0
    0.1726    0.4543   -2.2905 H   0  0  0  0  0  0  0  0  0  0  0  0
   -1.1287    1.4164   -0.9089 C   0  0  0  0  0  0  0  0  0  0  0  0
   -1.2348    1.5946    0.1655 H   0  0  0  0  0  0  0  0  0  0  0  0
   -1.1794    2.3760   -1.4323 H   0  0  0  0  0  0  0  0  0  0  0  0
   -1.9830    0.8255   -1.2499 H   0  0  0  0  0  0  0  0  0  0  0  0
    1.4292    1.6547   -1.0379 C   0  0  0  0  0  0  0  0  0  0  0  0
    2.3186    1.0869   -0.7518 H   0  0  0  0  0  0  0  0  0  0  0  0
    1.6565    2.0869   -2.0179 H   0  0  0  0  0  0  0  0  0  0  0  0
    1.2479    2.8359   -0.0729 C   0  0  0  0  0  0  0  0  0  0  0  0
    0.9534    2.4829    0.9197 H   0  0  0  0  0  0  0  0  0  0  0  0
    2.1939    3.3771    0.0253 H   0  0  0  0  0  0  0  0  0  0  0  0
    0.4957    3.5404   -0.4383 H   0  0  0  0  0  0  0  0  0  0  0  0
    1.0133   -0.5104    0.9284 C   0  0  0  0  0  0  0  0  0  0  0  0
    2.2172   -0.6649    1.0896 O   0  0  0  0  0  0  0  0  0  0  0  0
    0.2434   -0.0897    1.9986 N   0  0  0  0  0  0  0  0  0  0  0  0
   -0.7598   -0.0813    1.8537 H   0  0  0  0  0  0  0  0  0  0  0  0
    0.7614    0.0038    3.3573 C   0  0  0  0  0  0  0  0  0  0  0  0
    1.6088    0.6964    3.3984 H   0  0  0  0  0  0  0  0  0  0  0  0
   -0.0158    0.3707    4.0344 H   0  0  0  0  0  0  0  0  0  0  0  0
    1.0930   -0.9795    3.7073 H   0  0  0  0  0  0  0  0  0  0  0  0
  1  2  1  0  0  0  0
  2  3  1  0  0  0  0
  2  4  1  0  0  0  0
  2  5  1  0  0  0  0
  5  6  2  0  0  0  0
  5  7  1  0  0  0  0
  7  8  1  0  0  0  0
  7  9  1  0  0  0  0
  9 10  1  0  0  0  0
  9 11  1  0  0  0  0
  9 24  1  0  0  0  0
 11 12  1  0  0  0  0
 11 13  1  0  0  0  0
 11 17  1  0  0  0  0
 13 14  1  0  0  0  0
 13 15  1  0  0  0  0
 13 16  1  0  0  0  0
 17 18  1  0  0  0  0
 17 19  1  0  0  0  0
 17 20  1  0  0  0  0
 20 21  1  0  0  0  0
 20 22  1  0  0  0  0
 20 23  1  0  0  0  0
 24 25  2  0  0  0  0
 24 26  1  0  0  0  0
 26 27  1  0  0  0  0
 26 28  1  0  0  0  0
 28 29  1  0  0  0  0
 28 30  1  0  0  0  0
 28 31  1  0  0  0  0
M  END
$$$$

  -OEChem-03222214053D

 31 30  0     1  0  0  0  0  0999 V2000
   -2.4923   -4.2714    0.4132 H   0  0  0  0  0  0  0  0  0  0  0  0
   -2.5193   -3.2483    0.0272 C   0  0  0  0  0  0  0  0  0  0  0  0
   -3.2124   -2.6618    0.6349 H   0  0  0  0  0  0  0  0  0  0  0  0
   -2.8783   -3.2725   -1.0045 H   0  0  0  0  0  0  0  0  0  0  0  0
   -1.1333   -2.6337    0.0810 C   0  0  0  0  0  0  0  0  0  0  0  0
   -0.2042   -3.2768    0.5332 O   0  0  0  0  0  0  0  0  0  0  0  0
   -0.9390   -1.3481   -0.3857 N   0  0  0  0  0  0  0  0  0  0  0  0
   -1.7363   -0.8971   -0.8219 H   0  0  0  0  0  0  0  0  0  0  0  0
    0.3678   -0.6592   -0.4482 C   0  0  1  0  0  0  0  0  0  0  0  0
    1.0569   -1.2883   -1.0231 H   0  0  0  0  0  0  0  0  0  0  0  0
    0.2233    0.6913   -1.2253 C   0  0  1  0  0  0  0  0  0  0  0  0
    0.1981    0.4236   -2.2870 H   0  0  0  0  0  0  0  0  0  0  0  0
   -1.1011    1.4253   -0.9236 C   0  0  0  0  0  0  0  0  0  0  0  0
   -1.2253    1.5825    0.1522 H   0  0  0  0  0  0  0  0  0  0  0  0
   -1.1160    2.3991   -1.4231 H   0  0  0  0  0  0  0  0  0  0  0  0
   -1.9594    0.8585   -1.2950 H   0  0  0  0  0  0  0  0  0  0  0  0
    1.4276    1.6592   -1.0452 C   0  0  0  0  0  0  0  0  0  0  0  0
    2.3484    1.0729   -0.9586 H   0  0  0  0  0  0  0  0  0  0  0  0
    1.5193    2.2484   -1.9634 H   0  0  0  0  0  0  0  0  0  0  0  0
    1.3626    2.6579    0.1227 C   0  0  0  0  0  0  0  0  0  0  0  0
    1.2350    2.1519    1.0807 H   0  0  0  0  0  0  0  0  0  0  0  0
    2.2957    3.2277    0.1659 H   0  0  0  0  0  0  0  0  0  0  0  0
    0.5417    3.3682   -0.0100 H   0  0  0  0  0  0  0  0  0  0  0  0
    1.0098   -0.5305    0.9558 C   0  0  0  0  0  0  0  0  0  0  0  0
    2.2210   -0.6442    1.0950 O   0  0  0  0  0  0  0  0  0  0  0  0
    0.2451   -0.1277    2.0371 N   0  0  0  0  0  0  0  0  0  0  0  0
   -0.7599   -0.1440    1.9050 H   0  0  0  0  0  0  0  0  0  0  0  0
    0.7768   -0.0393    3.3910 C   0  0  0  0  0  0  0  0  0  0  0  0
    1.6209    0.6576    3.4274 H   0  0  0  0  0  0  0  0  0  0  0  0
    0.0048    0.3196    4.0780 H   0  0  0  0  0  0  0  0  0  0  0  0
    1.1173   -1.0226    3.7326 H   0  0  0  0  0  0  0  0  0  0  0  0
  1  2  1  0  0  0  0
  2  3  1  0  0  0  0
  2  4  1  0  0  0  0
  2  5  1  0  0  0  0
  5  6  2  0  0  0  0
  5  7  1  0  0  0  0
  7  8  1  0  0  0  0
  7  9  1  0  0  0  0
  9 10  1  0  0  0  0
  9 11  1  0  0  0  0
  9 24  1  0  0  0  0
 11 12  1  0  0  0  0
 11 13  1  0  0  0  0
 11 17  1  0  0  0  0
 13 14  1  0  0  0  0
 13 15  1  0  0  0  0
 13 16  1  0  0  0  0
 17 18  1  0  0  0  0
 17 19  1  0  0  0  0
 17 20  1  0  0  0  0
 20 21  1  0  0  0  0
 20 22  1  0  0  0  0
 20 23  1  0  0  0  0
 24 25  2  0  0  0  0
 24 26  1  0  0  0  0
 26 27  1  0  0  0  0
 26 28  1  0  0  0  0
 28 29  1  0  0  0  0
 28 30  1  0  0  0  0
 28 31  1  0  0  0  0
M  END
$$$$

  -OEChem-03222214053D

 31 30  0     1  0  0  0  0  0999 V2000
   -2.5367   -4.2616    0.3804 H   0  0  0  0  0  0  0  0  0  0  0  0
   -2.5478   -3.2351    0.0023 C   0  0  0  0  0  0  0  0  0  0  0  0
   -3.2450   -2.6468    0.6036 H   0  0  0  0  0  0  0  0  0  0  0  0
   -2.8902   -3.2476   -1.0352 H   0  0  0  0  0  0  0  0  0  0  0  0
   -1.1570   -2.6344    0.0831 C   0  0  0  0  0  0  0  0  0  0  0  0
   -0.2421   -3.2902    0.5456 O   0  0  0  0  0  0  0  0  0  0  0  0
   -0.9425   -1.3476   -0.3719 N   0  0  0  0  0  0  0  0  0  0  0  0
   -1.7294   -0.8846   -0.8148 H   0  0  0  0  0  0  0  0  0  0  0  0
    0.3740   -0.6749   -0.4154 C   0  0  1  0  0  0  0  0  0  0  0  0
    1.0600   -1.3165   -0.9801 H   0  0  0  0  0  0  0  0  0  0  0  0
    0.2527    0.6649   -1.2178 C   0  0  1  0  0  0  0  0  0  0  0  0
    0.2227    0.3821   -2.2754 H   0  0  0  0  0  0  0  0  0  0  0  0
   -1.0641    1.4134   -0.9163 C   0  0  0  0  0  0  0  0  0  0  0  0
   -1.2032    1.5402    0.1617 H   0  0  0  0  0  0  0  0  0  0  0  0
   -1.0558    2.4036   -1.3836 H   0  0  0  0  0  0  0  0  0  0  0  0
   -1.9252    0.8719   -1.3182 H   0  0  0  0  0  0  0  0  0  0  0  0
    1.4303    1.6711   -1.0696 C   0  0  0  0  0  0  0  0  0  0  0  0
    2.3684    1.1243   -1.2123 H   0  0  0  0  0  0  0  0  0  0  0  0
    1.3535    2.3893   -1.8926 H   0  0  0  0  0  0  0  0  0  0  0  0
    1.5477    2.4855    0.2322 C   0  0  0  0  0  0  0  0  0  0  0  0
    1.8246    1.8697    1.0870 H   0  0  0  0  0  0  0  0  0  0  0  0
    2.3308    3.2400    0.1122 H   0  0  0  0  0  0  0  0  0  0  0  0
    0.6145    3.0060    0.4618 H   0  0  0  0  0  0  0  0  0  0  0  0
    1.0068   -0.5623    0.9901 C   0  0  0  0  0  0  0  0  0  0  0  0
    2.2127   -0.7185    1.1353 O   0  0  0  0  0  0  0  0  0  0  0  0
    0.2417   -0.1557    2.0694 N   0  0  0  0  0  0  0  0  0  0  0  0
   -0.7623   -0.1486    1.9289 H   0  0  0  0  0  0  0  0  0  0  0  0
    0.7635   -0.1002    3.4284 C   0  0  0  0  0  0  0  0  0  0  0  0
    1.6181    0.5824    3.4836 H   0  0  0  0  0  0  0  0  0  0  0  0
   -0.0083    0.2584    4.1159 H   0  0  0  0  0  0  0  0  0  0  0  0
    1.0856   -1.0949    3.7541 H   0  0  0  0  0  0  0  0  0  0  0  0
  1  2  1  0  0  0  0
  2  3  1  0  0  0  0
  2  4  1  0  0  0  0
  2  5  1  0  0  0  0
  5  6  2  0  0  0  0
  5  7  1  0  0  0  0
  7  8  1  0  0  0  0
  7  9  1  0  0  0  0
  9 10  1  0  0  0  0
  9 11  1  0  0  0  0
  9 24  1  0  0  0  0
 11 12  1  0  0  0  0
 11 13  1  0  0  0  0
 11 17  1  0  0  0  0
 13 14  1  0  0  0  0
 13 15  1  0  0  0  0
 13 16  1  0  0  0  0
 17 18  1  0  0  0  0
 17 19  1  0  0  0  0
 17 20  1  0  0  0  0
 20 21  1  0  0  0  0
 20 22  1  0  0  0  0
 20 23  1  0  0  0  0
 24 25  2  0  0  0  0
 24 26  1  0  0  0  0
 26 27  1  0  0  0  0
 26 28  1  0  0  0  0
 28 29  1  0  0  0  0
 28 30  1  0  0  0  0
 28 31  1  0  0  0  0
M  END
$$$$

  -OEChem-03222214053D

 31 30  0     1  0  0  0  0  0999 V2000
   -2.5778   -4.2355    0.3767 H   0  0  0  0  0  0  0  0  0  0  0  0
   -2.5719   -3.2082    0.0010 C   0  0  0  0  0  0  0  0  0  0  0  0
   -3.2618   -2.6106    0.6013 H   0  0  0  0  0  0  0  0  0  0  0  0
   -2.9110   -3.2131   -1.0376 H   0  0  0  0  0  0  0  0  0  0  0  0
   -1.1717   -2.6302    0.0887 C   0  0  0  0  0  0  0  0  0  0  0  0
   -0.2707   -3.3027    0.5541 O   0  0  0  0  0  0  0  0  0  0  0  0
   -0.9329   -1.3486   -0.3694 N   0  0  0  0  0  0  0  0  0  0  0  0
   -1.7098   -0.8747   -0.8178 H   0  0  0  0  0  0  0  0  0  0  0  0
    0.3936   -0.6937   -0.4017 C   0  0  1  0  0  0  0  0  0  0  0  0
    1.0799   -1.3442   -0.9558 H   0  0  0  0  0  0  0  0  0  0  0  0
    0.2811    0.6411   -1.2213 C   0  0  1  0  0  0  0  0  0  0  0  0
    0.2320    0.3502   -2.2761 H   0  0  0  0  0  0  0  0  0  0  0  0
   -1.0288    1.3996   -0.8993 C   0  0  0  0  0  0  0  0  0  0  0  0
   -1.1464    1.5363    0.1797 H   0  0  0  0  0  0  0  0  0  0  0  0
   -1.0327    2.3867   -1.3724 H   0  0  0  0  0  0  0  0  0  0  0  0
   -1.9003    0.8598   -1.2800 H   0  0  0  0  0  0  0  0  0  0  0  0
    1.4384    1.6780   -1.1081 C   0  0  0  0  0  0  0  0  0  0  0  0
    2.3504    1.2074   -1.4900 H   0  0  0  0  0  0  0  0  0  0  0  0
    1.2103    2.5090   -1.7838 H   0  0  0  0  0  0  0  0  0  0  0  0
    1.7738    2.2793    0.2659 C   0  0  0  0  0  0  0  0  0  0  0  0
    2.4226    1.6232    0.8472 H   0  0  0  0  0  0  0  0  0  0  0  0
    2.3153    3.2196    0.1259 H   0  0  0  0  0  0  0  0  0  0  0  0
    0.8694    2.4927    0.8416 H   0  0  0  0  0  0  0  0  0  0  0  0
    1.0060   -0.5869    1.0139 C   0  0  0  0  0  0  0  0  0  0  0  0
    2.1903   -0.8423    1.1924 O   0  0  0  0  0  0  0  0  0  0  0  0
    0.2349   -0.1662    2.0832 N   0  0  0  0  0  0  0  0  0  0  0  0
   -0.7636   -0.1029    1.9199 H   0  0  0  0  0  0  0  0  0  0  0  0
    0.7286   -0.1547    3.4539 C   0  0  0  0  0  0  0  0  0  0  0  0
    1.5986    0.5046    3.5419 H   0  0  0  0  0  0  0  0  0  0  0  0
   -0.0482    0.2077    4.1336 H   0  0  0  0  0  0  0  0  0  0  0  0
    1.0191   -1.1643    3.7634 H   0  0  0  0  0  0  0  0  0  0  0  0
  1  2  1  0  0  0  0
  2  3  1  0  0  0  0
  2  4  1  0  0  0  0
  2  5  1  0  0  0  0
  5  6  2  0  0  0  0
  5  7  1  0  0  0  0
  7  8  1  0  0  0  0
  7  9  1  0  0  0  0
  9 10  1  0  0  0  0
  9 11  1  0  0  0  0
  9 24  1  0  0  0  0
 11 12  1  0  0  0  0
 11 13  1  0  0  0  0
 11 17  1  0  0  0  0
 13 14  1  0  0  0  0
 13 15  1  0  0  0  0
 13 16  1  0  0  0  0
 17 18  1  0  0  0  0
 17 19  1  0  0  0  0
 17 20  1  0  0  0  0
 20 21  1  0  0  0  0
 20 22  1  0  0  0  0
 20 23  1  0  0  0  0
 24 25  2  0  0  0  0
 24 26  1  0  0  0  0
 26 27  1  0  0  0  0
 26 28  1  0  0  0  0
 28 29  1  0  0  0  0
 28 30  1  0  0  0  0
 28 31  1  0  0  0  0
M  END
$$$$

  -OEChem-03222214053D

 31 30  0     1  0  0  0  0  0999 V2000
   -2.5869   -4.2271    0.3962 H   0  0  0  0  0  0  0  0  0  0  0  0
   -2.5718   -3.2003    0.0195 C   0  0  0  0  0  0  0  0  0  0  0  0
   -3.2529   -2.5948    0.6222 H   0  0  0  0  0  0  0  0  0  0  0  0
   -2.9151   -3.2024   -1.0177 H   0  0  0  0  0  0  0  0  0  0  0  0
   -1.1652   -2.6370    0.1002 C   0  0  0  0  0  0  0  0  0  0  0  0
   -0.2690   -3.3209    0.5579 O   0  0  0  0  0  0  0  0  0  0  0  0
   -0.9168   -1.3591   -0.3640 N   0  0  0  0  0  0  0  0  0  0  0  0
   -1.6915   -0.8839   -0.8143 H   0  0  0  0  0  0  0  0  0  0  0  0
    0.4132   -0.7093   -0.4002 C   0  0  1  0  0  0  0  0  0  0  0  0
    1.1023   -1.3612   -0.9491 H   0  0  0  0  0  0  0  0  0  0  0  0
    0.2955    0.6262   -1.2299 C   0  0  1  0  0  0  0  0  0  0  0  0
    0.2076    0.3335   -2.2818 H   0  0  0  0  0  0  0  0  0  0  0  0
   -0.9996    1.3944   -0.8581 C   0  0  0  0  0  0  0  0  0  0  0  0
   -1.0282    1.6068    0.2148 H   0  0  0  0  0  0  0  0  0  0  0  0
   -1.0599    2.3458   -1.3959 H   0  0  0  0  0  0  0  0  0  0  0  0
   -1.8959    0.8306   -1.1291 H   0  0  0  0  0  0  0  0  0  0  0  0
    1.4348    1.6934   -1.1566 C   0  0  0  0  0  0  0  0  0  0  0  0
    2.2649    1.3169   -1.7631 H   0  0  0  0  0  0  0  0  0  0  0  0
    1.0936    2.6098   -1.6484 H   0  0  0  0  0  0  0  0  0  0  0  0
    2.0346    2.0895    0.1960 C   0  0  0  0  0  0  0  0  0  0  0  0
    2.7700    1.3577    0.5340 H   0  0  0  0  0  0  0  0  0  0  0  0
    2.5579    3.0451    0.0957 H   0  0  0  0  0  0  0  0  0  0  0  0
    1.2558    2.2089    0.9541 H   0  0  0  0  0  0  0  0  0  0  0  0
    1.0013   -0.6106    1.0284 C   0  0  0  0  0  0  0  0  0  0  0  0
    2.1645   -0.9270    1.2426 O   0  0  0  0  0  0  0  0  0  0  0  0
    0.2128   -0.1873    2.0844 N   0  0  0  0  0  0  0  0  0  0  0  0
   -0.7783   -0.0907    1.8946 H   0  0  0  0  0  0  0  0  0  0  0  0
    0.6666   -0.2172    3.4686 C   0  0  0  0  0  0  0  0  0  0  0  0
    1.5485    0.4194    3.5961 H   0  0  0  0  0  0  0  0  0  0  0  0
   -0.1215    0.1485    4.1336 H   0  0  0  0  0  0  0  0  0  0  0  0
    0.9243   -1.2399    3.7638 H   0  0  0  0  0  0  0  0  0  0  0  0
  1  2  1  0  0  0  0
  2  3  1  0  0  0  0
  2  4  1  0  0  0  0
  2  5  1  0  0  0  0
  5  6  2  0  0  0  0
  5  7  1  0  0  0  0
  7  8  1  0  0  0  0
  7  9  1  0  0  0  0
  9 10  1  0  0  0  0
  9 11  1  0  0  0  0
  9 24  1  0  0  0  0
 11 12  1  0  0  0  0
 11 13  1  0  0  0  0
 11 17  1  0  0  0  0
 13 14  1  0  0  0  0
 13 15  1  0  0  0  0
 13 16  1  0  0  0  0
 17 18  1  0  0  0  0
 17 19  1  0  0  0  0
 17 20  1  0  0  0  0
 20 21  1  0  0  0  0
 20 22  1  0  0  0  0
 20 23  1  0  0  0  0
 24 25  2  0  0  0  0
 24 26  1  0  0  0  0
 26 27  1  0  0  0  0
 26 28  1  0  0  0  0
 28 29  1  0  0  0  0
 28 30  1  0  0  0  0
 28 31  1  0  0  0  0
M  END
$$$$

  -OEChem-03222214053D

 31 30  0     1  0  0  0  0  0999 V2000
   -2.5923   -4.2152    0.4511 H   0  0  0  0  0  0  0  0  0  0  0  0
   -2.5698   -3.1955    0.0559 C   0  0  0  0  0  0  0  0  0  0  0  0
   -3.2459   -2.5747    0.6483 H   0  0  0  0  0  0  0  0  0  0  0  0
   -2.9141   -3.2139   -0.9808 H   0  0  0  0  0  0  0  0  0  0  0  0
   -1.1595   -2.6405    0.1253 C   0  0  0  0  0  0  0  0  0  0  0  0
   -0.2657   -3.3270    0.5835 O   0  0  0  0  0  0  0  0  0  0  0  0
   -0.9063   -1.3695   -0.3558 N   0  0  0  0  0  0  0  0  0  0  0  0
   -1.6769   -0.9060   -0.8248 H   0  0  0  0  0  0  0  0  0  0  0  0
    0.4266   -0.7252   -0.4107 C   0  0  1  0  0  0  0  0  0  0  0  0
    1.1150   -1.3749   -0.9629 H   0  0  0  0  0  0  0  0  0  0  0  0
    0.2911    0.6188   -1.2319 C   0  0  1  0  0  0  0  0  0  0  0  0
    0.1678    0.3294   -2.2809 H   0  0  0  0  0  0  0  0  0  0  0  0
   -0.9944    1.3873   -0.8184 C   0  0  0  0  0  0  0  0  0  0  0  0
   -0.9558    1.6562    0.2418 H   0  0  0  0  0  0  0  0  0  0  0  0
   -1.1050    2.3072   -1.4012 H   0  0  0  0  0  0  0  0  0  0  0  0
   -1.9011    0.8058   -1.0012 H   0  0  0  0  0  0  0  0  0  0  0  0
    1.4242    1.7025   -1.1930 C   0  0  0  0  0  0  0  0  0  0  0  0
    2.1105    1.4572   -2.0101 H   0  0  0  0  0  0  0  0  0  0  0  0
    1.0081    2.6844   -1.4388 H   0  0  0  0  0  0  0  0  0  0  0  0
    2.3038    1.8818    0.0434 C   0  0  0  0  0  0  0  0  0  0  0  0
    3.0024    1.0492    0.1499 H   0  0  0  0  0  0  0  0  0  0  0  0
    2.9010    2.7922   -0.0641 H   0  0  0  0  0  0  0  0  0  0  0  0
    1.6976    1.9834    0.9478 H   0  0  0  0  0  0  0  0  0  0  0  0
    1.0023   -0.6250    1.0255 C   0  0  0  0  0  0  0  0  0  0  0  0
    2.1493   -0.9801    1.2650 O   0  0  0  0  0  0  0  0  0  0  0  0
    0.2047   -0.1920    2.0711 N   0  0  0  0  0  0  0  0  0  0  0  0
   -0.7794   -0.0686    1.8627 H   0  0  0  0  0  0  0  0  0  0  0  0
    0.6274   -0.2540    3.4641 C   0  0  0  0  0  0  0  0  0  0  0  0
    1.5355    0.3392    3.6158 H   0  0  0  0  0  0  0  0  0  0  0  0
   -0.1565    0.1435    4.1154 H   0  0  0  0  0  0  0  0  0  0  0  0
    0.8301   -1.2901    3.7557 H   0  0  0  0  0  0  0  0  0  0  0  0
  1  2  1  0  0  0  0
  2  3  1  0  0  0  0
  2  4  1  0  0  0  0
  2  5  1  0  0  0  0
  5  6  2  0  0  0  0
  5  7  1  0  0  0  0
  7  8  1  0  0  0  0
  7  9  1  0  0  0  0
  9 10  1  0  0  0  0
  9 11  1  0  0  0  0
  9 24  1  0  0  0  0
 11 12  1  0  0  0  0
 11 13  1  0  0  0  0
 11 17  1  0  0  0  0
 13 14  1  0  0  0  0
 13 15  1  0  0  0  0
 13 16  1  0  0  0  0
 17 18  1  0  0  0  0
 17 19  1  0  0  0  0
 17 20  1  0  0  0  0
 20 21  1  0  0  0  0
 20 22  1  0  0  0  0
 20 23  1  0  0  0  0
 24 25  2  0  0  0  0
 24 26  1  0  0  0  0
 26 27  1  0  0  0  0
 26 28  1  0  0  0  0
 28 29  1  0  0  0  0
 28 30  1  0  0  0  0
 28 31  1  0  0  0  0
M  END
$$$$

  -OEChem-03222214053D

 31 30  0     1  0  0  0  0  0999 V2000
   -2.6267   -4.1846    0.4715 H   0  0  0  0  0  0  0  0  0  0  0  0
   -2.5891   -3.1698    0.0650 C   0  0  0  0  0  0  0  0  0  0  0  0
   -3.2574   -2.5327    0.6489 H   0  0  0  0  0  0  0  0  0  0  0  0
   -2.9321   -3.1951   -0.9719 H   0  0  0  0  0  0  0  0  0  0  0  0
   -1.1711   -2.6334    0.1308 C   0  0  0  0  0  0  0  0  0  0  0  0
   -0.2878   -3.3281    0.5968 O   0  0  0  0  0  0  0  0  0  0  0  0
   -0.8998   -1.3711   -0.3637 N   0  0  0  0  0  0  0  0  0  0  0  0
   -1.6637   -0.9027   -0.8388 H   0  0  0  0  0  0  0  0  0  0  0  0
    0.4405   -0.7413   -0.4178 C   0  0  1  0  0  0  0  0  0  0  0  0
    1.1300   -1.3943   -0.9647 H   0  0  0  0  0  0  0  0  0  0  0  0
    0.3108    0.6113   -1.2272 C   0  0  1  0  0  0  0  0  0  0  0  0
    0.1960    0.3196   -2.2770 H   0  0  0  0  0  0  0  0  0  0  0  0
   -0.9814    1.3804   -0.8383 C   0  0  0  0  0  0  0  0  0  0  0  0
   -0.9610    1.6513    0.2218 H   0  0  0  0  0  0  0  0  0  0  0  0
   -1.0779    2.2986   -1.4267 H   0  0  0  0  0  0  0  0  0  0  0  0
   -1.8855    0.8001   -1.0370 H   0  0  0  0  0  0  0  0  0  0  0  0
    1.4529    1.6906   -1.1901 C   0  0  0  0  0  0  0  0  0  0  0  0
    1.9653    1.6252   -2.1556 H   0  0  0  0  0  0  0  0  0  0  0  0
    1.0254    2.6972   -1.1448 H   0  0  0  0  0  0  0  0  0  0  0  0
    2.5522    1.6415   -0.1324 C   0  0  0  0  0  0  0  0  0  0  0  0
    3.1304    0.7176   -0.2176 H   0  0  0  0  0  0  0  0  0  0  0  0
    3.2428    2.4764   -0.2845 H   0  0  0  0  0  0  0  0  0  0  0  0
    2.1366    1.7359    0.8746 H   0  0  0  0  0  0  0  0  0  0  0  0
    0.9951   -0.6362    1.0278 C   0  0  0  0  0  0  0  0  0  0  0  0
    2.1293   -1.0127    1.2947 O   0  0  0  0  0  0  0  0  0  0  0  0
    0.1856   -0.1852    2.0565 N   0  0  0  0  0  0  0  0  0  0  0  0
   -0.7922   -0.0461    1.8286 H   0  0  0  0  0  0  0  0  0  0  0  0
    0.5803   -0.2481    3.4580 C   0  0  0  0  0  0  0  0  0  0  0  0
    1.4949    0.3307    3.6247 H   0  0  0  0  0  0  0  0  0  0  0  0
   -0.2093    0.1650    4.0927 H   0  0  0  0  0  0  0  0  0  0  0  0
    0.7610   -1.2860    3.7574 H   0  0  0  0  0  0  0  0  0  0  0  0
  1  2  1  0  0  0  0
  2  3  1  0  0  0  0
  2  4  1  0  0  0  0
  2  5  1  0  0  0  0
  5  6  2  0  0  0  0
  5  7  1  0  0  0  0
  7  8  1  0  0  0  0
  7  9  1  0  0  0  0
  9 10  1  0  0  0  0
  9 11  1  0  0  0  0
  9 24  1  0  0  0  0
 11 12  1  0  0  0  0
 11 13  1  0  0  0  0
 11 17  1  0  0  0  0
 13 14  1  0  0  0  0
 13 15  1  0  0  0  0
 13 16  1  0  0  0  0
 17 18  1  0  0  0  0
 17 19  1  0  0  0  0
 17 20  1  0  0  0  0
 20 21  1  0  0  0  0
 20 22  1  0  0  0  0
 20 23  1  0  0  0  0
 24 25  2  0  0  0  0
 24 26  1  0  0  0  0
 26 27  1  0  0  0  0
 26 28  1  0  0  0  0
 28 29  1  0  0  0  0
 28 30  1  0  0  0  0
 28 31  1  0  0  0  0
M  END
$$$$

  -OEChem-03222214053D

 31 30  0     1  0  0  0  0  0999 V2000
   -2.6157   -4.1815    0.4914 H   0  0  0  0  0  0  0  0  0  0  0  0
   -2.5806   -3.1694    0.0779 C   0  0  0  0  0  0  0  0  0  0  0  0
   -3.2481   -2.5295    0.6596 H   0  0  0  0  0  0  0  0  0  0  0  0
   -2.9264   -3.2020   -0.9580 H   0  0  0  0  0  0  0  0  0  0  0  0
   -1.1632   -2.6312    0.1367 C   0  0  0  0  0  0  0  0  0  0  0  0
   -0.2791   -3.3212    0.6079 O   0  0  0  0  0  0  0  0  0  0  0  0
   -0.8932   -1.3727   -0.3684 N   0  0  0  0  0  0  0  0  0  0  0  0
   -1.6584   -0.9063   -0.8432 H   0  0  0  0  0  0  0  0  0  0  0  0
    0.4468   -0.7434   -0.4287 C   0  0  1  0  0  0  0  0  0  0  0  0
    1.1359   -1.3933   -0.9795 H   0  0  0  0  0  0  0  0  0  0  0  0
    0.3059    0.6143   -1.2221 C   0  0  1  0  0  0  0  0  0  0  0  0
    0.2092    0.3179   -2.2722 H   0  0  0  0  0  0  0  0  0  0  0  0
   -0.9955    1.3769   -0.8603 C   0  0  0  0  0  0  0  0  0  0  0  0
   -1.0129    1.6236    0.2058 H   0  0  0  0  0  0  0  0  0  0  0  0
   -1.0640    2.3095   -1.4303 H   0  0  0  0  0  0  0  0  0  0  0  0
   -1.8915    0.8008   -1.1041 H   0  0  0  0  0  0  0  0  0  0  0  0
    1.4482    1.6901   -1.1831 C   0  0  0  0  0  0  0  0  0  0  0  0
    1.7610    1.8506   -2.2201 H   0  0  0  0  0  0  0  0  0  0  0  0
    1.0550    2.6485   -0.8284 H   0  0  0  0  0  0  0  0  0  0  0  0
    2.7194    1.4352   -0.3761 C   0  0  0  0  0  0  0  0  0  0  0  0
    3.1466    0.4584   -0.6215 H   0  0  0  0  0  0  0  0  0  0  0  0
    3.4660    2.1978   -0.6169 H   0  0  0  0  0  0  0  0  0  0  0  0
    2.5227    1.4995    0.6974 H   0  0  0  0  0  0  0  0  0  0  0  0
    1.0051   -0.6255    1.0151 C   0  0  0  0  0  0  0  0  0  0  0  0
    2.1368   -1.0078    1.2847 O   0  0  0  0  0  0  0  0  0  0  0  0
    0.1969   -0.1654    2.0406 N   0  0  0  0  0  0  0  0  0  0  0  0
   -0.7802   -0.0254    1.8107 H   0  0  0  0  0  0  0  0  0  0  0  0
    0.5874   -0.2293    3.4431 C   0  0  0  0  0  0  0  0  0  0  0  0
    1.5100    0.3363    3.6106 H   0  0  0  0  0  0  0  0  0  0  0  0
   -0.1974    0.1979    4.0744 H   0  0  0  0  0  0  0  0  0  0  0  0
    0.7514   -1.2689    3.7464 H   0  0  0  0  0  0  0  0  0  0  0  0
  1  2  1  0  0  0  0
  2  3  1  0  0  0  0
  2  4  1  0  0  0  0
  2  5  1  0  0  0  0
  5  6  2  0  0  0  0
  5  7  1  0  0  0  0
  7  8  1  0  0  0  0
  7  9  1  0  0  0  0
  9 10  1  0  0  0  0
  9 11  1  0  0  0  0
  9 24  1  0  0  0  0
 11 12  1  0  0  0  0
 11 13  1  0  0  0  0
 11 17  1  0  0  0  0
 13 14  1  0  0  0  0
 13 15  1  0  0  0  0
 13 16  1  0  0  0  0
 17 18  1  0  0  0  0
 17 19  1  0  0  0  0
 17 20  1  0  0  0  0
 20 21  1  0  0  0  0
 20 22  1  0  0  0  0
 20 23  1  0  0  0  0
 24 25  2  0  0  0  0
 24 26  1  0  0  0  0
 26 27  1  0  0  0  0
 26 28  1  0  0  0  0
 28 29  1  0  0  0  0
 28 30  1  0  0  0  0
 28 31  1  0  0  0  0
M  END
$$$$

  -OEChem-03222214053D

 31 30  0     1  0  0  0  0  0999 V2000
   -2.5639   -4.2092    0.5216 H   0  0  0  0  0  0  0  0  0  0  0  0
   -2.5480   -3.1978    0.1049 C   0  0  0  0  0  0  0  0  0  0  0  0
   -3.2179   -2.5655    0.6925 H   0  0  0  0  0  0  0  0  0  0  0  0
   -2.9049   -3.2384   -0.9271 H   0  0  0  0  0  0  0  0  0  0  0  0
   -1.1377   -2.6396    0.1453 C   0  0  0  0  0  0  0  0  0  0  0  0
   -0.2375   -3.3160    0.6058 O   0  0  0  0  0  0  0  0  0  0  0  0
   -0.8915   -1.3792   -0.3662 N   0  0  0  0  0  0  0  0  0  0  0  0
   -1.6691   -0.9226   -0.8307 H   0  0  0  0  0  0  0  0  0  0  0  0
    0.4395   -0.7350   -0.4456 C   0  0  1  0  0  0  0  0  0  0  0  0
    1.1256   -1.3742   -1.0124 H   0  0  0  0  0  0  0  0  0  0  0  0
    0.2656    0.6236   -1.2210 C   0  0  1  0  0  0  0  0  0  0  0  0
    0.1696    0.3302   -2.2721 H   0  0  0  0  0  0  0  0  0  0  0  0
   -1.0365    1.3742   -0.8485 C   0  0  0  0  0  0  0  0  0  0  0  0
   -1.0694    1.5819    0.2253 H   0  0  0  0  0  0  0  0  0  0  0  0
   -1.0911    2.3281   -1.3837 H   0  0  0  0  0  0  0  0  0  0  0  0
   -1.9273    0.8043   -1.1256 H   0  0  0  0  0  0  0  0  0  0  0  0
    1.4001    1.6984   -1.1824 C   0  0  0  0  0  0  0  0  0  0  0  0
    1.5064    2.0889   -2.2000 H   0  0  0  0  0  0  0  0  0  0  0  0
    1.0947    2.5404   -0.5518 H   0  0  0  0  0  0  0  0  0  0  0  0
    2.7911    1.2895   -0.6977 C   0  0  0  0  0  0  0  0  0  0  0  0
    3.0646    0.2998   -1.0761 H   0  0  0  0  0  0  0  0  0  0  0  0
    2.8428    1.2964    0.3937 H   0  0  0  0  0  0  0  0  0  0  0  0
    3.5318    2.0084   -1.0606 H   0  0  0  0  0  0  0  0  0  0  0  0
    1.0311   -0.5992    0.9828 C   0  0  0  0  0  0  0  0  0  0  0  0
    2.1720   -0.9697    1.2278 O   0  0  0  0  0  0  0  0  0  0  0  0
    0.2423   -0.1417    2.0243 N   0  0  0  0  0  0  0  0  0  0  0  0
   -0.7421   -0.0166    1.8175 H   0  0  0  0  0  0  0  0  0  0  0  0
    0.6674   -0.1902    3.4174 C   0  0  0  0  0  0  0  0  0  0  0  0
    1.5851    0.3904    3.5581 H   0  0  0  0  0  0  0  0  0  0  0  0
   -0.1085    0.2295    4.0644 H   0  0  0  0  0  0  0  0  0  0  0  0
    0.8545   -1.2248    3.7240 H   0  0  0  0  0  0  0  0  0  0  0  0
  1  2  1  0  0  0  0
  2  3  1  0  0  0  0
  2  4  1  0  0  0  0
  2  5  1  0  0  0  0
  5  6  2  0  0  0  0
  5  7  1  0  0  0  0
  7  8  1  0  0  0  0
  7  9  1  0  0  0  0
  9 10  1  0  0  0  0
  9 11  1  0  0  0  0
  9 24  1  0  0  0  0
 11 12  1  0  0  0  0
 11 13  1  0  0  0  0
 11 17  1  0  0  0  0
 13 14  1  0  0  0  0
 13 15  1  0  0  0  0
 13 16  1  0  0  0  0
 17 18  1  0  0  0  0
 17 19  1  0  0  0  0
 17 20  1  0  0  0  0
 20 21  1  0  0  0  0
 20 22  1  0  0  0  0
 20 23  1  0  0  0  0
 24 25  2  0  0  0  0
 24 26  1  0  0  0  0
 26 27  1  0  0  0  0
 26 28  1  0  0  0  0
 28 29  1  0  0  0  0
 28 30  1  0  0  0  0
 28 31  1  0  0  0  0
M  END
$$$$

  -OEChem-03222214053D

 31 30  0     1  0  0  0  0  0999 V2000
   -2.5836   -4.1865    0.5606 H   0  0  0  0  0  0  0  0  0  0  0  0
   -2.5644   -3.1806    0.1310 C   0  0  0  0  0  0  0  0  0  0  0  0
   -3.2395   -2.5408    0.7042 H   0  0  0  0  0  0  0  0  0  0  0  0
   -2.9119   -3.2347   -0.9035 H   0  0  0  0  0  0  0  0  0  0  0  0
   -1.1550   -2.6209    0.1774 C   0  0  0  0  0  0  0  0  0  0  0  0
   -0.2623   -3.2828    0.6724 O   0  0  0  0  0  0  0  0  0  0  0  0
   -0.9007   -1.3749   -0.3641 N   0  0  0  0  0  0  0  0  0  0  0  0
   -1.6713   -0.9289   -0.8504 H   0  0  0  0  0  0  0  0  0  0  0  0
    0.4332   -0.7388   -0.4477 C   0  0  1  0  0  0  0  0  0  0  0  0
    1.1170   -1.3942   -0.9983 H   0  0  0  0  0  0  0  0  0  0  0  0
    0.2716    0.6052   -1.2431 C   0  0  1  0  0  0  0  0  0  0  0  0
    0.1810    0.3044   -2.2924 H   0  0  0  0  0  0  0  0  0  0  0  0
   -1.0150    1.3842   -0.8825 C   0  0  0  0  0  0  0  0  0  0  0  0
   -1.0511    1.5988    0.1896 H   0  0  0  0  0  0  0  0  0  0  0  0
   -1.0457    2.3365   -1.4223 H   0  0  0  0  0  0  0  0  0  0  0  0
   -1.9143    0.8286   -1.1617 H   0  0  0  0  0  0  0  0  0  0  0  0
    1.4261    1.6471   -1.1927 C   0  0  0  0  0  0  0  0  0  0  0  0
    1.3902    2.2238   -2.1231 H   0  0  0  0  0  0  0  0  0  0  0  0
    1.2520    2.3506   -0.3712 H   0  0  0  0  0  0  0  0  0  0  0  0
    2.8498    1.1097   -1.0227 C   0  0  0  0  0  0  0  0  0  0  0  0
    2.9708    0.1463   -1.5271 H   0  0  0  0  0  0  0  0  0  0  0  0
    3.1087    1.0051    0.0324 H   0  0  0  0  0  0  0  0  0  0  0  0
    3.5629    1.8153   -1.4597 H   0  0  0  0  0  0  0  0  0  0  0  0
    1.0278   -0.5617    0.9752 C   0  0  0  0  0  0  0  0  0  0  0  0
    2.1702   -0.9206    1.2280 O   0  0  0  0  0  0  0  0  0  0  0  0
    0.2432   -0.0705    2.0045 N   0  0  0  0  0  0  0  0  0  0  0  0
   -0.7433    0.0396    1.7997 H   0  0  0  0  0  0  0  0  0  0  0  0
    0.6744   -0.0786    3.3966 C   0  0  0  0  0  0  0  0  0  0  0  0
    1.5930    0.5055    3.5166 H   0  0  0  0  0  0  0  0  0  0  0  0
   -0.0981    0.3599    4.0353 H   0  0  0  0  0  0  0  0  0  0  0  0
    0.8631   -1.1040    3.7321 H   0  0  0  0  0  0  0  0  0  0  0  0
  1  2  1  0  0  0  0
  2  3  1  0  0  0  0
  2  4  1  0  0  0  0
  2  5  1  0  0  0  0
  5  6  2  0  0  0  0
  5  7  1  0  0  0  0
  7  8  1  0  0  0  0
  7  9  1  0  0  0  0
  9 10  1  0  0  0  0
  9 11  1  0  0  0  0
  9 24  1  0  0  0  0
 11 12  1  0  0  0  0
 11 13  1  0  0  0  0
 11 17  1  0  0  0  0
 13 14  1  0  0  0  0
 13 15  1  0  0  0  0
 13 16  1  0  0  0  0
 17 18  1  0  0  0  0
 17 19  1  0  0  0  0
 17 20  1  0  0  0  0
 20 21  1  0  0  0  0
 20 22  1  0  0  0  0
 20 23  1  0  0  0  0
 24 25  2  0  0  0  0
 24 26  1  0  0  0  0
 26 27  1  0  0  0  0
 26 28  1  0  0  0  0
 28 29  1  0  0  0  0
 28 30  1  0  0  0  0
 28 31  1  0  0  0  0
M  END
$$$$

  -OEChem-03222214053D

 31 30  0     1  0  0  0  0  0999 V2000
   -2.5505   -4.1884    0.5115 H   0  0  0  0  0  0  0  0  0  0  0  0
   -2.5345   -3.1862    0.0735 C   0  0  0  0  0  0  0  0  0  0  0  0
   -3.2183   -2.5460    0.6359 H   0  0  0  0  0  0  0  0  0  0  0  0
   -2.8736   -3.2511   -0.9631 H   0  0  0  0  0  0  0  0  0  0  0  0
   -1.1291   -2.6173    0.1251 C   0  0  0  0  0  0  0  0  0  0  0  0
   -0.2313   -3.2756    0.6157 O   0  0  0  0  0  0  0  0  0  0  0  0
   -0.8835   -1.3646   -0.4043 N   0  0  0  0  0  0  0  0  0  0  0  0
   -1.6564   -0.9195   -0.8880 H   0  0  0  0  0  0  0  0  0  0  0  0
    0.4444   -0.7158   -0.4763 C   0  0  1  0  0  0  0  0  0  0  0  0
    1.1402   -1.3513   -1.0354 H   0  0  0  0  0  0  0  0  0  0  0  0
    0.2716    0.6452   -1.2349 C   0  0  1  0  0  0  0  0  0  0  0  0
    0.1681    0.3856   -2.2940 H   0  0  0  0  0  0  0  0  0  0  0  0
   -1.0010    1.4235   -0.8280 C   0  0  0  0  0  0  0  0  0  0  0  0
   -1.0053    1.6316    0.2459 H   0  0  0  0  0  0  0  0  0  0  0  0
   -1.0465    2.3799   -1.3591 H   0  0  0  0  0  0  0  0  0  0  0  0
   -1.9094    0.8714   -1.0833 H   0  0  0  0  0  0  0  0  0  0  0  0
    1.4391    1.6609   -1.1365 C   0  0  0  0  0  0  0  0  0  0  0  0
    1.2857    2.4360   -1.8946 H   0  0  0  0  0  0  0  0  0  0  0  0
    1.4203    2.1519   -0.1575 H   0  0  0  0  0  0  0  0  0  0  0  0
    2.8381    1.0673   -1.3394 C   0  0  0  0  0  0  0  0  0  0  0  0
    2.8469    0.4001   -2.2066 H   0  0  0  0  0  0  0  0  0  0  0  0
    3.5544    1.8744   -1.5200 H   0  0  0  0  0  0  0  0  0  0  0  0
    3.1867    0.5155   -0.4687 H   0  0  0  0  0  0  0  0  0  0  0  0
    1.0237   -0.5497    0.9568 C   0  0  0  0  0  0  0  0  0  0  0  0
    2.1742   -0.8710    1.2206 O   0  0  0  0  0  0  0  0  0  0  0  0
    0.2214   -0.0776    1.9818 N   0  0  0  0  0  0  0  0  0  0  0  0
   -0.7655    0.0122    1.7688 H   0  0  0  0  0  0  0  0  0  0  0  0
    0.6404   -0.0793    3.3778 C   0  0  0  0  0  0  0  0  0  0  0  0
    1.5477    0.5202    3.5065 H   0  0  0  0  0  0  0  0  0  0  0  0
   -0.1453    0.3452    4.0097 H   0  0  0  0  0  0  0  0  0  0  0  0
    0.8431   -1.1018    3.7137 H   0  0  0  0  0  0  0  0  0  0  0  0
  1  2  1  0  0  0  0
  2  3  1  0  0  0  0
  2  4  1  0  0  0  0
  2  5  1  0  0  0  0
  5  6  2  0  0  0  0
  5  7  1  0  0  0  0
  7  8  1  0  0  0  0
  7  9  1  0  0  0  0
  9 10  1  0  0  0  0
  9 11  1  0  0  0  0
  9 24  1  0  0  0  0
 11 12  1  0  0  0  0
 11 13  1  0  0  0  0
 11 17  1  0  0  0  0
 13 14  1  0  0  0  0
 13 15  1  0  0  0  0
 13 16  1  0  0  0  0
 17 18  1  0  0  0  0
 17 19  1  0  0  0  0
 17 20  1  0  0  0  0
 20 21  1  0  0  0  0
 20 22  1  0  0  0  0
 20 23  1  0  0  0  0
 24 25  2  0  0  0  0
 24 26  1  0  0  0  0
 26 27  1  0  0  0  0
 26 28  1  0  0  0  0
 28 29  1  0  0  0  0
 28 30  1  0  0  0  0
 28 31  1  0  0  0  0
M  END
$$$$

  -OEChem-03222214053D

 31 30  0     1  0  0  0  0  0999 V2000
   -2.5002   -4.2493    0.4318 H   0  0  0  0  0  0  0  0  0  0  0  0
   -2.5151   -3.2324    0.0293 C   0  0  0  0  0  0  0  0  0  0  0  0
   -3.2130   -2.6323    0.6177 H   0  0  0  0  0  0  0  0  0  0  0  0
   -2.8594   -3.2708   -1.0069 H   0  0  0  0  0  0  0  0  0  0  0  0
   -1.1253   -2.6268    0.0940 C   0  0  0  0  0  0  0  0  0  0  0  0
   -0.2137   -3.2616    0.5910 O   0  0  0  0  0  0  0  0  0  0  0  0
   -0.9083   -1.3618   -0.4178 N   0  0  0  0  0  0  0  0  0  0  0  0
   -1.6874   -0.9293   -0.9033 H   0  0  0  0  0  0  0  0  0  0  0  0
    0.4072   -0.6895   -0.4829 C   0  0  1  0  0  0  0  0  0  0  0  0
    1.1025   -1.3224   -1.0453 H   0  0  0  0  0  0  0  0  0  0  0  0
    0.2458    0.6677   -1.2466 C   0  0  1  0  0  0  0  0  0  0  0  0
    0.1436    0.4284   -2.3106 H   0  0  0  0  0  0  0  0  0  0  0  0
   -1.0170    1.4510   -0.8244 C   0  0  0  0  0  0  0  0  0  0  0  0
   -1.0027    1.6641    0.2483 H   0  0  0  0  0  0  0  0  0  0  0  0
   -1.0691    2.4045   -1.3597 H   0  0  0  0  0  0  0  0  0  0  0  0
   -1.9296    0.8976   -1.0613 H   0  0  0  0  0  0  0  0  0  0  0  0
    1.4364    1.6450   -1.0928 C   0  0  0  0  0  0  0  0  0  0  0  0
    1.2284    2.5599   -1.6572 H   0  0  0  0  0  0  0  0  0  0  0  0
    1.5586    1.9326   -0.0434 H   0  0  0  0  0  0  0  0  0  0  0  0
    2.7567    1.0631   -1.6118 C   0  0  0  0  0  0  0  0  0  0  0  0
    2.6647    0.8045   -2.6710 H   0  0  0  0  0  0  0  0  0  0  0  0
    3.5540    1.8048   -1.5057 H   0  0  0  0  0  0  0  0  0  0  0  0
    3.0547    0.1668   -1.0648 H   0  0  0  0  0  0  0  0  0  0  0  0
    1.0132   -0.5215    0.9379 C   0  0  0  0  0  0  0  0  0  0  0  0
    2.2072   -0.6968    1.1405 O   0  0  0  0  0  0  0  0  0  0  0  0
    0.2243   -0.0728    1.9830 N   0  0  0  0  0  0  0  0  0  0  0  0
   -0.7752   -0.0605    1.8139 H   0  0  0  0  0  0  0  0  0  0  0  0
    0.7065    0.0169    3.3553 C   0  0  0  0  0  0  0  0  0  0  0  0
    1.5625    0.6971    3.4180 H   0  0  0  0  0  0  0  0  0  0  0  0
   -0.0832    0.3969    4.0103 H   0  0  0  0  0  0  0  0  0  0  0  0
    1.0141   -0.9702    3.7168 H   0  0  0  0  0  0  0  0  0  0  0  0
  1  2  1  0  0  0  0
  2  3  1  0  0  0  0
  2  4  1  0  0  0  0
  2  5  1  0  0  0  0
  5  6  2  0  0  0  0
  5  7  1  0  0  0  0
  7  8  1  0  0  0  0
  7  9  1  0  0  0  0
  9 10  1  0  0  0  0
  9 11  1  0  0  0  0
  9 24  1  0  0  0  0
 11 12  1  0  0  0  0
 11 13  1  0  0  0  0
 11 17  1  0  0  0  0
 13 14  1  0  0  0  0
 13 15  1  0  0  0  0
 13 16  1  0  0  0  0
 17 18  1  0  0  0  0
 17 19  1  0  0  0  0
 17 20  1  0  0  0  0
 20 21  1  0  0  0  0
 20 22  1  0  0  0  0
 20 23  1  0  0  0  0
 24 25  2  0  0  0  0
 24 26  1  0  0  0  0
 26 27  1  0  0  0  0
 26 28  1  0  0  0  0
 28 29  1  0  0  0  0
 28 30  1  0  0  0  0
 28 31  1  0  0  0  0
M  END
$$$$

  -OEChem-03222214053D

 31 30  0     1  0  0  0  0  0999 V2000
   -2.4811   -4.2733    0.3745 H   0  0  0  0  0  0  0  0  0  0  0  0
   -2.5069   -3.2537   -0.0208 C   0  0  0  0  0  0  0  0  0  0  0  0
   -3.2284   -2.6711    0.5568 H   0  0  0  0  0  0  0  0  0  0  0  0
   -2.8281   -3.2902   -1.0645 H   0  0  0  0  0  0  0  0  0  0  0  0
   -1.1314   -2.6216    0.0773 C   0  0  0  0  0  0  0  0  0  0  0  0
   -0.2151   -3.2443    0.5814 O   0  0  0  0  0  0  0  0  0  0  0  0
   -0.9322   -1.3447   -0.4109 N   0  0  0  0  0  0  0  0  0  0  0  0
   -1.7121   -0.9206   -0.9026 H   0  0  0  0  0  0  0  0  0  0  0  0
    0.3762   -0.6589   -0.4665 C   0  0  1  0  0  0  0  0  0  0  0  0
    1.0695   -1.2948   -1.0280 H   0  0  0  0  0  0  0  0  0  0  0  0
    0.2315    0.6845   -1.2573 C   0  0  1  0  0  0  0  0  0  0  0  0
    0.1318    0.4427   -2.3210 H   0  0  0  0  0  0  0  0  0  0  0  0
   -1.0315    1.4697   -0.8382 C   0  0  0  0  0  0  0  0  0  0  0  0
   -1.0104    1.6940    0.2326 H   0  0  0  0  0  0  0  0  0  0  0  0
   -1.0922    2.4162   -1.3847 H   0  0  0  0  0  0  0  0  0  0  0  0
   -1.9440    0.9112   -1.0627 H   0  0  0  0  0  0  0  0  0  0  0  0
    1.4288    1.6515   -1.0754 C   0  0  0  0  0  0  0  0  0  0  0  0
    1.1600    2.6410   -1.4591 H   0  0  0  0  0  0  0  0  0  0  0  0
    1.6893    1.7865   -0.0218 H   0  0  0  0  0  0  0  0  0  0  0  0
    2.6480    1.1787   -1.8693 C   0  0  0  0  0  0  0  0  0  0  0  0
    2.4060    1.0926   -2.9330 H   0  0  0  0  0  0  0  0  0  0  0  0
    3.4672    1.8952   -1.7567 H   0  0  0  0  0  0  0  0  0  0  0  0
    2.9919    0.2050   -1.5075 H   0  0  0  0  0  0  0  0  0  0  0  0
    1.0084   -0.4993    0.9403 C   0  0  0  0  0  0  0  0  0  0  0  0
    2.2180   -0.6163    1.0912 O   0  0  0  0  0  0  0  0  0  0  0  0
    0.2388   -0.0718    2.0078 N   0  0  0  0  0  0  0  0  0  0  0  0
   -0.7657   -0.0995    1.8725 H   0  0  0  0  0  0  0  0  0  0  0  0
    0.7627    0.0363    3.3633 C   0  0  0  0  0  0  0  0  0  0  0  0
    1.6024    0.7385    3.3955 H   0  0  0  0  0  0  0  0  0  0  0  0
   -0.0150    0.3988    4.0420 H   0  0  0  0  0  0  0  0  0  0  0  0
    1.1069   -0.9410    3.7180 H   0  0  0  0  0  0  0  0  0  0  0  0
  1  2  1  0  0  0  0
  2  3  1  0  0  0  0
  2  4  1  0  0  0  0
  2  5  1  0  0  0  0
  5  6  2  0  0  0  0
  5  7  1  0  0  0  0
  7  8  1  0  0  0  0
  7  9  1  0  0  0  0
  9 10  1  0  0  0  0
  9 11  1  0  0  0  0
  9 24  1  0  0  0  0
 11 12  1  0  0  0  0
 11 13  1  0  0  0  0
 11 17  1  0  0  0  0
 13 14  1  0  0  0  0
 13 15  1  0  0  0  0
 13 16  1  0  0  0  0
 17 18  1  0  0  0  0
 17 19  1  0  0  0  0
 17 20  1  0  0  0  0
 20 21  1  0  0  0  0
 20 22  1  0  0  0  0
 20 23  1  0  0  0  0
 24 25  2  0  0  0  0
 24 26  1  0  0  0  0
 26 27  1  0  0  0  0
 26 28  1  0  0  0  0
 28 29  1  0  0  0  0
 28 30  1  0  0  0  0
 28 31  1  0  0  0  0
M  END
$$$$

  -OEChem-03222214053D

 31 30  0     1  0  0  0  0  0999 V2000
   -2.4781   -4.2667    0.3716 H   0  0  0  0  0  0  0  0  0  0  0  0
   -2.5022   -3.2471   -0.0241 C   0  0  0  0  0  0  0  0  0  0  0  0
   -3.2269   -2.6646    0.5495 H   0  0  0  0  0  0  0  0  0  0  0  0
   -2.8178   -3.2841   -1.0695 H   0  0  0  0  0  0  0  0  0  0  0  0
   -1.1272   -2.6144    0.0813 C   0  0  0  0  0  0  0  0  0  0  0  0
   -0.2130   -3.2393    0.5862 O   0  0  0  0  0  0  0  0  0  0  0  0
   -0.9259   -1.3362   -0.4035 N   0  0  0  0  0  0  0  0  0  0  0  0
   -1.7037   -0.9133   -0.8996 H   0  0  0  0  0  0  0  0  0  0  0  0
    0.3837   -0.6511   -0.4574 C   0  0  1  0  0  0  0  0  0  0  0  0
    1.0795   -1.2862   -1.0170 H   0  0  0  0  0  0  0  0  0  0  0  0
    0.2400    0.6909   -1.2554 C   0  0  1  0  0  0  0  0  0  0  0  0
    0.1310    0.4427   -2.3167 H   0  0  0  0  0  0  0  0  0  0  0  0
   -1.0286    1.4704   -0.8375 C   0  0  0  0  0  0  0  0  0  0  0  0
   -0.9992    1.7133    0.2292 H   0  0  0  0  0  0  0  0  0  0  0  0
   -1.1050    2.4061   -1.4007 H   0  0  0  0  0  0  0  0  0  0  0  0
   -1.9389    0.9017   -1.0439 H   0  0  0  0  0  0  0  0  0  0  0  0
    1.4356    1.6697   -1.0810 C   0  0  0  0  0  0  0  0  0  0  0  0
    1.0994    2.7019   -1.2220 H   0  0  0  0  0  0  0  0  0  0  0  0
    1.8765    1.6299   -0.0830 H   0  0  0  0  0  0  0  0  0  0  0  0
    2.5055    1.4061   -2.1407 C   0  0  0  0  0  0  0  0  0  0  0  0
    2.0953    1.5385   -3.1466 H   0  0  0  0  0  0  0  0  0  0  0  0
    3.3395    2.1027   -2.0124 H   0  0  0  0  0  0  0  0  0  0  0  0
    2.8900    0.3855   -2.0476 H   0  0  0  0  0  0  0  0  0  0  0  0
    1.0088   -0.4996    0.9533 C   0  0  0  0  0  0  0  0  0  0  0  0
    2.2156   -0.6357    1.1110 O   0  0  0  0  0  0  0  0  0  0  0  0
    0.2356   -0.0762    2.0198 N   0  0  0  0  0  0  0  0  0  0  0  0
   -0.7681   -0.0916    1.8772 H   0  0  0  0  0  0  0  0  0  0  0  0
    0.7509    0.0157    3.3799 C   0  0  0  0  0  0  0  0  0  0  0  0
    1.5952    0.7117    3.4242 H   0  0  0  0  0  0  0  0  0  0  0  0
   -0.0290    0.3775    4.0566 H   0  0  0  0  0  0  0  0  0  0  0  0
    1.0857   -0.9673    3.7280 H   0  0  0  0  0  0  0  0  0  0  0  0
  1  2  1  0  0  0  0
  2  3  1  0  0  0  0
  2  4  1  0  0  0  0
  2  5  1  0  0  0  0
  5  6  2  0  0  0  0
  5  7  1  0  0  0  0
  7  8  1  0  0  0  0
  7  9  1  0  0  0  0
  9 10  1  0  0  0  0
  9 11  1  0  0  0  0
  9 24  1  0  0  0  0
 11 12  1  0  0  0  0
 11 13  1  0  0  0  0
 11 17  1  0  0  0  0
 13 14  1  0  0  0  0
 13 15  1  0  0  0  0
 13 16  1  0  0  0  0
 17 18  1  0  0  0  0
 17 19  1  0  0  0  0
 17 20  1  0  0  0  0
 20 21  1  0  0  0  0
 20 22  1  0  0  0  0
 20 23  1  0  0  0  0
 24 25  2  0  0  0  0
 24 26  1  0  0  0  0
 26 27  1  0  0  0  0
 26 28  1  0  0  0  0
 28 29  1  0  0  0  0
 28 30  1  0  0  0  0
 28 31  1  0  0  0  0
M  END
$$$$

  -OEChem-03222214053D

 31 30  0     1  0  0  0  0  0999 V2000
   -2.4818   -4.2467    0.3913 H   0  0  0  0  0  0  0  0  0  0  0  0
   -2.5009   -3.2250    0.0010 C   0  0  0  0  0  0  0  0  0  0  0  0
   -3.2073   -2.6364    0.5913 H   0  0  0  0  0  0  0  0  0  0  0  0
   -2.8371   -3.2526   -1.0382 H   0  0  0  0  0  0  0  0  0  0  0  0
   -1.1163   -2.6101    0.0830 C   0  0  0  0  0  0  0  0  0  0  0  0
   -0.2028   -3.2448    0.5767 O   0  0  0  0  0  0  0  0  0  0  0  0
   -0.9072   -1.3347   -0.4055 N   0  0  0  0  0  0  0  0  0  0  0  0
   -1.6871   -0.9019   -0.8895 H   0  0  0  0  0  0  0  0  0  0  0  0
    0.4045   -0.6530   -0.4582 C   0  0  1  0  0  0  0  0  0  0  0  0
    1.1043   -1.2845   -1.0172 H   0  0  0  0  0  0  0  0  0  0  0  0
    0.2543    0.6932   -1.2483 C   0  0  1  0  0  0  0  0  0  0  0  0
    0.1484    0.4362   -2.3081 H   0  0  0  0  0  0  0  0  0  0  0  0
   -1.0253    1.4629   -0.8464 C   0  0  0  0  0  0  0  0  0  0  0  0
   -1.0161    1.6980    0.2223 H   0  0  0  0  0  0  0  0  0  0  0  0
   -1.0947    2.4018   -1.4053 H   0  0  0  0  0  0  0  0  0  0  0  0
   -1.9289    0.8915   -1.0739 H   0  0  0  0  0  0  0  0  0  0  0  0
    1.4470    1.6834   -1.0824 C   0  0  0  0  0  0  0  0  0  0  0  0
    1.0847    2.7039   -0.9216 H   0  0  0  0  0  0  0  0  0  0  0  0
    2.0781    1.4480   -0.2249 H   0  0  0  0  0  0  0  0  0  0  0  0
    2.3162    1.6930   -2.3402 C   0  0  0  0  0  0  0  0  0  0  0  0
    1.7321    2.0068   -3.2110 H   0  0  0  0  0  0  0  0  0  0  0  0
    3.1503    2.3899   -2.2139 H   0  0  0  0  0  0  0  0  0  0  0  0
    2.7240    0.6948   -2.5287 H   0  0  0  0  0  0  0  0  0  0  0  0
    1.0142   -0.5044    0.9604 C   0  0  0  0  0  0  0  0  0  0  0  0
    2.2142   -0.6703    1.1400 O   0  0  0  0  0  0  0  0  0  0  0  0
    0.2300   -0.0785    2.0179 N   0  0  0  0  0  0  0  0  0  0  0  0
   -0.7713   -0.0786    1.8588 H   0  0  0  0  0  0  0  0  0  0  0  0
    0.7233   -0.0126    3.3875 C   0  0  0  0  0  0  0  0  0  0  0  0
    1.5782    0.6687    3.4547 H   0  0  0  0  0  0  0  0  0  0  0  0
   -0.0620    0.3532    4.0558 H   0  0  0  0  0  0  0  0  0  0  0  0
    1.0364   -1.0052    3.7283 H   0  0  0  0  0  0  0  0  0  0  0  0
  1  2  1  0  0  0  0
  2  3  1  0  0  0  0
  2  4  1  0  0  0  0
  2  5  1  0  0  0  0
  5  6  2  0  0  0  0
  5  7  1  0  0  0  0
  7  8  1  0  0  0  0
  7  9  1  0  0  0  0
  9 10  1  0  0  0  0
  9 11  1  0  0  0  0
  9 24  1  0  0  0  0
 11 12  1  0  0  0  0
 11 13  1  0  0  0  0
 11 17  1  0  0  0  0
 13 14  1  0  0  0  0
 13 15  1  0  0  0  0
 13 16  1  0  0  0  0
 17 18  1  0  0  0  0
 17 19  1  0  0  0  0
 17 20  1  0  0  0  0
 20 21  1  0  0  0  0
 20 22  1  0  0  0  0
 20 23  1  0  0  0  0
 24 25  2  0  0  0  0
 24 26  1  0  0  0  0
 26 27  1  0  0  0  0
 26 28  1  0  0  0  0
 28 29  1  0  0  0  0
 28 30  1  0  0  0  0
 28 31  1  0  0  0  0
M  END
$$$$

  -OEChem-03222214053D

 31 30  0     1  0  0  0  0  0999 V2000
   -2.4883   -4.2386    0.4083 H   0  0  0  0  0  0  0  0  0  0  0  0
   -2.5027   -3.2203    0.0090 C   0  0  0  0  0  0  0  0  0  0  0  0
   -3.2046   -2.6232    0.5960 H   0  0  0  0  0  0  0  0  0  0  0  0
   -2.8416   -3.2557   -1.0291 H   0  0  0  0  0  0  0  0  0  0  0  0
   -1.1147   -2.6117    0.0824 C   0  0  0  0  0  0  0  0  0  0  0  0
   -0.2014   -3.2509    0.5707 O   0  0  0  0  0  0  0  0  0  0  0  0
   -0.9009   -1.3392   -0.4121 N   0  0  0  0  0  0  0  0  0  0  0  0
   -1.6819   -0.9009   -0.8893 H   0  0  0  0  0  0  0  0  0  0  0  0
    0.4133   -0.6625   -0.4663 C   0  0  1  0  0  0  0  0  0  0  0  0
    1.1129   -1.2900   -1.0298 H   0  0  0  0  0  0  0  0  0  0  0  0
    0.2564    0.6924   -1.2359 C   0  0  1  0  0  0  0  0  0  0  0  0
    0.1610    0.4335   -2.2961 H   0  0  0  0  0  0  0  0  0  0  0  0
   -1.0244    1.4638   -0.8473 C   0  0  0  0  0  0  0  0  0  0  0  0
   -1.0414    1.6729    0.2266 H   0  0  0  0  0  0  0  0  0  0  0  0
   -1.0672    2.4171   -1.3841 H   0  0  0  0  0  0  0  0  0  0  0  0
   -1.9256    0.9043   -1.1117 H   0  0  0  0  0  0  0  0  0  0  0  0
    1.4535    1.6739   -1.0663 C   0  0  0  0  0  0  0  0  0  0  0  0
    1.1371    2.6050   -0.5843 H   0  0  0  0  0  0  0  0  0  0  0  0
    2.2412    1.2499   -0.4417 H   0  0  0  0  0  0  0  0  0  0  0  0
    2.0907    1.9944   -2.4194 C   0  0  0  0  0  0  0  0  0  0  0  0
    1.3618    2.4693   -3.0835 H   0  0  0  0  0  0  0  0  0  0  0  0
    2.9341    2.6786   -2.2841 H   0  0  0  0  0  0  0  0  0  0  0  0
    2.4597    1.0804   -2.8957 H   0  0  0  0  0  0  0  0  0  0  0  0
    1.0193   -0.5105    0.9547 C   0  0  0  0  0  0  0  0  0  0  0  0
    2.2158   -0.6899    1.1437 O   0  0  0  0  0  0  0  0  0  0  0  0
    0.2326   -0.0772    2.0074 N   0  0  0  0  0  0  0  0  0  0  0  0
   -0.7675   -0.0644    1.8419 H   0  0  0  0  0  0  0  0  0  0  0  0
    0.7196   -0.0023    3.3787 C   0  0  0  0  0  0  0  0  0  0  0  0
    1.5788    0.6732    3.4445 H   0  0  0  0  0  0  0  0  0  0  0  0
   -0.0662    0.3755    4.0394 H   0  0  0  0  0  0  0  0  0  0  0  0
    1.0234   -0.9939    3.7303 H   0  0  0  0  0  0  0  0  0  0  0  0
  1  2  1  0  0  0  0
  2  3  1  0  0  0  0
  2  4  1  0  0  0  0
  2  5  1  0  0  0  0
  5  6  2  0  0  0  0
  5  7  1  0  0  0  0
  7  8  1  0  0  0  0
  7  9  1  0  0  0  0
  9 10  1  0  0  0  0
  9 11  1  0  0  0  0
  9 24  1  0  0  0  0
 11 12  1  0  0  0  0
 11 13  1  0  0  0  0
 11 17  1  0  0  0  0
 13 14  1  0  0  0  0
 13 15  1  0  0  0  0
 13 16  1  0  0  0  0
 17 18  1  0  0  0  0
 17 19  1  0  0  0  0
 17 20  1  0  0  0  0
 20 21  1  0  0  0  0
 20 22  1  0  0  0  0
 20 23  1  0  0  0  0
 24 25  2  0  0  0  0
 24 26  1  0  0  0  0
 26 27  1  0  0  0  0
 26 28  1  0  0  0  0
 28 29  1  0  0  0  0
 28 30  1  0  0  0  0
 28 31  1  0  0  0  0
M  END
$$$$

  -OEChem-03222214053D

 31 30  0     1  0  0  0  0  0999 V2000
   -2.4918   -4.2423    0.4042 H   0  0  0  0  0  0  0  0  0  0  0  0
   -2.5086   -3.2233    0.0067 C   0  0  0  0  0  0  0  0  0  0  0  0
   -3.2104   -2.6277    0.5955 H   0  0  0  0  0  0  0  0  0  0  0  0
   -2.8490   -3.2571   -1.0311 H   0  0  0  0  0  0  0  0  0  0  0  0
   -1.1211   -2.6135    0.0797 C   0  0  0  0  0  0  0  0  0  0  0  0
   -0.2083   -3.2485    0.5745 O   0  0  0  0  0  0  0  0  0  0  0  0
   -0.9079   -1.3419   -0.4167 N   0  0  0  0  0  0  0  0  0  0  0  0
   -1.6888   -0.9050   -0.8955 H   0  0  0  0  0  0  0  0  0  0  0  0
    0.4054   -0.6648   -0.4722 C   0  0  1  0  0  0  0  0  0  0  0  0
    1.1036   -1.2908   -1.0393 H   0  0  0  0  0  0  0  0  0  0  0  0
    0.2461    0.6914   -1.2325 C   0  0  1  0  0  0  0  0  0  0  0  0
    0.1651    0.4334   -2.2942 H   0  0  0  0  0  0  0  0  0  0  0  0
   -1.0324    1.4677   -0.8509 C   0  0  0  0  0  0  0  0  0  0  0  0
   -1.0681    1.6531    0.2267 H   0  0  0  0  0  0  0  0  0  0  0  0
   -1.0551    2.4334   -1.3658 H   0  0  0  0  0  0  0  0  0  0  0  0
   -1.9326    0.9205   -1.1435 H   0  0  0  0  0  0  0  0  0  0  0  0
    1.4501    1.6535   -1.0484 C   0  0  0  0  0  0  0  0  0  0  0  0
    1.2221    2.4342   -0.3149 H   0  0  0  0  0  0  0  0  0  0  0  0
    2.3251    1.1103   -0.6827 H   0  0  0  0  0  0  0  0  0  0  0  0
    1.8671    2.2808   -2.3804 C   0  0  0  0  0  0  0  0  0  0  0  0
    1.0409    2.8549   -2.8109 H   0  0  0  0  0  0  0  0  0  0  0  0
    2.7148    2.9556   -2.2271 H   0  0  0  0  0  0  0  0  0  0  0  0
    2.1670    1.5062   -3.0933 H   0  0  0  0  0  0  0  0  0  0  0  0
    1.0211   -0.5052    0.9436 C   0  0  0  0  0  0  0  0  0  0  0  0
    2.2220   -0.6645    1.1220 O   0  0  0  0  0  0  0  0  0  0  0  0
    0.2406   -0.0681    1.9993 N   0  0  0  0  0  0  0  0  0  0  0  0
   -0.7614   -0.0718    1.8446 H   0  0  0  0  0  0  0  0  0  0  0  0
    0.7403    0.0177    3.3655 C   0  0  0  0  0  0  0  0  0  0  0  0
    1.5958    0.6992    3.4187 H   0  0  0  0  0  0  0  0  0  0  0  0
   -0.0415    0.3944    4.0317 H   0  0  0  0  0  0  0  0  0  0  0  0
    1.0541   -0.9701    3.7198 H   0  0  0  0  0  0  0  0  0  0  0  0
  1  2  1  0  0  0  0
  2  3  1  0  0  0  0
  2  4  1  0  0  0  0
  2  5  1  0  0  0  0
  5  6  2  0  0  0  0
  5  7  1  0  0  0  0
  7  8  1  0  0  0  0
  7  9  1  0  0  0  0
  9 10  1  0  0  0  0
  9 11  1  0  0  0  0
  9 24  1  0  0  0  0
 11 12  1  0  0  0  0
 11 13  1  0  0  0  0
 11 17  1  0  0  0  0
 13 14  1  0  0  0  0
 13 15  1  0  0  0  0
 13 16  1  0  0  0  0
 17 18  1  0  0  0  0
 17 19  1  0  0  0  0
 17 20  1  0  0  0  0
 20 21  1  0  0  0  0
 20 22  1  0  0  0  0
 20 23  1  0  0  0  0
 24 25  2  0  0  0  0
 24 26  1  0  0  0  0
 26 27  1  0  0  0  0
 26 28  1  0  0  0  0
 28 29  1  0  0  0  0
 28 30  1  0  0  0  0
 28 31  1  0  0  0  0
M  END
$$$$

  -OEChem-03222214053D

 31 30  0     1  0  0  0  0  0999 V2000
   -2.4844   -4.2610    0.3972 H   0  0  0  0  0  0  0  0  0  0  0  0
   -2.5089   -3.2441   -0.0052 C   0  0  0  0  0  0  0  0  0  0  0  0
   -3.2236   -2.6546    0.5738 H   0  0  0  0  0  0  0  0  0  0  0  0
   -2.8387   -3.2867   -1.0459 H   0  0  0  0  0  0  0  0  0  0  0  0
   -1.1297   -2.6174    0.0779 C   0  0  0  0  0  0  0  0  0  0  0  0
   -0.2122   -3.2419    0.5775 O   0  0  0  0  0  0  0  0  0  0  0  0
   -0.9282   -1.3435   -0.4170 N   0  0  0  0  0  0  0  0  0  0  0  0
   -1.7096   -0.9172   -0.9045 H   0  0  0  0  0  0  0  0  0  0  0  0
    0.3815   -0.6607   -0.4778 C   0  0  1  0  0  0  0  0  0  0  0  0
    1.0757   -1.2880   -1.0480 H   0  0  0  0  0  0  0  0  0  0  0  0
    0.2258    0.6945   -1.2390 C   0  0  1  0  0  0  0  0  0  0  0  0
    0.1502    0.4476   -2.3034 H   0  0  0  0  0  0  0  0  0  0  0  0
   -1.0489    1.4713   -0.8420 C   0  0  0  0  0  0  0  0  0  0  0  0
   -1.0717    1.6542    0.2363 H   0  0  0  0  0  0  0  0  0  0  0  0
   -1.0852    2.4383   -1.3516 H   0  0  0  0  0  0  0  0  0  0  0  0
   -1.9512    0.9222   -1.1240 H   0  0  0  0  0  0  0  0  0  0  0  0
    1.4426    1.6305   -1.0360 C   0  0  0  0  0  0  0  0  0  0  0  0
    1.3231    2.2299   -0.1271 H   0  0  0  0  0  0  0  0  0  0  0  0
    2.3515    1.0316   -0.9189 H   0  0  0  0  0  0  0  0  0  0  0  0
    1.6722    2.5424   -2.2447 C   0  0  0  0  0  0  0  0  0  0  0  0
    0.8160    3.2029   -2.4072 H   0  0  0  0  0  0  0  0  0  0  0  0
    2.5578    3.1635   -2.0788 H   0  0  0  0  0  0  0  0  0  0  0  0
    1.8328    1.9472   -3.1490 H   0  0  0  0  0  0  0  0  0  0  0  0
    1.0141   -0.4964    0.9296 C   0  0  0  0  0  0  0  0  0  0  0  0
    2.2218   -0.6253    1.0856 O   0  0  0  0  0  0  0  0  0  0  0  0
    0.2448   -0.0625    1.9947 N   0  0  0  0  0  0  0  0  0  0  0  0
   -0.7595   -0.0814    1.8564 H   0  0  0  0  0  0  0  0  0  0  0  0
    0.7658    0.0492    3.3511 C   0  0  0  0  0  0  0  0  0  0  0  0
    1.6099    0.7462    3.3819 H   0  0  0  0  0  0  0  0  0  0  0  0
   -0.0113    0.4208    4.0256 H   0  0  0  0  0  0  0  0  0  0  0  0
    1.1028   -0.9282    3.7124 H   0  0  0  0  0  0  0  0  0  0  0  0
  1  2  1  0  0  0  0
  2  3  1  0  0  0  0
  2  4  1  0  0  0  0
  2  5  1  0  0  0  0
  5  6  2  0  0  0  0
  5  7  1  0  0  0  0
  7  8  1  0  0  0  0
  7  9  1  0  0  0  0
  9 10  1  0  0  0  0
  9 11  1  0  0  0  0
  9 24  1  0  0  0  0
 11 12  1  0  0  0  0
 11 13  1  0  0  0  0
 11 17  1  0  0  0  0
 13 14  1  0  0  0  0
 13 15  1  0  0  0  0
 13 16  1  0  0  0  0
 17 18  1  0  0  0  0
 17 19  1  0  0  0  0
 17 20  1  0  0  0  0
 20 21  1  0  0  0  0
 20 22  1  0  0  0  0
 20 23  1  0  0  0  0
 24 25  2  0  0  0  0
 24 26  1  0  0  0  0
 26 27  1  0  0  0  0
 26 28  1  0  0  0  0
 28 29  1  0  0  0  0
 28 30  1  0  0  0  0
 28 31  1  0  0  0  0
M  END
$$$$

  -OEChem-03222214053D

 31 30  0     1  0  0  0  0  0999 V2000
   -2.4693   -4.2833    0.3784 H   0  0  0  0  0  0  0  0  0  0  0  0
   -2.5044   -3.2626   -0.0134 C   0  0  0  0  0  0  0  0  0  0  0  0
   -3.2291   -2.6877    0.5680 H   0  0  0  0  0  0  0  0  0  0  0  0
   -2.8285   -3.2984   -1.0563 H   0  0  0  0  0  0  0  0  0  0  0  0
   -1.1333   -2.6200    0.0833 C   0  0  0  0  0  0  0  0  0  0  0  0
   -0.2127   -3.2334    0.5909 O   0  0  0  0  0  0  0  0  0  0  0  0
   -0.9431   -1.3432   -0.4087 N   0  0  0  0  0  0  0  0  0  0  0  0
   -1.7256   -0.9283   -0.9042 H   0  0  0  0  0  0  0  0  0  0  0  0
    0.3612   -0.6509   -0.4753 C   0  0  1  0  0  0  0  0  0  0  0  0
    1.0548   -1.2795   -1.0450 H   0  0  0  0  0  0  0  0  0  0  0  0
    0.2081    0.6994   -1.2492 C   0  0  1  0  0  0  0  0  0  0  0  0
    0.1378    0.4565   -2.3148 H   0  0  0  0  0  0  0  0  0  0  0  0
   -1.0735    1.4669   -0.8483 C   0  0  0  0  0  0  0  0  0  0  0  0
   -1.0651    1.7000    0.2207 H   0  0  0  0  0  0  0  0  0  0  0  0
   -1.1572    2.4048   -1.4025 H   0  0  0  0  0  0  0  0  0  0  0  0
   -1.9728    0.8878   -1.0735 H   0  0  0  0  0  0  0  0  0  0  0  0
    1.4338    1.6227   -1.0342 C   0  0  0  0  0  0  0  0  0  0  0  0
    1.4293    2.0351   -0.0194 H   0  0  0  0  0  0  0  0  0  0  0  0
    2.3469    1.0280   -1.1461 H   0  0  0  0  0  0  0  0  0  0  0  0
    1.5075    2.7777   -2.0390 C   0  0  0  0  0  0  0  0  0  0  0  0
    0.7002    3.4971   -1.8796 H   0  0  0  0  0  0  0  0  0  0  0  0
    2.4579    3.3075   -1.9223 H   0  0  0  0  0  0  0  0  0  0  0  0
    1.4471    2.3993   -3.0640 H   0  0  0  0  0  0  0  0  0  0  0  0
    1.0049   -0.4843    0.9261 C   0  0  0  0  0  0  0  0  0  0  0  0
    2.2173   -0.5866    1.0641 O   0  0  0  0  0  0  0  0  0  0  0  0
    0.2425   -0.0583    1.9993 N   0  0  0  0  0  0  0  0  0  0  0  0
   -0.7631   -0.0937    1.8737 H   0  0  0  0  0  0  0  0  0  0  0  0
    0.7792    0.0572    3.3491 C   0  0  0  0  0  0  0  0  0  0  0  0
    1.6118    0.7681    3.3711 H   0  0  0  0  0  0  0  0  0  0  0  0
    0.0052    0.4129    4.0355 H   0  0  0  0  0  0  0  0  0  0  0  0
    1.1378   -0.9157    3.7018 H   0  0  0  0  0  0  0  0  0  0  0  0
  1  2  1  0  0  0  0
  2  3  1  0  0  0  0
  2  4  1  0  0  0  0
  2  5  1  0  0  0  0
  5  6  2  0  0  0  0
  5  7  1  0  0  0  0
  7  8  1  0  0  0  0
  7  9  1  0  0  0  0
  9 10  1  0  0  0  0
  9 11  1  0  0  0  0
  9 24  1  0  0  0  0
 11 12  1  0  0  0  0
 11 13  1  0  0  0  0
 11 17  1  0  0  0  0
 13 14  1  0  0  0  0
 13 15  1  0  0  0  0
 13 16  1  0  0  0  0
 17 18  1  0  0  0  0
 17 19  1  0  0  0  0
 17 20  1  0  0  0  0
 20 21  1  0  0  0  0
 20 22  1  0  0  0  0
 20 23  1  0  0  0  0
 24 25  2  0  0  0  0
 24 26  1  0  0  0  0
 26 27  1  0  0  0  0
 26 28  1  0  0  0  0
 28 29  1  0  0  0  0
 28 30  1  0  0  0  0
 28 31  1  0  0  0  0
M  END
$$$$
