@<TRIPOS>MOLECULE
default_name
   25    25     1     0     0
SMALL
No Charge or Current Charge


@<TRIPOS>ATOM
      1 H1          25.6540    25.3640    24.5280 H          1 ACE       0.112300
      2 CH3         25.8140    26.3730    24.1550 C.3        1 ACE      -0.366200
      3 H2          25.2300    27.0760    24.7430 H          1 ACE       0.112300
      4 H3          25.5220    26.4280    23.1090 H          1 ACE       0.112300
      5 C           27.2780    26.7260    24.2880 C.2        1 ACE       0.597200
      6 O           28.0520    25.9370    24.8210 O.2        1 ACE      -0.567900
      7 N           27.6630    27.8970    23.7800 N.am       2 CHI      -0.567900
      8 H           26.9780    28.4960    23.3390 H          2 CHI      -0.567900
      9 CA          29.0150    28.4600    23.8650 C.3        2 CHI      -0.567900
     10 HA          29.3930    28.3430    24.8800 H          2 CHI      -0.567900
     11 CB          29.9430    27.7290    22.8780 C.3        2 CHI      -0.567900
     12 HB2         30.1500    26.7230    23.2400 H          2 CHI      -0.567900
     13 HB3         29.4280    27.6470    21.9200 H          2 CHI      -0.567900
     14 CG          31.2370    28.4730    22.6550 C.2        2 CHI      -0.567900
     15 ND1         31.5860    29.1260    21.4900 N.pl3      2 CHI      -0.567900
     16 HD1         30.9960    29.1540    20.6710 H          2 CHI      -0.567900
     17 CE1         32.6080    29.9620    21.7560 C.2        2 CHI      -0.567900
     18 HE1         33.0080    30.6950    21.0600 H          2 CHI      -0.567900
     19 NE2         32.9010    29.8690    23.0710 N.pl3      2 CHI      -0.567900
     20 HE2         33.4530    30.5280    23.6070 H          2 CHI      -0.567900
     21 CD2         32.0520    28.9430    23.6430 C.2        2 CHI      -0.567900
     22 HD2         31.8800    28.7940    24.7040 H          2 CHI      -0.567900
     23 C           29.0100    29.9620    23.5550 C.2        2 CHI      -0.567900
     24 O           28.3790    30.3100    22.5330 O.co2      2 CHI      -0.567900
     25 OXT         29.7300    30.6890    24.2700 O.co2      2 CHI      -0.567900
@<TRIPOS>BOND
     1     5     6 2   
     2     5     7 am  
     3     2     3 1   
     4     2     4 1   
     5     2     5 1   
     6     1     2 1   
     7    23    24 1   
     8    23    25 1   
     9    21    22 1   
    10    19    20 1   
    11    19    21 1   
    12    17    18 1   
    13    17    19 1   
    14    15    16 1   
    15    15    17 2   
    16    14    15 1   
    17    14    21 2   
    18    11    12 1   
    19    11    13 1   
    20    11    14 1   
    21     9    10 1   
    22     9    11 1   
    23     9    23 1   
    24     7     8 1   
    25     7     9 1   
@<TRIPOS>SUBSTRUCTURE
     1 ACE         1 TEMP              0 ****  ****    0 ROOT
