
  -OEChem-02062319033D

 49 49  0     1  0  0  0  0  0999 V2000
   -1.6183    0.5613    3.8201 C   0  0  0  0  0  0  0  0  0  0  0  0
   -0.6710   -0.0534    3.3444 O   0  0  0  0  0  0  0  0  0  0  0  0
   -2.0502    0.2789    5.2208 C   0  0  0  0  0  0  0  0  0  0  0  0
   -2.8099   -0.5175    5.2742 H   0  0  0  0  0  0  0  0  0  0  0  0
   -1.2190   -0.0687    5.8551 H   0  0  0  0  0  0  0  0  0  0  0  0
   -2.4882    1.1338    5.7604 H   0  0  0  0  0  0  0  0  0  0  0  0
   -2.3680    1.5337    3.1790 N   0  0  0  0  0  0  0  0  0  0  0  0
   -2.1212    1.9597    1.8266 C   0  0  2  0  0  0  0  0  0  0  0  0
   -0.7862    1.3744    1.3854 C   0  0  0  0  0  0  0  0  0  0  0  0
    0.0859    1.0216    2.1767 O   0  0  0  0  0  0  0  0  0  0  0  0
   -2.1124    3.4765    1.7171 C   0  0  0  0  0  0  0  0  0  0  0  0
   -3.1331    1.9695    3.6908 H   0  0  0  0  0  0  0  0  0  0  0  0
   -2.9253    1.5413    1.2115 H   0  0  0  0  0  0  0  0  0  0  0  0
   -1.3133    3.9138    2.3268 H   0  0  0  0  0  0  0  0  0  0  0  0
   -1.9529    3.7988    0.6829 H   0  0  0  0  0  0  0  0  0  0  0  0
   -3.0626    3.8977    2.0629 H   0  0  0  0  0  0  0  0  0  0  0  0
   -0.6635    1.3313    0.0020 N   0  0  0  0  0  0  0  0  0  0  0  0
    0.5089    0.8194   -0.6617 C   0  0  2  0  0  0  0  0  0  0  0  0
    1.6897    1.6735   -0.2140 C   0  0  0  0  0  0  0  0  0  0  0  0
    2.7837    1.1990    0.0842 O   0  0  0  0  0  0  0  0  0  0  0  0
    0.3728    0.8567   -2.1882 C   0  0  0  0  0  0  0  0  0  0  0  0
   -0.7301   -0.0386   -2.6979 C   0  0  0  0  0  0  0  0  0  0  0  0
   -0.5636   -1.4005   -2.7340 N   0  0  0  0  0  0  0  0  0  0  0  0
   -1.9704    0.3226   -3.1688 C   0  0  0  0  0  0  0  0  0  0  0  0
   -1.6931   -1.8630   -3.2223 C   0  0  0  0  0  0  0  0  0  0  0  0
   -2.5755   -0.8566   -3.5013 N   0  0  0  0  0  0  0  0  0  0  0  0
   -1.4435    1.6362   -0.5753 H   0  0  0  0  0  0  0  0  0  0  0  0
    0.6501   -0.2059   -0.3001 H   0  0  0  0  0  0  0  0  0  0  0  0
    1.3237    0.5776   -2.6619 H   0  0  0  0  0  0  0  0  0  0  0  0
    0.1704    1.8803   -2.5304 H   0  0  0  0  0  0  0  0  0  0  0  0
   -2.4631    1.2759   -3.2951 H   0  0  0  0  0  0  0  0  0  0  0  0
   -1.9334   -2.9023   -3.3964 H   0  0  0  0  0  0  0  0  0  0  0  0
   -3.5057   -0.9653   -3.8828 H   0  0  0  0  0  0  0  0  0  0  0  0
    1.3890    3.0283   -0.2361 N   0  0  0  0  0  0  0  0  0  0  0  0
    2.3385    4.0579    0.1203 C   0  0  2  0  0  0  0  0  0  0  0  0
    2.9554    3.6847    1.4619 C   0  0  0  0  0  0  0  0  0  0  0  0
    2.4101    2.9296    2.2641 O   0  0  0  0  0  0  0  0  0  0  0  0
    1.6738    5.4239    0.1889 C   0  0  0  0  0  0  0  0  0  0  0  0
    0.4544    3.3104   -0.5169 H   0  0  0  0  0  0  0  0  0  0  0  0
    3.1145    4.0538   -0.6529 H   0  0  0  0  0  0  0  0  0  0  0  0
    0.8933    5.4473    0.9582 H   0  0  0  0  0  0  0  0  0  0  0  0
    2.4000    6.2069    0.4310 H   0  0  0  0  0  0  0  0  0  0  0  0
    1.2050    5.6777   -0.7680 H   0  0  0  0  0  0  0  0  0  0  0  0
    4.1663    4.3280    1.6764 N   0  0  0  0  0  0  0  0  0  0  0  0
    4.9417    4.1484    2.8817 C   0  0  0  0  0  0  0  0  0  0  0  0
    4.5524    4.9220    0.9486 H   0  0  0  0  0  0  0  0  0  0  0  0
    4.6711    4.9256    3.6115 H   0  0  0  0  0  0  0  0  0  0  0  0
    4.7321    3.1563    3.3080 H   0  0  0  0  0  0  0  0  0  0  0  0
    6.0128    4.2263    2.6434 H   0  0  0  0  0  0  0  0  0  0  0  0
 22 24  2  0  0  0  0
 24 26  1  0  0  0  0
 23 25  2  0  0  0  0
 25 26  1  0  0  0  0
 21 22  1  0  0  0  0
 22 23  1  0  0  0  0
  1  3  1  0  0  0  0
  1  7  1  0  0  0  0
  1  2  2  0  0  0  0
 35 36  1  0  0  0  0
 36 44  1  0  0  0  0
 36 37  2  0  0  0  0
  8  9  1  0  0  0  0
  9 17  1  0  0  0  0
  9 10  2  0  0  0  0
 18 19  1  0  0  0  0
 19 34  1  0  0  0  0
 19 20  2  0  0  0  0
 35 38  1  0  0  0  0
  8 11  1  0  0  0  0
 44 45  1  0  0  0  0
 18 21  1  0  0  0  0
 34 35  1  0  0  0  0
  7  8  1  0  0  0  0
 17 18  1  0  0  0  0
 24 31  1  0  0  0  0
 25 32  1  0  0  0  0
  3  4  1  0  0  0  0
  3  5  1  0  0  0  0
  3  6  1  0  0  0  0
 38 41  1  0  0  0  0
 38 42  1  0  0  0  0
 38 43  1  0  0  0  0
 11 14  1  0  0  0  0
 11 15  1  0  0  0  0
 11 16  1  0  0  0  0
 45 47  1  0  0  0  0
 45 48  1  0  0  0  0
 45 49  1  0  0  0  0
 21 29  1  0  0  0  0
 21 30  1  0  0  0  0
 35 40  1  0  0  0  0
  8 13  1  0  0  0  0
 18 28  1  0  0  0  0
 26 33  1  0  0  0  0
 44 46  1  0  0  0  0
  7 12  1  0  0  0  0
 34 39  1  0  0  0  0
 17 27  1  0  0  0  0
M  END
$$$$

  -OEChem-02062319033D

 49 49  0     1  0  0  0  0  0999 V2000
   -1.6183    0.5613    3.8201 C   0  0  0  0  0  0  0  0  0  0  0  0
   -0.6710   -0.0534    3.3444 O   0  0  0  0  0  0  0  0  0  0  0  0
   -2.0502    0.2789    5.2208 C   0  0  0  0  0  0  0  0  0  0  0  0
   -2.8099   -0.5175    5.2742 H   0  0  0  0  0  0  0  0  0  0  0  0
   -1.2190   -0.0687    5.8551 H   0  0  0  0  0  0  0  0  0  0  0  0
   -2.4882    1.1338    5.7604 H   0  0  0  0  0  0  0  0  0  0  0  0
   -2.3680    1.5337    3.1790 N   0  0  0  0  0  0  0  0  0  0  0  0
   -2.1212    1.9597    1.8266 C   0  0  2  0  0  0  0  0  0  0  0  0
   -0.7862    1.3744    1.3854 C   0  0  0  0  0  0  0  0  0  0  0  0
    0.0859    1.0216    2.1767 O   0  0  0  0  0  0  0  0  0  0  0  0
   -2.1124    3.4765    1.7171 C   0  0  0  0  0  0  0  0  0  0  0  0
   -3.1331    1.9695    3.6908 H   0  0  0  0  0  0  0  0  0  0  0  0
   -2.9253    1.5413    1.2115 H   0  0  0  0  0  0  0  0  0  0  0  0
   -1.3133    3.9138    2.3268 H   0  0  0  0  0  0  0  0  0  0  0  0
   -1.9529    3.7988    0.6829 H   0  0  0  0  0  0  0  0  0  0  0  0
   -3.0626    3.8977    2.0629 H   0  0  0  0  0  0  0  0  0  0  0  0
   -0.6635    1.3313    0.0020 N   0  0  0  0  0  0  0  0  0  0  0  0
    0.3447    0.5490   -0.6679 C   0  0  2  0  0  0  0  0  0  0  0  0
    1.7007    1.0599   -0.1939 C   0  0  0  0  0  0  0  0  0  0  0  0
    2.6322    0.3131    0.0984 O   0  0  0  0  0  0  0  0  0  0  0  0
    0.2397    0.6534   -2.1937 C   0  0  0  0  0  0  0  0  0  0  0  0
   -1.0510    0.0840   -2.7301 C   0  0  0  0  0  0  0  0  0  0  0  0
   -1.2405   -1.2736   -2.7980 N   0  0  0  0  0  0  0  0  0  0  0  0
   -2.1511    0.7629   -3.1985 C   0  0  0  0  0  0  0  0  0  0  0  0
   -2.4455   -1.4186   -3.3028 C   0  0  0  0  0  0  0  0  0  0  0  0
   -3.0358   -0.2129   -3.5621 N   0  0  0  0  0  0  0  0  0  0  0  0
   -1.3322    1.8395   -0.5717 H   0  0  0  0  0  0  0  0  0  0  0  0
    0.2130   -0.4857   -0.3301 H   0  0  0  0  0  0  0  0  0  0  0  0
    1.0918    0.1490   -2.6691 H   0  0  0  0  0  0  0  0  0  0  0  0
    0.3115    1.7018   -2.5123 H   0  0  0  0  0  0  0  0  0  0  0  0
   -2.3802    1.8136   -3.3045 H   0  0  0  0  0  0  0  0  0  0  0  0
   -2.9435   -2.3568   -3.5030 H   0  0  0  0  0  0  0  0  0  0  0  0
   -3.9583   -0.0698   -3.9508 H   0  0  0  0  0  0  0  0  0  0  0  0
    1.7593    2.4466   -0.1851 N   0  0  0  0  0  0  0  0  0  0  0  0
    2.9381    3.1886    0.2006 C   0  0  2  0  0  0  0  0  0  0  0  0
    3.4232    2.6399    1.5359 C   0  0  0  0  0  0  0  0  0  0  0  0
    2.6930    2.0336    2.3171 O   0  0  0  0  0  0  0  0  0  0  0  0
    2.6469    4.6780    0.2984 C   0  0  0  0  0  0  0  0  0  0  0  0
    0.9321    2.9661   -0.4638 H   0  0  0  0  0  0  0  0  0  0  0  0
    3.6953    3.0015   -0.5686 H   0  0  0  0  0  0  0  0  0  0  0  0
    1.8904    4.8850    1.0641 H   0  0  0  0  0  0  0  0  0  0  0  0
    3.5476    5.2418    0.5628 H   0  0  0  0  0  0  0  0  0  0  0  0
    2.2699    5.0649   -0.6544 H   0  0  0  0  0  0  0  0  0  0  0  0
    4.7565    2.9444    1.7719 N   0  0  0  0  0  0  0  0  0  0  0  0
    5.4461    2.5449    2.9764 C   0  0  0  0  0  0  0  0  0  0  0  0
    5.2906    3.4346    1.0604 H   0  0  0  0  0  0  0  0  0  0  0  0
    5.3768    3.3495    3.7232 H   0  0  0  0  0  0  0  0  0  0  0  0
    4.9833    1.6313    3.3778 H   0  0  0  0  0  0  0  0  0  0  0  0
    6.5037    2.3492    2.7455 H   0  0  0  0  0  0  0  0  0  0  0  0
 22 24  2  0  0  0  0
 24 26  1  0  0  0  0
 23 25  2  0  0  0  0
 25 26  1  0  0  0  0
 21 22  1  0  0  0  0
 22 23  1  0  0  0  0
  1  3  1  0  0  0  0
  1  7  1  0  0  0  0
  1  2  2  0  0  0  0
 35 36  1  0  0  0  0
 36 44  1  0  0  0  0
 36 37  2  0  0  0  0
  8  9  1  0  0  0  0
  9 17  1  0  0  0  0
  9 10  2  0  0  0  0
 18 19  1  0  0  0  0
 19 34  1  0  0  0  0
 19 20  2  0  0  0  0
 35 38  1  0  0  0  0
  8 11  1  0  0  0  0
 44 45  1  0  0  0  0
 18 21  1  0  0  0  0
 34 35  1  0  0  0  0
  7  8  1  0  0  0  0
 17 18  1  0  0  0  0
 24 31  1  0  0  0  0
 25 32  1  0  0  0  0
  3  4  1  0  0  0  0
  3  5  1  0  0  0  0
  3  6  1  0  0  0  0
 38 41  1  0  0  0  0
 38 42  1  0  0  0  0
 38 43  1  0  0  0  0
 11 14  1  0  0  0  0
 11 15  1  0  0  0  0
 11 16  1  0  0  0  0
 45 47  1  0  0  0  0
 45 48  1  0  0  0  0
 45 49  1  0  0  0  0
 21 29  1  0  0  0  0
 21 30  1  0  0  0  0
 35 40  1  0  0  0  0
  8 13  1  0  0  0  0
 18 28  1  0  0  0  0
 26 33  1  0  0  0  0
 44 46  1  0  0  0  0
  7 12  1  0  0  0  0
 34 39  1  0  0  0  0
 17 27  1  0  0  0  0
M  END
$$$$

  -OEChem-02062319033D

 49 49  0     1  0  0  0  0  0999 V2000
   -1.6183    0.5613    3.8201 C   0  0  0  0  0  0  0  0  0  0  0  0
   -0.6710   -0.0534    3.3444 O   0  0  0  0  0  0  0  0  0  0  0  0
   -2.0502    0.2789    5.2208 C   0  0  0  0  0  0  0  0  0  0  0  0
   -2.8099   -0.5175    5.2742 H   0  0  0  0  0  0  0  0  0  0  0  0
   -1.2190   -0.0687    5.8551 H   0  0  0  0  0  0  0  0  0  0  0  0
   -2.4882    1.1338    5.7604 H   0  0  0  0  0  0  0  0  0  0  0  0
   -2.3680    1.5337    3.1790 N   0  0  0  0  0  0  0  0  0  0  0  0
   -2.1212    1.9597    1.8266 C   0  0  2  0  0  0  0  0  0  0  0  0
   -0.7862    1.3744    1.3854 C   0  0  0  0  0  0  0  0  0  0  0  0
    0.0859    1.0216    2.1767 O   0  0  0  0  0  0  0  0  0  0  0  0
   -2.1124    3.4765    1.7171 C   0  0  0  0  0  0  0  0  0  0  0  0
   -3.1331    1.9695    3.6908 H   0  0  0  0  0  0  0  0  0  0  0  0
   -2.9253    1.5413    1.2115 H   0  0  0  0  0  0  0  0  0  0  0  0
   -1.3133    3.9138    2.3268 H   0  0  0  0  0  0  0  0  0  0  0  0
   -1.9529    3.7988    0.6829 H   0  0  0  0  0  0  0  0  0  0  0  0
   -3.0626    3.8977    2.0629 H   0  0  0  0  0  0  0  0  0  0  0  0
   -0.6635    1.3313    0.0020 N   0  0  0  0  0  0  0  0  0  0  0  0
    0.1165    0.3303   -0.6813 C   0  0  2  0  0  0  0  0  0  0  0  0
    1.5530    0.4640   -0.1884 C   0  0  0  0  0  0  0  0  0  0  0  0
    2.2574   -0.5039    0.0906 O   0  0  0  0  0  0  0  0  0  0  0  0
    0.0587    0.4915   -2.2047 C   0  0  0  0  0  0  0  0  0  0  0  0
   -1.3290    0.2859   -2.7611 C   0  0  0  0  0  0  0  0  0  0  0  0
   -1.8611   -0.9752   -2.8623 N   0  0  0  0  0  0  0  0  0  0  0  0
   -2.2119    1.2355   -3.2186 C   0  0  0  0  0  0  0  0  0  0  0  0
   -3.0572   -0.7936   -3.3765 C   0  0  0  0  0  0  0  0  0  0  0  0
   -3.3140    0.5288   -3.6099 N   0  0  0  0  0  0  0  0  0  0  0  0
   -1.1724    2.0071   -0.5628 H   0  0  0  0  0  0  0  0  0  0  0  0
   -0.2810   -0.6425   -0.3690 H   0  0  0  0  0  0  0  0  0  0  0  0
    0.7573   -0.2050   -2.6877 H   0  0  0  0  0  0  0  0  0  0  0  0
    0.4017    1.4926   -2.4978 H   0  0  0  0  0  0  0  0  0  0  0  0
   -2.1615    2.3117   -3.3006 H   0  0  0  0  0  0  0  0  0  0  0  0
   -3.7778   -1.5671   -3.6016 H   0  0  0  0  0  0  0  0  0  0  0  0
   -4.1642    0.9133   -3.9997 H   0  0  0  0  0  0  0  0  0  0  0  0
    1.9668    1.7882   -0.1462 N   0  0  0  0  0  0  0  0  0  0  0  0
    3.2926    2.1926    0.2630 C   0  0  2  0  0  0  0  0  0  0  0  0
    3.6052    1.5084    1.5873 C   0  0  0  0  0  0  0  0  0  0  0  0
    2.7349    1.0940    2.3501 O   0  0  0  0  0  0  0  0  0  0  0  0
    3.3938    3.7043    0.3950 C   0  0  0  0  0  0  0  0  0  0  0  0
    1.3045    2.5093   -0.4166 H   0  0  0  0  0  0  0  0  0  0  0  0
    3.9845    1.8335   -0.5066 H   0  0  0  0  0  0  0  0  0  0  0  0
    2.7078    4.0826    1.1616 H   0  0  0  0  0  0  0  0  0  0  0  0
    4.4064    4.0109    0.6773 H   0  0  0  0  0  0  0  0  0  0  0  0
    3.1397    4.1959   -0.5502 H   0  0  0  0  0  0  0  0  0  0  0  0
    4.9693    1.4538    1.8372 N   0  0  0  0  0  0  0  0  0  0  0  0
    5.5194    0.8638    3.0352 C   0  0  0  0  0  0  0  0  0  0  0  0
    5.6194    1.8051    1.1403 H   0  0  0  0  0  0  0  0  0  0  0  0
    5.6515    1.6426    3.8008 H   0  0  0  0  0  0  0  0  0  0  0  0
    4.8324    0.0919    3.4124 H   0  0  0  0  0  0  0  0  0  0  0  0
    6.4933    0.4072    2.8051 H   0  0  0  0  0  0  0  0  0  0  0  0
 22 24  2  0  0  0  0
 24 26  1  0  0  0  0
 23 25  2  0  0  0  0
 25 26  1  0  0  0  0
 21 22  1  0  0  0  0
 22 23  1  0  0  0  0
  1  3  1  0  0  0  0
  1  7  1  0  0  0  0
  1  2  2  0  0  0  0
 35 36  1  0  0  0  0
 36 44  1  0  0  0  0
 36 37  2  0  0  0  0
  8  9  1  0  0  0  0
  9 17  1  0  0  0  0
  9 10  2  0  0  0  0
 18 19  1  0  0  0  0
 19 34  1  0  0  0  0
 19 20  2  0  0  0  0
 35 38  1  0  0  0  0
  8 11  1  0  0  0  0
 44 45  1  0  0  0  0
 18 21  1  0  0  0  0
 34 35  1  0  0  0  0
  7  8  1  0  0  0  0
 17 18  1  0  0  0  0
 24 31  1  0  0  0  0
 25 32  1  0  0  0  0
  3  4  1  0  0  0  0
  3  5  1  0  0  0  0
  3  6  1  0  0  0  0
 38 41  1  0  0  0  0
 38 42  1  0  0  0  0
 38 43  1  0  0  0  0
 11 14  1  0  0  0  0
 11 15  1  0  0  0  0
 11 16  1  0  0  0  0
 45 47  1  0  0  0  0
 45 48  1  0  0  0  0
 45 49  1  0  0  0  0
 21 29  1  0  0  0  0
 21 30  1  0  0  0  0
 35 40  1  0  0  0  0
  8 13  1  0  0  0  0
 18 28  1  0  0  0  0
 26 33  1  0  0  0  0
 44 46  1  0  0  0  0
  7 12  1  0  0  0  0
 34 39  1  0  0  0  0
 17 27  1  0  0  0  0
M  END
$$$$

  -OEChem-02062319033D

 49 49  0     1  0  0  0  0  0999 V2000
   -1.6183    0.5613    3.8201 C   0  0  0  0  0  0  0  0  0  0  0  0
   -0.6710   -0.0534    3.3444 O   0  0  0  0  0  0  0  0  0  0  0  0
   -2.0502    0.2789    5.2208 C   0  0  0  0  0  0  0  0  0  0  0  0
   -2.8099   -0.5175    5.2742 H   0  0  0  0  0  0  0  0  0  0  0  0
   -1.2190   -0.0687    5.8551 H   0  0  0  0  0  0  0  0  0  0  0  0
   -2.4882    1.1338    5.7604 H   0  0  0  0  0  0  0  0  0  0  0  0
   -2.3680    1.5337    3.1790 N   0  0  0  0  0  0  0  0  0  0  0  0
   -2.1212    1.9597    1.8266 C   0  0  2  0  0  0  0  0  0  0  0  0
   -0.7862    1.3744    1.3854 C   0  0  0  0  0  0  0  0  0  0  0  0
    0.0859    1.0216    2.1767 O   0  0  0  0  0  0  0  0  0  0  0  0
   -2.1124    3.4765    1.7171 C   0  0  0  0  0  0  0  0  0  0  0  0
   -3.1331    1.9695    3.6908 H   0  0  0  0  0  0  0  0  0  0  0  0
   -2.9253    1.5413    1.2115 H   0  0  0  0  0  0  0  0  0  0  0  0
   -1.3133    3.9138    2.3268 H   0  0  0  0  0  0  0  0  0  0  0  0
   -1.9529    3.7988    0.6829 H   0  0  0  0  0  0  0  0  0  0  0  0
   -3.0626    3.8977    2.0629 H   0  0  0  0  0  0  0  0  0  0  0  0
   -0.6635    1.3313    0.0020 N   0  0  0  0  0  0  0  0  0  0  0  0
   -0.1601    0.1782   -0.7011 C   0  0  2  0  0  0  0  0  0  0  0  0
    1.2567   -0.0737   -0.1979 C   0  0  0  0  0  0  0  0  0  0  0  0
    1.6850   -1.1963    0.0614 O   0  0  0  0  0  0  0  0  0  0  0  0
   -0.1577    0.3820   -2.2205 C   0  0  0  0  0  0  0  0  0  0  0  0
   -1.5454    0.5532   -2.7886 C   0  0  0  0  0  0  0  0  0  0  0  0
   -2.3832   -0.5255   -2.9226 N   0  0  0  0  0  0  0  0  0  0  0  0
   -2.1487    1.7080   -3.2278 C   0  0  0  0  0  0  0  0  0  0  0  0
   -3.4864   -0.0306   -3.4384 C   0  0  0  0  0  0  0  0  0  0  0  0
   -3.3913    1.3181   -3.6414 N   0  0  0  0  0  0  0  0  0  0  0  0
   -0.9749    2.1275   -0.5490 H   0  0  0  0  0  0  0  0  0  0  0  0
   -0.7983   -0.6659   -0.4141 H   0  0  0  0  0  0  0  0  0  0  0  0
    0.3432   -0.4604   -2.7165 H   0  0  0  0  0  0  0  0  0  0  0  0
    0.4348    1.2670   -2.4878 H   0  0  0  0  0  0  0  0  0  0  0  0
   -1.8219    2.7365   -3.2837 H   0  0  0  0  0  0  0  0  0  0  0  0
   -4.3794   -0.5872   -3.6855 H   0  0  0  0  0  0  0  0  0  0  0  0
   -4.1094    1.9172   -4.0261 H   0  0  0  0  0  0  0  0  0  0  0  0
    1.9972    1.0978   -0.1220 N   0  0  0  0  0  0  0  0  0  0  0  0
    3.3778    1.1378    0.3035 C   0  0  2  0  0  0  0  0  0  0  0  0
    3.4890    0.3675    1.6125 C   0  0  0  0  0  0  0  0  0  0  0  0
    2.5330    0.1748    2.3608 O   0  0  0  0  0  0  0  0  0  0  0  0
    3.8636    2.5690    0.4720 C   0  0  0  0  0  0  0  0  0  0  0  0
    1.5460    1.9710   -0.3784 H   0  0  0  0  0  0  0  0  0  0  0  0
    3.9623    0.6293   -0.4710 H   0  0  0  0  0  0  0  0  0  0  0  0
    3.2897    3.0946    1.2440 H   0  0  0  0  0  0  0  0  0  0  0  0
    4.9178    2.5981    0.7667 H   0  0  0  0  0  0  0  0  0  0  0  0
    3.7551    3.1300   -0.4625 H   0  0  0  0  0  0  0  0  0  0  0  0
    4.7902   -0.0424    1.8680 N   0  0  0  0  0  0  0  0  0  0  0  0
    5.1565   -0.7802    3.0543 C   0  0  0  0  0  0  0  0  0  0  0  0
    5.5165    0.1445    1.1829 H   0  0  0  0  0  0  0  0  0  0  0  0
    5.4763   -0.0787    3.8389 H   0  0  0  0  0  0  0  0  0  0  0  0
    4.2898   -1.3570    3.4094 H   0  0  0  0  0  0  0  0  0  0  0  0
    5.9824   -1.4673    2.8182 H   0  0  0  0  0  0  0  0  0  0  0  0
 22 24  2  0  0  0  0
 24 26  1  0  0  0  0
 23 25  2  0  0  0  0
 25 26  1  0  0  0  0
 21 22  1  0  0  0  0
 22 23  1  0  0  0  0
  1  3  1  0  0  0  0
  1  7  1  0  0  0  0
  1  2  2  0  0  0  0
 35 36  1  0  0  0  0
 36 44  1  0  0  0  0
 36 37  2  0  0  0  0
  8  9  1  0  0  0  0
  9 17  1  0  0  0  0
  9 10  2  0  0  0  0
 18 19  1  0  0  0  0
 19 34  1  0  0  0  0
 19 20  2  0  0  0  0
 35 38  1  0  0  0  0
  8 11  1  0  0  0  0
 44 45  1  0  0  0  0
 18 21  1  0  0  0  0
 34 35  1  0  0  0  0
  7  8  1  0  0  0  0
 17 18  1  0  0  0  0
 24 31  1  0  0  0  0
 25 32  1  0  0  0  0
  3  4  1  0  0  0  0
  3  5  1  0  0  0  0
  3  6  1  0  0  0  0
 38 41  1  0  0  0  0
 38 42  1  0  0  0  0
 38 43  1  0  0  0  0
 11 14  1  0  0  0  0
 11 15  1  0  0  0  0
 11 16  1  0  0  0  0
 45 47  1  0  0  0  0
 45 48  1  0  0  0  0
 45 49  1  0  0  0  0
 21 29  1  0  0  0  0
 21 30  1  0  0  0  0
 35 40  1  0  0  0  0
  8 13  1  0  0  0  0
 18 28  1  0  0  0  0
 26 33  1  0  0  0  0
 44 46  1  0  0  0  0
  7 12  1  0  0  0  0
 34 39  1  0  0  0  0
 17 27  1  0  0  0  0
M  END
$$$$

  -OEChem-02062319033D

 49 49  0     1  0  0  0  0  0999 V2000
   -1.6183    0.5613    3.8201 C   0  0  0  0  0  0  0  0  0  0  0  0
   -0.6710   -0.0534    3.3444 O   0  0  0  0  0  0  0  0  0  0  0  0
   -2.0502    0.2789    5.2208 C   0  0  0  0  0  0  0  0  0  0  0  0
   -2.8099   -0.5175    5.2742 H   0  0  0  0  0  0  0  0  0  0  0  0
   -1.2190   -0.0687    5.8551 H   0  0  0  0  0  0  0  0  0  0  0  0
   -2.4882    1.1338    5.7604 H   0  0  0  0  0  0  0  0  0  0  0  0
   -2.3680    1.5337    3.1790 N   0  0  0  0  0  0  0  0  0  0  0  0
   -2.1212    1.9597    1.8266 C   0  0  2  0  0  0  0  0  0  0  0  0
   -0.7862    1.3744    1.3854 C   0  0  0  0  0  0  0  0  0  0  0  0
    0.0859    1.0216    2.1767 O   0  0  0  0  0  0  0  0  0  0  0  0
   -2.1124    3.4765    1.7171 C   0  0  0  0  0  0  0  0  0  0  0  0
   -3.1331    1.9695    3.6908 H   0  0  0  0  0  0  0  0  0  0  0  0
   -2.9253    1.5413    1.2115 H   0  0  0  0  0  0  0  0  0  0  0  0
   -1.3133    3.9138    2.3268 H   0  0  0  0  0  0  0  0  0  0  0  0
   -1.9529    3.7988    0.6829 H   0  0  0  0  0  0  0  0  0  0  0  0
   -3.0626    3.8977    2.0629 H   0  0  0  0  0  0  0  0  0  0  0  0
   -0.6635    1.3313    0.0020 N   0  0  0  0  0  0  0  0  0  0  0  0
   -0.4664    0.1030   -0.7259 C   0  0  2  0  0  0  0  0  0  0  0  0
    0.8321   -0.5166   -0.2217 C   0  0  0  0  0  0  0  0  0  0  0  0
    0.9538   -1.7170    0.0129 O   0  0  0  0  0  0  0  0  0  0  0  0
   -0.3948    0.3324   -2.2400 C   0  0  0  0  0  0  0  0  0  0  0  0
   -1.6852    0.8678   -2.8108 C   0  0  0  0  0  0  0  0  0  0  0  0
   -2.7711    0.0447   -2.9748 N   0  0  0  0  0  0  0  0  0  0  0  0
   -1.9658    2.1484   -3.2253 C   0  0  0  0  0  0  0  0  0  0  0  0
   -3.7038    0.8184   -3.4841 C   0  0  0  0  0  0  0  0  0  0  0  0
   -3.2623    2.1011   -3.6543 N   0  0  0  0  0  0  0  0  0  0  0  0
   -0.7531    2.1927   -0.5314 H   0  0  0  0  0  0  0  0  0  0  0  0
   -1.3036   -0.5541   -0.4624 H   0  0  0  0  0  0  0  0  0  0  0  0
   -0.1223   -0.5997   -2.7534 H   0  0  0  0  0  0  0  0  0  0  0  0
    0.4086    1.0403   -2.4831 H   0  0  0  0  0  0  0  0  0  0  0  0
   -1.3845    3.0588   -3.2550 H   0  0  0  0  0  0  0  0  0  0  0  0
   -4.7073    0.5164   -3.7489 H   0  0  0  0  0  0  0  0  0  0  0  0
   -3.7976    2.8733   -4.0283 H   0  0  0  0  0  0  0  0  0  0  0  0
    1.8484    0.4226   -0.1141 N   0  0  0  0  0  0  0  0  0  0  0  0
    3.1880    0.0961    0.3191 C   0  0  2  0  0  0  0  0  0  0  0  0
    3.0826   -0.7053    1.6099 C   0  0  0  0  0  0  0  0  0  0  0  0
    2.1010   -0.6612    2.3486 O   0  0  0  0  0  0  0  0  0  0  0  0
    4.0242    1.3496    0.5243 C   0  0  0  0  0  0  0  0  0  0  0  0
    1.6403    1.3879   -0.3518 H   0  0  0  0  0  0  0  0  0  0  0  0
    3.6303   -0.5289   -0.4643 H   0  0  0  0  0  0  0  0  0  0  0  0
    3.5966    1.9884    1.3057 H   0  0  0  0  0  0  0  0  0  0  0  0
    5.0470    1.0996    0.8249 H   0  0  0  0  0  0  0  0  0  0  0  0
    4.0742    1.9399   -0.3971 H   0  0  0  0  0  0  0  0  0  0  0  0
    4.2314   -1.4421    1.8620 N   0  0  0  0  0  0  0  0  0  0  0  0
    4.3822   -2.2751    3.0322 C   0  0  0  0  0  0  0  0  0  0  0  0
    4.9889   -1.4339    1.1854 H   0  0  0  0  0  0  0  0  0  0  0  0
    4.8632   -1.6970    3.8350 H   0  0  0  0  0  0  0  0  0  0  0  0
    3.3923   -2.6166    3.3691 H   0  0  0  0  0  0  0  0  0  0  0  0
    5.0058   -3.1466    2.7839 H   0  0  0  0  0  0  0  0  0  0  0  0
 22 24  2  0  0  0  0
 24 26  1  0  0  0  0
 23 25  2  0  0  0  0
 25 26  1  0  0  0  0
 21 22  1  0  0  0  0
 22 23  1  0  0  0  0
  1  3  1  0  0  0  0
  1  7  1  0  0  0  0
  1  2  2  0  0  0  0
 35 36  1  0  0  0  0
 36 44  1  0  0  0  0
 36 37  2  0  0  0  0
  8  9  1  0  0  0  0
  9 17  1  0  0  0  0
  9 10  2  0  0  0  0
 18 19  1  0  0  0  0
 19 34  1  0  0  0  0
 19 20  2  0  0  0  0
 35 38  1  0  0  0  0
  8 11  1  0  0  0  0
 44 45  1  0  0  0  0
 18 21  1  0  0  0  0
 34 35  1  0  0  0  0
  7  8  1  0  0  0  0
 17 18  1  0  0  0  0
 24 31  1  0  0  0  0
 25 32  1  0  0  0  0
  3  4  1  0  0  0  0
  3  5  1  0  0  0  0
  3  6  1  0  0  0  0
 38 41  1  0  0  0  0
 38 42  1  0  0  0  0
 38 43  1  0  0  0  0
 11 14  1  0  0  0  0
 11 15  1  0  0  0  0
 11 16  1  0  0  0  0
 45 47  1  0  0  0  0
 45 48  1  0  0  0  0
 45 49  1  0  0  0  0
 21 29  1  0  0  0  0
 21 30  1  0  0  0  0
 35 40  1  0  0  0  0
  8 13  1  0  0  0  0
 18 28  1  0  0  0  0
 26 33  1  0  0  0  0
 44 46  1  0  0  0  0
  7 12  1  0  0  0  0
 34 39  1  0  0  0  0
 17 27  1  0  0  0  0
M  END
$$$$

  -OEChem-02062319033D

 49 49  0     1  0  0  0  0  0999 V2000
   -1.6183    0.5613    3.8201 C   0  0  0  0  0  0  0  0  0  0  0  0
   -0.6710   -0.0534    3.3444 O   0  0  0  0  0  0  0  0  0  0  0  0
   -2.0502    0.2789    5.2208 C   0  0  0  0  0  0  0  0  0  0  0  0
   -2.8099   -0.5175    5.2742 H   0  0  0  0  0  0  0  0  0  0  0  0
   -1.2190   -0.0687    5.8551 H   0  0  0  0  0  0  0  0  0  0  0  0
   -2.4882    1.1338    5.7604 H   0  0  0  0  0  0  0  0  0  0  0  0
   -2.3680    1.5337    3.1790 N   0  0  0  0  0  0  0  0  0  0  0  0
   -2.1212    1.9597    1.8266 C   0  0  2  0  0  0  0  0  0  0  0  0
   -0.7862    1.3744    1.3854 C   0  0  0  0  0  0  0  0  0  0  0  0
    0.0859    1.0216    2.1767 O   0  0  0  0  0  0  0  0  0  0  0  0
   -2.1124    3.4765    1.7171 C   0  0  0  0  0  0  0  0  0  0  0  0
   -3.1331    1.9695    3.6908 H   0  0  0  0  0  0  0  0  0  0  0  0
   -2.9253    1.5413    1.2115 H   0  0  0  0  0  0  0  0  0  0  0  0
   -1.3133    3.9138    2.3268 H   0  0  0  0  0  0  0  0  0  0  0  0
   -1.9529    3.7988    0.6829 H   0  0  0  0  0  0  0  0  0  0  0  0
   -3.0626    3.8977    2.0629 H   0  0  0  0  0  0  0  0  0  0  0  0
   -0.6635    1.3313    0.0020 N   0  0  0  0  0  0  0  0  0  0  0  0
   -0.7814    0.1099   -0.7540 C   0  0  2  0  0  0  0  0  0  0  0  0
    0.3080   -0.8343   -0.2583 C   0  0  0  0  0  0  0  0  0  0  0  0
    0.1138   -2.0304   -0.0519 O   0  0  0  0  0  0  0  0  0  0  0  0
   -0.6365    0.3460   -2.2618 C   0  0  0  0  0  0  0  0  0  0  0  0
   -1.7390    1.2083   -2.8262 C   0  0  0  0  0  0  0  0  0  0  0  0
   -2.9984    0.6966   -3.0153 N   0  0  0  0  0  0  0  0  0  0  0  0
   -1.6757    2.5267   -3.2113 C   0  0  0  0  0  0  0  0  0  0  0  0
   -3.6947    1.6955   -3.5106 C   0  0  0  0  0  0  0  0  0  0  0  0
   -2.9358    2.8245   -3.6479 N   0  0  0  0  0  0  0  0  0  0  0  0
   -0.5223    2.1981   -0.5111 H   0  0  0  0  0  0  0  0  0  0  0  0
   -1.7624   -0.3148   -0.5106 H   0  0  0  0  0  0  0  0  0  0  0  0
   -0.6077   -0.6134   -2.7960 H   0  0  0  0  0  0  0  0  0  0  0  0
    0.3248    0.8280   -2.4839 H   0  0  0  0  0  0  0  0  0  0  0  0
   -0.8792    3.2568   -3.2164 H   0  0  0  0  0  0  0  0  0  0  0  0
   -4.7391    1.6682   -3.7876 H   0  0  0  0  0  0  0  0  0  0  0  0
   -3.2500    3.7165   -4.0060 H   0  0  0  0  0  0  0  0  0  0  0  0
    1.5307   -0.1915   -0.1232 N   0  0  0  0  0  0  0  0  0  0  0  0
    2.7361   -0.8616    0.3089 C   0  0  2  0  0  0  0  0  0  0  0  0
    2.4137   -1.6367    1.5797 C   0  0  0  0  0  0  0  0  0  0  0  0
    1.4684   -1.3572    2.3142 O   0  0  0  0  0  0  0  0  0  0  0  0
    3.8647    0.1293    0.5482 C   0  0  0  0  0  0  0  0  0  0  0  0
    1.5809    0.7998   -0.3388 H   0  0  0  0  0  0  0  0  0  0  0  0
    3.0111   -1.5623   -0.4870 H   0  0  0  0  0  0  0  0  0  0  0  0
    3.6074    0.8395    1.3424 H   0  0  0  0  0  0  0  0  0  0  0  0
    4.7852   -0.3825    0.8478 H   0  0  0  0  0  0  0  0  0  0  0  0
    4.0752    0.7066   -0.3586 H   0  0  0  0  0  0  0  0  0  0  0  0
    3.3310   -2.6501    1.8198 N   0  0  0  0  0  0  0  0  0  0  0  0
    3.2492   -3.5191    2.9706 C   0  0  0  0  0  0  0  0  0  0  0  0
    4.0724   -2.8226    1.1474 H   0  0  0  0  0  0  0  0  0  0  0  0
    3.8540   -3.1021    3.7893 H   0  0  0  0  0  0  0  0  0  0  0  0
    2.2011   -3.6011    3.2942 H   0  0  0  0  0  0  0  0  0  0  0  0
    3.6300   -4.5162    2.7046 H   0  0  0  0  0  0  0  0  0  0  0  0
 22 24  2  0  0  0  0
 24 26  1  0  0  0  0
 23 25  2  0  0  0  0
 25 26  1  0  0  0  0
 21 22  1  0  0  0  0
 22 23  1  0  0  0  0
  1  3  1  0  0  0  0
  1  7  1  0  0  0  0
  1  2  2  0  0  0  0
 35 36  1  0  0  0  0
 36 44  1  0  0  0  0
 36 37  2  0  0  0  0
  8  9  1  0  0  0  0
  9 17  1  0  0  0  0
  9 10  2  0  0  0  0
 18 19  1  0  0  0  0
 19 34  1  0  0  0  0
 19 20  2  0  0  0  0
 35 38  1  0  0  0  0
  8 11  1  0  0  0  0
 44 45  1  0  0  0  0
 18 21  1  0  0  0  0
 34 35  1  0  0  0  0
  7  8  1  0  0  0  0
 17 18  1  0  0  0  0
 24 31  1  0  0  0  0
 25 32  1  0  0  0  0
  3  4  1  0  0  0  0
  3  5  1  0  0  0  0
  3  6  1  0  0  0  0
 38 41  1  0  0  0  0
 38 42  1  0  0  0  0
 38 43  1  0  0  0  0
 11 14  1  0  0  0  0
 11 15  1  0  0  0  0
 11 16  1  0  0  0  0
 45 47  1  0  0  0  0
 45 48  1  0  0  0  0
 45 49  1  0  0  0  0
 21 29  1  0  0  0  0
 21 30  1  0  0  0  0
 35 40  1  0  0  0  0
  8 13  1  0  0  0  0
 18 28  1  0  0  0  0
 26 33  1  0  0  0  0
 44 46  1  0  0  0  0
  7 12  1  0  0  0  0
 34 39  1  0  0  0  0
 17 27  1  0  0  0  0
M  END
$$$$

  -OEChem-02062319033D

 49 49  0     1  0  0  0  0  0999 V2000
   -1.6183    0.5613    3.8201 C   0  0  0  0  0  0  0  0  0  0  0  0
   -0.6710   -0.0534    3.3444 O   0  0  0  0  0  0  0  0  0  0  0  0
   -2.0502    0.2789    5.2208 C   0  0  0  0  0  0  0  0  0  0  0  0
   -2.8099   -0.5175    5.2742 H   0  0  0  0  0  0  0  0  0  0  0  0
   -1.2190   -0.0687    5.8551 H   0  0  0  0  0  0  0  0  0  0  0  0
   -2.4882    1.1338    5.7604 H   0  0  0  0  0  0  0  0  0  0  0  0
   -2.3680    1.5337    3.1790 N   0  0  0  0  0  0  0  0  0  0  0  0
   -2.1212    1.9597    1.8266 C   0  0  2  0  0  0  0  0  0  0  0  0
   -0.7862    1.3744    1.3854 C   0  0  0  0  0  0  0  0  0  0  0  0
    0.0859    1.0216    2.1767 O   0  0  0  0  0  0  0  0  0  0  0  0
   -2.1124    3.4765    1.7171 C   0  0  0  0  0  0  0  0  0  0  0  0
   -3.1331    1.9695    3.6908 H   0  0  0  0  0  0  0  0  0  0  0  0
   -2.9253    1.5413    1.2115 H   0  0  0  0  0  0  0  0  0  0  0  0
   -1.3133    3.9138    2.3268 H   0  0  0  0  0  0  0  0  0  0  0  0
   -1.9529    3.7988    0.6829 H   0  0  0  0  0  0  0  0  0  0  0  0
   -3.0626    3.8977    2.0629 H   0  0  0  0  0  0  0  0  0  0  0  0
   -0.6635    1.3313    0.0020 N   0  0  0  0  0  0  0  0  0  0  0  0
   -1.0837    0.1983   -0.7836 C   0  0  2  0  0  0  0  0  0  0  0  0
   -0.2798   -1.0054   -0.3051 C   0  0  0  0  0  0  0  0  0  0  0  0
   -0.7778   -2.1152   -0.1283 O   0  0  0  0  0  0  0  0  0  0  0  0
   -0.8662    0.4219   -2.2845 C   0  0  0  0  0  0  0  0  0  0  0  0
   -1.7032    1.5513   -2.8337 C   0  0  0  0  0  0  0  0  0  0  0  0
   -3.0497    1.3859   -3.0413 N   0  0  0  0  0  0  0  0  0  0  0  0
   -1.2981    2.8169   -3.1869 C   0  0  0  0  0  0  0  0  0  0  0  0
   -3.4596    2.5410   -3.5161 C   0  0  0  0  0  0  0  0  0  0  0  0
   -2.4341    3.4390   -3.6226 N   0  0  0  0  0  0  0  0  0  0  0  0
   -0.2982    2.1434   -0.4895 H   0  0  0  0  0  0  0  0  0  0  0  0
   -2.1436    0.0357   -0.5553 H   0  0  0  0  0  0  0  0  0  0  0  0
   -1.0796   -0.5006   -2.8414 H   0  0  0  0  0  0  0  0  0  0  0  0
    0.1892    0.6446   -2.4902 H   0  0  0  0  0  0  0  0  0  0  0  0
   -0.3404    3.3170   -3.1705 H   0  0  0  0  0  0  0  0  0  0  0  0
   -4.4727    2.7899   -3.7990 H   0  0  0  0  0  0  0  0  0  0  0  0
   -2.5039    4.3894   -3.9608 H   0  0  0  0  0  0  0  0  0  0  0  0
    1.0657   -0.7026   -0.1485 N   0  0  0  0  0  0  0  0  0  0  0  0
    2.0529   -1.6700    0.2735 C   0  0  2  0  0  0  0  0  0  0  0  0
    1.5277   -2.3632    1.5238 C   0  0  0  0  0  0  0  0  0  0  0  0
    0.6784   -1.8656    2.2600 O   0  0  0  0  0  0  0  0  0  0  0  0
    3.3959   -1.0090    0.5421 C   0  0  0  0  0  0  0  0  0  0  0  0
    1.3718    0.2468   -0.3401 H   0  0  0  0  0  0  0  0  0  0  0  0
    2.1469   -2.4004   -0.5375 H   0  0  0  0  0  0  0  0  0  0  0  0
    3.3216   -0.2739    1.3518 H   0  0  0  0  0  0  0  0  0  0  0  0
    4.1502   -1.7472    0.8341 H   0  0  0  0  0  0  0  0  0  0  0  0
    3.7580   -0.4858   -0.3495 H   0  0  0  0  0  0  0  0  0  0  0  0
    2.1503   -3.5839    1.7443 N   0  0  0  0  0  0  0  0  0  0  0  0
    1.8348   -4.4273    2.8735 C   0  0  0  0  0  0  0  0  0  0  0  0
    2.8297   -3.9270    1.0716 H   0  0  0  0  0  0  0  0  0  0  0  0
    2.5175   -4.1983    3.7050 H   0  0  0  0  0  0  0  0  0  0  0  0
    0.7974   -4.2434    3.1897 H   0  0  0  0  0  0  0  0  0  0  0  0
    1.9487   -5.4828    2.5857 H   0  0  0  0  0  0  0  0  0  0  0  0
 22 24  2  0  0  0  0
 24 26  1  0  0  0  0
 23 25  2  0  0  0  0
 25 26  1  0  0  0  0
 21 22  1  0  0  0  0
 22 23  1  0  0  0  0
  1  3  1  0  0  0  0
  1  7  1  0  0  0  0
  1  2  2  0  0  0  0
 35 36  1  0  0  0  0
 36 44  1  0  0  0  0
 36 37  2  0  0  0  0
  8  9  1  0  0  0  0
  9 17  1  0  0  0  0
  9 10  2  0  0  0  0
 18 19  1  0  0  0  0
 19 34  1  0  0  0  0
 19 20  2  0  0  0  0
 35 38  1  0  0  0  0
  8 11  1  0  0  0  0
 44 45  1  0  0  0  0
 18 21  1  0  0  0  0
 34 35  1  0  0  0  0
  7  8  1  0  0  0  0
 17 18  1  0  0  0  0
 24 31  1  0  0  0  0
 25 32  1  0  0  0  0
  3  4  1  0  0  0  0
  3  5  1  0  0  0  0
  3  6  1  0  0  0  0
 38 41  1  0  0  0  0
 38 42  1  0  0  0  0
 38 43  1  0  0  0  0
 11 14  1  0  0  0  0
 11 15  1  0  0  0  0
 11 16  1  0  0  0  0
 45 47  1  0  0  0  0
 45 48  1  0  0  0  0
 45 49  1  0  0  0  0
 21 29  1  0  0  0  0
 21 30  1  0  0  0  0
 35 40  1  0  0  0  0
  8 13  1  0  0  0  0
 18 28  1  0  0  0  0
 26 33  1  0  0  0  0
 44 46  1  0  0  0  0
  7 12  1  0  0  0  0
 34 39  1  0  0  0  0
 17 27  1  0  0  0  0
M  END
$$$$

  -OEChem-02062319033D

 49 49  0     1  0  0  0  0  0999 V2000
   -1.6183    0.5613    3.8201 C   0  0  0  0  0  0  0  0  0  0  0  0
   -0.6710   -0.0534    3.3444 O   0  0  0  0  0  0  0  0  0  0  0  0
   -2.0502    0.2789    5.2208 C   0  0  0  0  0  0  0  0  0  0  0  0
   -2.8099   -0.5175    5.2742 H   0  0  0  0  0  0  0  0  0  0  0  0
   -1.2190   -0.0687    5.8551 H   0  0  0  0  0  0  0  0  0  0  0  0
   -2.4882    1.1338    5.7604 H   0  0  0  0  0  0  0  0  0  0  0  0
   -2.3680    1.5337    3.1790 N   0  0  0  0  0  0  0  0  0  0  0  0
   -2.1212    1.9597    1.8266 C   0  0  2  0  0  0  0  0  0  0  0  0
   -0.7862    1.3744    1.3854 C   0  0  0  0  0  0  0  0  0  0  0  0
    0.0859    1.0216    2.1767 O   0  0  0  0  0  0  0  0  0  0  0  0
   -2.1124    3.4765    1.7171 C   0  0  0  0  0  0  0  0  0  0  0  0
   -3.1331    1.9695    3.6908 H   0  0  0  0  0  0  0  0  0  0  0  0
   -2.9253    1.5413    1.2115 H   0  0  0  0  0  0  0  0  0  0  0  0
   -1.3133    3.9138    2.3268 H   0  0  0  0  0  0  0  0  0  0  0  0
   -1.9529    3.7988    0.6829 H   0  0  0  0  0  0  0  0  0  0  0  0
   -3.0626    3.8977    2.0629 H   0  0  0  0  0  0  0  0  0  0  0  0
   -0.6635    1.3313    0.0020 N   0  0  0  0  0  0  0  0  0  0  0  0
   -1.3527    0.3623   -0.8126 C   0  0  2  0  0  0  0  0  0  0  0  0
   -0.8913   -1.0181   -0.3589 C   0  0  0  0  0  0  0  0  0  0  0  0
   -1.6602   -1.9656   -0.2112 O   0  0  0  0  0  0  0  0  0  0  0  0
   -1.0684    0.5549   -2.3066 C   0  0  0  0  0  0  0  0  0  0  0  0
   -1.5801    1.8736   -2.8328 C   0  0  0  0  0  0  0  0  0  0  0  0
   -2.9214    2.0654   -3.0511 N   0  0  0  0  0  0  0  0  0  0  0  0
   -0.8588    2.9994   -3.1536 C   0  0  0  0  0  0  0  0  0  0  0  0
   -3.0147    3.2973   -3.5003 C   0  0  0  0  0  0  0  0  0  0  0  0
   -1.7914    3.9026   -3.5801 N   0  0  0  0  0  0  0  0  0  0  0  0
   -0.0959    2.0322   -0.4681 H   0  0  0  0  0  0  0  0  0  0  0  0
   -2.4212    0.4735   -0.5935 H   0  0  0  0  0  0  0  0  0  0  0  0
   -1.5061   -0.2690   -2.8864 H   0  0  0  0  0  0  0  0  0  0  0  0
    0.0109    0.5024   -2.5016 H   0  0  0  0  0  0  0  0  0  0  0  0
    0.1951    3.2353   -3.1205 H   0  0  0  0  0  0  0  0  0  0  0  0
   -3.9263    3.8050   -3.7822 H   0  0  0  0  0  0  0  0  0  0  0  0
   -1.6103    4.8461   -3.8958 H   0  0  0  0  0  0  0  0  0  0  0  0
    0.4850   -1.0758   -0.1883 N   0  0  0  0  0  0  0  0  0  0  0  0
    1.1850   -2.2740    0.2154 C   0  0  2  0  0  0  0  0  0  0  0  0
    0.4852   -2.8355    1.4460 C   0  0  0  0  0  0  0  0  0  0  0  0
   -0.2154   -2.1519    2.1897 O   0  0  0  0  0  0  0  0  0  0  0  0
    2.6499   -1.9875    0.5064 C   0  0  0  0  0  0  0  0  0  0  0  0
    1.0275   -0.2335   -0.3556 H   0  0  0  0  0  0  0  0  0  0  0  0
    1.0966   -2.9860   -0.6124 H   0  0  0  0  0  0  0  0  0  0  0  0
    2.7585   -1.2760    1.3331 H   0  0  0  0  0  0  0  0  0  0  0  0
    3.1853   -2.9014    0.7845 H   0  0  0  0  0  0  0  0  0  0  0  0
    3.1444   -1.5561   -0.3706 H   0  0  0  0  0  0  0  0  0  0  0  0
    0.7699   -4.1799    1.6405 N   0  0  0  0  0  0  0  0  0  0  0  0
    0.2353   -4.9378    2.7476 C   0  0  0  0  0  0  0  0  0  0  0  0
    1.3453   -4.6718    0.9632 H   0  0  0  0  0  0  0  0  0  0  0  0
    0.9448   -4.9107    3.5877 H   0  0  0  0  0  0  0  0  0  0  0  0
   -0.7231   -4.4997    3.0629 H   0  0  0  0  0  0  0  0  0  0  0  0
    0.0767   -5.9806    2.4352 H   0  0  0  0  0  0  0  0  0  0  0  0
 22 24  2  0  0  0  0
 24 26  1  0  0  0  0
 23 25  2  0  0  0  0
 25 26  1  0  0  0  0
 21 22  1  0  0  0  0
 22 23  1  0  0  0  0
  1  3  1  0  0  0  0
  1  7  1  0  0  0  0
  1  2  2  0  0  0  0
 35 36  1  0  0  0  0
 36 44  1  0  0  0  0
 36 37  2  0  0  0  0
  8  9  1  0  0  0  0
  9 17  1  0  0  0  0
  9 10  2  0  0  0  0
 18 19  1  0  0  0  0
 19 34  1  0  0  0  0
 19 20  2  0  0  0  0
 35 38  1  0  0  0  0
  8 11  1  0  0  0  0
 44 45  1  0  0  0  0
 18 21  1  0  0  0  0
 34 35  1  0  0  0  0
  7  8  1  0  0  0  0
 17 18  1  0  0  0  0
 24 31  1  0  0  0  0
 25 32  1  0  0  0  0
  3  4  1  0  0  0  0
  3  5  1  0  0  0  0
  3  6  1  0  0  0  0
 38 41  1  0  0  0  0
 38 42  1  0  0  0  0
 38 43  1  0  0  0  0
 11 14  1  0  0  0  0
 11 15  1  0  0  0  0
 11 16  1  0  0  0  0
 45 47  1  0  0  0  0
 45 48  1  0  0  0  0
 45 49  1  0  0  0  0
 21 29  1  0  0  0  0
 21 30  1  0  0  0  0
 35 40  1  0  0  0  0
  8 13  1  0  0  0  0
 18 28  1  0  0  0  0
 26 33  1  0  0  0  0
 44 46  1  0  0  0  0
  7 12  1  0  0  0  0
 34 39  1  0  0  0  0
 17 27  1  0  0  0  0
M  END
$$$$

  -OEChem-02062319033D

 49 49  0     1  0  0  0  0  0999 V2000
   -1.6183    0.5613    3.8201 C   0  0  0  0  0  0  0  0  0  0  0  0
   -0.6710   -0.0534    3.3444 O   0  0  0  0  0  0  0  0  0  0  0  0
   -2.0502    0.2789    5.2208 C   0  0  0  0  0  0  0  0  0  0  0  0
   -2.8099   -0.5175    5.2742 H   0  0  0  0  0  0  0  0  0  0  0  0
   -1.2190   -0.0687    5.8551 H   0  0  0  0  0  0  0  0  0  0  0  0
   -2.4882    1.1338    5.7604 H   0  0  0  0  0  0  0  0  0  0  0  0
   -2.3680    1.5337    3.1790 N   0  0  0  0  0  0  0  0  0  0  0  0
   -2.1212    1.9597    1.8266 C   0  0  2  0  0  0  0  0  0  0  0  0
   -0.7862    1.3744    1.3854 C   0  0  0  0  0  0  0  0  0  0  0  0
    0.0859    1.0216    2.1767 O   0  0  0  0  0  0  0  0  0  0  0  0
   -2.1124    3.4765    1.7171 C   0  0  0  0  0  0  0  0  0  0  0  0
   -3.1331    1.9695    3.6908 H   0  0  0  0  0  0  0  0  0  0  0  0
   -2.9253    1.5413    1.2115 H   0  0  0  0  0  0  0  0  0  0  0  0
   -1.3133    3.9138    2.3268 H   0  0  0  0  0  0  0  0  0  0  0  0
   -1.9529    3.7988    0.6829 H   0  0  0  0  0  0  0  0  0  0  0  0
   -3.0626    3.8977    2.0629 H   0  0  0  0  0  0  0  0  0  0  0  0
   -0.6635    1.3313    0.0020 N   0  0  0  0  0  0  0  0  0  0  0  0
   -1.5700    0.5907   -0.8389 C   0  0  2  0  0  0  0  0  0  0  0  0
   -1.4848   -0.8715   -0.4161 C   0  0  0  0  0  0  0  0  0  0  0  0
   -2.4734   -1.5918   -0.2949 O   0  0  0  0  0  0  0  0  0  0  0  0
   -1.2293    0.7360   -2.3265 C   0  0  0  0  0  0  0  0  0  0  0  0
   -1.3781    2.1532   -2.8236 C   0  0  0  0  0  0  0  0  0  0  0  0
   -2.6223    2.6890   -3.0440 N   0  0  0  0  0  0  0  0  0  0  0  0
   -0.3877    3.0617   -3.1138 C   0  0  0  0  0  0  0  0  0  0  0  0
   -2.3902    3.9128   -3.4641 C   0  0  0  0  0  0  0  0  0  0  0  0
   -1.0514    4.1839   -3.5232 N   0  0  0  0  0  0  0  0  0  0  0  0
    0.0706    1.8723   -0.4484 H   0  0  0  0  0  0  0  0  0  0  0  0
   -2.5762    0.9687   -0.6227 H   0  0  0  0  0  0  0  0  0  0  0  0
   -1.8580    0.0656   -2.9281 H   0  0  0  0  0  0  0  0  0  0  0  0
   -0.1978    0.4114   -2.5172 H   0  0  0  0  0  0  0  0  0  0  0  0
    0.6910    3.0172   -3.0697 H   0  0  0  0  0  0  0  0  0  0  0  0
   -3.1371    4.6444   -3.7383 H   0  0  0  0  0  0  0  0  0  0  0  0
   -0.6299    5.0554   -3.8154 H   0  0  0  0  0  0  0  0  0  0  0  0
   -0.1718   -1.2858   -0.2400 N   0  0  0  0  0  0  0  0  0  0  0  0
    0.1915   -2.6325    0.1385 C   0  0  2  0  0  0  0  0  0  0  0  0
   -0.6429   -3.0212    1.3518 C   0  0  0  0  0  0  0  0  0  0  0  0
   -1.1519   -2.1965    2.1080 O   0  0  0  0  0  0  0  0  0  0  0  0
    1.6774   -2.7397    0.4437 C   0  0  0  0  0  0  0  0  0  0  0  0
    0.5712   -0.6083   -0.3844 H   0  0  0  0  0  0  0  0  0  0  0  0
   -0.0682   -3.2794   -0.7065 H   0  0  0  0  0  0  0  0  0  0  0  0
    1.9565   -2.0984    1.2876 H   0  0  0  0  0  0  0  0  0  0  0  0
    1.9562   -3.7665    0.7025 H   0  0  0  0  0  0  0  0  0  0  0  0
    2.2760   -2.4313   -0.4203 H   0  0  0  0  0  0  0  0  0  0  0  0
   -0.7162   -4.3975    1.5155 N   0  0  0  0  0  0  0  0  0  0  0  0
   -1.4402   -5.0160    2.6014 C   0  0  0  0  0  0  0  0  0  0  0  0
   -0.2795   -5.0062    0.8296 H   0  0  0  0  0  0  0  0  0  0  0  0
   -0.7570   -5.1910    3.4456 H   0  0  0  0  0  0  0  0  0  0  0  0
   -2.2568   -4.3526    2.9223 H   0  0  0  0  0  0  0  0  0  0  0  0
   -1.8586   -5.9755    2.2635 H   0  0  0  0  0  0  0  0  0  0  0  0
 22 24  2  0  0  0  0
 24 26  1  0  0  0  0
 23 25  2  0  0  0  0
 25 26  1  0  0  0  0
 21 22  1  0  0  0  0
 22 23  1  0  0  0  0
  1  3  1  0  0  0  0
  1  7  1  0  0  0  0
  1  2  2  0  0  0  0
 35 36  1  0  0  0  0
 36 44  1  0  0  0  0
 36 37  2  0  0  0  0
  8  9  1  0  0  0  0
  9 17  1  0  0  0  0
  9 10  2  0  0  0  0
 18 19  1  0  0  0  0
 19 34  1  0  0  0  0
 19 20  2  0  0  0  0
 35 38  1  0  0  0  0
  8 11  1  0  0  0  0
 44 45  1  0  0  0  0
 18 21  1  0  0  0  0
 34 35  1  0  0  0  0
  7  8  1  0  0  0  0
 17 18  1  0  0  0  0
 24 31  1  0  0  0  0
 25 32  1  0  0  0  0
  3  4  1  0  0  0  0
  3  5  1  0  0  0  0
  3  6  1  0  0  0  0
 38 41  1  0  0  0  0
 38 42  1  0  0  0  0
 38 43  1  0  0  0  0
 11 14  1  0  0  0  0
 11 15  1  0  0  0  0
 11 16  1  0  0  0  0
 45 47  1  0  0  0  0
 45 48  1  0  0  0  0
 45 49  1  0  0  0  0
 21 29  1  0  0  0  0
 21 30  1  0  0  0  0
 35 40  1  0  0  0  0
  8 13  1  0  0  0  0
 18 28  1  0  0  0  0
 26 33  1  0  0  0  0
 44 46  1  0  0  0  0
  7 12  1  0  0  0  0
 34 39  1  0  0  0  0
 17 27  1  0  0  0  0
M  END
$$$$

  -OEChem-02062319033D

 49 49  0     1  0  0  0  0  0999 V2000
   -1.6183    0.5613    3.8201 C   0  0  0  0  0  0  0  0  0  0  0  0
   -0.6710   -0.0534    3.3444 O   0  0  0  0  0  0  0  0  0  0  0  0
   -2.0502    0.2789    5.2208 C   0  0  0  0  0  0  0  0  0  0  0  0
   -2.8099   -0.5175    5.2742 H   0  0  0  0  0  0  0  0  0  0  0  0
   -1.2190   -0.0687    5.8551 H   0  0  0  0  0  0  0  0  0  0  0  0
   -2.4882    1.1338    5.7604 H   0  0  0  0  0  0  0  0  0  0  0  0
   -2.3680    1.5337    3.1790 N   0  0  0  0  0  0  0  0  0  0  0  0
   -2.1212    1.9597    1.8266 C   0  0  2  0  0  0  0  0  0  0  0  0
   -0.7862    1.3744    1.3854 C   0  0  0  0  0  0  0  0  0  0  0  0
    0.0859    1.0216    2.1767 O   0  0  0  0  0  0  0  0  0  0  0  0
   -2.1124    3.4765    1.7171 C   0  0  0  0  0  0  0  0  0  0  0  0
   -3.1331    1.9695    3.6908 H   0  0  0  0  0  0  0  0  0  0  0  0
   -2.9253    1.5413    1.2115 H   0  0  0  0  0  0  0  0  0  0  0  0
   -1.3133    3.9138    2.3268 H   0  0  0  0  0  0  0  0  0  0  0  0
   -1.9529    3.7988    0.6829 H   0  0  0  0  0  0  0  0  0  0  0  0
   -3.0626    3.8977    2.0629 H   0  0  0  0  0  0  0  0  0  0  0  0
   -0.6635    1.3313    0.0020 N   0  0  0  0  0  0  0  0  0  0  0  0
   -1.7209    0.8679   -0.8609 C   0  0  2  0  0  0  0  0  0  0  0  0
   -2.0198   -0.5757   -0.4727 C   0  0  0  0  0  0  0  0  0  0  0  0
   -3.1619   -1.0192   -0.3738 O   0  0  0  0  0  0  0  0  0  0  0  0
   -1.3378    0.9528   -2.3429 C   0  0  0  0  0  0  0  0  0  0  0  0
   -1.1111    2.3710   -2.8067 C   0  0  0  0  0  0  0  0  0  0  0  0
   -2.1727    3.2141   -3.0205 N   0  0  0  0  0  0  0  0  0  0  0  0
    0.0830    2.9997   -3.0701 C   0  0  0  0  0  0  0  0  0  0  0  0
   -1.6286    4.3455   -3.4100 C   0  0  0  0  0  0  0  0  0  0  0  0
   -0.2646    4.2636   -3.4559 N   0  0  0  0  0  0  0  0  0  0  0  0
    0.1902    1.6744   -0.4316 H   0  0  0  0  0  0  0  0  0  0  0  0
   -2.5980    1.4877   -0.6408 H   0  0  0  0  0  0  0  0  0  0  0  0
   -2.1113    0.4804   -2.9634 H   0  0  0  0  0  0  0  0  0  0  0  0
   -0.4227    0.3775   -2.5361 H   0  0  0  0  0  0  0  0  0  0  0  0
    1.1133    2.6776   -3.0217 H   0  0  0  0  0  0  0  0  0  0  0  0
   -2.1588    5.2507   -3.6705 H   0  0  0  0  0  0  0  0  0  0  0  0
    0.3703    5.0032   -3.7251 H   0  0  0  0  0  0  0  0  0  0  0  0
   -0.8599   -1.3182   -0.3000 N   0  0  0  0  0  0  0  0  0  0  0  0
   -0.8600   -2.7209    0.0480 C   0  0  2  0  0  0  0  0  0  0  0  0
   -1.7796   -2.9078    1.2475 C   0  0  0  0  0  0  0  0  0  0  0  0
   -2.0673   -1.9965    2.0206 O   0  0  0  0  0  0  0  0  0  0  0  0
    0.5448   -3.2142    0.3580 C   0  0  0  0  0  0  0  0  0  0  0  0
    0.0341   -0.8522   -0.4244 H   0  0  0  0  0  0  0  0  0  0  0  0
   -1.2682   -3.2605   -0.8135 H   0  0  0  0  0  0  0  0  0  0  0  0
    0.9703   -2.6850    1.2185 H   0  0  0  0  0  0  0  0  0  0  0  0
    0.5468   -4.2835    0.5936 H   0  0  0  0  0  0  0  0  0  0  0  0
    1.2121   -3.0517   -0.4953 H   0  0  0  0  0  0  0  0  0  0  0  0
   -2.2068   -4.2219    1.3778 N   0  0  0  0  0  0  0  0  0  0  0  0
   -3.0776   -4.6563    2.4451 C   0  0  0  0  0  0  0  0  0  0  0  0
   -1.9341   -4.9075    0.6798 H   0  0  0  0  0  0  0  0  0  0  0  0
   -2.4719   -5.0199    3.2882 H   0  0  0  0  0  0  0  0  0  0  0  0
   -3.6993   -3.8120    2.7776 H   0  0  0  0  0  0  0  0  0  0  0  0
   -3.7253   -5.4680    2.0822 H   0  0  0  0  0  0  0  0  0  0  0  0
 22 24  2  0  0  0  0
 24 26  1  0  0  0  0
 23 25  2  0  0  0  0
 25 26  1  0  0  0  0
 21 22  1  0  0  0  0
 22 23  1  0  0  0  0
  1  3  1  0  0  0  0
  1  7  1  0  0  0  0
  1  2  2  0  0  0  0
 35 36  1  0  0  0  0
 36 44  1  0  0  0  0
 36 37  2  0  0  0  0
  8  9  1  0  0  0  0
  9 17  1  0  0  0  0
  9 10  2  0  0  0  0
 18 19  1  0  0  0  0
 19 34  1  0  0  0  0
 19 20  2  0  0  0  0
 35 38  1  0  0  0  0
  8 11  1  0  0  0  0
 44 45  1  0  0  0  0
 18 21  1  0  0  0  0
 34 35  1  0  0  0  0
  7  8  1  0  0  0  0
 17 18  1  0  0  0  0
 24 31  1  0  0  0  0
 25 32  1  0  0  0  0
  3  4  1  0  0  0  0
  3  5  1  0  0  0  0
  3  6  1  0  0  0  0
 38 41  1  0  0  0  0
 38 42  1  0  0  0  0
 38 43  1  0  0  0  0
 11 14  1  0  0  0  0
 11 15  1  0  0  0  0
 11 16  1  0  0  0  0
 45 47  1  0  0  0  0
 45 48  1  0  0  0  0
 45 49  1  0  0  0  0
 21 29  1  0  0  0  0
 21 30  1  0  0  0  0
 35 40  1  0  0  0  0
  8 13  1  0  0  0  0
 18 28  1  0  0  0  0
 26 33  1  0  0  0  0
 44 46  1  0  0  0  0
  7 12  1  0  0  0  0
 34 39  1  0  0  0  0
 17 27  1  0  0  0  0
M  END
$$$$

  -OEChem-02062319033D

 49 49  0     1  0  0  0  0  0999 V2000
   -1.6183    0.5613    3.8201 C   0  0  0  0  0  0  0  0  0  0  0  0
   -0.6710   -0.0534    3.3444 O   0  0  0  0  0  0  0  0  0  0  0  0
   -2.0502    0.2789    5.2208 C   0  0  0  0  0  0  0  0  0  0  0  0
   -2.8099   -0.5175    5.2742 H   0  0  0  0  0  0  0  0  0  0  0  0
   -1.2190   -0.0687    5.8551 H   0  0  0  0  0  0  0  0  0  0  0  0
   -2.4882    1.1338    5.7604 H   0  0  0  0  0  0  0  0  0  0  0  0
   -2.3680    1.5337    3.1790 N   0  0  0  0  0  0  0  0  0  0  0  0
   -2.1212    1.9597    1.8266 C   0  0  2  0  0  0  0  0  0  0  0  0
   -0.7862    1.3744    1.3854 C   0  0  0  0  0  0  0  0  0  0  0  0
    0.0859    1.0216    2.1767 O   0  0  0  0  0  0  0  0  0  0  0  0
   -2.1124    3.4765    1.7171 C   0  0  0  0  0  0  0  0  0  0  0  0
   -3.1331    1.9695    3.6908 H   0  0  0  0  0  0  0  0  0  0  0  0
   -2.9253    1.5413    1.2115 H   0  0  0  0  0  0  0  0  0  0  0  0
   -1.3133    3.9138    2.3268 H   0  0  0  0  0  0  0  0  0  0  0  0
   -1.9529    3.7988    0.6829 H   0  0  0  0  0  0  0  0  0  0  0  0
   -3.0626    3.8977    2.0629 H   0  0  0  0  0  0  0  0  0  0  0  0
   -0.6635    1.3313    0.0020 N   0  0  0  0  0  0  0  0  0  0  0  0
   -1.7950    1.1750   -0.8771 C   0  0  2  0  0  0  0  0  0  0  0  0
   -2.4599   -0.1509   -0.5250 C   0  0  0  0  0  0  0  0  0  0  0  0
   -3.6788   -0.2870   -0.4424 O   0  0  0  0  0  0  0  0  0  0  0  0
   -1.3866    1.1906   -2.3546 C   0  0  0  0  0  0  0  0  0  0  0  0
   -0.7972    2.5122   -2.7833 C   0  0  0  0  0  0  0  0  0  0  0  0
   -1.6034    3.6049   -2.9822 N   0  0  0  0  0  0  0  0  0  0  0  0
    0.5214    2.8174   -3.0256 C   0  0  0  0  0  0  0  0  0  0  0  0
   -0.7819    4.5660   -3.3418 C   0  0  0  0  0  0  0  0  0  0  0  0
    0.5154    4.1363   -3.3828 N   0  0  0  0  0  0  0  0  0  0  0  0
    0.2545    1.4522   -0.4190 H   0  0  0  0  0  0  0  0  0  0  0  0
   -2.4852    1.9950   -0.6466 H   0  0  0  0  0  0  0  0  0  0  0  0
   -2.2489    0.9472   -2.9902 H   0  0  0  0  0  0  0  0  0  0  0  0
   -0.6485    0.4032   -2.5569 H   0  0  0  0  0  0  0  0  0  0  0  0
    1.4334    2.2396   -2.9796 H   0  0  0  0  0  0  0  0  0  0  0  0
   -1.0581    5.5828   -3.5833 H   0  0  0  0  0  0  0  0  0  0  0  0
    1.3223    4.6929   -3.6311 H   0  0  0  0  0  0  0  0  0  0  0  0
   -1.5324   -1.1708   -0.3642 N   0  0  0  0  0  0  0  0  0  0  0  0
   -1.8976   -2.5333   -0.0498 C   0  0  2  0  0  0  0  0  0  0  0  0
   -2.8476   -2.5030    1.1402 C   0  0  0  0  0  0  0  0  0  0  0  0
   -2.8993   -1.5653    1.9334 O   0  0  0  0  0  0  0  0  0  0  0  0
   -0.6709   -3.3787    0.2554 C   0  0  0  0  0  0  0  0  0  0  0  0
   -0.5473   -0.9484   -0.4730 H   0  0  0  0  0  0  0  0  0  0  0  0
   -2.4216   -2.9305   -0.9261 H   0  0  0  0  0  0  0  0  0  0  0  0
   -0.1329   -2.9960    1.1304 H   0  0  0  0  0  0  0  0  0  0  0  0
   -0.9470   -4.4173    0.4654 H   0  0  0  0  0  0  0  0  0  0  0  0
    0.0251   -3.3752   -0.5904 H   0  0  0  0  0  0  0  0  0  0  0  0
   -3.6002   -3.6650    1.2369 N   0  0  0  0  0  0  0  0  0  0  0  0
   -4.5653   -3.8835    2.2891 C   0  0  0  0  0  0  0  0  0  0  0  0
   -3.5057   -4.3824    0.5241 H   0  0  0  0  0  0  0  0  0  0  0  0
   -4.0830   -4.4092    3.1263 H   0  0  0  0  0  0  0  0  0  0  0  0
   -4.9521   -2.9149    2.6386 H   0  0  0  0  0  0  0  0  0  0  0  0
   -5.3961   -4.4926    1.9036 H   0  0  0  0  0  0  0  0  0  0  0  0
 22 24  2  0  0  0  0
 24 26  1  0  0  0  0
 23 25  2  0  0  0  0
 25 26  1  0  0  0  0
 21 22  1  0  0  0  0
 22 23  1  0  0  0  0
  1  3  1  0  0  0  0
  1  7  1  0  0  0  0
  1  2  2  0  0  0  0
 35 36  1  0  0  0  0
 36 44  1  0  0  0  0
 36 37  2  0  0  0  0
  8  9  1  0  0  0  0
  9 17  1  0  0  0  0
  9 10  2  0  0  0  0
 18 19  1  0  0  0  0
 19 34  1  0  0  0  0
 19 20  2  0  0  0  0
 35 38  1  0  0  0  0
  8 11  1  0  0  0  0
 44 45  1  0  0  0  0
 18 21  1  0  0  0  0
 34 35  1  0  0  0  0
  7  8  1  0  0  0  0
 17 18  1  0  0  0  0
 24 31  1  0  0  0  0
 25 32  1  0  0  0  0
  3  4  1  0  0  0  0
  3  5  1  0  0  0  0
  3  6  1  0  0  0  0
 38 41  1  0  0  0  0
 38 42  1  0  0  0  0
 38 43  1  0  0  0  0
 11 14  1  0  0  0  0
 11 15  1  0  0  0  0
 11 16  1  0  0  0  0
 45 47  1  0  0  0  0
 45 48  1  0  0  0  0
 45 49  1  0  0  0  0
 21 29  1  0  0  0  0
 21 30  1  0  0  0  0
 35 40  1  0  0  0  0
  8 13  1  0  0  0  0
 18 28  1  0  0  0  0
 26 33  1  0  0  0  0
 44 46  1  0  0  0  0
  7 12  1  0  0  0  0
 34 39  1  0  0  0  0
 17 27  1  0  0  0  0
M  END
$$$$

  -OEChem-02062319033D

 49 49  0     1  0  0  0  0  0999 V2000
   -1.6183    0.5613    3.8201 C   0  0  0  0  0  0  0  0  0  0  0  0
   -0.6710   -0.0534    3.3444 O   0  0  0  0  0  0  0  0  0  0  0  0
   -2.0502    0.2789    5.2208 C   0  0  0  0  0  0  0  0  0  0  0  0
   -2.8099   -0.5175    5.2742 H   0  0  0  0  0  0  0  0  0  0  0  0
   -1.2190   -0.0687    5.8551 H   0  0  0  0  0  0  0  0  0  0  0  0
   -2.4882    1.1338    5.7604 H   0  0  0  0  0  0  0  0  0  0  0  0
   -2.3680    1.5337    3.1790 N   0  0  0  0  0  0  0  0  0  0  0  0
   -2.1212    1.9597    1.8266 C   0  0  2  0  0  0  0  0  0  0  0  0
   -0.7862    1.3744    1.3854 C   0  0  0  0  0  0  0  0  0  0  0  0
    0.0859    1.0216    2.1767 O   0  0  0  0  0  0  0  0  0  0  0  0
   -2.1124    3.4765    1.7171 C   0  0  0  0  0  0  0  0  0  0  0  0
   -3.1331    1.9695    3.6908 H   0  0  0  0  0  0  0  0  0  0  0  0
   -2.9253    1.5413    1.2115 H   0  0  0  0  0  0  0  0  0  0  0  0
   -1.3133    3.9138    2.3268 H   0  0  0  0  0  0  0  0  0  0  0  0
   -1.9529    3.7988    0.6829 H   0  0  0  0  0  0  0  0  0  0  0  0
   -3.0626    3.8977    2.0629 H   0  0  0  0  0  0  0  0  0  0  0  0
   -0.6635    1.3313    0.0020 N   0  0  0  0  0  0  0  0  0  0  0  0
   -1.7873    1.4912   -0.8863 C   0  0  2  0  0  0  0  0  0  0  0  0
   -2.7752    0.3741   -0.5693 C   0  0  0  0  0  0  0  0  0  0  0  0
   -3.9888    0.5550   -0.4962 O   0  0  0  0  0  0  0  0  0  0  0  0
   -1.3724    1.4332   -2.3609 C   0  0  0  0  0  0  0  0  0  0  0  0
   -0.4577    2.5671   -2.7549 C   0  0  0  0  0  0  0  0  0  0  0  0
   -0.9531    3.8348   -2.9317 N   0  0  0  0  0  0  0  0  0  0  0  0
    0.8975    2.5273   -2.9832 C   0  0  0  0  0  0  0  0  0  0  0  0
    0.0922    4.5593   -3.2641 C   0  0  0  0  0  0  0  0  0  0  0  0
    1.2354    3.8107   -3.3088 N   0  0  0  0  0  0  0  0  0  0  0  0
    0.2592    1.2206   -0.4113 H   0  0  0  0  0  0  0  0  0  0  0  0
   -2.2455    2.4562   -0.6397 H   0  0  0  0  0  0  0  0  0  0  0  0
   -2.2612    1.4341   -3.0065 H   0  0  0  0  0  0  0  0  0  0  0  0
   -0.8599    0.4867   -2.5783 H   0  0  0  0  0  0  0  0  0  0  0  0
    1.6293    1.7331   -2.9465 H   0  0  0  0  0  0  0  0  0  0  0  0
    0.0899    5.6179   -3.4826 H   0  0  0  0  0  0  0  0  0  0  0  0
    2.1612    4.1457   -3.5396 H   0  0  0  0  0  0  0  0  0  0  0  0
   -2.1435   -0.8537   -0.4283 N   0  0  0  0  0  0  0  0  0  0  0  0
   -2.8508   -2.0825   -0.1484 C   0  0  2  0  0  0  0  0  0  0  0  0
   -3.7739   -1.8343    1.0372 C   0  0  0  0  0  0  0  0  0  0  0  0
   -3.5912   -0.9325    1.8523 O   0  0  0  0  0  0  0  0  0  0  0  0
   -1.8867   -3.2220    0.1427 C   0  0  0  0  0  0  0  0  0  0  0  0
   -1.1332   -0.8904   -0.5267 H   0  0  0  0  0  0  0  0  0  0  0  0
   -3.4497   -2.3120   -1.0365 H   0  0  0  0  0  0  0  0  0  0  0  0
   -1.2779   -3.0101    1.0293 H   0  0  0  0  0  0  0  0  0  0  0  0
   -2.4233   -4.1587    0.3264 H   0  0  0  0  0  0  0  0  0  0  0  0
   -1.2040   -3.3796   -0.6993 H   0  0  0  0  0  0  0  0  0  0  0  0
   -4.8016   -2.7648    1.1024 N   0  0  0  0  0  0  0  0  0  0  0  0
   -5.8018   -2.7500    2.1441 C   0  0  0  0  0  0  0  0  0  0  0  0
   -4.8871   -3.4666    0.3731 H   0  0  0  0  0  0  0  0  0  0  0  0
   -5.4805   -3.4005    2.9710 H   0  0  0  0  0  0  0  0  0  0  0  0
   -5.9299   -1.7223    2.5147 H   0  0  0  0  0  0  0  0  0  0  0  0
   -6.7573   -3.1159    1.7400 H   0  0  0  0  0  0  0  0  0  0  0  0
 22 24  2  0  0  0  0
 24 26  1  0  0  0  0
 23 25  2  0  0  0  0
 25 26  1  0  0  0  0
 21 22  1  0  0  0  0
 22 23  1  0  0  0  0
  1  3  1  0  0  0  0
  1  7  1  0  0  0  0
  1  2  2  0  0  0  0
 35 36  1  0  0  0  0
 36 44  1  0  0  0  0
 36 37  2  0  0  0  0
  8  9  1  0  0  0  0
  9 17  1  0  0  0  0
  9 10  2  0  0  0  0
 18 19  1  0  0  0  0
 19 34  1  0  0  0  0
 19 20  2  0  0  0  0
 35 38  1  0  0  0  0
  8 11  1  0  0  0  0
 44 45  1  0  0  0  0
 18 21  1  0  0  0  0
 34 35  1  0  0  0  0
  7  8  1  0  0  0  0
 17 18  1  0  0  0  0
 24 31  1  0  0  0  0
 25 32  1  0  0  0  0
  3  4  1  0  0  0  0
  3  5  1  0  0  0  0
  3  6  1  0  0  0  0
 38 41  1  0  0  0  0
 38 42  1  0  0  0  0
 38 43  1  0  0  0  0
 11 14  1  0  0  0  0
 11 15  1  0  0  0  0
 11 16  1  0  0  0  0
 45 47  1  0  0  0  0
 45 48  1  0  0  0  0
 45 49  1  0  0  0  0
 21 29  1  0  0  0  0
 21 30  1  0  0  0  0
 35 40  1  0  0  0  0
  8 13  1  0  0  0  0
 18 28  1  0  0  0  0
 26 33  1  0  0  0  0
 44 46  1  0  0  0  0
  7 12  1  0  0  0  0
 34 39  1  0  0  0  0
 17 27  1  0  0  0  0
M  END
$$$$

  -OEChem-02062319033D

 49 49  0     1  0  0  0  0  0999 V2000
   -1.6183    0.5613    3.8201 C   0  0  0  0  0  0  0  0  0  0  0  0
   -0.6710   -0.0534    3.3444 O   0  0  0  0  0  0  0  0  0  0  0  0
   -2.0502    0.2789    5.2208 C   0  0  0  0  0  0  0  0  0  0  0  0
   -2.8099   -0.5175    5.2742 H   0  0  0  0  0  0  0  0  0  0  0  0
   -1.2190   -0.0687    5.8551 H   0  0  0  0  0  0  0  0  0  0  0  0
   -2.4882    1.1338    5.7604 H   0  0  0  0  0  0  0  0  0  0  0  0
   -2.3680    1.5337    3.1790 N   0  0  0  0  0  0  0  0  0  0  0  0
   -2.1212    1.9597    1.8266 C   0  0  2  0  0  0  0  0  0  0  0  0
   -0.7862    1.3744    1.3854 C   0  0  0  0  0  0  0  0  0  0  0  0
    0.0859    1.0216    2.1767 O   0  0  0  0  0  0  0  0  0  0  0  0
   -2.1124    3.4765    1.7171 C   0  0  0  0  0  0  0  0  0  0  0  0
   -3.1331    1.9695    3.6908 H   0  0  0  0  0  0  0  0  0  0  0  0
   -2.9253    1.5413    1.2115 H   0  0  0  0  0  0  0  0  0  0  0  0
   -1.3133    3.9138    2.3268 H   0  0  0  0  0  0  0  0  0  0  0  0
   -1.9529    3.7988    0.6829 H   0  0  0  0  0  0  0  0  0  0  0  0
   -3.0626    3.8977    2.0629 H   0  0  0  0  0  0  0  0  0  0  0  0
   -0.6635    1.3313    0.0020 N   0  0  0  0  0  0  0  0  0  0  0  0
   -1.6983    1.7947   -0.8878 C   0  0  2  0  0  0  0  0  0  0  0  0
   -2.9440    0.9635   -0.6027 C   0  0  0  0  0  0  0  0  0  0  0  0
   -4.0708    1.4495   -0.5313 O   0  0  0  0  0  0  0  0  0  0  0  0
   -1.2962    1.6639   -2.3614 C   0  0  0  0  0  0  0  0  0  0  0  0
   -0.1160    2.5321   -2.7235 C   0  0  0  0  0  0  0  0  0  0  0  0
   -0.2661    3.8881   -2.8725 N   0  0  0  0  0  0  0  0  0  0  0  0
    1.1858    2.1492   -2.9459 C   0  0  0  0  0  0  0  0  0  0  0  0
    0.9342    4.3258   -3.1822 C   0  0  0  0  0  0  0  0  0  0  0  0
    1.8463    3.3089   -3.2390 N   0  0  0  0  0  0  0  0  0  0  0  0
    0.2041    0.9955   -0.4092 H   0  0  0  0  0  0  0  0  0  0  0  0
   -1.8952    2.8397   -0.6206 H   0  0  0  0  0  0  0  0  0  0  0  0
   -2.1475    1.9080   -3.0111 H   0  0  0  0  0  0  0  0  0  0  0  0
   -1.0424    0.6223   -2.5987 H   0  0  0  0  0  0  0  0  0  0  0  0
    1.6878    1.1926   -2.9244 H   0  0  0  0  0  0  0  0  0  0  0  0
    1.2070    5.3537   -3.3753 H   0  0  0  0  0  0  0  0  0  0  0  0
    2.8297    3.3989   -3.4571 H   0  0  0  0  0  0  0  0  0  0  0  0
   -2.6515   -0.3884   -0.4878 N   0  0  0  0  0  0  0  0  0  0  0  0
   -3.6546   -1.3992   -0.2410 C   0  0  2  0  0  0  0  0  0  0  0  0
   -4.4956   -0.9473    0.9456 C   0  0  0  0  0  0  0  0  0  0  0  0
   -4.0957   -0.1411    1.7830 O   0  0  0  0  0  0  0  0  0  0  0  0
   -3.0197   -2.7548    0.0277 C   0  0  0  0  0  0  0  0  0  0  0  0
   -1.6837   -0.6822   -0.5820 H   0  0  0  0  0  0  0  0  0  0  0  0
   -4.2825   -1.4472   -1.1373 H   0  0  0  0  0  0  0  0  0  0  0  0
   -2.3868   -2.7263    0.9221 H   0  0  0  0  0  0  0  0  0  0  0  0
   -3.7815   -3.5252    0.1863 H   0  0  0  0  0  0  0  0  0  0  0  0
   -2.3914   -3.0646   -0.8144 H   0  0  0  0  0  0  0  0  0  0  0  0
   -5.7289   -1.5827    0.9833 N   0  0  0  0  0  0  0  0  0  0  0  0
   -6.7030   -1.3333    2.0201 C   0  0  0  0  0  0  0  0  0  0  0  0
   -5.9843   -2.2227    0.2370 H   0  0  0  0  0  0  0  0  0  0  0  0
   -6.5692   -2.0624    2.8327 H   0  0  0  0  0  0  0  0  0  0  0  0
   -6.5662   -0.3156    2.4145 H   0  0  0  0  0  0  0  0  0  0  0  0
   -7.7160   -1.4315    1.6026 H   0  0  0  0  0  0  0  0  0  0  0  0
 22 24  2  0  0  0  0
 24 26  1  0  0  0  0
 23 25  2  0  0  0  0
 25 26  1  0  0  0  0
 21 22  1  0  0  0  0
 22 23  1  0  0  0  0
  1  3  1  0  0  0  0
  1  7  1  0  0  0  0
  1  2  2  0  0  0  0
 35 36  1  0  0  0  0
 36 44  1  0  0  0  0
 36 37  2  0  0  0  0
  8  9  1  0  0  0  0
  9 17  1  0  0  0  0
  9 10  2  0  0  0  0
 18 19  1  0  0  0  0
 19 34  1  0  0  0  0
 19 20  2  0  0  0  0
 35 38  1  0  0  0  0
  8 11  1  0  0  0  0
 44 45  1  0  0  0  0
 18 21  1  0  0  0  0
 34 35  1  0  0  0  0
  7  8  1  0  0  0  0
 17 18  1  0  0  0  0
 24 31  1  0  0  0  0
 25 32  1  0  0  0  0
  3  4  1  0  0  0  0
  3  5  1  0  0  0  0
  3  6  1  0  0  0  0
 38 41  1  0  0  0  0
 38 42  1  0  0  0  0
 38 43  1  0  0  0  0
 11 14  1  0  0  0  0
 11 15  1  0  0  0  0
 11 16  1  0  0  0  0
 45 47  1  0  0  0  0
 45 48  1  0  0  0  0
 45 49  1  0  0  0  0
 21 29  1  0  0  0  0
 21 30  1  0  0  0  0
 35 40  1  0  0  0  0
  8 13  1  0  0  0  0
 18 28  1  0  0  0  0
 26 33  1  0  0  0  0
 44 46  1  0  0  0  0
  7 12  1  0  0  0  0
 34 39  1  0  0  0  0
 17 27  1  0  0  0  0
M  END
$$$$

  -OEChem-02062319033D

 49 49  0     1  0  0  0  0  0999 V2000
   -1.6183    0.5613    3.8201 C   0  0  0  0  0  0  0  0  0  0  0  0
   -0.6710   -0.0534    3.3444 O   0  0  0  0  0  0  0  0  0  0  0  0
   -2.0502    0.2789    5.2208 C   0  0  0  0  0  0  0  0  0  0  0  0
   -2.8099   -0.5175    5.2742 H   0  0  0  0  0  0  0  0  0  0  0  0
   -1.2190   -0.0687    5.8551 H   0  0  0  0  0  0  0  0  0  0  0  0
   -2.4882    1.1338    5.7604 H   0  0  0  0  0  0  0  0  0  0  0  0
   -2.3680    1.5337    3.1790 N   0  0  0  0  0  0  0  0  0  0  0  0
   -2.1212    1.9597    1.8266 C   0  0  2  0  0  0  0  0  0  0  0  0
   -0.7862    1.3744    1.3854 C   0  0  0  0  0  0  0  0  0  0  0  0
    0.0859    1.0216    2.1767 O   0  0  0  0  0  0  0  0  0  0  0  0
   -2.1124    3.4765    1.7171 C   0  0  0  0  0  0  0  0  0  0  0  0
   -3.1331    1.9695    3.6908 H   0  0  0  0  0  0  0  0  0  0  0  0
   -2.9253    1.5413    1.2115 H   0  0  0  0  0  0  0  0  0  0  0  0
   -1.3133    3.9138    2.3268 H   0  0  0  0  0  0  0  0  0  0  0  0
   -1.9529    3.7988    0.6829 H   0  0  0  0  0  0  0  0  0  0  0  0
   -3.0626    3.8977    2.0629 H   0  0  0  0  0  0  0  0  0  0  0  0
   -0.6635    1.3313    0.0020 N   0  0  0  0  0  0  0  0  0  0  0  0
   -1.5341    2.0651   -0.8817 C   0  0  2  0  0  0  0  0  0  0  0  0
   -2.9550    1.5771   -0.6228 C   0  0  0  0  0  0  0  0  0  0  0  0
   -3.9193    2.3354   -0.5455 O   0  0  0  0  0  0  0  0  0  0  0  0
   -1.1630    1.8672   -2.3559 C   0  0  0  0  0  0  0  0  0  0  0  0
    0.2049    2.4095   -2.6913 C   0  0  0  0  0  0  0  0  0  0  0  0
    0.4108    3.7613   -2.8085 N   0  0  0  0  0  0  0  0  0  0  0  0
    1.3664    1.7089   -2.9161 C   0  0  0  0  0  0  0  0  0  0  0  0
    1.6866    3.8814   -3.1016 C   0  0  0  0  0  0  0  0  0  0  0  0
    2.3066    2.6652   -3.1782 N   0  0  0  0  0  0  0  0  0  0  0  0
    0.0928    0.7922   -0.4128 H   0  0  0  0  0  0  0  0  0  0  0  0
   -1.4581    3.1194   -0.5906 H   0  0  0  0  0  0  0  0  0  0  0  0
   -1.9155    2.3366   -3.0039 H   0  0  0  0  0  0  0  0  0  0  0  0
   -1.1835    0.8008   -2.6168 H   0  0  0  0  0  0  0  0  0  0  0  0
    1.6049    0.6550   -2.9150 H   0  0  0  0  0  0  0  0  0  0  0  0
    2.2172    4.8082   -3.2687 H   0  0  0  0  0  0  0  0  0  0  0  0
    3.2823    2.5035   -3.3891 H   0  0  0  0  0  0  0  0  0  0  0  0
   -3.0219    0.1932   -0.5388 N   0  0  0  0  0  0  0  0  0  0  0  0
   -4.2541   -0.5300   -0.3212 C   0  0  2  0  0  0  0  0  0  0  0  0
   -4.9634    0.0976    0.8716 C   0  0  0  0  0  0  0  0  0  0  0  0
   -4.3785    0.7550    1.7299 O   0  0  0  0  0  0  0  0  0  0  0  0
   -3.9929   -2.0089   -0.0819 C   0  0  0  0  0  0  0  0  0  0  0  0
   -2.1615   -0.3379   -0.6351 H   0  0  0  0  0  0  0  0  0  0  0  0
   -4.8633   -0.3949   -1.2216 H   0  0  0  0  0  0  0  0  0  0  0  0
   -3.3839   -2.1640    0.8162 H   0  0  0  0  0  0  0  0  0  0  0  0
   -4.9291   -2.5602    0.0544 H   0  0  0  0  0  0  0  0  0  0  0  0
   -3.4563   -2.4518   -0.9279 H   0  0  0  0  0  0  0  0  0  0  0  0
   -6.3191   -0.1991    0.8879 N   0  0  0  0  0  0  0  0  0  0  0  0
   -7.2074    0.2703    1.9254 C   0  0  0  0  0  0  0  0  0  0  0  0
   -6.7225   -0.7352    0.1252 H   0  0  0  0  0  0  0  0  0  0  0  0
   -7.2749   -0.4862    2.7211 H   0  0  0  0  0  0  0  0  0  0  0  0
   -6.8174    1.2095    2.3447 H   0  0  0  0  0  0  0  0  0  0  0  0
   -8.2069    0.4456    1.5005 H   0  0  0  0  0  0  0  0  0  0  0  0
 22 24  2  0  0  0  0
 24 26  1  0  0  0  0
 23 25  2  0  0  0  0
 25 26  1  0  0  0  0
 21 22  1  0  0  0  0
 22 23  1  0  0  0  0
  1  3  1  0  0  0  0
  1  7  1  0  0  0  0
  1  2  2  0  0  0  0
 35 36  1  0  0  0  0
 36 44  1  0  0  0  0
 36 37  2  0  0  0  0
  8  9  1  0  0  0  0
  9 17  1  0  0  0  0
  9 10  2  0  0  0  0
 18 19  1  0  0  0  0
 19 34  1  0  0  0  0
 19 20  2  0  0  0  0
 35 38  1  0  0  0  0
  8 11  1  0  0  0  0
 44 45  1  0  0  0  0
 18 21  1  0  0  0  0
 34 35  1  0  0  0  0
  7  8  1  0  0  0  0
 17 18  1  0  0  0  0
 24 31  1  0  0  0  0
 25 32  1  0  0  0  0
  3  4  1  0  0  0  0
  3  5  1  0  0  0  0
  3  6  1  0  0  0  0
 38 41  1  0  0  0  0
 38 42  1  0  0  0  0
 38 43  1  0  0  0  0
 11 14  1  0  0  0  0
 11 15  1  0  0  0  0
 11 16  1  0  0  0  0
 45 47  1  0  0  0  0
 45 48  1  0  0  0  0
 45 49  1  0  0  0  0
 21 29  1  0  0  0  0
 21 30  1  0  0  0  0
 35 40  1  0  0  0  0
  8 13  1  0  0  0  0
 18 28  1  0  0  0  0
 26 33  1  0  0  0  0
 44 46  1  0  0  0  0
  7 12  1  0  0  0  0
 34 39  1  0  0  0  0
 17 27  1  0  0  0  0
M  END
$$$$

  -OEChem-02062319033D

 49 49  0     1  0  0  0  0  0999 V2000
   -1.6183    0.5613    3.8201 C   0  0  0  0  0  0  0  0  0  0  0  0
   -0.6710   -0.0534    3.3444 O   0  0  0  0  0  0  0  0  0  0  0  0
   -2.0502    0.2789    5.2208 C   0  0  0  0  0  0  0  0  0  0  0  0
   -2.8099   -0.5175    5.2742 H   0  0  0  0  0  0  0  0  0  0  0  0
   -1.2190   -0.0687    5.8551 H   0  0  0  0  0  0  0  0  0  0  0  0
   -2.4882    1.1338    5.7604 H   0  0  0  0  0  0  0  0  0  0  0  0
   -2.3680    1.5337    3.1790 N   0  0  0  0  0  0  0  0  0  0  0  0
   -2.1212    1.9597    1.8266 C   0  0  2  0  0  0  0  0  0  0  0  0
   -0.7862    1.3744    1.3854 C   0  0  0  0  0  0  0  0  0  0  0  0
    0.0859    1.0216    2.1767 O   0  0  0  0  0  0  0  0  0  0  0  0
   -2.1124    3.4765    1.7171 C   0  0  0  0  0  0  0  0  0  0  0  0
   -3.1331    1.9695    3.6908 H   0  0  0  0  0  0  0  0  0  0  0  0
   -2.9253    1.5413    1.2115 H   0  0  0  0  0  0  0  0  0  0  0  0
   -1.3133    3.9138    2.3268 H   0  0  0  0  0  0  0  0  0  0  0  0
   -1.9529    3.7988    0.6829 H   0  0  0  0  0  0  0  0  0  0  0  0
   -3.0626    3.8977    2.0629 H   0  0  0  0  0  0  0  0  0  0  0  0
   -0.6635    1.3313    0.0020 N   0  0  0  0  0  0  0  0  0  0  0  0
   -1.3059    2.2838   -0.8683 C   0  0  2  0  0  0  0  0  0  0  0  0
   -2.8073    2.1730   -0.6282 C   0  0  0  0  0  0  0  0  0  0  0  0
   -3.5445    3.1524   -0.5377 O   0  0  0  0  0  0  0  0  0  0  0  0
   -0.9821    2.0291   -2.3449 C   0  0  0  0  0  0  0  0  0  0  0  0
    0.4830    2.2076   -2.6603 C   0  0  0  0  0  0  0  0  0  0  0  0
    1.0314    3.4629   -2.7442 N   0  0  0  0  0  0  0  0  0  0  0  0
    1.4273    1.2364   -2.8960 C   0  0  0  0  0  0  0  0  0  0  0  0
    2.2983    3.2564   -3.0279 C   0  0  0  0  0  0  0  0  0  0  0  0
    2.5849    1.9235   -3.1304 N   0  0  0  0  0  0  0  0  0  0  0  0
   -0.0671    0.6247   -0.4217 H   0  0  0  0  0  0  0  0  0  0  0  0
   -0.9641    3.2762   -0.5517 H   0  0  0  0  0  0  0  0  0  0  0  0
   -1.5811    2.6906   -2.9853 H   0  0  0  0  0  0  0  0  0  0  0  0
   -1.2737    1.0099   -2.6313 H   0  0  0  0  0  0  0  0  0  0  0  0
    1.3862    0.1569   -2.9189 H   0  0  0  0  0  0  0  0  0  0  0  0
    3.0514    4.0185   -3.1702 H   0  0  0  0  0  0  0  0  0  0  0  0
    3.4883    1.5203   -3.3402 H   0  0  0  0  0  0  0  0  0  0  0  0
   -3.2293    0.8517   -0.5777 N   0  0  0  0  0  0  0  0  0  0  0  0
   -4.6086    0.4660   -0.3837 C   0  0  2  0  0  0  0  0  0  0  0  0
   -5.1454    1.2290    0.8202 C   0  0  0  0  0  0  0  0  0  0  0  0
   -4.4204    1.6946    1.6970 O   0  0  0  0  0  0  0  0  0  0  0  0
   -4.7398   -1.0351   -0.1784 C   0  0  0  0  0  0  0  0  0  0  0  0
   -2.5338    0.1189   -0.6824 H   0  0  0  0  0  0  0  0  0  0  0  0
   -5.1525    0.7731   -1.2836 H   0  0  0  0  0  0  0  0  0  0  0  0
   -4.2012   -1.3615    0.7187 H   0  0  0  0  0  0  0  0  0  0  0  0
   -5.7879   -1.3293   -0.0601 H   0  0  0  0  0  0  0  0  0  0  0  0
   -4.3261   -1.5828   -1.0321 H   0  0  0  0  0  0  0  0  0  0  0  0
   -6.5318    1.2915    0.8226 N   0  0  0  0  0  0  0  0  0  0  0  0
   -7.2807    1.9514    1.8665 C   0  0  0  0  0  0  0  0  0  0  0  0
   -7.0513    0.8943    0.0453 H   0  0  0  0  0  0  0  0  0  0  0  0
   -7.5496    1.2207    2.6435 H   0  0  0  0  0  0  0  0  0  0  0  0
   -6.6665    2.7489    2.3101 H   0  0  0  0  0  0  0  0  0  0  0  0
   -8.1965    2.3876    1.4409 H   0  0  0  0  0  0  0  0  0  0  0  0
 22 24  2  0  0  0  0
 24 26  1  0  0  0  0
 23 25  2  0  0  0  0
 25 26  1  0  0  0  0
 21 22  1  0  0  0  0
 22 23  1  0  0  0  0
  1  3  1  0  0  0  0
  1  7  1  0  0  0  0
  1  2  2  0  0  0  0
 35 36  1  0  0  0  0
 36 44  1  0  0  0  0
 36 37  2  0  0  0  0
  8  9  1  0  0  0  0
  9 17  1  0  0  0  0
  9 10  2  0  0  0  0
 18 19  1  0  0  0  0
 19 34  1  0  0  0  0
 19 20  2  0  0  0  0
 35 38  1  0  0  0  0
  8 11  1  0  0  0  0
 44 45  1  0  0  0  0
 18 21  1  0  0  0  0
 34 35  1  0  0  0  0
  7  8  1  0  0  0  0
 17 18  1  0  0  0  0
 24 31  1  0  0  0  0
 25 32  1  0  0  0  0
  3  4  1  0  0  0  0
  3  5  1  0  0  0  0
  3  6  1  0  0  0  0
 38 41  1  0  0  0  0
 38 42  1  0  0  0  0
 38 43  1  0  0  0  0
 11 14  1  0  0  0  0
 11 15  1  0  0  0  0
 11 16  1  0  0  0  0
 45 47  1  0  0  0  0
 45 48  1  0  0  0  0
 45 49  1  0  0  0  0
 21 29  1  0  0  0  0
 21 30  1  0  0  0  0
 35 40  1  0  0  0  0
  8 13  1  0  0  0  0
 18 28  1  0  0  0  0
 26 33  1  0  0  0  0
 44 46  1  0  0  0  0
  7 12  1  0  0  0  0
 34 39  1  0  0  0  0
 17 27  1  0  0  0  0
M  END
$$$$

  -OEChem-02062319033D

 49 49  0     1  0  0  0  0  0999 V2000
   -1.6183    0.5613    3.8201 C   0  0  0  0  0  0  0  0  0  0  0  0
   -0.6710   -0.0534    3.3444 O   0  0  0  0  0  0  0  0  0  0  0  0
   -2.0502    0.2789    5.2208 C   0  0  0  0  0  0  0  0  0  0  0  0
   -2.8099   -0.5175    5.2742 H   0  0  0  0  0  0  0  0  0  0  0  0
   -1.2190   -0.0687    5.8551 H   0  0  0  0  0  0  0  0  0  0  0  0
   -2.4882    1.1338    5.7604 H   0  0  0  0  0  0  0  0  0  0  0  0
   -2.3680    1.5337    3.1790 N   0  0  0  0  0  0  0  0  0  0  0  0
   -2.1212    1.9597    1.8266 C   0  0  2  0  0  0  0  0  0  0  0  0
   -0.7862    1.3744    1.3854 C   0  0  0  0  0  0  0  0  0  0  0  0
    0.0859    1.0216    2.1767 O   0  0  0  0  0  0  0  0  0  0  0  0
   -2.1124    3.4765    1.7171 C   0  0  0  0  0  0  0  0  0  0  0  0
   -3.1331    1.9695    3.6908 H   0  0  0  0  0  0  0  0  0  0  0  0
   -2.9253    1.5413    1.2115 H   0  0  0  0  0  0  0  0  0  0  0  0
   -1.3133    3.9138    2.3268 H   0  0  0  0  0  0  0  0  0  0  0  0
   -1.9529    3.7988    0.6829 H   0  0  0  0  0  0  0  0  0  0  0  0
   -3.0626    3.8977    2.0629 H   0  0  0  0  0  0  0  0  0  0  0  0
   -0.6635    1.3313    0.0020 N   0  0  0  0  0  0  0  0  0  0  0  0
   -1.0292    2.4359   -0.8485 C   0  0  2  0  0  0  0  0  0  0  0  0
   -2.5111    2.7107   -0.6187 C   0  0  0  0  0  0  0  0  0  0  0  0
   -2.9721    3.8448   -0.5086 O   0  0  0  0  0  0  0  0  0  0  0  0
   -0.7657    2.1386   -2.3291 C   0  0  0  0  0  0  0  0  0  0  0  0
    0.6993    1.9402   -2.6328 C   0  0  0  0  0  0  0  0  0  0  0  0
    1.5535    3.0132   -2.6839 N   0  0  0  0  0  0  0  0  0  0  0  0
    1.3641    0.7638   -2.8869 C   0  0  0  0  0  0  0  0  0  0  0  0
    2.7274    2.4934   -2.9661 C   0  0  0  0  0  0  0  0  0  0  0  0
    2.6622    1.1342   -3.0989 N   0  0  0  0  0  0  0  0  0  0  0  0
   -0.2646    0.5042   -0.4355 H   0  0  0  0  0  0  0  0  0  0  0  0
   -0.4469    3.2996   -0.5066 H   0  0  0  0  0  0  0  0  0  0  0  0
   -1.1670    2.9460   -2.9566 H   0  0  0  0  0  0  0  0  0  0  0  0
   -1.3068    1.2355   -2.6412 H   0  0  0  0  0  0  0  0  0  0  0  0
    1.0466   -0.2679   -2.9358 H   0  0  0  0  0  0  0  0  0  0  0  0
    3.6530    3.0385   -3.0863 H   0  0  0  0  0  0  0  0  0  0  0  0
    3.4334    0.5165   -3.3137 H   0  0  0  0  0  0  0  0  0  0  0  0
   -3.2597    1.5420   -0.6019 N   0  0  0  0  0  0  0  0  0  0  0  0
   -4.6938    1.5208   -0.4241 C   0  0  2  0  0  0  0  0  0  0  0  0
   -5.0292    2.3700    0.7949 C   0  0  0  0  0  0  0  0  0  0  0  0
   -4.2185    2.6137    1.6862 O   0  0  0  0  0  0  0  0  0  0  0  0
   -5.2095    0.1001   -0.2554 C   0  0  0  0  0  0  0  0  0  0  0  0
   -2.7753    0.6572   -0.7206 H   0  0  0  0  0  0  0  0  0  0  0  0
   -5.1303    1.9773   -1.3192 H   0  0  0  0  0  0  0  0  0  0  0  0
   -4.7832   -0.3736    0.6363 H   0  0  0  0  0  0  0  0  0  0  0  0
   -6.2993    0.0836   -0.1494 H   0  0  0  0  0  0  0  0  0  0  0  0
   -4.9416   -0.5169   -1.1199 H   0  0  0  0  0  0  0  0  0  0  0  0
   -6.3527    2.7877    0.7918 N   0  0  0  0  0  0  0  0  0  0  0  0
   -6.9178    3.5954    1.8474 C   0  0  0  0  0  0  0  0  0  0  0  0
   -6.9484    2.5548    0.0027 H   0  0  0  0  0  0  0  0  0  0  0  0
   -7.3744    2.9419    2.6054 H   0  0  0  0  0  0  0  0  0  0  0  0
   -6.1239    4.1978    2.3130 H   0  0  0  0  0  0  0  0  0  0  0  0
   -7.6856    4.2621    1.4278 H   0  0  0  0  0  0  0  0  0  0  0  0
 22 24  2  0  0  0  0
 24 26  1  0  0  0  0
 23 25  2  0  0  0  0
 25 26  1  0  0  0  0
 21 22  1  0  0  0  0
 22 23  1  0  0  0  0
  1  3  1  0  0  0  0
  1  7  1  0  0  0  0
  1  2  2  0  0  0  0
 35 36  1  0  0  0  0
 36 44  1  0  0  0  0
 36 37  2  0  0  0  0
  8  9  1  0  0  0  0
  9 17  1  0  0  0  0
  9 10  2  0  0  0  0
 18 19  1  0  0  0  0
 19 34  1  0  0  0  0
 19 20  2  0  0  0  0
 35 38  1  0  0  0  0
  8 11  1  0  0  0  0
 44 45  1  0  0  0  0
 18 21  1  0  0  0  0
 34 35  1  0  0  0  0
  7  8  1  0  0  0  0
 17 18  1  0  0  0  0
 24 31  1  0  0  0  0
 25 32  1  0  0  0  0
  3  4  1  0  0  0  0
  3  5  1  0  0  0  0
  3  6  1  0  0  0  0
 38 41  1  0  0  0  0
 38 42  1  0  0  0  0
 38 43  1  0  0  0  0
 11 14  1  0  0  0  0
 11 15  1  0  0  0  0
 11 16  1  0  0  0  0
 45 47  1  0  0  0  0
 45 48  1  0  0  0  0
 45 49  1  0  0  0  0
 21 29  1  0  0  0  0
 21 30  1  0  0  0  0
 35 40  1  0  0  0  0
  8 13  1  0  0  0  0
 18 28  1  0  0  0  0
 26 33  1  0  0  0  0
 44 46  1  0  0  0  0
  7 12  1  0  0  0  0
 34 39  1  0  0  0  0
 17 27  1  0  0  0  0
M  END
$$$$

  -OEChem-02062319033D

 49 49  0     1  0  0  0  0  0999 V2000
   -1.6183    0.5613    3.8201 C   0  0  0  0  0  0  0  0  0  0  0  0
   -0.6710   -0.0534    3.3444 O   0  0  0  0  0  0  0  0  0  0  0  0
   -2.0502    0.2789    5.2208 C   0  0  0  0  0  0  0  0  0  0  0  0
   -2.8099   -0.5175    5.2742 H   0  0  0  0  0  0  0  0  0  0  0  0
   -1.2190   -0.0687    5.8551 H   0  0  0  0  0  0  0  0  0  0  0  0
   -2.4882    1.1338    5.7604 H   0  0  0  0  0  0  0  0  0  0  0  0
   -2.3680    1.5337    3.1790 N   0  0  0  0  0  0  0  0  0  0  0  0
   -2.1212    1.9597    1.8266 C   0  0  2  0  0  0  0  0  0  0  0  0
   -0.7862    1.3744    1.3854 C   0  0  0  0  0  0  0  0  0  0  0  0
    0.0859    1.0216    2.1767 O   0  0  0  0  0  0  0  0  0  0  0  0
   -2.1124    3.4765    1.7171 C   0  0  0  0  0  0  0  0  0  0  0  0
   -3.1331    1.9695    3.6908 H   0  0  0  0  0  0  0  0  0  0  0  0
   -2.9253    1.5413    1.2115 H   0  0  0  0  0  0  0  0  0  0  0  0
   -1.3133    3.9138    2.3268 H   0  0  0  0  0  0  0  0  0  0  0  0
   -1.9529    3.7988    0.6829 H   0  0  0  0  0  0  0  0  0  0  0  0
   -3.0626    3.8977    2.0629 H   0  0  0  0  0  0  0  0  0  0  0  0
   -0.6635    1.3313    0.0020 N   0  0  0  0  0  0  0  0  0  0  0  0
   -0.7229    2.5111   -0.8237 C   0  0  2  0  0  0  0  0  0  0  0  0
   -2.0865    3.1535   -0.5949 C   0  0  0  0  0  0  0  0  0  0  0  0
   -2.2409    4.3655   -0.4600 O   0  0  0  0  0  0  0  0  0  0  0  0
   -0.5286    2.1882   -2.3097 C   0  0  0  0  0  0  0  0  0  0  0  0
    0.8391    1.6256   -2.6106 C   0  0  0  0  0  0  0  0  0  0  0  0
    1.9414    2.4430   -2.6317 N   0  0  0  0  0  0  0  0  0  0  0  0
    1.1812    0.3234   -2.8894 C   0  0  0  0  0  0  0  0  0  0  0  0
    2.9449    1.6444   -2.9204 C   0  0  0  0  0  0  0  0  0  0  0  0
    2.5332    0.3512   -3.0860 N   0  0  0  0  0  0  0  0  0  0  0  0
   -0.4863    0.4390   -0.4531 H   0  0  0  0  0  0  0  0  0  0  0  0
    0.0584    3.1878   -0.4583 H   0  0  0  0  0  0  0  0  0  0  0  0
   -0.7014    3.0853   -2.9196 H   0  0  0  0  0  0  0  0  0  0  0  0
   -1.2806    1.4622   -2.6460 H   0  0  0  0  0  0  0  0  0  0  0  0
    0.6092   -0.5902   -2.9645 H   0  0  0  0  0  0  0  0  0  0  0  0
    3.9809    1.9350   -3.0228 H   0  0  0  0  0  0  0  0  0  0  0  0
    3.1216   -0.4396   -3.3116 H   0  0  0  0  0  0  0  0  0  0  0  0
   -3.1110    2.2173   -0.6098 N   0  0  0  0  0  0  0  0  0  0  0  0
   -4.5041    2.5626   -0.4397 C   0  0  2  0  0  0  0  0  0  0  0  0
   -4.6228    3.4427    0.7975 C   0  0  0  0  0  0  0  0  0  0  0  0
   -3.7866    3.4497    1.6985 O   0  0  0  0  0  0  0  0  0  0  0  0
   -5.3701    1.3195   -0.3077 C   0  0  0  0  0  0  0  0  0  0  0  0
   -2.8696    1.2402   -0.7471 H   0  0  0  0  0  0  0  0  0  0  0  0
   -4.7983    3.1355   -1.3258 H   0  0  0  0  0  0  0  0  0  0  0  0
   -5.0900    0.7326    0.5747 H   0  0  0  0  0  0  0  0  0  0  0  0
   -6.4285    1.5821   -0.2076 H   0  0  0  0  0  0  0  0  0  0  0  0
   -5.2606    0.6732   -1.1852 H   0  0  0  0  0  0  0  0  0  0  0  0
   -5.7939    4.1874    0.7977 N   0  0  0  0  0  0  0  0  0  0  0  0
   -6.1435    5.0903    1.8695 C   0  0  0  0  0  0  0  0  0  0  0  0
   -6.4207    4.1332    0.0003 H   0  0  0  0  0  0  0  0  0  0  0  0
   -6.7613    4.5602    2.6093 H   0  0  0  0  0  0  0  0  0  0  0  0
   -5.2264    5.4574    2.3533 H   0  0  0  0  0  0  0  0  0  0  0  0
   -6.7090    5.9413    1.4621 H   0  0  0  0  0  0  0  0  0  0  0  0
 22 24  2  0  0  0  0
 24 26  1  0  0  0  0
 23 25  2  0  0  0  0
 25 26  1  0  0  0  0
 21 22  1  0  0  0  0
 22 23  1  0  0  0  0
  1  3  1  0  0  0  0
  1  7  1  0  0  0  0
  1  2  2  0  0  0  0
 35 36  1  0  0  0  0
 36 44  1  0  0  0  0
 36 37  2  0  0  0  0
  8  9  1  0  0  0  0
  9 17  1  0  0  0  0
  9 10  2  0  0  0  0
 18 19  1  0  0  0  0
 19 34  1  0  0  0  0
 19 20  2  0  0  0  0
 35 38  1  0  0  0  0
  8 11  1  0  0  0  0
 44 45  1  0  0  0  0
 18 21  1  0  0  0  0
 34 35  1  0  0  0  0
  7  8  1  0  0  0  0
 17 18  1  0  0  0  0
 24 31  1  0  0  0  0
 25 32  1  0  0  0  0
  3  4  1  0  0  0  0
  3  5  1  0  0  0  0
  3  6  1  0  0  0  0
 38 41  1  0  0  0  0
 38 42  1  0  0  0  0
 38 43  1  0  0  0  0
 11 14  1  0  0  0  0
 11 15  1  0  0  0  0
 11 16  1  0  0  0  0
 45 47  1  0  0  0  0
 45 48  1  0  0  0  0
 45 49  1  0  0  0  0
 21 29  1  0  0  0  0
 21 30  1  0  0  0  0
 35 40  1  0  0  0  0
  8 13  1  0  0  0  0
 18 28  1  0  0  0  0
 26 33  1  0  0  0  0
 44 46  1  0  0  0  0
  7 12  1  0  0  0  0
 34 39  1  0  0  0  0
 17 27  1  0  0  0  0
M  END
$$$$

  -OEChem-02062319033D

 49 49  0     1  0  0  0  0  0999 V2000
   -1.6183    0.5613    3.8201 C   0  0  0  0  0  0  0  0  0  0  0  0
   -0.6710   -0.0534    3.3444 O   0  0  0  0  0  0  0  0  0  0  0  0
   -2.0502    0.2789    5.2208 C   0  0  0  0  0  0  0  0  0  0  0  0
   -2.8099   -0.5175    5.2742 H   0  0  0  0  0  0  0  0  0  0  0  0
   -1.2190   -0.0687    5.8551 H   0  0  0  0  0  0  0  0  0  0  0  0
   -2.4882    1.1338    5.7604 H   0  0  0  0  0  0  0  0  0  0  0  0
   -2.3680    1.5337    3.1790 N   0  0  0  0  0  0  0  0  0  0  0  0
   -2.1212    1.9597    1.8266 C   0  0  2  0  0  0  0  0  0  0  0  0
   -0.7862    1.3744    1.3854 C   0  0  0  0  0  0  0  0  0  0  0  0
    0.0859    1.0216    2.1767 O   0  0  0  0  0  0  0  0  0  0  0  0
   -2.1124    3.4765    1.7171 C   0  0  0  0  0  0  0  0  0  0  0  0
   -3.1331    1.9695    3.6908 H   0  0  0  0  0  0  0  0  0  0  0  0
   -2.9253    1.5413    1.2115 H   0  0  0  0  0  0  0  0  0  0  0  0
   -1.3133    3.9138    2.3268 H   0  0  0  0  0  0  0  0  0  0  0  0
   -1.9529    3.7988    0.6829 H   0  0  0  0  0  0  0  0  0  0  0  0
   -3.0626    3.8977    2.0629 H   0  0  0  0  0  0  0  0  0  0  0  0
   -0.6635    1.3313    0.0020 N   0  0  0  0  0  0  0  0  0  0  0  0
   -0.4079    2.5042   -0.7955 C   0  0  2  0  0  0  0  0  0  0  0  0
   -1.5624    3.4713   -0.5583 C   0  0  0  0  0  0  0  0  0  0  0  0
   -1.4009    4.6789   -0.3953 O   0  0  0  0  0  0  0  0  0  0  0  0
   -0.2869    2.1747   -2.2878 C   0  0  0  0  0  0  0  0  0  0  0  0
    0.8929    1.2852   -2.5952 C   0  0  0  0  0  0  0  0  0  0  0  0
    2.1688    1.7911   -2.5913 N   0  0  0  0  0  0  0  0  0  0  0  0
    0.8911   -0.0548   -2.9033 C   0  0  0  0  0  0  0  0  0  0  0  0
    2.9358    0.7673   -2.8938 C   0  0  0  0  0  0  0  0  0  0  0  0
    2.2067   -0.3722   -3.0924 N   0  0  0  0  0  0  0  0  0  0  0  0
   -0.7171    0.4336   -0.4734 H   0  0  0  0  0  0  0  0  0  0  0  0
    0.5173    2.9485   -0.4101 H   0  0  0  0  0  0  0  0  0  0  0  0
   -0.2161    3.0990   -2.8770 H   0  0  0  0  0  0  0  0  0  0  0  0
   -1.1968    1.6745   -2.6452 H   0  0  0  0  0  0  0  0  0  0  0  0
    0.1039   -0.7883   -3.0031 H   0  0  0  0  0  0  0  0  0  0  0  0
    4.0128    0.7831   -2.9841 H   0  0  0  0  0  0  0  0  0  0  0  0
    2.5740   -1.2829   -3.3339 H   0  0  0  0  0  0  0  0  0  0  0  0
   -2.7933    2.8313   -0.6007 N   0  0  0  0  0  0  0  0  0  0  0  0
   -4.0522    3.5203   -0.4295 C   0  0  2  0  0  0  0  0  0  0  0  0
   -3.9538    4.3741    0.8278 C   0  0  0  0  0  0  0  0  0  0  0  0
   -3.1540    4.1457    1.7328 O   0  0  0  0  0  0  0  0  0  0  0  0
   -5.2106    2.5399   -0.3316 C   0  0  0  0  0  0  0  0  0  0  0  0
   -2.8102    1.8283   -0.7601 H   0  0  0  0  0  0  0  0  0  0  0  0
   -4.1791    4.1689   -1.3031 H   0  0  0  0  0  0  0  0  0  0  0  0
   -5.1009    1.8815    0.5379 H   0  0  0  0  0  0  0  0  0  0  0  0
   -6.1666    3.0642   -0.2306 H   0  0  0  0  0  0  0  0  0  0  0  0
   -5.2616    1.9065   -1.2238 H   0  0  0  0  0  0  0  0  0  0  0  0
   -4.8935    5.3954    0.8399 N   0  0  0  0  0  0  0  0  0  0  0  0
   -5.0105    6.3342    1.9312 C   0  0  0  0  0  0  0  0  0  0  0  0
   -5.5043    5.5219    0.0382 H   0  0  0  0  0  0  0  0  0  0  0  0
   -5.7521    5.9654    2.6550 H   0  0  0  0  0  0  0  0  0  0  0  0
   -4.0352    6.4419    2.4283 H   0  0  0  0  0  0  0  0  0  0  0  0
   -5.3332    7.3110    1.5414 H   0  0  0  0  0  0  0  0  0  0  0  0
 22 24  2  0  0  0  0
 24 26  1  0  0  0  0
 23 25  2  0  0  0  0
 25 26  1  0  0  0  0
 21 22  1  0  0  0  0
 22 23  1  0  0  0  0
  1  3  1  0  0  0  0
  1  7  1  0  0  0  0
  1  2  2  0  0  0  0
 35 36  1  0  0  0  0
 36 44  1  0  0  0  0
 36 37  2  0  0  0  0
  8  9  1  0  0  0  0
  9 17  1  0  0  0  0
  9 10  2  0  0  0  0
 18 19  1  0  0  0  0
 19 34  1  0  0  0  0
 19 20  2  0  0  0  0
 35 38  1  0  0  0  0
  8 11  1  0  0  0  0
 44 45  1  0  0  0  0
 18 21  1  0  0  0  0
 34 35  1  0  0  0  0
  7  8  1  0  0  0  0
 17 18  1  0  0  0  0
 24 31  1  0  0  0  0
 25 32  1  0  0  0  0
  3  4  1  0  0  0  0
  3  5  1  0  0  0  0
  3  6  1  0  0  0  0
 38 41  1  0  0  0  0
 38 42  1  0  0  0  0
 38 43  1  0  0  0  0
 11 14  1  0  0  0  0
 11 15  1  0  0  0  0
 11 16  1  0  0  0  0
 45 47  1  0  0  0  0
 45 48  1  0  0  0  0
 45 49  1  0  0  0  0
 21 29  1  0  0  0  0
 21 30  1  0  0  0  0
 35 40  1  0  0  0  0
  8 13  1  0  0  0  0
 18 28  1  0  0  0  0
 26 33  1  0  0  0  0
 44 46  1  0  0  0  0
  7 12  1  0  0  0  0
 34 39  1  0  0  0  0
 17 27  1  0  0  0  0
M  END
$$$$

  -OEChem-02062319033D

 49 49  0     1  0  0  0  0  0999 V2000
   -1.6183    0.5613    3.8201 C   0  0  0  0  0  0  0  0  0  0  0  0
   -0.6710   -0.0534    3.3444 O   0  0  0  0  0  0  0  0  0  0  0  0
   -2.0502    0.2789    5.2208 C   0  0  0  0  0  0  0  0  0  0  0  0
   -2.8099   -0.5175    5.2742 H   0  0  0  0  0  0  0  0  0  0  0  0
   -1.2190   -0.0687    5.8551 H   0  0  0  0  0  0  0  0  0  0  0  0
   -2.4882    1.1338    5.7604 H   0  0  0  0  0  0  0  0  0  0  0  0
   -2.3680    1.5337    3.1790 N   0  0  0  0  0  0  0  0  0  0  0  0
   -2.1212    1.9597    1.8266 C   0  0  2  0  0  0  0  0  0  0  0  0
   -0.7862    1.3744    1.3854 C   0  0  0  0  0  0  0  0  0  0  0  0
    0.0859    1.0216    2.1767 O   0  0  0  0  0  0  0  0  0  0  0  0
   -2.1124    3.4765    1.7171 C   0  0  0  0  0  0  0  0  0  0  0  0
   -3.1331    1.9695    3.6908 H   0  0  0  0  0  0  0  0  0  0  0  0
   -2.9253    1.5413    1.2115 H   0  0  0  0  0  0  0  0  0  0  0  0
   -1.3133    3.9138    2.3268 H   0  0  0  0  0  0  0  0  0  0  0  0
   -1.9529    3.7988    0.6829 H   0  0  0  0  0  0  0  0  0  0  0  0
   -3.0626    3.8977    2.0629 H   0  0  0  0  0  0  0  0  0  0  0  0
   -0.6635    1.3313    0.0020 N   0  0  0  0  0  0  0  0  0  0  0  0
   -0.1056    2.4158   -0.7660 C   0  0  2  0  0  0  0  0  0  0  0  0
   -0.9746    3.6423   -0.5115 C   0  0  0  0  0  0  0  0  0  0  0  0
   -0.5093    4.7636   -0.3188 O   0  0  0  0  0  0  0  0  0  0  0  0
   -0.0571    2.0988   -2.2651 C   0  0  0  0  0  0  0  0  0  0  0  0
    0.8571    0.9421   -2.5877 C   0  0  0  0  0  0  0  0  0  0  0  0
    2.2200    1.1018   -2.5652 N   0  0  0  0  0  0  0  0  0  0  0  0
    0.5135   -0.3451   -2.9277 C   0  0  0  0  0  0  0  0  0  0  0  0
    2.7007   -0.0782   -2.8883 C   0  0  0  0  0  0  0  0  0  0  0  0
    1.7050   -0.9866   -3.1177 N   0  0  0  0  0  0  0  0  0  0  0  0
   -0.9413    0.4884   -0.4950 H   0  0  0  0  0  0  0  0  0  0  0  0
    0.8985    2.5980   -0.3654 H   0  0  0  0  0  0  0  0  0  0  0  0
    0.2559    2.9862   -2.8317 H   0  0  0  0  0  0  0  0  0  0  0  0
   -1.0612    1.8580   -2.6389 H   0  0  0  0  0  0  0  0  0  0  0  0
   -0.4349   -0.8485   -3.0490 H   0  0  0  0  0  0  0  0  0  0  0  0
    3.7464   -0.3386   -2.9728 H   0  0  0  0  0  0  0  0  0  0  0  0
    1.8279   -1.9557   -3.3790 H   0  0  0  0  0  0  0  0  0  0  0  0
   -2.3282    3.3424   -0.5754 N   0  0  0  0  0  0  0  0  0  0  0  0
   -3.3690    4.3287   -0.3941 C   0  0  2  0  0  0  0  0  0  0  0  0
   -3.0679    5.1007    0.8837 C   0  0  0  0  0  0  0  0  0  0  0  0
   -2.3639    4.6541    1.7871 O   0  0  0  0  0  0  0  0  0  0  0  0
   -4.7419    3.6782   -0.3255 C   0  0  0  0  0  0  0  0  0  0  0  0
   -2.6012    2.3813   -0.7588 H   0  0  0  0  0  0  0  0  0  0  0  0
   -3.3149    5.0070   -1.2526 H   0  0  0  0  0  0  0  0  0  0  0  0
   -4.8150    2.9950    0.5285 H   0  0  0  0  0  0  0  0  0  0  0  0
   -5.5316    4.4288   -0.2168 H   0  0  0  0  0  0  0  0  0  0  0  0
   -4.9445    3.0989   -1.2328 H   0  0  0  0  0  0  0  0  0  0  0  0
   -3.7129    6.3292    0.9155 N   0  0  0  0  0  0  0  0  0  0  0  0
   -3.5961    7.2424    2.0283 C   0  0  0  0  0  0  0  0  0  0  0  0
   -4.2616    6.6263    0.1140 H   0  0  0  0  0  0  0  0  0  0  0  0
   -4.4156    7.0615    2.7393 H   0  0  0  0  0  0  0  0  0  0  0  0
   -2.6315    7.0841    2.5327 H   0  0  0  0  0  0  0  0  0  0  0  0
   -3.6519    8.2776    1.6603 H   0  0  0  0  0  0  0  0  0  0  0  0
 22 24  2  0  0  0  0
 24 26  1  0  0  0  0
 23 25  2  0  0  0  0
 25 26  1  0  0  0  0
 21 22  1  0  0  0  0
 22 23  1  0  0  0  0
  1  3  1  0  0  0  0
  1  7  1  0  0  0  0
  1  2  2  0  0  0  0
 35 36  1  0  0  0  0
 36 44  1  0  0  0  0
 36 37  2  0  0  0  0
  8  9  1  0  0  0  0
  9 17  1  0  0  0  0
  9 10  2  0  0  0  0
 18 19  1  0  0  0  0
 19 34  1  0  0  0  0
 19 20  2  0  0  0  0
 35 38  1  0  0  0  0
  8 11  1  0  0  0  0
 44 45  1  0  0  0  0
 18 21  1  0  0  0  0
 34 35  1  0  0  0  0
  7  8  1  0  0  0  0
 17 18  1  0  0  0  0
 24 31  1  0  0  0  0
 25 32  1  0  0  0  0
  3  4  1  0  0  0  0
  3  5  1  0  0  0  0
  3  6  1  0  0  0  0
 38 41  1  0  0  0  0
 38 42  1  0  0  0  0
 38 43  1  0  0  0  0
 11 14  1  0  0  0  0
 11 15  1  0  0  0  0
 11 16  1  0  0  0  0
 45 47  1  0  0  0  0
 45 48  1  0  0  0  0
 45 49  1  0  0  0  0
 21 29  1  0  0  0  0
 21 30  1  0  0  0  0
 35 40  1  0  0  0  0
  8 13  1  0  0  0  0
 18 28  1  0  0  0  0
 26 33  1  0  0  0  0
 44 46  1  0  0  0  0
  7 12  1  0  0  0  0
 34 39  1  0  0  0  0
 17 27  1  0  0  0  0
M  END
$$$$

  -OEChem-02062319033D

 49 49  0     1  0  0  0  0  0999 V2000
   -1.6183    0.5613    3.8201 C   0  0  0  0  0  0  0  0  0  0  0  0
   -0.6710   -0.0534    3.3444 O   0  0  0  0  0  0  0  0  0  0  0  0
   -2.0502    0.2789    5.2208 C   0  0  0  0  0  0  0  0  0  0  0  0
   -2.8099   -0.5175    5.2742 H   0  0  0  0  0  0  0  0  0  0  0  0
   -1.2190   -0.0687    5.8551 H   0  0  0  0  0  0  0  0  0  0  0  0
   -2.4882    1.1338    5.7604 H   0  0  0  0  0  0  0  0  0  0  0  0
   -2.3680    1.5337    3.1790 N   0  0  0  0  0  0  0  0  0  0  0  0
   -2.1212    1.9597    1.8266 C   0  0  2  0  0  0  0  0  0  0  0  0
   -0.7862    1.3744    1.3854 C   0  0  0  0  0  0  0  0  0  0  0  0
    0.0859    1.0216    2.1767 O   0  0  0  0  0  0  0  0  0  0  0  0
   -2.1124    3.4765    1.7171 C   0  0  0  0  0  0  0  0  0  0  0  0
   -3.1331    1.9695    3.6908 H   0  0  0  0  0  0  0  0  0  0  0  0
   -2.9253    1.5413    1.2115 H   0  0  0  0  0  0  0  0  0  0  0  0
   -1.3133    3.9138    2.3268 H   0  0  0  0  0  0  0  0  0  0  0  0
   -1.9529    3.7988    0.6829 H   0  0  0  0  0  0  0  0  0  0  0  0
   -3.0626    3.8977    2.0629 H   0  0  0  0  0  0  0  0  0  0  0  0
   -0.6635    1.3313    0.0020 N   0  0  0  0  0  0  0  0  0  0  0  0
    0.1633    2.2518   -0.7370 C   0  0  2  0  0  0  0  0  0  0  0  0
   -0.3631    3.6550   -0.4577 C   0  0  0  0  0  0  0  0  0  0  0  0
    0.3731    4.6140   -0.2359 O   0  0  0  0  0  0  0  0  0  0  0  0
    0.1450    1.9657   -2.2430 C   0  0  0  0  0  0  0  0  0  0  0  0
    0.7340    0.6198   -2.5886 C   0  0  0  0  0  0  0  0  0  0  0  0
    2.0917    0.4223   -2.5554 N   0  0  0  0  0  0  0  0  0  0  0  0
    0.0742   -0.5276   -2.9610 C   0  0  0  0  0  0  0  0  0  0  0  0
    2.2558   -0.8345   -2.9042 C   0  0  0  0  0  0  0  0  0  0  0  0
    1.0622   -1.4503   -3.1602 N   0  0  0  0  0  0  0  0  0  0  0  0
   -1.1435    0.5995   -0.5164 H   0  0  0  0  0  0  0  0  0  0  0  0
    1.1761    2.1603   -0.3272 H   0  0  0  0  0  0  0  0  0  0  0  0
    0.6823    2.7546   -2.7866 H   0  0  0  0  0  0  0  0  0  0  0  0
   -0.8829    2.0001   -2.6275 H   0  0  0  0  0  0  0  0  0  0  0  0
   -0.9704   -0.7667   -3.0991 H   0  0  0  0  0  0  0  0  0  0  0  0
    3.2000   -1.3537   -2.9896 H   0  0  0  0  0  0  0  0  0  0  0  0
    0.9343   -2.4124   -3.4440 H   0  0  0  0  0  0  0  0  0  0  0  0
   -1.7475    3.7156   -0.5356 N   0  0  0  0  0  0  0  0  0  0  0  0
   -2.5010    4.9327   -0.3360 C   0  0  2  0  0  0  0  0  0  0  0  0
   -2.0254    5.5729    0.9614 C   0  0  0  0  0  0  0  0  0  0  0  0
   -1.4702    4.9404    1.8574 O   0  0  0  0  0  0  0  0  0  0  0  0
   -3.9958    4.6567   -0.2898 C   0  0  0  0  0  0  0  0  0  0  0  0
   -2.2568    2.8617   -0.7433 H   0  0  0  0  0  0  0  0  0  0  0  0
   -2.2646    5.5927   -1.1778 H   0  0  0  0  0  0  0  0  0  0  0  0
   -4.2519    3.9970    0.5472 H   0  0  0  0  0  0  0  0  0  0  0  0
   -4.5667    5.5830   -0.1672 H   0  0  0  0  0  0  0  0  0  0  0  0
   -4.3308    4.1692   -1.2117 H   0  0  0  0  0  0  0  0  0  0  0  0
   -2.3325    6.9252    1.0193 N   0  0  0  0  0  0  0  0  0  0  0  0
   -1.9966    7.7530    2.1542 C   0  0  0  0  0  0  0  0  0  0  0  0
   -2.7772    7.3711    0.2224 H   0  0  0  0  0  0  0  0  0  0  0  0
   -2.8429    7.7740    2.8566 H   0  0  0  0  0  0  0  0  0  0  0  0
   -1.1110    7.3404    2.6595 H   0  0  0  0  0  0  0  0  0  0  0  0
   -1.7799    8.7753    1.8108 H   0  0  0  0  0  0  0  0  0  0  0  0
 22 24  2  0  0  0  0
 24 26  1  0  0  0  0
 23 25  2  0  0  0  0
 25 26  1  0  0  0  0
 21 22  1  0  0  0  0
 22 23  1  0  0  0  0
  1  3  1  0  0  0  0
  1  7  1  0  0  0  0
  1  2  2  0  0  0  0
 35 36  1  0  0  0  0
 36 44  1  0  0  0  0
 36 37  2  0  0  0  0
  8  9  1  0  0  0  0
  9 17  1  0  0  0  0
  9 10  2  0  0  0  0
 18 19  1  0  0  0  0
 19 34  1  0  0  0  0
 19 20  2  0  0  0  0
 35 38  1  0  0  0  0
  8 11  1  0  0  0  0
 44 45  1  0  0  0  0
 18 21  1  0  0  0  0
 34 35  1  0  0  0  0
  7  8  1  0  0  0  0
 17 18  1  0  0  0  0
 24 31  1  0  0  0  0
 25 32  1  0  0  0  0
  3  4  1  0  0  0  0
  3  5  1  0  0  0  0
  3  6  1  0  0  0  0
 38 41  1  0  0  0  0
 38 42  1  0  0  0  0
 38 43  1  0  0  0  0
 11 14  1  0  0  0  0
 11 15  1  0  0  0  0
 11 16  1  0  0  0  0
 45 47  1  0  0  0  0
 45 48  1  0  0  0  0
 45 49  1  0  0  0  0
 21 29  1  0  0  0  0
 21 30  1  0  0  0  0
 35 40  1  0  0  0  0
  8 13  1  0  0  0  0
 18 28  1  0  0  0  0
 26 33  1  0  0  0  0
 44 46  1  0  0  0  0
  7 12  1  0  0  0  0
 34 39  1  0  0  0  0
 17 27  1  0  0  0  0
M  END
$$$$

  -OEChem-02062319033D

 49 49  0     1  0  0  0  0  0999 V2000
   -1.6183    0.5613    3.8201 C   0  0  0  0  0  0  0  0  0  0  0  0
   -0.6710   -0.0534    3.3444 O   0  0  0  0  0  0  0  0  0  0  0  0
   -2.0502    0.2789    5.2208 C   0  0  0  0  0  0  0  0  0  0  0  0
   -2.8099   -0.5175    5.2742 H   0  0  0  0  0  0  0  0  0  0  0  0
   -1.2190   -0.0687    5.8551 H   0  0  0  0  0  0  0  0  0  0  0  0
   -2.4882    1.1338    5.7604 H   0  0  0  0  0  0  0  0  0  0  0  0
   -2.3680    1.5337    3.1790 N   0  0  0  0  0  0  0  0  0  0  0  0
   -2.1212    1.9597    1.8266 C   0  0  2  0  0  0  0  0  0  0  0  0
   -0.7862    1.3744    1.3854 C   0  0  0  0  0  0  0  0  0  0  0  0
    0.0859    1.0216    2.1767 O   0  0  0  0  0  0  0  0  0  0  0  0
   -2.1124    3.4765    1.7171 C   0  0  0  0  0  0  0  0  0  0  0  0
   -3.1331    1.9695    3.6908 H   0  0  0  0  0  0  0  0  0  0  0  0
   -2.9253    1.5413    1.2115 H   0  0  0  0  0  0  0  0  0  0  0  0
   -1.3133    3.9138    2.3268 H   0  0  0  0  0  0  0  0  0  0  0  0
   -1.9529    3.7988    0.6829 H   0  0  0  0  0  0  0  0  0  0  0  0
   -3.0626    3.8977    2.0629 H   0  0  0  0  0  0  0  0  0  0  0  0
   -0.6635    1.3313    0.0020 N   0  0  0  0  0  0  0  0  0  0  0  0
    0.3807    2.0234   -0.7106 C   0  0  2  0  0  0  0  0  0  0  0  0
    0.2304    3.5085   -0.4005 C   0  0  0  0  0  0  0  0  0  0  0  0
    1.1863    4.2402   -0.1522 O   0  0  0  0  0  0  0  0  0  0  0  0
    0.3059    1.7846   -2.2231 C   0  0  0  0  0  0  0  0  0  0  0  0
    0.5320    0.3403   -2.5978 C   0  0  0  0  0  0  0  0  0  0  0  0
    1.7926   -0.2013   -2.5625 N   0  0  0  0  0  0  0  0  0  0  0  0
   -0.3969   -0.5899   -3.0008 C   0  0  0  0  0  0  0  0  0  0  0  0
    1.6312   -1.4500   -2.9404 C   0  0  0  0  0  0  0  0  0  0  0  0
    0.3223   -1.7315   -3.2171 N   0  0  0  0  0  0  0  0  0  0  0  0
   -1.3101    0.7594   -0.5361 H   0  0  0  0  0  0  0  0  0  0  0  0
    1.3311    1.6650   -0.2980 H   0  0  0  0  0  0  0  0  0  0  0  0
    1.0342    2.4200   -2.7450 H   0  0  0  0  0  0  0  0  0  0  0  0
   -0.6742    2.0912   -2.6118 H   0  0  0  0  0  0  0  0  0  0  0  0
   -1.4663   -0.5486   -3.1498 H   0  0  0  0  0  0  0  0  0  0  0  0
    2.4107   -2.1930   -3.0334 H   0  0  0  0  0  0  0  0  0  0  0  0
   -0.0461   -2.6217   -3.5244 H   0  0  0  0  0  0  0  0  0  0  0  0
   -1.0908    3.9256   -0.4839 N   0  0  0  0  0  0  0  0  0  0  0  0
   -1.5075    5.2911   -0.2591 C   0  0  2  0  0  0  0  0  0  0  0  0
   -0.8973    5.7587    1.0556 C   0  0  0  0  0  0  0  0  0  0  0  0
   -0.5337    4.9851    1.9390 O   0  0  0  0  0  0  0  0  0  0  0  0
   -3.0234    5.4089   -0.2271 C   0  0  0  0  0  0  0  0  0  0  0  0
   -1.8005    3.2365   -0.7145 H   0  0  0  0  0  0  0  0  0  0  0  0
   -1.0998    5.8860   -1.0836 H   0  0  0  0  0  0  0  0  0  0  0  0
   -3.4500    4.8194    0.5927 H   0  0  0  0  0  0  0  0  0  0  0  0
   -3.3377    6.4481   -0.0852 H   0  0  0  0  0  0  0  0  0  0  0  0
   -3.4624    5.0444   -1.1620 H   0  0  0  0  0  0  0  0  0  0  0  0
   -0.8463    7.1428    1.1443 N   0  0  0  0  0  0  0  0  0  0  0  0
   -0.3211    7.8311    2.3003 C   0  0  0  0  0  0  0  0  0  0  0  0
   -1.1524    7.7056    0.3560 H   0  0  0  0  0  0  0  0  0  0  0  0
   -1.1411    8.0542    2.9987 H   0  0  0  0  0  0  0  0  0  0  0  0
    0.4227    7.1933    2.8001 H   0  0  0  0  0  0  0  0  0  0  0  0
    0.1554    8.7702    1.9825 H   0  0  0  0  0  0  0  0  0  0  0  0
 22 24  2  0  0  0  0
 24 26  1  0  0  0  0
 23 25  2  0  0  0  0
 25 26  1  0  0  0  0
 21 22  1  0  0  0  0
 22 23  1  0  0  0  0
  1  3  1  0  0  0  0
  1  7  1  0  0  0  0
  1  2  2  0  0  0  0
 35 36  1  0  0  0  0
 36 44  1  0  0  0  0
 36 37  2  0  0  0  0
  8  9  1  0  0  0  0
  9 17  1  0  0  0  0
  9 10  2  0  0  0  0
 18 19  1  0  0  0  0
 19 34  1  0  0  0  0
 19 20  2  0  0  0  0
 35 38  1  0  0  0  0
  8 11  1  0  0  0  0
 44 45  1  0  0  0  0
 18 21  1  0  0  0  0
 34 35  1  0  0  0  0
  7  8  1  0  0  0  0
 17 18  1  0  0  0  0
 24 31  1  0  0  0  0
 25 32  1  0  0  0  0
  3  4  1  0  0  0  0
  3  5  1  0  0  0  0
  3  6  1  0  0  0  0
 38 41  1  0  0  0  0
 38 42  1  0  0  0  0
 38 43  1  0  0  0  0
 11 14  1  0  0  0  0
 11 15  1  0  0  0  0
 11 16  1  0  0  0  0
 45 47  1  0  0  0  0
 45 48  1  0  0  0  0
 45 49  1  0  0  0  0
 21 29  1  0  0  0  0
 21 30  1  0  0  0  0
 35 40  1  0  0  0  0
  8 13  1  0  0  0  0
 18 28  1  0  0  0  0
 26 33  1  0  0  0  0
 44 46  1  0  0  0  0
  7 12  1  0  0  0  0
 34 39  1  0  0  0  0
 17 27  1  0  0  0  0
M  END
$$$$

  -OEChem-02062319033D

 49 49  0     1  0  0  0  0  0999 V2000
   -1.6183    0.5613    3.8201 C   0  0  0  0  0  0  0  0  0  0  0  0
   -0.6710   -0.0534    3.3444 O   0  0  0  0  0  0  0  0  0  0  0  0
   -2.0502    0.2789    5.2208 C   0  0  0  0  0  0  0  0  0  0  0  0
   -2.8099   -0.5175    5.2742 H   0  0  0  0  0  0  0  0  0  0  0  0
   -1.2190   -0.0687    5.8551 H   0  0  0  0  0  0  0  0  0  0  0  0
   -2.4882    1.1338    5.7604 H   0  0  0  0  0  0  0  0  0  0  0  0
   -2.3680    1.5337    3.1790 N   0  0  0  0  0  0  0  0  0  0  0  0
   -2.1212    1.9597    1.8266 C   0  0  2  0  0  0  0  0  0  0  0  0
   -0.7862    1.3744    1.3854 C   0  0  0  0  0  0  0  0  0  0  0  0
    0.0859    1.0216    2.1767 O   0  0  0  0  0  0  0  0  0  0  0  0
   -2.1124    3.4765    1.7171 C   0  0  0  0  0  0  0  0  0  0  0  0
   -3.1331    1.9695    3.6908 H   0  0  0  0  0  0  0  0  0  0  0  0
   -2.9253    1.5413    1.2115 H   0  0  0  0  0  0  0  0  0  0  0  0
   -1.3133    3.9138    2.3268 H   0  0  0  0  0  0  0  0  0  0  0  0
   -1.9529    3.7988    0.6829 H   0  0  0  0  0  0  0  0  0  0  0  0
   -3.0626    3.8977    2.0629 H   0  0  0  0  0  0  0  0  0  0  0  0
   -0.6635    1.3313    0.0020 N   0  0  0  0  0  0  0  0  0  0  0  0
    0.5315    1.7462   -0.6886 C   0  0  2  0  0  0  0  0  0  0  0  0
    0.7655    3.2127   -0.3439 C   0  0  0  0  0  0  0  0  0  0  0  0
    1.8748    3.6677   -0.0733 O   0  0  0  0  0  0  0  0  0  0  0  0
    0.4144    1.5678   -2.2067 C   0  0  0  0  0  0  0  0  0  0  0  0
    0.2650    0.1225   -2.6147 C   0  0  0  0  0  0  0  0  0  0  0  0
    1.3431   -0.7264   -2.5860 N   0  0  0  0  0  0  0  0  0  0  0  0
   -0.8676   -0.5278   -3.0445 C   0  0  0  0  0  0  0  0  0  0  0  0
    0.8697   -1.8827   -2.9944 C   0  0  0  0  0  0  0  0  0  0  0  0
   -0.4645   -1.8112   -3.2843 N   0  0  0  0  0  0  0  0  0  0  0  0
   -1.4296    0.9573   -0.5529 H   0  0  0  0  0  0  0  0  0  0  0  0
    1.3529    1.1460   -0.2799 H   0  0  0  0  0  0  0  0  0  0  0  0
    1.2876    2.0052   -2.7096 H   0  0  0  0  0  0  0  0  0  0  0  0
   -0.4493    2.1250   -2.5929 H   0  0  0  0  0  0  0  0  0  0  0  0
   -1.8886   -0.2090   -3.1979 H   0  0  0  0  0  0  0  0  0  0  0  0
    1.4324   -2.7993   -3.1012 H   0  0  0  0  0  0  0  0  0  0  0  0
   -1.0463   -2.5695   -3.6147 H   0  0  0  0  0  0  0  0  0  0  0  0
   -0.4027    3.9580   -0.4239 N   0  0  0  0  0  0  0  0  0  0  0  0
   -0.4561    5.3796   -0.1686 C   0  0  2  0  0  0  0  0  0  0  0  0
    0.2394    5.6453    1.1599 C   0  0  0  0  0  0  0  0  0  0  0  0
    0.3818    4.7850    2.0264 O   0  0  0  0  0  0  0  0  0  0  0  0
   -1.8907    5.8833   -0.1414 C   0  0  0  0  0  0  0  0  0  0  0  0
   -1.2634    3.4803   -0.6745 H   0  0  0  0  0  0  0  0  0  0  0  0
    0.1002    5.8671   -0.9767 H   0  0  0  0  0  0  0  0  0  0  0  0
   -2.4638    5.4060    0.6619 H   0  0  0  0  0  0  0  0  0  0  0  0
   -1.9283    6.9652    0.0236 H   0  0  0  0  0  0  0  0  0  0  0  0
   -2.3985    5.6648   -1.0870 H   0  0  0  0  0  0  0  0  0  0  0  0
    0.6443    6.9672    1.2819 N   0  0  0  0  0  0  0  0  0  0  0  0
    1.3163    7.4715    2.4567 C   0  0  0  0  0  0  0  0  0  0  0  0
    0.5022    7.6069    0.5058 H   0  0  0  0  0  0  0  0  0  0  0  0
    0.5738    7.8832    3.1561 H   0  0  0  0  0  0  0  0  0  0  0  0
    1.8652    6.6527    2.9448 H   0  0  0  0  0  0  0  0  0  0  0  0
    2.0221    8.2627    2.1638 H   0  0  0  0  0  0  0  0  0  0  0  0
 22 24  2  0  0  0  0
 24 26  1  0  0  0  0
 23 25  2  0  0  0  0
 25 26  1  0  0  0  0
 21 22  1  0  0  0  0
 22 23  1  0  0  0  0
  1  3  1  0  0  0  0
  1  7  1  0  0  0  0
  1  2  2  0  0  0  0
 35 36  1  0  0  0  0
 36 44  1  0  0  0  0
 36 37  2  0  0  0  0
  8  9  1  0  0  0  0
  9 17  1  0  0  0  0
  9 10  2  0  0  0  0
 18 19  1  0  0  0  0
 19 34  1  0  0  0  0
 19 20  2  0  0  0  0
 35 38  1  0  0  0  0
  8 11  1  0  0  0  0
 44 45  1  0  0  0  0
 18 21  1  0  0  0  0
 34 35  1  0  0  0  0
  7  8  1  0  0  0  0
 17 18  1  0  0  0  0
 24 31  1  0  0  0  0
 25 32  1  0  0  0  0
  3  4  1  0  0  0  0
  3  5  1  0  0  0  0
  3  6  1  0  0  0  0
 38 41  1  0  0  0  0
 38 42  1  0  0  0  0
 38 43  1  0  0  0  0
 11 14  1  0  0  0  0
 11 15  1  0  0  0  0
 11 16  1  0  0  0  0
 45 47  1  0  0  0  0
 45 48  1  0  0  0  0
 45 49  1  0  0  0  0
 21 29  1  0  0  0  0
 21 30  1  0  0  0  0
 35 40  1  0  0  0  0
  8 13  1  0  0  0  0
 18 28  1  0  0  0  0
 26 33  1  0  0  0  0
 44 46  1  0  0  0  0
  7 12  1  0  0  0  0
 34 39  1  0  0  0  0
 17 27  1  0  0  0  0
M  END
$$$$

  -OEChem-02062319033D

 49 49  0     1  0  0  0  0  0999 V2000
   -1.6183    0.5613    3.8201 C   0  0  0  0  0  0  0  0  0  0  0  0
   -0.6710   -0.0534    3.3444 O   0  0  0  0  0  0  0  0  0  0  0  0
   -2.0502    0.2789    5.2208 C   0  0  0  0  0  0  0  0  0  0  0  0
   -2.8099   -0.5175    5.2742 H   0  0  0  0  0  0  0  0  0  0  0  0
   -1.2190   -0.0687    5.8551 H   0  0  0  0  0  0  0  0  0  0  0  0
   -2.4882    1.1338    5.7604 H   0  0  0  0  0  0  0  0  0  0  0  0
   -2.3680    1.5337    3.1790 N   0  0  0  0  0  0  0  0  0  0  0  0
   -2.1212    1.9597    1.8266 C   0  0  2  0  0  0  0  0  0  0  0  0
   -0.7862    1.3744    1.3854 C   0  0  0  0  0  0  0  0  0  0  0  0
    0.0859    1.0216    2.1767 O   0  0  0  0  0  0  0  0  0  0  0  0
   -2.1124    3.4765    1.7171 C   0  0  0  0  0  0  0  0  0  0  0  0
   -3.1331    1.9695    3.6908 H   0  0  0  0  0  0  0  0  0  0  0  0
   -2.9253    1.5413    1.2115 H   0  0  0  0  0  0  0  0  0  0  0  0
   -1.3133    3.9138    2.3268 H   0  0  0  0  0  0  0  0  0  0  0  0
   -1.9529    3.7988    0.6829 H   0  0  0  0  0  0  0  0  0  0  0  0
   -3.0626    3.8977    2.0629 H   0  0  0  0  0  0  0  0  0  0  0  0
   -0.6635    1.3313    0.0020 N   0  0  0  0  0  0  0  0  0  0  0  0
    0.6056    1.4391   -0.6725 C   0  0  2  0  0  0  0  0  0  0  0  0
    1.2056    2.7878   -0.2916 C   0  0  0  0  0  0  0  0  0  0  0  0
    2.3917    2.9355   -0.0047 O   0  0  0  0  0  0  0  0  0  0  0  0
    0.4633    1.3300   -2.1950 C   0  0  0  0  0  0  0  0  0  0  0  0
   -0.0489   -0.0187   -2.6381 C   0  0  0  0  0  0  0  0  0  0  0  0
    0.7738   -1.1172   -2.6243 N   0  0  0  0  0  0  0  0  0  0  0  0
   -1.3060   -0.3455   -3.0891 C   0  0  0  0  0  0  0  0  0  0  0  0
    0.0230   -2.1032   -3.0626 C   0  0  0  0  0  0  0  0  0  0  0  0
   -1.2445   -1.6839   -3.3575 N   0  0  0  0  0  0  0  0  0  0  0  0
   -1.4939    1.1796   -0.5655 H   0  0  0  0  0  0  0  0  0  0  0  0
    1.2401    0.6387   -0.2741 H   0  0  0  0  0  0  0  0  0  0  0  0
    1.4251    1.5384   -2.6829 H   0  0  0  0  0  0  0  0  0  0  0  0
   -0.2234    2.0993   -2.5721 H   0  0  0  0  0  0  0  0  0  0  0  0
   -2.2087    0.2290   -3.2399 H   0  0  0  0  0  0  0  0  0  0  0  0
    0.3318   -3.1314   -3.1885 H   0  0  0  0  0  0  0  0  0  0  0  0
   -1.9983   -2.2592   -3.7088 H   0  0  0  0  0  0  0  0  0  0  0  0
    0.2698    3.8106   -0.3597 N   0  0  0  0  0  0  0  0  0  0  0  0
    0.5816    5.1920   -0.0708 C   0  0  2  0  0  0  0  0  0  0  0  0
    1.3074    5.2404    1.2673 C   0  0  0  0  0  0  0  0  0  0  0  0
    1.2138    4.3538    2.1136 O   0  0  0  0  0  0  0  0  0  0  0  0
   -0.6751    6.0478   -0.0388 C   0  0  0  0  0  0  0  0  0  0  0  0
   -0.6821    3.5765   -0.6259 H   0  0  0  0  0  0  0  0  0  0  0  0
    1.2535    5.5371   -0.8641 H   0  0  0  0  0  0  0  0  0  0  0  0
   -1.3606    5.7170    0.7500 H   0  0  0  0  0  0  0  0  0  0  0  0
   -0.4345    7.0989    0.1519 H   0  0  0  0  0  0  0  0  0  0  0  0
   -1.2116    5.9883   -0.9919 H   0  0  0  0  0  0  0  0  0  0  0  0
    2.0377    6.4103    1.4228 N   0  0  0  0  0  0  0  0  0  0  0  0
    2.8039    6.6986    2.6126 C   0  0  0  0  0  0  0  0  0  0  0  0
    2.0738    7.0817    0.6615 H   0  0  0  0  0  0  0  0  0  0  0  0
    2.1849    7.2725    3.3180 H   0  0  0  0  0  0  0  0  0  0  0  0
    3.1180    5.7556    3.0839 H   0  0  0  0  0  0  0  0  0  0  0  0
    3.6929    7.2874    2.3424 H   0  0  0  0  0  0  0  0  0  0  0  0
 22 24  2  0  0  0  0
 24 26  1  0  0  0  0
 23 25  2  0  0  0  0
 25 26  1  0  0  0  0
 21 22  1  0  0  0  0
 22 23  1  0  0  0  0
  1  3  1  0  0  0  0
  1  7  1  0  0  0  0
  1  2  2  0  0  0  0
 35 36  1  0  0  0  0
 36 44  1  0  0  0  0
 36 37  2  0  0  0  0
  8  9  1  0  0  0  0
  9 17  1  0  0  0  0
  9 10  2  0  0  0  0
 18 19  1  0  0  0  0
 19 34  1  0  0  0  0
 19 20  2  0  0  0  0
 35 38  1  0  0  0  0
  8 11  1  0  0  0  0
 44 45  1  0  0  0  0
 18 21  1  0  0  0  0
 34 35  1  0  0  0  0
  7  8  1  0  0  0  0
 17 18  1  0  0  0  0
 24 31  1  0  0  0  0
 25 32  1  0  0  0  0
  3  4  1  0  0  0  0
  3  5  1  0  0  0  0
  3  6  1  0  0  0  0
 38 41  1  0  0  0  0
 38 42  1  0  0  0  0
 38 43  1  0  0  0  0
 11 14  1  0  0  0  0
 11 15  1  0  0  0  0
 11 16  1  0  0  0  0
 45 47  1  0  0  0  0
 45 48  1  0  0  0  0
 45 49  1  0  0  0  0
 21 29  1  0  0  0  0
 21 30  1  0  0  0  0
 35 40  1  0  0  0  0
  8 13  1  0  0  0  0
 18 28  1  0  0  0  0
 26 33  1  0  0  0  0
 44 46  1  0  0  0  0
  7 12  1  0  0  0  0
 34 39  1  0  0  0  0
 17 27  1  0  0  0  0
M  END
$$$$

  -OEChem-02062319033D

 49 49  0     1  0  0  0  0  0999 V2000
   -1.6183    0.5613    3.8201 C   0  0  0  0  0  0  0  0  0  0  0  0
   -0.6710   -0.0534    3.3444 O   0  0  0  0  0  0  0  0  0  0  0  0
   -2.0502    0.2789    5.2208 C   0  0  0  0  0  0  0  0  0  0  0  0
   -2.8099   -0.5175    5.2742 H   0  0  0  0  0  0  0  0  0  0  0  0
   -1.2190   -0.0687    5.8551 H   0  0  0  0  0  0  0  0  0  0  0  0
   -2.4882    1.1338    5.7604 H   0  0  0  0  0  0  0  0  0  0  0  0
   -2.3680    1.5337    3.1790 N   0  0  0  0  0  0  0  0  0  0  0  0
   -2.1212    1.9597    1.8266 C   0  0  2  0  0  0  0  0  0  0  0  0
   -0.7862    1.3744    1.3854 C   0  0  0  0  0  0  0  0  0  0  0  0
    0.0859    1.0216    2.1767 O   0  0  0  0  0  0  0  0  0  0  0  0
   -2.1124    3.4765    1.7171 C   0  0  0  0  0  0  0  0  0  0  0  0
   -3.1331    1.9695    3.6908 H   0  0  0  0  0  0  0  0  0  0  0  0
   -2.9253    1.5413    1.2115 H   0  0  0  0  0  0  0  0  0  0  0  0
   -1.3133    3.9138    2.3268 H   0  0  0  0  0  0  0  0  0  0  0  0
   -1.9529    3.7988    0.6829 H   0  0  0  0  0  0  0  0  0  0  0  0
   -3.0626    3.8977    2.0629 H   0  0  0  0  0  0  0  0  0  0  0  0
   -0.6635    1.3313    0.0020 N   0  0  0  0  0  0  0  0  0  0  0  0
    0.5979    1.1230   -0.6633 C   0  0  2  0  0  0  0  0  0  0  0  0
    1.5208    2.2628   -0.2473 C   0  0  0  0  0  0  0  0  0  0  0  0
    2.7017    2.0935    0.0491 O   0  0  0  0  0  0  0  0  0  0  0  0
    0.4491    1.0874   -2.1887 C   0  0  0  0  0  0  0  0  0  0  0  0
   -0.3883   -0.0737   -2.6665 C   0  0  0  0  0  0  0  0  0  0  0  0
    0.1234   -1.3471   -2.6748 N   0  0  0  0  0  0  0  0  0  0  0  0
   -1.6822   -0.0554   -3.1314 C   0  0  0  0  0  0  0  0  0  0  0  0
   -0.8511   -2.0965   -3.1403 C   0  0  0  0  0  0  0  0  0  0  0  0
   -1.9645   -1.3583   -3.4314 N   0  0  0  0  0  0  0  0  0  0  0  0
   -1.4987    1.4112   -0.5731 H   0  0  0  0  0  0  0  0  0  0  0  0
    1.0004    0.1775   -0.2809 H   0  0  0  0  0  0  0  0  0  0  0  0
    1.4374    1.0515   -2.6666 H   0  0  0  0  0  0  0  0  0  0  0  0
   -0.0121    2.0159   -2.5508 H   0  0  0  0  0  0  0  0  0  0  0  0
   -2.4046    0.7355   -3.2730 H   0  0  0  0  0  0  0  0  0  0  0  0
   -0.8162   -3.1665   -3.2892 H   0  0  0  0  0  0  0  0  0  0  0  0
   -2.8371   -1.7120   -3.8002 H   0  0  0  0  0  0  0  0  0  0  0  0
    0.8809    3.4935   -0.2956 N   0  0  0  0  0  0  0  0  0  0  0  0
    1.5348    4.7412    0.0278 C   0  0  2  0  0  0  0  0  0  0  0  0
    2.2338    4.5717    1.3702 C   0  0  0  0  0  0  0  0  0  0  0  0
    1.9056    3.7210    2.1947 O   0  0  0  0  0  0  0  0  0  0  0  0
    0.5407    5.8911    0.0739 C   0  0  0  0  0  0  0  0  0  0  0  0
   -0.0961    3.5186   -0.5722 H   0  0  0  0  0  0  0  0  0  0  0  0
    2.2817    4.9187   -0.7537 H   0  0  0  0  0  0  0  0  0  0  0  0
   -0.2155    5.7311    0.8511 H   0  0  0  0  0  0  0  0  0  0  0  0
    1.0418    6.8403    0.2908 H   0  0  0  0  0  0  0  0  0  0  0  0
    0.0175    5.9927   -0.8830 H   0  0  0  0  0  0  0  0  0  0  0  0
    3.2390    5.5101    1.5574 N   0  0  0  0  0  0  0  0  0  0  0  0
    4.0405    5.5652    2.7576 C   0  0  0  0  0  0  0  0  0  0  0  0
    3.4552    6.1660    0.8125 H   0  0  0  0  0  0  0  0  0  0  0  0
    3.5824    6.2637    3.4733 H   0  0  0  0  0  0  0  0  0  0  0  0
    4.0958    4.5630    3.2077 H   0  0  0  0  0  0  0  0  0  0  0  0
    5.0541    5.9106    2.5060 H   0  0  0  0  0  0  0  0  0  0  0  0
 22 24  2  0  0  0  0
 24 26  1  0  0  0  0
 23 25  2  0  0  0  0
 25 26  1  0  0  0  0
 21 22  1  0  0  0  0
 22 23  1  0  0  0  0
  1  3  1  0  0  0  0
  1  7  1  0  0  0  0
  1  2  2  0  0  0  0
 35 36  1  0  0  0  0
 36 44  1  0  0  0  0
 36 37  2  0  0  0  0
  8  9  1  0  0  0  0
  9 17  1  0  0  0  0
  9 10  2  0  0  0  0
 18 19  1  0  0  0  0
 19 34  1  0  0  0  0
 19 20  2  0  0  0  0
 35 38  1  0  0  0  0
  8 11  1  0  0  0  0
 44 45  1  0  0  0  0
 18 21  1  0  0  0  0
 34 35  1  0  0  0  0
  7  8  1  0  0  0  0
 17 18  1  0  0  0  0
 24 31  1  0  0  0  0
 25 32  1  0  0  0  0
  3  4  1  0  0  0  0
  3  5  1  0  0  0  0
  3  6  1  0  0  0  0
 38 41  1  0  0  0  0
 38 42  1  0  0  0  0
 38 43  1  0  0  0  0
 11 14  1  0  0  0  0
 11 15  1  0  0  0  0
 11 16  1  0  0  0  0
 45 47  1  0  0  0  0
 45 48  1  0  0  0  0
 45 49  1  0  0  0  0
 21 29  1  0  0  0  0
 21 30  1  0  0  0  0
 35 40  1  0  0  0  0
  8 13  1  0  0  0  0
 18 28  1  0  0  0  0
 26 33  1  0  0  0  0
 44 46  1  0  0  0  0
  7 12  1  0  0  0  0
 34 39  1  0  0  0  0
 17 27  1  0  0  0  0
M  END
$$$$
