
  -OEChem-02062319093D

 49 49  0     1  0  0  0  0  0999 V2000
   -2.1666   -1.5926    3.7264 C   0  0  0  0  0  0  0  0  0  0  0  0
   -3.3223   -1.7862    3.3840 O   0  0  0  0  0  0  0  0  0  0  0  0
   -1.6963   -2.0236    5.1029 C   0  0  0  0  0  0  0  0  0  0  0  0
   -2.5140   -2.5041    5.6473 H   0  0  0  0  0  0  0  0  0  0  0  0
   -0.8702   -2.7330    5.0113 H   0  0  0  0  0  0  0  0  0  0  0  0
   -1.3586   -1.1526    5.6700 H   0  0  0  0  0  0  0  0  0  0  0  0
   -1.2830   -0.9842    2.8608 N   0  0  0  0  0  0  0  0  0  0  0  0
   -1.5886   -0.6456    1.4647 C   0  0  2  0  0  0  0  0  0  0  0  0
   -0.3452   -0.7797    0.5621 C   0  0  0  0  0  0  0  0  0  0  0  0
    0.7678   -0.9123    1.0593 O   0  0  0  0  0  0  0  0  0  0  0  0
   -2.1323    0.7860    1.4263 C   0  0  0  0  0  0  0  0  0  0  0  0
   -0.3018   -0.9588    3.1357 H   0  0  0  0  0  0  0  0  0  0  0  0
   -2.3488   -1.3305    1.0731 H   0  0  0  0  0  0  0  0  0  0  0  0
   -1.3815    1.4914    1.7976 H   0  0  0  0  0  0  0  0  0  0  0  0
   -2.4025    1.0678    0.4041 H   0  0  0  0  0  0  0  0  0  0  0  0
   -3.0269    0.8677    2.0522 H   0  0  0  0  0  0  0  0  0  0  0  0
   -0.4595   -0.6632   -0.8108 N   0  0  0  0  0  0  0  0  0  0  0  0
    0.6653   -0.7771   -1.7531 C   0  0  2  0  0  0  0  0  0  0  0  0
    1.7644    0.2744   -1.5126 C   0  0  0  0  0  0  0  0  0  0  0  0
    2.9433   -0.0478   -1.5306 O   0  0  0  0  0  0  0  0  0  0  0  0
    0.1321   -0.6357   -3.1903 C   0  0  0  0  0  0  0  0  0  0  0  0
   -0.9907   -1.5933   -3.4795 C   0  0  0  0  0  0  0  0  0  0  0  0
   -2.2528   -1.5025   -2.8962 N   0  0  0  0  0  0  0  0  0  0  0  0
   -0.9436   -2.6394   -4.3562 C   0  0  0  0  0  0  0  0  0  0  0  0
   -2.9647   -2.4812   -3.4068 C   0  0  0  0  0  0  0  0  0  0  0  0
   -2.2003   -3.2046   -4.3030 N   0  0  0  0  0  0  0  0  0  0  0  0
   -1.4007   -0.7504   -1.2058 H   0  0  0  0  0  0  0  0  0  0  0  0
    1.1245   -1.7655   -1.6375 H   0  0  0  0  0  0  0  0  0  0  0  0
    0.9519   -0.8118   -3.8941 H   0  0  0  0  0  0  0  0  0  0  0  0
   -0.2321    0.3830   -3.3540 H   0  0  0  0  0  0  0  0  0  0  0  0
   -0.0935   -2.9443   -4.9603 H   0  0  0  0  0  0  0  0  0  0  0  0
   -4.0021   -2.6899   -3.1591 H   0  0  0  0  0  0  0  0  0  0  0  0
   -2.5244   -4.0122   -4.8332 H   0  0  0  0  0  0  0  0  0  0  0  0
    1.4210    1.5946   -1.2884 N   0  0  0  0  0  0  0  0  0  0  0  0
    2.3775    2.6249   -0.8565 C   0  0  2  0  0  0  0  0  0  0  0  0
    2.5491    2.6466    0.6826 C   0  0  0  0  0  0  0  0  0  0  0  0
    2.4816    3.6933    1.3165 O   0  0  0  0  0  0  0  0  0  0  0  0
    1.8905    3.9629   -1.4267 C   0  0  0  0  0  0  0  0  0  0  0  0
    0.4310    1.7743   -1.1493 H   0  0  0  0  0  0  0  0  0  0  0  0
    3.3648    2.4214   -1.2848 H   0  0  0  0  0  0  0  0  0  0  0  0
    0.9160    4.2294   -1.0057 H   0  0  0  0  0  0  0  0  0  0  0  0
    2.6015    4.7597   -1.1855 H   0  0  0  0  0  0  0  0  0  0  0  0
    1.7986    3.9023   -2.5155 H   0  0  0  0  0  0  0  0  0  0  0  0
    2.7304    1.4621    1.3705 N   0  0  0  0  0  0  0  0  0  0  0  0
    2.7899    1.3669    2.8217 C   0  0  0  0  0  0  0  0  0  0  0  0
    2.6833    0.5996    0.8248 H   0  0  0  0  0  0  0  0  0  0  0  0
    3.6145    1.9719    3.2123 H   0  0  0  0  0  0  0  0  0  0  0  0
    1.8523    1.7147    3.2672 H   0  0  0  0  0  0  0  0  0  0  0  0
    2.9518    0.3273    3.1219 H   0  0  0  0  0  0  0  0  0  0  0  0
  1  2  2  0  0  0  0
  1  3  1  0  0  0  0
  1  7  1  0  0  0  0
  3  4  1  0  0  0  0
  3  5  1  0  0  0  0
  3  6  1  0  0  0  0
  7  8  1  0  0  0  0
  7 12  1  0  0  0  0
  8  9  1  0  0  0  0
  8 11  1  0  0  0  0
  8 13  1  0  0  0  0
  9 10  2  0  0  0  0
  9 17  1  0  0  0  0
 11 14  1  0  0  0  0
 11 15  1  0  0  0  0
 11 16  1  0  0  0  0
 17 18  1  0  0  0  0
 17 27  1  0  0  0  0
 18 19  1  0  0  0  0
 18 21  1  0  0  0  0
 18 28  1  0  0  0  0
 19 20  2  0  0  0  0
 19 34  1  0  0  0  0
 21 22  1  0  0  0  0
 21 29  1  0  0  0  0
 21 30  1  0  0  0  0
 22 23  1  0  0  0  0
 22 24  2  0  0  0  0
 23 25  2  0  0  0  0
 24 26  1  0  0  0  0
 24 31  1  0  0  0  0
 25 26  1  0  0  0  0
 25 32  1  0  0  0  0
 26 33  1  0  0  0  0
 34 35  1  0  0  0  0
 34 39  1  0  0  0  0
 35 36  1  0  0  0  0
 35 38  1  0  0  0  0
 35 40  1  0  0  0  0
 36 37  2  0  0  0  0
 36 44  1  0  0  0  0
 38 41  1  0  0  0  0
 38 42  1  0  0  0  0
 38 43  1  0  0  0  0
 44 45  1  0  0  0  0
 44 46  1  0  0  0  0
 45 47  1  0  0  0  0
 45 48  1  0  0  0  0
 45 49  1  0  0  0  0
M  END
$$$$

  -OEChem-02062319093D

 49 49  0     1  0  0  0  0  0999 V2000
   -2.5295   -1.6764    3.6136 C   0  0  0  0  0  0  0  0  0  0  0  0
   -3.6662   -1.8209    3.1921 O   0  0  0  0  0  0  0  0  0  0  0  0
   -2.1423   -2.2363    4.9696 C   0  0  0  0  0  0  0  0  0  0  0  0
   -2.9986   -2.7371    5.4302 H   0  0  0  0  0  0  0  0  0  0  0  0
   -1.3310   -2.9597    4.8569 H   0  0  0  0  0  0  0  0  0  0  0  0
   -1.8119   -1.4274    5.6260 H   0  0  0  0  0  0  0  0  0  0  0  0
   -1.5884   -1.0154    2.8536 N   0  0  0  0  0  0  0  0  0  0  0  0
   -1.7944   -0.5987    1.4602 C   0  0  2  0  0  0  0  0  0  0  0  0
   -0.5029   -0.7442    0.6291 C   0  0  0  0  0  0  0  0  0  0  0  0
    0.5558   -1.0307    1.1762 O   0  0  0  0  0  0  0  0  0  0  0  0
   -2.2803    0.8536    1.4565 C   0  0  0  0  0  0  0  0  0  0  0  0
   -0.6231   -1.0520    3.1793 H   0  0  0  0  0  0  0  0  0  0  0  0
   -2.5542   -1.2321    0.9892 H   0  0  0  0  0  0  0  0  0  0  0  0
   -1.5296    1.5108    1.9071 H   0  0  0  0  0  0  0  0  0  0  0  0
   -2.4735    1.1927    0.4340 H   0  0  0  0  0  0  0  0  0  0  0  0
   -3.2093    0.9419    2.0286 H   0  0  0  0  0  0  0  0  0  0  0  0
   -0.5427   -0.6098   -0.7461 N   0  0  0  0  0  0  0  0  0  0  0  0
    0.5376   -1.0320   -1.6524 C   0  0  2  0  0  0  0  0  0  0  0  0
    1.8805   -0.3243   -1.3899 C   0  0  0  0  0  0  0  0  0  0  0  0
    2.9298   -0.9543   -1.4232 O   0  0  0  0  0  0  0  0  0  0  0  0
    0.0908   -0.7737   -3.1022 C   0  0  0  0  0  0  0  0  0  0  0  0
   -1.1993   -1.4753   -3.4298 C   0  0  0  0  0  0  0  0  0  0  0  0
   -2.4235   -1.1697   -2.8382 N   0  0  0  0  0  0  0  0  0  0  0  0
   -1.3513   -2.4724   -4.3508 C   0  0  0  0  0  0  0  0  0  0  0  0
   -3.3082   -1.9714   -3.3860 C   0  0  0  0  0  0  0  0  0  0  0  0
   -2.6932   -2.7884   -4.3158 N   0  0  0  0  0  0  0  0  0  0  0  0
   -1.4775   -0.5601   -1.1624 H   0  0  0  0  0  0  0  0  0  0  0  0
    0.7087   -2.1059   -1.5179 H   0  0  0  0  0  0  0  0  0  0  0  0
    0.8742   -1.1165   -3.7855 H   0  0  0  0  0  0  0  0  0  0  0  0
   -0.0446    0.3000   -3.2638 H   0  0  0  0  0  0  0  0  0  0  0  0
   -0.5730   -2.9103   -4.9699 H   0  0  0  0  0  0  0  0  0  0  0  0
   -4.3670   -1.9881   -3.1422 H   0  0  0  0  0  0  0  0  0  0  0  0
   -3.1629   -3.4988   -4.8752 H   0  0  0  0  0  0  0  0  0  0  0  0
    1.9144    1.0416   -1.1799 N   0  0  0  0  0  0  0  0  0  0  0  0
    3.1258    1.7657   -0.7678 C   0  0  2  0  0  0  0  0  0  0  0  0
    3.4092    1.5893    0.7434 C   0  0  0  0  0  0  0  0  0  0  0  0
    3.3982    2.5422    1.5149 O   0  0  0  0  0  0  0  0  0  0  0  0
    2.9474    3.2316   -1.1815 C   0  0  0  0  0  0  0  0  0  0  0  0
    1.0151    1.4710   -0.9820 H   0  0  0  0  0  0  0  0  0  0  0  0
    3.9946    1.3724   -1.3063 H   0  0  0  0  0  0  0  0  0  0  0  0
    2.0928    3.6783   -0.6634 H   0  0  0  0  0  0  0  0  0  0  0  0
    3.8440    3.8075   -0.9306 H   0  0  0  0  0  0  0  0  0  0  0  0
    2.7811    3.3048   -2.2605 H   0  0  0  0  0  0  0  0  0  0  0  0
    3.6236    0.3183    1.2378 N   0  0  0  0  0  0  0  0  0  0  0  0
    3.6459    0.0076    2.6593 C   0  0  0  0  0  0  0  0  0  0  0  0
    3.4706   -0.4442    0.5739 H   0  0  0  0  0  0  0  0  0  0  0  0
    4.4411    0.5671    3.1627 H   0  0  0  0  0  0  0  0  0  0  0  0
    2.6858    0.2634    3.1194 H   0  0  0  0  0  0  0  0  0  0  0  0
    3.8283   -1.0612    2.8075 H   0  0  0  0  0  0  0  0  0  0  0  0
  1  2  2  0  0  0  0
  1  3  1  0  0  0  0
  1  7  1  0  0  0  0
  3  4  1  0  0  0  0
  3  5  1  0  0  0  0
  3  6  1  0  0  0  0
  7  8  1  0  0  0  0
  7 12  1  0  0  0  0
  8  9  1  0  0  0  0
  8 11  1  0  0  0  0
  8 13  1  0  0  0  0
  9 10  2  0  0  0  0
  9 17  1  0  0  0  0
 11 14  1  0  0  0  0
 11 15  1  0  0  0  0
 11 16  1  0  0  0  0
 17 18  1  0  0  0  0
 17 27  1  0  0  0  0
 18 19  1  0  0  0  0
 18 21  1  0  0  0  0
 18 28  1  0  0  0  0
 19 20  2  0  0  0  0
 19 34  1  0  0  0  0
 21 22  1  0  0  0  0
 21 29  1  0  0  0  0
 21 30  1  0  0  0  0
 22 23  1  0  0  0  0
 22 24  2  0  0  0  0
 23 25  2  0  0  0  0
 24 26  1  0  0  0  0
 24 31  1  0  0  0  0
 25 26  1  0  0  0  0
 25 32  1  0  0  0  0
 26 33  1  0  0  0  0
 34 35  1  0  0  0  0
 34 39  1  0  0  0  0
 35 36  1  0  0  0  0
 35 38  1  0  0  0  0
 35 40  1  0  0  0  0
 36 37  2  0  0  0  0
 36 44  1  0  0  0  0
 38 41  1  0  0  0  0
 38 42  1  0  0  0  0
 38 43  1  0  0  0  0
 44 45  1  0  0  0  0
 44 46  1  0  0  0  0
 45 47  1  0  0  0  0
 45 48  1  0  0  0  0
 45 49  1  0  0  0  0
M  END
$$$$

  -OEChem-02062319093D

 49 49  0     1  0  0  0  0  0999 V2000
   -2.8531   -1.6171    3.5414 C   0  0  0  0  0  0  0  0  0  0  0  0
   -3.9828   -1.6168    3.0783 O   0  0  0  0  0  0  0  0  0  0  0  0
   -2.5870   -2.2348    4.9011 C   0  0  0  0  0  0  0  0  0  0  0  0
   -3.5225   -2.5859    5.3457 H   0  0  0  0  0  0  0  0  0  0  0  0
   -1.9054   -3.0825    4.7981 H   0  0  0  0  0  0  0  0  0  0  0  0
   -2.1376   -1.4936    5.5666 H   0  0  0  0  0  0  0  0  0  0  0  0
   -1.8124   -1.0671    2.8240 N   0  0  0  0  0  0  0  0  0  0  0  0
   -1.9237   -0.5884    1.4400 C   0  0  2  0  0  0  0  0  0  0  0  0
   -0.5950   -0.7447    0.6710 C   0  0  0  0  0  0  0  0  0  0  0  0
    0.4000   -1.1746    1.2427 O   0  0  0  0  0  0  0  0  0  0  0  0
   -2.3607    0.8795    1.4657 C   0  0  0  0  0  0  0  0  0  0  0  0
   -0.8694   -1.2164    3.1820 H   0  0  0  0  0  0  0  0  0  0  0  0
   -2.6774   -1.1779    0.9059 H   0  0  0  0  0  0  0  0  0  0  0  0
   -1.6125    1.4929    1.9777 H   0  0  0  0  0  0  0  0  0  0  0  0
   -2.4897    1.2607    0.4481 H   0  0  0  0  0  0  0  0  0  0  0  0
   -3.3146    0.9817    1.9929 H   0  0  0  0  0  0  0  0  0  0  0  0
   -0.5719   -0.5792   -0.7012 N   0  0  0  0  0  0  0  0  0  0  0  0
    0.3710   -1.2705   -1.5962 C   0  0  2  0  0  0  0  0  0  0  0  0
    1.8542   -0.9724   -1.3068 C   0  0  0  0  0  0  0  0  0  0  0  0
    2.6896   -1.8640   -1.3912 O   0  0  0  0  0  0  0  0  0  0  0  0
    0.0310   -0.8941   -3.0480 C   0  0  0  0  0  0  0  0  0  0  0  0
   -1.3768   -1.2850   -3.4072 C   0  0  0  0  0  0  0  0  0  0  0  0
   -2.5137   -0.7479   -2.8058 N   0  0  0  0  0  0  0  0  0  0  0  0
   -1.7290   -2.1934   -4.3645 C   0  0  0  0  0  0  0  0  0  0  0  0
   -3.5433   -1.3209   -3.3861 C   0  0  0  0  0  0  0  0  0  0  0  0
   -3.1076   -2.2155   -4.3453 N   0  0  0  0  0  0  0  0  0  0  0  0
   -1.4797   -0.3622   -1.1238 H   0  0  0  0  0  0  0  0  0  0  0  0
    0.2398   -2.3514   -1.4724 H   0  0  0  0  0  0  0  0  0  0  0  0
    0.7305   -1.3956   -3.7242 H   0  0  0  0  0  0  0  0  0  0  0  0
    0.1459    0.1845   -3.1906 H   0  0  0  0  0  0  0  0  0  0  0  0
   -1.0563   -2.7669   -4.9962 H   0  0  0  0  0  0  0  0  0  0  0  0
   -4.5837   -1.1204   -3.1454 H   0  0  0  0  0  0  0  0  0  0  0  0
   -3.7125   -2.7870   -4.9334 H   0  0  0  0  0  0  0  0  0  0  0  0
    2.2668    0.3256   -1.0725 N   0  0  0  0  0  0  0  0  0  0  0  0
    3.6441    0.6837   -0.7031 C   0  0  2  0  0  0  0  0  0  0  0  0
    3.9646    0.3368    0.7723 C   0  0  0  0  0  0  0  0  0  0  0  0
    4.2844    1.2012    1.5809 O   0  0  0  0  0  0  0  0  0  0  0  0
    3.8284    2.1725   -1.0223 C   0  0  0  0  0  0  0  0  0  0  0  0
    1.5249    0.9766   -0.8306 H   0  0  0  0  0  0  0  0  0  0  0  0
    4.3479    0.1205   -1.3253 H   0  0  0  0  0  0  0  0  0  0  0  0
    3.1579    2.7839   -0.4100 H   0  0  0  0  0  0  0  0  0  0  0  0
    4.8595    2.4784   -0.8176 H   0  0  0  0  0  0  0  0  0  0  0  0
    3.6142    2.3661   -2.0779 H   0  0  0  0  0  0  0  0  0  0  0  0
    3.8734   -0.9769    1.1873 N   0  0  0  0  0  0  0  0  0  0  0  0
    3.9618   -1.3894    2.5805 C   0  0  0  0  0  0  0  0  0  0  0  0
    3.4792   -1.6288    0.5048 H   0  0  0  0  0  0  0  0  0  0  0  0
    3.1390   -0.9572    3.1592 H   0  0  0  0  0  0  0  0  0  0  0  0
    3.9033   -2.4796    2.6537 H   0  0  0  0  0  0  0  0  0  0  0  0
    4.9119   -1.0653    3.0179 H   0  0  0  0  0  0  0  0  0  0  0  0
  1  2  2  0  0  0  0
  1  3  1  0  0  0  0
  1  7  1  0  0  0  0
  3  4  1  0  0  0  0
  3  5  1  0  0  0  0
  3  6  1  0  0  0  0
  7  8  1  0  0  0  0
  7 12  1  0  0  0  0
  8  9  1  0  0  0  0
  8 11  1  0  0  0  0
  8 13  1  0  0  0  0
  9 10  2  0  0  0  0
  9 17  1  0  0  0  0
 11 14  1  0  0  0  0
 11 15  1  0  0  0  0
 11 16  1  0  0  0  0
 17 18  1  0  0  0  0
 17 27  1  0  0  0  0
 18 19  1  0  0  0  0
 18 21  1  0  0  0  0
 18 28  1  0  0  0  0
 19 20  2  0  0  0  0
 19 34  1  0  0  0  0
 21 22  1  0  0  0  0
 21 29  1  0  0  0  0
 21 30  1  0  0  0  0
 22 23  1  0  0  0  0
 22 24  2  0  0  0  0
 23 25  2  0  0  0  0
 24 26  1  0  0  0  0
 24 31  1  0  0  0  0
 25 26  1  0  0  0  0
 25 32  1  0  0  0  0
 26 33  1  0  0  0  0
 34 35  1  0  0  0  0
 34 39  1  0  0  0  0
 35 36  1  0  0  0  0
 35 38  1  0  0  0  0
 35 40  1  0  0  0  0
 36 37  2  0  0  0  0
 36 44  1  0  0  0  0
 38 41  1  0  0  0  0
 38 42  1  0  0  0  0
 38 43  1  0  0  0  0
 44 45  1  0  0  0  0
 44 46  1  0  0  0  0
 45 47  1  0  0  0  0
 45 48  1  0  0  0  0
 45 49  1  0  0  0  0
M  END
$$$$

  -OEChem-02062319093D

 49 49  0     1  0  0  0  0  0999 V2000
   -3.0890   -1.5778    3.4551 C   0  0  0  0  0  0  0  0  0  0  0  0
   -4.1968   -1.4940    2.9481 O   0  0  0  0  0  0  0  0  0  0  0  0
   -2.9184   -2.2487    4.8052 C   0  0  0  0  0  0  0  0  0  0  0  0
   -3.8904   -2.5639    5.1952 H   0  0  0  0  0  0  0  0  0  0  0  0
   -2.2763   -3.1273    4.7065 H   0  0  0  0  0  0  0  0  0  0  0  0
   -2.4646   -1.5516    5.5137 H   0  0  0  0  0  0  0  0  0  0  0  0
   -1.9872   -1.0747    2.7965 N   0  0  0  0  0  0  0  0  0  0  0  0
   -2.0118   -0.5537    1.4233 C   0  0  2  0  0  0  0  0  0  0  0  0
   -0.6501   -0.7252    0.7168 C   0  0  0  0  0  0  0  0  0  0  0  0
    0.2807   -1.2603    1.3070 O   0  0  0  0  0  0  0  0  0  0  0  0
   -2.4094    0.9254    1.4652 C   0  0  0  0  0  0  0  0  0  0  0  0
   -1.0711   -1.2964    3.1856 H   0  0  0  0  0  0  0  0  0  0  0  0
   -2.7527   -1.1068    0.8353 H   0  0  0  0  0  0  0  0  0  0  0  0
   -1.6765    1.5030    2.0373 H   0  0  0  0  0  0  0  0  0  0  0  0
   -2.4672    1.3377    0.4530 H   0  0  0  0  0  0  0  0  0  0  0  0
   -3.3897    1.0411    1.9381 H   0  0  0  0  0  0  0  0  0  0  0  0
   -0.5698   -0.5490   -0.6518 N   0  0  0  0  0  0  0  0  0  0  0  0
    0.1658   -1.4619   -1.5434 C   0  0  2  0  0  0  0  0  0  0  0  0
    1.6726   -1.5875   -1.2444 C   0  0  0  0  0  0  0  0  0  0  0  0
    2.2327   -2.6703   -1.3637 O   0  0  0  0  0  0  0  0  0  0  0  0
   -0.0533   -1.0006   -2.9937 C   0  0  0  0  0  0  0  0  0  0  0  0
   -1.5084   -1.0535   -3.3749 C   0  0  0  0  0  0  0  0  0  0  0  0
   -2.5115   -0.3217   -2.7416 N   0  0  0  0  0  0  0  0  0  0  0  0
   -2.0365   -1.8107   -4.3818 C   0  0  0  0  0  0  0  0  0  0  0  0
   -3.6334   -0.6284   -3.3520 C   0  0  0  0  0  0  0  0  0  0  0  0
   -3.3882   -1.5389   -4.3624 N   0  0  0  0  0  0  0  0  0  0  0  0
   -1.4243   -0.1705   -1.0724 H   0  0  0  0  0  0  0  0  0  0  0  0
   -0.2535   -2.4682   -1.4298 H   0  0  0  0  0  0  0  0  0  0  0  0
    0.5211   -1.6425   -3.6689 H   0  0  0  0  0  0  0  0  0  0  0  0
    0.3106    0.0237   -3.1181 H   0  0  0  0  0  0  0  0  0  0  0  0
   -1.4945   -2.4793   -5.0448 H   0  0  0  0  0  0  0  0  0  0  0  0
   -4.6093   -0.2247   -3.0972 H   0  0  0  0  0  0  0  0  0  0  0  0
   -4.0950   -1.9346   -4.9807 H   0  0  0  0  0  0  0  0  0  0  0  0
    2.4275   -0.4573   -0.9933 N   0  0  0  0  0  0  0  0  0  0  0  0
    3.8618   -0.4902   -0.6685 C   0  0  2  0  0  0  0  0  0  0  0  0
    4.1295   -0.9569    0.7839 C   0  0  0  0  0  0  0  0  0  0  0  0
    4.7166   -0.2455    1.5919 O   0  0  0  0  0  0  0  0  0  0  0  0
    4.4271    0.9051   -0.9631 C   0  0  0  0  0  0  0  0  0  0  0  0
    1.8938    0.3595   -0.7081 H   0  0  0  0  0  0  0  0  0  0  0  0
    4.3693   -1.2009   -1.3293 H   0  0  0  0  0  0  0  0  0  0  0  0
    3.9595    1.6550   -0.3170 H   0  0  0  0  0  0  0  0  0  0  0  0
    5.5073    0.9214   -0.7859 H   0  0  0  0  0  0  0  0  0  0  0  0
    4.2444    1.1782   -2.0069 H   0  0  0  0  0  0  0  0  0  0  0  0
    3.7021   -2.2107    1.1728 N   0  0  0  0  0  0  0  0  0  0  0  0
    3.7548   -2.6918    2.5451 C   0  0  0  0  0  0  0  0  0  0  0  0
    3.1250   -2.7121    0.4936 H   0  0  0  0  0  0  0  0  0  0  0  0
    3.1374   -2.0620    3.1938 H   0  0  0  0  0  0  0  0  0  0  0  0
    3.3797   -3.7183    2.5981 H   0  0  0  0  0  0  0  0  0  0  0  0
    4.7849   -2.6810    2.9161 H   0  0  0  0  0  0  0  0  0  0  0  0
  1  2  2  0  0  0  0
  1  3  1  0  0  0  0
  1  7  1  0  0  0  0
  3  4  1  0  0  0  0
  3  5  1  0  0  0  0
  3  6  1  0  0  0  0
  7  8  1  0  0  0  0
  7 12  1  0  0  0  0
  8  9  1  0  0  0  0
  8 11  1  0  0  0  0
  8 13  1  0  0  0  0
  9 10  2  0  0  0  0
  9 17  1  0  0  0  0
 11 14  1  0  0  0  0
 11 15  1  0  0  0  0
 11 16  1  0  0  0  0
 17 18  1  0  0  0  0
 17 27  1  0  0  0  0
 18 19  1  0  0  0  0
 18 21  1  0  0  0  0
 18 28  1  0  0  0  0
 19 20  2  0  0  0  0
 19 34  1  0  0  0  0
 21 22  1  0  0  0  0
 21 29  1  0  0  0  0
 21 30  1  0  0  0  0
 22 23  1  0  0  0  0
 22 24  2  0  0  0  0
 23 25  2  0  0  0  0
 24 26  1  0  0  0  0
 24 31  1  0  0  0  0
 25 26  1  0  0  0  0
 25 32  1  0  0  0  0
 26 33  1  0  0  0  0
 34 35  1  0  0  0  0
 34 39  1  0  0  0  0
 35 36  1  0  0  0  0
 35 38  1  0  0  0  0
 35 40  1  0  0  0  0
 36 37  2  0  0  0  0
 36 44  1  0  0  0  0
 38 41  1  0  0  0  0
 38 42  1  0  0  0  0
 38 43  1  0  0  0  0
 44 45  1  0  0  0  0
 44 46  1  0  0  0  0
 45 47  1  0  0  0  0
 45 48  1  0  0  0  0
 45 49  1  0  0  0  0
M  END
$$$$

  -OEChem-02062319093D

 49 49  0     1  0  0  0  0  0999 V2000
   -3.0088   -1.5140    3.5674 C   0  0  0  0  0  0  0  0  0  0  0  0
   -4.1141   -1.7247    3.0946 O   0  0  0  0  0  0  0  0  0  0  0  0
   -2.7180   -1.8702    5.0131 C   0  0  0  0  0  0  0  0  0  0  0  0
   -3.6208   -2.2550    5.4958 H   0  0  0  0  0  0  0  0  0  0  0  0
   -1.9399   -2.6361    5.0590 H   0  0  0  0  0  0  0  0  0  0  0  0
   -2.3800   -0.9838    5.5556 H   0  0  0  0  0  0  0  0  0  0  0  0
   -2.0199   -0.9533    2.7872 N   0  0  0  0  0  0  0  0  0  0  0  0
   -2.1533   -0.6603    1.3538 C   0  0  2  0  0  0  0  0  0  0  0  0
   -0.7967   -0.7840    0.6302 C   0  0  0  0  0  0  0  0  0  0  0  0
    0.2496   -0.6261    1.2458 O   0  0  0  0  0  0  0  0  0  0  0  0
   -2.7340    0.7497    1.2020 C   0  0  0  0  0  0  0  0  0  0  0  0
   -1.0908   -0.8630    3.1964 H   0  0  0  0  0  0  0  0  0  0  0  0
   -2.8345   -1.3807    0.8868 H   0  0  0  0  0  0  0  0  0  0  0  0
   -2.0587    1.4921    1.6391 H   0  0  0  0  0  0  0  0  0  0  0  0
   -2.8848    0.9903    0.1453 H   0  0  0  0  0  0  0  0  0  0  0  0
   -3.7017    0.8171    1.7095 H   0  0  0  0  0  0  0  0  0  0  0  0
   -0.6799   -0.5783   -0.7239 N   0  0  0  0  0  0  0  0  0  0  0  0
   -0.1829   -1.6968   -1.5474 C   0  0  2  0  0  0  0  0  0  0  0  0
    1.2306   -2.2017   -1.1819 C   0  0  0  0  0  0  0  0  0  0  0  0
    1.4756   -3.3998   -1.2356 O   0  0  0  0  0  0  0  0  0  0  0  0
   -0.2186   -1.2812   -3.0267 C   0  0  0  0  0  0  0  0  0  0  0  0
   -1.6248   -1.0116   -3.4801 C   0  0  0  0  0  0  0  0  0  0  0  0
   -2.6774   -1.8990   -3.3006 N   0  0  0  0  0  0  0  0  0  0  0  0
   -2.0564    0.1157   -4.1217 C   0  0  0  0  0  0  0  0  0  0  0  0
   -3.7383   -1.3298   -3.8200 C   0  0  0  0  0  0  0  0  0  0  0  0
   -3.4036   -0.0909   -4.3345 N   0  0  0  0  0  0  0  0  0  0  0  0
   -0.1752    0.2850   -0.8978 H   0  0  0  0  0  0  0  0  0  0  0  0
   -0.8584   -2.5517   -1.4194 H   0  0  0  0  0  0  0  0  0  0  0  0
    0.1861   -2.0937   -3.6385 H   0  0  0  0  0  0  0  0  0  0  0  0
    0.4055   -0.3976   -3.1886 H   0  0  0  0  0  0  0  0  0  0  0  0
   -1.4569    0.9768   -4.4015 H   0  0  0  0  0  0  0  0  0  0  0  0
   -4.7310   -1.7706   -3.8415 H   0  0  0  0  0  0  0  0  0  0  0  0
   -4.0498    0.5452   -4.7984 H   0  0  0  0  0  0  0  0  0  0  0  0
    2.2657   -1.3163   -0.9397 N   0  0  0  0  0  0  0  0  0  0  0  0
    3.6392   -1.7525   -0.6392 C   0  0  2  0  0  0  0  0  0  0  0  0
    3.7961   -2.2613    0.8153 C   0  0  0  0  0  0  0  0  0  0  0  0
    4.5590   -1.7220    1.6085 O   0  0  0  0  0  0  0  0  0  0  0  0
    4.5702   -0.5781   -0.9653 C   0  0  0  0  0  0  0  0  0  0  0  0
    1.9725   -0.4268   -0.5423 H   0  0  0  0  0  0  0  0  0  0  0  0
    3.9124   -2.5835   -1.2985 H   0  0  0  0  0  0  0  0  0  0  0  0
    4.3475    0.2807   -0.3240 H   0  0  0  0  0  0  0  0  0  0  0  0
    5.6140   -0.8672   -0.8063 H   0  0  0  0  0  0  0  0  0  0  0  0
    4.4512   -0.2766   -2.0103 H   0  0  0  0  0  0  0  0  0  0  0  0
    3.0625   -3.3566    1.2255 N   0  0  0  0  0  0  0  0  0  0  0  0
    3.0551   -3.8659    2.5891 C   0  0  0  0  0  0  0  0  0  0  0  0
    2.4041   -3.7380    0.5417 H   0  0  0  0  0  0  0  0  0  0  0  0
    4.0592   -4.1899    2.8817 H   0  0  0  0  0  0  0  0  0  0  0  0
    2.7168   -3.0906    3.2841 H   0  0  0  0  0  0  0  0  0  0  0  0
    2.3781   -4.7218    2.6682 H   0  0  0  0  0  0  0  0  0  0  0  0
  1  2  2  0  0  0  0
  1  3  1  0  0  0  0
  1  7  1  0  0  0  0
  3  4  1  0  0  0  0
  3  5  1  0  0  0  0
  3  6  1  0  0  0  0
  7  8  1  0  0  0  0
  7 12  1  0  0  0  0
  8  9  1  0  0  0  0
  8 11  1  0  0  0  0
  8 13  1  0  0  0  0
  9 10  2  0  0  0  0
  9 17  1  0  0  0  0
 11 14  1  0  0  0  0
 11 15  1  0  0  0  0
 11 16  1  0  0  0  0
 17 18  1  0  0  0  0
 17 27  1  0  0  0  0
 18 19  1  0  0  0  0
 18 21  1  0  0  0  0
 18 28  1  0  0  0  0
 19 20  2  0  0  0  0
 19 34  1  0  0  0  0
 21 22  1  0  0  0  0
 21 29  1  0  0  0  0
 21 30  1  0  0  0  0
 22 23  1  0  0  0  0
 22 24  2  0  0  0  0
 23 25  2  0  0  0  0
 24 26  1  0  0  0  0
 24 31  1  0  0  0  0
 25 26  1  0  0  0  0
 25 32  1  0  0  0  0
 26 33  1  0  0  0  0
 34 35  1  0  0  0  0
 34 39  1  0  0  0  0
 35 36  1  0  0  0  0
 35 38  1  0  0  0  0
 35 40  1  0  0  0  0
 36 37  2  0  0  0  0
 36 44  1  0  0  0  0
 38 41  1  0  0  0  0
 38 42  1  0  0  0  0
 38 43  1  0  0  0  0
 44 45  1  0  0  0  0
 44 46  1  0  0  0  0
 45 47  1  0  0  0  0
 45 48  1  0  0  0  0
 45 49  1  0  0  0  0
M  END
$$$$

  -OEChem-02062319093D

 49 49  0     1  0  0  0  0  0999 V2000
   -2.8973   -1.6850    3.4751 C   0  0  0  0  0  0  0  0  0  0  0  0
   -3.9297   -2.0940    2.9693 O   0  0  0  0  0  0  0  0  0  0  0  0
   -2.5454   -2.0673    4.9003 C   0  0  0  0  0  0  0  0  0  0  0  0
   -3.3016   -2.7448    5.3069 H   0  0  0  0  0  0  0  0  0  0  0  0
   -1.5749   -2.5693    4.9234 H   0  0  0  0  0  0  0  0  0  0  0  0
   -2.5005   -1.1725    5.5260 H   0  0  0  0  0  0  0  0  0  0  0  0
   -2.0396   -0.8821    2.7534 N   0  0  0  0  0  0  0  0  0  0  0  0
   -2.1702   -0.6094    1.3149 C   0  0  2  0  0  0  0  0  0  0  0  0
   -0.8111   -0.7611    0.6028 C   0  0  0  0  0  0  0  0  0  0  0  0
    0.2335   -0.5757    1.2126 O   0  0  0  0  0  0  0  0  0  0  0  0
   -2.7339    0.8044    1.1474 C   0  0  0  0  0  0  0  0  0  0  0  0
   -1.1348   -0.6806    3.1768 H   0  0  0  0  0  0  0  0  0  0  0  0
   -2.8584   -1.3233    0.8488 H   0  0  0  0  0  0  0  0  0  0  0  0
   -2.0472    1.5450    1.5693 H   0  0  0  0  0  0  0  0  0  0  0  0
   -2.8874    1.0319    0.0878 H   0  0  0  0  0  0  0  0  0  0  0  0
   -3.6975    0.8889    1.6599 H   0  0  0  0  0  0  0  0  0  0  0  0
   -0.6582   -0.5594   -0.7453 N   0  0  0  0  0  0  0  0  0  0  0  0
   -0.5066   -1.7620   -1.5810 C   0  0  2  0  0  0  0  0  0  0  0  0
    0.7181   -2.6274   -1.2121 C   0  0  0  0  0  0  0  0  0  0  0  0
    0.6154   -3.8465   -1.2121 O   0  0  0  0  0  0  0  0  0  0  0  0
   -0.4256   -1.3420   -3.0566 C   0  0  0  0  0  0  0  0  0  0  0  0
   -1.7000   -0.6845   -3.5028 C   0  0  0  0  0  0  0  0  0  0  0  0
   -2.9585   -1.2444   -3.3292 N   0  0  0  0  0  0  0  0  0  0  0  0
   -1.7990    0.5255   -4.1313 C   0  0  0  0  0  0  0  0  0  0  0  0
   -3.8178   -0.3959   -3.8403 C   0  0  0  0  0  0  0  0  0  0  0  0
   -3.1501    0.7055   -4.3433 N   0  0  0  0  0  0  0  0  0  0  0  0
    0.0821    0.1185   -0.8979 H   0  0  0  0  0  0  0  0  0  0  0  0
   -1.3922   -2.3980   -1.4556 H   0  0  0  0  0  0  0  0  0  0  0  0
   -0.2661   -2.2309   -3.6751 H   0  0  0  0  0  0  0  0  0  0  0  0
    0.4213   -0.6678   -3.2143 H   0  0  0  0  0  0  0  0  0  0  0  0
   -0.9822    1.1874   -4.4032 H   0  0  0  0  0  0  0  0  0  0  0  0
   -4.8942   -0.5410   -3.8633 H   0  0  0  0  0  0  0  0  0  0  0  0
   -3.5924    1.5009   -4.8007 H   0  0  0  0  0  0  0  0  0  0  0  0
    1.9557   -2.0584   -0.9684 N   0  0  0  0  0  0  0  0  0  0  0  0
    3.1392   -2.8479   -0.5891 C   0  0  2  0  0  0  0  0  0  0  0  0
    3.0955   -3.3191    0.8867 C   0  0  0  0  0  0  0  0  0  0  0  0
    3.9574   -2.9924    1.6941 O   0  0  0  0  0  0  0  0  0  0  0  0
    4.3741   -1.9954   -0.9050 C   0  0  0  0  0  0  0  0  0  0  0  0
    1.9286   -1.0934   -0.6480 H   0  0  0  0  0  0  0  0  0  0  0  0
    3.1915   -3.7488   -1.2098 H   0  0  0  0  0  0  0  0  0  0  0  0
    4.3754   -1.0811   -0.3032 H   0  0  0  0  0  0  0  0  0  0  0  0
    5.2879   -2.5560   -0.6838 H   0  0  0  0  0  0  0  0  0  0  0  0
    4.3871   -1.7196   -1.9636 H   0  0  0  0  0  0  0  0  0  0  0  0
    2.0681   -4.1446    1.2997 N   0  0  0  0  0  0  0  0  0  0  0  0
    1.9045   -4.6273    2.6635 C   0  0  0  0  0  0  0  0  0  0  0  0
    1.3633   -4.3752    0.5951 H   0  0  0  0  0  0  0  0  0  0  0  0
    2.7764   -5.2152    2.9688 H   0  0  0  0  0  0  0  0  0  0  0  0
    1.7847   -3.7871    3.3552 H   0  0  0  0  0  0  0  0  0  0  0  0
    1.0169   -5.2635    2.7337 H   0  0  0  0  0  0  0  0  0  0  0  0
  1  2  2  0  0  0  0
  1  3  1  0  0  0  0
  1  7  1  0  0  0  0
  3  4  1  0  0  0  0
  3  5  1  0  0  0  0
  3  6  1  0  0  0  0
  7  8  1  0  0  0  0
  7 12  1  0  0  0  0
  8  9  1  0  0  0  0
  8 11  1  0  0  0  0
  8 13  1  0  0  0  0
  9 10  2  0  0  0  0
  9 17  1  0  0  0  0
 11 14  1  0  0  0  0
 11 15  1  0  0  0  0
 11 16  1  0  0  0  0
 17 18  1  0  0  0  0
 17 27  1  0  0  0  0
 18 19  1  0  0  0  0
 18 21  1  0  0  0  0
 18 28  1  0  0  0  0
 19 20  2  0  0  0  0
 19 34  1  0  0  0  0
 21 22  1  0  0  0  0
 21 29  1  0  0  0  0
 21 30  1  0  0  0  0
 22 23  1  0  0  0  0
 22 24  2  0  0  0  0
 23 25  2  0  0  0  0
 24 26  1  0  0  0  0
 24 31  1  0  0  0  0
 25 26  1  0  0  0  0
 25 32  1  0  0  0  0
 26 33  1  0  0  0  0
 34 35  1  0  0  0  0
 34 39  1  0  0  0  0
 35 36  1  0  0  0  0
 35 38  1  0  0  0  0
 35 40  1  0  0  0  0
 36 37  2  0  0  0  0
 36 44  1  0  0  0  0
 38 41  1  0  0  0  0
 38 42  1  0  0  0  0
 38 43  1  0  0  0  0
 44 45  1  0  0  0  0
 44 46  1  0  0  0  0
 45 47  1  0  0  0  0
 45 48  1  0  0  0  0
 45 49  1  0  0  0  0
M  END
$$$$

  -OEChem-02062319093D

 49 49  0     1  0  0  0  0  0999 V2000
   -3.0031   -1.6712    3.4193 C   0  0  0  0  0  0  0  0  0  0  0  0
   -4.0165   -2.0866    2.8813 O   0  0  0  0  0  0  0  0  0  0  0  0
   -2.6900   -2.0609    4.8520 C   0  0  0  0  0  0  0  0  0  0  0  0
   -3.4946   -2.6802    5.2589 H   0  0  0  0  0  0  0  0  0  0  0  0
   -1.7564   -2.6278    4.8888 H   0  0  0  0  0  0  0  0  0  0  0  0
   -2.5893   -1.1650    5.4696 H   0  0  0  0  0  0  0  0  0  0  0  0
   -2.1288   -0.8613    2.7255 N   0  0  0  0  0  0  0  0  0  0  0  0
   -2.2112   -0.5985    1.2816 C   0  0  2  0  0  0  0  0  0  0  0  0
   -0.8332   -0.7757    0.6129 C   0  0  0  0  0  0  0  0  0  0  0  0
    0.2001   -0.6277    1.2502 O   0  0  0  0  0  0  0  0  0  0  0  0
   -2.7457    0.8222    1.0832 C   0  0  0  0  0  0  0  0  0  0  0  0
   -1.2359   -0.6631    3.1747 H   0  0  0  0  0  0  0  0  0  0  0  0
   -2.8966   -1.3042    0.7994 H   0  0  0  0  0  0  0  0  0  0  0  0
   -2.0646    1.5553    1.5270 H   0  0  0  0  0  0  0  0  0  0  0  0
   -2.8534    1.0442    0.0166 H   0  0  0  0  0  0  0  0  0  0  0  0
   -3.7274    0.9244    1.5567 H   0  0  0  0  0  0  0  0  0  0  0  0
   -0.6342   -0.5992   -0.7319 N   0  0  0  0  0  0  0  0  0  0  0  0
   -0.8049   -1.7763   -1.5974 C   0  0  2  0  0  0  0  0  0  0  0  0
    0.1540   -2.9335   -1.2465 C   0  0  0  0  0  0  0  0  0  0  0  0
   -0.2607   -4.0841   -1.2464 O   0  0  0  0  0  0  0  0  0  0  0  0
   -0.6168   -1.3566   -3.0631 C   0  0  0  0  0  0  0  0  0  0  0  0
   -1.6704   -0.3707   -3.4808 C   0  0  0  0  0  0  0  0  0  0  0  0
   -3.0321   -0.5712   -3.2974 N   0  0  0  0  0  0  0  0  0  0  0  0
   -1.4435    0.8328   -4.0881 C   0  0  0  0  0  0  0  0  0  0  0  0
   -3.6338    0.4886   -3.7817 C   0  0  0  0  0  0  0  0  0  0  0  0
   -2.6970    1.3773   -4.2759 N   0  0  0  0  0  0  0  0  0  0  0  0
    0.2426   -0.1087   -0.8800 H   0  0  0  0  0  0  0  0  0  0  0  0
   -1.8257   -2.1625   -1.4818 H   0  0  0  0  0  0  0  0  0  0  0  0
   -0.7015   -2.2402   -3.7038 H   0  0  0  0  0  0  0  0  0  0  0  0
    0.3789   -0.9289   -3.2122 H   0  0  0  0  0  0  0  0  0  0  0  0
   -0.4803    1.2543   -4.3601 H   0  0  0  0  0  0  0  0  0  0  0  0
   -4.7092    0.6422   -3.7911 H   0  0  0  0  0  0  0  0  0  0  0  0
   -2.9106    2.2733   -4.7111 H   0  0  0  0  0  0  0  0  0  0  0  0
    1.4948   -2.7031   -0.9941 N   0  0  0  0  0  0  0  0  0  0  0  0
    2.4391   -3.7683   -0.6191 C   0  0  2  0  0  0  0  0  0  0  0  0
    2.2696   -4.2277    0.8514 C   0  0  0  0  0  0  0  0  0  0  0  0
    3.1829   -4.1399    1.6635 O   0  0  0  0  0  0  0  0  0  0  0  0
    3.8502   -3.2501   -0.9218 C   0  0  0  0  0  0  0  0  0  0  0  0
    1.7339   -1.7545   -0.7169 H   0  0  0  0  0  0  0  0  0  0  0  0
    2.2664   -4.6468   -1.2500 H   0  0  0  0  0  0  0  0  0  0  0  0
    4.0820   -2.3775   -0.3026 H   0  0  0  0  0  0  0  0  0  0  0  0
    4.5916   -4.0281   -0.7138 H   0  0  0  0  0  0  0  0  0  0  0  0
    3.9346   -2.9665   -1.9750 H   0  0  0  0  0  0  0  0  0  0  0  0
    1.0611   -4.7591    1.2570 N   0  0  0  0  0  0  0  0  0  0  0  0
    0.7763   -5.1998    2.6151 C   0  0  0  0  0  0  0  0  0  0  0  0
    0.3268   -4.8093    0.5462 H   0  0  0  0  0  0  0  0  0  0  0  0
    1.4449   -6.0189    2.8996 H   0  0  0  0  0  0  0  0  0  0  0  0
    0.9090   -4.3736    3.3213 H   0  0  0  0  0  0  0  0  0  0  0  0
   -0.2564   -5.5542    2.6875 H   0  0  0  0  0  0  0  0  0  0  0  0
  1  2  2  0  0  0  0
  1  3  1  0  0  0  0
  1  7  1  0  0  0  0
  3  4  1  0  0  0  0
  3  5  1  0  0  0  0
  3  6  1  0  0  0  0
  7  8  1  0  0  0  0
  7 12  1  0  0  0  0
  8  9  1  0  0  0  0
  8 11  1  0  0  0  0
  8 13  1  0  0  0  0
  9 10  2  0  0  0  0
  9 17  1  0  0  0  0
 11 14  1  0  0  0  0
 11 15  1  0  0  0  0
 11 16  1  0  0  0  0
 17 18  1  0  0  0  0
 17 27  1  0  0  0  0
 18 19  1  0  0  0  0
 18 21  1  0  0  0  0
 18 28  1  0  0  0  0
 19 20  2  0  0  0  0
 19 34  1  0  0  0  0
 21 22  1  0  0  0  0
 21 29  1  0  0  0  0
 21 30  1  0  0  0  0
 22 23  1  0  0  0  0
 22 24  2  0  0  0  0
 23 25  2  0  0  0  0
 24 26  1  0  0  0  0
 24 31  1  0  0  0  0
 25 26  1  0  0  0  0
 25 32  1  0  0  0  0
 26 33  1  0  0  0  0
 34 35  1  0  0  0  0
 34 39  1  0  0  0  0
 35 36  1  0  0  0  0
 35 38  1  0  0  0  0
 35 40  1  0  0  0  0
 36 37  2  0  0  0  0
 36 44  1  0  0  0  0
 38 41  1  0  0  0  0
 38 42  1  0  0  0  0
 38 43  1  0  0  0  0
 44 45  1  0  0  0  0
 44 46  1  0  0  0  0
 45 47  1  0  0  0  0
 45 48  1  0  0  0  0
 45 49  1  0  0  0  0
M  END
$$$$

  -OEChem-02062319093D

 49 49  0     1  0  0  0  0  0999 V2000
   -3.1518   -1.3677    3.5278 C   0  0  0  0  0  0  0  0  0  0  0  0
   -4.2135   -1.7176    3.0383 O   0  0  0  0  0  0  0  0  0  0  0  0
   -2.9002   -1.5541    5.0122 C   0  0  0  0  0  0  0  0  0  0  0  0
   -3.7838   -1.9824    5.4938 H   0  0  0  0  0  0  0  0  0  0  0  0
   -2.0538   -2.2281    5.1659 H   0  0  0  0  0  0  0  0  0  0  0  0
   -2.6789   -0.5901    5.4768 H   0  0  0  0  0  0  0  0  0  0  0  0
   -2.1729   -0.8096    2.7337 N   0  0  0  0  0  0  0  0  0  0  0  0
   -2.2410   -0.7229    1.2686 C   0  0  2  0  0  0  0  0  0  0  0  0
   -0.8432   -0.9013    0.6375 C   0  0  0  0  0  0  0  0  0  0  0  0
    0.1734   -0.8105    1.3109 O   0  0  0  0  0  0  0  0  0  0  0  0
   -2.8558    0.6275    0.8863 C   0  0  0  0  0  0  0  0  0  0  0  0
   -1.2611   -0.6524    3.1613 H   0  0  0  0  0  0  0  0  0  0  0  0
   -2.8765   -1.5250    0.8773 H   0  0  0  0  0  0  0  0  0  0  0  0
   -2.2214    1.4496    1.2316 H   0  0  0  0  0  0  0  0  0  0  0  0
   -2.9681    0.7034   -0.2000 H   0  0  0  0  0  0  0  0  0  0  0  0
   -3.8459    0.7346    1.3407 H   0  0  0  0  0  0  0  0  0  0  0  0
   -0.5981   -0.7143   -0.6995 N   0  0  0  0  0  0  0  0  0  0  0  0
   -1.0525   -1.7459   -1.6437 C   0  0  2  0  0  0  0  0  0  0  0  0
   -0.4244   -3.1279   -1.3728 C   0  0  0  0  0  0  0  0  0  0  0  0
   -1.1294   -4.1267   -1.3920 O   0  0  0  0  0  0  0  0  0  0  0  0
   -0.7467   -1.2905   -3.0779 C   0  0  0  0  0  0  0  0  0  0  0  0
   -1.5228   -0.0513   -3.4236 C   0  0  0  0  0  0  0  0  0  0  0  0
   -2.8974    0.0680   -3.2651 N   0  0  0  0  0  0  0  0  0  0  0  0
   -1.0000    1.1045   -3.9334 C   0  0  0  0  0  0  0  0  0  0  0  0
   -3.2161    1.2741   -3.6698 C   0  0  0  0  0  0  0  0  0  0  0  0
   -2.0820    1.9464   -4.0865 N   0  0  0  0  0  0  0  0  0  0  0  0
    0.3564   -0.3956   -0.8365 H   0  0  0  0  0  0  0  0  0  0  0  0
   -2.1391   -1.8660   -1.5516 H   0  0  0  0  0  0  0  0  0  0  0  0
   -1.0375   -2.0819   -3.7759 H   0  0  0  0  0  0  0  0  0  0  0  0
    0.3253   -1.1114   -3.2016 H   0  0  0  0  0  0  0  0  0  0  0  0
    0.0423    1.3014   -4.1663 H   0  0  0  0  0  0  0  0  0  0  0  0
   -4.2235    1.6810   -3.6758 H   0  0  0  0  0  0  0  0  0  0  0  0
   -2.0646    2.8975   -4.4510 H   0  0  0  0  0  0  0  0  0  0  0  0
    0.9274   -3.2639   -1.1091 N   0  0  0  0  0  0  0  0  0  0  0  0
    1.5543   -4.5445   -0.7419 C   0  0  2  0  0  0  0  0  0  0  0  0
    1.2488   -4.9588    0.7201 C   0  0  0  0  0  0  0  0  0  0  0  0
    2.1396   -5.1074    1.5478 O   0  0  0  0  0  0  0  0  0  0  0  0
    3.0563   -4.4124   -1.0232 C   0  0  0  0  0  0  0  0  0  0  0  0
    1.4238   -2.4130   -0.8586 H   0  0  0  0  0  0  0  0  0  0  0  0
    1.1653   -5.3400   -1.3866 H   0  0  0  0  0  0  0  0  0  0  0  0
    3.5006   -3.6346   -0.3937 H   0  0  0  0  0  0  0  0  0  0  0  0
    3.5652   -5.3588   -0.8139 H   0  0  0  0  0  0  0  0  0  0  0  0
    3.2269   -4.1548   -2.0728 H   0  0  0  0  0  0  0  0  0  0  0  0
   -0.0626   -5.1638    1.1019 N   0  0  0  0  0  0  0  0  0  0  0  0
   -0.4770   -5.5157    2.4527 C   0  0  0  0  0  0  0  0  0  0  0  0
   -0.7724   -5.0200    0.3791 H   0  0  0  0  0  0  0  0  0  0  0  0
   -0.0281   -6.4677    2.7548 H   0  0  0  0  0  0  0  0  0  0  0  0
   -0.1709   -4.7396    3.1617 H   0  0  0  0  0  0  0  0  0  0  0  0
   -1.5657   -5.6167    2.4982 H   0  0  0  0  0  0  0  0  0  0  0  0
  1  2  2  0  0  0  0
  1  3  1  0  0  0  0
  1  7  1  0  0  0  0
  3  4  1  0  0  0  0
  3  5  1  0  0  0  0
  3  6  1  0  0  0  0
  7  8  1  0  0  0  0
  7 12  1  0  0  0  0
  8  9  1  0  0  0  0
  8 11  1  0  0  0  0
  8 13  1  0  0  0  0
  9 10  2  0  0  0  0
  9 17  1  0  0  0  0
 11 14  1  0  0  0  0
 11 15  1  0  0  0  0
 11 16  1  0  0  0  0
 17 18  1  0  0  0  0
 17 27  1  0  0  0  0
 18 19  1  0  0  0  0
 18 21  1  0  0  0  0
 18 28  1  0  0  0  0
 19 20  2  0  0  0  0
 19 34  1  0  0  0  0
 21 22  1  0  0  0  0
 21 29  1  0  0  0  0
 21 30  1  0  0  0  0
 22 23  1  0  0  0  0
 22 24  2  0  0  0  0
 23 25  2  0  0  0  0
 24 26  1  0  0  0  0
 24 31  1  0  0  0  0
 25 26  1  0  0  0  0
 25 32  1  0  0  0  0
 26 33  1  0  0  0  0
 34 35  1  0  0  0  0
 34 39  1  0  0  0  0
 35 36  1  0  0  0  0
 35 38  1  0  0  0  0
 35 40  1  0  0  0  0
 36 37  2  0  0  0  0
 36 44  1  0  0  0  0
 38 41  1  0  0  0  0
 38 42  1  0  0  0  0
 38 43  1  0  0  0  0
 44 45  1  0  0  0  0
 44 46  1  0  0  0  0
 45 47  1  0  0  0  0
 45 48  1  0  0  0  0
 45 49  1  0  0  0  0
M  END
$$$$

  -OEChem-02062319093D

 49 49  0     1  0  0  0  0  0999 V2000
   -2.9398   -1.7502    3.3102 C   0  0  0  0  0  0  0  0  0  0  0  0
   -3.7076   -2.4816    2.7063 O   0  0  0  0  0  0  0  0  0  0  0  0
   -2.6110   -2.0351    4.7635 C   0  0  0  0  0  0  0  0  0  0  0  0
   -3.1558   -2.9186    5.1086 H   0  0  0  0  0  0  0  0  0  0  0  0
   -1.5388   -2.2175    4.8739 H   0  0  0  0  0  0  0  0  0  0  0  0
   -2.8947   -1.1818    5.3846 H   0  0  0  0  0  0  0  0  0  0  0  0
   -2.3400   -0.6817    2.6769 N   0  0  0  0  0  0  0  0  0  0  0  0
   -2.3442   -0.4931    1.2185 C   0  0  2  0  0  0  0  0  0  0  0  0
   -0.9467   -0.7608    0.6196 C   0  0  0  0  0  0  0  0  0  0  0  0
    0.0633   -0.6594    1.3005 O   0  0  0  0  0  0  0  0  0  0  0  0
   -2.7945    0.9404    0.9288 C   0  0  0  0  0  0  0  0  0  0  0  0
   -1.5623   -0.2605    3.1804 H   0  0  0  0  0  0  0  0  0  0  0  0
   -3.0509   -1.1797    0.7405 H   0  0  0  0  0  0  0  0  0  0  0  0
   -2.0940    1.6592    1.3655 H   0  0  0  0  0  0  0  0  0  0  0  0
   -2.8447    1.1141   -0.1511 H   0  0  0  0  0  0  0  0  0  0  0  0
   -3.7881    1.1168    1.3525 H   0  0  0  0  0  0  0  0  0  0  0  0
   -0.6807   -0.6949   -0.7256 N   0  0  0  0  0  0  0  0  0  0  0  0
   -1.3955   -1.5701   -1.6666 C   0  0  2  0  0  0  0  0  0  0  0  0
   -1.1715   -3.0664   -1.3746 C   0  0  0  0  0  0  0  0  0  0  0  0
   -2.1200   -3.8370   -1.3942 O   0  0  0  0  0  0  0  0  0  0  0  0
   -0.9589   -1.2351   -3.1002 C   0  0  0  0  0  0  0  0  0  0  0  0
   -1.3263    0.1768   -3.4584 C   0  0  0  0  0  0  0  0  0  0  0  0
   -2.5942    0.7160   -3.2831 N   0  0  0  0  0  0  0  0  0  0  0  0
   -0.4812    1.1090   -3.9924 C   0  0  0  0  0  0  0  0  0  0  0  0
   -2.5313    1.9574   -3.7015 C   0  0  0  0  0  0  0  0  0  0  0  0
   -1.2528    2.2421   -4.1439 N   0  0  0  0  0  0  0  0  0  0  0  0
    0.3109   -0.5575   -0.8970 H   0  0  0  0  0  0  0  0  0  0  0  0
   -2.4740   -1.3849   -1.5903 H   0  0  0  0  0  0  0  0  0  0  0  0
   -1.4666   -1.9095   -3.7971 H   0  0  0  0  0  0  0  0  0  0  0  0
    0.1188   -1.3834   -3.2144 H   0  0  0  0  0  0  0  0  0  0  0  0
    0.5671    0.9717   -4.2407 H   0  0  0  0  0  0  0  0  0  0  0  0
   -3.3633    2.6561   -3.6987 H   0  0  0  0  0  0  0  0  0  0  0  0
   -0.9478    3.1386   -4.5193 H   0  0  0  0  0  0  0  0  0  0  0  0
    0.0908   -3.5594   -1.0958 N   0  0  0  0  0  0  0  0  0  0  0  0
    0.3408   -4.9547   -0.7007 C   0  0  2  0  0  0  0  0  0  0  0  0
   -0.0544   -5.2303    0.7717 C   0  0  0  0  0  0  0  0  0  0  0  0
    0.7786   -5.5516    1.6109 O   0  0  0  0  0  0  0  0  0  0  0  0
    1.8167   -5.2560   -0.9901 C   0  0  0  0  0  0  0  0  0  0  0  0
    0.8023   -2.8716   -0.8645 H   0  0  0  0  0  0  0  0  0  0  0  0
   -0.2610   -5.6252   -1.3237 H   0  0  0  0  0  0  0  0  0  0  0  0
    2.4676   -4.6178   -0.3838 H   0  0  0  0  0  0  0  0  0  0  0  0
    2.0420   -6.3014   -0.7555 H   0  0  0  0  0  0  0  0  0  0  0  0
    2.0413   -5.0844   -2.0473 H   0  0  0  0  0  0  0  0  0  0  0  0
   -1.3756   -5.0984    1.1503 N   0  0  0  0  0  0  0  0  0  0  0  0
   -1.8568   -5.2776    2.5126 C   0  0  0  0  0  0  0  0  0  0  0  0
   -2.0275   -4.7741    0.4314 H   0  0  0  0  0  0  0  0  0  0  0  0
   -1.4035   -4.5366    3.1783 H   0  0  0  0  0  0  0  0  0  0  0  0
   -2.9439   -5.1560    2.5465 H   0  0  0  0  0  0  0  0  0  0  0  0
   -1.6105   -6.2796    2.8782 H   0  0  0  0  0  0  0  0  0  0  0  0
  1  2  2  0  0  0  0
  1  3  1  0  0  0  0
  1  7  1  0  0  0  0
  3  4  1  0  0  0  0
  3  5  1  0  0  0  0
  3  6  1  0  0  0  0
  7  8  1  0  0  0  0
  7 12  1  0  0  0  0
  8  9  1  0  0  0  0
  8 11  1  0  0  0  0
  8 13  1  0  0  0  0
  9 10  2  0  0  0  0
  9 17  1  0  0  0  0
 11 14  1  0  0  0  0
 11 15  1  0  0  0  0
 11 16  1  0  0  0  0
 17 18  1  0  0  0  0
 17 27  1  0  0  0  0
 18 19  1  0  0  0  0
 18 21  1  0  0  0  0
 18 28  1  0  0  0  0
 19 20  2  0  0  0  0
 19 34  1  0  0  0  0
 21 22  1  0  0  0  0
 21 29  1  0  0  0  0
 21 30  1  0  0  0  0
 22 23  1  0  0  0  0
 22 24  2  0  0  0  0
 23 25  2  0  0  0  0
 24 26  1  0  0  0  0
 24 31  1  0  0  0  0
 25 26  1  0  0  0  0
 25 32  1  0  0  0  0
 26 33  1  0  0  0  0
 34 35  1  0  0  0  0
 34 39  1  0  0  0  0
 35 36  1  0  0  0  0
 35 38  1  0  0  0  0
 35 40  1  0  0  0  0
 36 37  2  0  0  0  0
 36 44  1  0  0  0  0
 38 41  1  0  0  0  0
 38 42  1  0  0  0  0
 38 43  1  0  0  0  0
 44 45  1  0  0  0  0
 44 46  1  0  0  0  0
 45 47  1  0  0  0  0
 45 48  1  0  0  0  0
 45 49  1  0  0  0  0
M  END
$$$$

  -OEChem-02062319093D

 49 49  0     1  0  0  0  0  0999 V2000
   -3.1880   -1.3230    3.4674 C   0  0  0  0  0  0  0  0  0  0  0  0
   -4.2703   -1.5932    2.9724 O   0  0  0  0  0  0  0  0  0  0  0  0
   -2.9269   -1.6204    4.9318 C   0  0  0  0  0  0  0  0  0  0  0  0
   -2.6839   -0.6962    5.4618 H   0  0  0  0  0  0  0  0  0  0  0  0
   -3.8134   -2.0673    5.3906 H   0  0  0  0  0  0  0  0  0  0  0  0
   -2.0912   -2.3178    5.0277 H   0  0  0  0  0  0  0  0  0  0  0  0
   -2.1910   -0.7646    2.6969 N   0  0  0  0  0  0  0  0  0  0  0  0
   -2.2651   -0.5911    1.2399 C   0  0  2  0  0  0  0  0  0  0  0  0
   -0.8971   -0.8757    0.5811 C   0  0  0  0  0  0  0  0  0  0  0  0
    0.1312   -0.9135    1.2413 O   0  0  0  0  0  0  0  0  0  0  0  0
   -2.7308    0.8388    0.9492 C   0  0  0  0  0  0  0  0  0  0  0  0
   -1.2657   -0.6958    3.1187 H   0  0  0  0  0  0  0  0  0  0  0  0
   -2.9879   -1.2968    0.8156 H   0  0  0  0  0  0  0  0  0  0  0  0
   -2.0185    1.5641    1.3547 H   0  0  0  0  0  0  0  0  0  0  0  0
   -2.8205    1.0038   -0.1290 H   0  0  0  0  0  0  0  0  0  0  0  0
   -3.7095    1.0164    1.4061 H   0  0  0  0  0  0  0  0  0  0  0  0
   -0.6662   -0.8205   -0.7730 N   0  0  0  0  0  0  0  0  0  0  0  0
   -1.5949   -1.4186   -1.7453 C   0  0  2  0  0  0  0  0  0  0  0  0
   -1.7665   -2.9342   -1.5359 C   0  0  0  0  0  0  0  0  0  0  0  0
   -2.8889   -3.4174   -1.5045 O   0  0  0  0  0  0  0  0  0  0  0  0
   -1.0998   -1.1274   -3.1695 C   0  0  0  0  0  0  0  0  0  0  0  0
   -1.1138    0.3481   -3.4496 C   0  0  0  0  0  0  0  0  0  0  0  0
   -2.2180    1.1623   -3.2360 N   0  0  0  0  0  0  0  0  0  0  0  0
   -0.0689    1.0800   -3.9405 C   0  0  0  0  0  0  0  0  0  0  0  0
   -1.8603    2.3743   -3.5868 C   0  0  0  0  0  0  0  0  0  0  0  0
   -0.5488    2.3705   -4.0246 N   0  0  0  0  0  0  0  0  0  0  0  0
    0.3252   -0.8327   -0.9950 H   0  0  0  0  0  0  0  0  0  0  0  0
   -2.5868   -0.9639   -1.6334 H   0  0  0  0  0  0  0  0  0  0  0  0
   -1.7633   -1.6178   -3.8888 H   0  0  0  0  0  0  0  0  0  0  0  0
   -0.0928   -1.5292   -3.3138 H   0  0  0  0  0  0  0  0  0  0  0  0
    0.9186    0.7125   -4.2037 H   0  0  0  0  0  0  0  0  0  0  0  0
   -2.5026    3.2492   -3.5388 H   0  0  0  0  0  0  0  0  0  0  0  0
   -0.0381    3.1880   -4.3538 H   0  0  0  0  0  0  0  0  0  0  0  0
   -0.6735   -3.7520   -1.3125 N   0  0  0  0  0  0  0  0  0  0  0  0
   -0.7971   -5.1513   -0.8741 C   0  0  2  0  0  0  0  0  0  0  0  0
   -1.2038   -5.2633    0.6173 C   0  0  0  0  0  0  0  0  0  0  0  0
   -0.4514   -5.7457    1.4551 O   0  0  0  0  0  0  0  0  0  0  0  0
    0.5342   -5.8464   -1.1828 C   0  0  0  0  0  0  0  0  0  0  0  0
    0.2092   -3.2816   -1.1325 H   0  0  0  0  0  0  0  0  0  0  0  0
   -1.5762   -5.6520   -1.4589 H   0  0  0  0  0  0  0  0  0  0  0  0
    1.3515   -5.3796   -0.6236 H   0  0  0  0  0  0  0  0  0  0  0  0
    0.4832   -6.9033   -0.9023 H   0  0  0  0  0  0  0  0  0  0  0  0
    0.7588   -5.7838   -2.2519 H   0  0  0  0  0  0  0  0  0  0  0  0
   -2.4334   -4.7785    1.0177 N   0  0  0  0  0  0  0  0  0  0  0  0
   -2.9091   -4.7854    2.3936 C   0  0  0  0  0  0  0  0  0  0  0  0
   -3.0140   -4.3516    0.2911 H   0  0  0  0  0  0  0  0  0  0  0  0
   -2.2411   -4.1990    3.0322 H   0  0  0  0  0  0  0  0  0  0  0  0
   -3.9114   -4.3492    2.4474 H   0  0  0  0  0  0  0  0  0  0  0  0
   -2.9565   -5.8094    2.7777 H   0  0  0  0  0  0  0  0  0  0  0  0
  1  2  2  0  0  0  0
  1  3  1  0  0  0  0
  1  7  1  0  0  0  0
  3  4  1  0  0  0  0
  3  5  1  0  0  0  0
  3  6  1  0  0  0  0
  7  8  1  0  0  0  0
  7 12  1  0  0  0  0
  8  9  1  0  0  0  0
  8 11  1  0  0  0  0
  8 13  1  0  0  0  0
  9 10  2  0  0  0  0
  9 17  1  0  0  0  0
 11 14  1  0  0  0  0
 11 15  1  0  0  0  0
 11 16  1  0  0  0  0
 17 18  1  0  0  0  0
 17 27  1  0  0  0  0
 18 19  1  0  0  0  0
 18 21  1  0  0  0  0
 18 28  1  0  0  0  0
 19 20  2  0  0  0  0
 19 34  1  0  0  0  0
 21 22  1  0  0  0  0
 21 29  1  0  0  0  0
 21 30  1  0  0  0  0
 22 23  1  0  0  0  0
 22 24  2  0  0  0  0
 23 25  2  0  0  0  0
 24 26  1  0  0  0  0
 24 31  1  0  0  0  0
 25 26  1  0  0  0  0
 25 32  1  0  0  0  0
 26 33  1  0  0  0  0
 34 35  1  0  0  0  0
 34 39  1  0  0  0  0
 35 36  1  0  0  0  0
 35 38  1  0  0  0  0
 35 40  1  0  0  0  0
 36 37  2  0  0  0  0
 36 44  1  0  0  0  0
 38 41  1  0  0  0  0
 38 42  1  0  0  0  0
 38 43  1  0  0  0  0
 44 45  1  0  0  0  0
 44 46  1  0  0  0  0
 45 47  1  0  0  0  0
 45 48  1  0  0  0  0
 45 49  1  0  0  0  0
M  END
$$$$

  -OEChem-02062319093D

 49 49  0     1  0  0  0  0  0999 V2000
   -2.7962   -1.4214    3.1580 C   0  0  0  0  0  0  0  0  0  0  0  0
   -3.1262   -2.2920    2.3702 O   0  0  0  0  0  0  0  0  0  0  0  0
   -2.6011   -1.7512    4.6250 C   0  0  0  0  0  0  0  0  0  0  0  0
   -3.2630   -1.1344    5.2375 H   0  0  0  0  0  0  0  0  0  0  0  0
   -2.8310   -2.8048    4.8075 H   0  0  0  0  0  0  0  0  0  0  0  0
   -1.5646   -1.5626    4.9148 H   0  0  0  0  0  0  0  0  0  0  0  0
   -2.5601   -0.1434    2.6975 N   0  0  0  0  0  0  0  0  0  0  0  0
   -2.4565    0.1435    1.2608 C   0  0  2  0  0  0  0  0  0  0  0  0
   -1.0637   -0.2293    0.7032 C   0  0  0  0  0  0  0  0  0  0  0  0
   -0.0513   -0.1028    1.3766 O   0  0  0  0  0  0  0  0  0  0  0  0
   -2.7311    1.6336    1.0503 C   0  0  0  0  0  0  0  0  0  0  0  0
   -2.0586    0.4689    3.3349 H   0  0  0  0  0  0  0  0  0  0  0  0
   -3.2201   -0.4222    0.7169 H   0  0  0  0  0  0  0  0  0  0  0  0
   -1.9869    2.2402    1.5763 H   0  0  0  0  0  0  0  0  0  0  0  0
   -2.6900    1.8806   -0.0156 H   0  0  0  0  0  0  0  0  0  0  0  0
   -3.7254    1.8928    1.4268 H   0  0  0  0  0  0  0  0  0  0  0  0
   -0.8122   -0.4925   -0.6221 N   0  0  0  0  0  0  0  0  0  0  0  0
   -1.7869   -1.0677   -1.5634 C   0  0  2  0  0  0  0  0  0  0  0  0
   -2.3050   -2.4647   -1.1601 C   0  0  0  0  0  0  0  0  0  0  0  0
   -3.4477   -2.7930   -1.4467 O   0  0  0  0  0  0  0  0  0  0  0  0
   -1.1603   -1.1261   -2.9649 C   0  0  0  0  0  0  0  0  0  0  0  0
   -0.8189    0.2501   -3.4601 C   0  0  0  0  0  0  0  0  0  0  0  0
   -1.7134    1.3127   -3.4752 N   0  0  0  0  0  0  0  0  0  0  0  0
    0.3969    0.6427   -3.9461 C   0  0  0  0  0  0  0  0  0  0  0  0
   -1.0605    2.3407   -3.9621 C   0  0  0  0  0  0  0  0  0  0  0  0
    0.2384    1.9754   -4.2637 N   0  0  0  0  0  0  0  0  0  0  0  0
    0.1777   -0.5785   -0.8344 H   0  0  0  0  0  0  0  0  0  0  0  0
   -2.6623   -0.4097   -1.6159 H   0  0  0  0  0  0  0  0  0  0  0  0
   -1.8767   -1.5731   -3.6615 H   0  0  0  0  0  0  0  0  0  0  0  0
   -0.2657   -1.7555   -2.9550 H   0  0  0  0  0  0  0  0  0  0  0  0
    1.2854    0.0275   -4.0534 H   0  0  0  0  0  0  0  0  0  0  0  0
   -1.4817    3.3319   -4.1049 H   0  0  0  0  0  0  0  0  0  0  0  0
    0.9463    2.5945   -4.6554 H   0  0  0  0  0  0  0  0  0  0  0  0
   -1.4220   -3.4327   -0.7184 N   0  0  0  0  0  0  0  0  0  0  0  0
   -1.7047   -4.8772   -0.7089 C   0  0  2  0  0  0  0  0  0  0  0  0
   -2.5570   -5.3482    0.4957 C   0  0  0  0  0  0  0  0  0  0  0  0
   -2.1499   -6.2098    1.2684 O   0  0  0  0  0  0  0  0  0  0  0  0
   -0.3520   -5.5962   -0.7960 C   0  0  0  0  0  0  0  0  0  0  0  0
   -0.5152   -3.1150   -0.3891 H   0  0  0  0  0  0  0  0  0  0  0  0
   -2.2738   -5.1342   -1.6084 H   0  0  0  0  0  0  0  0  0  0  0  0
    0.2518   -5.3885    0.0933 H   0  0  0  0  0  0  0  0  0  0  0  0
   -0.5020   -6.6784   -0.8664 H   0  0  0  0  0  0  0  0  0  0  0  0
    0.2006   -5.2676   -1.6812 H   0  0  0  0  0  0  0  0  0  0  0  0
   -3.8385   -4.8591    0.6422 N   0  0  0  0  0  0  0  0  0  0  0  0
   -4.6834   -5.1631    1.7882 C   0  0  0  0  0  0  0  0  0  0  0  0
   -4.0632   -4.0423    0.0695 H   0  0  0  0  0  0  0  0  0  0  0  0
   -4.8800   -6.2385    1.8450 H   0  0  0  0  0  0  0  0  0  0  0  0
   -4.1995   -4.8429    2.7166 H   0  0  0  0  0  0  0  0  0  0  0  0
   -5.6406   -4.6412    1.6979 H   0  0  0  0  0  0  0  0  0  0  0  0
  1  2  2  0  0  0  0
  1  3  1  0  0  0  0
  1  7  1  0  0  0  0
  3  4  1  0  0  0  0
  3  5  1  0  0  0  0
  3  6  1  0  0  0  0
  7  8  1  0  0  0  0
  7 12  1  0  0  0  0
  8  9  1  0  0  0  0
  8 11  1  0  0  0  0
  8 13  1  0  0  0  0
  9 10  2  0  0  0  0
  9 17  1  0  0  0  0
 11 14  1  0  0  0  0
 11 15  1  0  0  0  0
 11 16  1  0  0  0  0
 17 18  1  0  0  0  0
 17 27  1  0  0  0  0
 18 19  1  0  0  0  0
 18 21  1  0  0  0  0
 18 28  1  0  0  0  0
 19 20  2  0  0  0  0
 19 34  1  0  0  0  0
 21 22  1  0  0  0  0
 21 29  1  0  0  0  0
 21 30  1  0  0  0  0
 22 23  1  0  0  0  0
 22 24  2  0  0  0  0
 23 25  2  0  0  0  0
 24 26  1  0  0  0  0
 24 31  1  0  0  0  0
 25 26  1  0  0  0  0
 25 32  1  0  0  0  0
 26 33  1  0  0  0  0
 34 35  1  0  0  0  0
 34 39  1  0  0  0  0
 35 36  1  0  0  0  0
 35 38  1  0  0  0  0
 35 40  1  0  0  0  0
 36 37  2  0  0  0  0
 36 44  1  0  0  0  0
 38 41  1  0  0  0  0
 38 42  1  0  0  0  0
 38 43  1  0  0  0  0
 44 45  1  0  0  0  0
 44 46  1  0  0  0  0
 45 47  1  0  0  0  0
 45 48  1  0  0  0  0
 45 49  1  0  0  0  0
M  END
$$$$

  -OEChem-02062319093D

 49 49  0     1  0  0  0  0  0999 V2000
   -2.4749   -1.5477    2.9993 C   0  0  0  0  0  0  0  0  0  0  0  0
   -2.3571   -2.3833    2.1171 O   0  0  0  0  0  0  0  0  0  0  0  0
   -2.4120   -1.9609    4.4570 C   0  0  0  0  0  0  0  0  0  0  0  0
   -3.2849   -1.5803    4.9929 H   0  0  0  0  0  0  0  0  0  0  0  0
   -2.3997   -3.0519    4.5372 H   0  0  0  0  0  0  0  0  0  0  0  0
   -1.5050   -1.5625    4.9184 H   0  0  0  0  0  0  0  0  0  0  0  0
   -2.6248   -0.2185    2.6565 N   0  0  0  0  0  0  0  0  0  0  0  0
   -2.4982    0.2383    1.2653 C   0  0  2  0  0  0  0  0  0  0  0  0
   -1.1029   -0.0786    0.6729 C   0  0  0  0  0  0  0  0  0  0  0  0
   -0.0812    0.1199    1.3144 O   0  0  0  0  0  0  0  0  0  0  0  0
   -2.7587    1.7449    1.2236 C   0  0  0  0  0  0  0  0  0  0  0  0
   -2.4871    0.4582    3.4007 H   0  0  0  0  0  0  0  0  0  0  0  0
   -3.2637   -0.2613    0.6649 H   0  0  0  0  0  0  0  0  0  0  0  0
   -2.0119    2.2816    1.8175 H   0  0  0  0  0  0  0  0  0  0  0  0
   -2.7077    2.1090    0.1924 H   0  0  0  0  0  0  0  0  0  0  0  0
   -3.7526    1.9712    1.6213 H   0  0  0  0  0  0  0  0  0  0  0  0
   -0.8697   -0.4060   -0.6422 N   0  0  0  0  0  0  0  0  0  0  0  0
   -1.8714   -0.8121   -1.6419 C   0  0  2  0  0  0  0  0  0  0  0  0
   -2.6736   -2.0870   -1.3026 C   0  0  0  0  0  0  0  0  0  0  0  0
   -3.8407   -2.1589   -1.6649 O   0  0  0  0  0  0  0  0  0  0  0  0
   -1.1684   -1.0046   -2.9950 C   0  0  0  0  0  0  0  0  0  0  0  0
   -0.5447    0.2757   -3.4710 C   0  0  0  0  0  0  0  0  0  0  0  0
   -1.2263    1.4817   -3.5724 N   0  0  0  0  0  0  0  0  0  0  0  0
    0.7582    0.4295   -3.8538 C   0  0  0  0  0  0  0  0  0  0  0  0
   -0.3582    2.3623   -4.0097 C   0  0  0  0  0  0  0  0  0  0  0  0
    0.8728    1.7607   -4.1947 N   0  0  0  0  0  0  0  0  0  0  0  0
    0.1155   -0.4440   -0.8887 H   0  0  0  0  0  0  0  0  0  0  0  0
   -2.6013   -0.0016   -1.7532 H   0  0  0  0  0  0  0  0  0  0  0  0
   -1.9028   -1.3256   -3.7408 H   0  0  0  0  0  0  0  0  0  0  0  0
   -0.4077   -1.7872   -2.9166 H   0  0  0  0  0  0  0  0  0  0  0  0
    1.5249   -0.3393   -3.8795 H   0  0  0  0  0  0  0  0  0  0  0  0
   -0.5775    3.4095   -4.1975 H   0  0  0  0  0  0  0  0  0  0  0  0
    1.7127    2.2320   -4.5264 H   0  0  0  0  0  0  0  0  0  0  0  0
   -2.0538   -3.2210   -0.8121 N   0  0  0  0  0  0  0  0  0  0  0  0
   -2.6970   -4.5447   -0.7229 C   0  0  2  0  0  0  0  0  0  0  0  0
   -3.7235   -4.6885    0.4322 C   0  0  0  0  0  0  0  0  0  0  0  0
   -3.6657   -5.6140    1.2359 O   0  0  0  0  0  0  0  0  0  0  0  0
   -1.5647   -5.5755   -0.6311 C   0  0  0  0  0  0  0  0  0  0  0  0
   -1.2421   -3.0539   -0.2205 H   0  0  0  0  0  0  0  0  0  0  0  0
   -3.2459   -4.7348   -1.6512 H   0  0  0  0  0  0  0  0  0  0  0  0
   -0.9984   -5.4402    0.2962 H   0  0  0  0  0  0  0  0  0  0  0  0
   -1.9734   -6.5910   -0.6419 H   0  0  0  0  0  0  0  0  0  0  0  0
   -0.8813   -5.4710   -1.4790 H   0  0  0  0  0  0  0  0  0  0  0  0
   -4.7946   -3.8191    0.4962 N   0  0  0  0  0  0  0  0  0  0  0  0
   -5.7712   -3.8130    1.5744 C   0  0  0  0  0  0  0  0  0  0  0  0
   -4.7862   -3.0539   -0.1816 H   0  0  0  0  0  0  0  0  0  0  0  0
   -6.3150   -4.7629    1.6044 H   0  0  0  0  0  0  0  0  0  0  0  0
   -5.2731   -3.6593    2.5373 H   0  0  0  0  0  0  0  0  0  0  0  0
   -6.4933   -3.0053    1.4233 H   0  0  0  0  0  0  0  0  0  0  0  0
  1  2  2  0  0  0  0
  1  3  1  0  0  0  0
  1  7  1  0  0  0  0
  3  4  1  0  0  0  0
  3  5  1  0  0  0  0
  3  6  1  0  0  0  0
  7  8  1  0  0  0  0
  7 12  1  0  0  0  0
  8  9  1  0  0  0  0
  8 11  1  0  0  0  0
  8 13  1  0  0  0  0
  9 10  2  0  0  0  0
  9 17  1  0  0  0  0
 11 14  1  0  0  0  0
 11 15  1  0  0  0  0
 11 16  1  0  0  0  0
 17 18  1  0  0  0  0
 17 27  1  0  0  0  0
 18 19  1  0  0  0  0
 18 21  1  0  0  0  0
 18 28  1  0  0  0  0
 19 20  2  0  0  0  0
 19 34  1  0  0  0  0
 21 22  1  0  0  0  0
 21 29  1  0  0  0  0
 21 30  1  0  0  0  0
 22 23  1  0  0  0  0
 22 24  2  0  0  0  0
 23 25  2  0  0  0  0
 24 26  1  0  0  0  0
 24 31  1  0  0  0  0
 25 26  1  0  0  0  0
 25 32  1  0  0  0  0
 26 33  1  0  0  0  0
 34 35  1  0  0  0  0
 34 39  1  0  0  0  0
 35 36  1  0  0  0  0
 35 38  1  0  0  0  0
 35 40  1  0  0  0  0
 36 37  2  0  0  0  0
 36 44  1  0  0  0  0
 38 41  1  0  0  0  0
 38 42  1  0  0  0  0
 38 43  1  0  0  0  0
 44 45  1  0  0  0  0
 44 46  1  0  0  0  0
 45 47  1  0  0  0  0
 45 48  1  0  0  0  0
 45 49  1  0  0  0  0
M  END
$$$$

  -OEChem-02062319093D

 49 49  0     1  0  0  0  0  0999 V2000
   -2.3639   -1.7085    2.6855 C   0  0  0  0  0  0  0  0  0  0  0  0
   -1.8698   -2.3687    1.7830 O   0  0  0  0  0  0  0  0  0  0  0  0
   -2.6223   -2.3574    4.0316 C   0  0  0  0  0  0  0  0  0  0  0  0
   -2.1844   -3.3595    4.0558 H   0  0  0  0  0  0  0  0  0  0  0  0
   -2.1761   -1.7603    4.8302 H   0  0  0  0  0  0  0  0  0  0  0  0
   -3.6981   -2.4425    4.2025 H   0  0  0  0  0  0  0  0  0  0  0  0
   -2.6913   -0.3774    2.4878 N   0  0  0  0  0  0  0  0  0  0  0  0
   -2.4965    0.3570    1.2242 C   0  0  2  0  0  0  0  0  0  0  0  0
   -1.1068    0.1039    0.5830 C   0  0  0  0  0  0  0  0  0  0  0  0
   -0.0754    0.3846    1.1766 O   0  0  0  0  0  0  0  0  0  0  0  0
   -2.6741    1.8495    1.5139 C   0  0  0  0  0  0  0  0  0  0  0  0
   -3.0213    0.1352    3.2991 H   0  0  0  0  0  0  0  0  0  0  0  0
   -3.2769    0.0517    0.5251 H   0  0  0  0  0  0  0  0  0  0  0  0
   -1.9264    2.1928    2.2366 H   0  0  0  0  0  0  0  0  0  0  0  0
   -2.5578    2.4298    0.5931 H   0  0  0  0  0  0  0  0  0  0  0  0
   -3.6708    2.0441    1.9209 H   0  0  0  0  0  0  0  0  0  0  0  0
   -0.8964   -0.2875   -0.7207 N   0  0  0  0  0  0  0  0  0  0  0  0
   -1.9071   -0.5392   -1.7637 C   0  0  2  0  0  0  0  0  0  0  0  0
   -2.9408   -1.6439   -1.4599 C   0  0  0  0  0  0  0  0  0  0  0  0
   -4.0993   -1.4639   -1.8157 O   0  0  0  0  0  0  0  0  0  0  0  0
   -1.1773   -0.9058   -3.0661 C   0  0  0  0  0  0  0  0  0  0  0  0
   -0.2754    0.2048   -3.5186 C   0  0  0  0  0  0  0  0  0  0  0  0
   -0.6964    1.5135   -3.7105 N   0  0  0  0  0  0  0  0  0  0  0  0
    1.0600    0.0874   -3.7843 C   0  0  0  0  0  0  0  0  0  0  0  0
    0.3609    2.1909   -4.0896 C   0  0  0  0  0  0  0  0  0  0  0  0
    1.4613    1.3558   -4.1474 N   0  0  0  0  0  0  0  0  0  0  0  0
    0.0797   -0.2308   -0.9992 H   0  0  0  0  0  0  0  0  0  0  0  0
   -2.4685    0.3867   -1.9350 H   0  0  0  0  0  0  0  0  0  0  0  0
   -1.9141   -1.0911   -3.8544 H   0  0  0  0  0  0  0  0  0  0  0  0
   -0.5988   -1.8240   -2.9256 H   0  0  0  0  0  0  0  0  0  0  0  0
    1.6613   -0.8149   -3.7180 H   0  0  0  0  0  0  0  0  0  0  0  0
    0.3671    3.2519   -4.3228 H   0  0  0  0  0  0  0  0  0  0  0  0
    2.4023    1.6419   -4.4129 H   0  0  0  0  0  0  0  0  0  0  0  0
   -2.5883   -2.8678   -0.9247 N   0  0  0  0  0  0  0  0  0  0  0  0
   -3.5672   -3.9322   -0.6320 C   0  0  2  0  0  0  0  0  0  0  0  0
   -4.4912   -3.6230    0.5794 C   0  0  0  0  0  0  0  0  0  0  0  0
   -4.6104   -4.3922    1.5274 O   0  0  0  0  0  0  0  0  0  0  0  0
   -2.7630   -5.2227   -0.4350 C   0  0  0  0  0  0  0  0  0  0  0  0
   -1.7739   -2.8314   -0.3061 H   0  0  0  0  0  0  0  0  0  0  0  0
   -4.2176   -4.0705   -1.5016 H   0  0  0  0  0  0  0  0  0  0  0  0
   -2.1073   -5.1345    0.4377 H   0  0  0  0  0  0  0  0  0  0  0  0
   -3.4365   -6.0712   -0.2781 H   0  0  0  0  0  0  0  0  0  0  0  0
   -2.1483   -5.4283   -1.3164 H   0  0  0  0  0  0  0  0  0  0  0  0
   -5.2563   -2.4722    0.5763 N   0  0  0  0  0  0  0  0  0  0  0  0
   -6.2292   -2.1288    1.6028 C   0  0  0  0  0  0  0  0  0  0  0  0
   -5.1885   -1.8965   -0.2669 H   0  0  0  0  0  0  0  0  0  0  0  0
   -7.0185   -2.8862    1.6504 H   0  0  0  0  0  0  0  0  0  0  0  0
   -5.7450   -2.0606    2.5820 H   0  0  0  0  0  0  0  0  0  0  0  0
   -6.6887   -1.1622    1.3759 H   0  0  0  0  0  0  0  0  0  0  0  0
  1  2  2  0  0  0  0
  1  3  1  0  0  0  0
  1  7  1  0  0  0  0
  3  4  1  0  0  0  0
  3  5  1  0  0  0  0
  3  6  1  0  0  0  0
  7  8  1  0  0  0  0
  7 12  1  0  0  0  0
  8  9  1  0  0  0  0
  8 11  1  0  0  0  0
  8 13  1  0  0  0  0
  9 10  2  0  0  0  0
  9 17  1  0  0  0  0
 11 14  1  0  0  0  0
 11 15  1  0  0  0  0
 11 16  1  0  0  0  0
 17 18  1  0  0  0  0
 17 27  1  0  0  0  0
 18 19  1  0  0  0  0
 18 21  1  0  0  0  0
 18 28  1  0  0  0  0
 19 20  2  0  0  0  0
 19 34  1  0  0  0  0
 21 22  1  0  0  0  0
 21 29  1  0  0  0  0
 21 30  1  0  0  0  0
 22 23  1  0  0  0  0
 22 24  2  0  0  0  0
 23 25  2  0  0  0  0
 24 26  1  0  0  0  0
 24 31  1  0  0  0  0
 25 26  1  0  0  0  0
 25 32  1  0  0  0  0
 26 33  1  0  0  0  0
 34 35  1  0  0  0  0
 34 39  1  0  0  0  0
 35 36  1  0  0  0  0
 35 38  1  0  0  0  0
 35 40  1  0  0  0  0
 36 37  2  0  0  0  0
 36 44  1  0  0  0  0
 38 41  1  0  0  0  0
 38 42  1  0  0  0  0
 38 43  1  0  0  0  0
 44 45  1  0  0  0  0
 44 46  1  0  0  0  0
 45 47  1  0  0  0  0
 45 48  1  0  0  0  0
 45 49  1  0  0  0  0
M  END
$$$$

  -OEChem-02062319093D

 49 49  0     1  0  0  0  0  0999 V2000
   -2.4448   -1.6483    2.5531 C   0  0  0  0  0  0  0  0  0  0  0  0
   -1.9894   -2.2711    1.6040 O   0  0  0  0  0  0  0  0  0  0  0  0
   -2.7676   -2.3763    3.8435 C   0  0  0  0  0  0  0  0  0  0  0  0
   -2.5038   -3.4339    3.7545 H   0  0  0  0  0  0  0  0  0  0  0  0
   -2.2052   -1.9411    4.6728 H   0  0  0  0  0  0  0  0  0  0  0  0
   -3.8376   -2.3010    4.0537 H   0  0  0  0  0  0  0  0  0  0  0  0
   -2.6756   -0.2867    2.4587 N   0  0  0  0  0  0  0  0  0  0  0  0
   -2.4555    0.5255    1.2486 C   0  0  2  0  0  0  0  0  0  0  0  0
   -1.0799    0.2654    0.5788 C   0  0  0  0  0  0  0  0  0  0  0  0
   -0.0366    0.4876    1.1762 O   0  0  0  0  0  0  0  0  0  0  0  0
   -2.5695    1.9990    1.6480 C   0  0  0  0  0  0  0  0  0  0  0  0
   -3.0000    0.1776    3.3006 H   0  0  0  0  0  0  0  0  0  0  0  0
   -3.2536    0.3120    0.5385 H   0  0  0  0  0  0  0  0  0  0  0  0
   -1.8059    2.2584    2.3889 H   0  0  0  0  0  0  0  0  0  0  0  0
   -2.4324    2.6398    0.7710 H   0  0  0  0  0  0  0  0  0  0  0  0
   -3.5561    2.2039    2.0746 H   0  0  0  0  0  0  0  0  0  0  0  0
   -0.8824   -0.1980   -0.7050 N   0  0  0  0  0  0  0  0  0  0  0  0
   -1.8569   -0.2587   -1.8107 C   0  0  2  0  0  0  0  0  0  0  0  0
   -3.1209   -1.1093   -1.5689 C   0  0  0  0  0  0  0  0  0  0  0  0
   -4.2008   -0.6755   -1.9521 O   0  0  0  0  0  0  0  0  0  0  0  0
   -1.1378   -0.8105   -3.0525 C   0  0  0  0  0  0  0  0  0  0  0  0
    0.0043    0.0728   -3.4611 C   0  0  0  0  0  0  0  0  0  0  0  0
   -0.1170    1.4344   -3.7029 N   0  0  0  0  0  0  0  0  0  0  0  0
    1.2989   -0.3298   -3.6309 C   0  0  0  0  0  0  0  0  0  0  0  0
    1.0821    1.8631   -4.0178 C   0  0  0  0  0  0  0  0  0  0  0  0
    1.9820    0.8140   -3.9857 N   0  0  0  0  0  0  0  0  0  0  0  0
    0.1034   -0.2038   -0.9547 H   0  0  0  0  0  0  0  0  0  0  0  0
   -2.1945    0.7609   -2.0315 H   0  0  0  0  0  0  0  0  0  0  0  0
   -1.8444   -0.8648   -3.8866 H   0  0  0  0  0  0  0  0  0  0  0  0
   -0.7745   -1.8239   -2.8552 H   0  0  0  0  0  0  0  0  0  0  0  0
    1.6895   -1.3358   -3.5065 H   0  0  0  0  0  0  0  0  0  0  0  0
    1.3283    2.8917   -4.2660 H   0  0  0  0  0  0  0  0  0  0  0  0
    2.9777    0.8876   -4.1876 H   0  0  0  0  0  0  0  0  0  0  0  0
   -3.0703   -2.3663   -0.9978 N   0  0  0  0  0  0  0  0  0  0  0  0
   -4.2746   -3.1557   -0.6836 C   0  0  2  0  0  0  0  0  0  0  0  0
   -5.0794   -2.5884    0.5168 C   0  0  0  0  0  0  0  0  0  0  0  0
   -5.2376   -3.2121    1.5613 O   0  0  0  0  0  0  0  0  0  0  0  0
   -3.8148   -4.5995   -0.4499 C   0  0  0  0  0  0  0  0  0  0  0  0
   -2.2643   -2.5174   -0.3823 H   0  0  0  0  0  0  0  0  0  0  0  0
   -4.9447   -3.1539   -1.5497 H   0  0  0  0  0  0  0  0  0  0  0  0
   -3.1368   -4.6523    0.4085 H   0  0  0  0  0  0  0  0  0  0  0  0
   -4.6754   -5.2460   -0.2514 H   0  0  0  0  0  0  0  0  0  0  0  0
   -3.2921   -4.9811   -1.3320 H   0  0  0  0  0  0  0  0  0  0  0  0
   -5.6519   -1.3356    0.4116 N   0  0  0  0  0  0  0  0  0  0  0  0
   -6.4113   -0.6855    1.4697 C   0  0  0  0  0  0  0  0  0  0  0  0
   -5.4794   -0.8380   -0.4661 H   0  0  0  0  0  0  0  0  0  0  0  0
   -7.2820   -1.2905    1.7432 H   0  0  0  0  0  0  0  0  0  0  0  0
   -5.7863   -0.5435    2.3571 H   0  0  0  0  0  0  0  0  0  0  0  0
   -6.7632    0.2941    1.1325 H   0  0  0  0  0  0  0  0  0  0  0  0
  1  2  2  0  0  0  0
  1  3  1  0  0  0  0
  1  7  1  0  0  0  0
  3  4  1  0  0  0  0
  3  5  1  0  0  0  0
  3  6  1  0  0  0  0
  7  8  1  0  0  0  0
  7 12  1  0  0  0  0
  8  9  1  0  0  0  0
  8 11  1  0  0  0  0
  8 13  1  0  0  0  0
  9 10  2  0  0  0  0
  9 17  1  0  0  0  0
 11 14  1  0  0  0  0
 11 15  1  0  0  0  0
 11 16  1  0  0  0  0
 17 18  1  0  0  0  0
 17 27  1  0  0  0  0
 18 19  1  0  0  0  0
 18 21  1  0  0  0  0
 18 28  1  0  0  0  0
 19 20  2  0  0  0  0
 19 34  1  0  0  0  0
 21 22  1  0  0  0  0
 21 29  1  0  0  0  0
 21 30  1  0  0  0  0
 22 23  1  0  0  0  0
 22 24  2  0  0  0  0
 23 25  2  0  0  0  0
 24 26  1  0  0  0  0
 24 31  1  0  0  0  0
 25 26  1  0  0  0  0
 25 32  1  0  0  0  0
 26 33  1  0  0  0  0
 34 35  1  0  0  0  0
 34 39  1  0  0  0  0
 35 36  1  0  0  0  0
 35 38  1  0  0  0  0
 35 40  1  0  0  0  0
 36 37  2  0  0  0  0
 36 44  1  0  0  0  0
 38 41  1  0  0  0  0
 38 42  1  0  0  0  0
 38 43  1  0  0  0  0
 44 45  1  0  0  0  0
 44 46  1  0  0  0  0
 45 47  1  0  0  0  0
 45 48  1  0  0  0  0
 45 49  1  0  0  0  0
M  END
$$$$

  -OEChem-02062319093D

 49 49  0     1  0  0  0  0  0999 V2000
   -2.5166   -1.5546    2.4370 C   0  0  0  0  0  0  0  0  0  0  0  0
   -2.1679   -2.1507    1.4271 O   0  0  0  0  0  0  0  0  0  0  0  0
   -2.8955   -2.3356    3.6799 C   0  0  0  0  0  0  0  0  0  0  0  0
   -2.7211   -3.4033    3.5216 H   0  0  0  0  0  0  0  0  0  0  0  0
   -2.2967   -2.0023    4.5307 H   0  0  0  0  0  0  0  0  0  0  0  0
   -3.9547   -2.1830    3.9034 H   0  0  0  0  0  0  0  0  0  0  0  0
   -2.5749   -0.1733    2.4558 N   0  0  0  0  0  0  0  0  0  0  0  0
   -2.3217    0.6977    1.2959 C   0  0  2  0  0  0  0  0  0  0  0  0
   -0.9744    0.4050    0.5833 C   0  0  0  0  0  0  0  0  0  0  0  0
    0.0862    0.5420    1.1753 O   0  0  0  0  0  0  0  0  0  0  0  0
   -2.3464    2.1455    1.7930 C   0  0  0  0  0  0  0  0  0  0  0  0
   -2.8496    0.2568    3.3330 H   0  0  0  0  0  0  0  0  0  0  0  0
   -3.1408    0.5828    0.5904 H   0  0  0  0  0  0  0  0  0  0  0  0
   -1.5584    2.3125    2.5349 H   0  0  0  0  0  0  0  0  0  0  0  0
   -2.1871    2.8346    0.9575 H   0  0  0  0  0  0  0  0  0  0  0  0
   -3.3134    2.3757    2.2506 H   0  0  0  0  0  0  0  0  0  0  0  0
   -0.8195   -0.1323   -0.6784 N   0  0  0  0  0  0  0  0  0  0  0  0
   -1.7290    0.0016   -1.8334 C   0  0  2  0  0  0  0  0  0  0  0  0
   -3.1652   -0.5293   -1.6499 C   0  0  0  0  0  0  0  0  0  0  0  0
   -4.1065    0.1443   -2.0517 O   0  0  0  0  0  0  0  0  0  0  0  0
   -1.0922   -0.7275   -3.0275 C   0  0  0  0  0  0  0  0  0  0  0  0
    0.2330   -0.1228   -3.3874 C   0  0  0  0  0  0  0  0  0  0  0  0
    0.4192    1.2266   -3.6539 N   0  0  0  0  0  0  0  0  0  0  0  0
    1.4184   -0.7962   -3.4777 C   0  0  0  0  0  0  0  0  0  0  0  0
    1.6970    1.3827   -3.9055 C   0  0  0  0  0  0  0  0  0  0  0  0
    2.3484    0.1670   -3.8088 N   0  0  0  0  0  0  0  0  0  0  0  0
    0.1671   -0.2458   -0.8980 H   0  0  0  0  0  0  0  0  0  0  0  0
   -1.8144    1.0658   -2.0837 H   0  0  0  0  0  0  0  0  0  0  0  0
   -1.7527   -0.6487   -3.8969 H   0  0  0  0  0  0  0  0  0  0  0  0
   -0.9683   -1.7897   -2.7950 H   0  0  0  0  0  0  0  0  0  0  0  0
    1.5779   -1.8585   -3.3152 H   0  0  0  0  0  0  0  0  0  0  0  0
    2.1703    2.3289   -4.1522 H   0  0  0  0  0  0  0  0  0  0  0  0
    3.3464    0.0225   -3.9533 H   0  0  0  0  0  0  0  0  0  0  0  0
   -3.4230   -1.7515   -1.0592 N   0  0  0  0  0  0  0  0  0  0  0  0
   -4.7813   -2.2287   -0.7502 C   0  0  2  0  0  0  0  0  0  0  0  0
   -5.4286   -1.4653    0.4346 C   0  0  0  0  0  0  0  0  0  0  0  0
   -5.6306   -1.9878    1.5260 O   0  0  0  0  0  0  0  0  0  0  0  0
   -4.6860   -3.7376   -0.4954 C   0  0  0  0  0  0  0  0  0  0  0  0
   -2.6709   -2.1047   -0.4567 H   0  0  0  0  0  0  0  0  0  0  0  0
   -5.4258   -2.0795   -1.6227 H   0  0  0  0  0  0  0  0  0  0  0  0
   -4.0502   -3.9434    0.3719 H   0  0  0  0  0  0  0  0  0  0  0  0
   -5.6799   -4.1534   -0.3023 H   0  0  0  0  0  0  0  0  0  0  0  0
   -4.2614   -4.2443   -1.3672 H   0  0  0  0  0  0  0  0  0  0  0  0
   -5.7728   -0.1382    0.2656 N   0  0  0  0  0  0  0  0  0  0  0  0
   -6.2998    0.7116    1.3236 C   0  0  0  0  0  0  0  0  0  0  0  0
   -5.4995    0.2815   -0.6274 H   0  0  0  0  0  0  0  0  0  0  0  0
   -7.2495    0.3137    1.6960 H   0  0  0  0  0  0  0  0  0  0  0  0
   -5.5908    0.7720    2.1556 H   0  0  0  0  0  0  0  0  0  0  0  0
   -6.4743    1.7223    0.9421 H   0  0  0  0  0  0  0  0  0  0  0  0
  1  2  2  0  0  0  0
  1  3  1  0  0  0  0
  1  7  1  0  0  0  0
  3  4  1  0  0  0  0
  3  5  1  0  0  0  0
  3  6  1  0  0  0  0
  7  8  1  0  0  0  0
  7 12  1  0  0  0  0
  8  9  1  0  0  0  0
  8 11  1  0  0  0  0
  8 13  1  0  0  0  0
  9 10  2  0  0  0  0
  9 17  1  0  0  0  0
 11 14  1  0  0  0  0
 11 15  1  0  0  0  0
 11 16  1  0  0  0  0
 17 18  1  0  0  0  0
 17 27  1  0  0  0  0
 18 19  1  0  0  0  0
 18 21  1  0  0  0  0
 18 28  1  0  0  0  0
 19 20  2  0  0  0  0
 19 34  1  0  0  0  0
 21 22  1  0  0  0  0
 21 29  1  0  0  0  0
 21 30  1  0  0  0  0
 22 23  1  0  0  0  0
 22 24  2  0  0  0  0
 23 25  2  0  0  0  0
 24 26  1  0  0  0  0
 24 31  1  0  0  0  0
 25 26  1  0  0  0  0
 25 32  1  0  0  0  0
 26 33  1  0  0  0  0
 34 35  1  0  0  0  0
 34 39  1  0  0  0  0
 35 36  1  0  0  0  0
 35 38  1  0  0  0  0
 35 40  1  0  0  0  0
 36 37  2  0  0  0  0
 36 44  1  0  0  0  0
 38 41  1  0  0  0  0
 38 42  1  0  0  0  0
 38 43  1  0  0  0  0
 44 45  1  0  0  0  0
 44 46  1  0  0  0  0
 45 47  1  0  0  0  0
 45 48  1  0  0  0  0
 45 49  1  0  0  0  0
M  END
$$$$

  -OEChem-02062319093D

 49 49  0     1  0  0  0  0  0999 V2000
   -2.5478   -1.4181    2.2787 C   0  0  0  0  0  0  0  0  0  0  0  0
   -2.3003   -1.9554    1.2084 O   0  0  0  0  0  0  0  0  0  0  0  0
   -3.0445   -2.2540    3.4420 C   0  0  0  0  0  0  0  0  0  0  0  0
   -3.0172   -3.3160    3.1834 H   0  0  0  0  0  0  0  0  0  0  0  0
   -2.4148   -2.0884    4.3194 H   0  0  0  0  0  0  0  0  0  0  0  0
   -4.0745   -1.9771    3.6817 H   0  0  0  0  0  0  0  0  0  0  0  0
   -2.3940   -0.0545    2.4376 N   0  0  0  0  0  0  0  0  0  0  0  0
   -2.0850    0.8932    1.3550 C   0  0  2  0  0  0  0  0  0  0  0  0
   -0.7865    0.5662    0.5705 C   0  0  0  0  0  0  0  0  0  0  0  0
    0.3003    0.6203    1.1277 O   0  0  0  0  0  0  0  0  0  0  0  0
   -1.9710    2.2830    1.9894 C   0  0  0  0  0  0  0  0  0  0  0  0
   -2.6482    0.3220    3.3449 H   0  0  0  0  0  0  0  0  0  0  0  0
   -2.9245    0.9235    0.6670 H   0  0  0  0  0  0  0  0  0  0  0  0
   -1.1504    2.3107    2.7141 H   0  0  0  0  0  0  0  0  0  0  0  0
   -1.7773    3.0355    1.2186 H   0  0  0  0  0  0  0  0  0  0  0  0
   -2.8995    2.5477    2.5033 H   0  0  0  0  0  0  0  0  0  0  0  0
   -0.7107   -0.0360   -0.6692 N   0  0  0  0  0  0  0  0  0  0  0  0
   -1.5364    0.2844   -1.8512 C   0  0  2  0  0  0  0  0  0  0  0  0
   -3.0611    0.1061   -1.7011 C   0  0  0  0  0  0  0  0  0  0  0  0
   -3.8222    0.9883   -2.0803 O   0  0  0  0  0  0  0  0  0  0  0  0
   -1.0652   -0.6109   -3.0088 C   0  0  0  0  0  0  0  0  0  0  0  0
    0.3857   -0.3851   -3.3154 C   0  0  0  0  0  0  0  0  0  0  0  0
    0.9260    0.8541   -3.6283 N   0  0  0  0  0  0  0  0  0  0  0  0
    1.3603   -1.3421   -3.2970 C   0  0  0  0  0  0  0  0  0  0  0  0
    2.2125    0.6643   -3.8009 C   0  0  0  0  0  0  0  0  0  0  0  0
    2.5230   -0.6692   -3.6075 N   0  0  0  0  0  0  0  0  0  0  0  0
    0.2583   -0.2698   -0.8744 H   0  0  0  0  0  0  0  0  0  0  0  0
   -1.3606    1.3315   -2.1248 H   0  0  0  0  0  0  0  0  0  0  0  0
   -1.6477   -0.3841   -3.9072 H   0  0  0  0  0  0  0  0  0  0  0  0
   -1.2315   -1.6631   -2.7573 H   0  0  0  0  0  0  0  0  0  0  0  0
    1.2313   -2.3974   -3.0734 H   0  0  0  0  0  0  0  0  0  0  0  0
    2.9257    1.4428   -4.0570 H   0  0  0  0  0  0  0  0  0  0  0  0
    3.4564   -1.0711   -3.6761 H   0  0  0  0  0  0  0  0  0  0  0  0
   -3.5916   -1.0201   -1.1017 N   0  0  0  0  0  0  0  0  0  0  0  0
   -5.0211   -1.1976   -0.8065 C   0  0  2  0  0  0  0  0  0  0  0  0
   -5.4870   -0.3352    0.3918 C   0  0  0  0  0  0  0  0  0  0  0  0
   -5.7190   -0.8141    1.4973 O   0  0  0  0  0  0  0  0  0  0  0  0
   -5.2635   -2.6953   -0.5841 C   0  0  0  0  0  0  0  0  0  0  0  0
   -2.9302   -1.5688   -0.5396 H   0  0  0  0  0  0  0  0  0  0  0  0
   -5.6124   -0.8913   -1.6758 H   0  0  0  0  0  0  0  0  0  0  0  0
   -4.6859   -3.0589    0.2717 H   0  0  0  0  0  0  0  0  0  0  0  0
   -6.3240   -2.8838   -0.3900 H   0  0  0  0  0  0  0  0  0  0  0  0
   -4.9671   -3.2638   -1.4706 H   0  0  0  0  0  0  0  0  0  0  0  0
   -5.6138    1.0288    0.2172 N   0  0  0  0  0  0  0  0  0  0  0  0
   -5.9813    1.9539    1.2794 C   0  0  0  0  0  0  0  0  0  0  0  0
   -5.2749    1.3969   -0.6758 H   0  0  0  0  0  0  0  0  0  0  0  0
   -6.9711    1.7052    1.6764 H   0  0  0  0  0  0  0  0  0  0  0  0
   -5.2532    1.9094    2.0953 H   0  0  0  0  0  0  0  0  0  0  0  0
   -6.0108    2.9779    0.8949 H   0  0  0  0  0  0  0  0  0  0  0  0
  1  2  2  0  0  0  0
  1  3  1  0  0  0  0
  1  7  1  0  0  0  0
  3  4  1  0  0  0  0
  3  5  1  0  0  0  0
  3  6  1  0  0  0  0
  7  8  1  0  0  0  0
  7 12  1  0  0  0  0
  8  9  1  0  0  0  0
  8 11  1  0  0  0  0
  8 13  1  0  0  0  0
  9 10  2  0  0  0  0
  9 17  1  0  0  0  0
 11 14  1  0  0  0  0
 11 15  1  0  0  0  0
 11 16  1  0  0  0  0
 17 18  1  0  0  0  0
 17 27  1  0  0  0  0
 18 19  1  0  0  0  0
 18 21  1  0  0  0  0
 18 28  1  0  0  0  0
 19 20  2  0  0  0  0
 19 34  1  0  0  0  0
 21 22  1  0  0  0  0
 21 29  1  0  0  0  0
 21 30  1  0  0  0  0
 22 23  1  0  0  0  0
 22 24  2  0  0  0  0
 23 25  2  0  0  0  0
 24 26  1  0  0  0  0
 24 31  1  0  0  0  0
 25 26  1  0  0  0  0
 25 32  1  0  0  0  0
 26 33  1  0  0  0  0
 34 35  1  0  0  0  0
 34 39  1  0  0  0  0
 35 36  1  0  0  0  0
 35 38  1  0  0  0  0
 35 40  1  0  0  0  0
 36 37  2  0  0  0  0
 36 44  1  0  0  0  0
 38 41  1  0  0  0  0
 38 42  1  0  0  0  0
 38 43  1  0  0  0  0
 44 45  1  0  0  0  0
 44 46  1  0  0  0  0
 45 47  1  0  0  0  0
 45 48  1  0  0  0  0
 45 49  1  0  0  0  0
M  END
$$$$

  -OEChem-02062319093D

 49 49  0     1  0  0  0  0  0999 V2000
   -2.5605   -1.3153    2.2677 C   0  0  0  0  0  0  0  0  0  0  0  0
   -2.7134   -1.6944    1.1150 O   0  0  0  0  0  0  0  0  0  0  0  0
   -2.7745   -2.2804    3.4183 C   0  0  0  0  0  0  0  0  0  0  0  0
   -3.0616   -3.2645    3.0374 H   0  0  0  0  0  0  0  0  0  0  0  0
   -1.8540   -2.3826    3.9983 H   0  0  0  0  0  0  0  0  0  0  0  0
   -3.5698   -1.9110    4.0707 H   0  0  0  0  0  0  0  0  0  0  0  0
   -2.1646   -0.0187    2.5256 N   0  0  0  0  0  0  0  0  0  0  0  0
   -1.8876    0.9780    1.4822 C   0  0  2  0  0  0  0  0  0  0  0  0
   -0.6213    0.6410    0.6552 C   0  0  0  0  0  0  0  0  0  0  0  0
    0.4638    0.5933    1.2160 O   0  0  0  0  0  0  0  0  0  0  0  0
   -1.7342    2.3389    2.1674 C   0  0  0  0  0  0  0  0  0  0  0  0
   -1.9232    0.2076    3.4854 H   0  0  0  0  0  0  0  0  0  0  0  0
   -2.7476    1.0471    0.8223 H   0  0  0  0  0  0  0  0  0  0  0  0
   -0.8866    2.3309    2.8608 H   0  0  0  0  0  0  0  0  0  0  0  0
   -2.6406    2.5877    2.7271 H   0  0  0  0  0  0  0  0  0  0  0  0
   -1.5638    3.1207    1.4206 H   0  0  0  0  0  0  0  0  0  0  0  0
   -0.6000    0.0003   -0.5658 N   0  0  0  0  0  0  0  0  0  0  0  0
   -1.2675    0.4953   -1.7860 C   0  0  2  0  0  0  0  0  0  0  0  0
   -2.7976    0.6779   -1.7281 C   0  0  0  0  0  0  0  0  0  0  0  0
   -3.3038    1.7057   -2.1615 O   0  0  0  0  0  0  0  0  0  0  0  0
   -0.9473   -0.4845   -2.9282 C   0  0  0  0  0  0  0  0  0  0  0  0
    0.5331   -0.6258   -3.1313 C   0  0  0  0  0  0  0  0  0  0  0  0
    1.4002    0.4488   -3.2715 N   0  0  0  0  0  0  0  0  0  0  0  0
    1.2235   -1.8043   -3.1675 C   0  0  0  0  0  0  0  0  0  0  0  0
    2.6038   -0.0579   -3.3953 C   0  0  0  0  0  0  0  0  0  0  0  0
    2.5421   -1.4378   -3.3374 N   0  0  0  0  0  0  0  0  0  0  0  0
    0.3408   -0.3521   -0.7320 H   0  0  0  0  0  0  0  0  0  0  0  0
   -0.8411    1.4733   -2.0387 H   0  0  0  0  0  0  0  0  0  0  0  0
   -1.3888   -0.1134   -3.8586 H   0  0  0  0  0  0  0  0  0  0  0  0
   -1.3860   -1.4641   -2.7146 H   0  0  0  0  0  0  0  0  0  0  0  0
    0.8089   -2.8039   -3.0717 H   0  0  0  0  0  0  0  0  0  0  0  0
    3.5124    0.5237   -3.5225 H   0  0  0  0  0  0  0  0  0  0  0  0
    3.3427   -2.0644   -3.4007 H   0  0  0  0  0  0  0  0  0  0  0  0
   -3.6186   -0.2853   -1.1720 N   0  0  0  0  0  0  0  0  0  0  0  0
   -5.0756   -0.1446   -1.0233 C   0  0  2  0  0  0  0  0  0  0  0  0
   -5.4668    0.8105    0.1312 C   0  0  0  0  0  0  0  0  0  0  0  0
   -6.0419    0.4194    1.1406 O   0  0  0  0  0  0  0  0  0  0  0  0
   -5.6566   -1.5536   -0.8502 C   0  0  0  0  0  0  0  0  0  0  0  0
   -3.1529   -0.9940   -0.5925 H   0  0  0  0  0  0  0  0  0  0  0  0
   -5.4945    0.2757   -1.9437 H   0  0  0  0  0  0  0  0  0  0  0  0
   -5.2698   -2.0225    0.0605 H   0  0  0  0  0  0  0  0  0  0  0  0
   -6.7479   -1.5079   -0.7788 H   0  0  0  0  0  0  0  0  0  0  0  0
   -5.3923   -2.1827   -1.7055 H   0  0  0  0  0  0  0  0  0  0  0  0
   -5.1491    2.1506    0.0243 N   0  0  0  0  0  0  0  0  0  0  0  0
   -5.4659    3.1501    1.0345 C   0  0  0  0  0  0  0  0  0  0  0  0
   -4.6250    2.4237   -0.8118 H   0  0  0  0  0  0  0  0  0  0  0  0
   -6.5505    3.2477    1.1475 H   0  0  0  0  0  0  0  0  0  0  0  0
   -5.0349    2.8693    2.0006 H   0  0  0  0  0  0  0  0  0  0  0  0
   -5.0584    4.1228    0.7434 H   0  0  0  0  0  0  0  0  0  0  0  0
  1  2  2  0  0  0  0
  1  3  1  0  0  0  0
  1  7  1  0  0  0  0
  3  4  1  0  0  0  0
  3  5  1  0  0  0  0
  3  6  1  0  0  0  0
  7  8  1  0  0  0  0
  7 12  1  0  0  0  0
  8  9  1  0  0  0  0
  8 11  1  0  0  0  0
  8 13  1  0  0  0  0
  9 10  2  0  0  0  0
  9 17  1  0  0  0  0
 11 14  1  0  0  0  0
 11 15  1  0  0  0  0
 11 16  1  0  0  0  0
 17 18  1  0  0  0  0
 17 27  1  0  0  0  0
 18 19  1  0  0  0  0
 18 21  1  0  0  0  0
 18 28  1  0  0  0  0
 19 20  2  0  0  0  0
 19 34  1  0  0  0  0
 21 22  1  0  0  0  0
 21 29  1  0  0  0  0
 21 30  1  0  0  0  0
 22 23  1  0  0  0  0
 22 24  2  0  0  0  0
 23 25  2  0  0  0  0
 24 26  1  0  0  0  0
 24 31  1  0  0  0  0
 25 26  1  0  0  0  0
 25 32  1  0  0  0  0
 26 33  1  0  0  0  0
 34 35  1  0  0  0  0
 34 39  1  0  0  0  0
 35 36  1  0  0  0  0
 35 38  1  0  0  0  0
 35 40  1  0  0  0  0
 36 37  2  0  0  0  0
 36 44  1  0  0  0  0
 38 41  1  0  0  0  0
 38 42  1  0  0  0  0
 38 43  1  0  0  0  0
 44 45  1  0  0  0  0
 44 46  1  0  0  0  0
 45 47  1  0  0  0  0
 45 48  1  0  0  0  0
 45 49  1  0  0  0  0
M  END
$$$$

  -OEChem-02062319093D

 49 49  0     1  0  0  0  0  0999 V2000
   -2.9938   -1.3469    1.8847 C   0  0  0  0  0  0  0  0  0  0  0  0
   -3.2254   -1.3564    0.6838 O   0  0  0  0  0  0  0  0  0  0  0  0
   -3.4491   -2.5036    2.7538 C   0  0  0  0  0  0  0  0  0  0  0  0
   -3.9870   -3.2401    2.1503 H   0  0  0  0  0  0  0  0  0  0  0  0
   -2.5846   -2.9887    3.2137 H   0  0  0  0  0  0  0  0  0  0  0  0
   -4.1152   -2.1389    3.5396 H   0  0  0  0  0  0  0  0  0  0  0  0
   -2.2895   -0.3036    2.4491 N   0  0  0  0  0  0  0  0  0  0  0  0
   -1.7228    0.8118    1.6796 C   0  0  2  0  0  0  0  0  0  0  0  0
   -0.4661    0.3919    0.8772 C   0  0  0  0  0  0  0  0  0  0  0  0
    0.5494    0.0866    1.4849 O   0  0  0  0  0  0  0  0  0  0  0  0
   -1.4004    1.9410    2.6623 C   0  0  0  0  0  0  0  0  0  0  0  0
   -1.9975   -0.4152    3.4154 H   0  0  0  0  0  0  0  0  0  0  0  0
   -2.4758    1.1941    0.9957 H   0  0  0  0  0  0  0  0  0  0  0  0
   -0.9985    2.8059    2.1252 H   0  0  0  0  0  0  0  0  0  0  0  0
   -2.3064    2.2531    3.1908 H   0  0  0  0  0  0  0  0  0  0  0  0
   -0.6594    1.6156    3.3999 H   0  0  0  0  0  0  0  0  0  0  0  0
   -0.4976   -0.1670   -0.3818 N   0  0  0  0  0  0  0  0  0  0  0  0
   -0.7861    0.6217   -1.5945 C   0  0  2  0  0  0  0  0  0  0  0  0
   -2.1522    1.3333   -1.6597 C   0  0  0  0  0  0  0  0  0  0  0  0
   -2.2097    2.5048   -2.0112 O   0  0  0  0  0  0  0  0  0  0  0  0
   -0.6868   -0.3218   -2.8059 C   0  0  0  0  0  0  0  0  0  0  0  0
    0.6540   -0.9927   -2.8780 C   0  0  0  0  0  0  0  0  0  0  0  0
    1.8631   -0.3278   -2.7293 N   0  0  0  0  0  0  0  0  0  0  0  0
    0.8642   -2.3307   -3.0554 C   0  0  0  0  0  0  0  0  0  0  0  0
    2.8027   -1.2389   -2.8178 C   0  0  0  0  0  0  0  0  0  0  0  0
    2.2344   -2.4830   -3.0191 N   0  0  0  0  0  0  0  0  0  0  0  0
    0.3316   -0.7491   -0.4892 H   0  0  0  0  0  0  0  0  0  0  0  0
   -0.0171    1.3975   -1.6929 H   0  0  0  0  0  0  0  0  0  0  0  0
   -0.8341    0.2545   -3.7247 H   0  0  0  0  0  0  0  0  0  0  0  0
   -1.4744   -1.0798   -2.7536 H   0  0  0  0  0  0  0  0  0  0  0  0
    0.1040   -3.0956   -3.1855 H   0  0  0  0  0  0  0  0  0  0  0  0
    3.8682   -1.0417   -2.7411 H   0  0  0  0  0  0  0  0  0  0  0  0
    2.7507   -3.3555   -3.1166 H   0  0  0  0  0  0  0  0  0  0  0  0
   -3.3212    0.6899   -1.2990 N   0  0  0  0  0  0  0  0  0  0  0  0
   -4.6483    1.3248   -1.2778 C   0  0  2  0  0  0  0  0  0  0  0  0
   -4.8425    2.2686   -0.0648 C   0  0  0  0  0  0  0  0  0  0  0  0
   -5.7009    2.0719    0.7873 O   0  0  0  0  0  0  0  0  0  0  0  0
   -5.6891    0.1998   -1.3282 C   0  0  0  0  0  0  0  0  0  0  0  0
   -3.2156   -0.2065   -0.8092 H   0  0  0  0  0  0  0  0  0  0  0  0
   -4.7721    1.9325   -2.1801 H   0  0  0  0  0  0  0  0  0  0  0  0
   -5.6195   -0.4307   -0.4360 H   0  0  0  0  0  0  0  0  0  0  0  0
   -6.6989    0.6187   -1.3779 H   0  0  0  0  0  0  0  0  0  0  0  0
   -5.5308   -0.4263   -2.2115 H   0  0  0  0  0  0  0  0  0  0  0  0
   -4.0163    3.3680    0.0665 N   0  0  0  0  0  0  0  0  0  0  0  0
   -4.1201    4.3495    1.1370 C   0  0  0  0  0  0  0  0  0  0  0  0
   -3.3091    3.4890   -0.6642 H   0  0  0  0  0  0  0  0  0  0  0  0
   -4.0244    3.8651    2.1139 H   0  0  0  0  0  0  0  0  0  0  0  0
   -3.3255    5.0955    1.0421 H   0  0  0  0  0  0  0  0  0  0  0  0
   -5.0856    4.8636    1.0914 H   0  0  0  0  0  0  0  0  0  0  0  0
  1  2  2  0  0  0  0
  1  3  1  0  0  0  0
  1  7  1  0  0  0  0
  3  4  1  0  0  0  0
  3  5  1  0  0  0  0
  3  6  1  0  0  0  0
  7  8  1  0  0  0  0
  7 12  1  0  0  0  0
  8  9  1  0  0  0  0
  8 11  1  0  0  0  0
  8 13  1  0  0  0  0
  9 10  2  0  0  0  0
  9 17  1  0  0  0  0
 11 14  1  0  0  0  0
 11 15  1  0  0  0  0
 11 16  1  0  0  0  0
 17 18  1  0  0  0  0
 17 27  1  0  0  0  0
 18 19  1  0  0  0  0
 18 21  1  0  0  0  0
 18 28  1  0  0  0  0
 19 20  2  0  0  0  0
 19 34  1  0  0  0  0
 21 22  1  0  0  0  0
 21 29  1  0  0  0  0
 21 30  1  0  0  0  0
 22 23  1  0  0  0  0
 22 24  2  0  0  0  0
 23 25  2  0  0  0  0
 24 26  1  0  0  0  0
 24 31  1  0  0  0  0
 25 26  1  0  0  0  0
 25 32  1  0  0  0  0
 26 33  1  0  0  0  0
 34 35  1  0  0  0  0
 34 39  1  0  0  0  0
 35 36  1  0  0  0  0
 35 38  1  0  0  0  0
 35 40  1  0  0  0  0
 36 37  2  0  0  0  0
 36 44  1  0  0  0  0
 38 41  1  0  0  0  0
 38 42  1  0  0  0  0
 38 43  1  0  0  0  0
 44 45  1  0  0  0  0
 44 46  1  0  0  0  0
 45 47  1  0  0  0  0
 45 48  1  0  0  0  0
 45 49  1  0  0  0  0
M  END
$$$$

  -OEChem-02062319093D

 49 49  0     1  0  0  0  0  0999 V2000
   -2.9521   -1.1918    1.6451 C   0  0  0  0  0  0  0  0  0  0  0  0
   -2.9157   -1.1987    0.4218 O   0  0  0  0  0  0  0  0  0  0  0  0
   -3.8408   -2.1708    2.3878 C   0  0  0  0  0  0  0  0  0  0  0  0
   -4.4020   -2.7862    1.6791 H   0  0  0  0  0  0  0  0  0  0  0  0
   -3.2331   -2.8250    3.0180 H   0  0  0  0  0  0  0  0  0  0  0  0
   -4.5499   -1.6268    3.0171 H   0  0  0  0  0  0  0  0  0  0  0  0
   -2.1533   -0.3169    2.3518 N   0  0  0  0  0  0  0  0  0  0  0  0
   -1.4305    0.8257    1.7671 C   0  0  2  0  0  0  0  0  0  0  0  0
   -0.2011    0.4159    0.9088 C   0  0  0  0  0  0  0  0  0  0  0  0
    0.8528    1.0192    1.0470 O   0  0  0  0  0  0  0  0  0  0  0  0
   -1.0542    1.7413    2.9403 C   0  0  0  0  0  0  0  0  0  0  0  0
   -2.2610   -0.3312    3.3626 H   0  0  0  0  0  0  0  0  0  0  0  0
   -2.1096    1.3923    1.1335 H   0  0  0  0  0  0  0  0  0  0  0  0
   -0.3549    1.2372    3.6152 H   0  0  0  0  0  0  0  0  0  0  0  0
   -0.5790    2.6564    2.5717 H   0  0  0  0  0  0  0  0  0  0  0  0
   -1.9474    2.0253    3.5055 H   0  0  0  0  0  0  0  0  0  0  0  0
   -0.3498   -0.2370   -0.3028 N   0  0  0  0  0  0  0  0  0  0  0  0
   -0.4630    0.5484   -1.5514 C   0  0  2  0  0  0  0  0  0  0  0  0
   -1.6559    1.5243   -1.6322 C   0  0  0  0  0  0  0  0  0  0  0  0
   -1.4984    2.6830   -1.9942 O   0  0  0  0  0  0  0  0  0  0  0  0
   -0.5551   -0.4358   -2.7287 C   0  0  0  0  0  0  0  0  0  0  0  0
    0.7211   -1.2079   -2.8874 C   0  0  0  0  0  0  0  0  0  0  0  0
    1.9049   -0.6466   -3.3452 N   0  0  0  0  0  0  0  0  0  0  0  0
    0.8896   -2.5406   -2.6326 C   0  0  0  0  0  0  0  0  0  0  0  0
    2.7946   -1.6094   -3.3458 C   0  0  0  0  0  0  0  0  0  0  0  0
    2.2149   -2.7908   -2.9208 N   0  0  0  0  0  0  0  0  0  0  0  0
   -1.1022   -0.9228   -0.2267 H   0  0  0  0  0  0  0  0  0  0  0  0
    0.4481    1.1493   -1.6700 H   0  0  0  0  0  0  0  0  0  0  0  0
   -0.7375    0.1147   -3.6573 H   0  0  0  0  0  0  0  0  0  0  0  0
   -1.3921   -1.1236   -2.5772 H   0  0  0  0  0  0  0  0  0  0  0  0
    0.1362   -3.2326   -2.2697 H   0  0  0  0  0  0  0  0  0  0  0  0
    3.8332   -1.4928   -3.6417 H   0  0  0  0  0  0  0  0  0  0  0  0
    2.6995   -3.6810   -2.8257 H   0  0  0  0  0  0  0  0  0  0  0  0
   -2.9223    1.1276   -1.2418 N   0  0  0  0  0  0  0  0  0  0  0  0
   -4.0896    2.0175   -1.1789 C   0  0  2  0  0  0  0  0  0  0  0  0
   -4.0385    2.9542    0.0514 C   0  0  0  0  0  0  0  0  0  0  0  0
   -4.7656    2.7848    1.0241 O   0  0  0  0  0  0  0  0  0  0  0  0
   -5.3402    1.1311   -1.1968 C   0  0  0  0  0  0  0  0  0  0  0  0
   -3.0070    0.1959   -0.8268 H   0  0  0  0  0  0  0  0  0  0  0  0
   -4.1164    2.6513   -2.0717 H   0  0  0  0  0  0  0  0  0  0  0  0
   -5.3549    0.4660   -0.3271 H   0  0  0  0  0  0  0  0  0  0  0  0
   -6.2429    1.7500   -1.1755 H   0  0  0  0  0  0  0  0  0  0  0  0
   -5.3610    0.5199   -2.1043 H   0  0  0  0  0  0  0  0  0  0  0  0
   -3.0815    3.9484    0.0939 N   0  0  0  0  0  0  0  0  0  0  0  0
   -2.8633    4.8234    1.2370 C   0  0  0  0  0  0  0  0  0  0  0  0
   -2.3981    3.9440   -0.6694 H   0  0  0  0  0  0  0  0  0  0  0  0
   -2.6325    4.2378    2.1323 H   0  0  0  0  0  0  0  0  0  0  0  0
   -2.0250    5.4985    1.0391 H   0  0  0  0  0  0  0  0  0  0  0  0
   -3.7556    5.4275    1.4308 H   0  0  0  0  0  0  0  0  0  0  0  0
  1  2  2  0  0  0  0
  1  3  1  0  0  0  0
  1  7  1  0  0  0  0
  3  4  1  0  0  0  0
  3  5  1  0  0  0  0
  3  6  1  0  0  0  0
  7  8  1  0  0  0  0
  7 12  1  0  0  0  0
  8  9  1  0  0  0  0
  8 11  1  0  0  0  0
  8 13  1  0  0  0  0
  9 10  2  0  0  0  0
  9 17  1  0  0  0  0
 11 14  1  0  0  0  0
 11 15  1  0  0  0  0
 11 16  1  0  0  0  0
 17 18  1  0  0  0  0
 17 27  1  0  0  0  0
 18 19  1  0  0  0  0
 18 21  1  0  0  0  0
 18 28  1  0  0  0  0
 19 20  2  0  0  0  0
 19 34  1  0  0  0  0
 21 22  1  0  0  0  0
 21 29  1  0  0  0  0
 21 30  1  0  0  0  0
 22 23  1  0  0  0  0
 22 24  2  0  0  0  0
 23 25  2  0  0  0  0
 24 26  1  0  0  0  0
 24 31  1  0  0  0  0
 25 26  1  0  0  0  0
 25 32  1  0  0  0  0
 26 33  1  0  0  0  0
 34 35  1  0  0  0  0
 34 39  1  0  0  0  0
 35 36  1  0  0  0  0
 35 38  1  0  0  0  0
 35 40  1  0  0  0  0
 36 37  2  0  0  0  0
 36 44  1  0  0  0  0
 38 41  1  0  0  0  0
 38 42  1  0  0  0  0
 38 43  1  0  0  0  0
 44 45  1  0  0  0  0
 44 46  1  0  0  0  0
 45 47  1  0  0  0  0
 45 48  1  0  0  0  0
 45 49  1  0  0  0  0
M  END
$$$$

  -OEChem-02062319093D

 49 49  0     1  0  0  0  0  0999 V2000
   -2.8620   -0.9123    1.7046 C   0  0  0  0  0  0  0  0  0  0  0  0
   -2.9651   -0.7708    0.4933 O   0  0  0  0  0  0  0  0  0  0  0  0
   -3.7941   -1.8490    2.4483 C   0  0  0  0  0  0  0  0  0  0  0  0
   -4.5203   -2.2874    1.7581 H   0  0  0  0  0  0  0  0  0  0  0  0
   -3.2228   -2.6544    2.9170 H   0  0  0  0  0  0  0  0  0  0  0  0
   -4.3352   -1.2979    3.2216 H   0  0  0  0  0  0  0  0  0  0  0  0
   -1.8632   -0.2489    2.3866 N   0  0  0  0  0  0  0  0  0  0  0  0
   -1.0844    0.8735    1.8352 C   0  0  2  0  0  0  0  0  0  0  0  0
    0.0379    0.4420    0.8521 C   0  0  0  0  0  0  0  0  0  0  0  0
    1.1047    1.0390    0.8494 O   0  0  0  0  0  0  0  0  0  0  0  0
   -0.5457    1.6631    3.0353 C   0  0  0  0  0  0  0  0  0  0  0  0
   -1.8497   -0.3744    3.3954 H   0  0  0  0  0  0  0  0  0  0  0  0
   -1.7566    1.5390    1.2911 H   0  0  0  0  0  0  0  0  0  0  0  0
    0.1474    1.0503    3.6202 H   0  0  0  0  0  0  0  0  0  0  0  0
   -0.0137    2.5575    2.6957 H   0  0  0  0  0  0  0  0  0  0  0  0
   -1.3681    1.9842    3.6824 H   0  0  0  0  0  0  0  0  0  0  0  0
   -0.2841   -0.2650   -0.2930 N   0  0  0  0  0  0  0  0  0  0  0  0
   -0.2559    0.4255   -1.5985 C   0  0  2  0  0  0  0  0  0  0  0  0
   -1.2248    1.6227   -1.6896 C   0  0  0  0  0  0  0  0  0  0  0  0
   -0.8557    2.7013   -2.1355 O   0  0  0  0  0  0  0  0  0  0  0  0
   -0.6017   -0.5906   -2.6980 C   0  0  0  0  0  0  0  0  0  0  0  0
    0.4979   -1.5974   -2.8652 C   0  0  0  0  0  0  0  0  0  0  0  0
    1.7480   -1.2895   -3.3838 N   0  0  0  0  0  0  0  0  0  0  0  0
    0.4192   -2.9293   -2.5673 C   0  0  0  0  0  0  0  0  0  0  0  0
    2.4356   -2.4056   -3.3841 C   0  0  0  0  0  0  0  0  0  0  0  0
    1.6586   -3.4392   -2.8939 N   0  0  0  0  0  0  0  0  0  0  0  0
   -1.1415   -0.8005   -0.1519 H   0  0  0  0  0  0  0  0  0  0  0  0
    0.7552    0.8117   -1.7818 H   0  0  0  0  0  0  0  0  0  0  0  0
   -0.7334   -0.0703   -3.6521 H   0  0  0  0  0  0  0  0  0  0  0  0
   -1.5421   -1.0966   -2.4593 H   0  0  0  0  0  0  0  0  0  0  0  0
   -0.4386   -3.4528   -2.1570 H   0  0  0  0  0  0  0  0  0  0  0  0
    3.4628   -2.5015   -3.7245 H   0  0  0  0  0  0  0  0  0  0  0  0
    1.9643   -4.4048   -2.7916 H   0  0  0  0  0  0  0  0  0  0  0  0
   -2.5232    1.5130   -1.2230 N   0  0  0  0  0  0  0  0  0  0  0  0
   -3.4574    2.6416   -1.1096 C   0  0  2  0  0  0  0  0  0  0  0  0
   -3.1010    3.5711    0.0757 C   0  0  0  0  0  0  0  0  0  0  0  0
   -3.7750    3.6005    1.0998 O   0  0  0  0  0  0  0  0  0  0  0  0
   -4.8686    2.0527   -0.9967 C   0  0  0  0  0  0  0  0  0  0  0  0
   -2.7746    0.6362   -0.7588 H   0  0  0  0  0  0  0  0  0  0  0  0
   -3.4168    3.2459   -2.0221 H   0  0  0  0  0  0  0  0  0  0  0  0
   -4.9520    1.4177   -0.1086 H   0  0  0  0  0  0  0  0  0  0  0  0
   -5.6096    2.8547   -0.9198 H   0  0  0  0  0  0  0  0  0  0  0  0
   -5.1010    1.4500   -1.8800 H   0  0  0  0  0  0  0  0  0  0  0  0
   -1.9419    4.3183    0.0149 N   0  0  0  0  0  0  0  0  0  0  0  0
   -1.4422    5.1419    1.1066 C   0  0  0  0  0  0  0  0  0  0  0  0
   -1.3320    4.1309   -0.7871 H   0  0  0  0  0  0  0  0  0  0  0  0
   -0.4756    5.5780    0.8360 H   0  0  0  0  0  0  0  0  0  0  0  0
   -2.1420    5.9563    1.3209 H   0  0  0  0  0  0  0  0  0  0  0  0
   -1.3097    4.5424    2.0124 H   0  0  0  0  0  0  0  0  0  0  0  0
  1  2  2  0  0  0  0
  1  3  1  0  0  0  0
  1  7  1  0  0  0  0
  3  4  1  0  0  0  0
  3  5  1  0  0  0  0
  3  6  1  0  0  0  0
  7  8  1  0  0  0  0
  7 12  1  0  0  0  0
  8  9  1  0  0  0  0
  8 11  1  0  0  0  0
  8 13  1  0  0  0  0
  9 10  2  0  0  0  0
  9 17  1  0  0  0  0
 11 14  1  0  0  0  0
 11 15  1  0  0  0  0
 11 16  1  0  0  0  0
 17 18  1  0  0  0  0
 17 27  1  0  0  0  0
 18 19  1  0  0  0  0
 18 21  1  0  0  0  0
 18 28  1  0  0  0  0
 19 20  2  0  0  0  0
 19 34  1  0  0  0  0
 21 22  1  0  0  0  0
 21 29  1  0  0  0  0
 21 30  1  0  0  0  0
 22 23  1  0  0  0  0
 22 24  2  0  0  0  0
 23 25  2  0  0  0  0
 24 26  1  0  0  0  0
 24 31  1  0  0  0  0
 25 26  1  0  0  0  0
 25 32  1  0  0  0  0
 26 33  1  0  0  0  0
 34 35  1  0  0  0  0
 34 39  1  0  0  0  0
 35 36  1  0  0  0  0
 35 38  1  0  0  0  0
 35 40  1  0  0  0  0
 36 37  2  0  0  0  0
 36 44  1  0  0  0  0
 38 41  1  0  0  0  0
 38 42  1  0  0  0  0
 38 43  1  0  0  0  0
 44 45  1  0  0  0  0
 44 46  1  0  0  0  0
 45 47  1  0  0  0  0
 45 48  1  0  0  0  0
 45 49  1  0  0  0  0
M  END
$$$$

  -OEChem-02062319093D

 49 49  0     1  0  0  0  0  0999 V2000
   -2.8919   -0.6933    1.4831 C   0  0  0  0  0  0  0  0  0  0  0  0
   -2.9243   -0.3430    0.3112 O   0  0  0  0  0  0  0  0  0  0  0  0
   -3.9266   -1.6638    2.0198 C   0  0  0  0  0  0  0  0  0  0  0  0
   -4.6528   -1.9115    1.2402 H   0  0  0  0  0  0  0  0  0  0  0  0
   -3.4403   -2.5843    2.3523 H   0  0  0  0  0  0  0  0  0  0  0  0
   -4.4577   -1.2157    2.8636 H   0  0  0  0  0  0  0  0  0  0  0  0
   -1.8608   -0.2622    2.2926 N   0  0  0  0  0  0  0  0  0  0  0  0
   -0.9513    0.8494    1.9590 C   0  0  2  0  0  0  0  0  0  0  0  0
    0.1805    0.4761    0.9649 C   0  0  0  0  0  0  0  0  0  0  0  0
    1.2450    1.0767    0.9959 O   0  0  0  0  0  0  0  0  0  0  0  0
   -0.3995    1.3781    3.2897 C   0  0  0  0  0  0  0  0  0  0  0  0
   -1.8969   -0.5604    3.2637 H   0  0  0  0  0  0  0  0  0  0  0  0
   -1.5293    1.6554    1.4967 H   0  0  0  0  0  0  0  0  0  0  0  0
    0.2090    0.6147    3.7849 H   0  0  0  0  0  0  0  0  0  0  0  0
    0.2259    2.2606    3.1218 H   0  0  0  0  0  0  0  0  0  0  0  0
   -1.2180    1.6662    3.9563 H   0  0  0  0  0  0  0  0  0  0  0  0
   -0.1383   -0.2258   -0.1835 N   0  0  0  0  0  0  0  0  0  0  0  0
    0.1528    0.3548   -1.5075 C   0  0  2  0  0  0  0  0  0  0  0  0
   -0.5798    1.6929   -1.7256 C   0  0  0  0  0  0  0  0  0  0  0  0
    0.0054    2.6685   -2.1786 O   0  0  0  0  0  0  0  0  0  0  0  0
   -0.2756   -0.6393   -2.5972 C   0  0  0  0  0  0  0  0  0  0  0  0
    0.5532   -1.8883   -2.5522 C   0  0  0  0  0  0  0  0  0  0  0  0
    1.9170   -1.9203   -2.8076 N   0  0  0  0  0  0  0  0  0  0  0  0
    0.0874   -3.1456   -2.2853 C   0  0  0  0  0  0  0  0  0  0  0  0
    2.2893   -3.1706   -2.6820 C   0  0  0  0  0  0  0  0  0  0  0  0
    1.1983   -3.9592   -2.3647 N   0  0  0  0  0  0  0  0  0  0  0  0
   -1.0632   -0.6495   -0.1144 H   0  0  0  0  0  0  0  0  0  0  0  0
    1.2300    0.5432   -1.5995 H   0  0  0  0  0  0  0  0  0  0  0  0
   -0.1467   -0.1782   -3.5813 H   0  0  0  0  0  0  0  0  0  0  0  0
   -1.3342   -0.8898   -2.4807 H   0  0  0  0  0  0  0  0  0  0  0  0
   -0.9378   -3.4236   -2.0616 H   0  0  0  0  0  0  0  0  0  0  0  0
    3.3059   -3.5306   -2.8127 H   0  0  0  0  0  0  0  0  0  0  0  0
    1.2252   -4.9669   -2.2218 H   0  0  0  0  0  0  0  0  0  0  0  0
   -1.9141    1.8198   -1.3786 N   0  0  0  0  0  0  0  0  0  0  0  0
   -2.6073    3.1120   -1.3008 C   0  0  2  0  0  0  0  0  0  0  0  0
   -2.1520    3.9223   -0.0637 C   0  0  0  0  0  0  0  0  0  0  0  0
   -2.8610    4.0356    0.9307 O   0  0  0  0  0  0  0  0  0  0  0  0
   -4.1134    2.8280   -1.3070 C   0  0  0  0  0  0  0  0  0  0  0  0
   -2.3375    1.0247   -0.8927 H   0  0  0  0  0  0  0  0  0  0  0  0
   -2.3756    3.7104   -2.1885 H   0  0  0  0  0  0  0  0  0  0  0  0
   -4.3940    2.2162   -0.4436 H   0  0  0  0  0  0  0  0  0  0  0  0
   -4.6758    3.7662   -1.2655 H   0  0  0  0  0  0  0  0  0  0  0  0
   -4.3957    2.2950   -2.2199 H   0  0  0  0  0  0  0  0  0  0  0  0
   -0.8735    4.4425   -0.0431 N   0  0  0  0  0  0  0  0  0  0  0  0
   -0.2681    5.0604    1.1273 C   0  0  0  0  0  0  0  0  0  0  0  0
   -0.2645    4.1435   -0.8108 H   0  0  0  0  0  0  0  0  0  0  0  0
   -0.8775    5.9003    1.4765 H   0  0  0  0  0  0  0  0  0  0  0  0
   -0.1714    4.3319    1.9377 H   0  0  0  0  0  0  0  0  0  0  0  0
    0.7284    5.4379    0.8789 H   0  0  0  0  0  0  0  0  0  0  0  0
  1  2  2  0  0  0  0
  1  3  1  0  0  0  0
  1  7  1  0  0  0  0
  3  4  1  0  0  0  0
  3  5  1  0  0  0  0
  3  6  1  0  0  0  0
  7  8  1  0  0  0  0
  7 12  1  0  0  0  0
  8  9  1  0  0  0  0
  8 11  1  0  0  0  0
  8 13  1  0  0  0  0
  9 10  2  0  0  0  0
  9 17  1  0  0  0  0
 11 14  1  0  0  0  0
 11 15  1  0  0  0  0
 11 16  1  0  0  0  0
 17 18  1  0  0  0  0
 17 27  1  0  0  0  0
 18 19  1  0  0  0  0
 18 21  1  0  0  0  0
 18 28  1  0  0  0  0
 19 20  2  0  0  0  0
 19 34  1  0  0  0  0
 21 22  1  0  0  0  0
 21 29  1  0  0  0  0
 21 30  1  0  0  0  0
 22 23  1  0  0  0  0
 22 24  2  0  0  0  0
 23 25  2  0  0  0  0
 24 26  1  0  0  0  0
 24 31  1  0  0  0  0
 25 26  1  0  0  0  0
 25 32  1  0  0  0  0
 26 33  1  0  0  0  0
 34 35  1  0  0  0  0
 34 39  1  0  0  0  0
 35 36  1  0  0  0  0
 35 38  1  0  0  0  0
 35 40  1  0  0  0  0
 36 37  2  0  0  0  0
 36 44  1  0  0  0  0
 38 41  1  0  0  0  0
 38 42  1  0  0  0  0
 38 43  1  0  0  0  0
 44 45  1  0  0  0  0
 44 46  1  0  0  0  0
 45 47  1  0  0  0  0
 45 48  1  0  0  0  0
 45 49  1  0  0  0  0
M  END
$$$$

  -OEChem-02062319093D

 49 49  0     1  0  0  0  0  0999 V2000
   -2.9193   -0.3216    1.2776 C   0  0  0  0  0  0  0  0  0  0  0  0
   -2.8058    0.1686    0.1627 O   0  0  0  0  0  0  0  0  0  0  0  0
   -4.1637   -1.1084    1.6417 C   0  0  0  0  0  0  0  0  0  0  0  0
   -4.8797   -1.0878    0.8150 H   0  0  0  0  0  0  0  0  0  0  0  0
   -3.9016   -2.1477    1.8547 H   0  0  0  0  0  0  0  0  0  0  0  0
   -4.6363   -0.6708    2.5249 H   0  0  0  0  0  0  0  0  0  0  0  0
   -1.8710   -0.2360    2.1717 N   0  0  0  0  0  0  0  0  0  0  0  0
   -0.7596    0.7287    2.0578 C   0  0  2  0  0  0  0  0  0  0  0  0
    0.3252    0.3736    1.0073 C   0  0  0  0  0  0  0  0  0  0  0  0
    1.4319    0.8906    1.0672 O   0  0  0  0  0  0  0  0  0  0  0  0
   -0.1575    0.8644    3.4621 C   0  0  0  0  0  0  0  0  0  0  0  0
   -2.0376   -0.6412    3.0888 H   0  0  0  0  0  0  0  0  0  0  0  0
   -1.1675    1.7038    1.7696 H   0  0  0  0  0  0  0  0  0  0  0  0
    0.2985   -0.0794    3.7773 H   0  0  0  0  0  0  0  0  0  0  0  0
    0.6141    1.6407    3.4753 H   0  0  0  0  0  0  0  0  0  0  0  0
   -0.9300    1.1429    4.1854 H   0  0  0  0  0  0  0  0  0  0  0  0
   -0.0405   -0.2897   -0.1496 N   0  0  0  0  0  0  0  0  0  0  0  0
    0.4744    0.1353   -1.4631 C   0  0  2  0  0  0  0  0  0  0  0  0
    0.0654    1.5897   -1.7670 C   0  0  0  0  0  0  0  0  0  0  0  0
    0.8836    2.4095   -2.1652 O   0  0  0  0  0  0  0  0  0  0  0  0
   -0.0761   -0.7962   -2.5528 C   0  0  0  0  0  0  0  0  0  0  0  0
    0.4245   -2.1992   -2.3746 C   0  0  0  0  0  0  0  0  0  0  0  0
    1.7644   -2.5568   -2.4288 N   0  0  0  0  0  0  0  0  0  0  0  0
   -0.3547   -3.3020   -2.1587 C   0  0  0  0  0  0  0  0  0  0  0  0
    1.8128   -3.8520   -2.2336 C   0  0  0  0  0  0  0  0  0  0  0  0
    0.5346   -4.3520   -2.0634 N   0  0  0  0  0  0  0  0  0  0  0  0
   -1.0224   -0.5618   -0.1390 H   0  0  0  0  0  0  0  0  0  0  0  0
    1.5703    0.0839   -1.4673 H   0  0  0  0  0  0  0  0  0  0  0  0
    0.2487   -0.4367   -3.5341 H   0  0  0  0  0  0  0  0  0  0  0  0
   -1.1700   -0.7859   -2.5375 H   0  0  0  0  0  0  0  0  0  0  0  0
   -1.4372   -3.3270   -2.0825 H   0  0  0  0  0  0  0  0  0  0  0  0
    2.7247   -4.4421   -2.2130 H   0  0  0  0  0  0  0  0  0  0  0  0
    0.3047   -5.3308   -1.9030 H   0  0  0  0  0  0  0  0  0  0  0  0
   -1.2336    2.0033   -1.5225 N   0  0  0  0  0  0  0  0  0  0  0  0
   -1.5974    3.4185   -1.3810 C   0  0  2  0  0  0  0  0  0  0  0  0
   -1.0589    4.0018   -0.0515 C   0  0  0  0  0  0  0  0  0  0  0  0
   -1.7980    4.2260    0.9018 O   0  0  0  0  0  0  0  0  0  0  0  0
   -3.1225    3.5142   -1.4996 C   0  0  0  0  0  0  0  0  0  0  0  0
   -1.8349    1.3237   -1.0495 H   0  0  0  0  0  0  0  0  0  0  0  0
   -1.1587    3.9991   -2.1994 H   0  0  0  0  0  0  0  0  0  0  0  0
   -3.6086    2.9348   -0.7079 H   0  0  0  0  0  0  0  0  0  0  0  0
   -3.4439    4.5568   -1.4141 H   0  0  0  0  0  0  0  0  0  0  0  0
   -3.4529    3.1274   -2.4682 H   0  0  0  0  0  0  0  0  0  0  0  0
    0.3035    4.1676    0.1001 N   0  0  0  0  0  0  0  0  0  0  0  0
    0.9423    4.4702    1.3727 C   0  0  0  0  0  0  0  0  0  0  0  0
    0.8784    3.7692   -0.6485 H   0  0  0  0  0  0  0  0  0  0  0  0
    0.5440    5.4001    1.7916 H   0  0  0  0  0  0  0  0  0  0  0  0
    0.7743    3.6589    2.0872 H   0  0  0  0  0  0  0  0  0  0  0  0
    2.0210    4.5892    1.2320 H   0  0  0  0  0  0  0  0  0  0  0  0
  1  2  2  0  0  0  0
  1  3  1  0  0  0  0
  1  7  1  0  0  0  0
  3  4  1  0  0  0  0
  3  5  1  0  0  0  0
  3  6  1  0  0  0  0
  7  8  1  0  0  0  0
  7 12  1  0  0  0  0
  8  9  1  0  0  0  0
  8 11  1  0  0  0  0
  8 13  1  0  0  0  0
  9 10  2  0  0  0  0
  9 17  1  0  0  0  0
 11 14  1  0  0  0  0
 11 15  1  0  0  0  0
 11 16  1  0  0  0  0
 17 18  1  0  0  0  0
 17 27  1  0  0  0  0
 18 19  1  0  0  0  0
 18 21  1  0  0  0  0
 18 28  1  0  0  0  0
 19 20  2  0  0  0  0
 19 34  1  0  0  0  0
 21 22  1  0  0  0  0
 21 29  1  0  0  0  0
 21 30  1  0  0  0  0
 22 23  1  0  0  0  0
 22 24  2  0  0  0  0
 23 25  2  0  0  0  0
 24 26  1  0  0  0  0
 24 31  1  0  0  0  0
 25 26  1  0  0  0  0
 25 32  1  0  0  0  0
 26 33  1  0  0  0  0
 34 35  1  0  0  0  0
 34 39  1  0  0  0  0
 35 36  1  0  0  0  0
 35 38  1  0  0  0  0
 35 40  1  0  0  0  0
 36 37  2  0  0  0  0
 36 44  1  0  0  0  0
 38 41  1  0  0  0  0
 38 42  1  0  0  0  0
 38 43  1  0  0  0  0
 44 45  1  0  0  0  0
 44 46  1  0  0  0  0
 45 47  1  0  0  0  0
 45 48  1  0  0  0  0
 45 49  1  0  0  0  0
M  END
$$$$

  -OEChem-02062319093D

 49 49  0     1  0  0  0  0  0999 V2000
   -2.2878   -1.6422    3.2093 C   0  0  0  0  0  0  0  0  0  0  0  0
   -2.9304   -2.3014    2.4062 O   0  0  0  0  0  0  0  0  0  0  0  0
   -1.9815   -2.2017    4.5856 C   0  0  0  0  0  0  0  0  0  0  0  0
   -2.4349   -3.1900    4.7009 H   0  0  0  0  0  0  0  0  0  0  0  0
   -0.9005   -2.2918    4.7195 H   0  0  0  0  0  0  0  0  0  0  0  0
   -2.3833   -1.5393    5.3561 H   0  0  0  0  0  0  0  0  0  0  0  0
   -1.8158   -0.3948    2.8574 N   0  0  0  0  0  0  0  0  0  0  0  0
   -1.8518    0.1101    1.4793 C   0  0  2  0  0  0  0  0  0  0  0  0
   -0.5615   -0.2454    0.7112 C   0  0  0  0  0  0  0  0  0  0  0  0
    0.5225   -0.0509    1.2458 O   0  0  0  0  0  0  0  0  0  0  0  0
   -2.0561    1.6255    1.5471 C   0  0  0  0  0  0  0  0  0  0  0  0
   -1.1174    0.0083    3.4777 H   0  0  0  0  0  0  0  0  0  0  0  0
   -2.7004   -0.3232    0.9399 H   0  0  0  0  0  0  0  0  0  0  0  0
   -1.2315    2.1019    2.0859 H   0  0  0  0  0  0  0  0  0  0  0  0
   -2.1058    2.0535    0.5421 H   0  0  0  0  0  0  0  0  0  0  0  0
   -2.9897    1.8596    2.0674 H   0  0  0  0  0  0  0  0  0  0  0  0
   -0.6062   -0.4281   -0.6603 N   0  0  0  0  0  0  0  0  0  0  0  0
    0.5266   -0.1471   -1.5640 C   0  0  2  0  0  0  0  0  0  0  0  0
    0.9802    1.3242   -1.5143 C   0  0  0  0  0  0  0  0  0  0  0  0
    2.1675    1.6167   -1.4634 O   0  0  0  0  0  0  0  0  0  0  0  0
    0.1348   -0.5061   -3.0070 C   0  0  0  0  0  0  0  0  0  0  0  0
   -0.1897   -1.9648   -3.1462 C   0  0  0  0  0  0  0  0  0  0  0  0
    0.6808   -2.9864   -2.7975 N   0  0  0  0  0  0  0  0  0  0  0  0
   -1.3584   -2.4803   -3.6345 C   0  0  0  0  0  0  0  0  0  0  0  0
    0.0611   -4.1122   -3.0571 C   0  0  0  0  0  0  0  0  0  0  0  0
   -1.1949   -3.8489   -3.5722 N   0  0  0  0  0  0  0  0  0  0  0  0
   -1.5052   -0.6747   -1.0631 H   0  0  0  0  0  0  0  0  0  0  0  0
    1.3826   -0.7654   -1.2653 H   0  0  0  0  0  0  0  0  0  0  0  0
    0.9734   -0.2787   -3.6727 H   0  0  0  0  0  0  0  0  0  0  0  0
   -0.7190    0.0975   -3.3278 H   0  0  0  0  0  0  0  0  0  0  0  0
   -2.2180   -1.9235   -3.9956 H   0  0  0  0  0  0  0  0  0  0  0  0
    0.4770   -5.1022   -2.8926 H   0  0  0  0  0  0  0  0  0  0  0  0
   -1.8701   -4.5556   -3.8588 H   0  0  0  0  0  0  0  0  0  0  0  0
    0.0429    2.3421   -1.5374 N   0  0  0  0  0  0  0  0  0  0  0  0
    0.3775    3.7346   -1.2050 C   0  0  2  0  0  0  0  0  0  0  0  0
    0.5906    3.9106    0.3183 C   0  0  0  0  0  0  0  0  0  0  0  0
   -0.2242    4.5097    1.0114 O   0  0  0  0  0  0  0  0  0  0  0  0
   -0.7381    4.6270   -1.7628 C   0  0  0  0  0  0  0  0  0  0  0  0
   -0.9223    2.0510   -1.4277 H   0  0  0  0  0  0  0  0  0  0  0  0
    1.3118    4.0209   -1.7003 H   0  0  0  0  0  0  0  0  0  0  0  0
   -1.6992    4.3805   -1.3007 H   0  0  0  0  0  0  0  0  0  0  0  0
   -0.5169    5.6798   -1.5597 H   0  0  0  0  0  0  0  0  0  0  0  0
   -0.8257    4.4954   -2.8456 H   0  0  0  0  0  0  0  0  0  0  0  0
    1.6660    3.2863    0.9180 N   0  0  0  0  0  0  0  0  0  0  0  0
    1.8228    3.1576    2.3597 C   0  0  0  0  0  0  0  0  0  0  0  0
    2.1926    2.6473    0.3155 H   0  0  0  0  0  0  0  0  0  0  0  0
    1.7416    4.1349    2.8468 H   0  0  0  0  0  0  0  0  0  0  0  0
    1.0565    2.4920    2.7691 H   0  0  0  0  0  0  0  0  0  0  0  0
    2.8062    2.7384    2.5928 H   0  0  0  0  0  0  0  0  0  0  0  0
  1  2  2  0  0  0  0
  1  3  1  0  0  0  0
  1  7  1  0  0  0  0
  3  4  1  0  0  0  0
  3  5  1  0  0  0  0
  3  6  1  0  0  0  0
  7  8  1  0  0  0  0
  7 12  1  0  0  0  0
  8  9  1  0  0  0  0
  8 11  1  0  0  0  0
  8 13  1  0  0  0  0
  9 10  2  0  0  0  0
  9 17  1  0  0  0  0
 11 14  1  0  0  0  0
 11 15  1  0  0  0  0
 11 16  1  0  0  0  0
 17 18  1  0  0  0  0
 17 27  1  0  0  0  0
 18 19  1  0  0  0  0
 18 21  1  0  0  0  0
 18 28  1  0  0  0  0
 19 20  2  0  0  0  0
 19 34  1  0  0  0  0
 21 22  1  0  0  0  0
 21 29  1  0  0  0  0
 21 30  1  0  0  0  0
 22 23  1  0  0  0  0
 22 24  2  0  0  0  0
 23 25  2  0  0  0  0
 24 26  1  0  0  0  0
 24 31  1  0  0  0  0
 25 26  1  0  0  0  0
 25 32  1  0  0  0  0
 26 33  1  0  0  0  0
 34 35  1  0  0  0  0
 34 39  1  0  0  0  0
 35 36  1  0  0  0  0
 35 38  1  0  0  0  0
 35 40  1  0  0  0  0
 36 37  2  0  0  0  0
 36 44  1  0  0  0  0
 38 41  1  0  0  0  0
 38 42  1  0  0  0  0
 38 43  1  0  0  0  0
 44 45  1  0  0  0  0
 44 46  1  0  0  0  0
 45 47  1  0  0  0  0
 45 48  1  0  0  0  0
 45 49  1  0  0  0  0
M  END
$$$$

  -OEChem-02062319093D

 49 49  0     1  0  0  0  0  0999 V2000
   -2.9045   -1.2371    1.3349 C   0  0  0  0  0  0  0  0  0  0  0  0
   -2.9615   -0.6712    0.2517 O   0  0  0  0  0  0  0  0  0  0  0  0
   -3.7729   -2.4502    1.6075 C   0  0  0  0  0  0  0  0  0  0  0  0
   -4.4584   -2.6193    0.7723 H   0  0  0  0  0  0  0  0  0  0  0  0
   -3.1458   -3.3363    1.7340 H   0  0  0  0  0  0  0  0  0  0  0  0
   -4.3592   -2.2944    2.5165 H   0  0  0  0  0  0  0  0  0  0  0  0
   -1.9922   -0.8148    2.2809 N   0  0  0  0  0  0  0  0  0  0  0  0
   -1.0790    0.3273    2.1068 C   0  0  2  0  0  0  0  0  0  0  0  0
    0.1163   -0.0049    1.1800 C   0  0  0  0  0  0  0  0  0  0  0  0
    1.2740    0.1977    1.5179 O   0  0  0  0  0  0  0  0  0  0  0  0
   -0.6391    0.7825    3.5035 C   0  0  0  0  0  0  0  0  0  0  0  0
   -1.9234   -1.3598    3.1362 H   0  0  0  0  0  0  0  0  0  0  0  0
   -1.6229    1.1584    1.6449 H   0  0  0  0  0  0  0  0  0  0  0  0
   -0.0631   -0.0035    4.0024 H   0  0  0  0  0  0  0  0  0  0  0  0
   -0.0114    1.6764    3.4291 H   0  0  0  0  0  0  0  0  0  0  0  0
   -1.5106    1.0259    4.1189 H   0  0  0  0  0  0  0  0  0  0  0  0
   -0.1460   -0.4067   -0.1149 N   0  0  0  0  0  0  0  0  0  0  0  0
    0.8424   -0.4598   -1.2043 C   0  0  2  0  0  0  0  0  0  0  0  0
    1.4628    0.9191   -1.4957 C   0  0  0  0  0  0  0  0  0  0  0  0
    2.6721    1.0565   -1.6272 O   0  0  0  0  0  0  0  0  0  0  0  0
    0.1448   -0.9914   -2.4655 C   0  0  0  0  0  0  0  0  0  0  0  0
   -0.4048   -2.3708   -2.2445 C   0  0  0  0  0  0  0  0  0  0  0  0
    0.3817   -3.5000   -2.0653 N   0  0  0  0  0  0  0  0  0  0  0  0
   -1.7310   -2.7014   -2.2026 C   0  0  0  0  0  0  0  0  0  0  0  0
   -0.4434   -4.5081   -1.9183 C   0  0  0  0  0  0  0  0  0  0  0  0
   -1.7509   -4.0642   -1.9933 N   0  0  0  0  0  0  0  0  0  0  0  0
   -1.1329   -0.5614   -0.3356 H   0  0  0  0  0  0  0  0  0  0  0  0
    1.6552   -1.1423   -0.9275 H   0  0  0  0  0  0  0  0  0  0  0  0
    0.8619   -1.0293   -3.2915 H   0  0  0  0  0  0  0  0  0  0  0  0
   -0.6651   -0.3159   -2.7567 H   0  0  0  0  0  0  0  0  0  0  0  0
   -2.5737   -2.0229   -2.3077 H   0  0  0  0  0  0  0  0  0  0  0  0
   -0.1402   -5.5395   -1.7617 H   0  0  0  0  0  0  0  0  0  0  0  0
   -2.5771   -4.6559   -1.9301 H   0  0  0  0  0  0  0  0  0  0  0  0
    0.6463    2.0332   -1.5752 N   0  0  0  0  0  0  0  0  0  0  0  0
    1.1652    3.4071   -1.5369 C   0  0  2  0  0  0  0  0  0  0  0  0
    1.5593    3.8146   -0.0969 C   0  0  0  0  0  0  0  0  0  0  0  0
    0.9216    4.6548    0.5287 O   0  0  0  0  0  0  0  0  0  0  0  0
    0.0992    4.3214   -2.1516 C   0  0  0  0  0  0  0  0  0  0  0  0
   -0.3191    1.8861   -1.2967 H   0  0  0  0  0  0  0  0  0  0  0  0
    2.0660    3.4834   -2.1555 H   0  0  0  0  0  0  0  0  0  0  0  0
   -0.8284    4.2777   -1.5718 H   0  0  0  0  0  0  0  0  0  0  0  0
    0.4518    5.3575   -2.1638 H   0  0  0  0  0  0  0  0  0  0  0  0
   -0.1153    4.0169   -3.1805 H   0  0  0  0  0  0  0  0  0  0  0  0
    2.6009    3.1527    0.5217 N   0  0  0  0  0  0  0  0  0  0  0  0
    2.8952    3.2740    1.9422 C   0  0  0  0  0  0  0  0  0  0  0  0
    2.9677    2.3406    0.0180 H   0  0  0  0  0  0  0  0  0  0  0  0
    3.1320    4.3117    2.1984 H   0  0  0  0  0  0  0  0  0  0  0  0
    2.0376    2.9479    2.5391 H   0  0  0  0  0  0  0  0  0  0  0  0
    3.7548    2.6488    2.2019 H   0  0  0  0  0  0  0  0  0  0  0  0
  1  2  2  0  0  0  0
  1  3  1  0  0  0  0
  1  7  1  0  0  0  0
  3  4  1  0  0  0  0
  3  5  1  0  0  0  0
  3  6  1  0  0  0  0
  7  8  1  0  0  0  0
  7 12  1  0  0  0  0
  8  9  1  0  0  0  0
  8 11  1  0  0  0  0
  8 13  1  0  0  0  0
  9 10  2  0  0  0  0
  9 17  1  0  0  0  0
 11 14  1  0  0  0  0
 11 15  1  0  0  0  0
 11 16  1  0  0  0  0
 17 18  1  0  0  0  0
 17 27  1  0  0  0  0
 18 19  1  0  0  0  0
 18 21  1  0  0  0  0
 18 28  1  0  0  0  0
 19 20  2  0  0  0  0
 19 34  1  0  0  0  0
 21 22  1  0  0  0  0
 21 29  1  0  0  0  0
 21 30  1  0  0  0  0
 22 23  1  0  0  0  0
 22 24  2  0  0  0  0
 23 25  2  0  0  0  0
 24 26  1  0  0  0  0
 24 31  1  0  0  0  0
 25 26  1  0  0  0  0
 25 32  1  0  0  0  0
 26 33  1  0  0  0  0
 34 35  1  0  0  0  0
 34 39  1  0  0  0  0
 35 36  1  0  0  0  0
 35 38  1  0  0  0  0
 35 40  1  0  0  0  0
 36 37  2  0  0  0  0
 36 44  1  0  0  0  0
 38 41  1  0  0  0  0
 38 42  1  0  0  0  0
 38 43  1  0  0  0  0
 44 45  1  0  0  0  0
 44 46  1  0  0  0  0
 45 47  1  0  0  0  0
 45 48  1  0  0  0  0
 45 49  1  0  0  0  0
M  END
$$$$
