
  -OEChem-02062319033D

 64 63  0     1  0  0  0  0  0999 V2000
   -0.5337   -6.2586   -3.7737 C   0  0  0  0  0  0  0  0  0  0  0  0
   -1.6411   -6.1973   -4.2949 O   0  0  0  0  0  0  0  0  0  0  0  0
   -0.1148   -7.5128   -3.0809 C   0  0  0  0  0  0  0  0  0  0  0  0
   -0.3867   -7.5142   -2.0131 H   0  0  0  0  0  0  0  0  0  0  0  0
   -0.5963   -8.4084   -3.5051 H   0  0  0  0  0  0  0  0  0  0  0  0
    0.9658   -7.7261   -3.1050 H   0  0  0  0  0  0  0  0  0  0  0  0
    0.4187   -5.2544   -3.7530 N   0  0  0  0  0  0  0  0  0  0  0  0
    0.2211   -3.9641   -4.3636 C   0  0  2  0  0  0  0  0  0  0  0  0
    1.5537   -3.4742   -4.9267 C   0  0  0  0  0  0  0  0  0  0  0  0
    2.6149   -4.0690   -4.7491 O   0  0  0  0  0  0  0  0  0  0  0  0
   -0.4399   -2.9642   -3.4116 C   0  0  0  0  0  0  0  0  0  0  0  0
    0.5614   -2.5814   -1.9374 S   0  0  0  0  0  0  0  0  0  0  0  0
    1.3027   -5.4364   -3.2831 H   0  0  0  0  0  0  0  0  0  0  0  0
   -0.4523   -4.1395   -5.2118 H   0  0  0  0  0  0  0  0  0  0  0  0
   -0.6401   -2.0186   -3.9260 H   0  0  0  0  0  0  0  0  0  0  0  0
   -1.3996   -3.3600   -3.0623 H   0  0  0  0  0  0  0  0  0  0  0  0
    1.4214   -2.2842   -5.6279 N   0  0  0  0  0  0  0  0  0  0  0  0
    2.5445   -1.6084   -6.2344 C   0  0  0  0  0  0  0  0  0  0  0  0
    0.4980   -1.8833   -5.7628 H   0  0  0  0  0  0  0  0  0  0  0  0
    2.9515   -0.8680   -5.5300 H   0  0  0  0  0  0  0  0  0  0  0  0
    3.3236   -2.3437   -6.4839 H   0  0  0  0  0  0  0  0  0  0  0  0
    2.2141   -1.0988   -7.1515 H   0  0  0  0  0  0  0  0  0  0  0  0
   -6.7256    2.0330   -0.2766 C   0  0  0  0  0  0  0  0  0  0  0  0
   -7.1824    1.1039   -0.9322 O   0  0  0  0  0  0  0  0  0  0  0  0
   -7.5276    2.6077    0.8435 C   0  0  0  0  0  0  0  0  0  0  0  0
   -8.1775    3.4344    0.5145 H   0  0  0  0  0  0  0  0  0  0  0  0
   -8.2057    1.8676    1.2980 H   0  0  0  0  0  0  0  0  0  0  0  0
   -6.9411    3.0162    1.6819 H   0  0  0  0  0  0  0  0  0  0  0  0
   -5.4935    2.6382   -0.4627 N   0  0  0  0  0  0  0  0  0  0  0  0
   -4.5619    2.2388   -1.4845 C   0  0  2  0  0  0  0  0  0  0  0  0
   -3.1535    2.4674   -0.9521 C   0  0  0  0  0  0  0  0  0  0  0  0
   -2.8634    3.3945   -0.1987 O   0  0  0  0  0  0  0  0  0  0  0  0
   -4.7883    3.0138   -2.7732 C   0  0  0  0  0  0  0  0  0  0  0  0
   -5.2337    3.4049    0.1551 H   0  0  0  0  0  0  0  0  0  0  0  0
   -4.7192    1.1682   -1.6549 H   0  0  0  0  0  0  0  0  0  0  0  0
   -4.6352    4.0886   -2.6221 H   0  0  0  0  0  0  0  0  0  0  0  0
   -4.0976    2.6887   -3.5582 H   0  0  0  0  0  0  0  0  0  0  0  0
   -5.8111    2.8719   -3.1387 H   0  0  0  0  0  0  0  0  0  0  0  0
   -2.2466    1.5400   -1.4507 N   0  0  0  0  0  0  0  0  0  0  0  0
   -0.8500    1.5457   -1.0958 C   0  0  2  0  0  0  0  0  0  0  0  0
   -0.2380    2.8799   -1.5178 C   0  0  0  0  0  0  0  0  0  0  0  0
    0.4946    3.5420   -0.7854 O   0  0  0  0  0  0  0  0  0  0  0  0
   -0.1024    0.3318   -1.6530 C   0  0  0  0  0  0  0  0  0  0  0  0
   -0.6536   -1.2454   -0.9590 S   0  0  0  0  0  0  0  0  0  0  0  0
   -2.5805    0.7992   -2.0628 H   0  0  0  0  0  0  0  0  0  0  0  0
   -0.8243    1.5015    0.0001 H   0  0  0  0  0  0  0  0  0  0  0  0
   -0.2231    0.2715   -2.7395 H   0  0  0  0  0  0  0  0  0  0  0  0
    0.9688    0.4252   -1.4442 H   0  0  0  0  0  0  0  0  0  0  0  0
   -0.6260    3.2544   -2.7964 N   0  0  0  0  0  0  0  0  0  0  0  0
   -0.1977    4.4897   -3.4100 C   0  0  2  0  0  0  0  0  0  0  0  0
   -1.3166    4.9741   -4.3226 C   0  0  0  0  0  0  0  0  0  0  0  0
   -2.0498    4.2110   -4.9481 O   0  0  0  0  0  0  0  0  0  0  0  0
    1.0954    4.3018   -4.1880 C   0  0  0  0  0  0  0  0  0  0  0  0
   -1.2002    2.6248   -3.3491 H   0  0  0  0  0  0  0  0  0  0  0  0
   -0.0492    5.2108   -2.5989 H   0  0  0  0  0  0  0  0  0  0  0  0
    0.9661    3.5825   -5.0049 H   0  0  0  0  0  0  0  0  0  0  0  0
    1.4338    5.2453   -4.6288 H   0  0  0  0  0  0  0  0  0  0  0  0
    1.8911    3.9250   -3.5363 H   0  0  0  0  0  0  0  0  0  0  0  0
   -1.3723    6.3592   -4.3901 N   0  0  0  0  0  0  0  0  0  0  0  0
   -2.3208    7.0617   -5.2225 C   0  0  0  0  0  0  0  0  0  0  0  0
   -0.7521    6.9132   -3.8069 H   0  0  0  0  0  0  0  0  0  0  0  0
   -1.8659    7.2697   -6.2022 H   0  0  0  0  0  0  0  0  0  0  0  0
   -3.2185    6.4409   -5.3596 H   0  0  0  0  0  0  0  0  0  0  0  0
   -2.6006    8.0096   -4.7396 H   0  0  0  0  0  0  0  0  0  0  0  0
  1  3  1  0  0  0  0
  1  7  1  0  0  0  0
  1  2  2  0  0  0  0
 23 25  1  0  0  0  0
 23 29  1  0  0  0  0
 23 24  2  0  0  0  0
 50 51  1  0  0  0  0
 51 59  1  0  0  0  0
 51 52  2  0  0  0  0
  8  9  1  0  0  0  0
  9 17  1  0  0  0  0
  9 10  2  0  0  0  0
 30 31  1  0  0  0  0
 31 39  1  0  0  0  0
 31 32  2  0  0  0  0
 40 41  1  0  0  0  0
 41 49  1  0  0  0  0
 41 42  2  0  0  0  0
 50 53  1  0  0  0  0
 30 33  1  0  0  0  0
 59 60  1  0  0  0  0
 17 18  1  0  0  0  0
  8 11  1  0  0  0  0
 11 12  1  0  0  0  0
 40 43  1  0  0  0  0
 43 44  1  0  0  0  0
 49 50  1  0  0  0  0
  7  8  1  0  0  0  0
 29 30  1  0  0  0  0
 39 40  1  0  0  0  0
 12 44  1  0  0  0  0
  3  4  1  0  0  0  0
  3  5  1  0  0  0  0
  3  6  1  0  0  0  0
 25 26  1  0  0  0  0
 25 27  1  0  0  0  0
 25 28  1  0  0  0  0
 53 56  1  0  0  0  0
 53 57  1  0  0  0  0
 53 58  1  0  0  0  0
 33 36  1  0  0  0  0
 33 37  1  0  0  0  0
 33 38  1  0  0  0  0
 60 62  1  0  0  0  0
 60 63  1  0  0  0  0
 60 64  1  0  0  0  0
 18 20  1  0  0  0  0
 18 21  1  0  0  0  0
 18 22  1  0  0  0  0
 11 15  1  0  0  0  0
 11 16  1  0  0  0  0
 43 47  1  0  0  0  0
 43 48  1  0  0  0  0
 50 55  1  0  0  0  0
  8 14  1  0  0  0  0
 30 35  1  0  0  0  0
 40 46  1  0  0  0  0
 59 61  1  0  0  0  0
 17 19  1  0  0  0  0
  7 13  1  0  0  0  0
 29 34  1  0  0  0  0
 49 54  1  0  0  0  0
 39 45  1  0  0  0  0
M  END
$$$$

  -OEChem-02062319033D

 64 63  0     1  0  0  0  0  0999 V2000
   -0.7559   -5.9224   -4.8033 C   0  0  0  0  0  0  0  0  0  0  0  0
   -1.7427   -5.6591   -5.4806 O   0  0  0  0  0  0  0  0  0  0  0  0
   -0.5683   -7.3093   -4.2841 C   0  0  0  0  0  0  0  0  0  0  0  0
   -1.0279   -7.4531   -3.2931 H   0  0  0  0  0  0  0  0  0  0  0  0
   -1.0336   -8.0680   -4.9337 H   0  0  0  0  0  0  0  0  0  0  0  0
    0.4789   -7.6311   -4.1673 H   0  0  0  0  0  0  0  0  0  0  0  0
    0.2525   -5.0430   -4.4485 N   0  0  0  0  0  0  0  0  0  0  0  0
    0.2698   -3.6577   -4.8451 C   0  0  2  0  0  0  0  0  0  0  0  0
    1.7162   -3.2301   -5.0852 C   0  0  0  0  0  0  0  0  0  0  0  0
    2.6782   -3.9565   -4.8434 O   0  0  0  0  0  0  0  0  0  0  0  0
   -0.4723   -2.7585   -3.8533 C   0  0  0  0  0  0  0  0  0  0  0  0
    0.2728   -2.7278   -2.1900 S   0  0  0  0  0  0  0  0  0  0  0  0
    1.0201   -5.3923   -3.8791 H   0  0  0  0  0  0  0  0  0  0  0  0
   -0.2508   -3.6209   -5.8101 H   0  0  0  0  0  0  0  0  0  0  0  0
   -0.5019   -1.7265   -4.2179 H   0  0  0  0  0  0  0  0  0  0  0  0
   -1.5073   -3.0996   -3.7425 H   0  0  0  0  0  0  0  0  0  0  0  0
    1.8062   -1.9355   -5.5767 N   0  0  0  0  0  0  0  0  0  0  0  0
    3.0696   -1.2960   -5.8604 C   0  0  0  0  0  0  0  0  0  0  0  0
    0.9564   -1.4211   -5.7887 H   0  0  0  0  0  0  0  0  0  0  0  0
    3.3991   -0.7266   -4.9788 H   0  0  0  0  0  0  0  0  0  0  0  0
    3.8212   -2.0613   -6.1044 H   0  0  0  0  0  0  0  0  0  0  0  0
    2.9511   -0.6130   -6.7145 H   0  0  0  0  0  0  0  0  0  0  0  0
   -6.7256    2.0330   -0.2766 C   0  0  0  0  0  0  0  0  0  0  0  0
   -7.1824    1.1039   -0.9322 O   0  0  0  0  0  0  0  0  0  0  0  0
   -7.5276    2.6077    0.8435 C   0  0  0  0  0  0  0  0  0  0  0  0
   -8.1775    3.4344    0.5145 H   0  0  0  0  0  0  0  0  0  0  0  0
   -8.2057    1.8676    1.2980 H   0  0  0  0  0  0  0  0  0  0  0  0
   -6.9411    3.0162    1.6819 H   0  0  0  0  0  0  0  0  0  0  0  0
   -5.4935    2.6382   -0.4627 N   0  0  0  0  0  0  0  0  0  0  0  0
   -4.5619    2.2388   -1.4845 C   0  0  2  0  0  0  0  0  0  0  0  0
   -3.1535    2.4674   -0.9521 C   0  0  0  0  0  0  0  0  0  0  0  0
   -2.8634    3.3945   -0.1987 O   0  0  0  0  0  0  0  0  0  0  0  0
   -4.7883    3.0138   -2.7732 C   0  0  0  0  0  0  0  0  0  0  0  0
   -5.2337    3.4049    0.1551 H   0  0  0  0  0  0  0  0  0  0  0  0
   -4.7192    1.1682   -1.6549 H   0  0  0  0  0  0  0  0  0  0  0  0
   -4.6352    4.0886   -2.6221 H   0  0  0  0  0  0  0  0  0  0  0  0
   -4.0976    2.6887   -3.5582 H   0  0  0  0  0  0  0  0  0  0  0  0
   -5.8111    2.8719   -3.1387 H   0  0  0  0  0  0  0  0  0  0  0  0
   -2.2466    1.5400   -1.4507 N   0  0  0  0  0  0  0  0  0  0  0  0
   -0.9410    1.3381   -0.8753 C   0  0  2  0  0  0  0  0  0  0  0  0
   -0.1606    2.6490   -0.9476 C   0  0  0  0  0  0  0  0  0  0  0  0
    0.4769    3.1020    0.0009 O   0  0  0  0  0  0  0  0  0  0  0  0
   -0.2021    0.1562   -1.5076 C   0  0  0  0  0  0  0  0  0  0  0  0
   -0.9910   -1.4433   -1.2044 S   0  0  0  0  0  0  0  0  0  0  0  0
   -2.5212    0.9476   -2.2308 H   0  0  0  0  0  0  0  0  0  0  0  0
   -1.1173    1.1158    0.1845 H   0  0  0  0  0  0  0  0  0  0  0  0
   -0.1287    0.2847   -2.5924 H   0  0  0  0  0  0  0  0  0  0  0  0
    0.8178    0.0989   -1.1120 H   0  0  0  0  0  0  0  0  0  0  0  0
   -0.2808    3.2637   -2.1858 N   0  0  0  0  0  0  0  0  0  0  0  0
    0.3464    4.5282   -2.4920 C   0  0  2  0  0  0  0  0  0  0  0  0
   -0.5479    5.2706   -3.4761 C   0  0  0  0  0  0  0  0  0  0  0  0
   -1.2133    4.7015   -4.3389 O   0  0  0  0  0  0  0  0  0  0  0  0
    1.7401    4.3296   -3.0671 C   0  0  0  0  0  0  0  0  0  0  0  0
   -0.7930    2.7967   -2.9283 H   0  0  0  0  0  0  0  0  0  0  0  0
    0.4017    5.0894   -1.5528 H   0  0  0  0  0  0  0  0  0  0  0  0
    1.7049    3.7692   -4.0085 H   0  0  0  0  0  0  0  0  0  0  0  0
    2.2253    5.2897   -3.2720 H   0  0  0  0  0  0  0  0  0  0  0  0
    2.3731    3.7695   -2.3704 H   0  0  0  0  0  0  0  0  0  0  0  0
   -0.4822    6.6464   -3.3055 N   0  0  0  0  0  0  0  0  0  0  0  0
   -1.2069    7.5716   -4.1451 C   0  0  0  0  0  0  0  0  0  0  0  0
    0.0637    7.0294   -2.5393 H   0  0  0  0  0  0  0  0  0  0  0  0
   -0.5676    7.8842   -4.9840 H   0  0  0  0  0  0  0  0  0  0  0  0
   -2.1107    7.0813   -4.5359 H   0  0  0  0  0  0  0  0  0  0  0  0
   -1.4946    8.4541   -3.5549 H   0  0  0  0  0  0  0  0  0  0  0  0
  1  3  1  0  0  0  0
  1  7  1  0  0  0  0
  1  2  2  0  0  0  0
 23 25  1  0  0  0  0
 23 29  1  0  0  0  0
 23 24  2  0  0  0  0
 50 51  1  0  0  0  0
 51 59  1  0  0  0  0
 51 52  2  0  0  0  0
  8  9  1  0  0  0  0
  9 17  1  0  0  0  0
  9 10  2  0  0  0  0
 30 31  1  0  0  0  0
 31 39  1  0  0  0  0
 31 32  2  0  0  0  0
 40 41  1  0  0  0  0
 41 49  1  0  0  0  0
 41 42  2  0  0  0  0
 50 53  1  0  0  0  0
 30 33  1  0  0  0  0
 59 60  1  0  0  0  0
 17 18  1  0  0  0  0
  8 11  1  0  0  0  0
 11 12  1  0  0  0  0
 40 43  1  0  0  0  0
 43 44  1  0  0  0  0
 49 50  1  0  0  0  0
  7  8  1  0  0  0  0
 29 30  1  0  0  0  0
 39 40  1  0  0  0  0
 12 44  1  0  0  0  0
  3  4  1  0  0  0  0
  3  5  1  0  0  0  0
  3  6  1  0  0  0  0
 25 26  1  0  0  0  0
 25 27  1  0  0  0  0
 25 28  1  0  0  0  0
 53 56  1  0  0  0  0
 53 57  1  0  0  0  0
 53 58  1  0  0  0  0
 33 36  1  0  0  0  0
 33 37  1  0  0  0  0
 33 38  1  0  0  0  0
 60 62  1  0  0  0  0
 60 63  1  0  0  0  0
 60 64  1  0  0  0  0
 18 20  1  0  0  0  0
 18 21  1  0  0  0  0
 18 22  1  0  0  0  0
 11 15  1  0  0  0  0
 11 16  1  0  0  0  0
 43 47  1  0  0  0  0
 43 48  1  0  0  0  0
 50 55  1  0  0  0  0
  8 14  1  0  0  0  0
 30 35  1  0  0  0  0
 40 46  1  0  0  0  0
 59 61  1  0  0  0  0
 17 19  1  0  0  0  0
  7 13  1  0  0  0  0
 29 34  1  0  0  0  0
 49 54  1  0  0  0  0
 39 45  1  0  0  0  0
M  END
$$$$

  -OEChem-02062319033D

 64 63  0     1  0  0  0  0  0999 V2000
   -0.7615   -5.4030   -5.7794 C   0  0  0  0  0  0  0  0  0  0  0  0
   -1.5860   -4.9296   -6.5526 O   0  0  0  0  0  0  0  0  0  0  0  0
   -0.7795   -6.8674   -5.4903 C   0  0  0  0  0  0  0  0  0  0  0  0
   -1.4205   -7.1183   -4.6299 H   0  0  0  0  0  0  0  0  0  0  0  0
   -1.1776   -7.4572   -6.3316 H   0  0  0  0  0  0  0  0  0  0  0  0
    0.2009   -7.3147   -5.2614 H   0  0  0  0  0  0  0  0  0  0  0  0
    0.2317   -4.7059   -5.1134 N   0  0  0  0  0  0  0  0  0  0  0  0
    0.4284   -3.2849   -5.2500 C   0  0  2  0  0  0  0  0  0  0  0  0
    1.9233   -2.9826   -5.1689 C   0  0  0  0  0  0  0  0  0  0  0  0
    2.7660   -3.8377   -4.9044 O   0  0  0  0  0  0  0  0  0  0  0  0
   -0.4082   -2.4822   -4.2507 C   0  0  0  0  0  0  0  0  0  0  0  0
    0.0241   -2.7996   -2.5086 S   0  0  0  0  0  0  0  0  0  0  0  0
    0.8541   -5.2228   -4.4962 H   0  0  0  0  0  0  0  0  0  0  0  0
    0.0952   -3.0376   -6.2656 H   0  0  0  0  0  0  0  0  0  0  0  0
   -0.2909   -1.4079   -4.4267 H   0  0  0  0  0  0  0  0  0  0  0  0
   -1.4696   -2.7232   -4.3741 H   0  0  0  0  0  0  0  0  0  0  0  0
    2.2013   -1.6432   -5.4018 N   0  0  0  0  0  0  0  0  0  0  0  0
    3.5412   -1.1062   -5.3558 C   0  0  0  0  0  0  0  0  0  0  0  0
    1.4466   -1.0129   -5.6565 H   0  0  0  0  0  0  0  0  0  0  0  0
    3.7494   -0.7248   -4.3452 H   0  0  0  0  0  0  0  0  0  0  0  0
    4.2624   -1.8987   -5.6042 H   0  0  0  0  0  0  0  0  0  0  0  0
    3.6326   -0.2861   -6.0831 H   0  0  0  0  0  0  0  0  0  0  0  0
   -6.7256    2.0330   -0.2766 C   0  0  0  0  0  0  0  0  0  0  0  0
   -7.1824    1.1039   -0.9322 O   0  0  0  0  0  0  0  0  0  0  0  0
   -7.5276    2.6077    0.8435 C   0  0  0  0  0  0  0  0  0  0  0  0
   -8.1775    3.4344    0.5145 H   0  0  0  0  0  0  0  0  0  0  0  0
   -8.2057    1.8676    1.2980 H   0  0  0  0  0  0  0  0  0  0  0  0
   -6.9411    3.0162    1.6819 H   0  0  0  0  0  0  0  0  0  0  0  0
   -5.4935    2.6382   -0.4627 N   0  0  0  0  0  0  0  0  0  0  0  0
   -4.5619    2.2388   -1.4845 C   0  0  2  0  0  0  0  0  0  0  0  0
   -3.1535    2.4674   -0.9521 C   0  0  0  0  0  0  0  0  0  0  0  0
   -2.8634    3.3945   -0.1987 O   0  0  0  0  0  0  0  0  0  0  0  0
   -4.7883    3.0138   -2.7732 C   0  0  0  0  0  0  0  0  0  0  0  0
   -5.2337    3.4049    0.1551 H   0  0  0  0  0  0  0  0  0  0  0  0
   -4.7192    1.1682   -1.6549 H   0  0  0  0  0  0  0  0  0  0  0  0
   -4.6352    4.0886   -2.6221 H   0  0  0  0  0  0  0  0  0  0  0  0
   -4.0976    2.6887   -3.5582 H   0  0  0  0  0  0  0  0  0  0  0  0
   -5.8111    2.8719   -3.1387 H   0  0  0  0  0  0  0  0  0  0  0  0
   -2.2466    1.5400   -1.4507 N   0  0  0  0  0  0  0  0  0  0  0  0
   -1.0863    1.1088   -0.7130 C   0  0  2  0  0  0  0  0  0  0  0  0
   -0.2058    2.3225   -0.4225 C   0  0  0  0  0  0  0  0  0  0  0  0
    0.2832    2.5458    0.6831 O   0  0  0  0  0  0  0  0  0  0  0  0
   -0.3397   -0.0288   -1.4141 C   0  0  0  0  0  0  0  0  0  0  0  0
   -1.2928   -1.5618   -1.5330 S   0  0  0  0  0  0  0  0  0  0  0  0
   -2.4210    1.1137   -2.3577 H   0  0  0  0  0  0  0  0  0  0  0  0
   -1.4680    0.7393    0.2470 H   0  0  0  0  0  0  0  0  0  0  0  0
   -0.0618    0.2638   -2.4319 H   0  0  0  0  0  0  0  0  0  0  0  0
    0.5842   -0.2584   -0.8723 H   0  0  0  0  0  0  0  0  0  0  0  0
   -0.0519    3.1376   -1.5349 N   0  0  0  0  0  0  0  0  0  0  0  0
    0.7170    4.3598   -1.5048 C   0  0  2  0  0  0  0  0  0  0  0  0
    0.0760    5.3427   -2.4756 C   0  0  0  0  0  0  0  0  0  0  0  0
   -0.4649    4.9947   -3.5232 O   0  0  0  0  0  0  0  0  0  0  0  0
    2.1719    4.1073   -1.8684 C   0  0  0  0  0  0  0  0  0  0  0  0
   -0.4564    2.8539   -2.4224 H   0  0  0  0  0  0  0  0  0  0  0  0
    0.6453    4.7534   -0.4850 H   0  0  0  0  0  0  0  0  0  0  0  0
    2.2637    3.7126   -2.8868 H   0  0  0  0  0  0  0  0  0  0  0  0
    2.7595    5.0299   -1.8173 H   0  0  0  0  0  0  0  0  0  0  0  0
    2.6229    3.3776   -1.1872 H   0  0  0  0  0  0  0  0  0  0  0  0
    0.2169    6.6580   -2.0556 N   0  0  0  0  0  0  0  0  0  0  0  0
   -0.2697    7.7787   -2.8259 C   0  0  0  0  0  0  0  0  0  0  0  0
    0.6436    6.8518   -1.1545 H   0  0  0  0  0  0  0  0  0  0  0  0
    0.5330    8.1514   -3.4792 H   0  0  0  0  0  0  0  0  0  0  0  0
   -1.1234    7.4578   -3.4408 H   0  0  0  0  0  0  0  0  0  0  0  0
   -0.5895    8.5806   -2.1443 H   0  0  0  0  0  0  0  0  0  0  0  0
  1  3  1  0  0  0  0
  1  7  1  0  0  0  0
  1  2  2  0  0  0  0
 23 25  1  0  0  0  0
 23 29  1  0  0  0  0
 23 24  2  0  0  0  0
 50 51  1  0  0  0  0
 51 59  1  0  0  0  0
 51 52  2  0  0  0  0
  8  9  1  0  0  0  0
  9 17  1  0  0  0  0
  9 10  2  0  0  0  0
 30 31  1  0  0  0  0
 31 39  1  0  0  0  0
 31 32  2  0  0  0  0
 40 41  1  0  0  0  0
 41 49  1  0  0  0  0
 41 42  2  0  0  0  0
 50 53  1  0  0  0  0
 30 33  1  0  0  0  0
 59 60  1  0  0  0  0
 17 18  1  0  0  0  0
  8 11  1  0  0  0  0
 11 12  1  0  0  0  0
 40 43  1  0  0  0  0
 43 44  1  0  0  0  0
 49 50  1  0  0  0  0
  7  8  1  0  0  0  0
 29 30  1  0  0  0  0
 39 40  1  0  0  0  0
 12 44  1  0  0  0  0
  3  4  1  0  0  0  0
  3  5  1  0  0  0  0
  3  6  1  0  0  0  0
 25 26  1  0  0  0  0
 25 27  1  0  0  0  0
 25 28  1  0  0  0  0
 53 56  1  0  0  0  0
 53 57  1  0  0  0  0
 53 58  1  0  0  0  0
 33 36  1  0  0  0  0
 33 37  1  0  0  0  0
 33 38  1  0  0  0  0
 60 62  1  0  0  0  0
 60 63  1  0  0  0  0
 60 64  1  0  0  0  0
 18 20  1  0  0  0  0
 18 21  1  0  0  0  0
 18 22  1  0  0  0  0
 11 15  1  0  0  0  0
 11 16  1  0  0  0  0
 43 47  1  0  0  0  0
 43 48  1  0  0  0  0
 50 55  1  0  0  0  0
  8 14  1  0  0  0  0
 30 35  1  0  0  0  0
 40 46  1  0  0  0  0
 59 61  1  0  0  0  0
 17 19  1  0  0  0  0
  7 13  1  0  0  0  0
 29 34  1  0  0  0  0
 49 54  1  0  0  0  0
 39 45  1  0  0  0  0
M  END
$$$$

  -OEChem-02062319033D

 64 63  0     1  0  0  0  0  0999 V2000
   -0.5500   -4.7360   -6.6355 C   0  0  0  0  0  0  0  0  0  0  0  0
   -1.1817   -4.0585   -7.4378 O   0  0  0  0  0  0  0  0  0  0  0  0
   -0.7342   -6.2172   -6.6172 C   0  0  0  0  0  0  0  0  0  0  0  0
   -1.5377   -6.5326   -5.9324 H   0  0  0  0  0  0  0  0  0  0  0  0
   -1.0185   -6.6178   -7.6036 H   0  0  0  0  0  0  0  0  0  0  0  0
    0.1508   -6.7985   -6.3128 H   0  0  0  0  0  0  0  0  0  0  0  0
    0.3577   -4.2661   -5.7022 N   0  0  0  0  0  0  0  0  0  0  0  0
    0.6862   -2.8712   -5.5507 C   0  0  2  0  0  0  0  0  0  0  0  0
    2.1608   -2.7486   -5.1723 C   0  0  0  0  0  0  0  0  0  0  0  0
    2.8725   -3.7208   -4.9282 O   0  0  0  0  0  0  0  0  0  0  0  0
   -0.2521   -2.1541   -4.5768 C   0  0  0  0  0  0  0  0  0  0  0  0
   -0.1677   -2.7922   -2.8714 S   0  0  0  0  0  0  0  0  0  0  0  0
    0.8161   -4.9394   -5.0924 H   0  0  0  0  0  0  0  0  0  0  0  0
    0.5623   -2.4294   -6.5473 H   0  0  0  0  0  0  0  0  0  0  0  0
   -0.0214   -1.0845   -4.5380 H   0  0  0  0  0  0  0  0  0  0  0  0
   -1.2891   -2.2564   -4.9142 H   0  0  0  0  0  0  0  0  0  0  0  0
    2.5799   -1.4270   -5.1153 N   0  0  0  0  0  0  0  0  0  0  0  0
    3.9272   -1.0519   -4.7548 C   0  0  0  0  0  0  0  0  0  0  0  0
    1.9352   -0.6864   -5.3751 H   0  0  0  0  0  0  0  0  0  0  0  0
    3.9785   -0.8626   -3.6724 H   0  0  0  0  0  0  0  0  0  0  0  0
    4.6174   -1.8672   -5.0173 H   0  0  0  0  0  0  0  0  0  0  0  0
    4.2123   -0.1402   -5.3003 H   0  0  0  0  0  0  0  0  0  0  0  0
   -6.7256    2.0330   -0.2766 C   0  0  0  0  0  0  0  0  0  0  0  0
   -7.1824    1.1039   -0.9322 O   0  0  0  0  0  0  0  0  0  0  0  0
   -7.5276    2.6077    0.8435 C   0  0  0  0  0  0  0  0  0  0  0  0
   -8.1775    3.4344    0.5145 H   0  0  0  0  0  0  0  0  0  0  0  0
   -8.2057    1.8676    1.2980 H   0  0  0  0  0  0  0  0  0  0  0  0
   -6.9411    3.0162    1.6819 H   0  0  0  0  0  0  0  0  0  0  0  0
   -5.4935    2.6382   -0.4627 N   0  0  0  0  0  0  0  0  0  0  0  0
   -4.5619    2.2388   -1.4845 C   0  0  2  0  0  0  0  0  0  0  0  0
   -3.1535    2.4674   -0.9521 C   0  0  0  0  0  0  0  0  0  0  0  0
   -2.8634    3.3945   -0.1987 O   0  0  0  0  0  0  0  0  0  0  0  0
   -4.7883    3.0138   -2.7732 C   0  0  0  0  0  0  0  0  0  0  0  0
   -5.2337    3.4049    0.1551 H   0  0  0  0  0  0  0  0  0  0  0  0
   -4.7192    1.1682   -1.6549 H   0  0  0  0  0  0  0  0  0  0  0  0
   -4.6352    4.0886   -2.6221 H   0  0  0  0  0  0  0  0  0  0  0  0
   -4.0976    2.6887   -3.5582 H   0  0  0  0  0  0  0  0  0  0  0  0
   -5.8111    2.8719   -3.1387 H   0  0  0  0  0  0  0  0  0  0  0  0
   -2.2466    1.5400   -1.4507 N   0  0  0  0  0  0  0  0  0  0  0  0
   -1.2760    0.8734   -0.6201 C   0  0  2  0  0  0  0  0  0  0  0  0
   -0.3705    1.9227    0.0218 C   0  0  0  0  0  0  0  0  0  0  0  0
   -0.0734    1.9113    1.2147 O   0  0  0  0  0  0  0  0  0  0  0  0
   -0.5061   -0.2104   -1.3788 C   0  0  0  0  0  0  0  0  0  0  0  0
   -1.5386   -1.5927   -1.9226 S   0  0  0  0  0  0  0  0  0  0  0  0
   -2.2870    1.2864   -2.4350 H   0  0  0  0  0  0  0  0  0  0  0  0
   -1.8525    0.3977    0.1831 H   0  0  0  0  0  0  0  0  0  0  0  0
   -0.0268    0.2103   -2.2687 H   0  0  0  0  0  0  0  0  0  0  0  0
    0.2839   -0.6222   -0.7415 H   0  0  0  0  0  0  0  0  0  0  0  0
    0.0451    2.8846   -0.8880 N   0  0  0  0  0  0  0  0  0  0  0  0
    0.8888    3.9960   -0.5157 C   0  0  2  0  0  0  0  0  0  0  0  0
    0.5125    5.1854   -1.3892 C   0  0  0  0  0  0  0  0  0  0  0  0
    0.1444    5.0706   -2.5564 O   0  0  0  0  0  0  0  0  0  0  0  0
    2.3613    3.6500   -0.6734 C   0  0  0  0  0  0  0  0  0  0  0  0
   -0.2133    2.7924   -1.8660 H   0  0  0  0  0  0  0  0  0  0  0  0
    0.6650    4.2260    0.5317 H   0  0  0  0  0  0  0  0  0  0  0  0
    2.6045    3.4166   -1.7164 H   0  0  0  0  0  0  0  0  0  0  0  0
    3.0001    4.4837   -0.3637 H   0  0  0  0  0  0  0  0  0  0  0  0
    2.6234    2.7761   -0.0674 H   0  0  0  0  0  0  0  0  0  0  0  0
    0.6774    6.3932   -0.7256 N   0  0  0  0  0  0  0  0  0  0  0  0
    0.4270    7.6689   -1.3547 C   0  0  0  0  0  0  0  0  0  0  0  0
    0.9479    6.3925    0.2534 H   0  0  0  0  0  0  0  0  0  0  0  0
    1.3611    8.0531   -1.7904 H   0  0  0  0  0  0  0  0  0  0  0  0
   -0.3240    7.5449   -2.1489 H   0  0  0  0  0  0  0  0  0  0  0  0
    0.0527    8.3806   -0.6041 H   0  0  0  0  0  0  0  0  0  0  0  0
  1  3  1  0  0  0  0
  1  7  1  0  0  0  0
  1  2  2  0  0  0  0
 23 25  1  0  0  0  0
 23 29  1  0  0  0  0
 23 24  2  0  0  0  0
 50 51  1  0  0  0  0
 51 59  1  0  0  0  0
 51 52  2  0  0  0  0
  8  9  1  0  0  0  0
  9 17  1  0  0  0  0
  9 10  2  0  0  0  0
 30 31  1  0  0  0  0
 31 39  1  0  0  0  0
 31 32  2  0  0  0  0
 40 41  1  0  0  0  0
 41 49  1  0  0  0  0
 41 42  2  0  0  0  0
 50 53  1  0  0  0  0
 30 33  1  0  0  0  0
 59 60  1  0  0  0  0
 17 18  1  0  0  0  0
  8 11  1  0  0  0  0
 11 12  1  0  0  0  0
 40 43  1  0  0  0  0
 43 44  1  0  0  0  0
 49 50  1  0  0  0  0
  7  8  1  0  0  0  0
 29 30  1  0  0  0  0
 39 40  1  0  0  0  0
 12 44  1  0  0  0  0
  3  4  1  0  0  0  0
  3  5  1  0  0  0  0
  3  6  1  0  0  0  0
 25 26  1  0  0  0  0
 25 27  1  0  0  0  0
 25 28  1  0  0  0  0
 53 56  1  0  0  0  0
 53 57  1  0  0  0  0
 53 58  1  0  0  0  0
 33 36  1  0  0  0  0
 33 37  1  0  0  0  0
 33 38  1  0  0  0  0
 60 62  1  0  0  0  0
 60 63  1  0  0  0  0
 60 64  1  0  0  0  0
 18 20  1  0  0  0  0
 18 21  1  0  0  0  0
 18 22  1  0  0  0  0
 11 15  1  0  0  0  0
 11 16  1  0  0  0  0
 43 47  1  0  0  0  0
 43 48  1  0  0  0  0
 50 55  1  0  0  0  0
  8 14  1  0  0  0  0
 30 35  1  0  0  0  0
 40 46  1  0  0  0  0
 59 61  1  0  0  0  0
 17 19  1  0  0  0  0
  7 13  1  0  0  0  0
 29 34  1  0  0  0  0
 49 54  1  0  0  0  0
 39 45  1  0  0  0  0
M  END
$$$$

  -OEChem-02062319033D

 64 63  0     1  0  0  0  0  0999 V2000
   -0.1360   -3.9667   -7.3133 C   0  0  0  0  0  0  0  0  0  0  0  0
   -0.5575   -3.1050   -8.0759 O   0  0  0  0  0  0  0  0  0  0  0  0
   -0.4355   -5.4031   -7.5881 C   0  0  0  0  0  0  0  0  0  0  0  0
   -1.3716   -5.7360   -7.1118 H   0  0  0  0  0  0  0  0  0  0  0  0
   -0.5671   -5.6069   -8.6629 H   0  0  0  0  0  0  0  0  0  0  0  0
    0.3319   -6.1176   -7.2498 H   0  0  0  0  0  0  0  0  0  0  0  0
    0.6220   -3.7535   -6.1749 N   0  0  0  0  0  0  0  0  0  0  0  0
    1.0255   -2.4447   -5.7269 C   0  0  2  0  0  0  0  0  0  0  0  0
    2.4125   -2.5441   -5.0950 C   0  0  0  0  0  0  0  0  0  0  0  0
    2.9903   -3.6138   -4.9130 O   0  0  0  0  0  0  0  0  0  0  0  0
   -0.0144   -1.7966   -4.8095 C   0  0  0  0  0  0  0  0  0  0  0  0
   -0.2897   -2.7058   -3.2538 S   0  0  0  0  0  0  0  0  0  0  0  0
    0.9087   -4.5615   -5.6269 H   0  0  0  0  0  0  0  0  0  0  0  0
    1.1187   -1.8377   -6.6360 H   0  0  0  0  0  0  0  0  0  0  0  0
    0.2882   -0.7783   -4.5444 H   0  0  0  0  0  0  0  0  0  0  0  0
   -0.9782   -1.7311   -5.3258 H   0  0  0  0  0  0  0  0  0  0  0  0
    2.9162   -1.3017   -4.7366 N   0  0  0  0  0  0  0  0  0  0  0  0
    4.2013   -1.1368   -4.0984 C   0  0  0  0  0  0  0  0  0  0  0  0
    2.3889   -0.4639   -4.9638 H   0  0  0  0  0  0  0  0  0  0  0  0
    4.0707   -1.1305   -3.0062 H   0  0  0  0  0  0  0  0  0  0  0  0
    4.8618   -1.9688   -4.3838 H   0  0  0  0  0  0  0  0  0  0  0  0
    4.6505   -0.1854   -4.4193 H   0  0  0  0  0  0  0  0  0  0  0  0
   -6.7256    2.0330   -0.2766 C   0  0  0  0  0  0  0  0  0  0  0  0
   -7.1824    1.1039   -0.9322 O   0  0  0  0  0  0  0  0  0  0  0  0
   -7.5276    2.6077    0.8435 C   0  0  0  0  0  0  0  0  0  0  0  0
   -8.1775    3.4344    0.5145 H   0  0  0  0  0  0  0  0  0  0  0  0
   -8.2057    1.8676    1.2980 H   0  0  0  0  0  0  0  0  0  0  0  0
   -6.9411    3.0162    1.6819 H   0  0  0  0  0  0  0  0  0  0  0  0
   -5.4935    2.6382   -0.4627 N   0  0  0  0  0  0  0  0  0  0  0  0
   -4.5619    2.2388   -1.4845 C   0  0  2  0  0  0  0  0  0  0  0  0
   -3.1535    2.4674   -0.9521 C   0  0  0  0  0  0  0  0  0  0  0  0
   -2.8634    3.3945   -0.1987 O   0  0  0  0  0  0  0  0  0  0  0  0
   -4.7883    3.0138   -2.7732 C   0  0  0  0  0  0  0  0  0  0  0  0
   -5.2337    3.4049    0.1551 H   0  0  0  0  0  0  0  0  0  0  0  0
   -4.7192    1.1682   -1.6549 H   0  0  0  0  0  0  0  0  0  0  0  0
   -4.6352    4.0886   -2.6221 H   0  0  0  0  0  0  0  0  0  0  0  0
   -4.0976    2.6887   -3.5582 H   0  0  0  0  0  0  0  0  0  0  0  0
   -5.8111    2.8719   -3.1387 H   0  0  0  0  0  0  0  0  0  0  0  0
   -2.2466    1.5400   -1.4507 N   0  0  0  0  0  0  0  0  0  0  0  0
   -1.4971    0.6479   -0.6028 C   0  0  2  0  0  0  0  0  0  0  0  0
   -0.6434    1.4767    0.3549 C   0  0  0  0  0  0  0  0  0  0  0  0
   -0.5686    1.2418    1.5593 O   0  0  0  0  0  0  0  0  0  0  0  0
   -0.6897   -0.3763   -1.4040 C   0  0  0  0  0  0  0  0  0  0  0  0
   -1.7116   -1.5339   -2.3466 S   0  0  0  0  0  0  0  0  0  0  0  0
   -2.1281    1.4537   -2.4574 H   0  0  0  0  0  0  0  0  0  0  0  0
   -2.2445    0.1143   -0.0027 H   0  0  0  0  0  0  0  0  0  0  0  0
   -0.0261    0.1278   -2.1142 H   0  0  0  0  0  0  0  0  0  0  0  0
   -0.0624   -0.9679   -0.7285 H   0  0  0  0  0  0  0  0  0  0  0  0
    0.0035    2.5219   -0.2890 N   0  0  0  0  0  0  0  0  0  0  0  0
    0.8501    3.4616    0.4080 C   0  0  2  0  0  0  0  0  0  0  0  0
    0.7318    4.8095   -0.2910 C   0  0  0  0  0  0  0  0  0  0  0  0
    0.5729    4.9241   -1.5045 O   0  0  0  0  0  0  0  0  0  0  0  0
    2.2953    2.9889    0.4363 C   0  0  0  0  0  0  0  0  0  0  0  0
   -0.0803    2.6165   -1.2969 H   0  0  0  0  0  0  0  0  0  0  0  0
    0.4593    3.5430    1.4282 H   0  0  0  0  0  0  0  0  0  0  0  0
    2.7041    2.9013   -0.5770 H   0  0  0  0  0  0  0  0  0  0  0  0
    2.9307    3.6882    0.9897 H   0  0  0  0  0  0  0  0  0  0  0  0
    2.3746    2.0058    0.9128 H   0  0  0  0  0  0  0  0  0  0  0  0
    0.8678    5.8700    0.5939 N   0  0  0  0  0  0  0  0  0  0  0  0
    0.8355    7.2497    0.1681 C   0  0  0  0  0  0  0  0  0  0  0  0
    0.9561    5.6828    1.5883 H   0  0  0  0  0  0  0  0  0  0  0  0
    1.8601    7.5961   -0.0328 H   0  0  0  0  0  0  0  0  0  0  0  0
    0.2331    7.3365   -0.7482 H   0  0  0  0  0  0  0  0  0  0  0  0
    0.3885    7.8676    0.9608 H   0  0  0  0  0  0  0  0  0  0  0  0
  1  3  1  0  0  0  0
  1  7  1  0  0  0  0
  1  2  2  0  0  0  0
 23 25  1  0  0  0  0
 23 29  1  0  0  0  0
 23 24  2  0  0  0  0
 50 51  1  0  0  0  0
 51 59  1  0  0  0  0
 51 52  2  0  0  0  0
  8  9  1  0  0  0  0
  9 17  1  0  0  0  0
  9 10  2  0  0  0  0
 30 31  1  0  0  0  0
 31 39  1  0  0  0  0
 31 32  2  0  0  0  0
 40 41  1  0  0  0  0
 41 49  1  0  0  0  0
 41 42  2  0  0  0  0
 50 53  1  0  0  0  0
 30 33  1  0  0  0  0
 59 60  1  0  0  0  0
 17 18  1  0  0  0  0
  8 11  1  0  0  0  0
 11 12  1  0  0  0  0
 40 43  1  0  0  0  0
 43 44  1  0  0  0  0
 49 50  1  0  0  0  0
  7  8  1  0  0  0  0
 29 30  1  0  0  0  0
 39 40  1  0  0  0  0
 12 44  1  0  0  0  0
  3  4  1  0  0  0  0
  3  5  1  0  0  0  0
  3  6  1  0  0  0  0
 25 26  1  0  0  0  0
 25 27  1  0  0  0  0
 25 28  1  0  0  0  0
 53 56  1  0  0  0  0
 53 57  1  0  0  0  0
 53 58  1  0  0  0  0
 33 36  1  0  0  0  0
 33 37  1  0  0  0  0
 33 38  1  0  0  0  0
 60 62  1  0  0  0  0
 60 63  1  0  0  0  0
 60 64  1  0  0  0  0
 18 20  1  0  0  0  0
 18 21  1  0  0  0  0
 18 22  1  0  0  0  0
 11 15  1  0  0  0  0
 11 16  1  0  0  0  0
 43 47  1  0  0  0  0
 43 48  1  0  0  0  0
 50 55  1  0  0  0  0
  8 14  1  0  0  0  0
 30 35  1  0  0  0  0
 40 46  1  0  0  0  0
 59 61  1  0  0  0  0
 17 19  1  0  0  0  0
  7 13  1  0  0  0  0
 29 34  1  0  0  0  0
 49 54  1  0  0  0  0
 39 45  1  0  0  0  0
M  END
$$$$

  -OEChem-02062319033D

 64 63  0     1  0  0  0  0  0999 V2000
    0.4525   -3.1477   -7.7665 C   0  0  0  0  0  0  0  0  0  0  0  0
    0.2443   -2.1343   -8.4233 O   0  0  0  0  0  0  0  0  0  0  0  0
    0.0965   -4.4804   -8.3368 C   0  0  0  0  0  0  0  0  0  0  0  0
   -0.9334   -4.7828   -8.0879 H   0  0  0  0  0  0  0  0  0  0  0  0
    0.1457   -4.4935   -9.4375 H   0  0  0  0  0  0  0  0  0  0  0  0
    0.7319   -5.3185   -8.0086 H   0  0  0  0  0  0  0  0  0  0  0  0
    1.0066   -3.2031   -6.4993 N   0  0  0  0  0  0  0  0  0  0  0  0
    1.4234   -2.0345   -5.7663 C   0  0  2  0  0  0  0  0  0  0  0  0
    2.6612   -2.3829   -4.9423 C   0  0  0  0  0  0  0  0  0  0  0  0
    3.1114   -3.5240   -4.8599 O   0  0  0  0  0  0  0  0  0  0  0  0
    0.2886   -1.4341   -4.9327 C   0  0  0  0  0  0  0  0  0  0  0  0
   -0.3334   -2.5466   -3.6296 S   0  0  0  0  0  0  0  0  0  0  0  0
    1.1256   -4.1148   -6.0633 H   0  0  0  0  0  0  0  0  0  0  0  0
    1.7263   -1.3029   -6.5257 H   0  0  0  0  0  0  0  0  0  0  0  0
    0.6168   -0.5103   -4.4454 H   0  0  0  0  0  0  0  0  0  0  0  0
   -0.5580   -1.1830   -5.5809 H   0  0  0  0  0  0  0  0  0  0  0  0
    3.1873   -1.2759   -4.2916 N   0  0  0  0  0  0  0  0  0  0  0  0
    4.3447   -1.3551   -3.4314 C   0  0  0  0  0  0  0  0  0  0  0  0
    2.7767   -0.3606   -4.4506 H   0  0  0  0  0  0  0  0  0  0  0  0
    4.0198   -1.5104   -2.3921 H   0  0  0  0  0  0  0  0  0  0  0  0
    4.9790   -2.1967   -3.7469 H   0  0  0  0  0  0  0  0  0  0  0  0
    4.9174   -0.4184   -3.5004 H   0  0  0  0  0  0  0  0  0  0  0  0
   -6.7256    2.0330   -0.2766 C   0  0  0  0  0  0  0  0  0  0  0  0
   -7.1824    1.1039   -0.9322 O   0  0  0  0  0  0  0  0  0  0  0  0
   -7.5276    2.6077    0.8435 C   0  0  0  0  0  0  0  0  0  0  0  0
   -8.1775    3.4344    0.5145 H   0  0  0  0  0  0  0  0  0  0  0  0
   -8.2057    1.8676    1.2980 H   0  0  0  0  0  0  0  0  0  0  0  0
   -6.9411    3.0162    1.6819 H   0  0  0  0  0  0  0  0  0  0  0  0
   -5.4935    2.6382   -0.4627 N   0  0  0  0  0  0  0  0  0  0  0  0
   -4.5619    2.2388   -1.4845 C   0  0  2  0  0  0  0  0  0  0  0  0
   -3.1535    2.4674   -0.9521 C   0  0  0  0  0  0  0  0  0  0  0  0
   -2.8634    3.3945   -0.1987 O   0  0  0  0  0  0  0  0  0  0  0  0
   -4.7883    3.0138   -2.7732 C   0  0  0  0  0  0  0  0  0  0  0  0
   -5.2337    3.4049    0.1551 H   0  0  0  0  0  0  0  0  0  0  0  0
   -4.7192    1.1682   -1.6549 H   0  0  0  0  0  0  0  0  0  0  0  0
   -4.6352    4.0886   -2.6221 H   0  0  0  0  0  0  0  0  0  0  0  0
   -4.0976    2.6887   -3.5582 H   0  0  0  0  0  0  0  0  0  0  0  0
   -5.8111    2.8719   -3.1387 H   0  0  0  0  0  0  0  0  0  0  0  0
   -2.2466    1.5400   -1.4507 N   0  0  0  0  0  0  0  0  0  0  0  0
   -1.7346    0.4478   -0.6624 C   0  0  2  0  0  0  0  0  0  0  0  0
   -1.0060    1.0150    0.5542 C   0  0  0  0  0  0  0  0  0  0  0  0
   -1.1687    0.5829    1.6936 O   0  0  0  0  0  0  0  0  0  0  0  0
   -0.8781   -0.5153   -1.4882 C   0  0  0  0  0  0  0  0  0  0  0  0
   -1.8000   -1.3894   -2.7761 S   0  0  0  0  0  0  0  0  0  0  0  0
   -1.9552    1.6044   -2.4232 H   0  0  0  0  0  0  0  0  0  0  0  0
   -2.6175   -0.0918   -0.2978 H   0  0  0  0  0  0  0  0  0  0  0  0
   -0.0599    0.0220   -1.9787 H   0  0  0  0  0  0  0  0  0  0  0  0
   -0.4314   -1.2719   -0.8341 H   0  0  0  0  0  0  0  0  0  0  0  0
   -0.1739    2.0742    0.2210 N   0  0  0  0  0  0  0  0  0  0  0  0
    0.6036    2.7930    1.2033 C   0  0  2  0  0  0  0  0  0  0  0  0
    0.7191    4.2405    0.7442 C   0  0  0  0  0  0  0  0  0  0  0  0
    0.7915    4.5651   -0.4392 O   0  0  0  0  0  0  0  0  0  0  0  0
    1.9785    2.1690    1.3851 C   0  0  0  0  0  0  0  0  0  0  0  0
   -0.0665    2.3381   -0.7539 H   0  0  0  0  0  0  0  0  0  0  0  0
    0.0424    2.7510    2.1432 H   0  0  0  0  0  0  0  0  0  0  0  0
    2.5555    2.2019    0.4538 H   0  0  0  0  0  0  0  0  0  0  0  0
    2.5560    2.6978    2.1506 H   0  0  0  0  0  0  0  0  0  0  0  0
    1.8934    1.1194    1.6865 H   0  0  0  0  0  0  0  0  0  0  0  0
    0.7752    5.1241    1.8129 N   0  0  0  0  0  0  0  0  0  0  0  0
    0.9282    6.5496    1.6387 C   0  0  0  0  0  0  0  0  0  0  0  0
    0.6675    4.7711    2.7593 H   0  0  0  0  0  0  0  0  0  0  0  0
    1.9961    6.8114    1.6740 H   0  0  0  0  0  0  0  0  0  0  0  0
    0.5099    6.8470    0.6658 H   0  0  0  0  0  0  0  0  0  0  0  0
    0.3949    7.0766    2.4437 H   0  0  0  0  0  0  0  0  0  0  0  0
  1  3  1  0  0  0  0
  1  7  1  0  0  0  0
  1  2  2  0  0  0  0
 23 25  1  0  0  0  0
 23 29  1  0  0  0  0
 23 24  2  0  0  0  0
 50 51  1  0  0  0  0
 51 59  1  0  0  0  0
 51 52  2  0  0  0  0
  8  9  1  0  0  0  0
  9 17  1  0  0  0  0
  9 10  2  0  0  0  0
 30 31  1  0  0  0  0
 31 39  1  0  0  0  0
 31 32  2  0  0  0  0
 40 41  1  0  0  0  0
 41 49  1  0  0  0  0
 41 42  2  0  0  0  0
 50 53  1  0  0  0  0
 30 33  1  0  0  0  0
 59 60  1  0  0  0  0
 17 18  1  0  0  0  0
  8 11  1  0  0  0  0
 11 12  1  0  0  0  0
 40 43  1  0  0  0  0
 43 44  1  0  0  0  0
 49 50  1  0  0  0  0
  7  8  1  0  0  0  0
 29 30  1  0  0  0  0
 39 40  1  0  0  0  0
 12 44  1  0  0  0  0
  3  4  1  0  0  0  0
  3  5  1  0  0  0  0
  3  6  1  0  0  0  0
 25 26  1  0  0  0  0
 25 27  1  0  0  0  0
 25 28  1  0  0  0  0
 53 56  1  0  0  0  0
 53 57  1  0  0  0  0
 53 58  1  0  0  0  0
 33 36  1  0  0  0  0
 33 37  1  0  0  0  0
 33 38  1  0  0  0  0
 60 62  1  0  0  0  0
 60 63  1  0  0  0  0
 60 64  1  0  0  0  0
 18 20  1  0  0  0  0
 18 21  1  0  0  0  0
 18 22  1  0  0  0  0
 11 15  1  0  0  0  0
 11 16  1  0  0  0  0
 43 47  1  0  0  0  0
 43 48  1  0  0  0  0
 50 55  1  0  0  0  0
  8 14  1  0  0  0  0
 30 35  1  0  0  0  0
 40 46  1  0  0  0  0
 59 61  1  0  0  0  0
 17 19  1  0  0  0  0
  7 13  1  0  0  0  0
 29 34  1  0  0  0  0
 49 54  1  0  0  0  0
 39 45  1  0  0  0  0
M  END
$$$$

  -OEChem-02062319033D

 64 63  0     1  0  0  0  0  0999 V2000
    1.1753   -2.3346   -7.9643 C   0  0  0  0  0  0  0  0  0  0  0  0
    1.1689   -1.2124   -8.4565 O   0  0  0  0  0  0  0  0  0  0  0  0
    0.8253   -3.5122   -8.8123 C   0  0  0  0  0  0  0  0  0  0  0  0
   -0.2530   -3.7380   -8.7940 H   0  0  0  0  0  0  0  0  0  0  0  0
    1.0714   -3.3534   -9.8745 H   0  0  0  0  0  0  0  0  0  0  0  0
    1.3236   -4.4556   -8.5376 H   0  0  0  0  0  0  0  0  0  0  0  0
    1.4852   -2.6523   -6.6532 N   0  0  0  0  0  0  0  0  0  0  0  0
    1.8525   -1.6685   -5.6664 C   0  0  2  0  0  0  0  0  0  0  0  0
    2.8901   -2.2762   -4.7246 C   0  0  0  0  0  0  0  0  0  0  0  0
    3.2275   -3.4574   -4.7726 O   0  0  0  0  0  0  0  0  0  0  0  0
    0.6361   -1.0913   -4.9383 C   0  0  0  0  0  0  0  0  0  0  0  0
   -0.2959   -2.3252   -3.9733 S   0  0  0  0  0  0  0  0  0  0  0  0
    1.4520   -3.6297   -6.3720 H   0  0  0  0  0  0  0  0  0  0  0  0
    2.3439   -0.8613   -6.2238 H   0  0  0  0  0  0  0  0  0  0  0  0
    0.9420   -0.2986   -4.2478 H   0  0  0  0  0  0  0  0  0  0  0  0
   -0.0571   -0.6495   -5.6622 H   0  0  0  0  0  0  0  0  0  0  0  0
    3.3747   -1.3514   -3.8106 N   0  0  0  0  0  0  0  0  0  0  0  0
    4.3478   -1.6920   -2.7993 C   0  0  0  0  0  0  0  0  0  0  0  0
    3.0722   -0.3836   -3.8704 H   0  0  0  0  0  0  0  0  0  0  0  0
    3.8293   -1.9764   -1.8718 H   0  0  0  0  0  0  0  0  0  0  0  0
    4.9610   -2.5352   -3.1498 H   0  0  0  0  0  0  0  0  0  0  0  0
    4.9948   -0.8236   -2.6059 H   0  0  0  0  0  0  0  0  0  0  0  0
   -6.7256    2.0330   -0.2766 C   0  0  0  0  0  0  0  0  0  0  0  0
   -7.1824    1.1039   -0.9322 O   0  0  0  0  0  0  0  0  0  0  0  0
   -7.5276    2.6077    0.8435 C   0  0  0  0  0  0  0  0  0  0  0  0
   -8.1775    3.4344    0.5145 H   0  0  0  0  0  0  0  0  0  0  0  0
   -8.2057    1.8676    1.2980 H   0  0  0  0  0  0  0  0  0  0  0  0
   -6.9411    3.0162    1.6819 H   0  0  0  0  0  0  0  0  0  0  0  0
   -5.4935    2.6382   -0.4627 N   0  0  0  0  0  0  0  0  0  0  0  0
   -4.5619    2.2388   -1.4845 C   0  0  2  0  0  0  0  0  0  0  0  0
   -3.1535    2.4674   -0.9521 C   0  0  0  0  0  0  0  0  0  0  0  0
   -2.8634    3.3945   -0.1987 O   0  0  0  0  0  0  0  0  0  0  0  0
   -4.7883    3.0138   -2.7732 C   0  0  0  0  0  0  0  0  0  0  0  0
   -5.2337    3.4049    0.1551 H   0  0  0  0  0  0  0  0  0  0  0  0
   -4.7192    1.1682   -1.6549 H   0  0  0  0  0  0  0  0  0  0  0  0
   -4.6352    4.0886   -2.6221 H   0  0  0  0  0  0  0  0  0  0  0  0
   -4.0976    2.6887   -3.5582 H   0  0  0  0  0  0  0  0  0  0  0  0
   -5.8111    2.8719   -3.1387 H   0  0  0  0  0  0  0  0  0  0  0  0
   -2.2466    1.5400   -1.4507 N   0  0  0  0  0  0  0  0  0  0  0  0
   -1.9723    0.2866   -0.7949 C   0  0  2  0  0  0  0  0  0  0  0  0
   -1.4336    0.5690    0.6061 C   0  0  0  0  0  0  0  0  0  0  0  0
   -1.8327   -0.0205    1.6084 O   0  0  0  0  0  0  0  0  0  0  0  0
   -1.0585   -0.6179   -1.6255 C   0  0  0  0  0  0  0  0  0  0  0  0
   -1.7978   -1.1691   -3.1819 S   0  0  0  0  0  0  0  0  0  0  0  0
   -1.7802    1.7281   -2.3349 H   0  0  0  0  0  0  0  0  0  0  0  0
   -2.9459   -0.2063   -0.6820 H   0  0  0  0  0  0  0  0  0  0  0  0
   -0.1257   -0.1000   -1.8715 H   0  0  0  0  0  0  0  0  0  0  0  0
   -0.7977   -1.5134   -1.0512 H   0  0  0  0  0  0  0  0  0  0  0  0
   -0.4748    1.5722    0.6075 N   0  0  0  0  0  0  0  0  0  0  0  0
    0.1660    2.0357    1.8159 C   0  0  2  0  0  0  0  0  0  0  0  0
    0.4751    3.5172    1.6458 C   0  0  0  0  0  0  0  0  0  0  0  0
    0.7853    4.0182    0.5669 O   0  0  0  0  0  0  0  0  0  0  0  0
    1.4325    1.2463    2.1084 C   0  0  0  0  0  0  0  0  0  0  0  0
   -0.1728    1.9762   -0.2741 H   0  0  0  0  0  0  0  0  0  0  0  0
   -0.5573    1.9039    2.6280 H   0  0  0  0  0  0  0  0  0  0  0  0
    2.1691    1.3661    1.3056 H   0  0  0  0  0  0  0  0  0  0  0  0
    1.9016    1.5797    3.0399 H   0  0  0  0  0  0  0  0  0  0  0  0
    1.2127    0.1772    2.2010 H   0  0  0  0  0  0  0  0  0  0  0  0
    0.4060    4.2063    2.8485 N   0  0  0  0  0  0  0  0  0  0  0  0
    0.6987    5.6164    2.9571 C   0  0  0  0  0  0  0  0  0  0  0  0
    0.1018    3.7195    3.6865 H   0  0  0  0  0  0  0  0  0  0  0  0
    1.7597    5.7525    3.2136 H   0  0  0  0  0  0  0  0  0  0  0  0
    0.4876    6.1096    1.9968 H   0  0  0  0  0  0  0  0  0  0  0  0
    0.0715    6.0615    3.7436 H   0  0  0  0  0  0  0  0  0  0  0  0
  1  3  1  0  0  0  0
  1  7  1  0  0  0  0
  1  2  2  0  0  0  0
 23 25  1  0  0  0  0
 23 29  1  0  0  0  0
 23 24  2  0  0  0  0
 50 51  1  0  0  0  0
 51 59  1  0  0  0  0
 51 52  2  0  0  0  0
  8  9  1  0  0  0  0
  9 17  1  0  0  0  0
  9 10  2  0  0  0  0
 30 31  1  0  0  0  0
 31 39  1  0  0  0  0
 31 32  2  0  0  0  0
 40 41  1  0  0  0  0
 41 49  1  0  0  0  0
 41 42  2  0  0  0  0
 50 53  1  0  0  0  0
 30 33  1  0  0  0  0
 59 60  1  0  0  0  0
 17 18  1  0  0  0  0
  8 11  1  0  0  0  0
 11 12  1  0  0  0  0
 40 43  1  0  0  0  0
 43 44  1  0  0  0  0
 49 50  1  0  0  0  0
  7  8  1  0  0  0  0
 29 30  1  0  0  0  0
 39 40  1  0  0  0  0
 12 44  1  0  0  0  0
  3  4  1  0  0  0  0
  3  5  1  0  0  0  0
  3  6  1  0  0  0  0
 25 26  1  0  0  0  0
 25 27  1  0  0  0  0
 25 28  1  0  0  0  0
 53 56  1  0  0  0  0
 53 57  1  0  0  0  0
 53 58  1  0  0  0  0
 33 36  1  0  0  0  0
 33 37  1  0  0  0  0
 33 38  1  0  0  0  0
 60 62  1  0  0  0  0
 60 63  1  0  0  0  0
 60 64  1  0  0  0  0
 18 20  1  0  0  0  0
 18 21  1  0  0  0  0
 18 22  1  0  0  0  0
 11 15  1  0  0  0  0
 11 16  1  0  0  0  0
 43 47  1  0  0  0  0
 43 48  1  0  0  0  0
 50 55  1  0  0  0  0
  8 14  1  0  0  0  0
 30 35  1  0  0  0  0
 40 46  1  0  0  0  0
 59 61  1  0  0  0  0
 17 19  1  0  0  0  0
  7 13  1  0  0  0  0
 29 34  1  0  0  0  0
 49 54  1  0  0  0  0
 39 45  1  0  0  0  0
M  END
$$$$

  -OEChem-02062319033D

 64 63  0     1  0  0  0  0  0999 V2000
    1.9831   -1.5830   -7.8932 C   0  0  0  0  0  0  0  0  0  0  0  0
    2.1534   -0.4021   -8.1731 O   0  0  0  0  0  0  0  0  0  0  0  0
    1.7013   -2.5643   -8.9822 C   0  0  0  0  0  0  0  0  0  0  0  0
    0.6232   -2.6726   -9.1820 H   0  0  0  0  0  0  0  0  0  0  0  0
    2.1470   -2.2642   -9.9442 H   0  0  0  0  0  0  0  0  0  0  0  0
    2.0666   -3.5877   -8.8005 H   0  0  0  0  0  0  0  0  0  0  0  0
    2.0252   -2.1388   -6.6262 N   0  0  0  0  0  0  0  0  0  0  0  0
    2.2838   -1.3718   -5.4340 C   0  0  2  0  0  0  0  0  0  0  0  0
    3.0834   -2.2311   -4.4568 C   0  0  0  0  0  0  0  0  0  0  0  0
    3.3308   -3.4186   -4.6569 O   0  0  0  0  0  0  0  0  0  0  0  0
    1.0047   -0.7915   -4.8257 C   0  0  0  0  0  0  0  0  0  0  0  0
   -0.1798   -2.0568   -4.2613 S   0  0  0  0  0  0  0  0  0  0  0  0
    1.8656   -3.1394   -6.5319 H   0  0  0  0  0  0  0  0  0  0  0  0
    2.9293   -0.5432   -5.7510 H   0  0  0  0  0  0  0  0  0  0  0  0
    1.2416   -0.1577   -3.9649 H   0  0  0  0  0  0  0  0  0  0  0  0
    0.4903   -0.1671   -5.5641 H   0  0  0  0  0  0  0  0  0  0  0  0
    3.4656   -1.5229   -3.3263 N   0  0  0  0  0  0  0  0  0  0  0  0
    4.2103   -2.1244   -2.2450 C   0  0  0  0  0  0  0  0  0  0  0  0
    3.2554   -0.5312   -3.2629 H   0  0  0  0  0  0  0  0  0  0  0  0
    3.5122   -2.4967   -1.4808 H   0  0  0  0  0  0  0  0  0  0  0  0
    4.8091   -2.9614   -2.6334 H   0  0  0  0  0  0  0  0  0  0  0  0
    4.8775   -1.3732   -1.7971 H   0  0  0  0  0  0  0  0  0  0  0  0
   -6.7256    2.0330   -0.2766 C   0  0  0  0  0  0  0  0  0  0  0  0
   -7.1824    1.1039   -0.9322 O   0  0  0  0  0  0  0  0  0  0  0  0
   -7.5276    2.6077    0.8435 C   0  0  0  0  0  0  0  0  0  0  0  0
   -8.1775    3.4344    0.5145 H   0  0  0  0  0  0  0  0  0  0  0  0
   -8.2057    1.8676    1.2980 H   0  0  0  0  0  0  0  0  0  0  0  0
   -6.9411    3.0162    1.6819 H   0  0  0  0  0  0  0  0  0  0  0  0
   -5.4935    2.6382   -0.4627 N   0  0  0  0  0  0  0  0  0  0  0  0
   -4.5619    2.2388   -1.4845 C   0  0  2  0  0  0  0  0  0  0  0  0
   -3.1535    2.4674   -0.9521 C   0  0  0  0  0  0  0  0  0  0  0  0
   -2.8634    3.3945   -0.1987 O   0  0  0  0  0  0  0  0  0  0  0  0
   -4.7883    3.0138   -2.7732 C   0  0  0  0  0  0  0  0  0  0  0  0
   -5.2337    3.4049    0.1551 H   0  0  0  0  0  0  0  0  0  0  0  0
   -4.7192    1.1682   -1.6549 H   0  0  0  0  0  0  0  0  0  0  0  0
   -4.6352    4.0886   -2.6221 H   0  0  0  0  0  0  0  0  0  0  0  0
   -4.0976    2.6887   -3.5582 H   0  0  0  0  0  0  0  0  0  0  0  0
   -5.8111    2.8719   -3.1387 H   0  0  0  0  0  0  0  0  0  0  0  0
   -2.2466    1.5400   -1.4507 N   0  0  0  0  0  0  0  0  0  0  0  0
   -2.1939    0.1753   -0.9910 C   0  0  2  0  0  0  0  0  0  0  0  0
   -1.8970    0.1692    0.5071 C   0  0  0  0  0  0  0  0  0  0  0  0
   -2.5154   -0.5273    1.3095 O   0  0  0  0  0  0  0  0  0  0  0  0
   -1.2185   -0.6769   -1.8067 C   0  0  0  0  0  0  0  0  0  0  0  0
   -1.7052   -0.8880   -3.5362 S   0  0  0  0  0  0  0  0  0  0  0  0
   -1.6148    1.8164   -2.1985 H   0  0  0  0  0  0  0  0  0  0  0  0
   -3.2074   -0.2215   -1.1293 H   0  0  0  0  0  0  0  0  0  0  0  0
   -0.2191   -0.2298   -1.7999 H   0  0  0  0  0  0  0  0  0  0  0  0
   -1.1365   -1.6759   -1.3650 H   0  0  0  0  0  0  0  0  0  0  0  0
   -0.8789    1.0499    0.8440 N   0  0  0  0  0  0  0  0  0  0  0  0
   -0.4329    1.2414    2.2042 C   0  0  2  0  0  0  0  0  0  0  0  0
    0.0166    2.6890    2.3524 C   0  0  0  0  0  0  0  0  0  0  0  0
    0.5548    3.3205    1.4453 O   0  0  0  0  0  0  0  0  0  0  0  0
    0.6944    0.2835    2.5569 C   0  0  0  0  0  0  0  0  0  0  0  0
   -0.3919    1.5555    0.1099 H   0  0  0  0  0  0  0  0  0  0  0  0
   -1.2990    1.0595    2.8497 H   0  0  0  0  0  0  0  0  0  0  0  0
    1.5710    0.4507    1.9205 H   0  0  0  0  0  0  0  0  0  0  0  0
    1.0121    0.4104    3.5971 H   0  0  0  0  0  0  0  0  0  0  0  0
    0.3788   -0.7566    2.4212 H   0  0  0  0  0  0  0  0  0  0  0  0
   -0.2148    3.1792    3.6300 N   0  0  0  0  0  0  0  0  0  0  0  0
    0.1626    4.5137    4.0333 C   0  0  0  0  0  0  0  0  0  0  0  0
   -0.7024    2.5996    4.3068 H   0  0  0  0  0  0  0  0  0  0  0  0
    1.1671    4.4917    4.4810 H   0  0  0  0  0  0  0  0  0  0  0  0
    0.1676    5.1746    3.1540 H   0  0  0  0  0  0  0  0  0  0  0  0
   -0.5598    4.8915    4.7718 H   0  0  0  0  0  0  0  0  0  0  0  0
  1  3  1  0  0  0  0
  1  7  1  0  0  0  0
  1  2  2  0  0  0  0
 23 25  1  0  0  0  0
 23 29  1  0  0  0  0
 23 24  2  0  0  0  0
 50 51  1  0  0  0  0
 51 59  1  0  0  0  0
 51 52  2  0  0  0  0
  8  9  1  0  0  0  0
  9 17  1  0  0  0  0
  9 10  2  0  0  0  0
 30 31  1  0  0  0  0
 31 39  1  0  0  0  0
 31 32  2  0  0  0  0
 40 41  1  0  0  0  0
 41 49  1  0  0  0  0
 41 42  2  0  0  0  0
 50 53  1  0  0  0  0
 30 33  1  0  0  0  0
 59 60  1  0  0  0  0
 17 18  1  0  0  0  0
  8 11  1  0  0  0  0
 11 12  1  0  0  0  0
 40 43  1  0  0  0  0
 43 44  1  0  0  0  0
 49 50  1  0  0  0  0
  7  8  1  0  0  0  0
 29 30  1  0  0  0  0
 39 40  1  0  0  0  0
 12 44  1  0  0  0  0
  3  4  1  0  0  0  0
  3  5  1  0  0  0  0
  3  6  1  0  0  0  0
 25 26  1  0  0  0  0
 25 27  1  0  0  0  0
 25 28  1  0  0  0  0
 53 56  1  0  0  0  0
 53 57  1  0  0  0  0
 53 58  1  0  0  0  0
 33 36  1  0  0  0  0
 33 37  1  0  0  0  0
 33 38  1  0  0  0  0
 60 62  1  0  0  0  0
 60 63  1  0  0  0  0
 60 64  1  0  0  0  0
 18 20  1  0  0  0  0
 18 21  1  0  0  0  0
 18 22  1  0  0  0  0
 11 15  1  0  0  0  0
 11 16  1  0  0  0  0
 43 47  1  0  0  0  0
 43 48  1  0  0  0  0
 50 55  1  0  0  0  0
  8 14  1  0  0  0  0
 30 35  1  0  0  0  0
 40 46  1  0  0  0  0
 59 61  1  0  0  0  0
 17 19  1  0  0  0  0
  7 13  1  0  0  0  0
 29 34  1  0  0  0  0
 49 54  1  0  0  0  0
 39 45  1  0  0  0  0
M  END
$$$$

  -OEChem-02062319033D

 64 63  0     1  0  0  0  0  0999 V2000
    2.8209   -0.9440   -7.5580 C   0  0  0  0  0  0  0  0  0  0  0  0
    3.1306    0.2412   -7.5924 O   0  0  0  0  0  0  0  0  0  0  0  0
    2.6649   -1.7013   -8.8348 C   0  0  0  0  0  0  0  0  0  0  0  0
    1.6355   -1.6594   -9.2255 H   0  0  0  0  0  0  0  0  0  0  0  0
    3.2991   -1.3004   -9.6417 H   0  0  0  0  0  0  0  0  0  0  0  0
    2.9103   -2.7740   -8.7796 H   0  0  0  0  0  0  0  0  0  0  0  0
    2.5899   -1.6975   -6.4201 N   0  0  0  0  0  0  0  0  0  0  0  0
    2.6878   -1.1644   -5.0849 C   0  0  2  0  0  0  0  0  0  0  0  0
    3.2282   -2.2507   -4.1571 C   0  0  0  0  0  0  0  0  0  0  0  0
    3.4142   -3.4103   -4.5207 O   0  0  0  0  0  0  0  0  0  0  0  0
    1.3691   -0.5551   -4.6026 C   0  0  0  0  0  0  0  0  0  0  0  0
    0.0070   -1.7596   -4.4742 S   0  0  0  0  0  0  0  0  0  0  0  0
    2.3382   -2.6771   -6.5320 H   0  0  0  0  0  0  0  0  0  0  0  0
    3.4426   -0.3701   -5.1394 H   0  0  0  0  0  0  0  0  0  0  0  0
    1.4953   -0.0972   -3.6161 H   0  0  0  0  0  0  0  0  0  0  0  0
    1.0469    0.2316   -5.2933 H   0  0  0  0  0  0  0  0  0  0  0  0
    3.4538   -1.7787   -2.8718 N   0  0  0  0  0  0  0  0  0  0  0  0
    3.9416   -2.6229   -1.8064 C   0  0  0  0  0  0  0  0  0  0  0  0
    3.3136   -0.7933   -2.6693 H   0  0  0  0  0  0  0  0  0  0  0  0
    3.0900   -3.0359   -1.2459 H   0  0  0  0  0  0  0  0  0  0  0  0
    4.5335   -3.4462   -2.2329 H   0  0  0  0  0  0  0  0  0  0  0  0
    4.5734   -2.0298   -1.1289 H   0  0  0  0  0  0  0  0  0  0  0  0
   -6.7256    2.0330   -0.2766 C   0  0  0  0  0  0  0  0  0  0  0  0
   -7.1824    1.1039   -0.9322 O   0  0  0  0  0  0  0  0  0  0  0  0
   -7.5276    2.6077    0.8435 C   0  0  0  0  0  0  0  0  0  0  0  0
   -8.1775    3.4344    0.5145 H   0  0  0  0  0  0  0  0  0  0  0  0
   -8.2057    1.8676    1.2980 H   0  0  0  0  0  0  0  0  0  0  0  0
   -6.9411    3.0162    1.6819 H   0  0  0  0  0  0  0  0  0  0  0  0
   -5.4935    2.6382   -0.4627 N   0  0  0  0  0  0  0  0  0  0  0  0
   -4.5619    2.2388   -1.4845 C   0  0  2  0  0  0  0  0  0  0  0  0
   -3.1535    2.4674   -0.9521 C   0  0  0  0  0  0  0  0  0  0  0  0
   -2.8634    3.3945   -0.1987 O   0  0  0  0  0  0  0  0  0  0  0  0
   -4.7883    3.0138   -2.7732 C   0  0  0  0  0  0  0  0  0  0  0  0
   -5.2337    3.4049    0.1551 H   0  0  0  0  0  0  0  0  0  0  0  0
   -4.7192    1.1682   -1.6549 H   0  0  0  0  0  0  0  0  0  0  0  0
   -4.6352    4.0886   -2.6221 H   0  0  0  0  0  0  0  0  0  0  0  0
   -4.0976    2.6887   -3.5582 H   0  0  0  0  0  0  0  0  0  0  0  0
   -5.8111    2.8719   -3.1387 H   0  0  0  0  0  0  0  0  0  0  0  0
   -2.2466    1.5400   -1.4507 N   0  0  0  0  0  0  0  0  0  0  0  0
   -2.3845    0.1215   -1.2376 C   0  0  2  0  0  0  0  0  0  0  0  0
   -2.3646   -0.1573    0.2639 C   0  0  0  0  0  0  0  0  0  0  0  0
   -3.1702   -0.9030    0.8173 O   0  0  0  0  0  0  0  0  0  0  0  0
   -1.3473   -0.6886   -2.0192 C   0  0  0  0  0  0  0  0  0  0  0  0
   -1.5283   -0.5652   -3.8150 S   0  0  0  0  0  0  0  0  0  0  0  0
   -1.4705    1.8634   -2.0233 H   0  0  0  0  0  0  0  0  0  0  0  0
   -3.3841   -0.1364   -1.6090 H   0  0  0  0  0  0  0  0  0  0  0  0
   -0.3338   -0.3586   -1.7689 H   0  0  0  0  0  0  0  0  0  0  0  0
   -1.4246   -1.7485   -1.7540 H   0  0  0  0  0  0  0  0  0  0  0  0
   -1.3586    0.5430    0.9144 N   0  0  0  0  0  0  0  0  0  0  0  0
   -1.1521    0.4642    2.3417 C   0  0  2  0  0  0  0  0  0  0  0  0
   -0.6253    1.8122    2.8158 C   0  0  0  0  0  0  0  0  0  0  0  0
    0.1155    2.5196    2.1361 O   0  0  0  0  0  0  0  0  0  0  0  0
   -0.1854   -0.6537    2.7000 C   0  0  0  0  0  0  0  0  0  0  0  0
   -0.7090    1.1046    0.3719 H   0  0  0  0  0  0  0  0  0  0  0  0
   -2.1322    0.2752    2.7931 H   0  0  0  0  0  0  0  0  0  0  0  0
    0.8021   -0.4818    2.2565 H   0  0  0  0  0  0  0  0  0  0  0  0
   -0.0520   -0.7306    3.7841 H   0  0  0  0  0  0  0  0  0  0  0  0
   -0.5515   -1.6183    2.3322 H   0  0  0  0  0  0  0  0  0  0  0  0
   -1.0448    2.1127    4.1041 N   0  0  0  0  0  0  0  0  0  0  0  0
   -0.6435    3.3165    4.7939 C   0  0  0  0  0  0  0  0  0  0  0  0
   -1.6904    1.4878    4.5779 H   0  0  0  0  0  0  0  0  0  0  0  0
    0.2587    3.1148    5.3900 H   0  0  0  0  0  0  0  0  0  0  0  0
   -0.4281    4.1058    4.0586 H   0  0  0  0  0  0  0  0  0  0  0  0
   -1.4557    3.6462    5.4584 H   0  0  0  0  0  0  0  0  0  0  0  0
  1  3  1  0  0  0  0
  1  7  1  0  0  0  0
  1  2  2  0  0  0  0
 23 25  1  0  0  0  0
 23 29  1  0  0  0  0
 23 24  2  0  0  0  0
 50 51  1  0  0  0  0
 51 59  1  0  0  0  0
 51 52  2  0  0  0  0
  8  9  1  0  0  0  0
  9 17  1  0  0  0  0
  9 10  2  0  0  0  0
 30 31  1  0  0  0  0
 31 39  1  0  0  0  0
 31 32  2  0  0  0  0
 40 41  1  0  0  0  0
 41 49  1  0  0  0  0
 41 42  2  0  0  0  0
 50 53  1  0  0  0  0
 30 33  1  0  0  0  0
 59 60  1  0  0  0  0
 17 18  1  0  0  0  0
  8 11  1  0  0  0  0
 11 12  1  0  0  0  0
 40 43  1  0  0  0  0
 43 44  1  0  0  0  0
 49 50  1  0  0  0  0
  7  8  1  0  0  0  0
 29 30  1  0  0  0  0
 39 40  1  0  0  0  0
 12 44  1  0  0  0  0
  3  4  1  0  0  0  0
  3  5  1  0  0  0  0
  3  6  1  0  0  0  0
 25 26  1  0  0  0  0
 25 27  1  0  0  0  0
 25 28  1  0  0  0  0
 53 56  1  0  0  0  0
 53 57  1  0  0  0  0
 53 58  1  0  0  0  0
 33 36  1  0  0  0  0
 33 37  1  0  0  0  0
 33 38  1  0  0  0  0
 60 62  1  0  0  0  0
 60 63  1  0  0  0  0
 60 64  1  0  0  0  0
 18 20  1  0  0  0  0
 18 21  1  0  0  0  0
 18 22  1  0  0  0  0
 11 15  1  0  0  0  0
 11 16  1  0  0  0  0
 43 47  1  0  0  0  0
 43 48  1  0  0  0  0
 50 55  1  0  0  0  0
  8 14  1  0  0  0  0
 30 35  1  0  0  0  0
 40 46  1  0  0  0  0
 59 61  1  0  0  0  0
 17 19  1  0  0  0  0
  7 13  1  0  0  0  0
 29 34  1  0  0  0  0
 49 54  1  0  0  0  0
 39 45  1  0  0  0  0
M  END
$$$$

  -OEChem-02062319033D

 64 63  0     1  0  0  0  0  0999 V2000
    3.6316   -0.4612   -6.9816 C   0  0  0  0  0  0  0  0  0  0  0  0
    4.0339    0.6738   -6.7542 O   0  0  0  0  0  0  0  0  0  0  0  0
    3.6503   -0.9822   -8.3803 C   0  0  0  0  0  0  0  0  0  0  0  0
    2.7149   -0.7673   -8.9216 H   0  0  0  0  0  0  0  0  0  0  0  0
    4.4492   -0.5274   -8.9878 H   0  0  0  0  0  0  0  0  0  0  0  0
    3.7973   -2.0699   -8.4762 H   0  0  0  0  0  0  0  0  0  0  0  0
    3.1407   -1.3585   -6.0489 N   0  0  0  0  0  0  0  0  0  0  0  0
    3.0370   -1.0607   -4.6428 C   0  0  2  0  0  0  0  0  0  0  0  0
    3.3144   -2.3337   -3.8459 C   0  0  0  0  0  0  0  0  0  0  0  0
    3.4720   -3.4330   -4.3734 O   0  0  0  0  0  0  0  0  0  0  0  0
    1.7044   -0.3983   -4.2843 C   0  0  0  0  0  0  0  0  0  0  0  0
    0.2518   -1.4540   -4.5974 S   0  0  0  0  0  0  0  0  0  0  0  0
    2.8378   -2.2745   -6.3725 H   0  0  0  0  0  0  0  0  0  0  0  0
    3.8488   -0.3538   -4.4307 H   0  0  0  0  0  0  0  0  0  0  0  0
    1.6857   -0.1212   -3.2252 H   0  0  0  0  0  0  0  0  0  0  0  0
    1.5748    0.5192   -4.8683 H   0  0  0  0  0  0  0  0  0  0  0  0
    3.3401   -2.1016   -2.4781 N   0  0  0  0  0  0  0  0  0  0  0  0
    3.5600   -3.1536   -1.5134 C   0  0  0  0  0  0  0  0  0  0  0  0
    3.2430   -1.1522   -2.1302 H   0  0  0  0  0  0  0  0  0  0  0  0
    2.5915   -3.5571   -1.1829 H   0  0  0  0  0  0  0  0  0  0  0  0
    4.1532   -3.9565   -1.9754 H   0  0  0  0  0  0  0  0  0  0  0  0
    4.1033   -2.7486   -0.6468 H   0  0  0  0  0  0  0  0  0  0  0  0
   -6.7256    2.0330   -0.2766 C   0  0  0  0  0  0  0  0  0  0  0  0
   -7.1824    1.1039   -0.9322 O   0  0  0  0  0  0  0  0  0  0  0  0
   -7.5276    2.6077    0.8435 C   0  0  0  0  0  0  0  0  0  0  0  0
   -8.1775    3.4344    0.5145 H   0  0  0  0  0  0  0  0  0  0  0  0
   -8.2057    1.8676    1.2980 H   0  0  0  0  0  0  0  0  0  0  0  0
   -6.9411    3.0162    1.6819 H   0  0  0  0  0  0  0  0  0  0  0  0
   -5.4935    2.6382   -0.4627 N   0  0  0  0  0  0  0  0  0  0  0  0
   -4.5619    2.2388   -1.4845 C   0  0  2  0  0  0  0  0  0  0  0  0
   -3.1535    2.4674   -0.9521 C   0  0  0  0  0  0  0  0  0  0  0  0
   -2.8634    3.3945   -0.1987 O   0  0  0  0  0  0  0  0  0  0  0  0
   -4.7883    3.0138   -2.7732 C   0  0  0  0  0  0  0  0  0  0  0  0
   -5.2337    3.4049    0.1551 H   0  0  0  0  0  0  0  0  0  0  0  0
   -4.7192    1.1682   -1.6549 H   0  0  0  0  0  0  0  0  0  0  0  0
   -4.6352    4.0886   -2.6221 H   0  0  0  0  0  0  0  0  0  0  0  0
   -4.0976    2.6887   -3.5582 H   0  0  0  0  0  0  0  0  0  0  0  0
   -5.8111    2.8719   -3.1387 H   0  0  0  0  0  0  0  0  0  0  0  0
   -2.2466    1.5400   -1.4507 N   0  0  0  0  0  0  0  0  0  0  0  0
   -2.5310    0.1289   -1.5178 C   0  0  2  0  0  0  0  0  0  0  0  0
   -2.8045   -0.3881   -0.1070 C   0  0  0  0  0  0  0  0  0  0  0  0
   -3.7526   -1.1219    0.1652 O   0  0  0  0  0  0  0  0  0  0  0  0
   -1.4360   -0.6519   -2.2488 C   0  0  0  0  0  0  0  0  0  0  0  0
   -1.2794   -0.2228   -3.9992 S   0  0  0  0  0  0  0  0  0  0  0  0
   -1.3570    1.8657   -1.8212 H   0  0  0  0  0  0  0  0  0  0  0  0
   -3.4641    0.0432   -2.0885 H   0  0  0  0  0  0  0  0  0  0  0  0
   -0.4618   -0.4776   -1.7804 H   0  0  0  0  0  0  0  0  0  0  0  0
   -1.6425   -1.7262   -2.1918 H   0  0  0  0  0  0  0  0  0  0  0  0
   -1.8812    0.0861    0.8140 N   0  0  0  0  0  0  0  0  0  0  0  0
   -1.9428   -0.2429    2.2189 C   0  0  2  0  0  0  0  0  0  0  0  0
   -1.4068    0.9467    3.0044 C   0  0  0  0  0  0  0  0  0  0  0  0
   -0.5024    1.6701    2.5923 O   0  0  0  0  0  0  0  0  0  0  0  0
   -1.1470   -1.5014    2.5279 C   0  0  0  0  0  0  0  0  0  0  0  0
   -1.1024    0.6542    0.4940 H   0  0  0  0  0  0  0  0  0  0  0  0
   -3.0000   -0.3953    2.4620 H   0  0  0  0  0  0  0  0  0  0  0  0
   -0.0852   -1.3678    2.2908 H   0  0  0  0  0  0  0  0  0  0  0  0
   -1.2181   -1.7655    3.5882 H   0  0  0  0  0  0  0  0  0  0  0  0
   -1.5147   -2.3493    1.9399 H   0  0  0  0  0  0  0  0  0  0  0  0
   -2.0274    1.0795    4.2386 N   0  0  0  0  0  0  0  0  0  0  0  0
   -1.6647    2.1065    5.1872 C   0  0  0  0  0  0  0  0  0  0  0  0
   -2.7948    0.4599    4.4813 H   0  0  0  0  0  0  0  0  0  0  0  0
   -0.9036    1.7156    5.8785 H   0  0  0  0  0  0  0  0  0  0  0  0
   -1.2591    2.9759    4.6489 H   0  0  0  0  0  0  0  0  0  0  0  0
   -2.5554    2.4107    5.7565 H   0  0  0  0  0  0  0  0  0  0  0  0
  1  3  1  0  0  0  0
  1  7  1  0  0  0  0
  1  2  2  0  0  0  0
 23 25  1  0  0  0  0
 23 29  1  0  0  0  0
 23 24  2  0  0  0  0
 50 51  1  0  0  0  0
 51 59  1  0  0  0  0
 51 52  2  0  0  0  0
  8  9  1  0  0  0  0
  9 17  1  0  0  0  0
  9 10  2  0  0  0  0
 30 31  1  0  0  0  0
 31 39  1  0  0  0  0
 31 32  2  0  0  0  0
 40 41  1  0  0  0  0
 41 49  1  0  0  0  0
 41 42  2  0  0  0  0
 50 53  1  0  0  0  0
 30 33  1  0  0  0  0
 59 60  1  0  0  0  0
 17 18  1  0  0  0  0
  8 11  1  0  0  0  0
 11 12  1  0  0  0  0
 40 43  1  0  0  0  0
 43 44  1  0  0  0  0
 49 50  1  0  0  0  0
  7  8  1  0  0  0  0
 29 30  1  0  0  0  0
 39 40  1  0  0  0  0
 12 44  1  0  0  0  0
  3  4  1  0  0  0  0
  3  5  1  0  0  0  0
  3  6  1  0  0  0  0
 25 26  1  0  0  0  0
 25 27  1  0  0  0  0
 25 28  1  0  0  0  0
 53 56  1  0  0  0  0
 53 57  1  0  0  0  0
 53 58  1  0  0  0  0
 33 36  1  0  0  0  0
 33 37  1  0  0  0  0
 33 38  1  0  0  0  0
 60 62  1  0  0  0  0
 60 63  1  0  0  0  0
 60 64  1  0  0  0  0
 18 20  1  0  0  0  0
 18 21  1  0  0  0  0
 18 22  1  0  0  0  0
 11 15  1  0  0  0  0
 11 16  1  0  0  0  0
 43 47  1  0  0  0  0
 43 48  1  0  0  0  0
 50 55  1  0  0  0  0
  8 14  1  0  0  0  0
 30 35  1  0  0  0  0
 40 46  1  0  0  0  0
 59 61  1  0  0  0  0
 17 19  1  0  0  0  0
  7 13  1  0  0  0  0
 29 34  1  0  0  0  0
 49 54  1  0  0  0  0
 39 45  1  0  0  0  0
M  END
$$$$

  -OEChem-02062319033D

 64 63  0     1  0  0  0  0  0999 V2000
    4.3600   -0.1675   -6.2032 C   0  0  0  0  0  0  0  0  0  0  0  0
    4.8018    0.8661   -5.7153 O   0  0  0  0  0  0  0  0  0  0  0  0
    4.5904   -0.4558   -7.6496 C   0  0  0  0  0  0  0  0  0  0  0  0
    3.7879   -0.0573   -8.2909 H   0  0  0  0  0  0  0  0  0  0  0  0
    5.5189    0.0020   -8.0269 H   0  0  0  0  0  0  0  0  0  0  0  0
    4.6669   -1.5234   -7.9110 H   0  0  0  0  0  0  0  0  0  0  0  0
    3.6401   -1.1449   -5.5380 N   0  0  0  0  0  0  0  0  0  0  0  0
    3.3076   -1.0675   -4.1380 C   0  0  2  0  0  0  0  0  0  0  0  0
    3.3361   -2.4745   -3.5445 C   0  0  0  0  0  0  0  0  0  0  0  0
    3.5002   -3.4851   -4.2250 O   0  0  0  0  0  0  0  0  0  0  0  0
    1.9880   -0.3318   -3.8924 C   0  0  0  0  0  0  0  0  0  0  0  0
    0.5380   -1.1608   -4.6224 S   0  0  0  0  0  0  0  0  0  0  0  0
    3.3301   -1.9589   -6.0641 H   0  0  0  0  0  0  0  0  0  0  0  0
    4.1203   -0.4956   -3.6733 H   0  0  0  0  0  0  0  0  0  0  0  0
    1.7998   -0.2281   -2.8188 H   0  0  0  0  0  0  0  0  0  0  0  0
    2.0380    0.6763   -4.3180 H   0  0  0  0  0  0  0  0  0  0  0  0
    3.1323   -2.4693   -2.1719 N   0  0  0  0  0  0  0  0  0  0  0  0
    3.0915   -3.6803   -1.3858 C   0  0  0  0  0  0  0  0  0  0  0  0
    3.0483   -1.5834   -1.6822 H   0  0  0  0  0  0  0  0  0  0  0  0
    2.0508   -4.0249   -1.2962 H   0  0  0  0  0  0  0  0  0  0  0  0
    3.6939   -4.4576   -1.8786 H   0  0  0  0  0  0  0  0  0  0  0  0
    3.4991   -3.4807   -0.3838 H   0  0  0  0  0  0  0  0  0  0  0  0
   -6.7256    2.0330   -0.2766 C   0  0  0  0  0  0  0  0  0  0  0  0
   -7.1824    1.1039   -0.9322 O   0  0  0  0  0  0  0  0  0  0  0  0
   -7.5276    2.6077    0.8435 C   0  0  0  0  0  0  0  0  0  0  0  0
   -8.1775    3.4344    0.5145 H   0  0  0  0  0  0  0  0  0  0  0  0
   -8.2057    1.8676    1.2980 H   0  0  0  0  0  0  0  0  0  0  0  0
   -6.9411    3.0162    1.6819 H   0  0  0  0  0  0  0  0  0  0  0  0
   -5.4935    2.6382   -0.4627 N   0  0  0  0  0  0  0  0  0  0  0  0
   -4.5619    2.2388   -1.4845 C   0  0  2  0  0  0  0  0  0  0  0  0
   -3.1535    2.4674   -0.9521 C   0  0  0  0  0  0  0  0  0  0  0  0
   -2.8634    3.3945   -0.1987 O   0  0  0  0  0  0  0  0  0  0  0  0
   -4.7883    3.0138   -2.7732 C   0  0  0  0  0  0  0  0  0  0  0  0
   -5.2337    3.4049    0.1551 H   0  0  0  0  0  0  0  0  0  0  0  0
   -4.7192    1.1682   -1.6549 H   0  0  0  0  0  0  0  0  0  0  0  0
   -4.6352    4.0886   -2.6221 H   0  0  0  0  0  0  0  0  0  0  0  0
   -4.0976    2.6887   -3.5582 H   0  0  0  0  0  0  0  0  0  0  0  0
   -5.8111    2.8719   -3.1387 H   0  0  0  0  0  0  0  0  0  0  0  0
   -2.2466    1.5400   -1.4507 N   0  0  0  0  0  0  0  0  0  0  0  0
   -2.6234    0.1970   -1.8125 C   0  0  2  0  0  0  0  0  0  0  0  0
   -3.1869   -0.5076   -0.5801 C   0  0  0  0  0  0  0  0  0  0  0  0
   -4.2229   -1.1691   -0.6022 O   0  0  0  0  0  0  0  0  0  0  0  0
   -1.4787   -0.5695   -2.4796 C   0  0  0  0  0  0  0  0  0  0  0  0
   -0.9753    0.1160   -4.0763 S   0  0  0  0  0  0  0  0  0  0  0  0
   -1.2820    1.8233   -1.6059 H   0  0  0  0  0  0  0  0  0  0  0  0
   -3.4418    0.3051   -2.5352 H   0  0  0  0  0  0  0  0  0  0  0  0
   -0.5946   -0.5787   -1.8338 H   0  0  0  0  0  0  0  0  0  0  0  0
   -1.7752   -1.6104   -2.6486 H   0  0  0  0  0  0  0  0  0  0  0  0
   -2.4110   -0.2898    0.5496 N   0  0  0  0  0  0  0  0  0  0  0  0
   -2.7510   -0.8318    1.8444 C   0  0  2  0  0  0  0  0  0  0  0  0
   -2.2746    0.1513    2.9055 C   0  0  0  0  0  0  0  0  0  0  0  0
   -1.2570    0.8299    2.7827 O   0  0  0  0  0  0  0  0  0  0  0  0
   -2.1248   -2.2019    2.0525 C   0  0  0  0  0  0  0  0  0  0  0  0
   -1.5454    0.2352    0.4680 H   0  0  0  0  0  0  0  0  0  0  0  0
   -3.8434   -0.9065    1.8790 H   0  0  0  0  0  0  0  0  0  0  0  0
   -1.0305   -2.1471    2.0210 H   0  0  0  0  0  0  0  0  0  0  0  0
   -2.4068   -2.6238    3.0228 H   0  0  0  0  0  0  0  0  0  0  0  0
   -2.4452   -2.8996    1.2712 H   0  0  0  0  0  0  0  0  0  0  0  0
   -3.0958    0.1501    4.0243 N   0  0  0  0  0  0  0  0  0  0  0  0
   -2.8315    0.9662    5.1863 C   0  0  0  0  0  0  0  0  0  0  0  0
   -3.9403   -0.4142    4.0237 H   0  0  0  0  0  0  0  0  0  0  0  0
   -2.2407    0.3896    5.9133 H   0  0  0  0  0  0  0  0  0  0  0  0
   -2.2687    1.8619    4.8848 H   0  0  0  0  0  0  0  0  0  0  0  0
   -3.7839    1.2690    5.6459 H   0  0  0  0  0  0  0  0  0  0  0  0
  1  3  1  0  0  0  0
  1  7  1  0  0  0  0
  1  2  2  0  0  0  0
 23 25  1  0  0  0  0
 23 29  1  0  0  0  0
 23 24  2  0  0  0  0
 50 51  1  0  0  0  0
 51 59  1  0  0  0  0
 51 52  2  0  0  0  0
  8  9  1  0  0  0  0
  9 17  1  0  0  0  0
  9 10  2  0  0  0  0
 30 31  1  0  0  0  0
 31 39  1  0  0  0  0
 31 32  2  0  0  0  0
 40 41  1  0  0  0  0
 41 49  1  0  0  0  0
 41 42  2  0  0  0  0
 50 53  1  0  0  0  0
 30 33  1  0  0  0  0
 59 60  1  0  0  0  0
 17 18  1  0  0  0  0
  8 11  1  0  0  0  0
 11 12  1  0  0  0  0
 40 43  1  0  0  0  0
 43 44  1  0  0  0  0
 49 50  1  0  0  0  0
  7  8  1  0  0  0  0
 29 30  1  0  0  0  0
 39 40  1  0  0  0  0
 12 44  1  0  0  0  0
  3  4  1  0  0  0  0
  3  5  1  0  0  0  0
  3  6  1  0  0  0  0
 25 26  1  0  0  0  0
 25 27  1  0  0  0  0
 25 28  1  0  0  0  0
 53 56  1  0  0  0  0
 53 57  1  0  0  0  0
 53 58  1  0  0  0  0
 33 36  1  0  0  0  0
 33 37  1  0  0  0  0
 33 38  1  0  0  0  0
 60 62  1  0  0  0  0
 60 63  1  0  0  0  0
 60 64  1  0  0  0  0
 18 20  1  0  0  0  0
 18 21  1  0  0  0  0
 18 22  1  0  0  0  0
 11 15  1  0  0  0  0
 11 16  1  0  0  0  0
 43 47  1  0  0  0  0
 43 48  1  0  0  0  0
 50 55  1  0  0  0  0
  8 14  1  0  0  0  0
 30 35  1  0  0  0  0
 40 46  1  0  0  0  0
 59 61  1  0  0  0  0
 17 19  1  0  0  0  0
  7 13  1  0  0  0  0
 29 34  1  0  0  0  0
 49 54  1  0  0  0  0
 39 45  1  0  0  0  0
M  END
$$$$

  -OEChem-02062319033D

 64 63  0     1  0  0  0  0  0999 V2000
    4.9563   -0.0829   -5.2760 C   0  0  0  0  0  0  0  0  0  0  0  0
    5.3820    0.8052   -4.5468 O   0  0  0  0  0  0  0  0  0  0  0  0
    5.4211   -0.1581   -6.6925 C   0  0  0  0  0  0  0  0  0  0  0  0
    4.7813    0.4224   -7.3764 H   0  0  0  0  0  0  0  0  0  0  0  0
    6.4354    0.2517   -6.8246 H   0  0  0  0  0  0  0  0  0  0  0  0
    5.4601   -1.1717   -7.1226 H   0  0  0  0  0  0  0  0  0  0  0  0
    4.0540   -1.0712   -4.9222 N   0  0  0  0  0  0  0  0  0  0  0  0
    3.4811   -1.1845   -3.6048 C   0  0  2  0  0  0  0  0  0  0  0  0
    3.2921   -2.6634   -3.2733 C   0  0  0  0  0  0  0  0  0  0  0  0
    3.4971   -3.5632   -4.0855 O   0  0  0  0  0  0  0  0  0  0  0  0
    2.2003   -0.3601   -3.4537 C   0  0  0  0  0  0  0  0  0  0  0  0
    0.8459   -0.8998   -4.5477 S   0  0  0  0  0  0  0  0  0  0  0  0
    3.7817   -1.7519   -5.6278 H   0  0  0  0  0  0  0  0  0  0  0  0
    4.2386   -0.7856   -2.9188 H   0  0  0  0  0  0  0  0  0  0  0  0
    1.8299   -0.4106   -2.4246 H   0  0  0  0  0  0  0  0  0  0  0  0
    2.4049    0.6920   -3.6799 H   0  0  0  0  0  0  0  0  0  0  0  0
    2.8446   -2.8570   -1.9741 N   0  0  0  0  0  0  0  0  0  0  0  0
    2.5680   -4.1670   -1.4326 C   0  0  0  0  0  0  0  0  0  0  0  0
    2.7429   -2.0575   -1.3560 H   0  0  0  0  0  0  0  0  0  0  0  0
    1.5046   -4.4075   -1.5781 H   0  0  0  0  0  0  0  0  0  0  0  0
    3.1871   -4.9153   -1.9491 H   0  0  0  0  0  0  0  0  0  0  0  0
    2.8022   -4.1762   -0.3578 H   0  0  0  0  0  0  0  0  0  0  0  0
   -6.7256    2.0330   -0.2766 C   0  0  0  0  0  0  0  0  0  0  0  0
   -7.1824    1.1039   -0.9322 O   0  0  0  0  0  0  0  0  0  0  0  0
   -7.5276    2.6077    0.8435 C   0  0  0  0  0  0  0  0  0  0  0  0
   -8.1775    3.4344    0.5145 H   0  0  0  0  0  0  0  0  0  0  0  0
   -8.2057    1.8676    1.2980 H   0  0  0  0  0  0  0  0  0  0  0  0
   -6.9411    3.0162    1.6819 H   0  0  0  0  0  0  0  0  0  0  0  0
   -5.4935    2.6382   -0.4627 N   0  0  0  0  0  0  0  0  0  0  0  0
   -4.5619    2.2388   -1.4845 C   0  0  2  0  0  0  0  0  0  0  0  0
   -3.1535    2.4674   -0.9521 C   0  0  0  0  0  0  0  0  0  0  0  0
   -2.8634    3.3945   -0.1987 O   0  0  0  0  0  0  0  0  0  0  0  0
   -4.7883    3.0138   -2.7732 C   0  0  0  0  0  0  0  0  0  0  0  0
   -5.2337    3.4049    0.1551 H   0  0  0  0  0  0  0  0  0  0  0  0
   -4.7192    1.1682   -1.6549 H   0  0  0  0  0  0  0  0  0  0  0  0
   -4.6352    4.0886   -2.6221 H   0  0  0  0  0  0  0  0  0  0  0  0
   -4.0976    2.6887   -3.5582 H   0  0  0  0  0  0  0  0  0  0  0  0
   -5.8111    2.8719   -3.1387 H   0  0  0  0  0  0  0  0  0  0  0  0
   -2.2466    1.5400   -1.4507 N   0  0  0  0  0  0  0  0  0  0  0  0
   -2.6554    0.3211   -2.1017 C   0  0  2  0  0  0  0  0  0  0  0  0
   -3.4856   -0.5075   -1.1234 C   0  0  0  0  0  0  0  0  0  0  0  0
   -4.5489   -1.0415   -1.4326 O   0  0  0  0  0  0  0  0  0  0  0  0
   -1.4724   -0.4470   -2.6960 C   0  0  0  0  0  0  0  0  0  0  0  0
   -0.6368    0.4280   -4.0410 S   0  0  0  0  0  0  0  0  0  0  0  0
   -1.2507    1.7390   -1.3922 H   0  0  0  0  0  0  0  0  0  0  0  0
   -3.3188    0.6315   -2.9185 H   0  0  0  0  0  0  0  0  0  0  0  0
   -0.7230   -0.6550   -1.9254 H   0  0  0  0  0  0  0  0  0  0  0  0
   -1.8138   -1.4091   -3.0932 H   0  0  0  0  0  0  0  0  0  0  0  0
   -2.9121   -0.5591    0.1391 N   0  0  0  0  0  0  0  0  0  0  0  0
   -3.5217   -1.2623    1.2435 C   0  0  2  0  0  0  0  0  0  0  0  0
   -3.1696   -0.5196    2.5257 C   0  0  0  0  0  0  0  0  0  0  0  0
   -2.0968    0.0563    2.6943 O   0  0  0  0  0  0  0  0  0  0  0  0
   -3.0522   -2.7074    1.3060 C   0  0  0  0  0  0  0  0  0  0  0  0
   -2.0076   -0.1241    0.2955 H   0  0  0  0  0  0  0  0  0  0  0  0
   -4.6047   -1.2235    1.0840 H   0  0  0  0  0  0  0  0  0  0  0  0
   -1.9694   -2.7664    1.4655 H   0  0  0  0  0  0  0  0  0  0  0  0
   -3.5369   -3.2469    2.1264 H   0  0  0  0  0  0  0  0  0  0  0  0
   -3.2796   -3.2318    0.3717 H   0  0  0  0  0  0  0  0  0  0  0  0
   -4.1770   -0.6122    3.4758 N   0  0  0  0  0  0  0  0  0  0  0  0
   -4.0642   -0.0268    4.7913 C   0  0  0  0  0  0  0  0  0  0  0  0
   -5.0490   -1.0748    3.2361 H   0  0  0  0  0  0  0  0  0  0  0  0
   -3.6613   -0.7730    5.4920 H   0  0  0  0  0  0  0  0  0  0  0  0
   -3.3880    0.8399    4.7501 H   0  0  0  0  0  0  0  0  0  0  0  0
   -5.0574    0.2991    5.1339 H   0  0  0  0  0  0  0  0  0  0  0  0
  1  3  1  0  0  0  0
  1  7  1  0  0  0  0
  1  2  2  0  0  0  0
 23 25  1  0  0  0  0
 23 29  1  0  0  0  0
 23 24  2  0  0  0  0
 50 51  1  0  0  0  0
 51 59  1  0  0  0  0
 51 52  2  0  0  0  0
  8  9  1  0  0  0  0
  9 17  1  0  0  0  0
  9 10  2  0  0  0  0
 30 31  1  0  0  0  0
 31 39  1  0  0  0  0
 31 32  2  0  0  0  0
 40 41  1  0  0  0  0
 41 49  1  0  0  0  0
 41 42  2  0  0  0  0
 50 53  1  0  0  0  0
 30 33  1  0  0  0  0
 59 60  1  0  0  0  0
 17 18  1  0  0  0  0
  8 11  1  0  0  0  0
 11 12  1  0  0  0  0
 40 43  1  0  0  0  0
 43 44  1  0  0  0  0
 49 50  1  0  0  0  0
  7  8  1  0  0  0  0
 29 30  1  0  0  0  0
 39 40  1  0  0  0  0
 12 44  1  0  0  0  0
  3  4  1  0  0  0  0
  3  5  1  0  0  0  0
  3  6  1  0  0  0  0
 25 26  1  0  0  0  0
 25 27  1  0  0  0  0
 25 28  1  0  0  0  0
 53 56  1  0  0  0  0
 53 57  1  0  0  0  0
 53 58  1  0  0  0  0
 33 36  1  0  0  0  0
 33 37  1  0  0  0  0
 33 38  1  0  0  0  0
 60 62  1  0  0  0  0
 60 63  1  0  0  0  0
 60 64  1  0  0  0  0
 18 20  1  0  0  0  0
 18 21  1  0  0  0  0
 18 22  1  0  0  0  0
 11 15  1  0  0  0  0
 11 16  1  0  0  0  0
 43 47  1  0  0  0  0
 43 48  1  0  0  0  0
 50 55  1  0  0  0  0
  8 14  1  0  0  0  0
 30 35  1  0  0  0  0
 40 46  1  0  0  0  0
 59 61  1  0  0  0  0
 17 19  1  0  0  0  0
  7 13  1  0  0  0  0
 29 34  1  0  0  0  0
 49 54  1  0  0  0  0
 39 45  1  0  0  0  0
M  END
$$$$

  -OEChem-02062319033D

 64 63  0     1  0  0  0  0  0999 V2000
    5.3800   -0.2132   -4.2630 C   0  0  0  0  0  0  0  0  0  0  0  0
    5.7350    0.4951   -3.3281 O   0  0  0  0  0  0  0  0  0  0  0  0
    6.0859   -0.1093   -5.5743 C   0  0  0  0  0  0  0  0  0  0  0  0
    5.6274    0.6391   -6.2405 H   0  0  0  0  0  0  0  0  0  0  0  0
    7.1361    0.2047   -5.4627 H   0  0  0  0  0  0  0  0  0  0  0  0
    6.1227   -1.0389   -6.1646 H   0  0  0  0  0  0  0  0  0  0  0  0
    4.3544   -1.1425   -4.2434 N   0  0  0  0  0  0  0  0  0  0  0  0
    3.5457   -1.4037   -3.0796 C   0  0  2  0  0  0  0  0  0  0  0  0
    3.1851   -2.8875   -3.0509 C   0  0  0  0  0  0  0  0  0  0  0  0
    3.4626   -3.6619   -3.9645 O   0  0  0  0  0  0  0  0  0  0  0  0
    2.3270   -0.4812   -2.9980 C   0  0  0  0  0  0  0  0  0  0  0  0
    1.1547   -0.6890   -4.3782 S   0  0  0  0  0  0  0  0  0  0  0  0
    4.1617   -1.6676   -5.0935 H   0  0  0  0  0  0  0  0  0  0  0  0
    4.1956   -1.2042   -2.2185 H   0  0  0  0  0  0  0  0  0  0  0  0
    1.7739   -0.6563   -2.0694 H   0  0  0  0  0  0  0  0  0  0  0  0
    2.6506    0.5653   -2.9975 H   0  0  0  0  0  0  0  0  0  0  0  0
    2.4965   -3.2381   -1.8983 N   0  0  0  0  0  0  0  0  0  0  0  0
    2.0253   -4.5806   -1.6503 C   0  0  0  0  0  0  0  0  0  0  0  0
    2.3474   -2.5421   -1.1737 H   0  0  0  0  0  0  0  0  0  0  0  0
    0.9901   -4.6786   -2.0093 H   0  0  0  0  0  0  0  0  0  0  0  0
    2.6671   -5.2985   -2.1820 H   0  0  0  0  0  0  0  0  0  0  0  0
    2.0599   -4.7876   -0.5705 H   0  0  0  0  0  0  0  0  0  0  0  0
   -6.7256    2.0330   -0.2766 C   0  0  0  0  0  0  0  0  0  0  0  0
   -7.1824    1.1039   -0.9322 O   0  0  0  0  0  0  0  0  0  0  0  0
   -7.5276    2.6077    0.8435 C   0  0  0  0  0  0  0  0  0  0  0  0
   -8.1775    3.4344    0.5145 H   0  0  0  0  0  0  0  0  0  0  0  0
   -8.2057    1.8676    1.2980 H   0  0  0  0  0  0  0  0  0  0  0  0
   -6.9411    3.0162    1.6819 H   0  0  0  0  0  0  0  0  0  0  0  0
   -5.4935    2.6382   -0.4627 N   0  0  0  0  0  0  0  0  0  0  0  0
   -4.5619    2.2388   -1.4845 C   0  0  2  0  0  0  0  0  0  0  0  0
   -3.1535    2.4674   -0.9521 C   0  0  0  0  0  0  0  0  0  0  0  0
   -2.8634    3.3945   -0.1987 O   0  0  0  0  0  0  0  0  0  0  0  0
   -4.7883    3.0138   -2.7732 C   0  0  0  0  0  0  0  0  0  0  0  0
   -5.2337    3.4049    0.1551 H   0  0  0  0  0  0  0  0  0  0  0  0
   -4.7192    1.1682   -1.6549 H   0  0  0  0  0  0  0  0  0  0  0  0
   -4.6352    4.0886   -2.6221 H   0  0  0  0  0  0  0  0  0  0  0  0
   -4.0976    2.6887   -3.5582 H   0  0  0  0  0  0  0  0  0  0  0  0
   -5.8111    2.8719   -3.1387 H   0  0  0  0  0  0  0  0  0  0  0  0
   -2.2466    1.5400   -1.4507 N   0  0  0  0  0  0  0  0  0  0  0  0
   -2.6249    0.4928   -2.3655 C   0  0  2  0  0  0  0  0  0  0  0  0
   -3.6802   -0.3880   -1.6998 C   0  0  0  0  0  0  0  0  0  0  0  0
   -4.7086   -0.7476   -2.2695 O   0  0  0  0  0  0  0  0  0  0  0  0
   -1.4175   -0.2927   -2.8833 C   0  0  0  0  0  0  0  0  0  0  0  0
   -0.2870    0.6920   -3.8958 S   0  0  0  0  0  0  0  0  0  0  0  0
   -1.2652    1.6185   -1.1947 H   0  0  0  0  0  0  0  0  0  0  0  0
   -3.1034    1.0001   -3.2125 H   0  0  0  0  0  0  0  0  0  0  0  0
   -0.8383   -0.7014   -2.0489 H   0  0  0  0  0  0  0  0  0  0  0  0
   -1.7556   -1.1360   -3.4952 H   0  0  0  0  0  0  0  0  0  0  0  0
   -3.3501   -0.7033   -0.3894 N   0  0  0  0  0  0  0  0  0  0  0  0
   -4.2022   -1.5051    0.4573 C   0  0  2  0  0  0  0  0  0  0  0  0
   -4.0308   -1.0204    1.8909 C   0  0  0  0  0  0  0  0  0  0  0  0
   -2.9645   -0.5980    2.3332 O   0  0  0  0  0  0  0  0  0  0  0  0
   -3.8661   -2.9835    0.3394 C   0  0  0  0  0  0  0  0  0  0  0  0
   -2.4577   -0.3991   -0.0116 H   0  0  0  0  0  0  0  0  0  0  0  0
   -5.2323   -1.3247    0.1309 H   0  0  0  0  0  0  0  0  0  0  0  0
   -2.8378   -3.1836    0.6621 H   0  0  0  0  0  0  0  0  0  0  0  0
   -4.5316   -3.5924    0.9601 H   0  0  0  0  0  0  0  0  0  0  0  0
   -3.9611   -3.3233   -0.6975 H   0  0  0  0  0  0  0  0  0  0  0  0
   -5.1975   -1.1555    2.6305 N   0  0  0  0  0  0  0  0  0  0  0  0
   -5.2789   -0.8047    4.0292 C   0  0  0  0  0  0  0  0  0  0  0  0
   -6.0451   -1.4769    2.1723 H   0  0  0  0  0  0  0  0  0  0  0  0
   -5.0687   -1.6928    4.6432 H   0  0  0  0  0  0  0  0  0  0  0  0
   -4.5409   -0.0206    4.2540 H   0  0  0  0  0  0  0  0  0  0  0  0
   -6.2891   -0.4331    4.2557 H   0  0  0  0  0  0  0  0  0  0  0  0
  1  3  1  0  0  0  0
  1  7  1  0  0  0  0
  1  2  2  0  0  0  0
 23 25  1  0  0  0  0
 23 29  1  0  0  0  0
 23 24  2  0  0  0  0
 50 51  1  0  0  0  0
 51 59  1  0  0  0  0
 51 52  2  0  0  0  0
  8  9  1  0  0  0  0
  9 17  1  0  0  0  0
  9 10  2  0  0  0  0
 30 31  1  0  0  0  0
 31 39  1  0  0  0  0
 31 32  2  0  0  0  0
 40 41  1  0  0  0  0
 41 49  1  0  0  0  0
 41 42  2  0  0  0  0
 50 53  1  0  0  0  0
 30 33  1  0  0  0  0
 59 60  1  0  0  0  0
 17 18  1  0  0  0  0
  8 11  1  0  0  0  0
 11 12  1  0  0  0  0
 40 43  1  0  0  0  0
 43 44  1  0  0  0  0
 49 50  1  0  0  0  0
  7  8  1  0  0  0  0
 29 30  1  0  0  0  0
 39 40  1  0  0  0  0
 12 44  1  0  0  0  0
  3  4  1  0  0  0  0
  3  5  1  0  0  0  0
  3  6  1  0  0  0  0
 25 26  1  0  0  0  0
 25 27  1  0  0  0  0
 25 28  1  0  0  0  0
 53 56  1  0  0  0  0
 53 57  1  0  0  0  0
 53 58  1  0  0  0  0
 33 36  1  0  0  0  0
 33 37  1  0  0  0  0
 33 38  1  0  0  0  0
 60 62  1  0  0  0  0
 60 63  1  0  0  0  0
 60 64  1  0  0  0  0
 18 20  1  0  0  0  0
 18 21  1  0  0  0  0
 18 22  1  0  0  0  0
 11 15  1  0  0  0  0
 11 16  1  0  0  0  0
 43 47  1  0  0  0  0
 43 48  1  0  0  0  0
 50 55  1  0  0  0  0
  8 14  1  0  0  0  0
 30 35  1  0  0  0  0
 40 46  1  0  0  0  0
 59 61  1  0  0  0  0
 17 19  1  0  0  0  0
  7 13  1  0  0  0  0
 29 34  1  0  0  0  0
 49 54  1  0  0  0  0
 39 45  1  0  0  0  0
M  END
$$$$

  -OEChem-02062319033D

 64 63  0     1  0  0  0  0  0999 V2000
    5.6023   -0.5494   -3.2334 C   0  0  0  0  0  0  0  0  0  0  0  0
    5.8365   -0.0431   -2.1423 O   0  0  0  0  0  0  0  0  0  0  0  0
    6.5393   -0.3128   -4.3710 C   0  0  0  0  0  0  0  0  0  0  0  0
    6.2687    0.5779   -4.9605 H   0  0  0  0  0  0  0  0  0  0  0  0
    7.5734   -0.1358   -4.0342 H   0  0  0  0  0  0  0  0  0  0  0  0
    6.6096   -1.1339   -5.1023 H   0  0  0  0  0  0  0  0  0  0  0  0
    4.5206   -1.3539   -3.5479 N   0  0  0  0  0  0  0  0  0  0  0  0
    3.4971   -1.7101   -2.5981 C   0  0  2  0  0  0  0  0  0  0  0  0
    3.0225   -3.1317   -2.8924 C   0  0  0  0  0  0  0  0  0  0  0  0
    3.3993   -3.7744   -3.8703 O   0  0  0  0  0  0  0  0  0  0  0  0
    2.3594   -0.6869   -2.5564 C   0  0  0  0  0  0  0  0  0  0  0  0
    1.4433   -0.5427   -4.1256 S   0  0  0  0  0  0  0  0  0  0  0  0
    4.4444   -1.7116   -4.4974 H   0  0  0  0  0  0  0  0  0  0  0  0
    3.9941   -1.7228   -1.6202 H   0  0  0  0  0  0  0  0  0  0  0  0
    1.6357   -0.9484   -1.7775 H   0  0  0  0  0  0  0  0  0  0  0  0
    2.7582    0.3049   -2.3173 H   0  0  0  0  0  0  0  0  0  0  0  0
    2.1118   -3.5868   -1.9496 N   0  0  0  0  0  0  0  0  0  0  0  0
    1.5002   -4.8930   -2.0243 C   0  0  0  0  0  0  0  0  0  0  0  0
    1.8890   -3.0043   -1.1478 H   0  0  0  0  0  0  0  0  0  0  0  0
    0.5425   -4.8199   -2.5605 H   0  0  0  0  0  0  0  0  0  0  0  0
    2.1696   -5.5809   -2.5615 H   0  0  0  0  0  0  0  0  0  0  0  0
    1.3229   -5.2734   -1.0075 H   0  0  0  0  0  0  0  0  0  0  0  0
   -6.7256    2.0330   -0.2766 C   0  0  0  0  0  0  0  0  0  0  0  0
   -7.1824    1.1039   -0.9322 O   0  0  0  0  0  0  0  0  0  0  0  0
   -7.5276    2.6077    0.8435 C   0  0  0  0  0  0  0  0  0  0  0  0
   -8.1775    3.4344    0.5145 H   0  0  0  0  0  0  0  0  0  0  0  0
   -8.2057    1.8676    1.2980 H   0  0  0  0  0  0  0  0  0  0  0  0
   -6.9411    3.0162    1.6819 H   0  0  0  0  0  0  0  0  0  0  0  0
   -5.4935    2.6382   -0.4627 N   0  0  0  0  0  0  0  0  0  0  0  0
   -4.5619    2.2388   -1.4845 C   0  0  2  0  0  0  0  0  0  0  0  0
   -3.1535    2.4674   -0.9521 C   0  0  0  0  0  0  0  0  0  0  0  0
   -2.8634    3.3945   -0.1987 O   0  0  0  0  0  0  0  0  0  0  0  0
   -4.7883    3.0138   -2.7732 C   0  0  0  0  0  0  0  0  0  0  0  0
   -5.2337    3.4049    0.1551 H   0  0  0  0  0  0  0  0  0  0  0  0
   -4.7192    1.1682   -1.6549 H   0  0  0  0  0  0  0  0  0  0  0  0
   -4.6352    4.0886   -2.6221 H   0  0  0  0  0  0  0  0  0  0  0  0
   -4.0976    2.6887   -3.5582 H   0  0  0  0  0  0  0  0  0  0  0  0
   -5.8111    2.8719   -3.1387 H   0  0  0  0  0  0  0  0  0  0  0  0
   -2.2466    1.5400   -1.4507 N   0  0  0  0  0  0  0  0  0  0  0  0
   -2.5339    0.7004   -2.5861 C   0  0  2  0  0  0  0  0  0  0  0  0
   -3.7576   -0.1571   -2.2700 C   0  0  0  0  0  0  0  0  0  0  0  0
   -4.6909   -0.3076   -3.0559 O   0  0  0  0  0  0  0  0  0  0  0  0
   -1.3178   -0.1171   -3.0287 C   0  0  0  0  0  0  0  0  0  0  0  0
    0.0504    0.8900   -3.6505 S   0  0  0  0  0  0  0  0  0  0  0  0
   -1.3246    1.4702   -1.0267 H   0  0  0  0  0  0  0  0  0  0  0  0
   -2.8104    1.3858   -3.3969 H   0  0  0  0  0  0  0  0  0  0  0  0
   -0.9326   -0.7145   -2.1960 H   0  0  0  0  0  0  0  0  0  0  0  0
   -1.6045   -0.8097   -3.8274 H   0  0  0  0  0  0  0  0  0  0  0  0
   -3.6954   -0.7126   -0.9999 N   0  0  0  0  0  0  0  0  0  0  0  0
   -4.7464   -1.5436   -0.4607 C   0  0  2  0  0  0  0  0  0  0  0  0
   -4.7996   -1.3170    1.0444 C   0  0  0  0  0  0  0  0  0  0  0  0
   -3.8011   -1.0885    1.7241 O   0  0  0  0  0  0  0  0  0  0  0  0
   -4.5108   -3.0113   -0.7814 C   0  0  0  0  0  0  0  0  0  0  0  0
   -2.8649   -0.5710   -0.4324 H   0  0  0  0  0  0  0  0  0  0  0  0
   -5.6832   -1.2032   -0.9152 H   0  0  0  0  0  0  0  0  0  0  0  0
   -3.5766   -3.3703   -0.3344 H   0  0  0  0  0  0  0  0  0  0  0  0
   -5.3231   -3.6369   -0.3967 H   0  0  0  0  0  0  0  0  0  0  0  0
   -4.4431   -3.1678   -1.8634 H   0  0  0  0  0  0  0  0  0  0  0  0
   -6.0876   -1.4427    1.5459 N   0  0  0  0  0  0  0  0  0  0  0  0
   -6.3928   -1.3146    2.9517 C   0  0  0  0  0  0  0  0  0  0  0  0
   -6.8609   -1.5931    0.9048 H   0  0  0  0  0  0  0  0  0  0  0  0
   -6.3670   -2.3073    3.4250 H   0  0  0  0  0  0  0  0  0  0  0  0
   -5.6486   -0.6610    3.4303 H   0  0  0  0  0  0  0  0  0  0  0  0
   -7.3952   -0.8777    3.0709 H   0  0  0  0  0  0  0  0  0  0  0  0
  1  3  1  0  0  0  0
  1  7  1  0  0  0  0
  1  2  2  0  0  0  0
 23 25  1  0  0  0  0
 23 29  1  0  0  0  0
 23 24  2  0  0  0  0
 50 51  1  0  0  0  0
 51 59  1  0  0  0  0
 51 52  2  0  0  0  0
  8  9  1  0  0  0  0
  9 17  1  0  0  0  0
  9 10  2  0  0  0  0
 30 31  1  0  0  0  0
 31 39  1  0  0  0  0
 31 32  2  0  0  0  0
 40 41  1  0  0  0  0
 41 49  1  0  0  0  0
 41 42  2  0  0  0  0
 50 53  1  0  0  0  0
 30 33  1  0  0  0  0
 59 60  1  0  0  0  0
 17 18  1  0  0  0  0
  8 11  1  0  0  0  0
 11 12  1  0  0  0  0
 40 43  1  0  0  0  0
 43 44  1  0  0  0  0
 49 50  1  0  0  0  0
  7  8  1  0  0  0  0
 29 30  1  0  0  0  0
 39 40  1  0  0  0  0
 12 44  1  0  0  0  0
  3  4  1  0  0  0  0
  3  5  1  0  0  0  0
  3  6  1  0  0  0  0
 25 26  1  0  0  0  0
 25 27  1  0  0  0  0
 25 28  1  0  0  0  0
 53 56  1  0  0  0  0
 53 57  1  0  0  0  0
 53 58  1  0  0  0  0
 33 36  1  0  0  0  0
 33 37  1  0  0  0  0
 33 38  1  0  0  0  0
 60 62  1  0  0  0  0
 60 63  1  0  0  0  0
 60 64  1  0  0  0  0
 18 20  1  0  0  0  0
 18 21  1  0  0  0  0
 18 22  1  0  0  0  0
 11 15  1  0  0  0  0
 11 16  1  0  0  0  0
 43 47  1  0  0  0  0
 43 48  1  0  0  0  0
 50 55  1  0  0  0  0
  8 14  1  0  0  0  0
 30 35  1  0  0  0  0
 40 46  1  0  0  0  0
 59 61  1  0  0  0  0
 17 19  1  0  0  0  0
  7 13  1  0  0  0  0
 29 34  1  0  0  0  0
 49 54  1  0  0  0  0
 39 45  1  0  0  0  0
M  END
$$$$

  -OEChem-02062319033D

 64 63  0     1  0  0  0  0  0999 V2000
    5.6078   -1.0688   -2.2573 C   0  0  0  0  0  0  0  0  0  0  0  0
    5.6799   -0.7726   -1.0704 O   0  0  0  0  0  0  0  0  0  0  0  0
    6.7506   -0.7547   -3.1649 C   0  0  0  0  0  0  0  0  0  0  0  0
    6.6613    0.2431   -3.6237 H   0  0  0  0  0  0  0  0  0  0  0  0
    7.7174   -0.7465   -2.6363 H   0  0  0  0  0  0  0  0  0  0  0  0
    6.8876   -1.4503   -4.0082 H   0  0  0  0  0  0  0  0  0  0  0  0
    4.5414   -1.6910   -2.8831 N   0  0  0  0  0  0  0  0  0  0  0  0
    3.3385   -2.0829   -2.1932 C   0  0  2  0  0  0  0  0  0  0  0  0
    2.8155   -3.3792   -2.8086 C   0  0  0  0  0  0  0  0  0  0  0  0
    3.3115   -3.8932   -3.8092 O   0  0  0  0  0  0  0  0  0  0  0  0
    2.2954   -0.9632   -2.1589 C   0  0  0  0  0  0  0  0  0  0  0  0
    1.6920   -0.4708   -3.8070 S   0  0  0  0  0  0  0  0  0  0  0  0
    4.6103   -1.8811   -3.8803 H   0  0  0  0  0  0  0  0  0  0  0  0
    3.6481   -2.3061   -1.1646 H   0  0  0  0  0  0  0  0  0  0  0  0
    1.4247   -1.2670   -1.5687 H   0  0  0  0  0  0  0  0  0  0  0  0
    2.7205   -0.0715   -1.6856 H   0  0  0  0  0  0  0  0  0  0  0  0
    1.7166   -3.8791   -2.1244 N   0  0  0  0  0  0  0  0  0  0  0  0
    1.0286   -5.0828   -2.5289 C   0  0  0  0  0  0  0  0  0  0  0  0
    1.3988   -3.4125   -1.2801 H   0  0  0  0  0  0  0  0  0  0  0  0
    0.1923   -4.8218   -3.1941 H   0  0  0  0  0  0  0  0  0  0  0  0
    1.7283   -5.7435   -3.0618 H   0  0  0  0  0  0  0  0  0  0  0  0
    0.6413   -5.6003   -1.6389 H   0  0  0  0  0  0  0  0  0  0  0  0
   -6.7256    2.0330   -0.2766 C   0  0  0  0  0  0  0  0  0  0  0  0
   -7.1824    1.1039   -0.9322 O   0  0  0  0  0  0  0  0  0  0  0  0
   -7.5276    2.6077    0.8435 C   0  0  0  0  0  0  0  0  0  0  0  0
   -8.1775    3.4344    0.5145 H   0  0  0  0  0  0  0  0  0  0  0  0
   -8.2057    1.8676    1.2980 H   0  0  0  0  0  0  0  0  0  0  0  0
   -6.9411    3.0162    1.6819 H   0  0  0  0  0  0  0  0  0  0  0  0
   -5.4935    2.6382   -0.4627 N   0  0  0  0  0  0  0  0  0  0  0  0
   -4.5619    2.2388   -1.4845 C   0  0  2  0  0  0  0  0  0  0  0  0
   -3.1535    2.4674   -0.9521 C   0  0  0  0  0  0  0  0  0  0  0  0
   -2.8634    3.3945   -0.1987 O   0  0  0  0  0  0  0  0  0  0  0  0
   -4.7883    3.0138   -2.7732 C   0  0  0  0  0  0  0  0  0  0  0  0
   -5.2337    3.4049    0.1551 H   0  0  0  0  0  0  0  0  0  0  0  0
   -4.7192    1.1682   -1.6549 H   0  0  0  0  0  0  0  0  0  0  0  0
   -4.6352    4.0886   -2.6221 H   0  0  0  0  0  0  0  0  0  0  0  0
   -4.0976    2.6887   -3.5582 H   0  0  0  0  0  0  0  0  0  0  0  0
   -5.8111    2.8719   -3.1387 H   0  0  0  0  0  0  0  0  0  0  0  0
   -2.2466    1.5400   -1.4507 N   0  0  0  0  0  0  0  0  0  0  0  0
   -2.3886    0.9297   -2.7483 C   0  0  2  0  0  0  0  0  0  0  0  0
   -3.7124    0.1694   -2.7951 C   0  0  0  0  0  0  0  0  0  0  0  0
   -4.4972    0.2486   -3.7381 O   0  0  0  0  0  0  0  0  0  0  0  0
   -1.1801    0.0678   -3.1222 C   0  0  0  0  0  0  0  0  0  0  0  0
    0.3522    1.0084   -3.3218 S   0  0  0  0  0  0  0  0  0  0  0  0
   -1.4247    1.3041   -0.8997 H   0  0  0  0  0  0  0  0  0  0  0  0
   -2.4597    1.7622   -3.4593 H   0  0  0  0  0  0  0  0  0  0  0  0
   -0.9996   -0.6937   -2.3565 H   0  0  0  0  0  0  0  0  0  0  0  0
   -1.3709   -0.4524   -4.0671 H   0  0  0  0  0  0  0  0  0  0  0  0
   -3.9243   -0.5865   -1.6508 N   0  0  0  0  0  0  0  0  0  0  0  0
   -5.1170   -1.3752   -1.4479 C   0  0  2  0  0  0  0  0  0  0  0  0
   -5.4235   -1.3891    0.0439 C   0  0  0  0  0  0  0  0  0  0  0  0
   -4.5495   -1.3817    0.9083 O   0  0  0  0  0  0  0  0  0  0  0  0
   -4.9426   -2.7890   -1.9802 C   0  0  0  0  0  0  0  0  0  0  0  0
   -3.2016   -0.6282   -0.9383 H   0  0  0  0  0  0  0  0  0  0  0  0
   -5.9268   -0.8673   -1.9830 H   0  0  0  0  0  0  0  0  0  0  0  0
   -4.1355   -3.3137   -1.4560 H   0  0  0  0  0  0  0  0  0  0  0  0
   -5.8573   -3.3771   -1.8514 H   0  0  0  0  0  0  0  0  0  0  0  0
   -4.6929   -2.7759   -3.0466 H   0  0  0  0  0  0  0  0  0  0  0  0
   -6.7867   -1.4543    0.2960 N   0  0  0  0  0  0  0  0  0  0  0  0
   -7.3300   -1.5218    1.6325 C   0  0  0  0  0  0  0  0  0  0  0  0
   -7.4408   -1.4155   -0.4801 H   0  0  0  0  0  0  0  0  0  0  0  0
   -7.4677   -2.5745    1.9202 H   0  0  0  0  0  0  0  0  0  0  0  0
   -6.6359   -1.0376    2.3352 H   0  0  0  0  0  0  0  0  0  0  0  0
   -8.3002   -1.0042    1.6603 H   0  0  0  0  0  0  0  0  0  0  0  0
  1  3  1  0  0  0  0
  1  7  1  0  0  0  0
  1  2  2  0  0  0  0
 23 25  1  0  0  0  0
 23 29  1  0  0  0  0
 23 24  2  0  0  0  0
 50 51  1  0  0  0  0
 51 59  1  0  0  0  0
 51 52  2  0  0  0  0
  8  9  1  0  0  0  0
  9 17  1  0  0  0  0
  9 10  2  0  0  0  0
 30 31  1  0  0  0  0
 31 39  1  0  0  0  0
 31 32  2  0  0  0  0
 40 41  1  0  0  0  0
 41 49  1  0  0  0  0
 41 42  2  0  0  0  0
 50 53  1  0  0  0  0
 30 33  1  0  0  0  0
 59 60  1  0  0  0  0
 17 18  1  0  0  0  0
  8 11  1  0  0  0  0
 11 12  1  0  0  0  0
 40 43  1  0  0  0  0
 43 44  1  0  0  0  0
 49 50  1  0  0  0  0
  7  8  1  0  0  0  0
 29 30  1  0  0  0  0
 39 40  1  0  0  0  0
 12 44  1  0  0  0  0
  3  4  1  0  0  0  0
  3  5  1  0  0  0  0
  3  6  1  0  0  0  0
 25 26  1  0  0  0  0
 25 27  1  0  0  0  0
 25 28  1  0  0  0  0
 53 56  1  0  0  0  0
 53 57  1  0  0  0  0
 53 58  1  0  0  0  0
 33 36  1  0  0  0  0
 33 37  1  0  0  0  0
 33 38  1  0  0  0  0
 60 62  1  0  0  0  0
 60 63  1  0  0  0  0
 60 64  1  0  0  0  0
 18 20  1  0  0  0  0
 18 21  1  0  0  0  0
 18 22  1  0  0  0  0
 11 15  1  0  0  0  0
 11 16  1  0  0  0  0
 43 47  1  0  0  0  0
 43 48  1  0  0  0  0
 50 55  1  0  0  0  0
  8 14  1  0  0  0  0
 30 35  1  0  0  0  0
 40 46  1  0  0  0  0
 59 61  1  0  0  0  0
 17 19  1  0  0  0  0
  7 13  1  0  0  0  0
 29 34  1  0  0  0  0
 49 54  1  0  0  0  0
 39 45  1  0  0  0  0
M  END
$$$$

  -OEChem-02062319033D

 64 63  0     1  0  0  0  0  0999 V2000
    5.3964   -1.7358   -1.4012 C   0  0  0  0  0  0  0  0  0  0  0  0
    5.2756   -1.6438   -0.1852 O   0  0  0  0  0  0  0  0  0  0  0  0
    6.7053   -1.4049   -2.0379 C   0  0  0  0  0  0  0  0  0  0  0  0
    6.7785   -0.3426   -2.3212 H   0  0  0  0  0  0  0  0  0  0  0  0
    7.5583   -1.5859   -1.3643 H   0  0  0  0  0  0  0  0  0  0  0  0
    6.9378   -1.9665   -2.9568 H   0  0  0  0  0  0  0  0  0  0  0  0
    4.4153   -2.1308   -2.2942 N   0  0  0  0  0  0  0  0  0  0  0  0
    3.0807   -2.4966   -1.8924 C   0  0  2  0  0  0  0  0  0  0  0  0
    2.5780   -3.6132   -2.8053 C   0  0  0  0  0  0  0  0  0  0  0  0
    3.2050   -4.0101   -3.7855 O   0  0  0  0  0  0  0  0  0  0  0  0
    2.1392   -1.2912   -1.8328 C   0  0  0  0  0  0  0  0  0  0  0  0
    1.8838   -0.4783   -3.4441 S   0  0  0  0  0  0  0  0  0  0  0  0
    4.6483   -2.1645   -3.2842 H   0  0  0  0  0  0  0  0  0  0  0  0
    3.1810   -2.9143   -0.8829 H   0  0  0  0  0  0  0  0  0  0  0  0
    1.1552   -1.5904   -1.4574 H   0  0  0  0  0  0  0  0  0  0  0  0
    2.5401   -0.5383   -1.1456 H   0  0  0  0  0  0  0  0  0  0  0  0
    1.3380   -4.0953   -2.4109 N   0  0  0  0  0  0  0  0  0  0  0  0
    0.6426   -5.1371   -3.1299 C   0  0  0  0  0  0  0  0  0  0  0  0
    0.9102   -3.7390   -1.5614 H   0  0  0  0  0  0  0  0  0  0  0  0
   -0.0368   -4.6840   -3.8669 H   0  0  0  0  0  0  0  0  0  0  0  0
    1.3734   -5.7750   -3.6486 H   0  0  0  0  0  0  0  0  0  0  0  0
    0.0617   -5.7462   -2.4217 H   0  0  0  0  0  0  0  0  0  0  0  0
   -6.7256    2.0330   -0.2766 C   0  0  0  0  0  0  0  0  0  0  0  0
   -7.1824    1.1039   -0.9322 O   0  0  0  0  0  0  0  0  0  0  0  0
   -7.5276    2.6077    0.8435 C   0  0  0  0  0  0  0  0  0  0  0  0
   -8.1775    3.4344    0.5145 H   0  0  0  0  0  0  0  0  0  0  0  0
   -8.2057    1.8676    1.2980 H   0  0  0  0  0  0  0  0  0  0  0  0
   -6.9411    3.0162    1.6819 H   0  0  0  0  0  0  0  0  0  0  0  0
   -5.4935    2.6382   -0.4627 N   0  0  0  0  0  0  0  0  0  0  0  0
   -4.5619    2.2388   -1.4845 C   0  0  2  0  0  0  0  0  0  0  0  0
   -3.1535    2.4674   -0.9521 C   0  0  0  0  0  0  0  0  0  0  0  0
   -2.8634    3.3945   -0.1987 O   0  0  0  0  0  0  0  0  0  0  0  0
   -4.7883    3.0138   -2.7732 C   0  0  0  0  0  0  0  0  0  0  0  0
   -5.2337    3.4049    0.1551 H   0  0  0  0  0  0  0  0  0  0  0  0
   -4.7192    1.1682   -1.6549 H   0  0  0  0  0  0  0  0  0  0  0  0
   -4.6352    4.0886   -2.6221 H   0  0  0  0  0  0  0  0  0  0  0  0
   -4.0976    2.6887   -3.5582 H   0  0  0  0  0  0  0  0  0  0  0  0
   -5.8111    2.8719   -3.1387 H   0  0  0  0  0  0  0  0  0  0  0  0
   -2.2466    1.5400   -1.4507 N   0  0  0  0  0  0  0  0  0  0  0  0
   -2.1990    1.1651   -2.8413 C   0  0  2  0  0  0  0  0  0  0  0  0
   -3.5477    0.5693   -3.2393 C   0  0  0  0  0  0  0  0  0  0  0  0
   -4.1406    0.8831   -4.2696 O   0  0  0  0  0  0  0  0  0  0  0  0
   -1.0138    0.2495   -3.1575 C   0  0  0  0  0  0  0  0  0  0  0  0
    0.5980    1.0393   -2.9322 S   0  0  0  0  0  0  0  0  0  0  0  0
   -1.5588    1.1314   -0.8224 H   0  0  0  0  0  0  0  0  0  0  0  0
   -2.0752    2.1038   -3.3955 H   0  0  0  0  0  0  0  0  0  0  0  0
   -1.0346   -0.6402   -2.5197 H   0  0  0  0  0  0  0  0  0  0  0  0
   -1.0707   -0.0885   -4.1979 H   0  0  0  0  0  0  0  0  0  0  0  0
   -4.0212   -0.3334   -2.2978 N   0  0  0  0  0  0  0  0  0  0  0  0
   -5.2888   -1.0114   -2.4370 C   0  0  2  0  0  0  0  0  0  0  0  0
   -5.8599   -1.2318   -1.0425 C   0  0  0  0  0  0  0  0  0  0  0  0
   -5.1587   -1.4577   -0.0584 O   0  0  0  0  0  0  0  0  0  0  0  0
   -5.1320   -2.3317   -3.1751 C   0  0  0  0  0  0  0  0  0  0  0  0
   -3.4447   -0.5668   -1.4947 H   0  0  0  0  0  0  0  0  0  0  0  0
   -5.9464   -0.3399   -2.9997 H   0  0  0  0  0  0  0  0  0  0  0  0
   -4.4763   -3.0177   -2.6264 H   0  0  0  0  0  0  0  0  0  0  0  0
   -6.0979   -2.8309   -3.3050 H   0  0  0  0  0  0  0  0  0  0  0  0
   -4.6934   -2.1744   -4.1664 H   0  0  0  0  0  0  0  0  0  0  0  0
   -7.2471   -1.1895   -1.0340 N   0  0  0  0  0  0  0  0  0  0  0  0
   -8.0266   -1.4120    0.1614 C   0  0  0  0  0  0  0  0  0  0  0  0
   -7.7452   -0.9562   -1.8880 H   0  0  0  0  0  0  0  0  0  0  0  0
   -8.2958   -2.4762    0.2314 H   0  0  0  0  0  0  0  0  0  0  0  0
   -7.4353   -1.1246    1.0433 H   0  0  0  0  0  0  0  0  0  0  0  0
   -8.9425   -0.8042    0.1201 H   0  0  0  0  0  0  0  0  0  0  0  0
  1  3  1  0  0  0  0
  1  7  1  0  0  0  0
  1  2  2  0  0  0  0
 23 25  1  0  0  0  0
 23 29  1  0  0  0  0
 23 24  2  0  0  0  0
 50 51  1  0  0  0  0
 51 59  1  0  0  0  0
 51 52  2  0  0  0  0
  8  9  1  0  0  0  0
  9 17  1  0  0  0  0
  9 10  2  0  0  0  0
 30 31  1  0  0  0  0
 31 39  1  0  0  0  0
 31 32  2  0  0  0  0
 40 41  1  0  0  0  0
 41 49  1  0  0  0  0
 41 42  2  0  0  0  0
 50 53  1  0  0  0  0
 30 33  1  0  0  0  0
 59 60  1  0  0  0  0
 17 18  1  0  0  0  0
  8 11  1  0  0  0  0
 11 12  1  0  0  0  0
 40 43  1  0  0  0  0
 43 44  1  0  0  0  0
 49 50  1  0  0  0  0
  7  8  1  0  0  0  0
 29 30  1  0  0  0  0
 39 40  1  0  0  0  0
 12 44  1  0  0  0  0
  3  4  1  0  0  0  0
  3  5  1  0  0  0  0
  3  6  1  0  0  0  0
 25 26  1  0  0  0  0
 25 27  1  0  0  0  0
 25 28  1  0  0  0  0
 53 56  1  0  0  0  0
 53 57  1  0  0  0  0
 53 58  1  0  0  0  0
 33 36  1  0  0  0  0
 33 37  1  0  0  0  0
 33 38  1  0  0  0  0
 60 62  1  0  0  0  0
 60 63  1  0  0  0  0
 60 64  1  0  0  0  0
 18 20  1  0  0  0  0
 18 21  1  0  0  0  0
 18 22  1  0  0  0  0
 11 15  1  0  0  0  0
 11 16  1  0  0  0  0
 43 47  1  0  0  0  0
 43 48  1  0  0  0  0
 50 55  1  0  0  0  0
  8 14  1  0  0  0  0
 30 35  1  0  0  0  0
 40 46  1  0  0  0  0
 59 61  1  0  0  0  0
 17 19  1  0  0  0  0
  7 13  1  0  0  0  0
 29 34  1  0  0  0  0
 49 54  1  0  0  0  0
 39 45  1  0  0  0  0
M  END
$$$$

  -OEChem-02062319033D

 64 63  0     1  0  0  0  0  0999 V2000
    4.9823   -2.5051   -0.7234 C   0  0  0  0  0  0  0  0  0  0  0  0
    4.6513   -2.5972    0.4529 O   0  0  0  0  0  0  0  0  0  0  0  0
    6.4065   -2.2190   -1.0670 C   0  0  0  0  0  0  0  0  0  0  0  0
    6.6124   -1.1391   -1.1418 H   0  0  0  0  0  0  0  0  0  0  0  0
    7.1070   -2.5968   -0.3049 H   0  0  0  0  0  0  0  0  0  0  0  0
    6.7567   -2.6473   -2.0198 H   0  0  0  0  0  0  0  0  0  0  0  0
    4.1510   -2.6434   -1.8215 N   0  0  0  0  0  0  0  0  0  0  0  0
    2.7413   -2.9231   -1.7163 C   0  0  2  0  0  0  0  0  0  0  0  0
    2.3263   -3.8177   -2.8826 C   0  0  0  0  0  0  0  0  0  0  0  0
    3.0872   -4.1171   -3.8006 O   0  0  0  0  0  0  0  0  0  0  0  0
    1.9015   -1.6487   -1.6002 C   0  0  0  0  0  0  0  0  0  0  0  0
    2.0058   -0.5646   -3.0618 S   0  0  0  0  0  0  0  0  0  0  0  0
    4.5557   -2.5424   -2.7497 H   0  0  0  0  0  0  0  0  0  0  0  0
    2.6246   -3.5060   -0.7942 H   0  0  0  0  0  0  0  0  0  0  0  0
    0.8456   -1.8966   -1.4510 H   0  0  0  0  0  0  0  0  0  0  0  0
    2.2291   -1.0636   -0.7340 H   0  0  0  0  0  0  0  0  0  0  0  0
    1.0017   -4.2206   -2.7896 N   0  0  0  0  0  0  0  0  0  0  0  0
    0.3686   -5.0522   -3.7863 C   0  0  0  0  0  0  0  0  0  0  0  0
    0.4565   -3.9615   -1.9727 H   0  0  0  0  0  0  0  0  0  0  0  0
   -0.1290   -4.4161   -4.5331 H   0  0  0  0  0  0  0  0  0  0  0  0
    1.1290   -5.6734   -4.2821 H   0  0  0  0  0  0  0  0  0  0  0  0
   -0.3765   -5.7010   -3.3027 H   0  0  0  0  0  0  0  0  0  0  0  0
   -6.7256    2.0330   -0.2766 C   0  0  0  0  0  0  0  0  0  0  0  0
   -7.1824    1.1039   -0.9322 O   0  0  0  0  0  0  0  0  0  0  0  0
   -7.5276    2.6077    0.8435 C   0  0  0  0  0  0  0  0  0  0  0  0
   -8.1775    3.4344    0.5145 H   0  0  0  0  0  0  0  0  0  0  0  0
   -8.2057    1.8676    1.2980 H   0  0  0  0  0  0  0  0  0  0  0  0
   -6.9411    3.0162    1.6819 H   0  0  0  0  0  0  0  0  0  0  0  0
   -5.4935    2.6382   -0.4627 N   0  0  0  0  0  0  0  0  0  0  0  0
   -4.5619    2.2388   -1.4845 C   0  0  2  0  0  0  0  0  0  0  0  0
   -3.1535    2.4674   -0.9521 C   0  0  0  0  0  0  0  0  0  0  0  0
   -2.8634    3.3945   -0.1987 O   0  0  0  0  0  0  0  0  0  0  0  0
   -4.7883    3.0138   -2.7732 C   0  0  0  0  0  0  0  0  0  0  0  0
   -5.2337    3.4049    0.1551 H   0  0  0  0  0  0  0  0  0  0  0  0
   -4.7192    1.1682   -1.6549 H   0  0  0  0  0  0  0  0  0  0  0  0
   -4.6352    4.0886   -2.6221 H   0  0  0  0  0  0  0  0  0  0  0  0
   -4.0976    2.6887   -3.5582 H   0  0  0  0  0  0  0  0  0  0  0  0
   -5.8111    2.8719   -3.1387 H   0  0  0  0  0  0  0  0  0  0  0  0
   -2.2466    1.5400   -1.4507 N   0  0  0  0  0  0  0  0  0  0  0  0
   -1.9778    1.3906   -2.8585 C   0  0  2  0  0  0  0  0  0  0  0  0
   -3.2748    1.0152   -3.5725 C   0  0  0  0  0  0  0  0  0  0  0  0
   -3.6454    1.5526   -4.6143 O   0  0  0  0  0  0  0  0  0  0  0  0
   -0.8302    0.4154   -3.1322 C   0  0  0  0  0  0  0  0  0  0  0  0
    0.7710    0.9805   -2.5082 S   0  0  0  0  0  0  0  0  0  0  0  0
   -1.7176    0.9641   -0.8001 H   0  0  0  0  0  0  0  0  0  0  0  0
   -1.6831    2.3873   -3.2097 H   0  0  0  0  0  0  0  0  0  0  0  0
   -1.0352   -0.5577   -2.6743 H   0  0  0  0  0  0  0  0  0  0  0  0
   -0.7243    0.2572   -4.2109 H   0  0  0  0  0  0  0  0  0  0  0  0
   -3.9796    0.0293   -2.8967 N   0  0  0  0  0  0  0  0  0  0  0  0
   -5.2501   -0.4770   -3.3607 C   0  0  2  0  0  0  0  0  0  0  0  0
   -6.0793   -0.8559   -2.1407 C   0  0  0  0  0  0  0  0  0  0  0  0
   -5.5873   -1.3112   -1.1103 O   0  0  0  0  0  0  0  0  0  0  0  0
   -5.0660   -1.6706   -4.2848 C   0  0  0  0  0  0  0  0  0  0  0  0
   -3.5777   -0.3908   -2.0638 H   0  0  0  0  0  0  0  0  0  0  0  0
   -5.7408    0.3431   -3.8962 H   0  0  0  0  0  0  0  0  0  0  0  0
   -4.5758   -2.5024   -3.7658 H   0  0  0  0  0  0  0  0  0  0  0  0
   -6.0285   -2.0354   -4.6583 H   0  0  0  0  0  0  0  0  0  0  0  0
   -4.4446   -1.4041   -5.1466 H   0  0  0  0  0  0  0  0  0  0  0  0
   -7.4376   -0.6663   -2.3535 N   0  0  0  0  0  0  0  0  0  0  0  0
   -8.4352   -0.9928   -1.3614 C   0  0  0  0  0  0  0  0  0  0  0  0
   -7.7533   -0.2465   -3.2229 H   0  0  0  0  0  0  0  0  0  0  0  0
   -8.7948   -2.0192   -1.5262 H   0  0  0  0  0  0  0  0  0  0  0  0
   -7.9924   -0.9163   -0.3574 H   0  0  0  0  0  0  0  0  0  0  0  0
   -9.2783   -0.2912   -1.4448 H   0  0  0  0  0  0  0  0  0  0  0  0
  1  3  1  0  0  0  0
  1  7  1  0  0  0  0
  1  2  2  0  0  0  0
 23 25  1  0  0  0  0
 23 29  1  0  0  0  0
 23 24  2  0  0  0  0
 50 51  1  0  0  0  0
 51 59  1  0  0  0  0
 51 52  2  0  0  0  0
  8  9  1  0  0  0  0
  9 17  1  0  0  0  0
  9 10  2  0  0  0  0
 30 31  1  0  0  0  0
 31 39  1  0  0  0  0
 31 32  2  0  0  0  0
 40 41  1  0  0  0  0
 41 49  1  0  0  0  0
 41 42  2  0  0  0  0
 50 53  1  0  0  0  0
 30 33  1  0  0  0  0
 59 60  1  0  0  0  0
 17 18  1  0  0  0  0
  8 11  1  0  0  0  0
 11 12  1  0  0  0  0
 40 43  1  0  0  0  0
 43 44  1  0  0  0  0
 49 50  1  0  0  0  0
  7  8  1  0  0  0  0
 29 30  1  0  0  0  0
 39 40  1  0  0  0  0
 12 44  1  0  0  0  0
  3  4  1  0  0  0  0
  3  5  1  0  0  0  0
  3  6  1  0  0  0  0
 25 26  1  0  0  0  0
 25 27  1  0  0  0  0
 25 28  1  0  0  0  0
 53 56  1  0  0  0  0
 53 57  1  0  0  0  0
 53 58  1  0  0  0  0
 33 36  1  0  0  0  0
 33 37  1  0  0  0  0
 33 38  1  0  0  0  0
 60 62  1  0  0  0  0
 60 63  1  0  0  0  0
 60 64  1  0  0  0  0
 18 20  1  0  0  0  0
 18 21  1  0  0  0  0
 18 22  1  0  0  0  0
 11 15  1  0  0  0  0
 11 16  1  0  0  0  0
 43 47  1  0  0  0  0
 43 48  1  0  0  0  0
 50 55  1  0  0  0  0
  8 14  1  0  0  0  0
 30 35  1  0  0  0  0
 40 46  1  0  0  0  0
 59 61  1  0  0  0  0
 17 19  1  0  0  0  0
  7 13  1  0  0  0  0
 29 34  1  0  0  0  0
 49 54  1  0  0  0  0
 39 45  1  0  0  0  0
M  END
$$$$

  -OEChem-02062319033D

 64 63  0     1  0  0  0  0  0999 V2000
    4.3938   -3.3241   -0.2702 C   0  0  0  0  0  0  0  0  0  0  0  0
    3.8496   -3.5680    0.8003 O   0  0  0  0  0  0  0  0  0  0  0  0
    5.8746   -3.1417   -0.3183 C   0  0  0  0  0  0  0  0  0  0  0  0
    6.1742   -2.0923   -0.1657 H   0  0  0  0  0  0  0  0  0  0  0  0
    6.3941   -3.7103    0.4697 H   0  0  0  0  0  0  0  0  0  0  0  0
    6.3567   -3.4465   -1.2609 H   0  0  0  0  0  0  0  0  0  0  0  0
    3.7665   -3.1938   -1.4972 N   0  0  0  0  0  0  0  0  0  0  0  0
    2.3435   -3.3333   -1.6769 C   0  0  2  0  0  0  0  0  0  0  0  0
    2.0776   -3.9788   -3.0353 C   0  0  0  0  0  0  0  0  0  0  0  0
    2.9661   -4.2070   -3.8537 O   0  0  0  0  0  0  0  0  0  0  0  0
    1.5986   -2.0112   -1.4769 C   0  0  0  0  0  0  0  0  0  0  0  0
    2.0495   -0.7239   -2.6860 S   0  0  0  0  0  0  0  0  0  0  0  0
    4.3388   -2.9891   -2.3132 H   0  0  0  0  0  0  0  0  0  0  0  0
    2.0170   -4.0408   -0.9045 H   0  0  0  0  0  0  0  0  0  0  0  0
    0.5170   -2.1646   -1.5500 H   0  0  0  0  0  0  0  0  0  0  0  0
    1.8089   -1.6117   -0.4789 H   0  0  0  0  0  0  0  0  0  0  0  0
    0.7306   -4.2463   -3.2346 N   0  0  0  0  0  0  0  0  0  0  0  0
    0.2251   -4.8339   -4.4532 C   0  0  0  0  0  0  0  0  0  0  0  0
    0.0687   -4.0648   -2.4859 H   0  0  0  0  0  0  0  0  0  0  0  0
   -0.0782   -4.0361   -5.1472 H   0  0  0  0  0  0  0  0  0  0  0  0
    1.0118   -5.4455   -4.9191 H   0  0  0  0  0  0  0  0  0  0  0  0
   -0.6434   -5.4679   -4.2216 H   0  0  0  0  0  0  0  0  0  0  0  0
   -6.7256    2.0330   -0.2766 C   0  0  0  0  0  0  0  0  0  0  0  0
   -7.1824    1.1039   -0.9322 O   0  0  0  0  0  0  0  0  0  0  0  0
   -7.5276    2.6077    0.8435 C   0  0  0  0  0  0  0  0  0  0  0  0
   -8.1775    3.4344    0.5145 H   0  0  0  0  0  0  0  0  0  0  0  0
   -8.2057    1.8676    1.2980 H   0  0  0  0  0  0  0  0  0  0  0  0
   -6.9411    3.0162    1.6819 H   0  0  0  0  0  0  0  0  0  0  0  0
   -5.4935    2.6382   -0.4627 N   0  0  0  0  0  0  0  0  0  0  0  0
   -4.5619    2.2388   -1.4845 C   0  0  2  0  0  0  0  0  0  0  0  0
   -3.1535    2.4674   -0.9521 C   0  0  0  0  0  0  0  0  0  0  0  0
   -2.8634    3.3945   -0.1987 O   0  0  0  0  0  0  0  0  0  0  0  0
   -4.7883    3.0138   -2.7732 C   0  0  0  0  0  0  0  0  0  0  0  0
   -5.2337    3.4049    0.1551 H   0  0  0  0  0  0  0  0  0  0  0  0
   -4.7192    1.1682   -1.6549 H   0  0  0  0  0  0  0  0  0  0  0  0
   -4.6352    4.0886   -2.6221 H   0  0  0  0  0  0  0  0  0  0  0  0
   -4.0976    2.6887   -3.5582 H   0  0  0  0  0  0  0  0  0  0  0  0
   -5.8111    2.8719   -3.1387 H   0  0  0  0  0  0  0  0  0  0  0  0
   -2.2466    1.5400   -1.4507 N   0  0  0  0  0  0  0  0  0  0  0  0
   -1.7404    1.5907   -2.7989 C   0  0  2  0  0  0  0  0  0  0  0  0
   -2.9122    1.4769   -3.7718 C   0  0  0  0  0  0  0  0  0  0  0  0
   -3.0453    2.2115   -4.7486 O   0  0  0  0  0  0  0  0  0  0  0  0
   -0.6418    0.5544   -3.0481 C   0  0  0  0  0  0  0  0  0  0  0  0
    0.8594    0.8360   -2.0787 S   0  0  0  0  0  0  0  0  0  0  0  0
   -1.8905    0.8134   -0.8342 H   0  0  0  0  0  0  0  0  0  0  0  0
   -1.3102    2.5933   -2.9146 H   0  0  0  0  0  0  0  0  0  0  0  0
   -1.0015   -0.4519   -2.8098 H   0  0  0  0  0  0  0  0  0  0  0  0
   -0.3553    0.5611   -4.1053 H   0  0  0  0  0  0  0  0  0  0  0  0
   -3.8023    0.4769   -3.4068 N   0  0  0  0  0  0  0  0  0  0  0  0
   -5.0036    0.1916   -4.1560 C   0  0  2  0  0  0  0  0  0  0  0  0
   -6.0666   -0.2869   -3.1759 C   0  0  0  0  0  0  0  0  0  0  0  0
   -5.8059   -0.9522   -2.1756 O   0  0  0  0  0  0  0  0  0  0  0  0
   -4.7492   -0.8508   -5.2336 C   0  0  0  0  0  0  0  0  0  0  0  0
   -3.5915   -0.1124   -2.6068 H   0  0  0  0  0  0  0  0  0  0  0  0
   -5.3239    1.1351   -4.6112 H   0  0  0  0  0  0  0  0  0  0  0  0
   -4.4273   -1.8030   -4.7966 H   0  0  0  0  0  0  0  0  0  0  0  0
   -5.6538   -1.0449   -5.8193 H   0  0  0  0  0  0  0  0  0  0  0  0
   -3.9634   -0.5177   -5.9203 H   0  0  0  0  0  0  0  0  0  0  0  0
   -7.3450    0.0796   -3.5726 N   0  0  0  0  0  0  0  0  0  0  0  0
   -8.5279   -0.2927   -2.8321 C   0  0  0  0  0  0  0  0  0  0  0  0
   -7.4648    0.6652   -4.3939 H   0  0  0  0  0  0  0  0  0  0  0  0
   -8.9307   -1.2345   -3.2330 H   0  0  0  0  0  0  0  0  0  0  0  0
   -8.2692   -0.4268   -1.7714 H   0  0  0  0  0  0  0  0  0  0  0  0
   -9.2847    0.4998   -2.9277 H   0  0  0  0  0  0  0  0  0  0  0  0
  1  3  1  0  0  0  0
  1  7  1  0  0  0  0
  1  2  2  0  0  0  0
 23 25  1  0  0  0  0
 23 29  1  0  0  0  0
 23 24  2  0  0  0  0
 50 51  1  0  0  0  0
 51 59  1  0  0  0  0
 51 52  2  0  0  0  0
  8  9  1  0  0  0  0
  9 17  1  0  0  0  0
  9 10  2  0  0  0  0
 30 31  1  0  0  0  0
 31 39  1  0  0  0  0
 31 32  2  0  0  0  0
 40 41  1  0  0  0  0
 41 49  1  0  0  0  0
 41 42  2  0  0  0  0
 50 53  1  0  0  0  0
 30 33  1  0  0  0  0
 59 60  1  0  0  0  0
 17 18  1  0  0  0  0
  8 11  1  0  0  0  0
 11 12  1  0  0  0  0
 40 43  1  0  0  0  0
 43 44  1  0  0  0  0
 49 50  1  0  0  0  0
  7  8  1  0  0  0  0
 29 30  1  0  0  0  0
 39 40  1  0  0  0  0
 12 44  1  0  0  0  0
  3  4  1  0  0  0  0
  3  5  1  0  0  0  0
  3  6  1  0  0  0  0
 25 26  1  0  0  0  0
 25 27  1  0  0  0  0
 25 28  1  0  0  0  0
 53 56  1  0  0  0  0
 53 57  1  0  0  0  0
 53 58  1  0  0  0  0
 33 36  1  0  0  0  0
 33 37  1  0  0  0  0
 33 38  1  0  0  0  0
 60 62  1  0  0  0  0
 60 63  1  0  0  0  0
 60 64  1  0  0  0  0
 18 20  1  0  0  0  0
 18 21  1  0  0  0  0
 18 22  1  0  0  0  0
 11 15  1  0  0  0  0
 11 16  1  0  0  0  0
 43 47  1  0  0  0  0
 43 48  1  0  0  0  0
 50 55  1  0  0  0  0
  8 14  1  0  0  0  0
 30 35  1  0  0  0  0
 40 46  1  0  0  0  0
 59 61  1  0  0  0  0
 17 19  1  0  0  0  0
  7 13  1  0  0  0  0
 29 34  1  0  0  0  0
 49 54  1  0  0  0  0
 39 45  1  0  0  0  0
M  END
$$$$

  -OEChem-02062319033D

 64 63  0     1  0  0  0  0  0999 V2000
    3.6711   -4.1372   -0.0724 C   0  0  0  0  0  0  0  0  0  0  0  0
    2.9250   -4.4899    0.8335 O   0  0  0  0  0  0  0  0  0  0  0  0
    5.1458   -4.1099    0.1572 C   0  0  0  0  0  0  0  0  0  0  0  0
    5.4938   -3.1372    0.5404 H   0  0  0  0  0  0  0  0  0  0  0  0
    5.4684   -4.8504    0.9067 H   0  0  0  0  0  0  0  0  0  0  0  0
    5.7650   -4.3094   -0.7320 H   0  0  0  0  0  0  0  0  0  0  0  0
    3.2879   -3.7445   -1.3432 N   0  0  0  0  0  0  0  0  0  0  0  0
    1.9143   -3.6993   -1.7768 C   0  0  2  0  0  0  0  0  0  0  0  0
    1.8487   -4.0856   -3.2530 C   0  0  0  0  0  0  0  0  0  0  0  0
    2.8500   -4.2735   -3.9411 O   0  0  0  0  0  0  0  0  0  0  0  0
    1.2510   -2.3540   -1.4713 C   0  0  0  0  0  0  0  0  0  0  0  0
    2.0121   -0.9453   -2.3423 S   0  0  0  0  0  0  0  0  0  0  0  0
    4.0125   -3.4742   -2.0046 H   0  0  0  0  0  0  0  0  0  0  0  0
    1.3994   -4.4823   -1.2064 H   0  0  0  0  0  0  0  0  0  0  0  0
    0.1918   -2.3763   -1.7476 H   0  0  0  0  0  0  0  0  0  0  0  0
    1.3080   -2.1451   -0.3976 H   0  0  0  0  0  0  0  0  0  0  0  0
    0.5433   -4.1709   -3.7156 N   0  0  0  0  0  0  0  0  0  0  0  0
    0.2220   -4.4970   -5.0854 C   0  0  0  0  0  0  0  0  0  0  0  0
   -0.2268   -4.0418   -3.0661 H   0  0  0  0  0  0  0  0  0  0  0  0
    0.1123   -3.5701   -5.6675 H   0  0  0  0  0  0  0  0  0  0  0  0
    1.0298   -5.1070   -5.5161 H   0  0  0  0  0  0  0  0  0  0  0  0
   -0.7209   -5.0628   -5.1160 H   0  0  0  0  0  0  0  0  0  0  0  0
   -6.7256    2.0330   -0.2766 C   0  0  0  0  0  0  0  0  0  0  0  0
   -7.1824    1.1039   -0.9322 O   0  0  0  0  0  0  0  0  0  0  0  0
   -7.5276    2.6077    0.8435 C   0  0  0  0  0  0  0  0  0  0  0  0
   -8.1775    3.4344    0.5145 H   0  0  0  0  0  0  0  0  0  0  0  0
   -8.2057    1.8676    1.2980 H   0  0  0  0  0  0  0  0  0  0  0  0
   -6.9411    3.0162    1.6819 H   0  0  0  0  0  0  0  0  0  0  0  0
   -5.4935    2.6382   -0.4627 N   0  0  0  0  0  0  0  0  0  0  0  0
   -4.5619    2.2388   -1.4845 C   0  0  2  0  0  0  0  0  0  0  0  0
   -3.1535    2.4674   -0.9521 C   0  0  0  0  0  0  0  0  0  0  0  0
   -2.8634    3.3945   -0.1987 O   0  0  0  0  0  0  0  0  0  0  0  0
   -4.7883    3.0138   -2.7732 C   0  0  0  0  0  0  0  0  0  0  0  0
   -5.2337    3.4049    0.1551 H   0  0  0  0  0  0  0  0  0  0  0  0
   -4.7192    1.1682   -1.6549 H   0  0  0  0  0  0  0  0  0  0  0  0
   -4.6352    4.0886   -2.6221 H   0  0  0  0  0  0  0  0  0  0  0  0
   -4.0976    2.6887   -3.5582 H   0  0  0  0  0  0  0  0  0  0  0  0
   -5.8111    2.8719   -3.1387 H   0  0  0  0  0  0  0  0  0  0  0  0
   -2.2466    1.5400   -1.4507 N   0  0  0  0  0  0  0  0  0  0  0  0
   -1.5027    1.7520   -2.6665 C   0  0  2  0  0  0  0  0  0  0  0  0
   -2.4846    1.9229   -3.8237 C   0  0  0  0  0  0  0  0  0  0  0  0
   -2.3813    2.8149   -4.6634 O   0  0  0  0  0  0  0  0  0  0  0  0
   -0.4614    0.6569   -2.9107 C   0  0  0  0  0  0  0  0  0  0  0  0
    0.8572    0.6157   -1.6729 S   0  0  0  0  0  0  0  0  0  0  0  0
   -2.0656    0.6897   -0.9225 H   0  0  0  0  0  0  0  0  0  0  0  0
   -0.9818    2.7079   -2.5303 H   0  0  0  0  0  0  0  0  0  0  0  0
   -0.9356   -0.3299   -2.9169 H   0  0  0  0  0  0  0  0  0  0  0  0
    0.0110    0.8026   -3.8882 H   0  0  0  0  0  0  0  0  0  0  0  0
   -3.5013    0.9789   -3.7932 N   0  0  0  0  0  0  0  0  0  0  0  0
   -4.5660    0.9489   -4.7686 C   0  0  2  0  0  0  0  0  0  0  0  0
   -5.8226    0.4364   -4.0775 C   0  0  0  0  0  0  0  0  0  0  0  0
   -5.7997   -0.4052   -3.1818 O   0  0  0  0  0  0  0  0  0  0  0  0
   -4.2031    0.0720   -5.9569 C   0  0  0  0  0  0  0  0  0  0  0  0
   -3.4852    0.2495   -3.0866 H   0  0  0  0  0  0  0  0  0  0  0  0
   -4.7242    1.9822   -5.0960 H   0  0  0  0  0  0  0  0  0  0  0  0
   -4.0408   -0.9672   -5.6484 H   0  0  0  0  0  0  0  0  0  0  0  0
   -4.9994    0.0731   -6.7086 H   0  0  0  0  0  0  0  0  0  0  0  0
   -3.2827    0.4245   -6.4348 H   0  0  0  0  0  0  0  0  0  0  0  0
   -6.9758    0.9974   -4.6081 N   0  0  0  0  0  0  0  0  0  0  0  0
   -8.2983    0.6405   -4.1505 C   0  0  0  0  0  0  0  0  0  0  0  0
   -6.8991    1.7168   -5.3211 H   0  0  0  0  0  0  0  0  0  0  0  0
   -8.6944   -0.1757   -4.7726 H   0  0  0  0  0  0  0  0  0  0  0  0
   -8.2469    0.3106   -3.1024 H   0  0  0  0  0  0  0  0  0  0  0  0
   -8.9612    1.5149   -4.2275 H   0  0  0  0  0  0  0  0  0  0  0  0
  1  3  1  0  0  0  0
  1  7  1  0  0  0  0
  1  2  2  0  0  0  0
 23 25  1  0  0  0  0
 23 29  1  0  0  0  0
 23 24  2  0  0  0  0
 50 51  1  0  0  0  0
 51 59  1  0  0  0  0
 51 52  2  0  0  0  0
  8  9  1  0  0  0  0
  9 17  1  0  0  0  0
  9 10  2  0  0  0  0
 30 31  1  0  0  0  0
 31 39  1  0  0  0  0
 31 32  2  0  0  0  0
 40 41  1  0  0  0  0
 41 49  1  0  0  0  0
 41 42  2  0  0  0  0
 50 53  1  0  0  0  0
 30 33  1  0  0  0  0
 59 60  1  0  0  0  0
 17 18  1  0  0  0  0
  8 11  1  0  0  0  0
 11 12  1  0  0  0  0
 40 43  1  0  0  0  0
 43 44  1  0  0  0  0
 49 50  1  0  0  0  0
  7  8  1  0  0  0  0
 29 30  1  0  0  0  0
 39 40  1  0  0  0  0
 12 44  1  0  0  0  0
  3  4  1  0  0  0  0
  3  5  1  0  0  0  0
  3  6  1  0  0  0  0
 25 26  1  0  0  0  0
 25 27  1  0  0  0  0
 25 28  1  0  0  0  0
 53 56  1  0  0  0  0
 53 57  1  0  0  0  0
 53 58  1  0  0  0  0
 33 36  1  0  0  0  0
 33 37  1  0  0  0  0
 33 38  1  0  0  0  0
 60 62  1  0  0  0  0
 60 63  1  0  0  0  0
 60 64  1  0  0  0  0
 18 20  1  0  0  0  0
 18 21  1  0  0  0  0
 18 22  1  0  0  0  0
 11 15  1  0  0  0  0
 11 16  1  0  0  0  0
 43 47  1  0  0  0  0
 43 48  1  0  0  0  0
 50 55  1  0  0  0  0
  8 14  1  0  0  0  0
 30 35  1  0  0  0  0
 40 46  1  0  0  0  0
 59 61  1  0  0  0  0
 17 19  1  0  0  0  0
  7 13  1  0  0  0  0
 29 34  1  0  0  0  0
 49 54  1  0  0  0  0
 39 45  1  0  0  0  0
M  END
$$$$

  -OEChem-02062319033D

 64 63  0     1  0  0  0  0  0999 V2000
    2.8632   -4.8888   -0.1436 C   0  0  0  0  0  0  0  0  0  0  0  0
    1.9405   -5.3001    0.5501 O   0  0  0  0  0  0  0  0  0  0  0  0
    4.2697   -5.0578    0.3270 C   0  0  0  0  0  0  0  0  0  0  0  0
    4.6176   -4.2026    0.9284 H   0  0  0  0  0  0  0  0  0  0  0  0
    4.3928   -5.9395    0.9763 H   0  0  0  0  0  0  0  0  0  0  0  0
    5.0220   -5.1772   -0.4691 H   0  0  0  0  0  0  0  0  0  0  0  0
    2.7478   -4.2580   -1.3702 N   0  0  0  0  0  0  0  0  0  0  0  0
    1.4831   -3.9960   -2.0092 C   0  0  2  0  0  0  0  0  0  0  0  0
    1.6553   -4.1307   -3.5208 C   0  0  0  0  0  0  0  0  0  0  0  0
    2.7467   -4.3123   -4.0568 O   0  0  0  0  0  0  0  0  0  0  0  0
    0.8824   -2.6539   -1.5839 C   0  0  0  0  0  0  0  0  0  0  0  0
    1.8960   -1.2137   -2.0542 S   0  0  0  0  0  0  0  0  0  0  0  0
    3.5989   -3.9646   -1.8447 H   0  0  0  0  0  0  0  0  0  0  0  0
    0.8140   -4.8005   -1.6793 H   0  0  0  0  0  0  0  0  0  0  0  0
   -0.1078   -2.5172   -2.0305 H   0  0  0  0  0  0  0  0  0  0  0  0
    0.7606   -2.6276   -0.4957 H   0  0  0  0  0  0  0  0  0  0  0  0
    0.4524   -3.9994   -4.1999 N   0  0  0  0  0  0  0  0  0  0  0  0
    0.3595   -4.0646   -5.6397 C   0  0  0  0  0  0  0  0  0  0  0  0
   -0.4100   -3.8942   -3.6736 H   0  0  0  0  0  0  0  0  0  0  0  0
    0.4295   -3.0499   -6.0585 H   0  0  0  0  0  0  0  0  0  0  0  0
    1.1817   -4.6808   -6.0325 H   0  0  0  0  0  0  0  0  0  0  0  0
   -0.6035   -4.5132   -5.9249 H   0  0  0  0  0  0  0  0  0  0  0  0
   -6.7256    2.0330   -0.2766 C   0  0  0  0  0  0  0  0  0  0  0  0
   -7.1824    1.1039   -0.9322 O   0  0  0  0  0  0  0  0  0  0  0  0
   -7.5276    2.6077    0.8435 C   0  0  0  0  0  0  0  0  0  0  0  0
   -8.1775    3.4344    0.5145 H   0  0  0  0  0  0  0  0  0  0  0  0
   -8.2057    1.8676    1.2980 H   0  0  0  0  0  0  0  0  0  0  0  0
   -6.9411    3.0162    1.6819 H   0  0  0  0  0  0  0  0  0  0  0  0
   -5.4935    2.6382   -0.4627 N   0  0  0  0  0  0  0  0  0  0  0  0
   -4.5619    2.2388   -1.4845 C   0  0  2  0  0  0  0  0  0  0  0  0
   -3.1535    2.4674   -0.9521 C   0  0  0  0  0  0  0  0  0  0  0  0
   -2.8634    3.3945   -0.1987 O   0  0  0  0  0  0  0  0  0  0  0  0
   -4.7883    3.0138   -2.7732 C   0  0  0  0  0  0  0  0  0  0  0  0
   -5.2337    3.4049    0.1551 H   0  0  0  0  0  0  0  0  0  0  0  0
   -4.7192    1.1682   -1.6549 H   0  0  0  0  0  0  0  0  0  0  0  0
   -4.6352    4.0886   -2.6221 H   0  0  0  0  0  0  0  0  0  0  0  0
   -4.0976    2.6887   -3.5582 H   0  0  0  0  0  0  0  0  0  0  0  0
   -5.8111    2.8719   -3.1387 H   0  0  0  0  0  0  0  0  0  0  0  0
   -2.2466    1.5400   -1.4507 N   0  0  0  0  0  0  0  0  0  0  0  0
   -1.2810    1.8632   -2.4703 C   0  0  2  0  0  0  0  0  0  0  0  0
   -2.0213    2.3227   -3.7247 C   0  0  0  0  0  0  0  0  0  0  0  0
   -1.6986    3.3217   -4.3645 O   0  0  0  0  0  0  0  0  0  0  0  0
   -0.3014    0.7160   -2.7296 C   0  0  0  0  0  0  0  0  0  0  0  0
    0.7646    0.3346   -1.3186 S   0  0  0  0  0  0  0  0  0  0  0  0
   -2.2309    0.6013   -1.0589 H   0  0  0  0  0  0  0  0  0  0  0  0
   -0.7203    2.7231   -2.0831 H   0  0  0  0  0  0  0  0  0  0  0  0
   -0.8422   -0.2001   -2.9885 H   0  0  0  0  0  0  0  0  0  0  0  0
    0.3498    0.9652   -3.5745 H   0  0  0  0  0  0  0  0  0  0  0  0
   -3.0972    1.5012   -4.0297 N   0  0  0  0  0  0  0  0  0  0  0  0
   -3.9671    1.7432   -5.1569 C   0  0  2  0  0  0  0  0  0  0  0  0
   -5.3641    1.2646   -4.7841 C   0  0  0  0  0  0  0  0  0  0  0  0
   -5.5691    0.2925   -4.0602 O   0  0  0  0  0  0  0  0  0  0  0  0
   -3.4651    1.0348   -6.4054 C   0  0  0  0  0  0  0  0  0  0  0  0
   -3.2660    0.6702   -3.4706 H   0  0  0  0  0  0  0  0  0  0  0  0
   -3.9824    2.8267   -5.3177 H   0  0  0  0  0  0  0  0  0  0  0  0
   -3.4427   -0.0518   -6.2633 H   0  0  0  0  0  0  0  0  0  0  0  0
   -4.1098    1.2424   -7.2658 H   0  0  0  0  0  0  0  0  0  0  0  0
   -2.4488    1.3583   -6.6550 H   0  0  0  0  0  0  0  0  0  0  0  0
   -6.3550    2.0245   -5.3896 N   0  0  0  0  0  0  0  0  0  0  0  0
   -7.7622    1.7433   -5.2266 C   0  0  0  0  0  0  0  0  0  0  0  0
   -6.0948    2.8367   -5.9414 H   0  0  0  0  0  0  0  0  0  0  0  0
   -8.1018    1.0852   -6.0400 H   0  0  0  0  0  0  0  0  0  0  0  0
   -7.9270    1.2456   -4.2596 H   0  0  0  0  0  0  0  0  0  0  0  0
   -8.3300    2.6849   -5.2558 H   0  0  0  0  0  0  0  0  0  0  0  0
  1  3  1  0  0  0  0
  1  7  1  0  0  0  0
  1  2  2  0  0  0  0
 23 25  1  0  0  0  0
 23 29  1  0  0  0  0
 23 24  2  0  0  0  0
 50 51  1  0  0  0  0
 51 59  1  0  0  0  0
 51 52  2  0  0  0  0
  8  9  1  0  0  0  0
  9 17  1  0  0  0  0
  9 10  2  0  0  0  0
 30 31  1  0  0  0  0
 31 39  1  0  0  0  0
 31 32  2  0  0  0  0
 40 41  1  0  0  0  0
 41 49  1  0  0  0  0
 41 42  2  0  0  0  0
 50 53  1  0  0  0  0
 30 33  1  0  0  0  0
 59 60  1  0  0  0  0
 17 18  1  0  0  0  0
  8 11  1  0  0  0  0
 11 12  1  0  0  0  0
 40 43  1  0  0  0  0
 43 44  1  0  0  0  0
 49 50  1  0  0  0  0
  7  8  1  0  0  0  0
 29 30  1  0  0  0  0
 39 40  1  0  0  0  0
 12 44  1  0  0  0  0
  3  4  1  0  0  0  0
  3  5  1  0  0  0  0
  3  6  1  0  0  0  0
 25 26  1  0  0  0  0
 25 27  1  0  0  0  0
 25 28  1  0  0  0  0
 53 56  1  0  0  0  0
 53 57  1  0  0  0  0
 53 58  1  0  0  0  0
 33 36  1  0  0  0  0
 33 37  1  0  0  0  0
 33 38  1  0  0  0  0
 60 62  1  0  0  0  0
 60 63  1  0  0  0  0
 60 64  1  0  0  0  0
 18 20  1  0  0  0  0
 18 21  1  0  0  0  0
 18 22  1  0  0  0  0
 11 15  1  0  0  0  0
 11 16  1  0  0  0  0
 43 47  1  0  0  0  0
 43 48  1  0  0  0  0
 50 55  1  0  0  0  0
  8 14  1  0  0  0  0
 30 35  1  0  0  0  0
 40 46  1  0  0  0  0
 59 61  1  0  0  0  0
 17 19  1  0  0  0  0
  7 13  1  0  0  0  0
 29 34  1  0  0  0  0
 49 54  1  0  0  0  0
 39 45  1  0  0  0  0
M  END
$$$$

  -OEChem-02062319033D

 64 63  0     1  0  0  0  0  0999 V2000
    2.0254   -5.5278   -0.4787 C   0  0  0  0  0  0  0  0  0  0  0  0
    0.9633   -5.9434   -0.0305 O   0  0  0  0  0  0  0  0  0  0  0  0
    3.3062   -5.9207    0.1797 C   0  0  0  0  0  0  0  0  0  0  0  0
    3.6053   -5.2158    0.9720 H   0  0  0  0  0  0  0  0  0  0  0  0
    3.2407   -6.9034    0.6739 H   0  0  0  0  0  0  0  0  0  0  0  0
    4.1782   -5.9910   -0.4900 H   0  0  0  0  0  0  0  0  0  0  0  0
    2.1832   -4.6993   -1.5763 N   0  0  0  0  0  0  0  0  0  0  0  0
    1.0791   -4.2034   -2.3583 C   0  0  2  0  0  0  0  0  0  0  0  0
    1.5106   -4.1111   -3.8205 C   0  0  0  0  0  0  0  0  0  0  0  0
    2.6633   -4.3207   -4.1929 O   0  0  0  0  0  0  0  0  0  0  0  0
    0.5181   -2.8902   -1.8070 C   0  0  0  0  0  0  0  0  0  0  0  0
    1.7091   -1.5108   -1.8414 S   0  0  0  0  0  0  0  0  0  0  0  0
    3.1262   -4.4268   -1.8445 H   0  0  0  0  0  0  0  0  0  0  0  0
    0.3007   -4.9736   -2.2908 H   0  0  0  0  0  0  0  0  0  0  0  0
   -0.3615   -2.5777   -2.3792 H   0  0  0  0  0  0  0  0  0  0  0  0
    0.2040   -3.0263   -0.7665 H   0  0  0  0  0  0  0  0  0  0  0  0
    0.4642   -3.7436   -4.6544 N   0  0  0  0  0  0  0  0  0  0  0  0
    0.6282   -3.5661   -6.0783 C   0  0  0  0  0  0  0  0  0  0  0  0
   -0.4682   -3.6321   -4.2672 H   0  0  0  0  0  0  0  0  0  0  0  0
    0.8517   -2.5107   -6.2934 H   0  0  0  0  0  0  0  0  0  0  0  0
    1.4572   -4.1960   -6.4331 H   0  0  0  0  0  0  0  0  0  0  0  0
   -0.2994   -3.8566   -6.5931 H   0  0  0  0  0  0  0  0  0  0  0  0
   -6.7256    2.0330   -0.2766 C   0  0  0  0  0  0  0  0  0  0  0  0
   -7.1824    1.1039   -0.9322 O   0  0  0  0  0  0  0  0  0  0  0  0
   -7.5276    2.6077    0.8435 C   0  0  0  0  0  0  0  0  0  0  0  0
   -8.1775    3.4344    0.5145 H   0  0  0  0  0  0  0  0  0  0  0  0
   -8.2057    1.8676    1.2980 H   0  0  0  0  0  0  0  0  0  0  0  0
   -6.9411    3.0162    1.6819 H   0  0  0  0  0  0  0  0  0  0  0  0
   -5.4935    2.6382   -0.4627 N   0  0  0  0  0  0  0  0  0  0  0  0
   -4.5619    2.2388   -1.4845 C   0  0  2  0  0  0  0  0  0  0  0  0
   -3.1535    2.4674   -0.9521 C   0  0  0  0  0  0  0  0  0  0  0  0
   -2.8634    3.3945   -0.1987 O   0  0  0  0  0  0  0  0  0  0  0  0
   -4.7883    3.0138   -2.7732 C   0  0  0  0  0  0  0  0  0  0  0  0
   -5.2337    3.4049    0.1551 H   0  0  0  0  0  0  0  0  0  0  0  0
   -4.7192    1.1682   -1.6549 H   0  0  0  0  0  0  0  0  0  0  0  0
   -4.6352    4.0886   -2.6221 H   0  0  0  0  0  0  0  0  0  0  0  0
   -4.0976    2.6887   -3.5582 H   0  0  0  0  0  0  0  0  0  0  0  0
   -5.8111    2.8719   -3.1387 H   0  0  0  0  0  0  0  0  0  0  0  0
   -2.2466    1.5400   -1.4507 N   0  0  0  0  0  0  0  0  0  0  0  0
   -1.0904    1.9170   -2.2237 C   0  0  2  0  0  0  0  0  0  0  0  0
   -1.5537    2.6492   -3.4815 C   0  0  0  0  0  0  0  0  0  0  0  0
   -1.0438    3.6974   -3.8722 O   0  0  0  0  0  0  0  0  0  0  0  0
   -0.1726    0.7276   -2.5171 C   0  0  0  0  0  0  0  0  0  0  0  0
    0.5877    0.0118   -1.0398 S   0  0  0  0  0  0  0  0  0  0  0  0
   -2.3753    0.5544   -1.2341 H   0  0  0  0  0  0  0  0  0  0  0  0
   -0.5436    2.6380   -1.6034 H   0  0  0  0  0  0  0  0  0  0  0  0
   -0.7276   -0.0713   -3.0195 H   0  0  0  0  0  0  0  0  0  0  0  0
    0.6379    1.0378   -3.1854 H   0  0  0  0  0  0  0  0  0  0  0  0
   -2.6175    2.0081   -4.1002 N   0  0  0  0  0  0  0  0  0  0  0  0
   -3.2479    2.5204   -5.2943 C   0  0  2  0  0  0  0  0  0  0  0  0
   -4.7222    2.1414   -5.2475 C   0  0  0  0  0  0  0  0  0  0  0  0
   -5.1299    1.0934   -4.7510 O   0  0  0  0  0  0  0  0  0  0  0  0
   -2.5853    1.9720   -6.5485 C   0  0  0  0  0  0  0  0  0  0  0  0
   -2.9489    1.1211   -3.7326 H   0  0  0  0  0  0  0  0  0  0  0  0
   -3.1493    3.6109   -5.2611 H   0  0  0  0  0  0  0  0  0  0  0  0
   -2.6738    0.8807   -6.5994 H   0  0  0  0  0  0  0  0  0  0  0  0
   -3.0458    2.3834   -7.4528 H   0  0  0  0  0  0  0  0  0  0  0  0
   -1.5185    2.2200   -6.5660 H   0  0  0  0  0  0  0  0  0  0  0  0
   -5.5250    3.0910   -5.8638 N   0  0  0  0  0  0  0  0  0  0  0  0
   -6.9561    2.9404   -5.9873 C   0  0  0  0  0  0  0  0  0  0  0  0
   -5.1068    3.9485   -6.2125 H   0  0  0  0  0  0  0  0  0  0  0  0
   -7.1934    2.4621   -6.9490 H   0  0  0  0  0  0  0  0  0  0  0  0
   -7.3312    2.3145   -5.1642 H   0  0  0  0  0  0  0  0  0  0  0  0
   -7.4340    3.9302   -5.9424 H   0  0  0  0  0  0  0  0  0  0  0  0
  1  3  1  0  0  0  0
  1  7  1  0  0  0  0
  1  2  2  0  0  0  0
 23 25  1  0  0  0  0
 23 29  1  0  0  0  0
 23 24  2  0  0  0  0
 50 51  1  0  0  0  0
 51 59  1  0  0  0  0
 51 52  2  0  0  0  0
  8  9  1  0  0  0  0
  9 17  1  0  0  0  0
  9 10  2  0  0  0  0
 30 31  1  0  0  0  0
 31 39  1  0  0  0  0
 31 32  2  0  0  0  0
 40 41  1  0  0  0  0
 41 49  1  0  0  0  0
 41 42  2  0  0  0  0
 50 53  1  0  0  0  0
 30 33  1  0  0  0  0
 59 60  1  0  0  0  0
 17 18  1  0  0  0  0
  8 11  1  0  0  0  0
 11 12  1  0  0  0  0
 40 43  1  0  0  0  0
 43 44  1  0  0  0  0
 49 50  1  0  0  0  0
  7  8  1  0  0  0  0
 29 30  1  0  0  0  0
 39 40  1  0  0  0  0
 12 44  1  0  0  0  0
  3  4  1  0  0  0  0
  3  5  1  0  0  0  0
  3  6  1  0  0  0  0
 25 26  1  0  0  0  0
 25 27  1  0  0  0  0
 25 28  1  0  0  0  0
 53 56  1  0  0  0  0
 53 57  1  0  0  0  0
 53 58  1  0  0  0  0
 33 36  1  0  0  0  0
 33 37  1  0  0  0  0
 33 38  1  0  0  0  0
 60 62  1  0  0  0  0
 60 63  1  0  0  0  0
 60 64  1  0  0  0  0
 18 20  1  0  0  0  0
 18 21  1  0  0  0  0
 18 22  1  0  0  0  0
 11 15  1  0  0  0  0
 11 16  1  0  0  0  0
 43 47  1  0  0  0  0
 43 48  1  0  0  0  0
 50 55  1  0  0  0  0
  8 14  1  0  0  0  0
 30 35  1  0  0  0  0
 40 46  1  0  0  0  0
 59 61  1  0  0  0  0
 17 19  1  0  0  0  0
  7 13  1  0  0  0  0
 29 34  1  0  0  0  0
 49 54  1  0  0  0  0
 39 45  1  0  0  0  0
M  END
$$$$

  -OEChem-02062319033D

 64 63  0     1  0  0  0  0  0999 V2000
    1.2147   -6.0106   -1.0551 C   0  0  0  0  0  0  0  0  0  0  0  0
    0.0600   -6.3760   -0.8688 O   0  0  0  0  0  0  0  0  0  0  0  0
    2.3208   -6.6399   -0.2748 C   0  0  0  0  0  0  0  0  0  0  0  0
    2.5259   -6.1078    0.6680 H   0  0  0  0  0  0  0  0  0  0  0  0
    2.0906   -7.6763    0.0199 H   0  0  0  0  0  0  0  0  0  0  0  0
    3.2913   -6.6951   -0.7934 H   0  0  0  0  0  0  0  0  0  0  0  0
    1.6324   -5.0383   -1.9475 N   0  0  0  0  0  0  0  0  0  0  0  0
    0.7299   -4.3071   -2.8003 C   0  0  2  0  0  0  0  0  0  0  0  0
    1.4244   -4.0281   -4.1317 C   0  0  0  0  0  0  0  0  0  0  0  0
    2.6055   -4.2980   -4.3402 O   0  0  0  0  0  0  0  0  0  0  0  0
    0.1827   -3.0470   -2.1253 C   0  0  0  0  0  0  0  0  0  0  0  0
    1.4643   -1.8164   -1.7182 S   0  0  0  0  0  0  0  0  0  0  0  0
    2.6267   -4.8294   -2.0041 H   0  0  0  0  0  0  0  0  0  0  0  0
   -0.1055   -4.9898   -2.9995 H   0  0  0  0  0  0  0  0  0  0  0  0
   -0.5519   -2.5537   -2.7702 H   0  0  0  0  0  0  0  0  0  0  0  0
   -0.3238   -3.3139   -1.1915 H   0  0  0  0  0  0  0  0  0  0  0  0
    0.5778   -3.4207   -5.0482 N   0  0  0  0  0  0  0  0  0  0  0  0
    1.0098   -3.0354   -6.3713 C   0  0  0  0  0  0  0  0  0  0  0  0
   -0.3976   -3.2732   -4.8063 H   0  0  0  0  0  0  0  0  0  0  0  0
    1.3502   -1.9895   -6.3564 H   0  0  0  0  0  0  0  0  0  0  0  0
    1.8376   -3.6857   -6.6905 H   0  0  0  0  0  0  0  0  0  0  0  0
    0.1707   -3.1378   -7.0752 H   0  0  0  0  0  0  0  0  0  0  0  0
   -6.7256    2.0330   -0.2766 C   0  0  0  0  0  0  0  0  0  0  0  0
   -7.1824    1.1039   -0.9322 O   0  0  0  0  0  0  0  0  0  0  0  0
   -7.5276    2.6077    0.8435 C   0  0  0  0  0  0  0  0  0  0  0  0
   -8.1775    3.4344    0.5145 H   0  0  0  0  0  0  0  0  0  0  0  0
   -8.2057    1.8676    1.2980 H   0  0  0  0  0  0  0  0  0  0  0  0
   -6.9411    3.0162    1.6819 H   0  0  0  0  0  0  0  0  0  0  0  0
   -5.4935    2.6382   -0.4627 N   0  0  0  0  0  0  0  0  0  0  0  0
   -4.5619    2.2388   -1.4845 C   0  0  2  0  0  0  0  0  0  0  0  0
   -3.1535    2.4674   -0.9521 C   0  0  0  0  0  0  0  0  0  0  0  0
   -2.8634    3.3945   -0.1987 O   0  0  0  0  0  0  0  0  0  0  0  0
   -4.7883    3.0138   -2.7732 C   0  0  0  0  0  0  0  0  0  0  0  0
   -5.2337    3.4049    0.1551 H   0  0  0  0  0  0  0  0  0  0  0  0
   -4.7192    1.1682   -1.6549 H   0  0  0  0  0  0  0  0  0  0  0  0
   -4.6352    4.0886   -2.6221 H   0  0  0  0  0  0  0  0  0  0  0  0
   -4.0976    2.6887   -3.5582 H   0  0  0  0  0  0  0  0  0  0  0  0
   -5.8111    2.8719   -3.1387 H   0  0  0  0  0  0  0  0  0  0  0  0
   -2.2466    1.5400   -1.4507 N   0  0  0  0  0  0  0  0  0  0  0  0
   -0.9439    1.9096   -1.9435 C   0  0  2  0  0  0  0  0  0  0  0  0
   -1.1137    2.8800   -3.1106 C   0  0  0  0  0  0  0  0  0  0  0  0
   -0.4614    3.9163   -3.2202 O   0  0  0  0  0  0  0  0  0  0  0  0
   -0.0839    0.6910   -2.2875 C   0  0  0  0  0  0  0  0  0  0  0  0
    0.3388   -0.3306   -0.8556 S   0  0  0  0  0  0  0  0  0  0  0  0
   -2.4888    0.5521   -1.4363 H   0  0  0  0  0  0  0  0  0  0  0  0
   -0.4636    2.4584   -1.1239 H   0  0  0  0  0  0  0  0  0  0  0  0
   -0.5995    0.0477   -3.0080 H   0  0  0  0  0  0  0  0  0  0  0  0
    0.8558    1.0154   -2.7476 H   0  0  0  0  0  0  0  0  0  0  0  0
   -2.0949    2.4651   -3.9997 N   0  0  0  0  0  0  0  0  0  0  0  0
   -2.4572    3.2275   -5.1716 C   0  0  2  0  0  0  0  0  0  0  0  0
   -3.9407    3.0069   -5.4362 C   0  0  0  0  0  0  0  0  0  0  0  0
   -4.5120    1.9428   -5.2071 O   0  0  0  0  0  0  0  0  0  0  0  0
   -1.6237    2.8197   -6.3765 C   0  0  0  0  0  0  0  0  0  0  0  0
   -2.5555    1.5715   -3.8547 H   0  0  0  0  0  0  0  0  0  0  0  0
   -2.2815    4.2814   -4.9300 H   0  0  0  0  0  0  0  0  0  0  0  0
   -1.7865    1.7667   -6.6336 H   0  0  0  0  0  0  0  0  0  0  0  0
   -1.8797    3.4183   -7.2569 H   0  0  0  0  0  0  0  0  0  0  0  0
   -0.5553    2.9510   -6.1737 H   0  0  0  0  0  0  0  0  0  0  0  0
   -4.5424    4.1242   -5.9983 N   0  0  0  0  0  0  0  0  0  0  0  0
   -5.9349    4.1504   -6.3806 C   0  0  0  0  0  0  0  0  0  0  0  0
   -4.0024    4.9764   -6.1159 H   0  0  0  0  0  0  0  0  0  0  0  0
   -6.0310    3.8612   -7.4375 H   0  0  0  0  0  0  0  0  0  0  0  0
   -6.5002    3.4444   -5.7545 H   0  0  0  0  0  0  0  0  0  0  0  0
   -6.3344    5.1657   -6.2405 H   0  0  0  0  0  0  0  0  0  0  0  0
  1  3  1  0  0  0  0
  1  7  1  0  0  0  0
  1  2  2  0  0  0  0
 23 25  1  0  0  0  0
 23 29  1  0  0  0  0
 23 24  2  0  0  0  0
 50 51  1  0  0  0  0
 51 59  1  0  0  0  0
 51 52  2  0  0  0  0
  8  9  1  0  0  0  0
  9 17  1  0  0  0  0
  9 10  2  0  0  0  0
 30 31  1  0  0  0  0
 31 39  1  0  0  0  0
 31 32  2  0  0  0  0
 40 41  1  0  0  0  0
 41 49  1  0  0  0  0
 41 42  2  0  0  0  0
 50 53  1  0  0  0  0
 30 33  1  0  0  0  0
 59 60  1  0  0  0  0
 17 18  1  0  0  0  0
  8 11  1  0  0  0  0
 11 12  1  0  0  0  0
 40 43  1  0  0  0  0
 43 44  1  0  0  0  0
 49 50  1  0  0  0  0
  7  8  1  0  0  0  0
 29 30  1  0  0  0  0
 39 40  1  0  0  0  0
 12 44  1  0  0  0  0
  3  4  1  0  0  0  0
  3  5  1  0  0  0  0
  3  6  1  0  0  0  0
 25 26  1  0  0  0  0
 25 27  1  0  0  0  0
 25 28  1  0  0  0  0
 53 56  1  0  0  0  0
 53 57  1  0  0  0  0
 53 58  1  0  0  0  0
 33 36  1  0  0  0  0
 33 37  1  0  0  0  0
 33 38  1  0  0  0  0
 60 62  1  0  0  0  0
 60 63  1  0  0  0  0
 60 64  1  0  0  0  0
 18 20  1  0  0  0  0
 18 21  1  0  0  0  0
 18 22  1  0  0  0  0
 11 15  1  0  0  0  0
 11 16  1  0  0  0  0
 43 47  1  0  0  0  0
 43 48  1  0  0  0  0
 50 55  1  0  0  0  0
  8 14  1  0  0  0  0
 30 35  1  0  0  0  0
 40 46  1  0  0  0  0
 59 61  1  0  0  0  0
 17 19  1  0  0  0  0
  7 13  1  0  0  0  0
 29 34  1  0  0  0  0
 49 54  1  0  0  0  0
 39 45  1  0  0  0  0
M  END
$$$$

  -OEChem-02062319033D

 64 63  0     1  0  0  0  0  0999 V2000
    0.4864   -6.3043   -1.8335 C   0  0  0  0  0  0  0  0  0  0  0  0
   -0.7080   -6.5684   -1.9077 O   0  0  0  0  0  0  0  0  0  0  0  0
    1.3807   -7.1663   -1.0055 C   0  0  0  0  0  0  0  0  0  0  0  0
    1.4529   -6.8179    0.0373 H   0  0  0  0  0  0  0  0  0  0  0  0
    1.0209   -8.2057   -0.9410 H   0  0  0  0  0  0  0  0  0  0  0  0
    2.4216   -7.2416   -1.3586 H   0  0  0  0  0  0  0  0  0  0  0  0
    1.1330   -5.2520   -2.4584 N   0  0  0  0  0  0  0  0  0  0  0  0
    0.4593   -4.3003   -3.3051 C   0  0  2  0  0  0  0  0  0  0  0  0
    1.4026   -3.8873   -4.4331 C   0  0  0  0  0  0  0  0  0  0  0  0
    2.5773   -4.2458   -4.4887 O   0  0  0  0  0  0  0  0  0  0  0  0
   -0.1008   -3.1135   -2.5172 C   0  0  0  0  0  0  0  0  0  0  0  0
    1.1781   -2.1097   -1.6931 S   0  0  0  0  0  0  0  0  0  0  0  0
    2.1344   -5.1450   -2.3125 H   0  0  0  0  0  0  0  0  0  0  0  0
   -0.3770   -4.8481   -3.7569 H   0  0  0  0  0  0  0  0  0  0  0  0
   -0.6660   -2.4468   -3.1766 H   0  0  0  0  0  0  0  0  0  0  0  0
   -0.7870   -3.4710   -1.7418 H   0  0  0  0  0  0  0  0  0  0  0  0
    0.7856   -3.0530   -5.3544 N   0  0  0  0  0  0  0  0  0  0  0  0
    1.4783   -2.5087   -6.4988 C   0  0  0  0  0  0  0  0  0  0  0  0
   -0.2029   -2.8420   -5.2543 H   0  0  0  0  0  0  0  0  0  0  0  0
    1.8909   -1.5216   -6.2431 H   0  0  0  0  0  0  0  0  0  0  0  0
    2.2968   -3.1846   -6.7873 H   0  0  0  0  0  0  0  0  0  0  0  0
    0.7748   -2.4057   -7.3382 H   0  0  0  0  0  0  0  0  0  0  0  0
   -6.7256    2.0330   -0.2766 C   0  0  0  0  0  0  0  0  0  0  0  0
   -7.1824    1.1039   -0.9322 O   0  0  0  0  0  0  0  0  0  0  0  0
   -7.5276    2.6077    0.8435 C   0  0  0  0  0  0  0  0  0  0  0  0
   -8.1775    3.4344    0.5145 H   0  0  0  0  0  0  0  0  0  0  0  0
   -8.2057    1.8676    1.2980 H   0  0  0  0  0  0  0  0  0  0  0  0
   -6.9411    3.0162    1.6819 H   0  0  0  0  0  0  0  0  0  0  0  0
   -5.4935    2.6382   -0.4627 N   0  0  0  0  0  0  0  0  0  0  0  0
   -4.5619    2.2388   -1.4845 C   0  0  2  0  0  0  0  0  0  0  0  0
   -3.1535    2.4674   -0.9521 C   0  0  0  0  0  0  0  0  0  0  0  0
   -2.8634    3.3945   -0.1987 O   0  0  0  0  0  0  0  0  0  0  0  0
   -4.7883    3.0138   -2.7732 C   0  0  0  0  0  0  0  0  0  0  0  0
   -5.2337    3.4049    0.1551 H   0  0  0  0  0  0  0  0  0  0  0  0
   -4.7192    1.1682   -1.6549 H   0  0  0  0  0  0  0  0  0  0  0  0
   -4.6352    4.0886   -2.6221 H   0  0  0  0  0  0  0  0  0  0  0  0
   -4.0976    2.6887   -3.5582 H   0  0  0  0  0  0  0  0  0  0  0  0
   -5.8111    2.8719   -3.1387 H   0  0  0  0  0  0  0  0  0  0  0  0
   -2.2466    1.5400   -1.4507 N   0  0  0  0  0  0  0  0  0  0  0  0
   -0.8515    1.8415   -1.6488 C   0  0  2  0  0  0  0  0  0  0  0  0
   -0.7313    2.9995   -2.6374 C   0  0  0  0  0  0  0  0  0  0  0  0
    0.0089    3.9635   -2.4528 O   0  0  0  0  0  0  0  0  0  0  0  0
   -0.0412    0.6086   -2.0567 C   0  0  0  0  0  0  0  0  0  0  0  0
    0.0347   -0.6694   -0.7785 S   0  0  0  0  0  0  0  0  0  0  0  0
   -2.5637    0.5945   -1.6515 H   0  0  0  0  0  0  0  0  0  0  0  0
   -0.4859    2.1964   -0.6772 H   0  0  0  0  0  0  0  0  0  0  0  0
   -0.4668    0.1488   -2.9546 H   0  0  0  0  0  0  0  0  0  0  0  0
    0.9885    0.8996   -2.2908 H   0  0  0  0  0  0  0  0  0  0  0  0
   -1.5651    2.8410   -3.7353 N   0  0  0  0  0  0  0  0  0  0  0  0
   -1.6490    3.8164   -4.7971 C   0  0  2  0  0  0  0  0  0  0  0  0
   -3.0729    3.8023   -5.3372 C   0  0  0  0  0  0  0  0  0  0  0  0
   -3.7574    2.7830   -5.3975 O   0  0  0  0  0  0  0  0  0  0  0  0
   -0.6459    3.5202   -5.9010 C   0  0  0  0  0  0  0  0  0  0  0  0
   -2.1126    1.9905   -3.8287 H   0  0  0  0  0  0  0  0  0  0  0  0
   -1.4381    4.7926   -4.3471 H   0  0  0  0  0  0  0  0  0  0  0  0
   -0.8412    2.5460   -6.3638 H   0  0  0  0  0  0  0  0  0  0  0  0
   -0.6910    4.2766   -6.6915 H   0  0  0  0  0  0  0  0  0  0  0  0
    0.3752    3.5013   -5.5050 H   0  0  0  0  0  0  0  0  0  0  0  0
   -3.4740    5.0535   -5.7840 N   0  0  0  0  0  0  0  0  0  0  0  0
   -4.7682    5.2907   -6.3797 C   0  0  0  0  0  0  0  0  0  0  0  0
   -2.8569    5.8505   -5.6583 H   0  0  0  0  0  0  0  0  0  0  0  0
   -4.6940    5.1873   -7.4723 H   0  0  0  0  0  0  0  0  0  0  0  0
   -5.4907    4.5583   -5.9904 H   0  0  0  0  0  0  0  0  0  0  0  0
   -5.1059    6.3074   -6.1299 H   0  0  0  0  0  0  0  0  0  0  0  0
  1  3  1  0  0  0  0
  1  7  1  0  0  0  0
  1  2  2  0  0  0  0
 23 25  1  0  0  0  0
 23 29  1  0  0  0  0
 23 24  2  0  0  0  0
 50 51  1  0  0  0  0
 51 59  1  0  0  0  0
 51 52  2  0  0  0  0
  8  9  1  0  0  0  0
  9 17  1  0  0  0  0
  9 10  2  0  0  0  0
 30 31  1  0  0  0  0
 31 39  1  0  0  0  0
 31 32  2  0  0  0  0
 40 41  1  0  0  0  0
 41 49  1  0  0  0  0
 41 42  2  0  0  0  0
 50 53  1  0  0  0  0
 30 33  1  0  0  0  0
 59 60  1  0  0  0  0
 17 18  1  0  0  0  0
  8 11  1  0  0  0  0
 11 12  1  0  0  0  0
 40 43  1  0  0  0  0
 43 44  1  0  0  0  0
 49 50  1  0  0  0  0
  7  8  1  0  0  0  0
 29 30  1  0  0  0  0
 39 40  1  0  0  0  0
 12 44  1  0  0  0  0
  3  4  1  0  0  0  0
  3  5  1  0  0  0  0
  3  6  1  0  0  0  0
 25 26  1  0  0  0  0
 25 27  1  0  0  0  0
 25 28  1  0  0  0  0
 53 56  1  0  0  0  0
 53 57  1  0  0  0  0
 53 58  1  0  0  0  0
 33 36  1  0  0  0  0
 33 37  1  0  0  0  0
 33 38  1  0  0  0  0
 60 62  1  0  0  0  0
 60 63  1  0  0  0  0
 60 64  1  0  0  0  0
 18 20  1  0  0  0  0
 18 21  1  0  0  0  0
 18 22  1  0  0  0  0
 11 15  1  0  0  0  0
 11 16  1  0  0  0  0
 43 47  1  0  0  0  0
 43 48  1  0  0  0  0
 50 55  1  0  0  0  0
  8 14  1  0  0  0  0
 30 35  1  0  0  0  0
 40 46  1  0  0  0  0
 59 61  1  0  0  0  0
 17 19  1  0  0  0  0
  7 13  1  0  0  0  0
 29 34  1  0  0  0  0
 49 54  1  0  0  0  0
 39 45  1  0  0  0  0
M  END
$$$$

  -OEChem-02062319033D

 64 63  0     1  0  0  0  0  0999 V2000
   -0.1100   -6.3889   -2.7607 C   0  0  0  0  0  0  0  0  0  0  0  0
   -1.2882   -6.5074   -3.0762 O   0  0  0  0  0  0  0  0  0  0  0  0
    0.5500   -7.4640   -1.9626 C   0  0  0  0  0  0  0  0  0  0  0  0
    0.4595   -7.2976   -0.8772 H   0  0  0  0  0  0  0  0  0  0  0  0
    0.1044   -8.4554   -2.1433 H   0  0  0  0  0  0  0  0  0  0  0  0
    1.6285   -7.5932   -2.1470 H   0  0  0  0  0  0  0  0  0  0  0  0
    0.7190   -5.3257   -3.0742 N   0  0  0  0  0  0  0  0  0  0  0  0
    0.2858   -4.1833   -3.8383 C   0  0  2  0  0  0  0  0  0  0  0  0
    1.4467   -3.6984   -4.7043 C   0  0  0  0  0  0  0  0  0  0  0  0
    2.5804   -4.1677   -4.6282 O   0  0  0  0  0  0  0  0  0  0  0  0
   -0.3132   -3.0853   -2.9559 C   0  0  0  0  0  0  0  0  0  0  0  0
    0.8702   -2.3706   -1.7679 S   0  0  0  0  0  0  0  0  0  0  0  0
    1.6828   -5.3520   -2.7488 H   0  0  0  0  0  0  0  0  0  0  0  0
   -0.4953   -4.5581   -4.5115 H   0  0  0  0  0  0  0  0  0  0  0  0
   -0.6961   -2.2643   -3.5708 H   0  0  0  0  0  0  0  0  0  0  0  0
   -1.1540   -3.4867   -2.3799 H   0  0  0  0  0  0  0  0  0  0  0  0
    1.0733   -2.6653   -5.5521 N   0  0  0  0  0  0  0  0  0  0  0  0
    2.0018   -2.0220   -6.4521 C   0  0  0  0  0  0  0  0  0  0  0  0
    0.1026   -2.3679   -5.5805 H   0  0  0  0  0  0  0  0  0  0  0  0
    2.4371   -1.1391   -5.9612 H   0  0  0  0  0  0  0  0  0  0  0  0
    2.8037   -2.7269   -6.7169 H   0  0  0  0  0  0  0  0  0  0  0  0
    1.4718   -1.7102   -7.3642 H   0  0  0  0  0  0  0  0  0  0  0  0
   -6.7256    2.0330   -0.2766 C   0  0  0  0  0  0  0  0  0  0  0  0
   -7.1824    1.1039   -0.9322 O   0  0  0  0  0  0  0  0  0  0  0  0
   -7.5276    2.6077    0.8435 C   0  0  0  0  0  0  0  0  0  0  0  0
   -8.1775    3.4344    0.5145 H   0  0  0  0  0  0  0  0  0  0  0  0
   -8.2057    1.8676    1.2980 H   0  0  0  0  0  0  0  0  0  0  0  0
   -6.9411    3.0162    1.6819 H   0  0  0  0  0  0  0  0  0  0  0  0
   -5.4935    2.6382   -0.4627 N   0  0  0  0  0  0  0  0  0  0  0  0
   -4.5619    2.2388   -1.4845 C   0  0  2  0  0  0  0  0  0  0  0  0
   -3.1535    2.4674   -0.9521 C   0  0  0  0  0  0  0  0  0  0  0  0
   -2.8634    3.3945   -0.1987 O   0  0  0  0  0  0  0  0  0  0  0  0
   -4.7883    3.0138   -2.7732 C   0  0  0  0  0  0  0  0  0  0  0  0
   -5.2337    3.4049    0.1551 H   0  0  0  0  0  0  0  0  0  0  0  0
   -4.7192    1.1682   -1.6549 H   0  0  0  0  0  0  0  0  0  0  0  0
   -4.6352    4.0886   -2.6221 H   0  0  0  0  0  0  0  0  0  0  0  0
   -4.0976    2.6887   -3.5582 H   0  0  0  0  0  0  0  0  0  0  0  0
   -5.8111    2.8719   -3.1387 H   0  0  0  0  0  0  0  0  0  0  0  0
   -2.2466    1.5400   -1.4507 N   0  0  0  0  0  0  0  0  0  0  0  0
   -0.8195    1.7174   -1.3597 C   0  0  2  0  0  0  0  0  0  0  0  0
   -0.4327    2.9994   -2.0941 C   0  0  0  0  0  0  0  0  0  0  0  0
    0.3349    3.8359   -1.6223 O   0  0  0  0  0  0  0  0  0  0  0  0
   -0.0475    0.4861   -1.8402 C   0  0  0  0  0  0  0  0  0  0  0  0
   -0.3038   -0.9814   -0.8138 S   0  0  0  0  0  0  0  0  0  0  0  0
   -2.5950    0.6788   -1.8652 H   0  0  0  0  0  0  0  0  0  0  0  0
   -0.6089    1.8701   -0.2938 H   0  0  0  0  0  0  0  0  0  0  0  0
   -0.3384    0.2252   -2.8630 H   0  0  0  0  0  0  0  0  0  0  0  0
    1.0271    0.6983   -1.8463 H   0  0  0  0  0  0  0  0  0  0  0  0
   -1.0641    3.1102   -3.3248 N   0  0  0  0  0  0  0  0  0  0  0  0
   -0.8783    4.2469   -4.1962 C   0  0  2  0  0  0  0  0  0  0  0  0
   -2.1779    4.4732   -4.9574 C   0  0  0  0  0  0  0  0  0  0  0  0
   -2.9176    3.5566   -5.3092 O   0  0  0  0  0  0  0  0  0  0  0  0
    0.2815    4.0257   -5.1546 C   0  0  0  0  0  0  0  0  0  0  0  0
   -1.6503    2.3498   -3.6562 H   0  0  0  0  0  0  0  0  0  0  0  0
   -0.6767    5.1096   -3.5520 H   0  0  0  0  0  0  0  0  0  0  0  0
    0.0977    3.1653   -5.8083 H   0  0  0  0  0  0  0  0  0  0  0  0
    0.4392    4.8997   -5.7951 H   0  0  0  0  0  0  0  0  0  0  0  0
    1.2096    3.8335   -4.6055 H   0  0  0  0  0  0  0  0  0  0  0  0
   -2.3928    5.8159   -5.2354 N   0  0  0  0  0  0  0  0  0  0  0  0
   -3.5355    6.2837   -5.9847 C   0  0  0  0  0  0  0  0  0  0  0  0
   -1.7483    6.5111   -4.8707 H   0  0  0  0  0  0  0  0  0  0  0  0
   -3.2733    6.3498   -7.0510 H   0  0  0  0  0  0  0  0  0  0  0  0
   -4.3713    5.5804   -5.8557 H   0  0  0  0  0  0  0  0  0  0  0  0
   -3.8324    7.2773   -5.6179 H   0  0  0  0  0  0  0  0  0  0  0  0
  1  3  1  0  0  0  0
  1  7  1  0  0  0  0
  1  2  2  0  0  0  0
 23 25  1  0  0  0  0
 23 29  1  0  0  0  0
 23 24  2  0  0  0  0
 50 51  1  0  0  0  0
 51 59  1  0  0  0  0
 51 52  2  0  0  0  0
  8  9  1  0  0  0  0
  9 17  1  0  0  0  0
  9 10  2  0  0  0  0
 30 31  1  0  0  0  0
 31 39  1  0  0  0  0
 31 32  2  0  0  0  0
 40 41  1  0  0  0  0
 41 49  1  0  0  0  0
 41 42  2  0  0  0  0
 50 53  1  0  0  0  0
 30 33  1  0  0  0  0
 59 60  1  0  0  0  0
 17 18  1  0  0  0  0
  8 11  1  0  0  0  0
 11 12  1  0  0  0  0
 40 43  1  0  0  0  0
 43 44  1  0  0  0  0
 49 50  1  0  0  0  0
  7  8  1  0  0  0  0
 29 30  1  0  0  0  0
 39 40  1  0  0  0  0
 12 44  1  0  0  0  0
  3  4  1  0  0  0  0
  3  5  1  0  0  0  0
  3  6  1  0  0  0  0
 25 26  1  0  0  0  0
 25 27  1  0  0  0  0
 25 28  1  0  0  0  0
 53 56  1  0  0  0  0
 53 57  1  0  0  0  0
 53 58  1  0  0  0  0
 33 36  1  0  0  0  0
 33 37  1  0  0  0  0
 33 38  1  0  0  0  0
 60 62  1  0  0  0  0
 60 63  1  0  0  0  0
 60 64  1  0  0  0  0
 18 20  1  0  0  0  0
 18 21  1  0  0  0  0
 18 22  1  0  0  0  0
 11 15  1  0  0  0  0
 11 16  1  0  0  0  0
 43 47  1  0  0  0  0
 43 48  1  0  0  0  0
 50 55  1  0  0  0  0
  8 14  1  0  0  0  0
 30 35  1  0  0  0  0
 40 46  1  0  0  0  0
 59 61  1  0  0  0  0
 17 19  1  0  0  0  0
  7 13  1  0  0  0  0
 29 34  1  0  0  0  0
 49 54  1  0  0  0  0
 39 45  1  0  0  0  0
M  END
$$$$
