
  -OEChem-02062319063D

 64 63  0     1  0  0  0  0  0999 V2000
    0.9710   -6.9529   -0.7115 C   0  0  0  0  0  0  0  0  0  0  0  0
   -0.1315   -6.7952   -1.2127 O   0  0  0  0  0  0  0  0  0  0  0  0
    1.3251   -8.2637   -0.0350 C   0  0  0  0  0  0  0  0  0  0  0  0
    1.5193   -8.0935    1.0269 H   0  0  0  0  0  0  0  0  0  0  0  0
    0.4998   -8.9745   -0.1336 H   0  0  0  0  0  0  0  0  0  0  0  0
    2.2167   -8.6941   -0.4973 H   0  0  0  0  0  0  0  0  0  0  0  0
    1.8972   -5.9349   -0.7702 N   0  0  0  0  0  0  0  0  0  0  0  0
    1.6740   -4.6416   -1.4314 C   0  0  2  0  0  0  0  0  0  0  0  0
    2.9950   -3.9884   -1.8916 C   0  0  0  0  0  0  0  0  0  0  0  0
    4.0734   -4.4757   -1.5702 O   0  0  0  0  0  0  0  0  0  0  0  0
    0.9027   -3.7116   -0.4816 C   0  0  0  0  0  0  0  0  0  0  0  0
    1.8194   -3.4390    1.0901 S   0  0  0  0  0  0  0  0  0  0  0  0
    2.8275   -6.1101   -0.3916 H   0  0  0  0  0  0  0  0  0  0  0  0
    1.0721   -4.8028   -2.3319 H   0  0  0  0  0  0  0  0  0  0  0  0
    0.7215   -2.7497   -0.9688 H   0  0  0  0  0  0  0  0  0  0  0  0
   -0.0720   -4.1550   -0.2529 H   0  0  0  0  0  0  0  0  0  0  0  0
    2.9787   -2.8756   -2.7149 N   0  0  0  0  0  0  0  0  0  0  0  0
    4.1897   -2.2501   -3.2336 C   0  0  0  0  0  0  0  0  0  0  0  0
    2.0761   -2.5274   -3.0240 H   0  0  0  0  0  0  0  0  0  0  0  0
    4.8371   -1.9263   -2.4115 H   0  0  0  0  0  0  0  0  0  0  0  0
    4.7453   -2.9536   -3.8629 H   0  0  0  0  0  0  0  0  0  0  0  0
    3.9348   -1.3733   -3.8369 H   0  0  0  0  0  0  0  0  0  0  0  0
   -5.2513    1.3992    2.8739 C   0  0  0  0  0  0  0  0  0  0  0  0
   -5.5619    0.2750    2.5137 O   0  0  0  0  0  0  0  0  0  0  0  0
   -6.0270    2.0794    3.9858 C   0  0  0  0  0  0  0  0  0  0  0  0
   -6.3737    3.0611    3.6547 H   0  0  0  0  0  0  0  0  0  0  0  0
   -6.8951    1.4751    4.2634 H   0  0  0  0  0  0  0  0  0  0  0  0
   -5.3875    2.2023    4.8630 H   0  0  0  0  0  0  0  0  0  0  0  0
   -4.1848    2.0464    2.2855 N   0  0  0  0  0  0  0  0  0  0  0  0
   -3.2365    1.4036    1.3650 C   0  0  2  0  0  0  0  0  0  0  0  0
   -1.7820    1.5751    1.8448 C   0  0  0  0  0  0  0  0  0  0  0  0
   -1.4634    2.5689    2.4857 O   0  0  0  0  0  0  0  0  0  0  0  0
   -3.4171    2.0379   -0.0162 C   0  0  0  0  0  0  0  0  0  0  0  0
   -3.8725    2.9092    2.7284 H   0  0  0  0  0  0  0  0  0  0  0  0
   -3.4365    0.3297    1.2912 H   0  0  0  0  0  0  0  0  0  0  0  0
   -3.2022    3.1109    0.0233 H   0  0  0  0  0  0  0  0  0  0  0  0
   -2.7410    1.5778   -0.7435 H   0  0  0  0  0  0  0  0  0  0  0  0
   -4.4455    1.9000   -0.3643 H   0  0  0  0  0  0  0  0  0  0  0  0
   -0.8145    0.6440    1.5097 N   0  0  0  0  0  0  0  0  0  0  0  0
    0.5961    0.7368    1.9292 C   0  0  2  0  0  0  0  0  0  0  0  0
    1.2902    2.0166    1.4244 C   0  0  0  0  0  0  0  0  0  0  0  0
    2.1251    2.5896    2.1113 O   0  0  0  0  0  0  0  0  0  0  0  0
    1.3570   -0.4887    1.4131 C   0  0  0  0  0  0  0  0  0  0  0  0
    0.5829   -2.0411    2.0196 S   0  0  0  0  0  0  0  0  0  0  0  0
   -1.1453   -0.2463    1.1453 H   0  0  0  0  0  0  0  0  0  0  0  0
    0.6418    0.7480    3.0240 H   0  0  0  0  0  0  0  0  0  0  0  0
    1.3703   -0.4906    0.3190 H   0  0  0  0  0  0  0  0  0  0  0  0
    2.3955   -0.4457    1.7598 H   0  0  0  0  0  0  0  0  0  0  0  0
    1.1022    2.4064    0.1124 N   0  0  0  0  0  0  0  0  0  0  0  0
    1.4107    3.7571   -0.3672 C   0  0  2  0  0  0  0  0  0  0  0  0
    0.2226    4.3251   -1.1723 C   0  0  0  0  0  0  0  0  0  0  0  0
   -0.6681    3.5749   -1.5637 O   0  0  0  0  0  0  0  0  0  0  0  0
    2.6748    3.6851   -1.2255 C   0  0  0  0  0  0  0  0  0  0  0  0
    0.3080    1.9627   -0.3477 H   0  0  0  0  0  0  0  0  0  0  0  0
    1.5854    4.4307    0.4791 H   0  0  0  0  0  0  0  0  0  0  0  0
    2.5164    3.0281   -2.0863 H   0  0  0  0  0  0  0  0  0  0  0  0
    2.9496    4.6790   -1.5906 H   0  0  0  0  0  0  0  0  0  0  0  0
    3.5074    3.2919   -0.6337 H   0  0  0  0  0  0  0  0  0  0  0  0
    0.1454    5.6764   -1.4536 N   0  0  0  0  0  0  0  0  0  0  0  0
   -0.9825    6.2836   -2.1506 C   0  0  0  0  0  0  0  0  0  0  0  0
    0.8646    6.2790   -1.0629 H   0  0  0  0  0  0  0  0  0  0  0  0
   -1.1249    5.8175   -3.1315 H   0  0  0  0  0  0  0  0  0  0  0  0
   -1.9018    6.1641   -1.5676 H   0  0  0  0  0  0  0  0  0  0  0  0
   -0.8039    7.3528   -2.3011 H   0  0  0  0  0  0  0  0  0  0  0  0
  1  2  2  0  0  0  0
  1  3  1  0  0  0  0
  1  7  1  0  0  0  0
  3  4  1  0  0  0  0
  3  5  1  0  0  0  0
  3  6  1  0  0  0  0
  7  8  1  0  0  0  0
  7 13  1  0  0  0  0
  8  9  1  0  0  0  0
  8 11  1  0  0  0  0
  8 14  1  0  0  0  0
  9 10  2  0  0  0  0
  9 17  1  0  0  0  0
 11 12  1  0  0  0  0
 11 15  1  0  0  0  0
 11 16  1  0  0  0  0
 12 44  1  0  0  0  0
 17 18  1  0  0  0  0
 17 19  1  0  0  0  0
 18 20  1  0  0  0  0
 18 21  1  0  0  0  0
 18 22  1  0  0  0  0
 23 24  2  0  0  0  0
 23 25  1  0  0  0  0
 23 29  1  0  0  0  0
 25 26  1  0  0  0  0
 25 27  1  0  0  0  0
 25 28  1  0  0  0  0
 29 30  1  0  0  0  0
 29 34  1  0  0  0  0
 30 31  1  0  0  0  0
 30 33  1  0  0  0  0
 30 35  1  0  0  0  0
 31 32  2  0  0  0  0
 31 39  1  0  0  0  0
 33 36  1  0  0  0  0
 33 37  1  0  0  0  0
 33 38  1  0  0  0  0
 39 40  1  0  0  0  0
 39 45  1  0  0  0  0
 40 41  1  0  0  0  0
 40 43  1  0  0  0  0
 40 46  1  0  0  0  0
 41 42  2  0  0  0  0
 41 49  1  0  0  0  0
 43 44  1  0  0  0  0
 43 47  1  0  0  0  0
 43 48  1  0  0  0  0
 49 50  1  0  0  0  0
 49 54  1  0  0  0  0
 50 51  1  0  0  0  0
 50 53  1  0  0  0  0
 50 55  1  0  0  0  0
 51 52  2  0  0  0  0
 51 59  1  0  0  0  0
 53 56  1  0  0  0  0
 53 57  1  0  0  0  0
 53 58  1  0  0  0  0
 59 60  1  0  0  0  0
 59 61  1  0  0  0  0
 60 62  1  0  0  0  0
 60 63  1  0  0  0  0
 60 64  1  0  0  0  0
M  END
$$$$

  -OEChem-02062319063D

 64 63  0     1  0  0  0  0  0999 V2000
    0.7375   -6.6387   -1.7339 C   0  0  0  0  0  0  0  0  0  0  0  0
   -0.2409   -6.2854   -2.3738 O   0  0  0  0  0  0  0  0  0  0  0  0
    0.8610   -8.0713   -1.2504 C   0  0  0  0  0  0  0  0  0  0  0  0
    0.8309   -8.0999   -0.1583 H   0  0  0  0  0  0  0  0  0  0  0  0
    0.0368   -8.6736   -1.6429 H   0  0  0  0  0  0  0  0  0  0  0  0
    1.8048   -8.5022   -1.5933 H   0  0  0  0  0  0  0  0  0  0  0  0
    1.7350   -5.7296   -1.4576 N   0  0  0  0  0  0  0  0  0  0  0  0
    1.7378   -4.3313   -1.9084 C   0  0  2  0  0  0  0  0  0  0  0  0
    3.1672   -3.7639   -2.0373 C   0  0  0  0  0  0  0  0  0  0  0  0
    4.1316   -4.4143   -1.6495 O   0  0  0  0  0  0  0  0  0  0  0  0
    0.8965   -3.4842   -0.9410 C   0  0  0  0  0  0  0  0  0  0  0  0
    1.5522   -3.5652    0.7760 S   0  0  0  0  0  0  0  0  0  0  0  0
    2.5658   -6.0621   -0.9696 H   0  0  0  0  0  0  0  0  0  0  0  0
    1.2886   -4.2783   -2.9054 H   0  0  0  0  0  0  0  0  0  0  0  0
    0.8814   -2.4431   -1.2747 H   0  0  0  0  0  0  0  0  0  0  0  0
   -0.1362   -3.8479   -0.9453 H   0  0  0  0  0  0  0  0  0  0  0  0
    3.3802   -2.5356   -2.6385 N   0  0  0  0  0  0  0  0  0  0  0  0
    4.7058   -1.9614   -2.8349 C   0  0  0  0  0  0  0  0  0  0  0  0
    2.5724   -2.0410   -3.0051 H   0  0  0  0  0  0  0  0  0  0  0  0
    5.2123   -1.8276   -1.8733 H   0  0  0  0  0  0  0  0  0  0  0  0
    5.3168   -2.6142   -3.4672 H   0  0  0  0  0  0  0  0  0  0  0  0
    4.6266   -0.9845   -3.3213 H   0  0  0  0  0  0  0  0  0  0  0  0
   -5.2876    1.4247    2.8367 C   0  0  0  0  0  0  0  0  0  0  0  0
   -5.6658    0.3677    2.3573 O   0  0  0  0  0  0  0  0  0  0  0  0
   -6.0531    2.0532    3.9855 C   0  0  0  0  0  0  0  0  0  0  0  0
   -6.3844    3.0569    3.7084 H   0  0  0  0  0  0  0  0  0  0  0  0
   -6.9302    1.4467    4.2288 H   0  0  0  0  0  0  0  0  0  0  0  0
   -5.4137    2.1180    4.8694 H   0  0  0  0  0  0  0  0  0  0  0  0
   -4.1570    2.0428    2.3449 N   0  0  0  0  0  0  0  0  0  0  0  0
   -3.2310    1.4255    1.3859 C   0  0  2  0  0  0  0  0  0  0  0  0
   -1.7648    1.5806    1.8354 C   0  0  0  0  0  0  0  0  0  0  0  0
   -1.4463    2.5077    2.5692 O   0  0  0  0  0  0  0  0  0  0  0  0
   -3.4376    2.0957    0.0259 C   0  0  0  0  0  0  0  0  0  0  0  0
   -3.8014    2.8398    2.8715 H   0  0  0  0  0  0  0  0  0  0  0  0
   -3.4368    0.3539    1.2923 H   0  0  0  0  0  0  0  0  0  0  0  0
   -3.2200    3.1670    0.0895 H   0  0  0  0  0  0  0  0  0  0  0  0
   -2.7771    1.6527   -0.7255 H   0  0  0  0  0  0  0  0  0  0  0  0
   -4.4732    1.9688   -0.3050 H   0  0  0  0  0  0  0  0  0  0  0  0
   -0.8190    0.6327    1.4845 N   0  0  0  0  0  0  0  0  0  0  0  0
    0.5084    0.5301    2.1210 C   0  0  2  0  0  0  0  0  0  0  0  0
    1.3627    1.8039    1.9662 C   0  0  0  0  0  0  0  0  0  0  0  0
    2.1177    2.1607    2.8609 O   0  0  0  0  0  0  0  0  0  0  0  0
    1.2585   -0.6650    1.5226 C   0  0  0  0  0  0  0  0  0  0  0  0
    0.2871   -2.2116    1.7326 S   0  0  0  0  0  0  0  0  0  0  0  0
   -1.1813   -0.2066    1.0378 H   0  0  0  0  0  0  0  0  0  0  0  0
    0.3741    0.3608    3.1954 H   0  0  0  0  0  0  0  0  0  0  0  0
    1.4508   -0.4938    0.4591 H   0  0  0  0  0  0  0  0  0  0  0  0
    2.2266   -0.7780    2.0234 H   0  0  0  0  0  0  0  0  0  0  0  0
    1.4244    2.4243    0.7334 N   0  0  0  0  0  0  0  0  0  0  0  0
    1.9354    3.7859    0.5520 C   0  0  2  0  0  0  0  0  0  0  0  0
    0.9841    4.6033   -0.3474 C   0  0  0  0  0  0  0  0  0  0  0  0
    0.1478    4.0294   -1.0404 O   0  0  0  0  0  0  0  0  0  0  0  0
    3.3333    3.6979   -0.0628 C   0  0  0  0  0  0  0  0  0  0  0  0
    0.6779    2.1597    0.0913 H   0  0  0  0  0  0  0  0  0  0  0  0
    1.9958    4.2998    1.5177 H   0  0  0  0  0  0  0  0  0  0  0  0
    3.2922    3.2002   -1.0366 H   0  0  0  0  0  0  0  0  0  0  0  0
    3.7574    4.6972   -0.1985 H   0  0  0  0  0  0  0  0  0  0  0  0
    3.9974    3.1269    0.5939 H   0  0  0  0  0  0  0  0  0  0  0  0
    1.0612    5.9833   -0.3763 N   0  0  0  0  0  0  0  0  0  0  0  0
    0.1579    6.8189   -1.1572 C   0  0  0  0  0  0  0  0  0  0  0  0
    1.7242    6.4290    0.2514 H   0  0  0  0  0  0  0  0  0  0  0  0
    0.2452    6.5849   -2.2233 H   0  0  0  0  0  0  0  0  0  0  0  0
   -0.8791    6.6589   -0.8440 H   0  0  0  0  0  0  0  0  0  0  0  0
    0.4028    7.8757   -1.0142 H   0  0  0  0  0  0  0  0  0  0  0  0
  1  2  2  0  0  0  0
  1  3  1  0  0  0  0
  1  7  1  0  0  0  0
  3  4  1  0  0  0  0
  3  5  1  0  0  0  0
  3  6  1  0  0  0  0
  7  8  1  0  0  0  0
  7 13  1  0  0  0  0
  8  9  1  0  0  0  0
  8 11  1  0  0  0  0
  8 14  1  0  0  0  0
  9 10  2  0  0  0  0
  9 17  1  0  0  0  0
 11 12  1  0  0  0  0
 11 15  1  0  0  0  0
 11 16  1  0  0  0  0
 12 44  1  0  0  0  0
 17 18  1  0  0  0  0
 17 19  1  0  0  0  0
 18 20  1  0  0  0  0
 18 21  1  0  0  0  0
 18 22  1  0  0  0  0
 23 24  2  0  0  0  0
 23 25  1  0  0  0  0
 23 29  1  0  0  0  0
 25 26  1  0  0  0  0
 25 27  1  0  0  0  0
 25 28  1  0  0  0  0
 29 30  1  0  0  0  0
 29 34  1  0  0  0  0
 30 31  1  0  0  0  0
 30 33  1  0  0  0  0
 30 35  1  0  0  0  0
 31 32  2  0  0  0  0
 31 39  1  0  0  0  0
 33 36  1  0  0  0  0
 33 37  1  0  0  0  0
 33 38  1  0  0  0  0
 39 40  1  0  0  0  0
 39 45  1  0  0  0  0
 40 41  1  0  0  0  0
 40 43  1  0  0  0  0
 40 46  1  0  0  0  0
 41 42  2  0  0  0  0
 41 49  1  0  0  0  0
 43 44  1  0  0  0  0
 43 47  1  0  0  0  0
 43 48  1  0  0  0  0
 49 50  1  0  0  0  0
 49 54  1  0  0  0  0
 50 51  1  0  0  0  0
 50 53  1  0  0  0  0
 50 55  1  0  0  0  0
 51 52  2  0  0  0  0
 51 59  1  0  0  0  0
 53 56  1  0  0  0  0
 53 57  1  0  0  0  0
 53 58  1  0  0  0  0
 59 60  1  0  0  0  0
 59 61  1  0  0  0  0
 60 62  1  0  0  0  0
 60 63  1  0  0  0  0
 60 64  1  0  0  0  0
M  END
$$$$

  -OEChem-02062319063D

 64 63  0     1  0  0  0  0  0999 V2000
    0.7163   -6.0405   -2.7573 C   0  0  0  0  0  0  0  0  0  0  0  0
   -0.1324   -5.4473   -3.4051 O   0  0  0  0  0  0  0  0  0  0  0  0
    0.6101   -7.5382   -2.5432 C   0  0  0  0  0  0  0  0  0  0  0  0
    0.6475   -7.7653   -1.4751 H   0  0  0  0  0  0  0  0  0  0  0  0
   -0.3348   -7.9105   -2.9484 H   0  0  0  0  0  0  0  0  0  0  0  0
    1.4366   -8.0461   -3.0461 H   0  0  0  0  0  0  0  0  0  0  0  0
    1.7746   -5.3416   -2.2198 N   0  0  0  0  0  0  0  0  0  0  0  0
    1.9793   -3.8929   -2.3598 C   0  0  2  0  0  0  0  0  0  0  0  0
    3.4521   -3.4928   -2.1222 C   0  0  0  0  0  0  0  0  0  0  0  0
    4.2692   -4.3290   -1.7516 O   0  0  0  0  0  0  0  0  0  0  0  0
    1.0466   -3.1512   -1.3884 C   0  0  0  0  0  0  0  0  0  0  0  0
    1.3847   -3.6210    0.3574 S   0  0  0  0  0  0  0  0  0  0  0  0
    2.4915   -5.8660   -1.7190 H   0  0  0  0  0  0  0  0  0  0  0  0
    1.7311   -3.5973   -3.3845 H   0  0  0  0  0  0  0  0  0  0  0  0
    1.1709   -2.0715   -1.5051 H   0  0  0  0  0  0  0  0  0  0  0  0
    0.0050   -3.3896   -1.6273 H   0  0  0  0  0  0  0  0  0  0  0  0
    3.8769   -2.1969   -2.3592 N   0  0  0  0  0  0  0  0  0  0  0  0
    5.2535   -1.7585   -2.1603 C   0  0  0  0  0  0  0  0  0  0  0  0
    3.1935   -1.5275   -2.7000 H   0  0  0  0  0  0  0  0  0  0  0  0
    5.5499   -1.8902   -1.1141 H   0  0  0  0  0  0  0  0  0  0  0  0
    5.9362   -2.3340   -2.7945 H   0  0  0  0  0  0  0  0  0  0  0  0
    5.3550   -0.6997   -2.4183 H   0  0  0  0  0  0  0  0  0  0  0  0
   -5.4091    1.5957    2.8557 C   0  0  0  0  0  0  0  0  0  0  0  0
   -5.9107    0.6340    2.2955 O   0  0  0  0  0  0  0  0  0  0  0  0
   -6.1641    2.3116    3.9593 C   0  0  0  0  0  0  0  0  0  0  0  0
   -6.4003    3.3317    3.6474 H   0  0  0  0  0  0  0  0  0  0  0  0
   -7.0965    1.7843    4.1795 H   0  0  0  0  0  0  0  0  0  0  0  0
   -5.5565    2.3462    4.8668 H   0  0  0  0  0  0  0  0  0  0  0  0
   -4.1505    2.0250    2.4910 N   0  0  0  0  0  0  0  0  0  0  0  0
   -3.2728    1.3098    1.5557 C   0  0  2  0  0  0  0  0  0  0  0  0
   -1.7832    1.4897    1.9164 C   0  0  0  0  0  0  0  0  0  0  0  0
   -1.4504    2.3558    2.7160 O   0  0  0  0  0  0  0  0  0  0  0  0
   -3.5429    1.8302    0.1413 C   0  0  0  0  0  0  0  0  0  0  0  0
   -3.7186    2.7526    3.0603 H   0  0  0  0  0  0  0  0  0  0  0  0
   -3.4925    0.2372    1.5929 H   0  0  0  0  0  0  0  0  0  0  0  0
   -3.3239    2.9011    0.0794 H   0  0  0  0  0  0  0  0  0  0  0  0
   -2.9200    1.3043   -0.5883 H   0  0  0  0  0  0  0  0  0  0  0  0
   -4.5929    1.6730   -0.1259 H   0  0  0  0  0  0  0  0  0  0  0  0
   -0.8525    0.5530    1.5002 N   0  0  0  0  0  0  0  0  0  0  0  0
    0.3821    0.2517    2.2515 C   0  0  2  0  0  0  0  0  0  0  0  0
    1.3257    1.4568    2.4375 C   0  0  0  0  0  0  0  0  0  0  0  0
    1.9912    1.5672    3.4590 O   0  0  0  0  0  0  0  0  0  0  0  0
    1.1347   -0.8720    1.5331 C   0  0  0  0  0  0  0  0  0  0  0  0
    0.0614   -2.3524    1.3482 S   0  0  0  0  0  0  0  0  0  0  0  0
   -1.2387   -0.2170    0.9580 H   0  0  0  0  0  0  0  0  0  0  0  0
    0.1070   -0.0940    3.2543 H   0  0  0  0  0  0  0  0  0  0  0  0
    1.4648   -0.5314    0.5469 H   0  0  0  0  0  0  0  0  0  0  0  0
    2.0265   -1.1429    2.1091 H   0  0  0  0  0  0  0  0  0  0  0  0
    1.5869    2.2841    1.3626 N   0  0  0  0  0  0  0  0  0  0  0  0
    2.2653    3.5771    1.4952 C   0  0  2  0  0  0  0  0  0  0  0  0
    1.6020    4.6383    0.5936 C   0  0  0  0  0  0  0  0  0  0  0  0
    0.8806    4.2909   -0.3370 O   0  0  0  0  0  0  0  0  0  0  0  0
    3.7396    3.3940    1.1264 C   0  0  0  0  0  0  0  0  0  0  0  0
    0.9081    2.2258    0.6037 H   0  0  0  0  0  0  0  0  0  0  0  0
    2.1907    3.9336    2.5283 H   0  0  0  0  0  0  0  0  0  0  0  0
    3.8359    3.0532    0.0905 H   0  0  0  0  0  0  0  0  0  0  0  0
    4.2827    4.3377    1.2355 H   0  0  0  0  0  0  0  0  0  0  0  0
    4.2036    2.6509    1.7829 H   0  0  0  0  0  0  0  0  0  0  0  0
    1.8141    5.9847    0.8243 N   0  0  0  0  0  0  0  0  0  0  0  0
    1.1835    7.0376    0.0383 C   0  0  0  0  0  0  0  0  0  0  0  0
    2.3717    6.2412    1.6341 H   0  0  0  0  0  0  0  0  0  0  0  0
    1.4707    6.9515   -1.0149 H   0  0  0  0  0  0  0  0  0  0  0  0
    0.0930    6.9714    0.1131 H   0  0  0  0  0  0  0  0  0  0  0  0
    1.4955    8.0211    0.4029 H   0  0  0  0  0  0  0  0  0  0  0  0
  1  2  2  0  0  0  0
  1  3  1  0  0  0  0
  1  7  1  0  0  0  0
  3  4  1  0  0  0  0
  3  5  1  0  0  0  0
  3  6  1  0  0  0  0
  7  8  1  0  0  0  0
  7 13  1  0  0  0  0
  8  9  1  0  0  0  0
  8 11  1  0  0  0  0
  8 14  1  0  0  0  0
  9 10  2  0  0  0  0
  9 17  1  0  0  0  0
 11 12  1  0  0  0  0
 11 15  1  0  0  0  0
 11 16  1  0  0  0  0
 12 44  1  0  0  0  0
 17 18  1  0  0  0  0
 17 19  1  0  0  0  0
 18 20  1  0  0  0  0
 18 21  1  0  0  0  0
 18 22  1  0  0  0  0
 23 24  2  0  0  0  0
 23 25  1  0  0  0  0
 23 29  1  0  0  0  0
 25 26  1  0  0  0  0
 25 27  1  0  0  0  0
 25 28  1  0  0  0  0
 29 30  1  0  0  0  0
 29 34  1  0  0  0  0
 30 31  1  0  0  0  0
 30 33  1  0  0  0  0
 30 35  1  0  0  0  0
 31 32  2  0  0  0  0
 31 39  1  0  0  0  0
 33 36  1  0  0  0  0
 33 37  1  0  0  0  0
 33 38  1  0  0  0  0
 39 40  1  0  0  0  0
 39 45  1  0  0  0  0
 40 41  1  0  0  0  0
 40 43  1  0  0  0  0
 40 46  1  0  0  0  0
 41 42  2  0  0  0  0
 41 49  1  0  0  0  0
 43 44  1  0  0  0  0
 43 47  1  0  0  0  0
 43 48  1  0  0  0  0
 49 50  1  0  0  0  0
 49 54  1  0  0  0  0
 50 51  1  0  0  0  0
 50 53  1  0  0  0  0
 50 55  1  0  0  0  0
 51 52  2  0  0  0  0
 51 59  1  0  0  0  0
 53 56  1  0  0  0  0
 53 57  1  0  0  0  0
 53 58  1  0  0  0  0
 59 60  1  0  0  0  0
 59 61  1  0  0  0  0
 60 62  1  0  0  0  0
 60 63  1  0  0  0  0
 60 64  1  0  0  0  0
M  END
$$$$

  -OEChem-02062319063D

 64 63  0     1  0  0  0  0  0999 V2000
    0.9433   -5.3457   -3.6333 C   0  0  0  0  0  0  0  0  0  0  0  0
    0.2799   -4.5629   -4.2957 O   0  0  0  0  0  0  0  0  0  0  0  0
    0.6853   -6.8376   -3.7253 C   0  0  0  0  0  0  0  0  0  0  0  0
    0.5318   -7.2525   -2.7260 H   0  0  0  0  0  0  0  0  0  0  0  0
   -0.2081   -7.0286   -4.3264 H   0  0  0  0  0  0  0  0  0  0  0  0
    1.5387   -7.3352   -4.1923 H   0  0  0  0  0  0  0  0  0  0  0  0
    1.9328   -4.8675   -2.8030 N   0  0  0  0  0  0  0  0  0  0  0  0
    2.2737   -3.4474   -2.6404 C   0  0  2  0  0  0  0  0  0  0  0  0
    3.7073   -3.2555   -2.0997 C   0  0  0  0  0  0  0  0  0  0  0  0
    4.3779   -4.2268   -1.7663 O   0  0  0  0  0  0  0  0  0  0  0  0
    1.2451   -2.7810   -1.7125 C   0  0  0  0  0  0  0  0  0  0  0  0
    1.2433   -3.5563   -0.0438 S   0  0  0  0  0  0  0  0  0  0  0  0
    2.5046   -5.5434   -2.2974 H   0  0  0  0  0  0  0  0  0  0  0  0
    2.2358   -2.9589   -3.6196 H   0  0  0  0  0  0  0  0  0  0  0  0
    1.4665   -1.7142   -1.6184 H   0  0  0  0  0  0  0  0  0  0  0  0
    0.2457   -2.8729   -2.1501 H   0  0  0  0  0  0  0  0  0  0  0  0
    4.2659   -1.9917   -2.0161 N   0  0  0  0  0  0  0  0  0  0  0  0
    5.6113   -1.7471   -1.5094 C   0  0  0  0  0  0  0  0  0  0  0  0
    3.7068   -1.2027   -2.3274 H   0  0  0  0  0  0  0  0  0  0  0  0
    5.7025   -2.1050   -0.4780 H   0  0  0  0  0  0  0  0  0  0  0  0
    6.3542   -2.2621   -2.1279 H   0  0  0  0  0  0  0  0  0  0  0  0
    5.8328   -0.6756   -1.5244 H   0  0  0  0  0  0  0  0  0  0  0  0
   -5.4568    1.6207    2.8759 C   0  0  0  0  0  0  0  0  0  0  0  0
   -5.9722    0.6591    2.3282 O   0  0  0  0  0  0  0  0  0  0  0  0
   -6.2066    2.3724    3.9589 C   0  0  0  0  0  0  0  0  0  0  0  0
   -6.3137    3.4229    3.6777 H   0  0  0  0  0  0  0  0  0  0  0  0
   -7.2022    1.9411    4.0959 H   0  0  0  0  0  0  0  0  0  0  0  0
   -5.6612    2.3080    4.9036 H   0  0  0  0  0  0  0  0  0  0  0  0
   -4.1869    2.0186    2.5157 N   0  0  0  0  0  0  0  0  0  0  0  0
   -3.3205    1.2753    1.5918 C   0  0  2  0  0  0  0  0  0  0  0  0
   -1.8243    1.4726    1.9161 C   0  0  0  0  0  0  0  0  0  0  0  0
   -1.4942    2.2839    2.7721 O   0  0  0  0  0  0  0  0  0  0  0  0
   -3.6157    1.7421    0.1636 C   0  0  0  0  0  0  0  0  0  0  0  0
   -3.7395    2.7340    3.0886 H   0  0  0  0  0  0  0  0  0  0  0  0
   -3.5347    0.2037    1.6732 H   0  0  0  0  0  0  0  0  0  0  0  0
   -3.4086    2.8123    0.0614 H   0  0  0  0  0  0  0  0  0  0  0  0
   -2.9980    1.1965   -0.5561 H   0  0  0  0  0  0  0  0  0  0  0  0
   -4.6676    1.5657   -0.0827 H   0  0  0  0  0  0  0  0  0  0  0  0
   -0.9005    0.5412    1.4731 N   0  0  0  0  0  0  0  0  0  0  0  0
    0.1783    0.0219    2.3376 C   0  0  2  0  0  0  0  0  0  0  0  0
    1.1554    1.0874    2.8746 C   0  0  0  0  0  0  0  0  0  0  0  0
    1.6442    0.9640    3.9903 O   0  0  0  0  0  0  0  0  0  0  0  0
    0.9687   -1.0278    1.5505 C   0  0  0  0  0  0  0  0  0  0  0  0
   -0.1475   -2.3531    0.9372 S   0  0  0  0  0  0  0  0  0  0  0  0
   -1.2876   -0.1418    0.8249 H   0  0  0  0  0  0  0  0  0  0  0  0
   -0.2748   -0.4606    3.2105 H   0  0  0  0  0  0  0  0  0  0  0  0
    1.4778   -0.5563    0.7044 H   0  0  0  0  0  0  0  0  0  0  0  0
    1.7348   -1.4711    2.1961 H   0  0  0  0  0  0  0  0  0  0  0  0
    1.6449    2.0544    2.0182 N   0  0  0  0  0  0  0  0  0  0  0  0
    2.4270    3.2094    2.4682 C   0  0  2  0  0  0  0  0  0  0  0  0
    2.0867    4.4635    1.6368 C   0  0  0  0  0  0  0  0  0  0  0  0
    1.5696    4.3470    0.5299 O   0  0  0  0  0  0  0  0  0  0  0  0
    3.9145    2.8682    2.3476 C   0  0  0  0  0  0  0  0  0  0  0  0
    1.0990    2.1973    1.1685 H   0  0  0  0  0  0  0  0  0  0  0  0
    2.1877    3.4323    3.5137 H   0  0  0  0  0  0  0  0  0  0  0  0
    4.1724    2.6450    1.3074 H   0  0  0  0  0  0  0  0  0  0  0  0
    4.5294    3.7070    2.6878 H   0  0  0  0  0  0  0  0  0  0  0  0
    4.1529    1.9938    2.9617 H   0  0  0  0  0  0  0  0  0  0  0  0
    2.3595    5.7258    2.1306 N   0  0  0  0  0  0  0  0  0  0  0  0
    2.0036    6.9523    1.4278 C   0  0  0  0  0  0  0  0  0  0  0  0
    2.7313    5.7902    3.0739 H   0  0  0  0  0  0  0  0  0  0  0  0
    2.4974    6.9920    0.4510 H   0  0  0  0  0  0  0  0  0  0  0  0
    0.9201    7.0072    1.2780 H   0  0  0  0  0  0  0  0  0  0  0  0
    2.3168    7.8253    2.0085 H   0  0  0  0  0  0  0  0  0  0  0  0
  1  2  2  0  0  0  0
  1  3  1  0  0  0  0
  1  7  1  0  0  0  0
  3  4  1  0  0  0  0
  3  5  1  0  0  0  0
  3  6  1  0  0  0  0
  7  8  1  0  0  0  0
  7 13  1  0  0  0  0
  8  9  1  0  0  0  0
  8 11  1  0  0  0  0
  8 14  1  0  0  0  0
  9 10  2  0  0  0  0
  9 17  1  0  0  0  0
 11 12  1  0  0  0  0
 11 15  1  0  0  0  0
 11 16  1  0  0  0  0
 12 44  1  0  0  0  0
 17 18  1  0  0  0  0
 17 19  1  0  0  0  0
 18 20  1  0  0  0  0
 18 21  1  0  0  0  0
 18 22  1  0  0  0  0
 23 24  2  0  0  0  0
 23 25  1  0  0  0  0
 23 29  1  0  0  0  0
 25 26  1  0  0  0  0
 25 27  1  0  0  0  0
 25 28  1  0  0  0  0
 29 30  1  0  0  0  0
 29 34  1  0  0  0  0
 30 31  1  0  0  0  0
 30 33  1  0  0  0  0
 30 35  1  0  0  0  0
 31 32  2  0  0  0  0
 31 39  1  0  0  0  0
 33 36  1  0  0  0  0
 33 37  1  0  0  0  0
 33 38  1  0  0  0  0
 39 40  1  0  0  0  0
 39 45  1  0  0  0  0
 40 41  1  0  0  0  0
 40 43  1  0  0  0  0
 40 46  1  0  0  0  0
 41 42  2  0  0  0  0
 41 49  1  0  0  0  0
 43 44  1  0  0  0  0
 43 47  1  0  0  0  0
 43 48  1  0  0  0  0
 49 50  1  0  0  0  0
 49 54  1  0  0  0  0
 50 51  1  0  0  0  0
 50 53  1  0  0  0  0
 50 55  1  0  0  0  0
 51 52  2  0  0  0  0
 51 59  1  0  0  0  0
 53 56  1  0  0  0  0
 53 57  1  0  0  0  0
 53 58  1  0  0  0  0
 59 60  1  0  0  0  0
 59 61  1  0  0  0  0
 60 62  1  0  0  0  0
 60 63  1  0  0  0  0
 60 64  1  0  0  0  0
M  END
$$$$

  -OEChem-02062319063D

 64 63  0     1  0  0  0  0  0999 V2000
    1.3533   -4.5989   -4.2842 C   0  0  0  0  0  0  0  0  0  0  0  0
    0.8788   -3.6595   -4.9039 O   0  0  0  0  0  0  0  0  0  0  0  0
    1.0103   -6.0242   -4.6730 C   0  0  0  0  0  0  0  0  0  0  0  0
    0.6460   -6.5718   -3.8003 H   0  0  0  0  0  0  0  0  0  0  0  0
    0.2317   -6.0283   -5.4411 H   0  0  0  0  0  0  0  0  0  0  0  0
    1.8977   -6.5264   -5.0654 H   0  0  0  0  0  0  0  0  0  0  0  0
    2.2065   -4.3593   -3.2297 N   0  0  0  0  0  0  0  0  0  0  0  0
    2.6158   -3.0245   -2.7717 C   0  0  2  0  0  0  0  0  0  0  0  0
    3.9432   -3.0657   -1.9840 C   0  0  0  0  0  0  0  0  0  0  0  0
    4.4749   -4.1390   -1.7206 O   0  0  0  0  0  0  0  0  0  0  0  0
    1.4924   -2.4128   -1.9192 C   0  0  0  0  0  0  0  0  0  0  0  0
    1.1344   -3.4423   -0.4371 S   0  0  0  0  0  0  0  0  0  0  0  0
    2.6273   -5.1607   -2.7606 H   0  0  0  0  0  0  0  0  0  0  0  0
    2.7850   -2.3854   -3.6447 H   0  0  0  0  0  0  0  0  0  0  0  0
    1.7741   -1.4050   -1.6023 H   0  0  0  0  0  0  0  0  0  0  0  0
    0.5829   -2.3256   -2.5224 H   0  0  0  0  0  0  0  0  0  0  0  0
    4.5680   -1.8921   -1.5993 N   0  0  0  0  0  0  0  0  0  0  0  0
    5.8250   -1.8601   -0.8607 C   0  0  0  0  0  0  0  0  0  0  0  0
    4.1291   -1.0137   -1.8590 H   0  0  0  0  0  0  0  0  0  0  0  0
    5.7253   -2.3955    0.0895 H   0  0  0  0  0  0  0  0  0  0  0  0
    6.6266   -2.3249   -1.4447 H   0  0  0  0  0  0  0  0  0  0  0  0
    6.1098   -0.8259   -0.6448 H   0  0  0  0  0  0  0  0  0  0  0  0
   -5.4450    1.6031    2.8473 C   0  0  0  0  0  0  0  0  0  0  0  0
   -5.9684    0.6745    2.2526 O   0  0  0  0  0  0  0  0  0  0  0  0
   -6.1766    2.2862    3.9869 C   0  0  0  0  0  0  0  0  0  0  0  0
   -6.2758    3.3542    3.7797 H   0  0  0  0  0  0  0  0  0  0  0  0
   -7.1749    1.8557    4.1048 H   0  0  0  0  0  0  0  0  0  0  0  0
   -5.6224    2.1523    4.9188 H   0  0  0  0  0  0  0  0  0  0  0  0
   -4.1809    2.0228    2.4904 N   0  0  0  0  0  0  0  0  0  0  0  0
   -3.3237    1.3251    1.5228 C   0  0  2  0  0  0  0  0  0  0  0  0
   -1.8233    1.5122    1.8363 C   0  0  0  0  0  0  0  0  0  0  0  0
   -1.4912    2.2722    2.7374 O   0  0  0  0  0  0  0  0  0  0  0  0
   -3.6418    1.8513    0.1202 C   0  0  0  0  0  0  0  0  0  0  0  0
   -3.7253    2.7041    3.0972 H   0  0  0  0  0  0  0  0  0  0  0  0
   -3.5329    0.2501    1.5601 H   0  0  0  0  0  0  0  0  0  0  0  0
   -3.4409    2.9258    0.0592 H   0  0  0  0  0  0  0  0  0  0  0  0
   -3.0343    1.3384   -0.6314 H   0  0  0  0  0  0  0  0  0  0  0  0
   -4.6967    1.6814   -0.1170 H   0  0  0  0  0  0  0  0  0  0  0  0
   -0.9133    0.5731    1.3816 N   0  0  0  0  0  0  0  0  0  0  0  0
   -0.0549   -0.1841    2.3148 C   0  0  2  0  0  0  0  0  0  0  0  0
    0.8889    0.6674    3.1891 C   0  0  0  0  0  0  0  0  0  0  0  0
    1.1316    0.3226    4.3384 O   0  0  0  0  0  0  0  0  0  0  0  0
    0.7790   -1.1765    1.4998 C   0  0  0  0  0  0  0  0  0  0  0  0
   -0.3108   -2.2691    0.5003 S   0  0  0  0  0  0  0  0  0  0  0  0
   -1.2803    0.0040    0.6211 H   0  0  0  0  0  0  0  0  0  0  0  0
   -0.6957   -0.7473    3.0021 H   0  0  0  0  0  0  0  0  0  0  0  0
    1.4623   -0.6348    0.8388 H   0  0  0  0  0  0  0  0  0  0  0  0
    1.3842   -1.7911    2.1751 H   0  0  0  0  0  0  0  0  0  0  0  0
    1.6091    1.6987    2.6182 N   0  0  0  0  0  0  0  0  0  0  0  0
    2.3827    2.6708    3.3975 C   0  0  2  0  0  0  0  0  0  0  0  0
    2.3439    4.0647    2.7383 C   0  0  0  0  0  0  0  0  0  0  0  0
    2.1032    4.1729    1.5399 O   0  0  0  0  0  0  0  0  0  0  0  0
    3.8254    2.1716    3.5150 C   0  0  0  0  0  0  0  0  0  0  0  0
    1.2500    2.0345    1.7240 H   0  0  0  0  0  0  0  0  0  0  0  0
    1.9483    2.7681    4.3984 H   0  0  0  0  0  0  0  0  0  0  0  0
    4.2760    2.0676    2.5230 H   0  0  0  0  0  0  0  0  0  0  0  0
    4.4273    2.8730    4.1001 H   0  0  0  0  0  0  0  0  0  0  0  0
    3.8494    1.1976    4.0137 H   0  0  0  0  0  0  0  0  0  0  0  0
    2.5835    5.2018    3.4881 N   0  0  0  0  0  0  0  0  0  0  0  0
    2.4849    6.5498    2.9422 C   0  0  0  0  0  0  0  0  0  0  0  0
    2.7161    5.0852    4.4887 H   0  0  0  0  0  0  0  0  0  0  0  0
    3.1811    6.6768    2.1064 H   0  0  0  0  0  0  0  0  0  0  0  0
    1.4673    6.7445    2.5869 H   0  0  0  0  0  0  0  0  0  0  0  0
    2.7307    7.2894    3.7102 H   0  0  0  0  0  0  0  0  0  0  0  0
  1  2  2  0  0  0  0
  1  3  1  0  0  0  0
  1  7  1  0  0  0  0
  3  4  1  0  0  0  0
  3  5  1  0  0  0  0
  3  6  1  0  0  0  0
  7  8  1  0  0  0  0
  7 13  1  0  0  0  0
  8  9  1  0  0  0  0
  8 11  1  0  0  0  0
  8 14  1  0  0  0  0
  9 10  2  0  0  0  0
  9 17  1  0  0  0  0
 11 12  1  0  0  0  0
 11 15  1  0  0  0  0
 11 16  1  0  0  0  0
 12 44  1  0  0  0  0
 17 18  1  0  0  0  0
 17 19  1  0  0  0  0
 18 20  1  0  0  0  0
 18 21  1  0  0  0  0
 18 22  1  0  0  0  0
 23 24  2  0  0  0  0
 23 25  1  0  0  0  0
 23 29  1  0  0  0  0
 25 26  1  0  0  0  0
 25 27  1  0  0  0  0
 25 28  1  0  0  0  0
 29 30  1  0  0  0  0
 29 34  1  0  0  0  0
 30 31  1  0  0  0  0
 30 33  1  0  0  0  0
 30 35  1  0  0  0  0
 31 32  2  0  0  0  0
 31 39  1  0  0  0  0
 33 36  1  0  0  0  0
 33 37  1  0  0  0  0
 33 38  1  0  0  0  0
 39 40  1  0  0  0  0
 39 45  1  0  0  0  0
 40 41  1  0  0  0  0
 40 43  1  0  0  0  0
 40 46  1  0  0  0  0
 41 42  2  0  0  0  0
 41 49  1  0  0  0  0
 43 44  1  0  0  0  0
 43 47  1  0  0  0  0
 43 48  1  0  0  0  0
 49 50  1  0  0  0  0
 49 54  1  0  0  0  0
 50 51  1  0  0  0  0
 50 53  1  0  0  0  0
 50 55  1  0  0  0  0
 51 52  2  0  0  0  0
 51 59  1  0  0  0  0
 53 56  1  0  0  0  0
 53 57  1  0  0  0  0
 53 58  1  0  0  0  0
 59 60  1  0  0  0  0
 59 61  1  0  0  0  0
 60 62  1  0  0  0  0
 60 63  1  0  0  0  0
 60 64  1  0  0  0  0
M  END
$$$$

  -OEChem-02062319063D

 64 63  0     1  0  0  0  0  0999 V2000
    1.8805   -3.8898   -4.7012 C   0  0  0  0  0  0  0  0  0  0  0  0
    1.5632   -2.8315   -5.2219 O   0  0  0  0  0  0  0  0  0  0  0  0
    1.5232   -5.2070   -5.3631 C   0  0  0  0  0  0  0  0  0  0  0  0
    0.8780   -5.7926   -4.7035 H   0  0  0  0  0  0  0  0  0  0  0  0
    0.9943   -5.0253   -6.3029 H   0  0  0  0  0  0  0  0  0  0  0  0
    2.4314   -5.7770   -5.5744 H   0  0  0  0  0  0  0  0  0  0  0  0
    2.5726   -3.8832   -3.5106 N   0  0  0  0  0  0  0  0  0  0  0  0
    3.0032   -2.6712   -2.8002 C   0  0  2  0  0  0  0  0  0  0  0  0
    4.1849   -2.9534   -1.8476 C   0  0  0  0  0  0  0  0  0  0  0  0
    4.5873   -4.1004   -1.6833 O   0  0  0  0  0  0  0  0  0  0  0  0
    1.8111   -2.0760   -2.0339 C   0  0  0  0  0  0  0  0  0  0  0  0
    1.1385   -3.2635   -0.8004 S   0  0  0  0  0  0  0  0  0  0  0  0
    2.8748   -4.7779   -3.1261 H   0  0  0  0  0  0  0  0  0  0  0  0
    3.3537   -1.9365   -3.5326 H   0  0  0  0  0  0  0  0  0  0  0  0
    2.1170   -1.1579   -1.5252 H   0  0  0  0  0  0  0  0  0  0  0  0
    1.0201   -1.8108   -2.7425 H   0  0  0  0  0  0  0  0  0  0  0  0
    4.8273   -1.9148   -1.1962 N   0  0  0  0  0  0  0  0  0  0  0  0
    5.9444   -2.1160   -0.2810 C   0  0  0  0  0  0  0  0  0  0  0  0
    4.5025   -0.9689   -1.3732 H   0  0  0  0  0  0  0  0  0  0  0  0
    5.6523   -2.7793    0.5403 H   0  0  0  0  0  0  0  0  0  0  0  0
    6.7961   -2.5609   -0.8064 H   0  0  0  0  0  0  0  0  0  0  0  0
    6.2616   -1.1588    0.1444 H   0  0  0  0  0  0  0  0  0  0  0  0
   -5.3312    1.5431    2.8277 C   0  0  0  0  0  0  0  0  0  0  0  0
   -5.8461    0.6446    2.1815 O   0  0  0  0  0  0  0  0  0  0  0  0
   -6.0254    2.0877    4.0617 C   0  0  0  0  0  0  0  0  0  0  0  0
   -6.2127    3.1577    3.9434 H   0  0  0  0  0  0  0  0  0  0  0  0
   -6.9808    1.5769    4.2116 H   0  0  0  0  0  0  0  0  0  0  0  0
   -5.3993    1.9288    4.9431 H   0  0  0  0  0  0  0  0  0  0  0  0
   -4.1086    2.0524    2.4442 N   0  0  0  0  0  0  0  0  0  0  0  0
   -3.2652    1.4651    1.3944 C   0  0  2  0  0  0  0  0  0  0  0  0
   -1.7623    1.6089    1.7191 C   0  0  0  0  0  0  0  0  0  0  0  0
   -1.4229    2.3145    2.6607 O   0  0  0  0  0  0  0  0  0  0  0  0
   -3.5928    2.1528    0.0668 C   0  0  0  0  0  0  0  0  0  0  0  0
   -3.6489    2.6931    3.0908 H   0  0  0  0  0  0  0  0  0  0  0  0
   -3.4803    0.3942    1.3058 H   0  0  0  0  0  0  0  0  0  0  0  0
   -3.3821    3.2253    0.1288 H   0  0  0  0  0  0  0  0  0  0  0  0
   -2.9971    1.7261   -0.7457 H   0  0  0  0  0  0  0  0  0  0  0  0
   -4.6518    2.0197   -0.1764 H   0  0  0  0  0  0  0  0  0  0  0  0
   -0.8682    0.6592    1.2569 N   0  0  0  0  0  0  0  0  0  0  0  0
   -0.2994   -0.3331    2.1914 C   0  0  2  0  0  0  0  0  0  0  0  0
    0.5110    0.2473    3.3695 C   0  0  0  0  0  0  0  0  0  0  0  0
    0.4483   -0.2862    4.4698 O   0  0  0  0  0  0  0  0  0  0  0  0
    0.5950   -1.2866    1.3951 C   0  0  0  0  0  0  0  0  0  0  0  0
   -0.3660   -2.1055    0.0595 S   0  0  0  0  0  0  0  0  0  0  0  0
   -1.1770    0.2334    0.3851 H   0  0  0  0  0  0  0  0  0  0  0  0
   -1.1196   -0.9108    2.6319 H   0  0  0  0  0  0  0  0  0  0  0  0
    1.4362   -0.7372    0.9613 H   0  0  0  0  0  0  0  0  0  0  0  0
    1.0037   -2.0514    2.0645 H   0  0  0  0  0  0  0  0  0  0  0  0
    1.4282    1.2556    3.1452 N   0  0  0  0  0  0  0  0  0  0  0  0
    2.0781    2.0060    4.2246 C   0  0  2  0  0  0  0  0  0  0  0  0
    2.2691    3.4853    3.8313 C   0  0  0  0  0  0  0  0  0  0  0  0
    2.3322    3.8067    2.6489 O   0  0  0  0  0  0  0  0  0  0  0  0
    3.4283    1.3552    4.5365 C   0  0  0  0  0  0  0  0  0  0  0  0
    1.2868    1.7738    2.2769 H   0  0  0  0  0  0  0  0  0  0  0  0
    1.4485    1.9818    5.1203 H   0  0  0  0  0  0  0  0  0  0  0  0
    4.0749    1.3746    3.6536 H   0  0  0  0  0  0  0  0  0  0  0  0
    3.9325    1.8867    5.3493 H   0  0  0  0  0  0  0  0  0  0  0  0
    3.2842    0.3142    4.8418 H   0  0  0  0  0  0  0  0  0  0  0  0
    2.3880    4.4578    4.8071 N   0  0  0  0  0  0  0  0  0  0  0  0
    2.5144    5.8784    4.5062 C   0  0  0  0  0  0  0  0  0  0  0  0
    2.2727    4.1680    5.7738 H   0  0  0  0  0  0  0  0  0  0  0  0
    3.4059    6.0643    3.8980 H   0  0  0  0  0  0  0  0  0  0  0  0
    1.6341    6.2335    3.9598 H   0  0  0  0  0  0  0  0  0  0  0  0
    2.6036    6.4543    5.4322 H   0  0  0  0  0  0  0  0  0  0  0  0
  1  2  2  0  0  0  0
  1  3  1  0  0  0  0
  1  7  1  0  0  0  0
  3  4  1  0  0  0  0
  3  5  1  0  0  0  0
  3  6  1  0  0  0  0
  7  8  1  0  0  0  0
  7 13  1  0  0  0  0
  8  9  1  0  0  0  0
  8 11  1  0  0  0  0
  8 14  1  0  0  0  0
  9 10  2  0  0  0  0
  9 17  1  0  0  0  0
 11 12  1  0  0  0  0
 11 15  1  0  0  0  0
 11 16  1  0  0  0  0
 12 44  1  0  0  0  0
 17 18  1  0  0  0  0
 17 19  1  0  0  0  0
 18 20  1  0  0  0  0
 18 21  1  0  0  0  0
 18 22  1  0  0  0  0
 23 24  2  0  0  0  0
 23 25  1  0  0  0  0
 23 29  1  0  0  0  0
 25 26  1  0  0  0  0
 25 27  1  0  0  0  0
 25 28  1  0  0  0  0
 29 30  1  0  0  0  0
 29 34  1  0  0  0  0
 30 31  1  0  0  0  0
 30 33  1  0  0  0  0
 30 35  1  0  0  0  0
 31 32  2  0  0  0  0
 31 39  1  0  0  0  0
 33 36  1  0  0  0  0
 33 37  1  0  0  0  0
 33 38  1  0  0  0  0
 39 40  1  0  0  0  0
 39 45  1  0  0  0  0
 40 41  1  0  0  0  0
 40 43  1  0  0  0  0
 40 46  1  0  0  0  0
 41 42  2  0  0  0  0
 41 49  1  0  0  0  0
 43 44  1  0  0  0  0
 43 47  1  0  0  0  0
 43 48  1  0  0  0  0
 49 50  1  0  0  0  0
 49 54  1  0  0  0  0
 50 51  1  0  0  0  0
 50 53  1  0  0  0  0
 50 55  1  0  0  0  0
 51 52  2  0  0  0  0
 51 59  1  0  0  0  0
 53 56  1  0  0  0  0
 53 57  1  0  0  0  0
 53 58  1  0  0  0  0
 59 60  1  0  0  0  0
 59 61  1  0  0  0  0
 60 62  1  0  0  0  0
 60 63  1  0  0  0  0
 60 64  1  0  0  0  0
M  END
$$$$

  -OEChem-02062319063D

 64 63  0     1  0  0  0  0  0999 V2000
    2.6085   -3.0778   -4.9128 C   0  0  0  0  0  0  0  0  0  0  0  0
    2.4681   -1.9232   -5.2854 O   0  0  0  0  0  0  0  0  0  0  0  0
    2.2737   -4.2297   -5.8410 C   0  0  0  0  0  0  0  0  0  0  0  0
    1.5249   -4.8756   -5.3760 H   0  0  0  0  0  0  0  0  0  0  0  0
    1.8745   -3.8497   -6.7854 H   0  0  0  0  0  0  0  0  0  0  0  0
    3.1721   -4.8158   -6.0487 H   0  0  0  0  0  0  0  0  0  0  0  0
    3.0756   -3.3330   -3.6426 N   0  0  0  0  0  0  0  0  0  0  0  0
    3.4506   -2.3032   -2.6634 C   0  0  2  0  0  0  0  0  0  0  0  0
    4.4134   -2.8567   -1.5902 C   0  0  0  0  0  0  0  0  0  0  0  0
    4.7006   -4.0491   -1.5738 O   0  0  0  0  0  0  0  0  0  0  0  0
    2.1806   -1.7253   -2.0172 C   0  0  0  0  0  0  0  0  0  0  0  0
    1.2164   -3.0246   -1.1410 S   0  0  0  0  0  0  0  0  0  0  0  0
    3.2363   -4.3043   -3.3777 H   0  0  0  0  0  0  0  0  0  0  0  0
    3.9810   -1.4974   -3.1814 H   0  0  0  0  0  0  0  0  0  0  0  0
    2.4488   -0.9342   -1.3113 H   0  0  0  0  0  0  0  0  0  0  0  0
    1.5509   -1.2753   -2.7915 H   0  0  0  0  0  0  0  0  0  0  0  0
    4.9981   -2.0126   -0.6622 N   0  0  0  0  0  0  0  0  0  0  0  0
    5.9277   -2.4744    0.3620 C   0  0  0  0  0  0  0  0  0  0  0  0
    4.7805   -1.0220   -0.7169 H   0  0  0  0  0  0  0  0  0  0  0  0
    5.4593   -3.2431    0.9860 H   0  0  0  0  0  0  0  0  0  0  0  0
    6.8280   -2.8948   -0.0983 H   0  0  0  0  0  0  0  0  0  0  0  0
    6.2250   -1.6418    1.0069 H   0  0  0  0  0  0  0  0  0  0  0  0
   -5.3114    1.5364    2.8399 C   0  0  0  0  0  0  0  0  0  0  0  0
   -5.8421    0.6684    2.1653 O   0  0  0  0  0  0  0  0  0  0  0  0
   -5.9841    2.0389    4.1030 C   0  0  0  0  0  0  0  0  0  0  0  0
   -6.1190    3.1218    4.0489 H   0  0  0  0  0  0  0  0  0  0  0  0
   -6.9632    1.5666    4.2207 H   0  0  0  0  0  0  0  0  0  0  0  0
   -5.3691    1.7978    4.9734 H   0  0  0  0  0  0  0  0  0  0  0  0
   -4.0872    2.0470    2.4640 N   0  0  0  0  0  0  0  0  0  0  0  0
   -3.2588    1.4897    1.3866 C   0  0  2  0  0  0  0  0  0  0  0  0
   -1.7516    1.6352    1.6910 C   0  0  0  0  0  0  0  0  0  0  0  0
   -1.3994    2.3024    2.6553 O   0  0  0  0  0  0  0  0  0  0  0  0
   -3.6117    2.2052    0.0802 C   0  0  0  0  0  0  0  0  0  0  0  0
   -3.6154    2.6587    3.1298 H   0  0  0  0  0  0  0  0  0  0  0  0
   -3.4709    0.4203    1.2771 H   0  0  0  0  0  0  0  0  0  0  0  0
   -3.4068    3.2774    0.1630 H   0  0  0  0  0  0  0  0  0  0  0  0
   -3.0270    1.7999   -0.7511 H   0  0  0  0  0  0  0  0  0  0  0  0
   -4.6739    2.0712   -0.1493 H   0  0  0  0  0  0  0  0  0  0  0  0
   -0.8553    0.7037    1.2011 N   0  0  0  0  0  0  0  0  0  0  0  0
   -0.5411   -0.4776    2.0279 C   0  0  2  0  0  0  0  0  0  0  0  0
    0.0769   -0.1674    3.4072 C   0  0  0  0  0  0  0  0  0  0  0  0
   -0.2480   -0.8373    4.3790 O   0  0  0  0  0  0  0  0  0  0  0  0
    0.4206   -1.3715    1.2397 C   0  0  0  0  0  0  0  0  0  0  0  0
   -0.3378   -1.8771   -0.3563 S   0  0  0  0  0  0  0  0  0  0  0  0
   -1.0783    0.4364    0.2448 H   0  0  0  0  0  0  0  0  0  0  0  0
   -1.4633   -1.0390    2.2159 H   0  0  0  0  0  0  0  0  0  0  0  0
    1.3574   -0.8376    1.0513 H   0  0  0  0  0  0  0  0  0  0  0  0
    0.6569   -2.2668    1.8252 H   0  0  0  0  0  0  0  0  0  0  0  0
    1.0869    0.7680    3.5211 N   0  0  0  0  0  0  0  0  0  0  0  0
    1.5944    1.2555    4.8079 C   0  0  2  0  0  0  0  0  0  0  0  0
    2.0221    2.7347    4.7163 C   0  0  0  0  0  0  0  0  0  0  0  0
    2.3817    3.2087    3.6438 O   0  0  0  0  0  0  0  0  0  0  0  0
    2.7778    0.3820    5.2332 C   0  0  0  0  0  0  0  0  0  0  0  0
    1.1555    1.4241    2.7410 H   0  0  0  0  0  0  0  0  0  0  0  0
    0.8037    1.1885    5.5626 H   0  0  0  0  0  0  0  0  0  0  0  0
    3.5809    0.4392    4.4916 H   0  0  0  0  0  0  0  0  0  0  0  0
    3.1707    0.7134    6.1991 H   0  0  0  0  0  0  0  0  0  0  0  0
    2.4634   -0.6619    5.3282 H   0  0  0  0  0  0  0  0  0  0  0  0
    2.0217    3.5331    5.8456 N   0  0  0  0  0  0  0  0  0  0  0  0
    2.3539    4.9524    5.8193 C   0  0  0  0  0  0  0  0  0  0  0  0
    1.6644    3.1279    6.7057 H   0  0  0  0  0  0  0  0  0  0  0  0
    3.3610    5.1035    5.4164 H   0  0  0  0  0  0  0  0  0  0  0  0
    1.6396    5.5016    5.1968 H   0  0  0  0  0  0  0  0  0  0  0  0
    2.3224    5.3672    6.8314 H   0  0  0  0  0  0  0  0  0  0  0  0
  1  2  2  0  0  0  0
  1  3  1  0  0  0  0
  1  7  1  0  0  0  0
  3  4  1  0  0  0  0
  3  5  1  0  0  0  0
  3  6  1  0  0  0  0
  7  8  1  0  0  0  0
  7 13  1  0  0  0  0
  8  9  1  0  0  0  0
  8 11  1  0  0  0  0
  8 14  1  0  0  0  0
  9 10  2  0  0  0  0
  9 17  1  0  0  0  0
 11 12  1  0  0  0  0
 11 15  1  0  0  0  0
 11 16  1  0  0  0  0
 12 44  1  0  0  0  0
 17 18  1  0  0  0  0
 17 19  1  0  0  0  0
 18 20  1  0  0  0  0
 18 21  1  0  0  0  0
 18 22  1  0  0  0  0
 23 24  2  0  0  0  0
 23 25  1  0  0  0  0
 23 29  1  0  0  0  0
 25 26  1  0  0  0  0
 25 27  1  0  0  0  0
 25 28  1  0  0  0  0
 29 30  1  0  0  0  0
 29 34  1  0  0  0  0
 30 31  1  0  0  0  0
 30 33  1  0  0  0  0
 30 35  1  0  0  0  0
 31 32  2  0  0  0  0
 31 39  1  0  0  0  0
 33 36  1  0  0  0  0
 33 37  1  0  0  0  0
 33 38  1  0  0  0  0
 39 40  1  0  0  0  0
 39 45  1  0  0  0  0
 40 41  1  0  0  0  0
 40 43  1  0  0  0  0
 40 46  1  0  0  0  0
 41 42  2  0  0  0  0
 41 49  1  0  0  0  0
 43 44  1  0  0  0  0
 43 47  1  0  0  0  0
 43 48  1  0  0  0  0
 49 50  1  0  0  0  0
 49 54  1  0  0  0  0
 50 51  1  0  0  0  0
 50 53  1  0  0  0  0
 50 55  1  0  0  0  0
 51 52  2  0  0  0  0
 51 59  1  0  0  0  0
 53 56  1  0  0  0  0
 53 57  1  0  0  0  0
 53 58  1  0  0  0  0
 59 60  1  0  0  0  0
 59 61  1  0  0  0  0
 60 62  1  0  0  0  0
 60 63  1  0  0  0  0
 60 64  1  0  0  0  0
M  END
$$$$

  -OEChem-02062319063D

 64 63  0     1  0  0  0  0  0999 V2000
    3.5629   -2.2061   -4.8490 C   0  0  0  0  0  0  0  0  0  0  0  0
    3.6004   -1.0002   -5.0381 O   0  0  0  0  0  0  0  0  0  0  0  0
    3.3742   -3.1603   -6.0127 C   0  0  0  0  0  0  0  0  0  0  0  0
    2.4455   -3.7218   -5.8851 H   0  0  0  0  0  0  0  0  0  0  0  0
    3.3239   -2.6036   -6.9526 H   0  0  0  0  0  0  0  0  0  0  0  0
    4.2116   -3.8607   -6.0614 H   0  0  0  0  0  0  0  0  0  0  0  0
    3.6914   -2.7006   -3.5703 N   0  0  0  0  0  0  0  0  0  0  0  0
    3.8979   -1.8772   -2.3712 C   0  0  2  0  0  0  0  0  0  0  0  0
    4.6127   -2.6617   -1.2496 C   0  0  0  0  0  0  0  0  0  0  0  0
    4.8291   -3.8624   -1.3743 O   0  0  0  0  0  0  0  0  0  0  0  0
    2.5413   -1.3399   -1.8893 C   0  0  0  0  0  0  0  0  0  0  0  0
    1.3950   -2.7098   -1.4482 S   0  0  0  0  0  0  0  0  0  0  0  0
    3.7159   -3.7123   -3.4483 H   0  0  0  0  0  0  0  0  0  0  0  0
    4.5429   -1.0300   -2.6268 H   0  0  0  0  0  0  0  0  0  0  0  0
    2.6856   -0.6915   -1.0208 H   0  0  0  0  0  0  0  0  0  0  0  0
    2.0878   -0.7344   -2.6811 H   0  0  0  0  0  0  0  0  0  0  0  0
    5.0544   -2.0147   -0.1085 N   0  0  0  0  0  0  0  0  0  0  0  0
    5.7569   -2.6951    0.9737 C   0  0  0  0  0  0  0  0  0  0  0  0
    4.9112   -1.0110   -0.0466 H   0  0  0  0  0  0  0  0  0  0  0  0
    5.1304   -3.4850    1.4012 H   0  0  0  0  0  0  0  0  0  0  0  0
    6.6859   -3.1435    0.6057 H   0  0  0  0  0  0  0  0  0  0  0  0
    6.0063   -1.9858    1.7689 H   0  0  0  0  0  0  0  0  0  0  0  0
   -5.2565    1.8360    3.2128 C   0  0  0  0  0  0  0  0  0  0  0  0
   -5.5195    0.6669    3.4411 O   0  0  0  0  0  0  0  0  0  0  0  0
   -5.8851    2.9297    4.0552 C   0  0  0  0  0  0  0  0  0  0  0  0
   -6.5194    3.5628    3.4303 H   0  0  0  0  0  0  0  0  0  0  0  0
   -6.4969    2.4902    4.8481 H   0  0  0  0  0  0  0  0  0  0  0  0
   -5.1054    3.5436    4.5124 H   0  0  0  0  0  0  0  0  0  0  0  0
   -4.3825    2.1714    2.1995 N   0  0  0  0  0  0  0  0  0  0  0  0
   -3.5545    1.2008    1.4679 C   0  0  2  0  0  0  0  0  0  0  0  0
   -2.0489    1.4377    1.7166 C   0  0  0  0  0  0  0  0  0  0  0  0
   -1.6285    2.5493    1.9991 O   0  0  0  0  0  0  0  0  0  0  0  0
   -3.8897    1.3360   -0.0195 C   0  0  0  0  0  0  0  0  0  0  0  0
   -4.0735    3.1410    2.1756 H   0  0  0  0  0  0  0  0  0  0  0  0
   -3.7834    0.1778    1.7842 H   0  0  0  0  0  0  0  0  0  0  0  0
   -3.6382    2.3379   -0.3813 H   0  0  0  0  0  0  0  0  0  0  0  0
   -3.3286    0.6020   -0.6063 H   0  0  0  0  0  0  0  0  0  0  0  0
   -4.9580    1.1633   -0.1825 H   0  0  0  0  0  0  0  0  0  0  0  0
   -1.0790    0.6208    1.1906 N   0  0  0  0  0  0  0  0  0  0  0  0
   -0.8746   -0.7086    1.7880 C   0  0  2  0  0  0  0  0  0  0  0  0
   -0.4836   -0.6688    3.2796 C   0  0  0  0  0  0  0  0  0  0  0  0
   -0.9633   -1.4866    4.0499 O   0  0  0  0  0  0  0  0  0  0  0  0
    0.2170   -1.4505    1.0097 C   0  0  0  0  0  0  0  0  0  0  0  0
   -0.2487   -1.6298   -0.7580 S   0  0  0  0  0  0  0  0  0  0  0  0
   -0.2293    1.1546    1.0262 H   0  0  0  0  0  0  0  0  0  0  0  0
   -1.8016   -1.2873    1.7071 H   0  0  0  0  0  0  0  0  0  0  0  0
    1.1673   -0.9135    1.0869 H   0  0  0  0  0  0  0  0  0  0  0  0
    0.3608   -2.4469    1.4424 H   0  0  0  0  0  0  0  0  0  0  0  0
    0.4731    0.2173    3.7389 N   0  0  0  0  0  0  0  0  0  0  0  0
    0.8841    0.3467    5.1424 C   0  0  2  0  0  0  0  0  0  0  0  0
    1.5370    1.7202    5.4032 C   0  0  0  0  0  0  0  0  0  0  0  0
    1.9748    2.3769    4.4643 O   0  0  0  0  0  0  0  0  0  0  0  0
    1.8730   -0.7741    5.4856 C   0  0  0  0  0  0  0  0  0  0  0  0
    0.7444    0.9814    3.1193 H   0  0  0  0  0  0  0  0  0  0  0  0
    0.0027    0.2658    5.7876 H   0  0  0  0  0  0  0  0  0  0  0  0
    2.7618   -0.7069    4.8502 H   0  0  0  0  0  0  0  0  0  0  0  0
    2.1861   -0.7016    6.5315 H   0  0  0  0  0  0  0  0  0  0  0  0
    1.4111   -1.7547    5.3348 H   0  0  0  0  0  0  0  0  0  0  0  0
    1.6439    2.2171    6.6890 N   0  0  0  0  0  0  0  0  0  0  0  0
    2.2374    3.5124    6.9977 C   0  0  0  0  0  0  0  0  0  0  0  0
    1.2562    1.6602    7.4452 H   0  0  0  0  0  0  0  0  0  0  0  0
    3.2899    3.5334    6.6955 H   0  0  0  0  0  0  0  0  0  0  0  0
    1.7043    4.3135    6.4743 H   0  0  0  0  0  0  0  0  0  0  0  0
    2.1830    3.7066    8.0732 H   0  0  0  0  0  0  0  0  0  0  0  0
  1  2  2  0  0  0  0
  1  3  1  0  0  0  0
  1  7  1  0  0  0  0
  3  4  1  0  0  0  0
  3  5  1  0  0  0  0
  3  6  1  0  0  0  0
  7  8  1  0  0  0  0
  7 13  1  0  0  0  0
  8  9  1  0  0  0  0
  8 11  1  0  0  0  0
  8 14  1  0  0  0  0
  9 10  2  0  0  0  0
  9 17  1  0  0  0  0
 11 12  1  0  0  0  0
 11 15  1  0  0  0  0
 11 16  1  0  0  0  0
 12 44  1  0  0  0  0
 17 18  1  0  0  0  0
 17 19  1  0  0  0  0
 18 20  1  0  0  0  0
 18 21  1  0  0  0  0
 18 22  1  0  0  0  0
 23 24  2  0  0  0  0
 23 25  1  0  0  0  0
 23 29  1  0  0  0  0
 25 26  1  0  0  0  0
 25 27  1  0  0  0  0
 25 28  1  0  0  0  0
 29 30  1  0  0  0  0
 29 34  1  0  0  0  0
 30 31  1  0  0  0  0
 30 33  1  0  0  0  0
 30 35  1  0  0  0  0
 31 32  2  0  0  0  0
 31 39  1  0  0  0  0
 33 36  1  0  0  0  0
 33 37  1  0  0  0  0
 33 38  1  0  0  0  0
 39 40  1  0  0  0  0
 39 45  1  0  0  0  0
 40 41  1  0  0  0  0
 40 43  1  0  0  0  0
 40 46  1  0  0  0  0
 41 42  2  0  0  0  0
 41 49  1  0  0  0  0
 43 44  1  0  0  0  0
 43 47  1  0  0  0  0
 43 48  1  0  0  0  0
 49 50  1  0  0  0  0
 49 54  1  0  0  0  0
 50 51  1  0  0  0  0
 50 53  1  0  0  0  0
 50 55  1  0  0  0  0
 51 52  2  0  0  0  0
 51 59  1  0  0  0  0
 53 56  1  0  0  0  0
 53 57  1  0  0  0  0
 53 58  1  0  0  0  0
 59 60  1  0  0  0  0
 59 61  1  0  0  0  0
 60 62  1  0  0  0  0
 60 63  1  0  0  0  0
 60 64  1  0  0  0  0
M  END
$$$$

  -OEChem-02062319063D

 64 63  0     1  0  0  0  0  0999 V2000
    4.2893   -1.4579   -4.4785 C   0  0  0  0  0  0  0  0  0  0  0  0
    4.3297   -0.2375   -4.4642 O   0  0  0  0  0  0  0  0  0  0  0  0
    4.3839   -2.2111   -5.7917 C   0  0  0  0  0  0  0  0  0  0  0  0
    3.4712   -2.7892   -5.9559 H   0  0  0  0  0  0  0  0  0  0  0  0
    4.5105   -1.5083   -6.6201 H   0  0  0  0  0  0  0  0  0  0  0  0
    5.2393   -2.8907   -5.7721 H   0  0  0  0  0  0  0  0  0  0  0  0
    4.1623   -2.1488   -3.2938 N   0  0  0  0  0  0  0  0  0  0  0  0
    4.1151   -1.5231   -1.9653 C   0  0  2  0  0  0  0  0  0  0  0  0
    4.6171   -2.4754   -0.8585 C   0  0  0  0  0  0  0  0  0  0  0  0
    4.9026   -3.6384   -1.1234 O   0  0  0  0  0  0  0  0  0  0  0  0
    2.6802   -1.0547   -1.6771 C   0  0  0  0  0  0  0  0  0  0  0  0
    1.5037   -2.4695   -1.6422 S   0  0  0  0  0  0  0  0  0  0  0  0
    4.1986   -3.1669   -3.3264 H   0  0  0  0  0  0  0  0  0  0  0  0
    4.7791   -0.6522   -1.9574 H   0  0  0  0  0  0  0  0  0  0  0  0
    2.6482   -0.5316   -0.7175 H   0  0  0  0  0  0  0  0  0  0  0  0
    2.3651   -0.3449   -2.4492 H   0  0  0  0  0  0  0  0  0  0  0  0
    4.7855   -2.0194    0.4375 N   0  0  0  0  0  0  0  0  0  0  0  0
    5.2872   -2.8583    1.5191 C   0  0  0  0  0  0  0  0  0  0  0  0
    4.6027   -1.0375    0.6221 H   0  0  0  0  0  0  0  0  0  0  0  0
    4.6382   -3.7289    1.6616 H   0  0  0  0  0  0  0  0  0  0  0  0
    6.3006   -3.2072    1.2947 H   0  0  0  0  0  0  0  0  0  0  0  0
    5.3153   -2.2924    2.4550 H   0  0  0  0  0  0  0  0  0  0  0  0
   -5.4682    2.2309    2.7645 C   0  0  0  0  0  0  0  0  0  0  0  0
   -6.0992    1.1898    2.6800 O   0  0  0  0  0  0  0  0  0  0  0  0
   -6.0879    3.4416    3.4366 C   0  0  0  0  0  0  0  0  0  0  0  0
   -6.0515    4.3024    2.7644 H   0  0  0  0  0  0  0  0  0  0  0  0
   -7.1323    3.2375    3.6897 H   0  0  0  0  0  0  0  0  0  0  0  0
   -5.5421    3.6794    4.3528 H   0  0  0  0  0  0  0  0  0  0  0  0
   -4.1894    2.3057    2.2550 N   0  0  0  0  0  0  0  0  0  0  0  0
   -3.4615    1.1770    1.6599 C   0  0  2  0  0  0  0  0  0  0  0  0
   -1.9343    1.3395    1.8320 C   0  0  0  0  0  0  0  0  0  0  0  0
   -1.4459    2.4077    2.1692 O   0  0  0  0  0  0  0  0  0  0  0  0
   -3.8379    1.0856    0.1766 C   0  0  0  0  0  0  0  0  0  0  0  0
   -3.6615    3.1615    2.4219 H   0  0  0  0  0  0  0  0  0  0  0  0
   -3.7508    0.2474    2.1627 H   0  0  0  0  0  0  0  0  0  0  0  0
   -3.5438    1.9995   -0.3494 H   0  0  0  0  0  0  0  0  0  0  0  0
   -3.3385    0.2345   -0.2970 H   0  0  0  0  0  0  0  0  0  0  0  0
   -4.9187    0.9519    0.0670 H   0  0  0  0  0  0  0  0  0  0  0  0
   -1.0206    0.4737    1.2809 N   0  0  0  0  0  0  0  0  0  0  0  0
   -1.0476   -0.9523    1.6430 C   0  0  2  0  0  0  0  0  0  0  0  0
   -0.8398   -1.2033    3.1495 C   0  0  0  0  0  0  0  0  0  0  0  0
   -1.5488   -2.0090    3.7325 O   0  0  0  0  0  0  0  0  0  0  0  0
    0.0457   -1.6870    0.8608 C   0  0  0  0  0  0  0  0  0  0  0  0
   -0.2157   -1.5151   -0.9499 S   0  0  0  0  0  0  0  0  0  0  0  0
   -0.1036    0.9081    1.2179 H   0  0  0  0  0  0  0  0  0  0  0  0
   -2.0156   -1.3826    1.3628 H   0  0  0  0  0  0  0  0  0  0  0  0
    1.0296   -1.2899    1.1275 H   0  0  0  0  0  0  0  0  0  0  0  0
    0.0330   -2.7508    1.1221 H   0  0  0  0  0  0  0  0  0  0  0  0
    0.1507   -0.5371    3.8459 N   0  0  0  0  0  0  0  0  0  0  0  0
    0.3682   -0.6358    5.2942 C   0  0  2  0  0  0  0  0  0  0  0  0
    1.1148    0.6067    5.8217 C   0  0  0  0  0  0  0  0  0  0  0  0
    1.7664    1.2990    5.0466 O   0  0  0  0  0  0  0  0  0  0  0  0
    1.1776   -1.9022    5.5950 C   0  0  0  0  0  0  0  0  0  0  0  0
    0.6309    0.2274    3.3703 H   0  0  0  0  0  0  0  0  0  0  0  0
   -0.5982   -0.6901    5.8068 H   0  0  0  0  0  0  0  0  0  0  0  0
    2.1462   -1.8670    5.0863 H   0  0  0  0  0  0  0  0  0  0  0  0
    1.3528   -1.9984    6.6707 H   0  0  0  0  0  0  0  0  0  0  0  0
    0.6378   -2.7914    5.2550 H   0  0  0  0  0  0  0  0  0  0  0  0
    1.0566    0.9504    7.1595 N   0  0  0  0  0  0  0  0  0  0  0  0
    1.6931    2.1436    7.7044 C   0  0  0  0  0  0  0  0  0  0  0  0
    0.4789    0.3795    7.7701 H   0  0  0  0  0  0  0  0  0  0  0  0
    2.7716    2.1249    7.5145 H   0  0  0  0  0  0  0  0  0  0  0  0
    1.2708    3.0451    7.2478 H   0  0  0  0  0  0  0  0  0  0  0  0
    1.5347    2.1967    8.7859 H   0  0  0  0  0  0  0  0  0  0  0  0
  1  2  2  0  0  0  0
  1  3  1  0  0  0  0
  1  7  1  0  0  0  0
  3  4  1  0  0  0  0
  3  5  1  0  0  0  0
  3  6  1  0  0  0  0
  7  8  1  0  0  0  0
  7 13  1  0  0  0  0
  8  9  1  0  0  0  0
  8 11  1  0  0  0  0
  8 14  1  0  0  0  0
  9 10  2  0  0  0  0
  9 17  1  0  0  0  0
 11 12  1  0  0  0  0
 11 15  1  0  0  0  0
 11 16  1  0  0  0  0
 12 44  1  0  0  0  0
 17 18  1  0  0  0  0
 17 19  1  0  0  0  0
 18 20  1  0  0  0  0
 18 21  1  0  0  0  0
 18 22  1  0  0  0  0
 23 24  2  0  0  0  0
 23 25  1  0  0  0  0
 23 29  1  0  0  0  0
 25 26  1  0  0  0  0
 25 27  1  0  0  0  0
 25 28  1  0  0  0  0
 29 30  1  0  0  0  0
 29 34  1  0  0  0  0
 30 31  1  0  0  0  0
 30 33  1  0  0  0  0
 30 35  1  0  0  0  0
 31 32  2  0  0  0  0
 31 39  1  0  0  0  0
 33 36  1  0  0  0  0
 33 37  1  0  0  0  0
 33 38  1  0  0  0  0
 39 40  1  0  0  0  0
 39 45  1  0  0  0  0
 40 41  1  0  0  0  0
 40 43  1  0  0  0  0
 40 46  1  0  0  0  0
 41 42  2  0  0  0  0
 41 49  1  0  0  0  0
 43 44  1  0  0  0  0
 43 47  1  0  0  0  0
 43 48  1  0  0  0  0
 49 50  1  0  0  0  0
 49 54  1  0  0  0  0
 50 51  1  0  0  0  0
 50 53  1  0  0  0  0
 50 55  1  0  0  0  0
 51 52  2  0  0  0  0
 51 59  1  0  0  0  0
 53 56  1  0  0  0  0
 53 57  1  0  0  0  0
 53 58  1  0  0  0  0
 59 60  1  0  0  0  0
 59 61  1  0  0  0  0
 60 62  1  0  0  0  0
 60 63  1  0  0  0  0
 60 64  1  0  0  0  0
M  END
$$$$

  -OEChem-02062319063D

 64 63  0     1  0  0  0  0  0999 V2000
    5.1131   -1.0815   -3.9874 C   0  0  0  0  0  0  0  0  0  0  0  0
    5.3443    0.0856   -3.7123 O   0  0  0  0  0  0  0  0  0  0  0  0
    5.2614   -1.5759   -5.4138 C   0  0  0  0  0  0  0  0  0  0  0  0
    4.3032   -1.9543   -5.7784 H   0  0  0  0  0  0  0  0  0  0  0  0
    5.5882   -0.7592   -6.0635 H   0  0  0  0  0  0  0  0  0  0  0  0
    6.0020   -2.3781   -5.4565 H   0  0  0  0  0  0  0  0  0  0  0  0
    4.7183   -1.9501   -2.9941 N   0  0  0  0  0  0  0  0  0  0  0  0
    4.5749   -1.5891   -1.5770 C   0  0  2  0  0  0  0  0  0  0  0  0
    4.7395   -2.8132   -0.6504 C   0  0  0  0  0  0  0  0  0  0  0  0
    4.8419   -3.9403   -1.1232 O   0  0  0  0  0  0  0  0  0  0  0  0
    3.2093   -0.9192   -1.3595 C   0  0  0  0  0  0  0  0  0  0  0  0
    1.8273   -2.0656   -1.7594 S   0  0  0  0  0  0  0  0  0  0  0  0
    4.5894   -2.9314   -3.2382 H   0  0  0  0  0  0  0  0  0  0  0  0
    5.3637   -0.8787   -1.3076 H   0  0  0  0  0  0  0  0  0  0  0  0
    3.1194   -0.5913   -0.3204 H   0  0  0  0  0  0  0  0  0  0  0  0
    3.1327   -0.0296   -1.9932 H   0  0  0  0  0  0  0  0  0  0  0  0
    4.8079   -2.6509    0.7225 N   0  0  0  0  0  0  0  0  0  0  0  0
    4.9734   -3.7629    1.6507 C   0  0  0  0  0  0  0  0  0  0  0  0
    4.7719   -1.7049    1.0903 H   0  0  0  0  0  0  0  0  0  0  0  0
    4.1283   -4.4550    1.5728 H   0  0  0  0  0  0  0  0  0  0  0  0
    5.8976   -4.3093    1.4347 H   0  0  0  0  0  0  0  0  0  0  0  0
    5.0239   -3.3930    2.6792 H   0  0  0  0  0  0  0  0  0  0  0  0
   -5.2921    2.1271    3.0406 C   0  0  0  0  0  0  0  0  0  0  0  0
   -5.7216    0.9986    3.2161 O   0  0  0  0  0  0  0  0  0  0  0  0
   -5.8855    3.2914    3.8099 C   0  0  0  0  0  0  0  0  0  0  0  0
   -6.3583    3.9917    3.1173 H   0  0  0  0  0  0  0  0  0  0  0  0
   -6.6379    2.9316    4.5170 H   0  0  0  0  0  0  0  0  0  0  0  0
   -5.1007    3.8115    4.3645 H   0  0  0  0  0  0  0  0  0  0  0  0
   -4.2637    2.3537    2.1505 N   0  0  0  0  0  0  0  0  0  0  0  0
   -3.4758    1.2940    1.5037 C   0  0  2  0  0  0  0  0  0  0  0  0
   -1.9618    1.5074    1.7303 C   0  0  0  0  0  0  0  0  0  0  0  0
   -1.5259    2.5846    2.1074 O   0  0  0  0  0  0  0  0  0  0  0  0
   -3.8196    1.3089    0.0114 C   0  0  0  0  0  0  0  0  0  0  0  0
   -3.8378    3.2786    2.1806 H   0  0  0  0  0  0  0  0  0  0  0  0
   -3.7353    0.3142    1.9188 H   0  0  0  0  0  0  0  0  0  0  0  0
   -3.5552    2.2732   -0.4341 H   0  0  0  0  0  0  0  0  0  0  0  0
   -3.2767    0.5210   -0.5189 H   0  0  0  0  0  0  0  0  0  0  0  0
   -4.8922    1.1414   -0.1291 H   0  0  0  0  0  0  0  0  0  0  0  0
   -0.9889    0.6703    1.2374 N   0  0  0  0  0  0  0  0  0  0  0  0
   -1.0930   -0.7950    1.3176 C   0  0  2  0  0  0  0  0  0  0  0  0
   -1.1952   -1.3299    2.7585 C   0  0  0  0  0  0  0  0  0  0  0  0
   -1.9704   -2.2407    3.0050 O   0  0  0  0  0  0  0  0  0  0  0  0
    0.1214   -1.4263    0.6294 C   0  0  0  0  0  0  0  0  0  0  0  0
    0.1942   -0.9289   -1.1378 S   0  0  0  0  0  0  0  0  0  0  0  0
   -0.0615    1.0834    1.2965 H   0  0  0  0  0  0  0  0  0  0  0  0
   -1.9905   -1.1244    0.7830 H   0  0  0  0  0  0  0  0  0  0  0  0
    1.0436   -1.1255    1.1352 H   0  0  0  0  0  0  0  0  0  0  0  0
    0.0477   -2.5176    0.6885 H   0  0  0  0  0  0  0  0  0  0  0  0
   -0.3695   -0.8516    3.7581 N   0  0  0  0  0  0  0  0  0  0  0  0
   -0.4605   -1.2563    5.1667 C   0  0  2  0  0  0  0  0  0  0  0  0
    0.0434   -0.1385    6.1015 C   0  0  0  0  0  0  0  0  0  0  0  0
    0.7768    0.7399    5.6606 O   0  0  0  0  0  0  0  0  0  0  0  0
    0.3685   -2.5292    5.3662 C   0  0  0  0  0  0  0  0  0  0  0  0
    0.1648   -0.0038    3.5645 H   0  0  0  0  0  0  0  0  0  0  0  0
   -1.5055   -1.4583    5.4259 H   0  0  0  0  0  0  0  0  0  0  0  0
    1.4170   -2.3453    5.1108 H   0  0  0  0  0  0  0  0  0  0  0  0
    0.3167   -2.8629    6.4070 H   0  0  0  0  0  0  0  0  0  0  0  0
   -0.0101   -3.3342    4.7284 H   0  0  0  0  0  0  0  0  0  0  0  0
   -0.3255   -0.1170    7.4335 N   0  0  0  0  0  0  0  0  0  0  0  0
    0.0845    0.9320    8.3592 C   0  0  0  0  0  0  0  0  0  0  0  0
   -0.9650   -0.8372    7.7578 H   0  0  0  0  0  0  0  0  0  0  0  0
    1.1758    0.9652    8.4425 H   0  0  0  0  0  0  0  0  0  0  0  0
   -0.2727    1.9082    8.0146 H   0  0  0  0  0  0  0  0  0  0  0  0
   -0.3315    0.7429    9.3535 H   0  0  0  0  0  0  0  0  0  0  0  0
  1  2  2  0  0  0  0
  1  3  1  0  0  0  0
  1  7  1  0  0  0  0
  3  4  1  0  0  0  0
  3  5  1  0  0  0  0
  3  6  1  0  0  0  0
  7  8  1  0  0  0  0
  7 13  1  0  0  0  0
  8  9  1  0  0  0  0
  8 11  1  0  0  0  0
  8 14  1  0  0  0  0
  9 10  2  0  0  0  0
  9 17  1  0  0  0  0
 11 12  1  0  0  0  0
 11 15  1  0  0  0  0
 11 16  1  0  0  0  0
 12 44  1  0  0  0  0
 17 18  1  0  0  0  0
 17 19  1  0  0  0  0
 18 20  1  0  0  0  0
 18 21  1  0  0  0  0
 18 22  1  0  0  0  0
 23 24  2  0  0  0  0
 23 25  1  0  0  0  0
 23 29  1  0  0  0  0
 25 26  1  0  0  0  0
 25 27  1  0  0  0  0
 25 28  1  0  0  0  0
 29 30  1  0  0  0  0
 29 34  1  0  0  0  0
 30 31  1  0  0  0  0
 30 33  1  0  0  0  0
 30 35  1  0  0  0  0
 31 32  2  0  0  0  0
 31 39  1  0  0  0  0
 33 36  1  0  0  0  0
 33 37  1  0  0  0  0
 33 38  1  0  0  0  0
 39 40  1  0  0  0  0
 39 45  1  0  0  0  0
 40 41  1  0  0  0  0
 40 43  1  0  0  0  0
 40 46  1  0  0  0  0
 41 42  2  0  0  0  0
 41 49  1  0  0  0  0
 43 44  1  0  0  0  0
 43 47  1  0  0  0  0
 43 48  1  0  0  0  0
 49 50  1  0  0  0  0
 49 54  1  0  0  0  0
 50 51  1  0  0  0  0
 50 53  1  0  0  0  0
 50 55  1  0  0  0  0
 51 52  2  0  0  0  0
 51 59  1  0  0  0  0
 53 56  1  0  0  0  0
 53 57  1  0  0  0  0
 53 58  1  0  0  0  0
 59 60  1  0  0  0  0
 59 61  1  0  0  0  0
 60 62  1  0  0  0  0
 60 63  1  0  0  0  0
 60 64  1  0  0  0  0
M  END
$$$$

  -OEChem-02062319063D

 64 63  0     1  0  0  0  0  0999 V2000
    5.8608   -0.6793   -3.0594 C   0  0  0  0  0  0  0  0  0  0  0  0
    6.0539    0.4246   -2.5741 O   0  0  0  0  0  0  0  0  0  0  0  0
    6.3283   -0.9880   -4.4689 C   0  0  0  0  0  0  0  0  0  0  0  0
    5.4749   -1.2723   -5.0896 H   0  0  0  0  0  0  0  0  0  0  0  0
    6.8066   -0.1083   -4.9088 H   0  0  0  0  0  0  0  0  0  0  0  0
    7.0488   -1.8094   -4.4522 H   0  0  0  0  0  0  0  0  0  0  0  0
    5.2159   -1.6461   -2.3201 N   0  0  0  0  0  0  0  0  0  0  0  0
    4.7275   -1.4594   -0.9470 C   0  0  2  0  0  0  0  0  0  0  0  0
    4.6028   -2.7976   -0.1870 C   0  0  0  0  0  0  0  0  0  0  0  0
    4.7445   -3.8623   -0.7788 O   0  0  0  0  0  0  0  0  0  0  0  0
    3.3765   -0.7285   -0.9828 C   0  0  0  0  0  0  0  0  0  0  0  0
    2.1179   -1.6805   -1.9300 S   0  0  0  0  0  0  0  0  0  0  0  0
    5.1088   -2.5730   -2.7304 H   0  0  0  0  0  0  0  0  0  0  0  0
    5.4463   -0.8459   -0.3937 H   0  0  0  0  0  0  0  0  0  0  0  0
    3.0189   -0.5671    0.0375 H   0  0  0  0  0  0  0  0  0  0  0  0
    3.5040    0.2552   -1.4465 H   0  0  0  0  0  0  0  0  0  0  0  0
    4.3612   -2.8117    1.1761 N   0  0  0  0  0  0  0  0  0  0  0  0
    4.2818   -4.0395    1.9593 C   0  0  0  0  0  0  0  0  0  0  0  0
    4.3301   -1.9197    1.6614 H   0  0  0  0  0  0  0  0  0  0  0  0
    3.4945   -4.6935    1.5692 H   0  0  0  0  0  0  0  0  0  0  0  0
    5.2350   -4.5779    1.9268 H   0  0  0  0  0  0  0  0  0  0  0  0
    4.0507   -3.8081    3.0038 H   0  0  0  0  0  0  0  0  0  0  0  0
   -4.2593    1.5481    3.9496 C   0  0  0  0  0  0  0  0  0  0  0  0
   -4.0066    0.3880    4.2444 O   0  0  0  0  0  0  0  0  0  0  0  0
   -4.7091    2.5150    5.0282 C   0  0  0  0  0  0  0  0  0  0  0  0
   -5.6159    3.0349    4.7102 H   0  0  0  0  0  0  0  0  0  0  0  0
   -4.9211    1.9750    5.9551 H   0  0  0  0  0  0  0  0  0  0  0  0
   -3.9236    3.2502    5.2197 H   0  0  0  0  0  0  0  0  0  0  0  0
   -4.0837    1.9976    2.6567 N   0  0  0  0  0  0  0  0  0  0  0  0
   -3.3857    1.2026    1.6359 C   0  0  2  0  0  0  0  0  0  0  0  0
   -1.8477    1.2709    1.7963 C   0  0  0  0  0  0  0  0  0  0  0  0
   -1.3064    2.2340    2.3175 O   0  0  0  0  0  0  0  0  0  0  0  0
   -3.8025    1.7345    0.2635 C   0  0  0  0  0  0  0  0  0  0  0  0
   -4.0831    3.0069    2.5380 H   0  0  0  0  0  0  0  0  0  0  0  0
   -3.7015    0.1566    1.7127 H   0  0  0  0  0  0  0  0  0  0  0  0
   -3.4958    2.7790    0.1474 H   0  0  0  0  0  0  0  0  0  0  0  0
   -3.3354    1.1461   -0.5323 H   0  0  0  0  0  0  0  0  0  0  0  0
   -4.8887    1.6726    0.1459 H   0  0  0  0  0  0  0  0  0  0  0  0
   -0.9636    0.4199    1.1730 N   0  0  0  0  0  0  0  0  0  0  0  0
   -1.2757   -0.9714    0.8110 C   0  0  2  0  0  0  0  0  0  0  0  0
   -1.6462   -1.8230    2.0377 C   0  0  0  0  0  0  0  0  0  0  0  0
   -2.6585   -2.5056    1.9999 O   0  0  0  0  0  0  0  0  0  0  0  0
   -0.0597   -1.5953    0.1182 C   0  0  0  0  0  0  0  0  0  0  0  0
    0.3853   -0.6524   -1.3940 S   0  0  0  0  0  0  0  0  0  0  0  0
    0.0093    0.7021    1.2619 H   0  0  0  0  0  0  0  0  0  0  0  0
   -2.1191   -0.9926    0.1120 H   0  0  0  0  0  0  0  0  0  0  0  0
    0.7945   -1.6146    0.8018 H   0  0  0  0  0  0  0  0  0  0  0  0
   -0.2854   -2.6305   -0.1608 H   0  0  0  0  0  0  0  0  0  0  0  0
   -0.8961   -1.7473    3.1952 N   0  0  0  0  0  0  0  0  0  0  0  0
   -1.4317   -2.1069    4.5127 C   0  0  2  0  0  0  0  0  0  0  0  0
   -1.0128   -1.0525    5.5556 C   0  0  0  0  0  0  0  0  0  0  0  0
    0.1773   -0.8486    5.7705 O   0  0  0  0  0  0  0  0  0  0  0  0
   -0.9216   -3.5001    4.8899 C   0  0  0  0  0  0  0  0  0  0  0  0
   -0.1323   -1.0742    3.1952 H   0  0  0  0  0  0  0  0  0  0  0  0
   -2.5272   -2.1287    4.4888 H   0  0  0  0  0  0  0  0  0  0  0  0
    0.1725   -3.5153    4.9187 H   0  0  0  0  0  0  0  0  0  0  0  0
   -1.3000   -3.7888    5.8752 H   0  0  0  0  0  0  0  0  0  0  0  0
   -1.2626   -4.2382    4.1574 H   0  0  0  0  0  0  0  0  0  0  0  0
   -1.9651   -0.2690    6.1760 N   0  0  0  0  0  0  0  0  0  0  0  0
   -1.6175    0.8673    7.0188 C   0  0  0  0  0  0  0  0  0  0  0  0
   -2.8861   -0.2690    5.7287 H   0  0  0  0  0  0  0  0  0  0  0  0
   -0.9768    0.5480    7.8476 H   0  0  0  0  0  0  0  0  0  0  0  0
   -1.0882    1.6287    6.4367 H   0  0  0  0  0  0  0  0  0  0  0  0
   -2.5228    1.3164    7.4385 H   0  0  0  0  0  0  0  0  0  0  0  0
  1  2  2  0  0  0  0
  1  3  1  0  0  0  0
  1  7  1  0  0  0  0
  3  4  1  0  0  0  0
  3  5  1  0  0  0  0
  3  6  1  0  0  0  0
  7  8  1  0  0  0  0
  7 13  1  0  0  0  0
  8  9  1  0  0  0  0
  8 11  1  0  0  0  0
  8 14  1  0  0  0  0
  9 10  2  0  0  0  0
  9 17  1  0  0  0  0
 11 12  1  0  0  0  0
 11 15  1  0  0  0  0
 11 16  1  0  0  0  0
 12 44  1  0  0  0  0
 17 18  1  0  0  0  0
 17 19  1  0  0  0  0
 18 20  1  0  0  0  0
 18 21  1  0  0  0  0
 18 22  1  0  0  0  0
 23 24  2  0  0  0  0
 23 25  1  0  0  0  0
 23 29  1  0  0  0  0
 25 26  1  0  0  0  0
 25 27  1  0  0  0  0
 25 28  1  0  0  0  0
 29 30  1  0  0  0  0
 29 34  1  0  0  0  0
 30 31  1  0  0  0  0
 30 33  1  0  0  0  0
 30 35  1  0  0  0  0
 31 32  2  0  0  0  0
 31 39  1  0  0  0  0
 33 36  1  0  0  0  0
 33 37  1  0  0  0  0
 33 38  1  0  0  0  0
 39 40  1  0  0  0  0
 39 45  1  0  0  0  0
 40 41  1  0  0  0  0
 40 43  1  0  0  0  0
 40 46  1  0  0  0  0
 41 42  2  0  0  0  0
 41 49  1  0  0  0  0
 43 44  1  0  0  0  0
 43 47  1  0  0  0  0
 43 48  1  0  0  0  0
 49 50  1  0  0  0  0
 49 54  1  0  0  0  0
 50 51  1  0  0  0  0
 50 53  1  0  0  0  0
 50 55  1  0  0  0  0
 51 52  2  0  0  0  0
 51 59  1  0  0  0  0
 53 56  1  0  0  0  0
 53 57  1  0  0  0  0
 53 58  1  0  0  0  0
 59 60  1  0  0  0  0
 59 61  1  0  0  0  0
 60 62  1  0  0  0  0
 60 63  1  0  0  0  0
 60 64  1  0  0  0  0
M  END
$$$$

  -OEChem-02062319063D

 64 63  0     1  0  0  0  0  0999 V2000
    6.4725   -0.6649   -2.1621 C   0  0  0  0  0  0  0  0  0  0  0  0
    6.7114    0.2783   -1.4241 O   0  0  0  0  0  0  0  0  0  0  0  0
    7.1073   -0.7423   -3.5377 C   0  0  0  0  0  0  0  0  0  0  0  0
    6.3303   -0.7918   -4.3044 H   0  0  0  0  0  0  0  0  0  0  0  0
    7.7247    0.1421   -3.7180 H   0  0  0  0  0  0  0  0  0  0  0  0
    7.7371   -1.6323   -3.6095 H   0  0  0  0  0  0  0  0  0  0  0  0
    5.6256   -1.6644   -1.7376 N   0  0  0  0  0  0  0  0  0  0  0  0
    4.9777   -1.7075   -0.4192 C   0  0  2  0  0  0  0  0  0  0  0  0
    4.5954   -3.1468   -0.0113 C   0  0  0  0  0  0  0  0  0  0  0  0
    4.7187   -4.0699   -0.8096 O   0  0  0  0  0  0  0  0  0  0  0  0
    3.7390   -0.7975   -0.4290 C   0  0  0  0  0  0  0  0  0  0  0  0
    2.5231   -1.3281   -1.7041 S   0  0  0  0  0  0  0  0  0  0  0  0
    5.4822   -2.4649   -2.3526 H   0  0  0  0  0  0  0  0  0  0  0  0
    5.6798   -1.3390    0.3359 H   0  0  0  0  0  0  0  0  0  0  0  0
    3.2637   -0.8109    0.5556 H   0  0  0  0  0  0  0  0  0  0  0  0
    4.0442    0.2340   -0.6331 H   0  0  0  0  0  0  0  0  0  0  0  0
    4.1451   -3.4201    1.2688 N   0  0  0  0  0  0  0  0  0  0  0  0
    3.8178   -4.7652    1.7274 C   0  0  0  0  0  0  0  0  0  0  0  0
    4.1212   -2.6554    1.9372 H   0  0  0  0  0  0  0  0  0  0  0  0
    3.0501   -5.2126    1.0870 H   0  0  0  0  0  0  0  0  0  0  0  0
    4.7077   -5.4030    1.7082 H   0  0  0  0  0  0  0  0  0  0  0  0
    3.4357   -4.7347    2.7524 H   0  0  0  0  0  0  0  0  0  0  0  0
   -4.6132    1.4170    3.7616 C   0  0  0  0  0  0  0  0  0  0  0  0
   -4.5255    0.2076    3.9210 O   0  0  0  0  0  0  0  0  0  0  0  0
   -5.1245    2.2862    4.8947 C   0  0  0  0  0  0  0  0  0  0  0  0
   -5.9597    2.8998    4.5476 H   0  0  0  0  0  0  0  0  0  0  0  0
   -5.4680    1.6629    5.7250 H   0  0  0  0  0  0  0  0  0  0  0  0
   -4.3245    2.9397    5.2516 H   0  0  0  0  0  0  0  0  0  0  0  0
   -4.2087    2.0067    2.5817 N   0  0  0  0  0  0  0  0  0  0  0  0
   -3.4528    1.2924    1.5420 C   0  0  2  0  0  0  0  0  0  0  0  0
   -1.9225    1.4075    1.7580 C   0  0  0  0  0  0  0  0  0  0  0  0
   -1.4428    2.3552    2.3617 O   0  0  0  0  0  0  0  0  0  0  0  0
   -3.8496    1.8939    0.1920 C   0  0  0  0  0  0  0  0  0  0  0  0
   -4.0981    3.0171    2.6132 H   0  0  0  0  0  0  0  0  0  0  0  0
   -3.7363    0.2360    1.5422 H   0  0  0  0  0  0  0  0  0  0  0  0
   -3.5771    2.9533    0.1480 H   0  0  0  0  0  0  0  0  0  0  0  0
   -3.3434    1.3720   -0.6253 H   0  0  0  0  0  0  0  0  0  0  0  0
   -4.9297    1.8036    0.0403 H   0  0  0  0  0  0  0  0  0  0  0  0
   -0.9754    0.5828    1.1897 N   0  0  0  0  0  0  0  0  0  0  0  0
   -1.2352   -0.7132    0.5428 C   0  0  2  0  0  0  0  0  0  0  0  0
   -1.8822   -1.7255    1.5032 C   0  0  0  0  0  0  0  0  0  0  0  0
   -2.8977   -2.3102    1.1575 O   0  0  0  0  0  0  0  0  0  0  0  0
    0.0857   -1.2951    0.0280 C   0  0  0  0  0  0  0  0  0  0  0  0
    0.8743   -0.1624   -1.1834 S   0  0  0  0  0  0  0  0  0  0  0  0
   -0.0154    0.8984    1.3101 H   0  0  0  0  0  0  0  0  0  0  0  0
   -1.9073   -0.5730   -0.3108 H   0  0  0  0  0  0  0  0  0  0  0  0
    0.7719   -1.4725    0.8619 H   0  0  0  0  0  0  0  0  0  0  0  0
   -0.1047   -2.2583   -0.4581 H   0  0  0  0  0  0  0  0  0  0  0  0
   -1.3924   -1.8734    2.7857 N   0  0  0  0  0  0  0  0  0  0  0  0
   -2.1983   -2.3918    3.8962 C   0  0  2  0  0  0  0  0  0  0  0  0
   -1.8540   -1.6369    5.1950 C   0  0  0  0  0  0  0  0  0  0  0  0
   -0.6817   -1.5313    5.5406 O   0  0  0  0  0  0  0  0  0  0  0  0
   -1.9347   -3.8917    4.0470 C   0  0  0  0  0  0  0  0  0  0  0  0
   -0.6123   -1.2715    3.0452 H   0  0  0  0  0  0  0  0  0  0  0  0
   -3.2642   -2.2385    3.6935 H   0  0  0  0  0  0  0  0  0  0  0  0
   -0.8752   -4.0778    4.2498 H   0  0  0  0  0  0  0  0  0  0  0  0
   -2.5248   -4.2994    4.8733 H   0  0  0  0  0  0  0  0  0  0  0  0
   -2.2133   -4.4191    3.1295 H   0  0  0  0  0  0  0  0  0  0  0  0
   -2.8434   -1.0113    5.9270 N   0  0  0  0  0  0  0  0  0  0  0  0
   -2.5477   -0.1369    7.0544 C   0  0  0  0  0  0  0  0  0  0  0  0
   -3.7232   -0.8637    5.4258 H   0  0  0  0  0  0  0  0  0  0  0  0
   -1.9530   -0.6669    7.8056 H   0  0  0  0  0  0  0  0  0  0  0  0
   -1.9900    0.7442    6.7201 H   0  0  0  0  0  0  0  0  0  0  0  0
   -3.4768    0.1964    7.5263 H   0  0  0  0  0  0  0  0  0  0  0  0
  1  2  2  0  0  0  0
  1  3  1  0  0  0  0
  1  7  1  0  0  0  0
  3  4  1  0  0  0  0
  3  5  1  0  0  0  0
  3  6  1  0  0  0  0
  7  8  1  0  0  0  0
  7 13  1  0  0  0  0
  8  9  1  0  0  0  0
  8 11  1  0  0  0  0
  8 14  1  0  0  0  0
  9 10  2  0  0  0  0
  9 17  1  0  0  0  0
 11 12  1  0  0  0  0
 11 15  1  0  0  0  0
 11 16  1  0  0  0  0
 12 44  1  0  0  0  0
 17 18  1  0  0  0  0
 17 19  1  0  0  0  0
 18 20  1  0  0  0  0
 18 21  1  0  0  0  0
 18 22  1  0  0  0  0
 23 24  2  0  0  0  0
 23 25  1  0  0  0  0
 23 29  1  0  0  0  0
 25 26  1  0  0  0  0
 25 27  1  0  0  0  0
 25 28  1  0  0  0  0
 29 30  1  0  0  0  0
 29 34  1  0  0  0  0
 30 31  1  0  0  0  0
 30 33  1  0  0  0  0
 30 35  1  0  0  0  0
 31 32  2  0  0  0  0
 31 39  1  0  0  0  0
 33 36  1  0  0  0  0
 33 37  1  0  0  0  0
 33 38  1  0  0  0  0
 39 40  1  0  0  0  0
 39 45  1  0  0  0  0
 40 41  1  0  0  0  0
 40 43  1  0  0  0  0
 40 46  1  0  0  0  0
 41 42  2  0  0  0  0
 41 49  1  0  0  0  0
 43 44  1  0  0  0  0
 43 47  1  0  0  0  0
 43 48  1  0  0  0  0
 49 50  1  0  0  0  0
 49 54  1  0  0  0  0
 50 51  1  0  0  0  0
 50 53  1  0  0  0  0
 50 55  1  0  0  0  0
 51 52  2  0  0  0  0
 51 59  1  0  0  0  0
 53 56  1  0  0  0  0
 53 57  1  0  0  0  0
 53 58  1  0  0  0  0
 59 60  1  0  0  0  0
 59 61  1  0  0  0  0
 60 62  1  0  0  0  0
 60 63  1  0  0  0  0
 60 64  1  0  0  0  0
M  END
$$$$

  -OEChem-02062319063D

 64 63  0     1  0  0  0  0  0999 V2000
    6.7992   -0.7587   -0.9221 C   0  0  0  0  0  0  0  0  0  0  0  0
    6.9034    0.0543   -0.0169 O   0  0  0  0  0  0  0  0  0  0  0  0
    7.7510   -0.7165   -2.1024 C   0  0  0  0  0  0  0  0  0  0  0  0
    7.1927   -0.5345   -3.0238 H   0  0  0  0  0  0  0  0  0  0  0  0
    8.4816    0.0861   -1.9686 H   0  0  0  0  0  0  0  0  0  0  0  0
    8.2832   -1.6671   -2.1880 H   0  0  0  0  0  0  0  0  0  0  0  0
    5.8151   -1.7208   -0.8652 N   0  0  0  0  0  0  0  0  0  0  0  0
    4.8674   -1.8817    0.2461 C   0  0  2  0  0  0  0  0  0  0  0  0
    4.3325   -3.3268    0.3454 C   0  0  0  0  0  0  0  0  0  0  0  0
    4.5994   -4.1479   -0.5257 O   0  0  0  0  0  0  0  0  0  0  0  0
    3.7108   -0.8845    0.0780 C   0  0  0  0  0  0  0  0  0  0  0  0
    2.7998   -1.1689   -1.4958 S   0  0  0  0  0  0  0  0  0  0  0  0
    5.7877   -2.4233   -1.6034 H   0  0  0  0  0  0  0  0  0  0  0  0
    5.3826   -1.6676    1.1883 H   0  0  0  0  0  0  0  0  0  0  0  0
    3.0202   -0.9763    0.9208 H   0  0  0  0  0  0  0  0  0  0  0  0
    4.1039    0.1373    0.0851 H   0  0  0  0  0  0  0  0  0  0  0  0
    3.5709   -3.7219    1.4315 N   0  0  0  0  0  0  0  0  0  0  0  0
    3.0571   -5.0768    1.5953 C   0  0  0  0  0  0  0  0  0  0  0  0
    3.4117   -3.0449    2.1721 H   0  0  0  0  0  0  0  0  0  0  0  0
    2.3914   -5.3373    0.7656 H   0  0  0  0  0  0  0  0  0  0  0  0
    3.8803   -5.7985    1.6261 H   0  0  0  0  0  0  0  0  0  0  0  0
    2.4922   -5.1569    2.5292 H   0  0  0  0  0  0  0  0  0  0  0  0
   -4.6708    1.3985    3.6159 C   0  0  0  0  0  0  0  0  0  0  0  0
   -4.8334    0.1862    3.6006 O   0  0  0  0  0  0  0  0  0  0  0  0
   -5.0491    2.1882    4.8544 C   0  0  0  0  0  0  0  0  0  0  0  0
   -5.8306    2.9117    4.6104 H   0  0  0  0  0  0  0  0  0  0  0  0
   -5.4213    1.5163    5.6328 H   0  0  0  0  0  0  0  0  0  0  0  0
   -4.1754    2.7211    5.2385 H   0  0  0  0  0  0  0  0  0  0  0  0
   -4.1100    2.0538    2.5388 N   0  0  0  0  0  0  0  0  0  0  0  0
   -3.4435    1.3662    1.4224 C   0  0  2  0  0  0  0  0  0  0  0  0
   -1.9003    1.4409    1.5533 C   0  0  0  0  0  0  0  0  0  0  0  0
   -1.3763    2.3456    2.1855 O   0  0  0  0  0  0  0  0  0  0  0  0
   -3.9058    2.0356    0.1266 C   0  0  0  0  0  0  0  0  0  0  0  0
   -3.8158    3.0121    2.7155 H   0  0  0  0  0  0  0  0  0  0  0  0
   -3.7541    0.3201    1.3944 H   0  0  0  0  0  0  0  0  0  0  0  0
   -3.6063    3.0884    0.1087 H   0  0  0  0  0  0  0  0  0  0  0  0
   -3.4682    1.5350   -0.7418 H   0  0  0  0  0  0  0  0  0  0  0  0
   -4.9956    1.9808    0.0413 H   0  0  0  0  0  0  0  0  0  0  0  0
   -0.9866    0.5912    0.9649 N   0  0  0  0  0  0  0  0  0  0  0  0
   -1.2809   -0.5583    0.0935 C   0  0  2  0  0  0  0  0  0  0  0  0
   -2.1422   -1.6263    0.7886 C   0  0  0  0  0  0  0  0  0  0  0  0
   -3.1732   -2.0068    0.2547 O   0  0  0  0  0  0  0  0  0  0  0  0
    0.0433   -1.1987   -0.3368 C   0  0  0  0  0  0  0  0  0  0  0  0
    1.1171    0.0233   -1.1906 S   0  0  0  0  0  0  0  0  0  0  0  0
   -0.0241    0.9171    1.0320 H   0  0  0  0  0  0  0  0  0  0  0  0
   -1.8118   -0.2177   -0.8019 H   0  0  0  0  0  0  0  0  0  0  0  0
    0.5698   -1.5967    0.5365 H   0  0  0  0  0  0  0  0  0  0  0  0
   -0.1557   -2.0354   -1.0154 H   0  0  0  0  0  0  0  0  0  0  0  0
   -1.8383   -2.0172    2.0774 N   0  0  0  0  0  0  0  0  0  0  0  0
   -2.8170   -2.5997    3.0014 C   0  0  2  0  0  0  0  0  0  0  0  0
   -2.4792   -2.1998    4.4520 C   0  0  0  0  0  0  0  0  0  0  0  0
   -1.3178   -2.2670    4.8430 O   0  0  0  0  0  0  0  0  0  0  0  0
   -2.8139   -4.1223    2.8443 C   0  0  0  0  0  0  0  0  0  0  0  0
   -1.0264   -1.5760    2.5078 H   0  0  0  0  0  0  0  0  0  0  0  0
   -3.8188   -2.2198    2.7718 H   0  0  0  0  0  0  0  0  0  0  0  0
   -1.8215   -4.5292    3.0627 H   0  0  0  0  0  0  0  0  0  0  0  0
   -3.5361   -4.5760    3.5297 H   0  0  0  0  0  0  0  0  0  0  0  0
   -3.0875   -4.3989    1.8215 H   0  0  0  0  0  0  0  0  0  0  0  0
   -3.4556   -1.6960    5.2881 N   0  0  0  0  0  0  0  0  0  0  0  0
   -3.1503   -1.1384    6.5989 C   0  0  0  0  0  0  0  0  0  0  0  0
   -4.2956   -1.3559    4.8127 H   0  0  0  0  0  0  0  0  0  0  0  0
   -2.6103   -1.8676    7.2122 H   0  0  0  0  0  0  0  0  0  0  0  0
   -2.5352   -0.2383    6.4977 H   0  0  0  0  0  0  0  0  0  0  0  0
   -4.0757   -0.8720    7.1182 H   0  0  0  0  0  0  0  0  0  0  0  0
  1  2  2  0  0  0  0
  1  3  1  0  0  0  0
  1  7  1  0  0  0  0
  3  4  1  0  0  0  0
  3  5  1  0  0  0  0
  3  6  1  0  0  0  0
  7  8  1  0  0  0  0
  7 13  1  0  0  0  0
  8  9  1  0  0  0  0
  8 11  1  0  0  0  0
  8 14  1  0  0  0  0
  9 10  2  0  0  0  0
  9 17  1  0  0  0  0
 11 12  1  0  0  0  0
 11 15  1  0  0  0  0
 11 16  1  0  0  0  0
 12 44  1  0  0  0  0
 17 18  1  0  0  0  0
 17 19  1  0  0  0  0
 18 20  1  0  0  0  0
 18 21  1  0  0  0  0
 18 22  1  0  0  0  0
 23 24  2  0  0  0  0
 23 25  1  0  0  0  0
 23 29  1  0  0  0  0
 25 26  1  0  0  0  0
 25 27  1  0  0  0  0
 25 28  1  0  0  0  0
 29 30  1  0  0  0  0
 29 34  1  0  0  0  0
 30 31  1  0  0  0  0
 30 33  1  0  0  0  0
 30 35  1  0  0  0  0
 31 32  2  0  0  0  0
 31 39  1  0  0  0  0
 33 36  1  0  0  0  0
 33 37  1  0  0  0  0
 33 38  1  0  0  0  0
 39 40  1  0  0  0  0
 39 45  1  0  0  0  0
 40 41  1  0  0  0  0
 40 43  1  0  0  0  0
 40 46  1  0  0  0  0
 41 42  2  0  0  0  0
 41 49  1  0  0  0  0
 43 44  1  0  0  0  0
 43 47  1  0  0  0  0
 43 48  1  0  0  0  0
 49 50  1  0  0  0  0
 49 54  1  0  0  0  0
 50 51  1  0  0  0  0
 50 53  1  0  0  0  0
 50 55  1  0  0  0  0
 51 52  2  0  0  0  0
 51 59  1  0  0  0  0
 53 56  1  0  0  0  0
 53 57  1  0  0  0  0
 53 58  1  0  0  0  0
 59 60  1  0  0  0  0
 59 61  1  0  0  0  0
 60 62  1  0  0  0  0
 60 63  1  0  0  0  0
 60 64  1  0  0  0  0
M  END
$$$$

  -OEChem-02062319063D

 64 63  0     1  0  0  0  0  0999 V2000
    6.9601   -1.1443    0.1063 C   0  0  0  0  0  0  0  0  0  0  0  0
    6.9724   -0.5205    1.1561 O   0  0  0  0  0  0  0  0  0  0  0  0
    8.0900   -0.9845   -0.8925 C   0  0  0  0  0  0  0  0  0  0  0  0
    7.7001   -0.5940   -1.8357 H   0  0  0  0  0  0  0  0  0  0  0  0
    8.8391   -0.2883   -0.5052 H   0  0  0  0  0  0  0  0  0  0  0  0
    8.5672   -1.9504   -1.0750 H   0  0  0  0  0  0  0  0  0  0  0  0
    5.9125   -1.9951   -0.1686 N   0  0  0  0  0  0  0  0  0  0  0  0
    4.7759   -2.2368    0.7303 C   0  0  2  0  0  0  0  0  0  0  0  0
    4.1187   -3.6107    0.4760 C   0  0  0  0  0  0  0  0  0  0  0  0
    4.4570   -4.2907   -0.4871 O   0  0  0  0  0  0  0  0  0  0  0  0
    3.7501   -1.1044    0.5665 C   0  0  0  0  0  0  0  0  0  0  0  0
    3.1121   -1.0205   -1.1581 S   0  0  0  0  0  0  0  0  0  0  0  0
    5.9519   -2.5446   -1.0263 H   0  0  0  0  0  0  0  0  0  0  0  0
    5.1343   -2.2429    1.7651 H   0  0  0  0  0  0  0  0  0  0  0  0
    2.9164   -1.2601    1.2565 H   0  0  0  0  0  0  0  0  0  0  0  0
    4.2159   -0.1474    0.8239 H   0  0  0  0  0  0  0  0  0  0  0  0
    3.1618   -4.1041    1.3460 N   0  0  0  0  0  0  0  0  0  0  0  0
    2.5278   -5.4067    1.1792 C   0  0  0  0  0  0  0  0  0  0  0  0
    2.9471   -3.5579    2.1753 H   0  0  0  0  0  0  0  0  0  0  0  0
    2.0322   -5.4701    0.2046 H   0  0  0  0  0  0  0  0  0  0  0  0
    3.2718   -6.2074    1.2488 H   0  0  0  0  0  0  0  0  0  0  0  0
    1.7756   -5.5643    1.9583 H   0  0  0  0  0  0  0  0  0  0  0  0
   -4.9210    1.3810    3.3898 C   0  0  0  0  0  0  0  0  0  0  0  0
   -5.3101    0.2507    3.1279 O   0  0  0  0  0  0  0  0  0  0  0  0
   -5.3532    2.0426    4.6842 C   0  0  0  0  0  0  0  0  0  0  0  0
   -5.8351    2.9998    4.4703 H   0  0  0  0  0  0  0  0  0  0  0  0
   -6.0616    1.4037    5.2186 H   0  0  0  0  0  0  0  0  0  0  0  0
   -4.4829    2.2158    5.3221 H   0  0  0  0  0  0  0  0  0  0  0  0
   -4.0624    2.0504    2.5417 N   0  0  0  0  0  0  0  0  0  0  0  0
   -3.3785    1.4318    1.3956 C   0  0  2  0  0  0  0  0  0  0  0  0
   -1.8363    1.5171    1.5393 C   0  0  0  0  0  0  0  0  0  0  0  0
   -1.3368    2.3509    2.2798 O   0  0  0  0  0  0  0  0  0  0  0  0
   -3.8464    2.1544    0.1307 C   0  0  0  0  0  0  0  0  0  0  0  0
   -3.6365    2.8979    2.9141 H   0  0  0  0  0  0  0  0  0  0  0  0
   -3.6682    0.3842    1.3230 H   0  0  0  0  0  0  0  0  0  0  0  0
   -3.5539    3.2091    0.1591 H   0  0  0  0  0  0  0  0  0  0  0  0
   -3.4088    1.6942   -0.7600 H   0  0  0  0  0  0  0  0  0  0  0  0
   -4.9363    2.0957    0.0449 H   0  0  0  0  0  0  0  0  0  0  0  0
   -0.9001    0.6836    0.9588 N   0  0  0  0  0  0  0  0  0  0  0  0
   -1.1270   -0.2631   -0.1480 C   0  0  2  0  0  0  0  0  0  0  0  0
   -2.1785   -1.3367    0.1793 C   0  0  0  0  0  0  0  0  0  0  0  0
   -3.1538   -1.4649   -0.5449 O   0  0  0  0  0  0  0  0  0  0  0  0
    0.2003   -0.9589   -0.4700 C   0  0  0  0  0  0  0  0  0  0  0  0
    1.4938    0.2699   -0.9101 S   0  0  0  0  0  0  0  0  0  0  0  0
    0.0553    0.9974    1.1217 H   0  0  0  0  0  0  0  0  0  0  0  0
   -1.4594    0.2832   -1.0375 H   0  0  0  0  0  0  0  0  0  0  0  0
    0.5359   -1.5457    0.3909 H   0  0  0  0  0  0  0  0  0  0  0  0
    0.0619   -1.6489   -1.3098 H   0  0  0  0  0  0  0  0  0  0  0  0
   -2.1332   -1.9729    1.4041 N   0  0  0  0  0  0  0  0  0  0  0  0
   -3.3038   -2.5514    2.0737 C   0  0  2  0  0  0  0  0  0  0  0  0
   -3.1385   -2.4501    3.6040 C   0  0  0  0  0  0  0  0  0  0  0  0
   -2.0351   -2.6471    4.1048 O   0  0  0  0  0  0  0  0  0  0  0  0
   -3.4584   -4.0136    1.6475 C   0  0  0  0  0  0  0  0  0  0  0  0
   -1.3530   -1.7265    2.0129 H   0  0  0  0  0  0  0  0  0  0  0  0
   -4.2078   -1.9988    1.7943 H   0  0  0  0  0  0  0  0  0  0  0  0
   -2.5667   -4.5885    1.9168 H   0  0  0  0  0  0  0  0  0  0  0  0
   -4.3252   -4.4635    2.1412 H   0  0  0  0  0  0  0  0  0  0  0  0
   -3.6042   -4.0813    0.5650 H   0  0  0  0  0  0  0  0  0  0  0  0
   -4.1978   -2.0803    4.4091 N   0  0  0  0  0  0  0  0  0  0  0  0
   -4.0449   -1.8321    5.8367 C   0  0  0  0  0  0  0  0  0  0  0  0
   -4.9698   -1.6117    3.9278 H   0  0  0  0  0  0  0  0  0  0  0  0
   -3.6406   -2.7173    6.3397 H   0  0  0  0  0  0  0  0  0  0  0  0
   -3.3683   -0.9885    6.0087 H   0  0  0  0  0  0  0  0  0  0  0  0
   -5.0157   -1.5966    6.2838 H   0  0  0  0  0  0  0  0  0  0  0  0
  1  2  2  0  0  0  0
  1  3  1  0  0  0  0
  1  7  1  0  0  0  0
  3  4  1  0  0  0  0
  3  5  1  0  0  0  0
  3  6  1  0  0  0  0
  7  8  1  0  0  0  0
  7 13  1  0  0  0  0
  8  9  1  0  0  0  0
  8 11  1  0  0  0  0
  8 14  1  0  0  0  0
  9 10  2  0  0  0  0
  9 17  1  0  0  0  0
 11 12  1  0  0  0  0
 11 15  1  0  0  0  0
 11 16  1  0  0  0  0
 12 44  1  0  0  0  0
 17 18  1  0  0  0  0
 17 19  1  0  0  0  0
 18 20  1  0  0  0  0
 18 21  1  0  0  0  0
 18 22  1  0  0  0  0
 23 24  2  0  0  0  0
 23 25  1  0  0  0  0
 23 29  1  0  0  0  0
 25 26  1  0  0  0  0
 25 27  1  0  0  0  0
 25 28  1  0  0  0  0
 29 30  1  0  0  0  0
 29 34  1  0  0  0  0
 30 31  1  0  0  0  0
 30 33  1  0  0  0  0
 30 35  1  0  0  0  0
 31 32  2  0  0  0  0
 31 39  1  0  0  0  0
 33 36  1  0  0  0  0
 33 37  1  0  0  0  0
 33 38  1  0  0  0  0
 39 40  1  0  0  0  0
 39 45  1  0  0  0  0
 40 41  1  0  0  0  0
 40 43  1  0  0  0  0
 40 46  1  0  0  0  0
 41 42  2  0  0  0  0
 41 49  1  0  0  0  0
 43 44  1  0  0  0  0
 43 47  1  0  0  0  0
 43 48  1  0  0  0  0
 49 50  1  0  0  0  0
 49 54  1  0  0  0  0
 50 51  1  0  0  0  0
 50 53  1  0  0  0  0
 50 55  1  0  0  0  0
 51 52  2  0  0  0  0
 51 59  1  0  0  0  0
 53 56  1  0  0  0  0
 53 57  1  0  0  0  0
 53 58  1  0  0  0  0
 59 60  1  0  0  0  0
 59 61  1  0  0  0  0
 60 62  1  0  0  0  0
 60 63  1  0  0  0  0
 60 64  1  0  0  0  0
M  END
$$$$

  -OEChem-02062319063D

 64 63  0     1  0  0  0  0  0999 V2000
    4.9943   -1.3592    2.4090 C   0  0  0  0  0  0  0  0  0  0  0  0
    4.3918   -0.7177    3.2552 O   0  0  0  0  0  0  0  0  0  0  0  0
    6.5109   -1.3418    2.3747 C   0  0  0  0  0  0  0  0  0  0  0  0
    6.8565   -0.8603    1.4567 H   0  0  0  0  0  0  0  0  0  0  0  0
    6.9012   -0.7878    3.2332 H   0  0  0  0  0  0  0  0  0  0  0  0
    6.8980   -2.3632    2.4097 H   0  0  0  0  0  0  0  0  0  0  0  0
    4.2944   -2.1038    1.4856 N   0  0  0  0  0  0  0  0  0  0  0  0
    2.8333   -2.2623    1.4716 C   0  0  2  0  0  0  0  0  0  0  0  0
    2.4148   -3.6339    0.8968 C   0  0  0  0  0  0  0  0  0  0  0  0
    3.2364   -4.3290    0.3063 O   0  0  0  0  0  0  0  0  0  0  0  0
    2.2166   -1.1112    0.6621 C   0  0  0  0  0  0  0  0  0  0  0  0
    2.7664   -1.1483   -1.0984 S   0  0  0  0  0  0  0  0  0  0  0  0
    4.8263   -2.6853    0.8392 H   0  0  0  0  0  0  0  0  0  0  0  0
    2.4514   -2.2181    2.4974 H   0  0  0  0  0  0  0  0  0  0  0  0
    1.1277   -1.1859    0.7076 H   0  0  0  0  0  0  0  0  0  0  0  0
    2.5022   -0.1545    1.1119 H   0  0  0  0  0  0  0  0  0  0  0  0
    1.1269   -4.1114    1.0569 N   0  0  0  0  0  0  0  0  0  0  0  0
    0.7000   -5.4266    0.5985 C   0  0  0  0  0  0  0  0  0  0  0  0
    0.4877   -3.5751    1.6511 H   0  0  0  0  0  0  0  0  0  0  0  0
    0.7431   -5.4839   -0.4941 H   0  0  0  0  0  0  0  0  0  0  0  0
    1.3410   -6.2083    1.0200 H   0  0  0  0  0  0  0  0  0  0  0  0
   -0.3295   -5.6187    0.9152 H   0  0  0  0  0  0  0  0  0  0  0  0
   -3.6892    1.0217    3.5227 C   0  0  0  0  0  0  0  0  0  0  0  0
   -4.2988    0.0218    3.1662 O   0  0  0  0  0  0  0  0  0  0  0  0
   -3.6656    1.4077    4.9890 C   0  0  0  0  0  0  0  0  0  0  0  0
   -4.0804    2.4107    5.1165 H   0  0  0  0  0  0  0  0  0  0  0  0
   -4.2611    0.7031    5.5759 H   0  0  0  0  0  0  0  0  0  0  0  0
   -2.6378    1.3963    5.3604 H   0  0  0  0  0  0  0  0  0  0  0  0
   -2.9945    1.7851    2.6076 N   0  0  0  0  0  0  0  0  0  0  0  0
   -2.7663    1.3993    1.2083 C   0  0  2  0  0  0  0  0  0  0  0  0
   -1.2849    1.5870    0.7928 C   0  0  0  0  0  0  0  0  0  0  0  0
   -0.5643    2.3220    1.4503 O   0  0  0  0  0  0  0  0  0  0  0  0
   -3.6811    2.2556    0.3299 C   0  0  0  0  0  0  0  0  0  0  0  0
   -2.3821    2.5085    2.9835 H   0  0  0  0  0  0  0  0  0  0  0  0
   -3.0358    0.3547    1.0792 H   0  0  0  0  0  0  0  0  0  0  0  0
   -3.4346    3.3167    0.4380 H   0  0  0  0  0  0  0  0  0  0  0  0
   -3.5752    1.9780   -0.7229 H   0  0  0  0  0  0  0  0  0  0  0  0
   -4.7267    2.1091    0.6182 H   0  0  0  0  0  0  0  0  0  0  0  0
   -0.5734    0.8511   -0.1353 N   0  0  0  0  0  0  0  0  0  0  0  0
   -1.1213    0.1799   -1.3315 C   0  0  2  0  0  0  0  0  0  0  0  0
   -2.1797   -0.8841   -0.9909 C   0  0  0  0  0  0  0  0  0  0  0  0
   -3.3142   -0.8015   -1.4345 O   0  0  0  0  0  0  0  0  0  0  0  0
    0.0175   -0.5123   -2.1086 C   0  0  0  0  0  0  0  0  0  0  0  0
    1.6233    0.3770   -1.9567 S   0  0  0  0  0  0  0  0  0  0  0  0
    0.3977    1.1587   -0.1923 H   0  0  0  0  0  0  0  0  0  0  0  0
   -1.5816    0.9337   -1.9796 H   0  0  0  0  0  0  0  0  0  0  0  0
    0.1562   -1.5355   -1.7440 H   0  0  0  0  0  0  0  0  0  0  0  0
   -0.2582   -0.5839   -3.1659 H   0  0  0  0  0  0  0  0  0  0  0  0
   -1.8924   -1.7510    0.0450 N   0  0  0  0  0  0  0  0  0  0  0  0
   -2.8747   -2.4261    0.8976 C   0  0  2  0  0  0  0  0  0  0  0  0
   -2.2656   -2.6308    2.3023 C   0  0  0  0  0  0  0  0  0  0  0  0
   -1.0510   -2.7951    2.4122 O   0  0  0  0  0  0  0  0  0  0  0  0
   -3.2486   -3.7680    0.2654 C   0  0  0  0  0  0  0  0  0  0  0  0
   -0.9562   -1.6676    0.4391 H   0  0  0  0  0  0  0  0  0  0  0  0
   -3.7774   -1.8138    0.9993 H   0  0  0  0  0  0  0  0  0  0  0  0
   -2.3603   -4.3936    0.1368 H   0  0  0  0  0  0  0  0  0  0  0  0
   -3.9628   -4.3020    0.8997 H   0  0  0  0  0  0  0  0  0  0  0  0
   -3.7081   -3.6099   -0.7154 H   0  0  0  0  0  0  0  0  0  0  0  0
   -3.0490   -2.5707    3.4366 N   0  0  0  0  0  0  0  0  0  0  0  0
   -2.4818   -2.6085    4.7786 C   0  0  0  0  0  0  0  0  0  0  0  0
   -3.9402   -2.0830    3.3209 H   0  0  0  0  0  0  0  0  0  0  0  0
   -1.8992   -3.5241    4.9253 H   0  0  0  0  0  0  0  0  0  0  0  0
   -1.8300   -1.7444    4.9440 H   0  0  0  0  0  0  0  0  0  0  0  0
   -3.2820   -2.5886    5.5247 H   0  0  0  0  0  0  0  0  0  0  0  0
  1  2  2  0  0  0  0
  1  3  1  0  0  0  0
  1  7  1  0  0  0  0
  3  4  1  0  0  0  0
  3  5  1  0  0  0  0
  3  6  1  0  0  0  0
  7  8  1  0  0  0  0
  7 13  1  0  0  0  0
  8  9  1  0  0  0  0
  8 11  1  0  0  0  0
  8 14  1  0  0  0  0
  9 10  2  0  0  0  0
  9 17  1  0  0  0  0
 11 12  1  0  0  0  0
 11 15  1  0  0  0  0
 11 16  1  0  0  0  0
 12 44  1  0  0  0  0
 17 18  1  0  0  0  0
 17 19  1  0  0  0  0
 18 20  1  0  0  0  0
 18 21  1  0  0  0  0
 18 22  1  0  0  0  0
 23 24  2  0  0  0  0
 23 25  1  0  0  0  0
 23 29  1  0  0  0  0
 25 26  1  0  0  0  0
 25 27  1  0  0  0  0
 25 28  1  0  0  0  0
 29 30  1  0  0  0  0
 29 34  1  0  0  0  0
 30 31  1  0  0  0  0
 30 33  1  0  0  0  0
 30 35  1  0  0  0  0
 31 32  2  0  0  0  0
 31 39  1  0  0  0  0
 33 36  1  0  0  0  0
 33 37  1  0  0  0  0
 33 38  1  0  0  0  0
 39 40  1  0  0  0  0
 39 45  1  0  0  0  0
 40 41  1  0  0  0  0
 40 43  1  0  0  0  0
 40 46  1  0  0  0  0
 41 42  2  0  0  0  0
 41 49  1  0  0  0  0
 43 44  1  0  0  0  0
 43 47  1  0  0  0  0
 43 48  1  0  0  0  0
 49 50  1  0  0  0  0
 49 54  1  0  0  0  0
 50 51  1  0  0  0  0
 50 53  1  0  0  0  0
 50 55  1  0  0  0  0
 51 52  2  0  0  0  0
 51 59  1  0  0  0  0
 53 56  1  0  0  0  0
 53 57  1  0  0  0  0
 53 58  1  0  0  0  0
 59 60  1  0  0  0  0
 59 61  1  0  0  0  0
 60 62  1  0  0  0  0
 60 63  1  0  0  0  0
 60 64  1  0  0  0  0
M  END
$$$$

  -OEChem-02062319063D

 64 63  0     1  0  0  0  0  0999 V2000
    6.6892   -2.4139    1.7698 C   0  0  0  0  0  0  0  0  0  0  0  0
    6.4396   -2.1814    2.9424 O   0  0  0  0  0  0  0  0  0  0  0  0
    8.0899   -2.2012    1.2275 C   0  0  0  0  0  0  0  0  0  0  0  0
    8.0757   -1.4309    0.4525 H   0  0  0  0  0  0  0  0  0  0  0  0
    8.7607   -1.8818    2.0300 H   0  0  0  0  0  0  0  0  0  0  0  0
    8.4705   -3.1316    0.7993 H   0  0  0  0  0  0  0  0  0  0  0  0
    5.6914   -2.8716    0.9380 N   0  0  0  0  0  0  0  0  0  0  0  0
    4.3070   -3.1316    1.3563 C   0  0  2  0  0  0  0  0  0  0  0  0
    3.6157   -4.1764    0.4537 C   0  0  0  0  0  0  0  0  0  0  0  0
    4.1626   -4.5673   -0.5722 O   0  0  0  0  0  0  0  0  0  0  0  0
    3.5224   -1.8100    1.3599 C   0  0  0  0  0  0  0  0  0  0  0  0
    3.5013   -1.0340   -0.3093 S   0  0  0  0  0  0  0  0  0  0  0  0
    5.9389   -3.1089   -0.0219 H   0  0  0  0  0  0  0  0  0  0  0  0
    4.3118   -3.5430    2.3711 H   0  0  0  0  0  0  0  0  0  0  0  0
    2.4958   -1.9915    1.6905 H   0  0  0  0  0  0  0  0  0  0  0  0
    3.9794   -1.1147    2.0719 H   0  0  0  0  0  0  0  0  0  0  0  0
    2.3886   -4.7110    0.8068 N   0  0  0  0  0  0  0  0  0  0  0  0
    1.7065   -5.7308    0.0183 C   0  0  0  0  0  0  0  0  0  0  0  0
    1.9829   -4.4256    1.6936 H   0  0  0  0  0  0  0  0  0  0  0  0
    1.5211   -5.3691   -0.9988 H   0  0  0  0  0  0  0  0  0  0  0  0
    2.3124   -6.6415   -0.0370 H   0  0  0  0  0  0  0  0  0  0  0  0
    0.7442   -5.9825    0.4748 H   0  0  0  0  0  0  0  0  0  0  0  0
   -5.2201    1.5328    2.9332 C   0  0  0  0  0  0  0  0  0  0  0  0
   -5.7663    0.7182    2.2003 O   0  0  0  0  0  0  0  0  0  0  0  0
   -5.8980    1.9746    4.2155 C   0  0  0  0  0  0  0  0  0  0  0  0
   -6.1125    3.0452    4.1710 H   0  0  0  0  0  0  0  0  0  0  0  0
   -6.8372    1.4317    4.3525 H   0  0  0  0  0  0  0  0  0  0  0  0
   -5.2479    1.7754    5.0710 H   0  0  0  0  0  0  0  0  0  0  0  0
   -3.9852    2.0473    2.5972 N   0  0  0  0  0  0  0  0  0  0  0  0
   -3.2205    1.6504    1.4088 C   0  0  2  0  0  0  0  0  0  0  0  0
   -1.6897    1.7554    1.6193 C   0  0  0  0  0  0  0  0  0  0  0  0
   -1.2611    2.4536    2.5257 O   0  0  0  0  0  0  0  0  0  0  0  0
   -3.6584    2.5516    0.2492 C   0  0  0  0  0  0  0  0  0  0  0  0
   -3.5199    2.6569    3.2696 H   0  0  0  0  0  0  0  0  0  0  0  0
   -3.4648    0.6174    1.1779 H   0  0  0  0  0  0  0  0  0  0  0  0
   -3.4751    3.6032    0.4919 H   0  0  0  0  0  0  0  0  0  0  0  0
   -3.1089    2.3081   -0.6639 H   0  0  0  0  0  0  0  0  0  0  0  0
   -4.7265    2.4206    0.0497 H   0  0  0  0  0  0  0  0  0  0  0  0
   -0.7221    0.9016    1.1234 N   0  0  0  0  0  0  0  0  0  0  0  0
   -0.6843    0.3891   -0.2611 C   0  0  2  0  0  0  0  0  0  0  0  0
   -1.9140   -0.4385   -0.6809 C   0  0  0  0  0  0  0  0  0  0  0  0
   -2.5631   -0.1161   -1.6636 O   0  0  0  0  0  0  0  0  0  0  0  0
    0.5643   -0.4856   -0.4173 C   0  0  0  0  0  0  0  0  0  0  0  0
    2.0843    0.4676   -0.0217 S   0  0  0  0  0  0  0  0  0  0  0  0
    0.1858    1.1185    1.5335 H   0  0  0  0  0  0  0  0  0  0  0  0
   -0.6057    1.2360   -0.9527 H   0  0  0  0  0  0  0  0  0  0  0  0
    0.4984   -1.3557    0.2434 H   0  0  0  0  0  0  0  0  0  0  0  0
    0.6309   -0.8520   -1.4477 H   0  0  0  0  0  0  0  0  0  0  0  0
   -2.4031   -1.3995    0.1838 N   0  0  0  0  0  0  0  0  0  0  0  0
   -3.7624   -1.9532    0.1574 C   0  0  2  0  0  0  0  0  0  0  0  0
   -4.1268   -2.4937    1.5556 C   0  0  0  0  0  0  0  0  0  0  0  0
   -3.3088   -3.1770    2.1638 O   0  0  0  0  0  0  0  0  0  0  0  0
   -3.8422   -3.0728   -0.8851 C   0  0  0  0  0  0  0  0  0  0  0  0
   -1.8584   -1.5801    1.0269 H   0  0  0  0  0  0  0  0  0  0  0  0
   -4.4811   -1.1693   -0.1050 H   0  0  0  0  0  0  0  0  0  0  0  0
   -3.1232   -3.8651   -0.6532 H   0  0  0  0  0  0  0  0  0  0  0  0
   -4.8466   -3.5065   -0.8994 H   0  0  0  0  0  0  0  0  0  0  0  0
   -3.6224   -2.6832   -1.8837 H   0  0  0  0  0  0  0  0  0  0  0  0
   -5.3198   -2.1564    2.1646 N   0  0  0  0  0  0  0  0  0  0  0  0
   -5.6317   -2.5402    3.5351 C   0  0  0  0  0  0  0  0  0  0  0  0
   -5.7947   -1.3300    1.7926 H   0  0  0  0  0  0  0  0  0  0  0  0
   -5.5787   -3.6278    3.6520 H   0  0  0  0  0  0  0  0  0  0  0  0
   -4.9278   -2.0758    4.2330 H   0  0  0  0  0  0  0  0  0  0  0  0
   -6.6439   -2.2152    3.7946 H   0  0  0  0  0  0  0  0  0  0  0  0
  1  2  2  0  0  0  0
  1  3  1  0  0  0  0
  1  7  1  0  0  0  0
  3  4  1  0  0  0  0
  3  5  1  0  0  0  0
  3  6  1  0  0  0  0
  7  8  1  0  0  0  0
  7 13  1  0  0  0  0
  8  9  1  0  0  0  0
  8 11  1  0  0  0  0
  8 14  1  0  0  0  0
  9 10  2  0  0  0  0
  9 17  1  0  0  0  0
 11 12  1  0  0  0  0
 11 15  1  0  0  0  0
 11 16  1  0  0  0  0
 12 44  1  0  0  0  0
 17 18  1  0  0  0  0
 17 19  1  0  0  0  0
 18 20  1  0  0  0  0
 18 21  1  0  0  0  0
 18 22  1  0  0  0  0
 23 24  2  0  0  0  0
 23 25  1  0  0  0  0
 23 29  1  0  0  0  0
 25 26  1  0  0  0  0
 25 27  1  0  0  0  0
 25 28  1  0  0  0  0
 29 30  1  0  0  0  0
 29 34  1  0  0  0  0
 30 31  1  0  0  0  0
 30 33  1  0  0  0  0
 30 35  1  0  0  0  0
 31 32  2  0  0  0  0
 31 39  1  0  0  0  0
 33 36  1  0  0  0  0
 33 37  1  0  0  0  0
 33 38  1  0  0  0  0
 39 40  1  0  0  0  0
 39 45  1  0  0  0  0
 40 41  1  0  0  0  0
 40 43  1  0  0  0  0
 40 46  1  0  0  0  0
 41 42  2  0  0  0  0
 41 49  1  0  0  0  0
 43 44  1  0  0  0  0
 43 47  1  0  0  0  0
 43 48  1  0  0  0  0
 49 50  1  0  0  0  0
 49 54  1  0  0  0  0
 50 51  1  0  0  0  0
 50 53  1  0  0  0  0
 50 55  1  0  0  0  0
 51 52  2  0  0  0  0
 51 59  1  0  0  0  0
 53 56  1  0  0  0  0
 53 57  1  0  0  0  0
 53 58  1  0  0  0  0
 59 60  1  0  0  0  0
 59 61  1  0  0  0  0
 60 62  1  0  0  0  0
 60 63  1  0  0  0  0
 60 64  1  0  0  0  0
M  END
$$$$

  -OEChem-02062319063D

 64 63  0     1  0  0  0  0  0999 V2000
    6.4828   -3.1732    2.2651 C   0  0  0  0  0  0  0  0  0  0  0  0
    6.0830   -3.1991    3.4187 O   0  0  0  0  0  0  0  0  0  0  0  0
    7.9491   -2.9244    1.9673 C   0  0  0  0  0  0  0  0  0  0  0  0
    8.0568   -2.0343    1.3425 H   0  0  0  0  0  0  0  0  0  0  0  0
    8.5020   -2.7706    2.8981 H   0  0  0  0  0  0  0  0  0  0  0  0
    8.3739   -3.7836    1.4426 H   0  0  0  0  0  0  0  0  0  0  0  0
    5.5969   -3.3804    1.2313 N   0  0  0  0  0  0  0  0  0  0  0  0
    4.1681   -3.6775    1.4021 C   0  0  2  0  0  0  0  0  0  0  0  0
    3.5972   -4.4627    0.2012 C   0  0  0  0  0  0  0  0  0  0  0  0
    4.2893   -4.6670   -0.7907 O   0  0  0  0  0  0  0  0  0  0  0  0
    3.3983   -2.3646    1.6162 C   0  0  0  0  0  0  0  0  0  0  0  0
    3.5849   -1.2346    0.1764 S   0  0  0  0  0  0  0  0  0  0  0  0
    5.9690   -3.4216    0.2831 H   0  0  0  0  0  0  0  0  0  0  0  0
    4.0375   -4.3109    2.2859 H   0  0  0  0  0  0  0  0  0  0  0  0
    2.3379   -2.5786    1.7758 H   0  0  0  0  0  0  0  0  0  0  0  0
    3.7725   -1.8639    2.5150 H   0  0  0  0  0  0  0  0  0  0  0  0
    2.3128   -4.9770    0.2417 N   0  0  0  0  0  0  0  0  0  0  0  0
    1.7287   -5.7494   -0.8485 C   0  0  0  0  0  0  0  0  0  0  0  0
    1.7751   -4.8455    1.0934 H   0  0  0  0  0  0  0  0  0  0  0  0
    1.7203   -5.1621   -1.7731 H   0  0  0  0  0  0  0  0  0  0  0  0
    2.3024   -6.6667   -1.0190 H   0  0  0  0  0  0  0  0  0  0  0  0
    0.6979   -6.0258   -0.6069 H   0  0  0  0  0  0  0  0  0  0  0  0
   -5.2944    1.7476    2.8389 C   0  0  0  0  0  0  0  0  0  0  0  0
   -5.8768    1.1106    1.9725 O   0  0  0  0  0  0  0  0  0  0  0  0
   -6.0091    2.1076    4.1273 C   0  0  0  0  0  0  0  0  0  0  0  0
   -6.0658    3.1940    4.2319 H   0  0  0  0  0  0  0  0  0  0  0  0
   -7.0239    1.7005    4.1219 H   0  0  0  0  0  0  0  0  0  0  0  0
   -5.4679    1.6935    4.9814 H   0  0  0  0  0  0  0  0  0  0  0  0
   -3.9884    2.1470    2.6451 N   0  0  0  0  0  0  0  0  0  0  0  0
   -3.1779    1.7822    1.4776 C   0  0  2  0  0  0  0  0  0  0  0  0
   -1.6592    1.8339    1.7724 C   0  0  0  0  0  0  0  0  0  0  0  0
   -1.2675    2.4986    2.7203 O   0  0  0  0  0  0  0  0  0  0  0  0
   -3.5234    2.7530    0.3416 C   0  0  0  0  0  0  0  0  0  0  0  0
   -3.5129    2.6217    3.4120 H   0  0  0  0  0  0  0  0  0  0  0  0
   -3.4367    0.7653    1.1915 H   0  0  0  0  0  0  0  0  0  0  0  0
   -3.3235    3.7843    0.6494 H   0  0  0  0  0  0  0  0  0  0  0  0
   -2.9295    2.5410   -0.5506 H   0  0  0  0  0  0  0  0  0  0  0  0
   -4.5812    2.6690    0.0742 H   0  0  0  0  0  0  0  0  0  0  0  0
   -0.7116    0.9053    1.3871 N   0  0  0  0  0  0  0  0  0  0  0  0
   -0.4448    0.5615   -0.0238 C   0  0  2  0  0  0  0  0  0  0  0  0
   -1.6413   -0.0200   -0.8008 C   0  0  0  0  0  0  0  0  0  0  0  0
   -1.9752    0.4641   -1.8714 O   0  0  0  0  0  0  0  0  0  0  0  0
    0.7081   -0.4457   -0.0731 C   0  0  0  0  0  0  0  0  0  0  0  0
    2.2271    0.2674    0.6743 S   0  0  0  0  0  0  0  0  0  0  0  0
    0.1271    1.0235    1.9547 H   0  0  0  0  0  0  0  0  0  0  0  0
   -0.1311    1.4697   -0.5516 H   0  0  0  0  0  0  0  0  0  0  0  0
    0.4337   -1.3622    0.4581 H   0  0  0  0  0  0  0  0  0  0  0  0
    0.9171   -0.7106   -1.1153 H   0  0  0  0  0  0  0  0  0  0  0  0
   -2.4220   -0.9969   -0.2140 N   0  0  0  0  0  0  0  0  0  0  0  0
   -3.7868   -1.3481   -0.6254 C   0  0  2  0  0  0  0  0  0  0  0  0
   -4.5772   -1.9128    0.5756 C   0  0  0  0  0  0  0  0  0  0  0  0
   -3.9656   -2.3553    1.5444 O   0  0  0  0  0  0  0  0  0  0  0  0
   -3.7216   -2.3781   -1.7566 C   0  0  0  0  0  0  0  0  0  0  0  0
   -2.1539   -1.2956    0.7253 H   0  0  0  0  0  0  0  0  0  0  0  0
   -4.3094   -0.4520   -0.9779 H   0  0  0  0  0  0  0  0  0  0  0  0
   -3.1960   -3.2786   -1.4232 H   0  0  0  0  0  0  0  0  0  0  0  0
   -4.7297   -2.6602   -2.0756 H   0  0  0  0  0  0  0  0  0  0  0  0
   -3.1916   -1.9639   -2.6200 H   0  0  0  0  0  0  0  0  0  0  0  0
   -5.9589   -1.9062    0.5784 N   0  0  0  0  0  0  0  0  0  0  0  0
   -6.7402   -2.2679    1.7545 C   0  0  0  0  0  0  0  0  0  0  0  0
   -6.4108   -1.3406   -0.1345 H   0  0  0  0  0  0  0  0  0  0  0  0
   -6.5050   -3.2887    2.0730 H   0  0  0  0  0  0  0  0  0  0  0  0
   -6.5285   -1.5819    2.5812 H   0  0  0  0  0  0  0  0  0  0  0  0
   -7.8094   -2.2165    1.5270 H   0  0  0  0  0  0  0  0  0  0  0  0
  1  2  2  0  0  0  0
  1  3  1  0  0  0  0
  1  7  1  0  0  0  0
  3  4  1  0  0  0  0
  3  5  1  0  0  0  0
  3  6  1  0  0  0  0
  7  8  1  0  0  0  0
  7 13  1  0  0  0  0
  8  9  1  0  0  0  0
  8 11  1  0  0  0  0
  8 14  1  0  0  0  0
  9 10  2  0  0  0  0
  9 17  1  0  0  0  0
 11 12  1  0  0  0  0
 11 15  1  0  0  0  0
 11 16  1  0  0  0  0
 12 44  1  0  0  0  0
 17 18  1  0  0  0  0
 17 19  1  0  0  0  0
 18 20  1  0  0  0  0
 18 21  1  0  0  0  0
 18 22  1  0  0  0  0
 23 24  2  0  0  0  0
 23 25  1  0  0  0  0
 23 29  1  0  0  0  0
 25 26  1  0  0  0  0
 25 27  1  0  0  0  0
 25 28  1  0  0  0  0
 29 30  1  0  0  0  0
 29 34  1  0  0  0  0
 30 31  1  0  0  0  0
 30 33  1  0  0  0  0
 30 35  1  0  0  0  0
 31 32  2  0  0  0  0
 31 39  1  0  0  0  0
 33 36  1  0  0  0  0
 33 37  1  0  0  0  0
 33 38  1  0  0  0  0
 39 40  1  0  0  0  0
 39 45  1  0  0  0  0
 40 41  1  0  0  0  0
 40 43  1  0  0  0  0
 40 46  1  0  0  0  0
 41 42  2  0  0  0  0
 41 49  1  0  0  0  0
 43 44  1  0  0  0  0
 43 47  1  0  0  0  0
 43 48  1  0  0  0  0
 49 50  1  0  0  0  0
 49 54  1  0  0  0  0
 50 51  1  0  0  0  0
 50 53  1  0  0  0  0
 50 55  1  0  0  0  0
 51 52  2  0  0  0  0
 51 59  1  0  0  0  0
 53 56  1  0  0  0  0
 53 57  1  0  0  0  0
 53 58  1  0  0  0  0
 59 60  1  0  0  0  0
 59 61  1  0  0  0  0
 60 62  1  0  0  0  0
 60 63  1  0  0  0  0
 60 64  1  0  0  0  0
M  END
$$$$

  -OEChem-02062319063D

 64 63  0     1  0  0  0  0  0999 V2000
    5.8088   -3.9784    2.7562 C   0  0  0  0  0  0  0  0  0  0  0  0
    5.1945   -4.1014    3.8043 O   0  0  0  0  0  0  0  0  0  0  0  0
    7.3211   -3.8643    2.7641 C   0  0  0  0  0  0  0  0  0  0  0  0
    7.6247   -2.9130    2.3206 H   0  0  0  0  0  0  0  0  0  0  0  0
    7.6972   -3.9107    3.7898 H   0  0  0  0  0  0  0  0  0  0  0  0
    7.7612   -4.6832    2.1902 H   0  0  0  0  0  0  0  0  0  0  0  0
    5.1215   -3.9482    1.5631 N   0  0  0  0  0  0  0  0  0  0  0  0
    3.6632   -4.0744    1.4347 C   0  0  2  0  0  0  0  0  0  0  0  0
    3.2497   -4.6022    0.0437 C   0  0  0  0  0  0  0  0  0  0  0  0
    4.0857   -4.7306   -0.8446 O   0  0  0  0  0  0  0  0  0  0  0  0
    3.0064   -2.7138    1.7181 C   0  0  0  0  0  0  0  0  0  0  0  0
    3.5756   -1.4328    0.5263 S   0  0  0  0  0  0  0  0  0  0  0  0
    5.6612   -3.9047    0.6995 H   0  0  0  0  0  0  0  0  0  0  0  0
    3.3030   -4.8016    2.1699 H   0  0  0  0  0  0  0  0  0  0  0  0
    1.9185   -2.8081    1.6591 H   0  0  0  0  0  0  0  0  0  0  0  0
    3.2541   -2.3918    2.7349 H   0  0  0  0  0  0  0  0  0  0  0  0
    1.9389   -4.9684   -0.2081 N   0  0  0  0  0  0  0  0  0  0  0  0
    1.4893   -5.4959   -1.4911 C   0  0  0  0  0  0  0  0  0  0  0  0
    1.2727   -4.9041    0.5560 H   0  0  0  0  0  0  0  0  0  0  0  0
    1.6624   -4.7647   -2.2880 H   0  0  0  0  0  0  0  0  0  0  0  0
    2.0261   -6.4184   -1.7368 H   0  0  0  0  0  0  0  0  0  0  0  0
    0.4185   -5.7188   -1.4543 H   0  0  0  0  0  0  0  0  0  0  0  0
   -5.2433    1.6843    2.8230 C   0  0  0  0  0  0  0  0  0  0  0  0
   -5.8402    1.1791    1.8839 O   0  0  0  0  0  0  0  0  0  0  0  0
   -5.9655    1.9442    4.1312 C   0  0  0  0  0  0  0  0  0  0  0  0
   -5.8680    2.9967    4.4081 H   0  0  0  0  0  0  0  0  0  0  0  0
   -7.0277    1.7043    4.0304 H   0  0  0  0  0  0  0  0  0  0  0  0
   -5.5362    1.3240    4.9220 H   0  0  0  0  0  0  0  0  0  0  0  0
   -3.9137    2.0281    2.6950 N   0  0  0  0  0  0  0  0  0  0  0  0
   -3.1012    1.7947    1.4949 C   0  0  2  0  0  0  0  0  0  0  0  0
   -1.5836    1.8550    1.7964 C   0  0  0  0  0  0  0  0  0  0  0  0
   -1.2092    2.4592    2.7907 O   0  0  0  0  0  0  0  0  0  0  0  0
   -3.4696    2.8692    0.4620 C   0  0  0  0  0  0  0  0  0  0  0  0
   -3.4424    2.4318    3.5037 H   0  0  0  0  0  0  0  0  0  0  0  0
   -3.3356    0.8024    1.1077 H   0  0  0  0  0  0  0  0  0  0  0  0
   -3.3267    3.8683    0.8857 H   0  0  0  0  0  0  0  0  0  0  0  0
   -2.8488    2.7876   -0.4323 H   0  0  0  0  0  0  0  0  0  0  0  0
   -4.5159    2.7675    0.1594 H   0  0  0  0  0  0  0  0  0  0  0  0
   -0.6464    0.9206    1.4050 N   0  0  0  0  0  0  0  0  0  0  0  0
   -0.1840    0.8370    0.0057 C   0  0  2  0  0  0  0  0  0  0  0  0
   -1.2837    0.5353   -1.0296 C   0  0  0  0  0  0  0  0  0  0  0  0
   -1.4243    1.2503   -2.0098 O   0  0  0  0  0  0  0  0  0  0  0  0
    0.8911   -0.2508   -0.0849 C   0  0  0  0  0  0  0  0  0  0  0  0
    2.3067    0.1476    1.0162 S   0  0  0  0  0  0  0  0  0  0  0  0
    0.1207    0.9326    2.0769 H   0  0  0  0  0  0  0  0  0  0  0  0
    0.2689    1.7954   -0.2739 H   0  0  0  0  0  0  0  0  0  0  0  0
    0.4705   -1.2218    0.1948 H   0  0  0  0  0  0  0  0  0  0  0  0
    1.2533   -0.3265   -1.1161 H   0  0  0  0  0  0  0  0  0  0  0  0
   -2.2043   -0.4590   -0.7654 N   0  0  0  0  0  0  0  0  0  0  0  0
   -3.4963   -0.6296   -1.4397 C   0  0  2  0  0  0  0  0  0  0  0  0
   -4.4771   -1.3828   -0.5146 C   0  0  0  0  0  0  0  0  0  0  0  0
   -4.0313   -2.0707    0.3997 O   0  0  0  0  0  0  0  0  0  0  0  0
   -3.2896   -1.4062   -2.7437 C   0  0  0  0  0  0  0  0  0  0  0  0
   -2.0892   -0.9721    0.1105 H   0  0  0  0  0  0  0  0  0  0  0  0
   -3.9285    0.3514   -1.6640 H   0  0  0  0  0  0  0  0  0  0  0  0
   -2.8563   -2.3904   -2.5380 H   0  0  0  0  0  0  0  0  0  0  0  0
   -4.2443   -1.5466   -3.2596 H   0  0  0  0  0  0  0  0  0  0  0  0
   -2.6148   -0.8608   -3.4109 H   0  0  0  0  0  0  0  0  0  0  0  0
   -5.8428   -1.2681   -0.6869 N   0  0  0  0  0  0  0  0  0  0  0  0
   -6.8004   -1.8133    0.2678 C   0  0  0  0  0  0  0  0  0  0  0  0
   -6.1656   -0.5513   -1.3299 H   0  0  0  0  0  0  0  0  0  0  0  0
   -6.6598   -2.8936    0.3798 H   0  0  0  0  0  0  0  0  0  0  0  0
   -6.6781   -1.3393    1.2471 H   0  0  0  0  0  0  0  0  0  0  0  0
   -7.8225   -1.6335   -0.0789 H   0  0  0  0  0  0  0  0  0  0  0  0
  1  2  2  0  0  0  0
  1  3  1  0  0  0  0
  1  7  1  0  0  0  0
  3  4  1  0  0  0  0
  3  5  1  0  0  0  0
  3  6  1  0  0  0  0
  7  8  1  0  0  0  0
  7 13  1  0  0  0  0
  8  9  1  0  0  0  0
  8 11  1  0  0  0  0
  8 14  1  0  0  0  0
  9 10  2  0  0  0  0
  9 17  1  0  0  0  0
 11 12  1  0  0  0  0
 11 15  1  0  0  0  0
 11 16  1  0  0  0  0
 12 44  1  0  0  0  0
 17 18  1  0  0  0  0
 17 19  1  0  0  0  0
 18 20  1  0  0  0  0
 18 21  1  0  0  0  0
 18 22  1  0  0  0  0
 23 24  2  0  0  0  0
 23 25  1  0  0  0  0
 23 29  1  0  0  0  0
 25 26  1  0  0  0  0
 25 27  1  0  0  0  0
 25 28  1  0  0  0  0
 29 30  1  0  0  0  0
 29 34  1  0  0  0  0
 30 31  1  0  0  0  0
 30 33  1  0  0  0  0
 30 35  1  0  0  0  0
 31 32  2  0  0  0  0
 31 39  1  0  0  0  0
 33 36  1  0  0  0  0
 33 37  1  0  0  0  0
 33 38  1  0  0  0  0
 39 40  1  0  0  0  0
 39 45  1  0  0  0  0
 40 41  1  0  0  0  0
 40 43  1  0  0  0  0
 40 46  1  0  0  0  0
 41 42  2  0  0  0  0
 41 49  1  0  0  0  0
 43 44  1  0  0  0  0
 43 47  1  0  0  0  0
 43 48  1  0  0  0  0
 49 50  1  0  0  0  0
 49 54  1  0  0  0  0
 50 51  1  0  0  0  0
 50 53  1  0  0  0  0
 50 55  1  0  0  0  0
 51 52  2  0  0  0  0
 51 59  1  0  0  0  0
 53 56  1  0  0  0  0
 53 57  1  0  0  0  0
 53 58  1  0  0  0  0
 59 60  1  0  0  0  0
 59 61  1  0  0  0  0
 60 62  1  0  0  0  0
 60 63  1  0  0  0  0
 60 64  1  0  0  0  0
M  END
$$$$

  -OEChem-02062319063D

 64 63  0     1  0  0  0  0  0999 V2000
    5.1491   -4.7705    2.9403 C   0  0  0  0  0  0  0  0  0  0  0  0
    4.3550   -4.9873    3.8424 O   0  0  0  0  0  0  0  0  0  0  0  0
    6.6417   -4.8029    3.2087 C   0  0  0  0  0  0  0  0  0  0  0  0
    7.0921   -3.8489    2.9240 H   0  0  0  0  0  0  0  0  0  0  0  0
    6.8304   -4.9775    4.2716 H   0  0  0  0  0  0  0  0  0  0  0  0
    7.1068   -5.6053    2.6311 H   0  0  0  0  0  0  0  0  0  0  0  0
    4.6849   -4.5051    1.6708 N   0  0  0  0  0  0  0  0  0  0  0  0
    3.2671   -4.4806    1.2851 C   0  0  2  0  0  0  0  0  0  0  0  0
    3.0795   -4.7132   -0.2301 C   0  0  0  0  0  0  0  0  0  0  0  0
    4.0550   -4.8016   -0.9686 O   0  0  0  0  0  0  0  0  0  0  0  0
    2.6432   -3.1429    1.7141 C   0  0  0  0  0  0  0  0  0  0  0  0
    3.4734   -1.7225    0.8903 S   0  0  0  0  0  0  0  0  0  0  0  0
    5.3702   -4.3867    0.9253 H   0  0  0  0  0  0  0  0  0  0  0  0
    2.7455   -5.2946    1.7989 H   0  0  0  0  0  0  0  0  0  0  0  0
    1.5776   -3.1351    1.4682 H   0  0  0  0  0  0  0  0  0  0  0  0
    2.7304   -3.0286    2.7997 H   0  0  0  0  0  0  0  0  0  0  0  0
    1.8133   -4.8654   -0.7684 N   0  0  0  0  0  0  0  0  0  0  0  0
    1.5740   -5.1305   -2.1824 C   0  0  0  0  0  0  0  0  0  0  0  0
    1.0218   -4.8447   -0.1322 H   0  0  0  0  0  0  0  0  0  0  0  0
    2.0100   -4.3387   -2.8011 H   0  0  0  0  0  0  0  0  0  0  0  0
    2.0176   -6.0888   -2.4729 H   0  0  0  0  0  0  0  0  0  0  0  0
    0.4990   -5.1717   -2.3833 H   0  0  0  0  0  0  0  0  0  0  0  0
   -5.2659    1.6589    2.7573 C   0  0  0  0  0  0  0  0  0  0  0  0
   -5.8474    1.2398    1.7686 O   0  0  0  0  0  0  0  0  0  0  0  0
   -6.0154    1.8225    4.0662 C   0  0  0  0  0  0  0  0  0  0  0  0
   -5.9686    2.8628    4.3970 H   0  0  0  0  0  0  0  0  0  0  0  0
   -7.0644    1.5417    3.9377 H   0  0  0  0  0  0  0  0  0  0  0  0
   -5.5697    1.1826    4.8315 H   0  0  0  0  0  0  0  0  0  0  0  0
   -3.9301    1.9946    2.6858 N   0  0  0  0  0  0  0  0  0  0  0  0
   -3.0856    1.8350    1.4947 C   0  0  2  0  0  0  0  0  0  0  0  0
   -1.5816    1.8649    1.8558 C   0  0  0  0  0  0  0  0  0  0  0  0
   -1.2316    2.4513    2.8694 O   0  0  0  0  0  0  0  0  0  0  0  0
   -3.4085    2.9776    0.5217 C   0  0  0  0  0  0  0  0  0  0  0  0
   -3.4766    2.3333    3.5336 H   0  0  0  0  0  0  0  0  0  0  0  0
   -3.3082    0.8711    1.0281 H   0  0  0  0  0  0  0  0  0  0  0  0
   -3.2507    3.9460    1.0076 H   0  0  0  0  0  0  0  0  0  0  0  0
   -2.7706    2.9323   -0.3635 H   0  0  0  0  0  0  0  0  0  0  0  0
   -4.4506    2.9189    0.1934 H   0  0  0  0  0  0  0  0  0  0  0  0
   -0.6842    0.8758    1.5162 N   0  0  0  0  0  0  0  0  0  0  0  0
    0.0301    0.9697    0.2299 C   0  0  2  0  0  0  0  0  0  0  0  0
   -0.8871    0.9800   -1.0066 C   0  0  0  0  0  0  0  0  0  0  0  0
   -0.7766    1.8521   -1.8544 O   0  0  0  0  0  0  0  0  0  0  0  0
    1.0016   -0.2089    0.1221 C   0  0  0  0  0  0  0  0  0  0  0  0
    2.2372   -0.1510    1.4805 S   0  0  0  0  0  0  0  0  0  0  0  0
   -0.0404    0.7555    2.2978 H   0  0  0  0  0  0  0  0  0  0  0  0
    0.6097    1.9004    0.2118 H   0  0  0  0  0  0  0  0  0  0  0  0
    0.4545   -1.1560    0.1633 H   0  0  0  0  0  0  0  0  0  0  0  0
    1.5263   -0.1652   -0.8384 H   0  0  0  0  0  0  0  0  0  0  0  0
   -1.9282    0.0768   -1.0830 N   0  0  0  0  0  0  0  0  0  0  0  0
   -3.0578    0.1486   -2.0161 C   0  0  2  0  0  0  0  0  0  0  0  0
   -4.2736   -0.5981   -1.4274 C   0  0  0  0  0  0  0  0  0  0  0  0
   -4.0886   -1.4640   -0.5775 O   0  0  0  0  0  0  0  0  0  0  0  0
   -2.6456   -0.4703   -3.3543 C   0  0  0  0  0  0  0  0  0  0  0  0
   -2.0295   -0.5800   -0.3074 H   0  0  0  0  0  0  0  0  0  0  0  0
   -3.3439    1.1937   -2.1726 H   0  0  0  0  0  0  0  0  0  0  0  0
   -2.3583   -1.5178   -3.2171 H   0  0  0  0  0  0  0  0  0  0  0  0
   -3.4740   -0.4260   -4.0682 H   0  0  0  0  0  0  0  0  0  0  0  0
   -1.7955    0.0724   -3.7799 H   0  0  0  0  0  0  0  0  0  0  0  0
   -5.5603   -0.2787   -1.8170 N   0  0  0  0  0  0  0  0  0  0  0  0
   -6.7386   -0.8235   -1.1523 C   0  0  0  0  0  0  0  0  0  0  0  0
   -5.6783    0.5271   -2.4235 H   0  0  0  0  0  0  0  0  0  0  0  0
   -6.7534   -1.9156   -1.2304 H   0  0  0  0  0  0  0  0  0  0  0  0
   -6.7443   -0.5463   -0.0930 H   0  0  0  0  0  0  0  0  0  0  0  0
   -7.6492   -0.4332   -1.6164 H   0  0  0  0  0  0  0  0  0  0  0  0
  1  2  2  0  0  0  0
  1  3  1  0  0  0  0
  1  7  1  0  0  0  0
  3  4  1  0  0  0  0
  3  5  1  0  0  0  0
  3  6  1  0  0  0  0
  7  8  1  0  0  0  0
  7 13  1  0  0  0  0
  8  9  1  0  0  0  0
  8 11  1  0  0  0  0
  8 14  1  0  0  0  0
  9 10  2  0  0  0  0
  9 17  1  0  0  0  0
 11 12  1  0  0  0  0
 11 15  1  0  0  0  0
 11 16  1  0  0  0  0
 12 44  1  0  0  0  0
 17 18  1  0  0  0  0
 17 19  1  0  0  0  0
 18 20  1  0  0  0  0
 18 21  1  0  0  0  0
 18 22  1  0  0  0  0
 23 24  2  0  0  0  0
 23 25  1  0  0  0  0
 23 29  1  0  0  0  0
 25 26  1  0  0  0  0
 25 27  1  0  0  0  0
 25 28  1  0  0  0  0
 29 30  1  0  0  0  0
 29 34  1  0  0  0  0
 30 31  1  0  0  0  0
 30 33  1  0  0  0  0
 30 35  1  0  0  0  0
 31 32  2  0  0  0  0
 31 39  1  0  0  0  0
 33 36  1  0  0  0  0
 33 37  1  0  0  0  0
 33 38  1  0  0  0  0
 39 40  1  0  0  0  0
 39 45  1  0  0  0  0
 40 41  1  0  0  0  0
 40 43  1  0  0  0  0
 40 46  1  0  0  0  0
 41 42  2  0  0  0  0
 41 49  1  0  0  0  0
 43 44  1  0  0  0  0
 43 47  1  0  0  0  0
 43 48  1  0  0  0  0
 49 50  1  0  0  0  0
 49 54  1  0  0  0  0
 50 51  1  0  0  0  0
 50 53  1  0  0  0  0
 50 55  1  0  0  0  0
 51 52  2  0  0  0  0
 51 59  1  0  0  0  0
 53 56  1  0  0  0  0
 53 57  1  0  0  0  0
 53 58  1  0  0  0  0
 59 60  1  0  0  0  0
 59 61  1  0  0  0  0
 60 62  1  0  0  0  0
 60 63  1  0  0  0  0
 60 64  1  0  0  0  0
M  END
$$$$

  -OEChem-02062319063D

 64 63  0     1  0  0  0  0  0999 V2000
    4.4046   -5.5994    2.8485 C   0  0  0  0  0  0  0  0  0  0  0  0
    3.4528   -6.0279    3.4825 O   0  0  0  0  0  0  0  0  0  0  0  0
    5.8163   -5.7612    3.3790 C   0  0  0  0  0  0  0  0  0  0  0  0
    6.2609   -4.7790    3.5574 H   0  0  0  0  0  0  0  0  0  0  0  0
    5.8048   -6.3193    4.3192 H   0  0  0  0  0  0  0  0  0  0  0  0
    6.4279   -6.3038    2.6540 H   0  0  0  0  0  0  0  0  0  0  0  0
    4.1930   -4.9654    1.6444 N   0  0  0  0  0  0  0  0  0  0  0  0
    2.8768   -4.7663    1.0223 C   0  0  2  0  0  0  0  0  0  0  0  0
    2.9696   -4.6934   -0.5173 C   0  0  0  0  0  0  0  0  0  0  0  0
    4.0621   -4.6403   -1.0718 O   0  0  0  0  0  0  0  0  0  0  0  0
    2.2383   -3.4914    1.5952 C   0  0  0  0  0  0  0  0  0  0  0  0
    3.2832   -2.0116    1.2717 S   0  0  0  0  0  0  0  0  0  0  0  0
    5.0083   -4.6644    1.1120 H   0  0  0  0  0  0  0  0  0  0  0  0
    2.2341   -5.6205    1.2598 H   0  0  0  0  0  0  0  0  0  0  0  0
    1.2486   -3.3414    1.1553 H   0  0  0  0  0  0  0  0  0  0  0  0
    2.1061   -3.6055    2.6762 H   0  0  0  0  0  0  0  0  0  0  0  0
    1.8237   -4.7338   -1.2926 N   0  0  0  0  0  0  0  0  0  0  0  0
    1.8499   -4.7480   -2.7506 C   0  0  0  0  0  0  0  0  0  0  0  0
    0.9353   -4.8608   -0.8169 H   0  0  0  0  0  0  0  0  0  0  0  0
    2.3678   -3.8626   -3.1346 H   0  0  0  0  0  0  0  0  0  0  0  0
    2.3654   -5.6429   -3.1151 H   0  0  0  0  0  0  0  0  0  0  0  0
    0.8304   -4.7494   -3.1479 H   0  0  0  0  0  0  0  0  0  0  0  0
   -5.2216    1.3399    2.9064 C   0  0  0  0  0  0  0  0  0  0  0  0
   -5.6392    0.5385    2.0879 O   0  0  0  0  0  0  0  0  0  0  0  0
   -6.0435    1.6621    4.1401 C   0  0  0  0  0  0  0  0  0  0  0  0
   -6.3388    2.7140    4.1273 H   0  0  0  0  0  0  0  0  0  0  0  0
   -6.9449    1.0431    4.1642 H   0  0  0  0  0  0  0  0  0  0  0  0
   -5.4578    1.4654    5.0413 H   0  0  0  0  0  0  0  0  0  0  0  0
   -4.0072    1.9630    2.7072 N   0  0  0  0  0  0  0  0  0  0  0  0
   -3.1558    1.7782    1.5244 C   0  0  2  0  0  0  0  0  0  0  0  0
   -1.6631    1.8471    1.9196 C   0  0  0  0  0  0  0  0  0  0  0  0
   -1.1905    2.9381    2.2033 O   0  0  0  0  0  0  0  0  0  0  0  0
   -3.5389    2.8741    0.5193 C   0  0  0  0  0  0  0  0  0  0  0  0
   -3.7245    2.6661    3.3870 H   0  0  0  0  0  0  0  0  0  0  0  0
   -3.3382    0.7990    1.0697 H   0  0  0  0  0  0  0  0  0  0  0  0
   -3.4726    3.8631    0.9840 H   0  0  0  0  0  0  0  0  0  0  0  0
   -2.8708    2.8619   -0.3443 H   0  0  0  0  0  0  0  0  0  0  0  0
   -4.5644    2.7220    0.1690 H   0  0  0  0  0  0  0  0  0  0  0  0
   -0.7595    0.8530    1.5811 N   0  0  0  0  0  0  0  0  0  0  0  0
    0.2169    1.0989    0.4977 C   0  0  2  0  0  0  0  0  0  0  0  0
   -0.4158    1.4018   -0.8752 C   0  0  0  0  0  0  0  0  0  0  0  0
   -0.0335    2.3373   -1.5609 O   0  0  0  0  0  0  0  0  0  0  0  0
    1.1407   -0.1183    0.3537 C   0  0  0  0  0  0  0  0  0  0  0  0
    2.0245   -0.4802    1.9231 S   0  0  0  0  0  0  0  0  0  0  0  0
   -1.1744   -0.0734    1.5750 H   0  0  0  0  0  0  0  0  0  0  0  0
    0.8312    1.9654    0.7711 H   0  0  0  0  0  0  0  0  0  0  0  0
    0.5655   -0.9979    0.0508 H   0  0  0  0  0  0  0  0  0  0  0  0
    1.8814    0.0824   -0.4281 H   0  0  0  0  0  0  0  0  0  0  0  0
   -1.4645    0.6226   -1.3229 N   0  0  0  0  0  0  0  0  0  0  0  0
   -2.3454    0.9479   -2.4481 C   0  0  2  0  0  0  0  0  0  0  0  0
   -3.7685    0.4513   -2.1232 C   0  0  0  0  0  0  0  0  0  0  0  0
   -3.9036   -0.4742   -1.3288 O   0  0  0  0  0  0  0  0  0  0  0  0
   -1.8081    0.2813   -3.7165 C   0  0  0  0  0  0  0  0  0  0  0  0
   -1.8030   -0.1093   -0.7006 H   0  0  0  0  0  0  0  0  0  0  0  0
   -2.3843    2.0321   -2.5980 H   0  0  0  0  0  0  0  0  0  0  0  0
   -1.7682   -0.8057   -3.5921 H   0  0  0  0  0  0  0  0  0  0  0  0
   -2.4526    0.5109   -4.5708 H   0  0  0  0  0  0  0  0  0  0  0  0
   -0.7993    0.6453   -3.9367 H   0  0  0  0  0  0  0  0  0  0  0  0
   -4.8848    1.0898   -2.6276 N   0  0  0  0  0  0  0  0  0  0  0  0
   -6.2367    0.7827   -2.1728 C   0  0  0  0  0  0  0  0  0  0  0  0
   -4.7383    1.9070   -3.2133 H   0  0  0  0  0  0  0  0  0  0  0  0
   -6.4710   -0.2729   -2.3458 H   0  0  0  0  0  0  0  0  0  0  0  0
   -6.3375    0.9928   -1.1022 H   0  0  0  0  0  0  0  0  0  0  0  0
   -6.9666    1.3901   -2.7164 H   0  0  0  0  0  0  0  0  0  0  0  0
  1  2  2  0  0  0  0
  1  3  1  0  0  0  0
  1  7  1  0  0  0  0
  3  4  1  0  0  0  0
  3  5  1  0  0  0  0
  3  6  1  0  0  0  0
  7  8  1  0  0  0  0
  7 13  1  0  0  0  0
  8  9  1  0  0  0  0
  8 11  1  0  0  0  0
  8 14  1  0  0  0  0
  9 10  2  0  0  0  0
  9 17  1  0  0  0  0
 11 12  1  0  0  0  0
 11 15  1  0  0  0  0
 11 16  1  0  0  0  0
 12 44  1  0  0  0  0
 17 18  1  0  0  0  0
 17 19  1  0  0  0  0
 18 20  1  0  0  0  0
 18 21  1  0  0  0  0
 18 22  1  0  0  0  0
 23 24  2  0  0  0  0
 23 25  1  0  0  0  0
 23 29  1  0  0  0  0
 25 26  1  0  0  0  0
 25 27  1  0  0  0  0
 25 28  1  0  0  0  0
 29 30  1  0  0  0  0
 29 34  1  0  0  0  0
 30 31  1  0  0  0  0
 30 33  1  0  0  0  0
 30 35  1  0  0  0  0
 31 32  2  0  0  0  0
 31 39  1  0  0  0  0
 33 36  1  0  0  0  0
 33 37  1  0  0  0  0
 33 38  1  0  0  0  0
 39 40  1  0  0  0  0
 39 45  1  0  0  0  0
 40 41  1  0  0  0  0
 40 43  1  0  0  0  0
 40 46  1  0  0  0  0
 41 42  2  0  0  0  0
 41 49  1  0  0  0  0
 43 44  1  0  0  0  0
 43 47  1  0  0  0  0
 43 48  1  0  0  0  0
 49 50  1  0  0  0  0
 49 54  1  0  0  0  0
 50 51  1  0  0  0  0
 50 53  1  0  0  0  0
 50 55  1  0  0  0  0
 51 52  2  0  0  0  0
 51 59  1  0  0  0  0
 53 56  1  0  0  0  0
 53 57  1  0  0  0  0
 53 58  1  0  0  0  0
 59 60  1  0  0  0  0
 59 61  1  0  0  0  0
 60 62  1  0  0  0  0
 60 63  1  0  0  0  0
 60 64  1  0  0  0  0
M  END
$$$$

  -OEChem-02062319063D

 64 63  0     1  0  0  0  0  0999 V2000
    2.0434   -4.7518    3.5810 C   0  0  0  0  0  0  0  0  0  0  0  0
    1.0061   -4.4405    4.1483 O   0  0  0  0  0  0  0  0  0  0  0  0
    3.0373   -5.6797    4.2530 C   0  0  0  0  0  0  0  0  0  0  0  0
    3.9696   -5.1453    4.4509 H   0  0  0  0  0  0  0  0  0  0  0  0
    2.6316   -6.0453    5.2003 H   0  0  0  0  0  0  0  0  0  0  0  0
    3.2464   -6.5354    3.6064 H   0  0  0  0  0  0  0  0  0  0  0  0
    2.3019   -4.2612    2.3199 N   0  0  0  0  0  0  0  0  0  0  0  0
    1.3557   -3.4491    1.5447 C   0  0  2  0  0  0  0  0  0  0  0  0
    1.4690   -3.6967    0.0249 C   0  0  0  0  0  0  0  0  0  0  0  0
    2.3352   -4.4462   -0.4129 O   0  0  0  0  0  0  0  0  0  0  0  0
    1.5728   -1.9718    1.8942 C   0  0  0  0  0  0  0  0  0  0  0  0
    3.1761   -1.3392    1.2549 S   0  0  0  0  0  0  0  0  0  0  0  0
    3.1221   -4.6147    1.8281 H   0  0  0  0  0  0  0  0  0  0  0  0
    0.3360   -3.7289    1.8245 H   0  0  0  0  0  0  0  0  0  0  0  0
    0.7644   -1.3794    1.4660 H   0  0  0  0  0  0  0  0  0  0  0  0
    1.5376   -1.8361    2.9802 H   0  0  0  0  0  0  0  0  0  0  0  0
    0.5590   -3.1343   -0.8531 N   0  0  0  0  0  0  0  0  0  0  0  0
    0.5906   -3.3643   -2.2913 C   0  0  0  0  0  0  0  0  0  0  0  0
   -0.1667   -2.5267   -0.4704 H   0  0  0  0  0  0  0  0  0  0  0  0
    1.4805   -2.9034   -2.7323 H   0  0  0  0  0  0  0  0  0  0  0  0
    0.6019   -4.4373   -2.5106 H   0  0  0  0  0  0  0  0  0  0  0  0
   -0.2963   -2.9306   -2.7608 H   0  0  0  0  0  0  0  0  0  0  0  0
   -2.2446   -1.3595    1.1447 C   0  0  0  0  0  0  0  0  0  0  0  0
   -1.4907   -1.2699    0.1809 O   0  0  0  0  0  0  0  0  0  0  0  0
   -2.5002   -2.7096    1.7863 C   0  0  0  0  0  0  0  0  0  0  0  0
   -2.0014   -2.7645    2.7580 H   0  0  0  0  0  0  0  0  0  0  0  0
   -3.5734   -2.8576    1.9298 H   0  0  0  0  0  0  0  0  0  0  0  0
   -2.1215   -3.5126    1.1483 H   0  0  0  0  0  0  0  0  0  0  0  0
   -2.7729   -0.2171    1.7089 N   0  0  0  0  0  0  0  0  0  0  0  0
   -2.7855    1.1114    1.0679 C   0  0  2  0  0  0  0  0  0  0  0  0
   -1.4446    1.8830    1.1779 C   0  0  0  0  0  0  0  0  0  0  0  0
   -1.4352    3.1044    1.1361 O   0  0  0  0  0  0  0  0  0  0  0  0
   -3.9487    1.8877    1.6972 C   0  0  0  0  0  0  0  0  0  0  0  0
   -3.3913   -0.3548    2.5053 H   0  0  0  0  0  0  0  0  0  0  0  0
   -3.0030    0.9928    0.0024 H   0  0  0  0  0  0  0  0  0  0  0  0
   -3.7674    2.0550    2.7636 H   0  0  0  0  0  0  0  0  0  0  0  0
   -4.0666    2.8611    1.2116 H   0  0  0  0  0  0  0  0  0  0  0  0
   -4.8854    1.3345    1.5793 H   0  0  0  0  0  0  0  0  0  0  0  0
   -0.2754    1.2221    0.8542 N   0  0  0  0  0  0  0  0  0  0  0  0
    0.5940    1.7177   -0.2283 C   0  0  2  0  0  0  0  0  0  0  0  0
   -0.1306    1.7603   -1.5870 C   0  0  0  0  0  0  0  0  0  0  0  0
   -0.0346    2.7400   -2.3148 O   0  0  0  0  0  0  0  0  0  0  0  0
    1.8235    0.8089   -0.3457 C   0  0  0  0  0  0  0  0  0  0  0  0
    2.7212    0.6960    1.2558 S   0  0  0  0  0  0  0  0  0  0  0  0
   -0.4020    0.2122    0.8606 H   0  0  0  0  0  0  0  0  0  0  0  0
    0.9284    2.7337    0.0124 H   0  0  0  0  0  0  0  0  0  0  0  0
    1.5142   -0.1915   -0.6631 H   0  0  0  0  0  0  0  0  0  0  0  0
    2.5038    1.2015   -1.1089 H   0  0  0  0  0  0  0  0  0  0  0  0
   -0.9123    0.6929   -1.9998 N   0  0  0  0  0  0  0  0  0  0  0  0
   -1.8606    0.7945   -3.1182 C   0  0  2  0  0  0  0  0  0  0  0  0
   -3.0893    1.6521   -2.7330 C   0  0  0  0  0  0  0  0  0  0  0  0
   -4.1618    1.1373   -2.4368 O   0  0  0  0  0  0  0  0  0  0  0  0
   -2.2409   -0.6277   -3.5448 C   0  0  0  0  0  0  0  0  0  0  0  0
   -1.0763   -0.0422   -1.3089 H   0  0  0  0  0  0  0  0  0  0  0  0
   -1.3768    1.2794   -3.9730 H   0  0  0  0  0  0  0  0  0  0  0  0
   -2.6864   -1.1775   -2.7092 H   0  0  0  0  0  0  0  0  0  0  0  0
   -2.9658   -0.5968   -4.3647 H   0  0  0  0  0  0  0  0  0  0  0  0
   -1.3554   -1.1683   -3.8904 H   0  0  0  0  0  0  0  0  0  0  0  0
   -2.9343    3.0175   -2.6005 N   0  0  0  0  0  0  0  0  0  0  0  0
   -3.9581    3.9001   -2.0598 C   0  0  0  0  0  0  0  0  0  0  0  0
   -1.9715    3.3614   -2.6528 H   0  0  0  0  0  0  0  0  0  0  0  0
   -4.8698    3.8450   -2.6633 H   0  0  0  0  0  0  0  0  0  0  0  0
   -4.1986    3.6231   -1.0293 H   0  0  0  0  0  0  0  0  0  0  0  0
   -3.6028    4.9352   -2.0656 H   0  0  0  0  0  0  0  0  0  0  0  0
  1  2  2  0  0  0  0
  1  3  1  0  0  0  0
  1  7  1  0  0  0  0
  3  4  1  0  0  0  0
  3  5  1  0  0  0  0
  3  6  1  0  0  0  0
  7  8  1  0  0  0  0
  7 13  1  0  0  0  0
  8  9  1  0  0  0  0
  8 11  1  0  0  0  0
  8 14  1  0  0  0  0
  9 10  2  0  0  0  0
  9 17  1  0  0  0  0
 11 12  1  0  0  0  0
 11 15  1  0  0  0  0
 11 16  1  0  0  0  0
 12 44  1  0  0  0  0
 17 18  1  0  0  0  0
 17 19  1  0  0  0  0
 18 20  1  0  0  0  0
 18 21  1  0  0  0  0
 18 22  1  0  0  0  0
 23 24  2  0  0  0  0
 23 25  1  0  0  0  0
 23 29  1  0  0  0  0
 25 26  1  0  0  0  0
 25 27  1  0  0  0  0
 25 28  1  0  0  0  0
 29 30  1  0  0  0  0
 29 34  1  0  0  0  0
 30 31  1  0  0  0  0
 30 33  1  0  0  0  0
 30 35  1  0  0  0  0
 31 32  2  0  0  0  0
 31 39  1  0  0  0  0
 33 36  1  0  0  0  0
 33 37  1  0  0  0  0
 33 38  1  0  0  0  0
 39 40  1  0  0  0  0
 39 45  1  0  0  0  0
 40 41  1  0  0  0  0
 40 43  1  0  0  0  0
 40 46  1  0  0  0  0
 41 42  2  0  0  0  0
 41 49  1  0  0  0  0
 43 44  1  0  0  0  0
 43 47  1  0  0  0  0
 43 48  1  0  0  0  0
 49 50  1  0  0  0  0
 49 54  1  0  0  0  0
 50 51  1  0  0  0  0
 50 53  1  0  0  0  0
 50 55  1  0  0  0  0
 51 52  2  0  0  0  0
 51 59  1  0  0  0  0
 53 56  1  0  0  0  0
 53 57  1  0  0  0  0
 53 58  1  0  0  0  0
 59 60  1  0  0  0  0
 59 61  1  0  0  0  0
 60 62  1  0  0  0  0
 60 63  1  0  0  0  0
 60 64  1  0  0  0  0
M  END
$$$$

  -OEChem-02062319063D

 64 63  0     1  0  0  0  0  0999 V2000
    2.6639   -6.5667    1.8537 C   0  0  0  0  0  0  0  0  0  0  0  0
    1.4854   -6.8534    1.9965 O   0  0  0  0  0  0  0  0  0  0  0  0
    3.7206   -7.2065    2.7336 C   0  0  0  0  0  0  0  0  0  0  0  0
    4.2629   -6.4346    3.2853 H   0  0  0  0  0  0  0  0  0  0  0  0
    3.2527   -7.8885    3.4491 H   0  0  0  0  0  0  0  0  0  0  0  0
    4.4265   -7.7699    2.1189 H   0  0  0  0  0  0  0  0  0  0  0  0
    3.0303   -5.6585    0.8853 N   0  0  0  0  0  0  0  0  0  0  0  0
    2.0916   -4.9729   -0.0137 C   0  0  2  0  0  0  0  0  0  0  0  0
    2.7706   -4.5037   -1.3185 C   0  0  0  0  0  0  0  0  0  0  0  0
    3.9882   -4.5722   -1.4456 O   0  0  0  0  0  0  0  0  0  0  0  0
    1.4585   -3.7859    0.7298 C   0  0  0  0  0  0  0  0  0  0  0  0
    2.7344   -2.5804    1.2821 S   0  0  0  0  0  0  0  0  0  0  0  0
    4.0227   -5.4599    0.7639 H   0  0  0  0  0  0  0  0  0  0  0  0
    1.3002   -5.6729   -0.3020 H   0  0  0  0  0  0  0  0  0  0  0  0
    0.7373   -3.2806    0.0816 H   0  0  0  0  0  0  0  0  0  0  0  0
    0.9138   -4.1553    1.6050 H   0  0  0  0  0  0  0  0  0  0  0  0
    2.0097   -4.0331   -2.3747 N   0  0  0  0  0  0  0  0  0  0  0  0
    2.5848   -3.6010   -3.6430 C   0  0  0  0  0  0  0  0  0  0  0  0
    0.9994   -4.0449   -2.2727 H   0  0  0  0  0  0  0  0  0  0  0  0
    3.2931   -2.7810   -3.4831 H   0  0  0  0  0  0  0  0  0  0  0  0
    3.1098   -4.4303   -4.1286 H   0  0  0  0  0  0  0  0  0  0  0  0
    1.7961   -3.2497   -4.3152 H   0  0  0  0  0  0  0  0  0  0  0  0
   -5.2037    1.3650    3.7156 C   0  0  0  0  0  0  0  0  0  0  0  0
   -5.4735    0.1783    3.6181 O   0  0  0  0  0  0  0  0  0  0  0  0
   -5.8491    2.2019    4.8035 C   0  0  0  0  0  0  0  0  0  0  0  0
   -6.4832    2.9699    4.3541 H   0  0  0  0  0  0  0  0  0  0  0  0
   -6.4629    1.5686    5.4503 H   0  0  0  0  0  0  0  0  0  0  0  0
   -5.0785    2.6825    5.4114 H   0  0  0  0  0  0  0  0  0  0  0  0
   -4.2998    1.9464    2.8507 N   0  0  0  0  0  0  0  0  0  0  0  0
   -3.4265    1.1849    1.9459 C   0  0  2  0  0  0  0  0  0  0  0  0
   -1.9391    1.4194    2.2893 C   0  0  0  0  0  0  0  0  0  0  0  0
   -1.6060    2.5185    2.7144 O   0  0  0  0  0  0  0  0  0  0  0  0
   -3.7578    1.6104    0.5166 C   0  0  0  0  0  0  0  0  0  0  0  0
   -3.9832    2.8834    3.0965 H   0  0  0  0  0  0  0  0  0  0  0  0
   -3.6169    0.1109    2.0412 H   0  0  0  0  0  0  0  0  0  0  0  0
   -3.4651    2.6508    0.3421 H   0  0  0  0  0  0  0  0  0  0  0  0
   -3.2338    0.9697   -0.1951 H   0  0  0  0  0  0  0  0  0  0  0  0
   -4.8323    1.5144    0.3317 H   0  0  0  0  0  0  0  0  0  0  0  0
   -0.9484    0.6046    1.7695 N   0  0  0  0  0  0  0  0  0  0  0  0
    0.3100    1.1432    1.2137 C   0  0  2  0  0  0  0  0  0  0  0  0
    0.1639    2.1056    0.0172 C   0  0  0  0  0  0  0  0  0  0  0  0
    0.9238    3.0573   -0.0947 O   0  0  0  0  0  0  0  0  0  0  0  0
    1.2056   -0.0287    0.7927 C   0  0  0  0  0  0  0  0  0  0  0  0
    1.5350   -1.1495    2.2112 S   0  0  0  0  0  0  0  0  0  0  0  0
   -1.2538   -0.3047    1.4360 H   0  0  0  0  0  0  0  0  0  0  0  0
    0.8237    1.7008    2.0057 H   0  0  0  0  0  0  0  0  0  0  0  0
    0.7343   -0.5929   -0.0173 H   0  0  0  0  0  0  0  0  0  0  0  0
    2.1595    0.3586    0.4187 H   0  0  0  0  0  0  0  0  0  0  0  0
   -0.6914    1.8199   -1.0321 N   0  0  0  0  0  0  0  0  0  0  0  0
   -0.8276    2.6407   -2.2436 C   0  0  2  0  0  0  0  0  0  0  0  0
   -2.1745    2.3919   -2.9510 C   0  0  0  0  0  0  0  0  0  0  0  0
   -2.7949    1.3557   -2.7372 O   0  0  0  0  0  0  0  0  0  0  0  0
    0.3250    2.3153   -3.2006 C   0  0  0  0  0  0  0  0  0  0  0  0
   -1.3339    1.0378   -0.9275 H   0  0  0  0  0  0  0  0  0  0  0  0
   -0.7848    3.7006   -1.9694 H   0  0  0  0  0  0  0  0  0  0  0  0
    0.3000    1.2578   -3.4822 H   0  0  0  0  0  0  0  0  0  0  0  0
    0.2505    2.9202   -4.1093 H   0  0  0  0  0  0  0  0  0  0  0  0
    1.2891    2.5270   -2.7279 H   0  0  0  0  0  0  0  0  0  0  0  0
   -2.6849    3.3228   -3.8361 N   0  0  0  0  0  0  0  0  0  0  0  0
   -3.9451    3.1463   -4.5473 C   0  0  0  0  0  0  0  0  0  0  0  0
   -2.1485    4.1721   -3.9902 H   0  0  0  0  0  0  0  0  0  0  0  0
   -3.8989    2.2646   -5.1953 H   0  0  0  0  0  0  0  0  0  0  0  0
   -4.7712    3.0217   -3.8392 H   0  0  0  0  0  0  0  0  0  0  0  0
   -4.1543    4.0219   -5.1697 H   0  0  0  0  0  0  0  0  0  0  0  0
  1  2  2  0  0  0  0
  1  3  1  0  0  0  0
  1  7  1  0  0  0  0
  3  4  1  0  0  0  0
  3  5  1  0  0  0  0
  3  6  1  0  0  0  0
  7  8  1  0  0  0  0
  7 13  1  0  0  0  0
  8  9  1  0  0  0  0
  8 11  1  0  0  0  0
  8 14  1  0  0  0  0
  9 10  2  0  0  0  0
  9 17  1  0  0  0  0
 11 12  1  0  0  0  0
 11 15  1  0  0  0  0
 11 16  1  0  0  0  0
 12 44  1  0  0  0  0
 17 18  1  0  0  0  0
 17 19  1  0  0  0  0
 18 20  1  0  0  0  0
 18 21  1  0  0  0  0
 18 22  1  0  0  0  0
 23 24  2  0  0  0  0
 23 25  1  0  0  0  0
 23 29  1  0  0  0  0
 25 26  1  0  0  0  0
 25 27  1  0  0  0  0
 25 28  1  0  0  0  0
 29 30  1  0  0  0  0
 29 34  1  0  0  0  0
 30 31  1  0  0  0  0
 30 33  1  0  0  0  0
 30 35  1  0  0  0  0
 31 32  2  0  0  0  0
 31 39  1  0  0  0  0
 33 36  1  0  0  0  0
 33 37  1  0  0  0  0
 33 38  1  0  0  0  0
 39 40  1  0  0  0  0
 39 45  1  0  0  0  0
 40 41  1  0  0  0  0
 40 43  1  0  0  0  0
 40 46  1  0  0  0  0
 41 42  2  0  0  0  0
 41 49  1  0  0  0  0
 43 44  1  0  0  0  0
 43 47  1  0  0  0  0
 43 48  1  0  0  0  0
 49 50  1  0  0  0  0
 49 54  1  0  0  0  0
 50 51  1  0  0  0  0
 50 53  1  0  0  0  0
 50 55  1  0  0  0  0
 51 52  2  0  0  0  0
 51 59  1  0  0  0  0
 53 56  1  0  0  0  0
 53 57  1  0  0  0  0
 53 58  1  0  0  0  0
 59 60  1  0  0  0  0
 59 61  1  0  0  0  0
 60 62  1  0  0  0  0
 60 63  1  0  0  0  0
 60 64  1  0  0  0  0
M  END
$$$$

  -OEChem-02062319063D

 64 63  0     1  0  0  0  0  0999 V2000
    2.0036   -6.8900    1.1407 C   0  0  0  0  0  0  0  0  0  0  0  0
    0.7922   -7.0301    1.0738 O   0  0  0  0  0  0  0  0  0  0  0  0
    2.8312   -7.7965    2.0315 C   0  0  0  0  0  0  0  0  0  0  0  0
    3.3905   -7.1984    2.7550 H   0  0  0  0  0  0  0  0  0  0  0  0
    2.1792   -8.4865    2.5740 H   0  0  0  0  0  0  0  0  0  0  0  0
    3.5332   -8.3752    1.4264 H   0  0  0  0  0  0  0  0  0  0  0  0
    2.6166   -5.9037    0.3997 N   0  0  0  0  0  0  0  0  0  0  0  0
    1.9137   -4.9726   -0.4940 C   0  0  2  0  0  0  0  0  0  0  0  0
    2.8452   -4.3971   -1.5823 C   0  0  0  0  0  0  0  0  0  0  0  0
    4.0490   -4.6301   -1.5565 O   0  0  0  0  0  0  0  0  0  0  0  0
    1.2835   -3.8462    0.3410 C   0  0  0  0  0  0  0  0  0  0  0  0
    2.5591   -2.9055    1.2751 S   0  0  0  0  0  0  0  0  0  0  0  0
    3.6331   -5.8355    0.4384 H   0  0  0  0  0  0  0  0  0  0  0  0
    1.1168   -5.5142   -1.0143 H   0  0  0  0  0  0  0  0  0  0  0  0
    0.7315   -3.1630   -0.3100 H   0  0  0  0  0  0  0  0  0  0  0  0
    0.5681   -4.2768    1.0493 H   0  0  0  0  0  0  0  0  0  0  0  0
    2.3265   -3.6480   -2.6242 N   0  0  0  0  0  0  0  0  0  0  0  0
    3.1447   -3.1087   -3.7036 C   0  0  0  0  0  0  0  0  0  0  0  0
    1.3199   -3.5194   -2.6603 H   0  0  0  0  0  0  0  0  0  0  0  0
    3.9260   -2.4547   -3.3018 H   0  0  0  0  0  0  0  0  0  0  0  0
    3.6184   -3.9198   -4.2669 H   0  0  0  0  0  0  0  0  0  0  0  0
    2.5267   -2.5241   -4.3920 H   0  0  0  0  0  0  0  0  0  0  0  0
   -5.3856    1.4764    3.2261 C   0  0  0  0  0  0  0  0  0  0  0  0
   -5.7789    0.3432    3.0000 O   0  0  0  0  0  0  0  0  0  0  0  0
   -6.1470    2.3677    4.1886 C   0  0  0  0  0  0  0  0  0  0  0  0
   -6.5165    3.2529    3.6656 H   0  0  0  0  0  0  0  0  0  0  0  0
   -6.9985    1.8261    4.6096 H   0  0  0  0  0  0  0  0  0  0  0  0
   -5.4916    2.6821    5.0044 H   0  0  0  0  0  0  0  0  0  0  0  0
   -4.2415    1.9458    2.6163 N   0  0  0  0  0  0  0  0  0  0  0  0
   -3.3260    1.1139    1.8239 C   0  0  2  0  0  0  0  0  0  0  0  0
   -1.8530    1.3868    2.1959 C   0  0  0  0  0  0  0  0  0  0  0  0
   -1.5461    2.4666    2.6855 O   0  0  0  0  0  0  0  0  0  0  0  0
   -3.5877    1.4061    0.3451 C   0  0  0  0  0  0  0  0  0  0  0  0
   -3.8744    2.8375    2.9468 H   0  0  0  0  0  0  0  0  0  0  0  0
   -3.5154    0.0526    2.0175 H   0  0  0  0  0  0  0  0  0  0  0  0
   -3.3704    2.4545    0.1166 H   0  0  0  0  0  0  0  0  0  0  0  0
   -2.9627    0.7723   -0.2906 H   0  0  0  0  0  0  0  0  0  0  0  0
   -4.6359    1.2072    0.1007 H   0  0  0  0  0  0  0  0  0  0  0  0
   -0.8444    0.5713    1.7150 N   0  0  0  0  0  0  0  0  0  0  0  0
    0.5304    1.0427    1.4610 C   0  0  2  0  0  0  0  0  0  0  0  0
    0.6373    2.1800    0.4248 C   0  0  0  0  0  0  0  0  0  0  0  0
    1.4931    3.0446    0.5534 O   0  0  0  0  0  0  0  0  0  0  0  0
    1.3899   -0.1398    0.9980 C   0  0  0  0  0  0  0  0  0  0  0  0
    1.3633   -1.4951    2.2391 S   0  0  0  0  0  0  0  0  0  0  0  0
   -1.1262   -0.3222    1.3216 H   0  0  0  0  0  0  0  0  0  0  0  0
    0.9451    1.4243    2.4012 H   0  0  0  0  0  0  0  0  0  0  0  0
    1.0279   -0.5158    0.0367 H   0  0  0  0  0  0  0  0  0  0  0  0
    2.4235    0.1949    0.8580 H   0  0  0  0  0  0  0  0  0  0  0  0
   -0.0707    2.1197   -0.7621 N   0  0  0  0  0  0  0  0  0  0  0  0
   -0.0661    3.1825   -1.7756 C   0  0  2  0  0  0  0  0  0  0  0  0
   -1.4185    3.2624   -2.5112 C   0  0  0  0  0  0  0  0  0  0  0  0
   -2.1825    2.3027   -2.4895 O   0  0  0  0  0  0  0  0  0  0  0  0
    1.0665    2.9068   -2.7687 C   0  0  0  0  0  0  0  0  0  0  0  0
   -0.8340    1.4481   -0.8125 H   0  0  0  0  0  0  0  0  0  0  0  0
    0.1027    4.1512   -1.2926 H   0  0  0  0  0  0  0  0  0  0  0  0
    0.9110    1.9460   -3.2695 H   0  0  0  0  0  0  0  0  0  0  0  0
    1.1103    3.6934   -3.5280 H   0  0  0  0  0  0  0  0  0  0  0  0
    2.0290    2.8772   -2.2481 H   0  0  0  0  0  0  0  0  0  0  0  0
   -1.7861    4.4123   -3.1849 N   0  0  0  0  0  0  0  0  0  0  0  0
   -3.0705    4.5707   -3.8560 C   0  0  0  0  0  0  0  0  0  0  0  0
   -1.1496    5.2039   -3.1496 H   0  0  0  0  0  0  0  0  0  0  0  0
   -3.1964    3.8063   -4.6301 H   0  0  0  0  0  0  0  0  0  0  0  0
   -3.8915    4.4834   -3.1367 H   0  0  0  0  0  0  0  0  0  0  0  0
   -3.1306    5.5547   -4.3311 H   0  0  0  0  0  0  0  0  0  0  0  0
  1  2  2  0  0  0  0
  1  3  1  0  0  0  0
  1  7  1  0  0  0  0
  3  4  1  0  0  0  0
  3  5  1  0  0  0  0
  3  6  1  0  0  0  0
  7  8  1  0  0  0  0
  7 13  1  0  0  0  0
  8  9  1  0  0  0  0
  8 11  1  0  0  0  0
  8 14  1  0  0  0  0
  9 10  2  0  0  0  0
  9 17  1  0  0  0  0
 11 12  1  0  0  0  0
 11 15  1  0  0  0  0
 11 16  1  0  0  0  0
 12 44  1  0  0  0  0
 17 18  1  0  0  0  0
 17 19  1  0  0  0  0
 18 20  1  0  0  0  0
 18 21  1  0  0  0  0
 18 22  1  0  0  0  0
 23 24  2  0  0  0  0
 23 25  1  0  0  0  0
 23 29  1  0  0  0  0
 25 26  1  0  0  0  0
 25 27  1  0  0  0  0
 25 28  1  0  0  0  0
 29 30  1  0  0  0  0
 29 34  1  0  0  0  0
 30 31  1  0  0  0  0
 30 33  1  0  0  0  0
 30 35  1  0  0  0  0
 31 32  2  0  0  0  0
 31 39  1  0  0  0  0
 33 36  1  0  0  0  0
 33 37  1  0  0  0  0
 33 38  1  0  0  0  0
 39 40  1  0  0  0  0
 39 45  1  0  0  0  0
 40 41  1  0  0  0  0
 40 43  1  0  0  0  0
 40 46  1  0  0  0  0
 41 42  2  0  0  0  0
 41 49  1  0  0  0  0
 43 44  1  0  0  0  0
 43 47  1  0  0  0  0
 43 48  1  0  0  0  0
 49 50  1  0  0  0  0
 49 54  1  0  0  0  0
 50 51  1  0  0  0  0
 50 53  1  0  0  0  0
 50 55  1  0  0  0  0
 51 52  2  0  0  0  0
 51 59  1  0  0  0  0
 53 56  1  0  0  0  0
 53 57  1  0  0  0  0
 53 58  1  0  0  0  0
 59 60  1  0  0  0  0
 59 61  1  0  0  0  0
 60 62  1  0  0  0  0
 60 63  1  0  0  0  0
 60 64  1  0  0  0  0
M  END
$$$$

  -OEChem-02062319063D

 64 63  0     1  0  0  0  0  0999 V2000
    1.4069   -7.0248    0.2940 C   0  0  0  0  0  0  0  0  0  0  0  0
    0.2173   -7.0235    0.0178 O   0  0  0  0  0  0  0  0  0  0  0  0
    2.0065   -8.1658    1.0942 C   0  0  0  0  0  0  0  0  0  0  0  0
    2.4268   -7.7861    2.0289 H   0  0  0  0  0  0  0  0  0  0  0  0
    1.2370   -8.9065    1.3287 H   0  0  0  0  0  0  0  0  0  0  0  0
    2.7974   -8.6518    0.5177 H   0  0  0  0  0  0  0  0  0  0  0  0
    2.2067   -5.9894   -0.1372 N   0  0  0  0  0  0  0  0  0  0  0  0
    1.7425   -4.8556   -0.9485 C   0  0  2  0  0  0  0  0  0  0  0  0
    2.8939   -4.2093   -1.7491 C   0  0  0  0  0  0  0  0  0  0  0  0
    4.0510   -4.5769   -1.5762 O   0  0  0  0  0  0  0  0  0  0  0  0
    1.0573   -3.8238   -0.0385 C   0  0  0  0  0  0  0  0  0  0  0  0
    2.2067   -3.1907    1.2504 S   0  0  0  0  0  0  0  0  0  0  0  0
    3.2058   -6.0414    0.0589 H   0  0  0  0  0  0  0  0  0  0  0  0
    1.0130   -5.2185   -1.6799 H   0  0  0  0  0  0  0  0  0  0  0  0
    0.6863   -2.9876   -0.6375 H   0  0  0  0  0  0  0  0  0  0  0  0
    0.1946   -4.2875    0.4516 H   0  0  0  0  0  0  0  0  0  0  0  0
    2.6312   -3.2456   -2.7077 N   0  0  0  0  0  0  0  0  0  0  0  0
    3.6694   -2.6378   -3.5323 C   0  0  0  0  0  0  0  0  0  0  0  0
    1.6611   -3.0007   -2.8811 H   0  0  0  0  0  0  0  0  0  0  0  0
    4.4175   -2.1421   -2.9043 H   0  0  0  0  0  0  0  0  0  0  0  0
    4.1691   -3.3986   -4.1414 H   0  0  0  0  0  0  0  0  0  0  0  0
    3.2328   -1.8907   -4.2024 H   0  0  0  0  0  0  0  0  0  0  0  0
   -5.3281    1.4017    3.0310 C   0  0  0  0  0  0  0  0  0  0  0  0
   -5.6496    0.2498    2.7866 O   0  0  0  0  0  0  0  0  0  0  0  0
   -6.0960    2.1967    4.0701 C   0  0  0  0  0  0  0  0  0  0  0  0
   -6.4268    3.1473    3.6450 H   0  0  0  0  0  0  0  0  0  0  0  0
   -6.9738    1.6343    4.4008 H   0  0  0  0  0  0  0  0  0  0  0  0
   -5.4576    2.3937    4.9349 H   0  0  0  0  0  0  0  0  0  0  0  0
   -4.2559    1.9762    2.3805 N   0  0  0  0  0  0  0  0  0  0  0  0
   -3.3088    1.2327    1.5378 C   0  0  2  0  0  0  0  0  0  0  0  0
   -1.8518    1.4762    1.9808 C   0  0  0  0  0  0  0  0  0  0  0  0
   -1.5484    2.5274    2.5309 O   0  0  0  0  0  0  0  0  0  0  0  0
   -3.5169    1.6780    0.0887 C   0  0  0  0  0  0  0  0  0  0  0  0
   -3.9372    2.8773    2.7339 H   0  0  0  0  0  0  0  0  0  0  0  0
   -3.4955    0.1560    1.6082 H   0  0  0  0  0  0  0  0  0  0  0  0
   -3.3083    2.7474   -0.0190 H   0  0  0  0  0  0  0  0  0  0  0  0
   -2.8532    1.1255   -0.5831 H   0  0  0  0  0  0  0  0  0  0  0  0
   -4.5503    1.4924   -0.2200 H   0  0  0  0  0  0  0  0  0  0  0  0
   -0.8457    0.6119    1.5889 N   0  0  0  0  0  0  0  0  0  0  0  0
    0.5936    0.9172    1.6883 C   0  0  2  0  0  0  0  0  0  0  0  0
    1.0187    2.1589    0.8807 C   0  0  0  0  0  0  0  0  0  0  0  0
    1.9037    2.8951    1.2952 O   0  0  0  0  0  0  0  0  0  0  0  0
    1.3984   -0.2949    1.2058 C   0  0  0  0  0  0  0  0  0  0  0  0
    0.9808   -1.7897    2.1895 S   0  0  0  0  0  0  0  0  0  0  0  0
   -1.1264   -0.2934    1.2214 H   0  0  0  0  0  0  0  0  0  0  0  0
    0.8424    1.1101    2.7381 H   0  0  0  0  0  0  0  0  0  0  0  0
    1.1967   -0.4836    0.1470 H   0  0  0  0  0  0  0  0  0  0  0  0
    2.4689   -0.0868    1.3095 H   0  0  0  0  0  0  0  0  0  0  0  0
    0.5530    2.3268   -0.4095 N   0  0  0  0  0  0  0  0  0  0  0  0
    0.7302    3.5640   -1.1775 C   0  0  2  0  0  0  0  0  0  0  0  0
   -0.5600    3.9183   -1.9454 C   0  0  0  0  0  0  0  0  0  0  0  0
   -1.4214    3.0613   -2.1217 O   0  0  0  0  0  0  0  0  0  0  0  0
    1.9062    3.3739   -2.1384 C   0  0  0  0  0  0  0  0  0  0  0  0
   -0.2624    1.7691   -0.6585 H   0  0  0  0  0  0  0  0  0  0  0  0
    0.9477    4.3982   -0.5014 H   0  0  0  0  0  0  0  0  0  0  0  0
    1.7069    2.5493   -2.8300 H   0  0  0  0  0  0  0  0  0  0  0  0
    2.0776    4.2844   -2.7203 H   0  0  0  0  0  0  0  0  0  0  0  0
    2.8184    3.1461   -1.5775 H   0  0  0  0  0  0  0  0  0  0  0  0
   -0.7680    5.2014   -2.4160 N   0  0  0  0  0  0  0  0  0  0  0  0
   -2.0021    5.6231   -3.0676 C   0  0  0  0  0  0  0  0  0  0  0  0
   -0.0661    5.9023   -2.1948 H   0  0  0  0  0  0  0  0  0  0  0  0
   -2.2195    4.9851   -3.9311 H   0  0  0  0  0  0  0  0  0  0  0  0
   -2.8427    5.5671   -2.3677 H   0  0  0  0  0  0  0  0  0  0  0  0
   -1.9107    6.6559   -3.4180 H   0  0  0  0  0  0  0  0  0  0  0  0
  1  2  2  0  0  0  0
  1  3  1  0  0  0  0
  1  7  1  0  0  0  0
  3  4  1  0  0  0  0
  3  5  1  0  0  0  0
  3  6  1  0  0  0  0
  7  8  1  0  0  0  0
  7 13  1  0  0  0  0
  8  9  1  0  0  0  0
  8 11  1  0  0  0  0
  8 14  1  0  0  0  0
  9 10  2  0  0  0  0
  9 17  1  0  0  0  0
 11 12  1  0  0  0  0
 11 15  1  0  0  0  0
 11 16  1  0  0  0  0
 12 44  1  0  0  0  0
 17 18  1  0  0  0  0
 17 19  1  0  0  0  0
 18 20  1  0  0  0  0
 18 21  1  0  0  0  0
 18 22  1  0  0  0  0
 23 24  2  0  0  0  0
 23 25  1  0  0  0  0
 23 29  1  0  0  0  0
 25 26  1  0  0  0  0
 25 27  1  0  0  0  0
 25 28  1  0  0  0  0
 29 30  1  0  0  0  0
 29 34  1  0  0  0  0
 30 31  1  0  0  0  0
 30 33  1  0  0  0  0
 30 35  1  0  0  0  0
 31 32  2  0  0  0  0
 31 39  1  0  0  0  0
 33 36  1  0  0  0  0
 33 37  1  0  0  0  0
 33 38  1  0  0  0  0
 39 40  1  0  0  0  0
 39 45  1  0  0  0  0
 40 41  1  0  0  0  0
 40 43  1  0  0  0  0
 40 46  1  0  0  0  0
 41 42  2  0  0  0  0
 41 49  1  0  0  0  0
 43 44  1  0  0  0  0
 43 47  1  0  0  0  0
 43 48  1  0  0  0  0
 49 50  1  0  0  0  0
 49 54  1  0  0  0  0
 50 51  1  0  0  0  0
 50 53  1  0  0  0  0
 50 55  1  0  0  0  0
 51 52  2  0  0  0  0
 51 59  1  0  0  0  0
 53 56  1  0  0  0  0
 53 57  1  0  0  0  0
 53 58  1  0  0  0  0
 59 60  1  0  0  0  0
 59 61  1  0  0  0  0
 60 62  1  0  0  0  0
 60 63  1  0  0  0  0
 60 64  1  0  0  0  0
M  END
$$$$
