
  -OEChem-05262216443D

 50 50  0     1  0  0  0  0  0999 V2000
   -1.9080    0.2773    4.6134 C   0  0  0  0  0  0  0  0  0  0  0  0
   -1.9437   -0.7916    4.0155 O   0  0  0  0  0  0  0  0  0  0  0  0
   -1.9354    0.2949    6.1295 C   0  0  0  0  0  0  0  0  0  0  0  0
   -2.1012   -0.7136    6.5182 H   0  0  0  0  0  0  0  0  0  0  0  0
   -0.9856    0.6719    6.5168 H   0  0  0  0  0  0  0  0  0  0  0  0
   -2.7444    0.9410    6.4794 H   0  0  0  0  0  0  0  0  0  0  0  0
   -1.8179    1.4693    3.9234 N   0  0  0  0  0  0  0  0  0  0  0  0
   -1.7141    1.5746    2.4595 C   0  0  2  0  0  0  0  0  0  0  0  0
   -0.3004    1.2819    1.8955 C   0  0  0  0  0  0  0  0  0  0  0  0
    0.6229    0.9457    2.6315 O   0  0  0  0  0  0  0  0  0  0  0  0
   -2.1756    2.9854    2.0784 C   0  0  0  0  0  0  0  0  0  0  0  0
   -1.6674    2.3075    4.4787 H   0  0  0  0  0  0  0  0  0  0  0  0
   -2.4023    0.8561    2.0017 H   0  0  0  0  0  0  0  0  0  0  0  0
   -1.4914    3.7375    2.4847 H   0  0  0  0  0  0  0  0  0  0  0  0
   -2.2113    3.1019    0.9906 H   0  0  0  0  0  0  0  0  0  0  0  0
   -3.1791    3.1767    2.4723 H   0  0  0  0  0  0  0  0  0  0  0  0
   -0.0426    1.4036    0.5397 N   0  0  0  0  0  0  0  0  0  0  0  0
    1.0298    0.7236   -0.2174 C   0  0  2  0  0  0  0  0  0  0  0  0
    0.9332    1.1746   -1.6986 C   0  0  0  0  0  0  0  0  0  0  0  0
   -0.0560    1.7968   -2.0725 O   0  0  0  0  0  0  0  0  0  0  0  0
    0.8087   -0.8202   -0.2757 C   0  0  0  0  0  0  0  0  0  0  0  0
    0.8590   -1.5163    1.0576 C   0  0  0  0  0  0  0  0  0  0  0  0
    1.9721   -1.8145    1.8447 N   0  3  0  0  0  0  0  0  0  0  0  0
   -0.2484   -1.9774    1.7199 C   0  0  0  0  0  0  0  0  0  0  0  0
    1.5832   -2.3255    2.9889 C   0  0  0  0  0  0  0  0  0  0  0  0
    0.1990   -2.4648    2.9353 N   0  0  0  0  0  0  0  0  0  0  0  0
   -0.7928    1.7954   -0.0337 H   0  0  0  0  0  0  0  0  0  0  0  0
    2.0130    0.9780    0.1906 H   0  0  0  0  0  0  0  0  0  0  0  0
    1.5615   -1.2867   -0.9186 H   0  0  0  0  0  0  0  0  0  0  0  0
   -0.1644   -1.0148   -0.7426 H   0  0  0  0  0  0  0  0  0  0  0  0
    2.9134   -1.4872    1.6209 H   0  0  0  0  0  0  0  0  0  0  0  0
   -1.2867   -1.8905    1.4023 H   0  0  0  0  0  0  0  0  0  0  0  0
    2.2186   -2.5562    3.8440 H   0  0  0  0  0  0  0  0  0  0  0  0
   -0.4183   -2.6511    3.7333 H   0  0  0  0  0  0  0  0  0  0  0  0
    1.8195    0.6985   -2.6499 N   0  0  0  0  0  0  0  0  0  0  0  0
    1.4208    0.5429   -4.0575 C   0  0  2  0  0  0  0  0  0  0  0  0
    0.6436   -0.7750   -4.2764 C   0  0  0  0  0  0  0  0  0  0  0  0
    0.7228   -1.6754   -3.4440 O   0  0  0  0  0  0  0  0  0  0  0  0
    2.6888    0.5716   -4.9147 C   0  0  0  0  0  0  0  0  0  0  0  0
    2.5107    0.0360   -2.3121 H   0  0  0  0  0  0  0  0  0  0  0  0
    0.7790    1.3758   -4.3658 H   0  0  0  0  0  0  0  0  0  0  0  0
    3.3492   -0.2626   -4.6565 H   0  0  0  0  0  0  0  0  0  0  0  0
    2.4346    0.4950   -5.9766 H   0  0  0  0  0  0  0  0  0  0  0  0
    3.2321    1.5089   -4.7584 H   0  0  0  0  0  0  0  0  0  0  0  0
   -0.1451   -0.9530   -5.3970 N   0  0  0  0  0  0  0  0  0  0  0  0
   -0.9322   -2.1572   -5.6392 C   0  0  0  0  0  0  0  0  0  0  0  0
   -0.2336   -0.1724   -6.0426 H   0  0  0  0  0  0  0  0  0  0  0  0
   -0.2872   -3.0422   -5.6521 H   0  0  0  0  0  0  0  0  0  0  0  0
   -1.6894   -2.2847   -4.8584 H   0  0  0  0  0  0  0  0  0  0  0  0
   -1.4409   -2.0894   -6.6058 H   0  0  0  0  0  0  0  0  0  0  0  0
  1  2  2  0  0  0  0
  1  3  1  0  0  0  0
  1  7  1  0  0  0  0
  3  4  1  0  0  0  0
  3  5  1  0  0  0  0
  3  6  1  0  0  0  0
  7  8  1  0  0  0  0
  7 12  1  0  0  0  0
  8  9  1  0  0  0  0
  8 11  1  0  0  0  0
  8 13  1  0  0  0  0
  9 10  2  0  0  0  0
  9 17  1  0  0  0  0
 11 14  1  0  0  0  0
 11 15  1  0  0  0  0
 11 16  1  0  0  0  0
 17 18  1  0  0  0  0
 17 27  1  0  0  0  0
 18 19  1  0  0  0  0
 18 21  1  0  0  0  0
 18 28  1  0  0  0  0
 19 20  2  0  0  0  0
 19 35  1  0  0  0  0
 21 22  1  0  0  0  0
 21 29  1  0  0  0  0
 21 30  1  0  0  0  0
 22 23  1  0  0  0  0
 22 24  2  0  0  0  0
 23 25  2  0  0  0  0
 23 31  1  0  0  0  0
 24 26  1  0  0  0  0
 24 32  1  0  0  0  0
 25 26  1  0  0  0  0
 25 33  1  0  0  0  0
 26 34  1  0  0  0  0
 35 36  1  0  0  0  0
 35 40  1  0  0  0  0
 36 37  1  0  0  0  0
 36 39  1  0  0  0  0
 36 41  1  0  0  0  0
 37 38  2  0  0  0  0
 37 45  1  0  0  0  0
 39 42  1  0  0  0  0
 39 43  1  0  0  0  0
 39 44  1  0  0  0  0
 45 46  1  0  0  0  0
 45 47  1  0  0  0  0
 46 48  1  0  0  0  0
 46 49  1  0  0  0  0
 46 50  1  0  0  0  0
M  CHG  1  23   1
M  END
$$$$

  -OEChem-05262216443D

 50 50  0     1  0  0  0  0  0999 V2000
   -1.9795    0.3462    4.5434 C   0  0  0  0  0  0  0  0  0  0  0  0
   -2.0230   -0.7308    3.9605 O   0  0  0  0  0  0  0  0  0  0  0  0
   -2.0511    0.3865    6.0578 C   0  0  0  0  0  0  0  0  0  0  0  0
   -2.2565   -0.6113    6.4551 H   0  0  0  0  0  0  0  0  0  0  0  0
   -1.1024    0.7421    6.4676 H   0  0  0  0  0  0  0  0  0  0  0  0
   -2.8510    1.0599    6.3763 H   0  0  0  0  0  0  0  0  0  0  0  0
   -1.8345    1.5243    3.8390 N   0  0  0  0  0  0  0  0  0  0  0  0
   -1.6756    1.6025    2.3784 C   0  0  2  0  0  0  0  0  0  0  0  0
   -0.2518    1.2596    1.8705 C   0  0  0  0  0  0  0  0  0  0  0  0
    0.6349    0.9121    2.6453 O   0  0  0  0  0  0  0  0  0  0  0  0
   -2.0801    3.0200    1.9605 C   0  0  0  0  0  0  0  0  0  0  0  0
   -1.6785    2.3670    4.3861 H   0  0  0  0  0  0  0  0  0  0  0  0
   -2.3684    0.8971    1.9066 H   0  0  0  0  0  0  0  0  0  0  0  0
   -1.3814    3.7563    2.3708 H   0  0  0  0  0  0  0  0  0  0  0  0
   -2.0844    3.1166    0.8704 H   0  0  0  0  0  0  0  0  0  0  0  0
   -3.0858    3.2520    2.3253 H   0  0  0  0  0  0  0  0  0  0  0  0
    0.0581    1.3538    0.5234 N   0  0  0  0  0  0  0  0  0  0  0  0
    1.1372    0.6411   -0.1947 C   0  0  2  0  0  0  0  0  0  0  0  0
    1.0919    1.0838   -1.6859 C   0  0  0  0  0  0  0  0  0  0  0  0
    0.2651    1.9205   -2.0336 O   0  0  0  0  0  0  0  0  0  0  0  0
    0.8751   -0.8996   -0.2201 C   0  0  0  0  0  0  0  0  0  0  0  0
    0.8750   -1.5680    1.1277 C   0  0  0  0  0  0  0  0  0  0  0  0
    1.9600   -1.8796    1.9478 N   0  3  0  0  0  0  0  0  0  0  0  0
   -0.2602   -1.9905    1.7681 C   0  0  0  0  0  0  0  0  0  0  0  0
    1.5293   -2.3585    3.0910 C   0  0  0  0  0  0  0  0  0  0  0  0
    0.1439   -2.4665    3.0028 N   0  0  0  0  0  0  0  0  0  0  0  0
   -0.6416    1.7961   -0.0761 H   0  0  0  0  0  0  0  0  0  0  0  0
    2.1148    0.8777    0.2366 H   0  0  0  0  0  0  0  0  0  0  0  0
    1.6271   -1.4077   -0.8308 H   0  0  0  0  0  0  0  0  0  0  0  0
   -0.0941   -1.0759   -0.7022 H   0  0  0  0  0  0  0  0  0  0  0  0
    2.9140   -1.5774    1.7435 H   0  0  0  0  0  0  0  0  0  0  0  0
   -1.2876   -1.8849    1.4214 H   0  0  0  0  0  0  0  0  0  0  0  0
    2.1366   -2.5869    3.9672 H   0  0  0  0  0  0  0  0  0  0  0  0
   -0.4985   -2.6311    3.7853 H   0  0  0  0  0  0  0  0  0  0  0  0
    1.7655    0.3838   -2.6738 N   0  0  0  0  0  0  0  0  0  0  0  0
    1.2477    0.2843   -4.0476 C   0  0  2  0  0  0  0  0  0  0  0  0
    0.2469   -0.8855   -4.1794 C   0  0  0  0  0  0  0  0  0  0  0  0
    0.2174   -1.7612   -3.3181 O   0  0  0  0  0  0  0  0  0  0  0  0
    2.4422    0.0839   -4.9831 C   0  0  0  0  0  0  0  0  0  0  0  0
    2.2989   -0.4180   -2.3532 H   0  0  0  0  0  0  0  0  0  0  0  0
    0.7352    1.2084   -4.3370 H   0  0  0  0  0  0  0  0  0  0  0  0
    2.9705   -0.8439   -4.7408 H   0  0  0  0  0  0  0  0  0  0  0  0
    2.1095    0.0310   -6.0244 H   0  0  0  0  0  0  0  0  0  0  0  0
    3.1424    0.9199   -4.8882 H   0  0  0  0  0  0  0  0  0  0  0  0
   -0.6123   -0.9645   -5.2583 N   0  0  0  0  0  0  0  0  0  0  0  0
   -1.5733   -2.0467   -5.4414 C   0  0  0  0  0  0  0  0  0  0  0  0
   -0.5815   -0.2159   -5.9453 H   0  0  0  0  0  0  0  0  0  0  0  0
   -1.0562   -3.0084   -5.5281 H   0  0  0  0  0  0  0  0  0  0  0  0
   -2.2655   -2.0945   -4.5940 H   0  0  0  0  0  0  0  0  0  0  0  0
   -2.1568   -1.8857   -6.3535 H   0  0  0  0  0  0  0  0  0  0  0  0
  1  2  2  0  0  0  0
  1  3  1  0  0  0  0
  1  7  1  0  0  0  0
  3  4  1  0  0  0  0
  3  5  1  0  0  0  0
  3  6  1  0  0  0  0
  7  8  1  0  0  0  0
  7 12  1  0  0  0  0
  8  9  1  0  0  0  0
  8 11  1  0  0  0  0
  8 13  1  0  0  0  0
  9 10  2  0  0  0  0
  9 17  1  0  0  0  0
 11 14  1  0  0  0  0
 11 15  1  0  0  0  0
 11 16  1  0  0  0  0
 17 18  1  0  0  0  0
 17 27  1  0  0  0  0
 18 19  1  0  0  0  0
 18 21  1  0  0  0  0
 18 28  1  0  0  0  0
 19 20  2  0  0  0  0
 19 35  1  0  0  0  0
 21 22  1  0  0  0  0
 21 29  1  0  0  0  0
 21 30  1  0  0  0  0
 22 23  1  0  0  0  0
 22 24  2  0  0  0  0
 23 25  2  0  0  0  0
 23 31  1  0  0  0  0
 24 26  1  0  0  0  0
 24 32  1  0  0  0  0
 25 26  1  0  0  0  0
 25 33  1  0  0  0  0
 26 34  1  0  0  0  0
 35 36  1  0  0  0  0
 35 40  1  0  0  0  0
 36 37  1  0  0  0  0
 36 39  1  0  0  0  0
 36 41  1  0  0  0  0
 37 38  2  0  0  0  0
 37 45  1  0  0  0  0
 39 42  1  0  0  0  0
 39 43  1  0  0  0  0
 39 44  1  0  0  0  0
 45 46  1  0  0  0  0
 45 47  1  0  0  0  0
 46 48  1  0  0  0  0
 46 49  1  0  0  0  0
 46 50  1  0  0  0  0
M  CHG  1  23   1
M  END
$$$$

  -OEChem-05262216443D

 50 50  0     1  0  0  0  0  0999 V2000
   -2.0360    0.4261    4.4595 C   0  0  0  0  0  0  0  0  0  0  0  0
   -2.0670   -0.6698    3.9126 O   0  0  0  0  0  0  0  0  0  0  0  0
   -2.1230    0.5155    5.9708 C   0  0  0  0  0  0  0  0  0  0  0  0
   -2.3068   -0.4735    6.3998 H   0  0  0  0  0  0  0  0  0  0  0  0
   -1.1871    0.9087    6.3754 H   0  0  0  0  0  0  0  0  0  0  0  0
   -2.9422    1.1789    6.2593 H   0  0  0  0  0  0  0  0  0  0  0  0
   -1.8787    1.5802    3.7187 N   0  0  0  0  0  0  0  0  0  0  0  0
   -1.6700    1.6046    2.2625 C   0  0  2  0  0  0  0  0  0  0  0  0
   -0.2374    1.2164    1.8170 C   0  0  0  0  0  0  0  0  0  0  0  0
    0.6193    0.8982    2.6367 O   0  0  0  0  0  0  0  0  0  0  0  0
   -2.0288    3.0146    1.7817 C   0  0  0  0  0  0  0  0  0  0  0  0
   -1.7226    2.4386    4.2408 H   0  0  0  0  0  0  0  0  0  0  0  0
   -2.3605    0.8964    1.7920 H   0  0  0  0  0  0  0  0  0  0  0  0
   -1.3387    3.7524    2.2039 H   0  0  0  0  0  0  0  0  0  0  0  0
   -1.9777    3.0776    0.6901 H   0  0  0  0  0  0  0  0  0  0  0  0
   -3.0473    3.2734    2.0889 H   0  0  0  0  0  0  0  0  0  0  0  0
    0.1193    1.2510    0.4788 N   0  0  0  0  0  0  0  0  0  0  0  0
    1.2186    0.5069   -0.1749 C   0  0  2  0  0  0  0  0  0  0  0  0
    1.2089    0.9002   -1.6843 C   0  0  0  0  0  0  0  0  0  0  0  0
    0.6064    1.9127   -2.0236 O   0  0  0  0  0  0  0  0  0  0  0  0
    0.9699   -1.0359   -0.1234 C   0  0  0  0  0  0  0  0  0  0  0  0
    0.9426   -1.6352    1.2566 C   0  0  0  0  0  0  0  0  0  0  0  0
    2.0078   -1.8959    2.1201 N   0  3  0  0  0  0  0  0  0  0  0  0
   -0.2055   -2.0424    1.8848 C   0  0  0  0  0  0  0  0  0  0  0  0
    1.5495   -2.3259    3.2723 C   0  0  0  0  0  0  0  0  0  0  0  0
    0.1685   -2.4559    3.1513 N   0  0  0  0  0  0  0  0  0  0  0  0
   -0.5385    1.7057   -0.1570 H   0  0  0  0  0  0  0  0  0  0  0  0
    2.1838    0.7709    0.2690 H   0  0  0  0  0  0  0  0  0  0  0  0
    1.7481   -1.5638   -0.6808 H   0  0  0  0  0  0  0  0  0  0  0  0
    0.0147   -1.2488   -0.6183 H   0  0  0  0  0  0  0  0  0  0  0  0
    2.9623   -1.5834    1.9326 H   0  0  0  0  0  0  0  0  0  0  0  0
   -1.2241   -1.9668    1.5049 H   0  0  0  0  0  0  0  0  0  0  0  0
    2.1336   -2.5040    4.1752 H   0  0  0  0  0  0  0  0  0  0  0  0
   -0.4937   -2.5986    3.9213 H   0  0  0  0  0  0  0  0  0  0  0  0
    1.6307    0.0392   -2.6863 N   0  0  0  0  0  0  0  0  0  0  0  0
    1.0366    0.0551   -4.0327 C   0  0  2  0  0  0  0  0  0  0  0  0
   -0.1919   -0.8794   -4.0995 C   0  0  0  0  0  0  0  0  0  0  0  0
   -0.3620   -1.7217   -3.2212 O   0  0  0  0  0  0  0  0  0  0  0  0
    2.1127   -0.3899   -5.0258 C   0  0  0  0  0  0  0  0  0  0  0  0
    1.9486   -0.8719   -2.3728 H   0  0  0  0  0  0  0  0  0  0  0  0
    0.7152    1.0660   -4.3064 H   0  0  0  0  0  0  0  0  0  0  0  0
    2.4386   -1.4123   -4.8091 H   0  0  0  0  0  0  0  0  0  0  0  0
    1.7260   -0.3590   -6.0493 H   0  0  0  0  0  0  0  0  0  0  0  0
    2.9811    0.2741   -4.9666 H   0  0  0  0  0  0  0  0  0  0  0  0
   -1.1001   -0.7856   -5.1364 N   0  0  0  0  0  0  0  0  0  0  0  0
   -2.2712   -1.6469   -5.2569 C   0  0  0  0  0  0  0  0  0  0  0  0
   -0.9472   -0.0656   -5.8377 H   0  0  0  0  0  0  0  0  0  0  0  0
   -1.9690   -2.6969   -5.3339 H   0  0  0  0  0  0  0  0  0  0  0  0
   -2.9248   -1.5311   -4.3858 H   0  0  0  0  0  0  0  0  0  0  0  0
   -2.8429   -1.3865   -6.1531 H   0  0  0  0  0  0  0  0  0  0  0  0
  1  2  2  0  0  0  0
  1  3  1  0  0  0  0
  1  7  1  0  0  0  0
  3  4  1  0  0  0  0
  3  5  1  0  0  0  0
  3  6  1  0  0  0  0
  7  8  1  0  0  0  0
  7 12  1  0  0  0  0
  8  9  1  0  0  0  0
  8 11  1  0  0  0  0
  8 13  1  0  0  0  0
  9 10  2  0  0  0  0
  9 17  1  0  0  0  0
 11 14  1  0  0  0  0
 11 15  1  0  0  0  0
 11 16  1  0  0  0  0
 17 18  1  0  0  0  0
 17 27  1  0  0  0  0
 18 19  1  0  0  0  0
 18 21  1  0  0  0  0
 18 28  1  0  0  0  0
 19 20  2  0  0  0  0
 19 35  1  0  0  0  0
 21 22  1  0  0  0  0
 21 29  1  0  0  0  0
 21 30  1  0  0  0  0
 22 23  1  0  0  0  0
 22 24  2  0  0  0  0
 23 25  2  0  0  0  0
 23 31  1  0  0  0  0
 24 26  1  0  0  0  0
 24 32  1  0  0  0  0
 25 26  1  0  0  0  0
 25 33  1  0  0  0  0
 26 34  1  0  0  0  0
 35 36  1  0  0  0  0
 35 40  1  0  0  0  0
 36 37  1  0  0  0  0
 36 39  1  0  0  0  0
 36 41  1  0  0  0  0
 37 38  2  0  0  0  0
 37 45  1  0  0  0  0
 39 42  1  0  0  0  0
 39 43  1  0  0  0  0
 39 44  1  0  0  0  0
 45 46  1  0  0  0  0
 45 47  1  0  0  0  0
 46 48  1  0  0  0  0
 46 49  1  0  0  0  0
 46 50  1  0  0  0  0
M  CHG  1  23   1
M  END
$$$$

  -OEChem-05262216443D

 50 50  0     1  0  0  0  0  0999 V2000
   -2.1210    0.4113    4.2829 C   0  0  0  0  0  0  0  0  0  0  0  0
   -2.0287   -0.7179    3.8169 O   0  0  0  0  0  0  0  0  0  0  0  0
   -2.3266    0.5953    5.7740 C   0  0  0  0  0  0  0  0  0  0  0  0
   -2.4191   -0.3761    6.2673 H   0  0  0  0  0  0  0  0  0  0  0  0
   -1.4773    1.1310    6.2051 H   0  0  0  0  0  0  0  0  0  0  0  0
   -3.2396    1.1679    5.9563 H   0  0  0  0  0  0  0  0  0  0  0  0
   -2.0092    1.5220    3.4711 N   0  0  0  0  0  0  0  0  0  0  0  0
   -1.7287    1.4678    2.0277 C   0  0  2  0  0  0  0  0  0  0  0  0
   -0.2545    1.1471    1.6724 C   0  0  0  0  0  0  0  0  0  0  0  0
    0.5822    0.9458    2.5478 O   0  0  0  0  0  0  0  0  0  0  0  0
   -2.1508    2.8184    1.4392 C   0  0  0  0  0  0  0  0  0  0  0  0
   -1.9712    2.4255    3.9355 H   0  0  0  0  0  0  0  0  0  0  0  0
   -2.3503    0.6880    1.5747 H   0  0  0  0  0  0  0  0  0  0  0  0
   -1.5217    3.6235    1.8333 H   0  0  0  0  0  0  0  0  0  0  0  0
   -2.0611    2.8115    0.3484 H   0  0  0  0  0  0  0  0  0  0  0  0
   -3.1939    3.0347    1.6919 H   0  0  0  0  0  0  0  0  0  0  0  0
    0.1571    1.1095    0.3502 N   0  0  0  0  0  0  0  0  0  0  0  0
    1.3188    0.3826   -0.2074 C   0  0  2  0  0  0  0  0  0  0  0  0
    1.3397    0.6806   -1.7370 C   0  0  0  0  0  0  0  0  0  0  0  0
    0.9469    1.7755   -2.1216 O   0  0  0  0  0  0  0  0  0  0  0  0
    1.1851   -1.1639   -0.0375 C   0  0  0  0  0  0  0  0  0  0  0  0
    1.1615   -1.6489    1.3862 C   0  0  0  0  0  0  0  0  0  0  0  0
    2.2175   -1.7548    2.2926 N   0  3  0  0  0  0  0  0  0  0  0  0
    0.0290   -2.0906    2.0190 C   0  0  0  0  0  0  0  0  0  0  0  0
    1.7581   -2.1210    3.4663 C   0  0  0  0  0  0  0  0  0  0  0  0
    0.3954   -2.3694    3.3238 N   0  0  0  0  0  0  0  0  0  0  0  0
   -0.5018    1.4767   -0.3376 H   0  0  0  0  0  0  0  0  0  0  0  0
    2.2482    0.7448    0.2435 H   0  0  0  0  0  0  0  0  0  0  0  0
    2.0211   -1.6664   -0.5332 H   0  0  0  0  0  0  0  0  0  0  0  0
    0.2616   -1.4898   -0.5317 H   0  0  0  0  0  0  0  0  0  0  0  0
    3.1490   -1.3800    2.1034 H   0  0  0  0  0  0  0  0  0  0  0  0
   -0.9818   -2.1208    1.6118 H   0  0  0  0  0  0  0  0  0  0  0  0
    2.3258   -2.1744    4.3953 H   0  0  0  0  0  0  0  0  0  0  0  0
   -0.2767   -2.5000    4.0869 H   0  0  0  0  0  0  0  0  0  0  0  0
    1.5465   -0.2980   -2.6991 N   0  0  0  0  0  0  0  0  0  0  0  0
    0.8655   -0.2233   -4.0016 C   0  0  2  0  0  0  0  0  0  0  0  0
   -0.6187   -0.6367   -3.8723 C   0  0  0  0  0  0  0  0  0  0  0  0
   -0.9857   -1.2927   -2.8998 O   0  0  0  0  0  0  0  0  0  0  0  0
    1.6019   -1.1491   -4.9730 C   0  0  0  0  0  0  0  0  0  0  0  0
    1.6705   -1.2371   -2.3372 H   0  0  0  0  0  0  0  0  0  0  0  0
    0.9085    0.7974   -4.3980 H   0  0  0  0  0  0  0  0  0  0  0  0
    1.5634   -2.1859   -4.6234 H   0  0  0  0  0  0  0  0  0  0  0  0
    1.1452   -1.1025   -5.9667 H   0  0  0  0  0  0  0  0  0  0  0  0
    2.6508   -0.8489   -5.0627 H   0  0  0  0  0  0  0  0  0  0  0  0
   -1.5414   -0.2760   -4.8351 N   0  0  0  0  0  0  0  0  0  0  0  0
   -2.9592   -0.6079   -4.7490 C   0  0  0  0  0  0  0  0  0  0  0  0
   -1.2213    0.3092   -5.6024 H   0  0  0  0  0  0  0  0  0  0  0  0
   -3.0972   -1.6924   -4.6828 H   0  0  0  0  0  0  0  0  0  0  0  0
   -3.4093   -0.1414   -3.8664 H   0  0  0  0  0  0  0  0  0  0  0  0
   -3.4879   -0.2483   -5.6373 H   0  0  0  0  0  0  0  0  0  0  0  0
  1  2  2  0  0  0  0
  1  3  1  0  0  0  0
  1  7  1  0  0  0  0
  3  4  1  0  0  0  0
  3  5  1  0  0  0  0
  3  6  1  0  0  0  0
  7  8  1  0  0  0  0
  7 12  1  0  0  0  0
  8  9  1  0  0  0  0
  8 11  1  0  0  0  0
  8 13  1  0  0  0  0
  9 10  2  0  0  0  0
  9 17  1  0  0  0  0
 11 14  1  0  0  0  0
 11 15  1  0  0  0  0
 11 16  1  0  0  0  0
 17 18  1  0  0  0  0
 17 27  1  0  0  0  0
 18 19  1  0  0  0  0
 18 21  1  0  0  0  0
 18 28  1  0  0  0  0
 19 20  2  0  0  0  0
 19 35  1  0  0  0  0
 21 22  1  0  0  0  0
 21 29  1  0  0  0  0
 21 30  1  0  0  0  0
 22 23  1  0  0  0  0
 22 24  2  0  0  0  0
 23 25  2  0  0  0  0
 23 31  1  0  0  0  0
 24 26  1  0  0  0  0
 24 32  1  0  0  0  0
 25 26  1  0  0  0  0
 25 33  1  0  0  0  0
 26 34  1  0  0  0  0
 35 36  1  0  0  0  0
 35 40  1  0  0  0  0
 36 37  1  0  0  0  0
 36 39  1  0  0  0  0
 36 41  1  0  0  0  0
 37 38  2  0  0  0  0
 37 45  1  0  0  0  0
 39 42  1  0  0  0  0
 39 43  1  0  0  0  0
 39 44  1  0  0  0  0
 45 46  1  0  0  0  0
 45 47  1  0  0  0  0
 46 48  1  0  0  0  0
 46 49  1  0  0  0  0
 46 50  1  0  0  0  0
M  CHG  1  23   1
M  END
$$$$

  -OEChem-05262216443D

 50 50  0     1  0  0  0  0  0999 V2000
   -2.1489    0.4968    4.1764 C   0  0  0  0  0  0  0  0  0  0  0  0
   -2.0375   -0.6632    3.7975 O   0  0  0  0  0  0  0  0  0  0  0  0
   -2.3788    0.7898    5.6465 C   0  0  0  0  0  0  0  0  0  0  0  0
   -2.4402   -0.1424    6.2146 H   0  0  0  0  0  0  0  0  0  0  0  0
   -1.5552    1.3898    6.0415 H   0  0  0  0  0  0  0  0  0  0  0  0
   -3.3146    1.3400    5.7748 H   0  0  0  0  0  0  0  0  0  0  0  0
   -2.0361    1.5456    3.2864 N   0  0  0  0  0  0  0  0  0  0  0  0
   -1.7236    1.3900    1.8568 C   0  0  2  0  0  0  0  0  0  0  0  0
   -0.2308    1.1006    1.5567 C   0  0  0  0  0  0  0  0  0  0  0  0
    0.5847    0.9567    2.4631 O   0  0  0  0  0  0  0  0  0  0  0  0
   -2.1848    2.6723    1.1549 C   0  0  0  0  0  0  0  0  0  0  0  0
   -2.0088    2.4802    3.6854 H   0  0  0  0  0  0  0  0  0  0  0  0
   -2.3044    0.5531    1.4539 H   0  0  0  0  0  0  0  0  0  0  0  0
   -1.5932    3.5298    1.4921 H   0  0  0  0  0  0  0  0  0  0  0  0
   -2.0749    2.5818    0.0697 H   0  0  0  0  0  0  0  0  0  0  0  0
   -3.2396    2.8680    1.3737 H   0  0  0  0  0  0  0  0  0  0  0  0
    0.2201    1.0180    0.2498 N   0  0  0  0  0  0  0  0  0  0  0  0
    1.3959    0.2639   -0.2370 C   0  0  2  0  0  0  0  0  0  0  0  0
    1.4661    0.5108   -1.7711 C   0  0  0  0  0  0  0  0  0  0  0  0
    1.3347    1.6577   -2.1772 O   0  0  0  0  0  0  0  0  0  0  0  0
    1.2619   -1.2731   -0.0053 C   0  0  0  0  0  0  0  0  0  0  0  0
    1.1970   -1.6950    1.4371 C   0  0  0  0  0  0  0  0  0  0  0  0
    2.2256   -1.7563    2.3782 N   0  3  0  0  0  0  0  0  0  0  0  0
    0.0448   -2.1026    2.0575 C   0  0  0  0  0  0  0  0  0  0  0  0
    1.7306   -2.0619    3.5547 C   0  0  0  0  0  0  0  0  0  0  0  0
    0.3718   -2.3155    3.3849 N   0  0  0  0  0  0  0  0  0  0  0  0
   -0.4566    1.2823   -0.4669 H   0  0  0  0  0  0  0  0  0  0  0  0
    2.3107    0.6449    0.2283 H   0  0  0  0  0  0  0  0  0  0  0  0
    2.1108   -1.7898   -0.4656 H   0  0  0  0  0  0  0  0  0  0  0  0
    0.3478   -1.6207   -0.5016 H   0  0  0  0  0  0  0  0  0  0  0  0
    3.1627   -1.3906    2.1985 H   0  0  0  0  0  0  0  0  0  0  0  0
   -0.9545   -2.1479    1.6244 H   0  0  0  0  0  0  0  0  0  0  0  0
    2.2699   -2.0673    4.5021 H   0  0  0  0  0  0  0  0  0  0  0  0
   -0.3243   -2.3939    4.1343 H   0  0  0  0  0  0  0  0  0  0  0  0
    1.3922   -0.5123   -2.7060 N   0  0  0  0  0  0  0  0  0  0  0  0
    0.5892   -0.3203   -3.9241 C   0  0  2  0  0  0  0  0  0  0  0  0
   -0.9245   -0.3638   -3.6022 C   0  0  0  0  0  0  0  0  0  0  0  0
   -1.3094   -0.7829   -2.5114 O   0  0  0  0  0  0  0  0  0  0  0  0
    0.9671   -1.4229   -4.9162 C   0  0  0  0  0  0  0  0  0  0  0  0
    1.3378   -1.4438   -2.3093 H   0  0  0  0  0  0  0  0  0  0  0  0
    0.8172    0.6486   -4.3827 H   0  0  0  0  0  0  0  0  0  0  0  0
    0.7319   -2.4101   -4.5053 H   0  0  0  0  0  0  0  0  0  0  0  0
    0.4183   -1.2988   -5.8552 H   0  0  0  0  0  0  0  0  0  0  0  0
    2.0385   -1.3822   -5.1378 H   0  0  0  0  0  0  0  0  0  0  0  0
   -1.8561    0.0679   -4.5262 N   0  0  0  0  0  0  0  0  0  0  0  0
   -3.2938    0.0628   -4.2792 C   0  0  0  0  0  0  0  0  0  0  0  0
   -1.5112    0.4583   -5.3994 H   0  0  0  0  0  0  0  0  0  0  0  0
   -3.6405   -0.9502   -4.0479 H   0  0  0  0  0  0  0  0  0  0  0  0
   -3.5412    0.7202   -3.4390 H   0  0  0  0  0  0  0  0  0  0  0  0
   -3.8321    0.4160   -5.1644 H   0  0  0  0  0  0  0  0  0  0  0  0
  1  2  2  0  0  0  0
  1  3  1  0  0  0  0
  1  7  1  0  0  0  0
  3  4  1  0  0  0  0
  3  5  1  0  0  0  0
  3  6  1  0  0  0  0
  7  8  1  0  0  0  0
  7 12  1  0  0  0  0
  8  9  1  0  0  0  0
  8 11  1  0  0  0  0
  8 13  1  0  0  0  0
  9 10  2  0  0  0  0
  9 17  1  0  0  0  0
 11 14  1  0  0  0  0
 11 15  1  0  0  0  0
 11 16  1  0  0  0  0
 17 18  1  0  0  0  0
 17 27  1  0  0  0  0
 18 19  1  0  0  0  0
 18 21  1  0  0  0  0
 18 28  1  0  0  0  0
 19 20  2  0  0  0  0
 19 35  1  0  0  0  0
 21 22  1  0  0  0  0
 21 29  1  0  0  0  0
 21 30  1  0  0  0  0
 22 23  1  0  0  0  0
 22 24  2  0  0  0  0
 23 25  2  0  0  0  0
 23 31  1  0  0  0  0
 24 26  1  0  0  0  0
 24 32  1  0  0  0  0
 25 26  1  0  0  0  0
 25 33  1  0  0  0  0
 26 34  1  0  0  0  0
 35 36  1  0  0  0  0
 35 40  1  0  0  0  0
 36 37  1  0  0  0  0
 36 39  1  0  0  0  0
 36 41  1  0  0  0  0
 37 38  2  0  0  0  0
 37 45  1  0  0  0  0
 39 42  1  0  0  0  0
 39 43  1  0  0  0  0
 39 44  1  0  0  0  0
 45 46  1  0  0  0  0
 45 47  1  0  0  0  0
 46 48  1  0  0  0  0
 46 49  1  0  0  0  0
 46 50  1  0  0  0  0
M  CHG  1  23   1
M  END
$$$$

  -OEChem-05262216443D

 50 50  0     1  0  0  0  0  0999 V2000
   -2.1603    0.5512    4.0844 C   0  0  0  0  0  0  0  0  0  0  0  0
   -1.9670   -0.6358    3.8484 O   0  0  0  0  0  0  0  0  0  0  0  0
   -2.4274    1.0010    5.5079 C   0  0  0  0  0  0  0  0  0  0  0  0
   -2.5264    0.1348    6.1678 H   0  0  0  0  0  0  0  0  0  0  0  0
   -1.6037    1.6246    5.8640 H   0  0  0  0  0  0  0  0  0  0  0  0
   -3.3546    1.5782    5.5490 H   0  0  0  0  0  0  0  0  0  0  0  0
   -2.1101    1.4907    3.0743 N   0  0  0  0  0  0  0  0  0  0  0  0
   -1.7738    1.1873    1.6742 C   0  0  2  0  0  0  0  0  0  0  0  0
   -0.2568    1.0203    1.4054 C   0  0  0  0  0  0  0  0  0  0  0  0
    0.5570    1.0105    2.3247 O   0  0  0  0  0  0  0  0  0  0  0  0
   -2.3632    2.3098    0.8134 C   0  0  0  0  0  0  0  0  0  0  0  0
   -2.1413    2.4662    3.3588 H   0  0  0  0  0  0  0  0  0  0  0  0
   -2.2603    0.2498    1.3841 H   0  0  0  0  0  0  0  0  0  0  0  0
   -1.8578    3.2589    1.0202 H   0  0  0  0  0  0  0  0  0  0  0  0
   -2.2503    2.0811   -0.2513 H   0  0  0  0  0  0  0  0  0  0  0  0
   -3.4311    2.4290    1.0221 H   0  0  0  0  0  0  0  0  0  0  0  0
    0.2109    0.8668    0.1122 N   0  0  0  0  0  0  0  0  0  0  0  0
    1.4127    0.1125   -0.3021 C   0  0  2  0  0  0  0  0  0  0  0  0
    1.4862    0.2679   -1.8422 C   0  0  0  0  0  0  0  0  0  0  0  0
    1.6234    1.3894   -2.3094 O   0  0  0  0  0  0  0  0  0  0  0  0
    1.3512   -1.4040    0.0482 C   0  0  0  0  0  0  0  0  0  0  0  0
    1.3010   -1.6980    1.5228 C   0  0  0  0  0  0  0  0  0  0  0  0
    2.3358   -1.6224    2.4560 N   0  3  0  0  0  0  0  0  0  0  0  0
    0.1704   -2.0916    2.1903 C   0  0  0  0  0  0  0  0  0  0  0  0
    1.8600   -1.8312    3.6610 C   0  0  0  0  0  0  0  0  0  0  0  0
    0.5128   -2.1581    3.5293 N   0  0  0  0  0  0  0  0  0  0  0  0
   -0.5122    0.9431   -0.6096 H   0  0  0  0  0  0  0  0  0  0  0  0
    2.3073    0.5651    0.1383 H   0  0  0  0  0  0  0  0  0  0  0  0
    2.2209   -1.9149   -0.3795 H   0  0  0  0  0  0  0  0  0  0  0  0
    0.4518   -1.8322   -0.4080 H   0  0  0  0  0  0  0  0  0  0  0  0
    3.2535   -1.2311    2.2339 H   0  0  0  0  0  0  0  0  0  0  0  0
   -0.8295   -2.2187    1.7766 H   0  0  0  0  0  0  0  0  0  0  0  0
    2.4032   -1.7180    4.5996 H   0  0  0  0  0  0  0  0  0  0  0  0
   -0.1777   -2.1782    4.2883 H   0  0  0  0  0  0  0  0  0  0  0  0
    1.1414   -0.7586   -2.7088 N   0  0  0  0  0  0  0  0  0  0  0  0
    0.2651   -0.4285   -3.8450 C   0  0  2  0  0  0  0  0  0  0  0  0
   -1.1406    0.0284   -3.3704 C   0  0  0  0  0  0  0  0  0  0  0  0
   -1.4898   -0.1380   -2.2001 O   0  0  0  0  0  0  0  0  0  0  0  0
    0.1567   -1.6709   -4.7325 C   0  0  0  0  0  0  0  0  0  0  0  0
    0.9246   -1.6368   -2.2520 H   0  0  0  0  0  0  0  0  0  0  0  0
    0.7087    0.3823   -4.4347 H   0  0  0  0  0  0  0  0  0  0  0  0
   -0.3011   -2.4997   -4.1830 H   0  0  0  0  0  0  0  0  0  0  0  0
   -0.4567   -1.4598   -5.6142 H   0  0  0  0  0  0  0  0  0  0  0  0
    1.1496   -1.9821   -5.0728 H   0  0  0  0  0  0  0  0  0  0  0  0
   -2.0144    0.6383   -4.2495 N   0  0  0  0  0  0  0  0  0  0  0  0
   -3.3365    1.1209   -3.8661 C   0  0  0  0  0  0  0  0  0  0  0  0
   -1.6824    0.8231   -5.1928 H   0  0  0  0  0  0  0  0  0  0  0  0
   -3.9483    0.2987   -3.4796 H   0  0  0  0  0  0  0  0  0  0  0  0
   -3.2548    1.8937   -3.0946 H   0  0  0  0  0  0  0  0  0  0  0  0
   -3.8484    1.5515   -4.7325 H   0  0  0  0  0  0  0  0  0  0  0  0
  1  2  2  0  0  0  0
  1  3  1  0  0  0  0
  1  7  1  0  0  0  0
  3  4  1  0  0  0  0
  3  5  1  0  0  0  0
  3  6  1  0  0  0  0
  7  8  1  0  0  0  0
  7 12  1  0  0  0  0
  8  9  1  0  0  0  0
  8 11  1  0  0  0  0
  8 13  1  0  0  0  0
  9 10  2  0  0  0  0
  9 17  1  0  0  0  0
 11 14  1  0  0  0  0
 11 15  1  0  0  0  0
 11 16  1  0  0  0  0
 17 18  1  0  0  0  0
 17 27  1  0  0  0  0
 18 19  1  0  0  0  0
 18 21  1  0  0  0  0
 18 28  1  0  0  0  0
 19 20  2  0  0  0  0
 19 35  1  0  0  0  0
 21 22  1  0  0  0  0
 21 29  1  0  0  0  0
 21 30  1  0  0  0  0
 22 23  1  0  0  0  0
 22 24  2  0  0  0  0
 23 25  2  0  0  0  0
 23 31  1  0  0  0  0
 24 26  1  0  0  0  0
 24 32  1  0  0  0  0
 25 26  1  0  0  0  0
 25 33  1  0  0  0  0
 26 34  1  0  0  0  0
 35 36  1  0  0  0  0
 35 40  1  0  0  0  0
 36 37  1  0  0  0  0
 36 39  1  0  0  0  0
 36 41  1  0  0  0  0
 37 38  2  0  0  0  0
 37 45  1  0  0  0  0
 39 42  1  0  0  0  0
 39 43  1  0  0  0  0
 39 44  1  0  0  0  0
 45 46  1  0  0  0  0
 45 47  1  0  0  0  0
 46 48  1  0  0  0  0
 46 49  1  0  0  0  0
 46 50  1  0  0  0  0
M  CHG  1  23   1
M  END
$$$$

  -OEChem-05262216443D

 50 50  0     1  0  0  0  0  0999 V2000
   -2.1646    0.5972    4.0315 C   0  0  0  0  0  0  0  0  0  0  0  0
   -1.9975   -0.5871    3.7661 O   0  0  0  0  0  0  0  0  0  0  0  0
   -2.3972    1.0201    5.4691 C   0  0  0  0  0  0  0  0  0  0  0  0
   -2.5217    0.1414    6.1080 H   0  0  0  0  0  0  0  0  0  0  0  0
   -1.5453    1.6023    5.8292 H   0  0  0  0  0  0  0  0  0  0  0  0
   -3.3009    1.6312    5.5369 H   0  0  0  0  0  0  0  0  0  0  0  0
   -2.1067    1.5576    3.0424 N   0  0  0  0  0  0  0  0  0  0  0  0
   -1.7991    1.2754    1.6315 C   0  0  2  0  0  0  0  0  0  0  0  0
   -0.2988    1.0146    1.3458 C   0  0  0  0  0  0  0  0  0  0  0  0
    0.5370    1.0409    2.2447 O   0  0  0  0  0  0  0  0  0  0  0  0
   -2.3110    2.4668    0.8145 C   0  0  0  0  0  0  0  0  0  0  0  0
   -2.1147    2.5275    3.3470 H   0  0  0  0  0  0  0  0  0  0  0  0
   -2.3521    0.3841    1.3156 H   0  0  0  0  0  0  0  0  0  0  0  0
   -1.7525    3.3742    1.0658 H   0  0  0  0  0  0  0  0  0  0  0  0
   -2.2002    2.2779   -0.2579 H   0  0  0  0  0  0  0  0  0  0  0  0
   -3.3722    2.6408    1.0194 H   0  0  0  0  0  0  0  0  0  0  0  0
    0.1269    0.7626    0.0537 N   0  0  0  0  0  0  0  0  0  0  0  0
    1.3153   -0.0187   -0.3491 C   0  0  2  0  0  0  0  0  0  0  0  0
    1.3374    0.0177   -1.8939 C   0  0  0  0  0  0  0  0  0  0  0  0
    1.7387    1.0289   -2.4494 O   0  0  0  0  0  0  0  0  0  0  0  0
    1.3035   -1.5057    0.1099 C   0  0  0  0  0  0  0  0  0  0  0  0
    1.3273   -1.6922    1.6023 C   0  0  0  0  0  0  0  0  0  0  0  0
    2.4067   -1.5277    2.4714 N   0  3  0  0  0  0  0  0  0  0  0  0
    0.2434   -2.0615    2.3561 C   0  0  0  0  0  0  0  0  0  0  0  0
    2.0043   -1.6723    3.7119 C   0  0  0  0  0  0  0  0  0  0  0  0
    0.6604   -2.0356    3.6754 N   0  0  0  0  0  0  0  0  0  0  0  0
   -0.6129    0.8289   -0.6548 H   0  0  0  0  0  0  0  0  0  0  0  0
    2.2196    0.4761    0.0216 H   0  0  0  0  0  0  0  0  0  0  0  0
    2.1626   -2.0283   -0.3251 H   0  0  0  0  0  0  0  0  0  0  0  0
    0.3969   -1.9887   -0.2675 H   0  0  0  0  0  0  0  0  0  0  0  0
    3.3046   -1.1418    2.1717 H   0  0  0  0  0  0  0  0  0  0  0  0
   -0.7747   -2.2368    2.0087 H   0  0  0  0  0  0  0  0  0  0  0  0
    2.5984   -1.4953    4.6088 H   0  0  0  0  0  0  0  0  0  0  0  0
    0.0217   -2.0672    4.4764 H   0  0  0  0  0  0  0  0  0  0  0  0
    0.6883   -0.9446   -2.6520 N   0  0  0  0  0  0  0  0  0  0  0  0
   -0.1112   -0.4963   -3.8031 C   0  0  2  0  0  0  0  0  0  0  0  0
   -1.3763    0.2714   -3.3406 C   0  0  0  0  0  0  0  0  0  0  0  0
   -1.7389    0.2160   -2.1641 O   0  0  0  0  0  0  0  0  0  0  0  0
   -0.4959   -1.7310   -4.6220 C   0  0  0  0  0  0  0  0  0  0  0  0
    0.2515   -1.6767   -2.1030 H   0  0  0  0  0  0  0  0  0  0  0  0
    0.4835    0.1695   -4.4392 H   0  0  0  0  0  0  0  0  0  0  0  0
   -1.1099   -2.4145   -4.0265 H   0  0  0  0  0  0  0  0  0  0  0  0
   -1.0651   -1.4398   -5.5107 H   0  0  0  0  0  0  0  0  0  0  0  0
    0.4031   -2.2630   -4.9500 H   0  0  0  0  0  0  0  0  0  0  0  0
   -2.0993    1.0410   -4.2306 N   0  0  0  0  0  0  0  0  0  0  0  0
   -3.2618    1.8344   -3.8467 C   0  0  0  0  0  0  0  0  0  0  0  0
   -1.7409    1.1277   -5.1784 H   0  0  0  0  0  0  0  0  0  0  0  0
   -4.0388    1.1943   -3.4154 H   0  0  0  0  0  0  0  0  0  0  0  0
   -2.9811    2.5944   -3.1099 H   0  0  0  0  0  0  0  0  0  0  0  0
   -3.6808    2.3404   -4.7221 H   0  0  0  0  0  0  0  0  0  0  0  0
  1  2  2  0  0  0  0
  1  3  1  0  0  0  0
  1  7  1  0  0  0  0
  3  4  1  0  0  0  0
  3  5  1  0  0  0  0
  3  6  1  0  0  0  0
  7  8  1  0  0  0  0
  7 12  1  0  0  0  0
  8  9  1  0  0  0  0
  8 11  1  0  0  0  0
  8 13  1  0  0  0  0
  9 10  2  0  0  0  0
  9 17  1  0  0  0  0
 11 14  1  0  0  0  0
 11 15  1  0  0  0  0
 11 16  1  0  0  0  0
 17 18  1  0  0  0  0
 17 27  1  0  0  0  0
 18 19  1  0  0  0  0
 18 21  1  0  0  0  0
 18 28  1  0  0  0  0
 19 20  2  0  0  0  0
 19 35  1  0  0  0  0
 21 22  1  0  0  0  0
 21 29  1  0  0  0  0
 21 30  1  0  0  0  0
 22 23  1  0  0  0  0
 22 24  2  0  0  0  0
 23 25  2  0  0  0  0
 23 31  1  0  0  0  0
 24 26  1  0  0  0  0
 24 32  1  0  0  0  0
 25 26  1  0  0  0  0
 25 33  1  0  0  0  0
 26 34  1  0  0  0  0
 35 36  1  0  0  0  0
 35 40  1  0  0  0  0
 36 37  1  0  0  0  0
 36 39  1  0  0  0  0
 36 41  1  0  0  0  0
 37 38  2  0  0  0  0
 37 45  1  0  0  0  0
 39 42  1  0  0  0  0
 39 43  1  0  0  0  0
 39 44  1  0  0  0  0
 45 46  1  0  0  0  0
 45 47  1  0  0  0  0
 46 48  1  0  0  0  0
 46 49  1  0  0  0  0
 46 50  1  0  0  0  0
M  CHG  1  23   1
M  END
$$$$

  -OEChem-05262216443D

 50 50  0     1  0  0  0  0  0999 V2000
   -2.1698    0.6597    3.9866 C   0  0  0  0  0  0  0  0  0  0  0  0
   -2.0337   -0.5132    3.6616 O   0  0  0  0  0  0  0  0  0  0  0  0
   -2.4357    1.0145    5.4369 C   0  0  0  0  0  0  0  0  0  0  0  0
   -2.6183    0.1087    6.0215 H   0  0  0  0  0  0  0  0  0  0  0  0
   -1.5748    1.5407    5.8564 H   0  0  0  0  0  0  0  0  0  0  0  0
   -3.3162    1.6582    5.5077 H   0  0  0  0  0  0  0  0  0  0  0  0
   -2.0526    1.6663    3.0506 N   0  0  0  0  0  0  0  0  0  0  0  0
   -1.7603    1.4411    1.6267 C   0  0  2  0  0  0  0  0  0  0  0  0
   -0.2974    1.0307    1.3268 C   0  0  0  0  0  0  0  0  0  0  0  0
    0.5643    1.0404    2.2009 O   0  0  0  0  0  0  0  0  0  0  0  0
   -2.1171    2.7349    0.8871 C   0  0  0  0  0  0  0  0  0  0  0  0
   -2.0556    2.6216    3.3977 H   0  0  0  0  0  0  0  0  0  0  0  0
   -2.4083    0.6410    1.2520 H   0  0  0  0  0  0  0  0  0  0  0  0
   -1.4657    3.5539    1.2091 H   0  0  0  0  0  0  0  0  0  0  0  0
   -2.0028    2.6071   -0.1939 H   0  0  0  0  0  0  0  0  0  0  0  0
   -3.1564    3.0144    1.0870 H   0  0  0  0  0  0  0  0  0  0  0  0
    0.0645    0.6913    0.0350 N   0  0  0  0  0  0  0  0  0  0  0  0
    1.2188   -0.1318   -0.3851 C   0  0  2  0  0  0  0  0  0  0  0  0
    1.1689   -0.1930   -1.9253 C   0  0  0  0  0  0  0  0  0  0  0  0
    1.8136    0.6163   -2.5731 O   0  0  0  0  0  0  0  0  0  0  0  0
    1.2242   -1.5946    0.1421 C   0  0  0  0  0  0  0  0  0  0  0  0
    1.3288   -1.7135    1.6384 C   0  0  0  0  0  0  0  0  0  0  0  0
    2.4617   -1.5160    2.4287 N   0  3  0  0  0  0  0  0  0  0  0  0
    0.2953   -2.0469    2.4759 C   0  0  0  0  0  0  0  0  0  0  0  0
    2.1451   -1.6197    3.6974 C   0  0  0  0  0  0  0  0  0  0  0  0
    0.8010   -1.9776    3.7631 N   0  0  0  0  0  0  0  0  0  0  0  0
   -0.6807    0.8133   -0.6614 H   0  0  0  0  0  0  0  0  0  0  0  0
    2.1459    0.3695   -0.0865 H   0  0  0  0  0  0  0  0  0  0  0  0
    2.0592   -2.1394   -0.3128 H   0  0  0  0  0  0  0  0  0  0  0  0
    0.3022   -2.0938   -0.1702 H   0  0  0  0  0  0  0  0  0  0  0  0
    3.3415   -1.1541    2.0543 H   0  0  0  0  0  0  0  0  0  0  0  0
   -0.7429   -2.2343    2.2012 H   0  0  0  0  0  0  0  0  0  0  0  0
    2.8010   -1.4221    4.5457 H   0  0  0  0  0  0  0  0  0  0  0  0
    0.2281   -2.0170    4.6109 H   0  0  0  0  0  0  0  0  0  0  0  0
    0.2350   -0.9905   -2.5659 N   0  0  0  0  0  0  0  0  0  0  0  0
   -0.4643   -0.4560   -3.7440 C   0  0  2  0  0  0  0  0  0  0  0  0
   -1.5517    0.5607   -3.3176 C   0  0  0  0  0  0  0  0  0  0  0  0
   -1.9029    0.6240   -2.1385 O   0  0  0  0  0  0  0  0  0  0  0  0
   -1.0848   -1.6338   -4.4991 C   0  0  0  0  0  0  0  0  0  0  0  0
   -0.3659   -1.5031   -1.9281 H   0  0  0  0  0  0  0  0  0  0  0  0
    0.2409    0.0510   -4.4127 H   0  0  0  0  0  0  0  0  0  0  0  0
   -1.8139   -2.1558   -3.8708 H   0  0  0  0  0  0  0  0  0  0  0  0
   -1.5939   -1.2843   -5.4029 H   0  0  0  0  0  0  0  0  0  0  0  0
   -0.3070   -2.3447   -4.7964 H   0  0  0  0  0  0  0  0  0  0  0  0
   -2.1252    1.4143   -4.2395 N   0  0  0  0  0  0  0  0  0  0  0  0
   -3.1141    2.4285   -3.8895 C   0  0  0  0  0  0  0  0  0  0  0  0
   -1.7699    1.3879   -5.1921 H   0  0  0  0  0  0  0  0  0  0  0  0
   -3.9862    1.9680   -3.4128 H   0  0  0  0  0  0  0  0  0  0  0  0
   -2.6832    3.1639   -3.2016 H   0  0  0  0  0  0  0  0  0  0  0  0
   -3.4523    2.9532   -4.7886 H   0  0  0  0  0  0  0  0  0  0  0  0
  1  2  2  0  0  0  0
  1  3  1  0  0  0  0
  1  7  1  0  0  0  0
  3  4  1  0  0  0  0
  3  5  1  0  0  0  0
  3  6  1  0  0  0  0
  7  8  1  0  0  0  0
  7 12  1  0  0  0  0
  8  9  1  0  0  0  0
  8 11  1  0  0  0  0
  8 13  1  0  0  0  0
  9 10  2  0  0  0  0
  9 17  1  0  0  0  0
 11 14  1  0  0  0  0
 11 15  1  0  0  0  0
 11 16  1  0  0  0  0
 17 18  1  0  0  0  0
 17 27  1  0  0  0  0
 18 19  1  0  0  0  0
 18 21  1  0  0  0  0
 18 28  1  0  0  0  0
 19 20  2  0  0  0  0
 19 35  1  0  0  0  0
 21 22  1  0  0  0  0
 21 29  1  0  0  0  0
 21 30  1  0  0  0  0
 22 23  1  0  0  0  0
 22 24  2  0  0  0  0
 23 25  2  0  0  0  0
 23 31  1  0  0  0  0
 24 26  1  0  0  0  0
 24 32  1  0  0  0  0
 25 26  1  0  0  0  0
 25 33  1  0  0  0  0
 26 34  1  0  0  0  0
 35 36  1  0  0  0  0
 35 40  1  0  0  0  0
 36 37  1  0  0  0  0
 36 39  1  0  0  0  0
 36 41  1  0  0  0  0
 37 38  2  0  0  0  0
 37 45  1  0  0  0  0
 39 42  1  0  0  0  0
 39 43  1  0  0  0  0
 39 44  1  0  0  0  0
 45 46  1  0  0  0  0
 45 47  1  0  0  0  0
 46 48  1  0  0  0  0
 46 49  1  0  0  0  0
 46 50  1  0  0  0  0
M  CHG  1  23   1
M  END
$$$$

  -OEChem-05262216443D

 50 50  0     1  0  0  0  0  0999 V2000
   -2.1530    0.7312    3.9707 C   0  0  0  0  0  0  0  0  0  0  0  0
   -2.0600   -0.4318    3.5996 O   0  0  0  0  0  0  0  0  0  0  0  0
   -2.4125    1.0402    5.4325 C   0  0  0  0  0  0  0  0  0  0  0  0
   -2.5787    0.1157    5.9919 H   0  0  0  0  0  0  0  0  0  0  0  0
   -1.5550    1.5645    5.8610 H   0  0  0  0  0  0  0  0  0  0  0  0
   -3.3002    1.6707    5.5286 H   0  0  0  0  0  0  0  0  0  0  0  0
   -1.9921    1.7674    3.0750 N   0  0  0  0  0  0  0  0  0  0  0  0
   -1.7170    1.5831    1.6425 C   0  0  2  0  0  0  0  0  0  0  0  0
   -0.2989    1.0519    1.3200 C   0  0  0  0  0  0  0  0  0  0  0  0
    0.5887    1.0401    2.1674 O   0  0  0  0  0  0  0  0  0  0  0  0
   -1.9439    2.9384    0.9659 C   0  0  0  0  0  0  0  0  0  0  0  0
   -1.9787    2.7102    3.4541 H   0  0  0  0  0  0  0  0  0  0  0  0
   -2.4376    0.8668    1.2327 H   0  0  0  0  0  0  0  0  0  0  0  0
   -1.2247    3.6776    1.3333 H   0  0  0  0  0  0  0  0  0  0  0  0
   -1.8261    2.8528   -0.1186 H   0  0  0  0  0  0  0  0  0  0  0  0
   -2.9561    3.3019    1.1697 H   0  0  0  0  0  0  0  0  0  0  0  0
   -0.0033    0.6465    0.0296 N   0  0  0  0  0  0  0  0  0  0  0  0
    1.1213   -0.2080   -0.4131 C   0  0  2  0  0  0  0  0  0  0  0  0
    1.0111   -0.3548   -1.9418 C   0  0  0  0  0  0  0  0  0  0  0  0
    1.8342    0.1902   -2.6592 O   0  0  0  0  0  0  0  0  0  0  0  0
    1.1284   -1.6538    0.1546 C   0  0  0  0  0  0  0  0  0  0  0  0
    1.2938   -1.7331    1.6471 C   0  0  0  0  0  0  0  0  0  0  0  0
    2.4662   -1.5293    2.3751 N   0  3  0  0  0  0  0  0  0  0  0  0
    0.3000   -2.0388    2.5411 C   0  0  0  0  0  0  0  0  0  0  0  0
    2.2136   -1.6056    3.6599 C   0  0  0  0  0  0  0  0  0  0  0  0
    0.8715   -1.9498    3.7999 N   0  0  0  0  0  0  0  0  0  0  0  0
   -0.7381    0.8417   -0.6611 H   0  0  0  0  0  0  0  0  0  0  0  0
    2.0678    0.2887   -0.1742 H   0  0  0  0  0  0  0  0  0  0  0  0
    1.9370   -2.2235   -0.3177 H   0  0  0  0  0  0  0  0  0  0  0  0
    0.1886   -2.1479   -0.1112 H   0  0  0  0  0  0  0  0  0  0  0  0
    3.3291   -1.1859    1.9477 H   0  0  0  0  0  0  0  0  0  0  0  0
   -0.7505   -2.2280    2.3189 H   0  0  0  0  0  0  0  0  0  0  0  0
    2.9140   -1.3991    4.4695 H   0  0  0  0  0  0  0  0  0  0  0  0
    0.3484   -1.9895    4.6786 H   0  0  0  0  0  0  0  0  0  0  0  0
   -0.1256   -0.9189   -2.4942 N   0  0  0  0  0  0  0  0  0  0  0  0
   -0.7220   -0.3183   -3.6960 C   0  0  2  0  0  0  0  0  0  0  0  0
   -1.6310    0.8694   -3.3016 C   0  0  0  0  0  0  0  0  0  0  0  0
   -1.9664    1.0114   -2.1250 O   0  0  0  0  0  0  0  0  0  0  0  0
   -1.5212   -1.4030   -4.4215 C   0  0  0  0  0  0  0  0  0  0  0  0
   -0.8072   -1.2124   -1.7997 H   0  0  0  0  0  0  0  0  0  0  0  0
    0.0555    0.0509   -4.3745 H   0  0  0  0  0  0  0  0  0  0  0  0
   -2.3251   -1.7838   -3.7834 H   0  0  0  0  0  0  0  0  0  0  0  0
   -1.9665   -1.0033   -5.3379 H   0  0  0  0  0  0  0  0  0  0  0  0
   -0.8663   -2.2369   -4.6931 H   0  0  0  0  0  0  0  0  0  0  0  0
   -2.0550    1.7865   -4.2433 N   0  0  0  0  0  0  0  0  0  0  0  0
   -2.8730    2.9505   -3.9194 C   0  0  0  0  0  0  0  0  0  0  0  0
   -1.7148    1.6788   -5.1957 H   0  0  0  0  0  0  0  0  0  0  0  0
   -3.8136    2.6411   -3.4510 H   0  0  0  0  0  0  0  0  0  0  0  0
   -2.3390    3.6163   -3.2329 H   0  0  0  0  0  0  0  0  0  0  0  0
   -3.1107    3.5116   -4.8289 H   0  0  0  0  0  0  0  0  0  0  0  0
  1  2  2  0  0  0  0
  1  3  1  0  0  0  0
  1  7  1  0  0  0  0
  3  4  1  0  0  0  0
  3  5  1  0  0  0  0
  3  6  1  0  0  0  0
  7  8  1  0  0  0  0
  7 12  1  0  0  0  0
  8  9  1  0  0  0  0
  8 11  1  0  0  0  0
  8 13  1  0  0  0  0
  9 10  2  0  0  0  0
  9 17  1  0  0  0  0
 11 14  1  0  0  0  0
 11 15  1  0  0  0  0
 11 16  1  0  0  0  0
 17 18  1  0  0  0  0
 17 27  1  0  0  0  0
 18 19  1  0  0  0  0
 18 21  1  0  0  0  0
 18 28  1  0  0  0  0
 19 20  2  0  0  0  0
 19 35  1  0  0  0  0
 21 22  1  0  0  0  0
 21 29  1  0  0  0  0
 21 30  1  0  0  0  0
 22 23  1  0  0  0  0
 22 24  2  0  0  0  0
 23 25  2  0  0  0  0
 23 31  1  0  0  0  0
 24 26  1  0  0  0  0
 24 32  1  0  0  0  0
 25 26  1  0  0  0  0
 25 33  1  0  0  0  0
 26 34  1  0  0  0  0
 35 36  1  0  0  0  0
 35 40  1  0  0  0  0
 36 37  1  0  0  0  0
 36 39  1  0  0  0  0
 36 41  1  0  0  0  0
 37 38  2  0  0  0  0
 37 45  1  0  0  0  0
 39 42  1  0  0  0  0
 39 43  1  0  0  0  0
 39 44  1  0  0  0  0
 45 46  1  0  0  0  0
 45 47  1  0  0  0  0
 46 48  1  0  0  0  0
 46 49  1  0  0  0  0
 46 50  1  0  0  0  0
M  CHG  1  23   1
M  END
$$$$

  -OEChem-05262216443D

 50 50  0     1  0  0  0  0  0999 V2000
   -2.1402    0.8469    3.9325 C   0  0  0  0  0  0  0  0  0  0  0  0
   -2.1520   -0.2947    3.4904 O   0  0  0  0  0  0  0  0  0  0  0  0
   -2.3827    1.0886    5.4100 C   0  0  0  0  0  0  0  0  0  0  0  0
   -1.5355    1.6231    5.8466 H   0  0  0  0  0  0  0  0  0  0  0  0
   -3.2887    1.6849    5.5459 H   0  0  0  0  0  0  0  0  0  0  0  0
   -2.5082    0.1376    5.9346 H   0  0  0  0  0  0  0  0  0  0  0  0
   -1.8725    1.9145    3.1014 N   0  0  0  0  0  0  0  0  0  0  0  0
   -1.5958    1.7846    1.6634 C   0  0  2  0  0  0  0  0  0  0  0  0
   -0.2644    1.0698    1.3280 C   0  0  0  0  0  0  0  0  0  0  0  0
    0.6410    0.9891    2.1525 O   0  0  0  0  0  0  0  0  0  0  0  0
   -1.5960    3.1983    1.0748 C   0  0  0  0  0  0  0  0  0  0  0  0
   -1.7764    2.8291    3.5339 H   0  0  0  0  0  0  0  0  0  0  0  0
   -2.4059    1.2130    1.1968 H   0  0  0  0  0  0  0  0  0  0  0  0
   -0.7888    3.7963    1.5104 H   0  0  0  0  0  0  0  0  0  0  0  0
   -1.4537    3.1644   -0.0098 H   0  0  0  0  0  0  0  0  0  0  0  0
   -2.5498    3.6956    1.2770 H   0  0  0  0  0  0  0  0  0  0  0  0
   -0.0562    0.6000    0.0423 N   0  0  0  0  0  0  0  0  0  0  0  0
    1.0070   -0.3184   -0.4278 C   0  0  2  0  0  0  0  0  0  0  0  0
    0.8261   -0.5376   -1.9403 C   0  0  0  0  0  0  0  0  0  0  0  0
    1.7586   -0.3190   -2.6960 O   0  0  0  0  0  0  0  0  0  0  0  0
    0.9608   -1.7486    0.1738 C   0  0  0  0  0  0  0  0  0  0  0  0
    1.1806   -1.8167    1.6599 C   0  0  0  0  0  0  0  0  0  0  0  0
    2.3918   -1.6674    2.3354 N   0  3  0  0  0  0  0  0  0  0  0  0
    0.2106   -2.0606    2.5983 C   0  0  0  0  0  0  0  0  0  0  0  0
    2.1938   -1.7313    3.6300 C   0  0  0  0  0  0  0  0  0  0  0  0
    0.8420   -2.0006    3.8304 N   0  0  0  0  0  0  0  0  0  0  0  0
   -0.7467    0.9167   -0.6490 H   0  0  0  0  0  0  0  0  0  0  0  0
    1.9868    0.1369   -0.2464 H   0  0  0  0  0  0  0  0  0  0  0  0
    1.7202   -2.3686   -0.3170 H   0  0  0  0  0  0  0  0  0  0  0  0
   -0.0131   -2.1961   -0.0518 H   0  0  0  0  0  0  0  0  0  0  0  0
    3.2550   -1.3834    1.8669 H   0  0  0  0  0  0  0  0  0  0  0  0
   -0.8563   -2.1961    2.4185 H   0  0  0  0  0  0  0  0  0  0  0  0
    2.9418   -1.5694    4.4065 H   0  0  0  0  0  0  0  0  0  0  0  0
    0.3624   -2.0332    4.7335 H   0  0  0  0  0  0  0  0  0  0  0  0
   -0.4387   -0.7853   -2.4423 N   0  0  0  0  0  0  0  0  0  0  0  0
   -0.8965   -0.1084   -3.6629 C   0  0  2  0  0  0  0  0  0  0  0  0
   -1.6003    1.2177   -3.2933 C   0  0  0  0  0  0  0  0  0  0  0  0
   -1.8698    1.4515   -2.1143 O   0  0  0  0  0  0  0  0  0  0  0  0
   -1.8483   -1.0532   -4.4004 C   0  0  0  0  0  0  0  0  0  0  0  0
   -1.1515   -0.8554   -1.7199 H   0  0  0  0  0  0  0  0  0  0  0  0
   -0.0540    0.1227   -4.3247 H   0  0  0  0  0  0  0  0  0  0  0  0
   -2.7189   -1.2873   -3.7791 H   0  0  0  0  0  0  0  0  0  0  0  0
   -2.1989   -0.5963   -5.3311 H   0  0  0  0  0  0  0  0  0  0  0  0
   -1.3357   -1.9883   -4.6487 H   0  0  0  0  0  0  0  0  0  0  0  0
   -1.9123    2.1517   -4.2612 N   0  0  0  0  0  0  0  0  0  0  0  0
   -2.5329    3.4383   -3.9664 C   0  0  0  0  0  0  0  0  0  0  0  0
   -1.6359    1.9509   -5.2190 H   0  0  0  0  0  0  0  0  0  0  0  0
   -3.4724    3.2976   -3.4209 H   0  0  0  0  0  0  0  0  0  0  0  0
   -1.8622    4.0573   -3.3611 H   0  0  0  0  0  0  0  0  0  0  0  0
   -2.7534    3.9734   -4.8954 H   0  0  0  0  0  0  0  0  0  0  0  0
  1  2  2  0  0  0  0
  1  3  1  0  0  0  0
  1  7  1  0  0  0  0
  3  4  1  0  0  0  0
  3  5  1  0  0  0  0
  3  6  1  0  0  0  0
  7  8  1  0  0  0  0
  7 12  1  0  0  0  0
  8  9  1  0  0  0  0
  8 11  1  0  0  0  0
  8 13  1  0  0  0  0
  9 10  2  0  0  0  0
  9 17  1  0  0  0  0
 11 14  1  0  0  0  0
 11 15  1  0  0  0  0
 11 16  1  0  0  0  0
 17 18  1  0  0  0  0
 17 27  1  0  0  0  0
 18 19  1  0  0  0  0
 18 21  1  0  0  0  0
 18 28  1  0  0  0  0
 19 20  2  0  0  0  0
 19 35  1  0  0  0  0
 21 22  1  0  0  0  0
 21 29  1  0  0  0  0
 21 30  1  0  0  0  0
 22 23  1  0  0  0  0
 22 24  2  0  0  0  0
 23 25  2  0  0  0  0
 23 31  1  0  0  0  0
 24 26  1  0  0  0  0
 24 32  1  0  0  0  0
 25 26  1  0  0  0  0
 25 33  1  0  0  0  0
 26 34  1  0  0  0  0
 35 36  1  0  0  0  0
 35 40  1  0  0  0  0
 36 37  1  0  0  0  0
 36 39  1  0  0  0  0
 36 41  1  0  0  0  0
 37 38  2  0  0  0  0
 37 45  1  0  0  0  0
 39 42  1  0  0  0  0
 39 43  1  0  0  0  0
 39 44  1  0  0  0  0
 45 46  1  0  0  0  0
 45 47  1  0  0  0  0
 46 48  1  0  0  0  0
 46 49  1  0  0  0  0
 46 50  1  0  0  0  0
M  CHG  1  23   1
M  END
$$$$

  -OEChem-05262216443D

 50 50  0     1  0  0  0  0  0999 V2000
   -2.0698    0.9666    3.9617 C   0  0  0  0  0  0  0  0  0  0  0  0
   -2.1648   -0.1659    3.5071 O   0  0  0  0  0  0  0  0  0  0  0  0
   -2.2674    1.2066    5.4459 C   0  0  0  0  0  0  0  0  0  0  0  0
   -1.3464    1.5948    5.8877 H   0  0  0  0  0  0  0  0  0  0  0  0
   -3.0710    1.9310    5.6014 H   0  0  0  0  0  0  0  0  0  0  0  0
   -2.5361    0.2736    5.9490 H   0  0  0  0  0  0  0  0  0  0  0  0
   -1.7452    2.0245    3.1386 N   0  0  0  0  0  0  0  0  0  0  0  0
   -1.5047    1.8978    1.6938 C   0  0  2  0  0  0  0  0  0  0  0  0
   -0.2472    1.0742    1.3247 C   0  0  0  0  0  0  0  0  0  0  0  0
    0.6853    0.9560    2.1135 O   0  0  0  0  0  0  0  0  0  0  0  0
   -1.3877    3.3182    1.1329 C   0  0  0  0  0  0  0  0  0  0  0  0
   -1.5824    2.9249    3.5807 H   0  0  0  0  0  0  0  0  0  0  0  0
   -2.3696    1.4083    1.2324 H   0  0  0  0  0  0  0  0  0  0  0  0
   -0.5277    3.8354    1.5710 H   0  0  0  0  0  0  0  0  0  0  0  0
   -1.2582    3.2946    0.0467 H   0  0  0  0  0  0  0  0  0  0  0  0
   -2.2928    3.8920    1.3553 H   0  0  0  0  0  0  0  0  0  0  0  0
   -0.1260    0.5597    0.0440 N   0  0  0  0  0  0  0  0  0  0  0  0
    0.8843   -0.4078   -0.4502 C   0  0  2  0  0  0  0  0  0  0  0  0
    0.6429   -0.6910   -1.9453 C   0  0  0  0  0  0  0  0  0  0  0  0
    1.5991   -0.7648   -2.6998 O   0  0  0  0  0  0  0  0  0  0  0  0
    0.7950   -1.8200    0.1910 C   0  0  0  0  0  0  0  0  0  0  0  0
    1.0636   -1.8744    1.6695 C   0  0  0  0  0  0  0  0  0  0  0  0
    2.3028   -1.7723    2.3009 N   0  3  0  0  0  0  0  0  0  0  0  0
    0.1166   -2.0633    2.6432 C   0  0  0  0  0  0  0  0  0  0  0  0
    2.1477   -1.8123    3.6024 C   0  0  0  0  0  0  0  0  0  0  0  0
    0.7927   -2.0182    3.8524 N   0  0  0  0  0  0  0  0  0  0  0  0
   -0.7735    0.9645   -0.6421 H   0  0  0  0  0  0  0  0  0  0  0  0
    1.8881    0.0107   -0.3200 H   0  0  0  0  0  0  0  0  0  0  0  0
    1.5064   -2.4874   -0.3100 H   0  0  0  0  0  0  0  0  0  0  0  0
   -0.2069   -2.2237    0.0078 H   0  0  0  0  0  0  0  0  0  0  0  0
    3.1615   -1.5373    1.7984 H   0  0  0  0  0  0  0  0  0  0  0  0
   -0.9605   -2.1559    2.4994 H   0  0  0  0  0  0  0  0  0  0  0  0
    2.9294   -1.6768    4.3505 H   0  0  0  0  0  0  0  0  0  0  0  0
    0.3446   -2.0255    4.7721 H   0  0  0  0  0  0  0  0  0  0  0  0
   -0.6402   -0.6219   -2.4539 N   0  0  0  0  0  0  0  0  0  0  0  0
   -0.9272    0.1365   -3.6781 C   0  0  2  0  0  0  0  0  0  0  0  0
   -1.4827    1.5285   -3.2986 C   0  0  0  0  0  0  0  0  0  0  0  0
   -1.7441    1.7709   -2.1194 O   0  0  0  0  0  0  0  0  0  0  0  0
   -1.9362   -0.6612   -4.5079 C   0  0  0  0  0  0  0  0  0  0  0  0
   -1.3521   -0.5176   -1.7345 H   0  0  0  0  0  0  0  0  0  0  0  0
   -0.0197    0.2818   -4.2751 H   0  0  0  0  0  0  0  0  0  0  0  0
   -2.8674   -0.8057   -3.9507 H   0  0  0  0  0  0  0  0  0  0  0  0
   -2.1671   -0.1378   -5.4407 H   0  0  0  0  0  0  0  0  0  0  0  0
   -1.5242   -1.6439   -4.7587 H   0  0  0  0  0  0  0  0  0  0  0  0
   -1.6679    2.5100   -4.2521 N   0  0  0  0  0  0  0  0  0  0  0  0
   -2.1595    3.8482   -3.9419 C   0  0  0  0  0  0  0  0  0  0  0  0
   -1.4129    2.2929   -5.2124 H   0  0  0  0  0  0  0  0  0  0  0  0
   -3.1167    3.7941   -3.4125 H   0  0  0  0  0  0  0  0  0  0  0  0
   -1.4399    4.3853   -3.3150 H   0  0  0  0  0  0  0  0  0  0  0  0
   -2.3097    4.4196   -4.8632 H   0  0  0  0  0  0  0  0  0  0  0  0
  1  2  2  0  0  0  0
  1  3  1  0  0  0  0
  1  7  1  0  0  0  0
  3  4  1  0  0  0  0
  3  5  1  0  0  0  0
  3  6  1  0  0  0  0
  7  8  1  0  0  0  0
  7 12  1  0  0  0  0
  8  9  1  0  0  0  0
  8 11  1  0  0  0  0
  8 13  1  0  0  0  0
  9 10  2  0  0  0  0
  9 17  1  0  0  0  0
 11 14  1  0  0  0  0
 11 15  1  0  0  0  0
 11 16  1  0  0  0  0
 17 18  1  0  0  0  0
 17 27  1  0  0  0  0
 18 19  1  0  0  0  0
 18 21  1  0  0  0  0
 18 28  1  0  0  0  0
 19 20  2  0  0  0  0
 19 35  1  0  0  0  0
 21 22  1  0  0  0  0
 21 29  1  0  0  0  0
 21 30  1  0  0  0  0
 22 23  1  0  0  0  0
 22 24  2  0  0  0  0
 23 25  2  0  0  0  0
 23 31  1  0  0  0  0
 24 26  1  0  0  0  0
 24 32  1  0  0  0  0
 25 26  1  0  0  0  0
 25 33  1  0  0  0  0
 26 34  1  0  0  0  0
 35 36  1  0  0  0  0
 35 40  1  0  0  0  0
 36 37  1  0  0  0  0
 36 39  1  0  0  0  0
 36 41  1  0  0  0  0
 37 38  2  0  0  0  0
 37 45  1  0  0  0  0
 39 42  1  0  0  0  0
 39 43  1  0  0  0  0
 39 44  1  0  0  0  0
 45 46  1  0  0  0  0
 45 47  1  0  0  0  0
 46 48  1  0  0  0  0
 46 49  1  0  0  0  0
 46 50  1  0  0  0  0
M  CHG  1  23   1
M  END
$$$$

  -OEChem-05262216443D

 50 50  0     1  0  0  0  0  0999 V2000
   -1.5992    0.9383    4.7308 C   0  0  0  0  0  0  0  0  0  0  0  0
   -1.8180   -0.2174    4.3884 O   0  0  0  0  0  0  0  0  0  0  0  0
   -1.4616    1.2784    6.2022 C   0  0  0  0  0  0  0  0  0  0  0  0
   -1.6780    0.4003    6.8168 H   0  0  0  0  0  0  0  0  0  0  0  0
   -0.4444    1.6169    6.4147 H   0  0  0  0  0  0  0  0  0  0  0  0
   -2.1643    2.0721    6.4685 H   0  0  0  0  0  0  0  0  0  0  0  0
   -1.4493    1.9321    3.7853 N   0  0  0  0  0  0  0  0  0  0  0  0
   -1.4991    1.7045    2.3332 C   0  0  2  0  0  0  0  0  0  0  0  0
   -0.2120    1.0786    1.7379 C   0  0  0  0  0  0  0  0  0  0  0  0
    0.7596    0.8276    2.4426 O   0  0  0  0  0  0  0  0  0  0  0  0
   -1.7972    3.0577    1.6782 C   0  0  0  0  0  0  0  0  0  0  0  0
   -1.1465    2.8426    4.1221 H   0  0  0  0  0  0  0  0  0  0  0  0
   -2.3293    1.0259    2.1098 H   0  0  0  0  0  0  0  0  0  0  0  0
   -0.9671    3.7534    1.8389 H   0  0  0  0  0  0  0  0  0  0  0  0
   -1.9491    2.9443    0.6002 H   0  0  0  0  0  0  0  0  0  0  0  0
   -2.7063    3.4955    2.1035 H   0  0  0  0  0  0  0  0  0  0  0  0
   -0.1180    0.8432    0.3740 N   0  0  0  0  0  0  0  0  0  0  0  0
    0.7744   -0.1566   -0.2677 C   0  0  2  0  0  0  0  0  0  0  0  0
    0.6314   -0.1437   -1.8075 C   0  0  0  0  0  0  0  0  0  0  0  0
    1.4525   -0.7374   -2.4900 O   0  0  0  0  0  0  0  0  0  0  0  0
    0.4331   -1.6276    0.1148 C   0  0  0  0  0  0  0  0  0  0  0  0
    0.6105   -1.9579    1.5711 C   0  0  0  0  0  0  0  0  0  0  0  0
    1.8142   -2.1551    2.2476 N   0  3  0  0  0  0  0  0  0  0  0  0
   -0.4047   -2.1261    2.4763 C   0  0  0  0  0  0  0  0  0  0  0  0
    1.5841   -2.3291    3.5271 C   0  0  0  0  0  0  0  0  0  0  0  0
    0.2025   -2.3410    3.7026 N   0  0  0  0  0  0  0  0  0  0  0  0
   -0.9366    1.1373   -0.1506 H   0  0  0  0  0  0  0  0  0  0  0  0
    1.8160    0.0726   -0.0166 H   0  0  0  0  0  0  0  0  0  0  0  0
    1.0632   -2.3144   -0.4628 H   0  0  0  0  0  0  0  0  0  0  0  0
   -0.6044   -1.8310   -0.1714 H   0  0  0  0  0  0  0  0  0  0  0  0
    2.7252   -1.9951    1.8120 H   0  0  0  0  0  0  0  0  0  0  0  0
   -1.4741   -2.0210    2.2970 H   0  0  0  0  0  0  0  0  0  0  0  0
    2.3349   -2.4084    4.3137 H   0  0  0  0  0  0  0  0  0  0  0  0
   -0.2912   -2.3052    4.6001 H   0  0  0  0  0  0  0  0  0  0  0  0
   -0.4341    0.4814   -2.4256 N   0  0  0  0  0  0  0  0  0  0  0  0
   -0.5029    0.7886   -3.8582 C   0  0  2  0  0  0  0  0  0  0  0  0
   -1.2344    2.1364   -4.0450 C   0  0  0  0  0  0  0  0  0  0  0  0
   -1.7582    2.6704   -3.0689 O   0  0  0  0  0  0  0  0  0  0  0  0
   -1.2389   -0.3474   -4.5742 C   0  0  0  0  0  0  0  0  0  0  0  0
   -0.9951    1.1051   -1.8506 H   0  0  0  0  0  0  0  0  0  0  0  0
    0.5051    0.8909   -4.2759 H   0  0  0  0  0  0  0  0  0  0  0  0
   -2.2583   -0.4479   -4.1881 H   0  0  0  0  0  0  0  0  0  0  0  0
   -1.2916   -0.1547   -5.6501 H   0  0  0  0  0  0  0  0  0  0  0  0
   -0.7125   -1.2948   -4.4206 H   0  0  0  0  0  0  0  0  0  0  0  0
   -1.2885    2.7611   -5.2757 N   0  0  0  0  0  0  0  0  0  0  0  0
   -1.9646    4.0354   -5.4943 C   0  0  0  0  0  0  0  0  0  0  0  0
   -0.8387    2.3025   -6.0634 H   0  0  0  0  0  0  0  0  0  0  0  0
   -3.0334    3.9456   -5.2721 H   0  0  0  0  0  0  0  0  0  0  0  0
   -1.5363    4.8131   -4.8527 H   0  0  0  0  0  0  0  0  0  0  0  0
   -1.8539    4.3504   -6.5367 H   0  0  0  0  0  0  0  0  0  0  0  0
  1  2  2  0  0  0  0
  1  3  1  0  0  0  0
  1  7  1  0  0  0  0
  3  4  1  0  0  0  0
  3  5  1  0  0  0  0
  3  6  1  0  0  0  0
  7  8  1  0  0  0  0
  7 12  1  0  0  0  0
  8  9  1  0  0  0  0
  8 11  1  0  0  0  0
  8 13  1  0  0  0  0
  9 10  2  0  0  0  0
  9 17  1  0  0  0  0
 11 14  1  0  0  0  0
 11 15  1  0  0  0  0
 11 16  1  0  0  0  0
 17 18  1  0  0  0  0
 17 27  1  0  0  0  0
 18 19  1  0  0  0  0
 18 21  1  0  0  0  0
 18 28  1  0  0  0  0
 19 20  2  0  0  0  0
 19 35  1  0  0  0  0
 21 22  1  0  0  0  0
 21 29  1  0  0  0  0
 21 30  1  0  0  0  0
 22 23  1  0  0  0  0
 22 24  2  0  0  0  0
 23 25  2  0  0  0  0
 23 31  1  0  0  0  0
 24 26  1  0  0  0  0
 24 32  1  0  0  0  0
 25 26  1  0  0  0  0
 25 33  1  0  0  0  0
 26 34  1  0  0  0  0
 35 36  1  0  0  0  0
 35 40  1  0  0  0  0
 36 37  1  0  0  0  0
 36 39  1  0  0  0  0
 36 41  1  0  0  0  0
 37 38  2  0  0  0  0
 37 45  1  0  0  0  0
 39 42  1  0  0  0  0
 39 43  1  0  0  0  0
 39 44  1  0  0  0  0
 45 46  1  0  0  0  0
 45 47  1  0  0  0  0
 46 48  1  0  0  0  0
 46 49  1  0  0  0  0
 46 50  1  0  0  0  0
M  CHG  1  23   1
M  END
$$$$

  -OEChem-05262216443D

 50 50  0     1  0  0  0  0  0999 V2000
   -1.4692    0.9664    4.7905 C   0  0  0  0  0  0  0  0  0  0  0  0
   -1.7448   -0.1913    4.4998 O   0  0  0  0  0  0  0  0  0  0  0  0
   -1.1831    1.3343    6.2335 C   0  0  0  0  0  0  0  0  0  0  0  0
   -1.3312    0.4676    6.8837 H   0  0  0  0  0  0  0  0  0  0  0  0
   -0.1502    1.6771    6.3333 H   0  0  0  0  0  0  0  0  0  0  0  0
   -1.8565    2.1325    6.5561 H   0  0  0  0  0  0  0  0  0  0  0  0
   -1.3729    1.9322    3.8090 N   0  0  0  0  0  0  0  0  0  0  0  0
   -1.4913    1.6573    2.3687 C   0  0  2  0  0  0  0  0  0  0  0  0
   -0.2137    1.0477    1.7349 C   0  0  0  0  0  0  0  0  0  0  0  0
    0.7683    0.7812    2.4197 O   0  0  0  0  0  0  0  0  0  0  0  0
   -1.8669    2.9808    1.6917 C   0  0  0  0  0  0  0  0  0  0  0  0
   -1.0034    2.8352    4.0963 H   0  0  0  0  0  0  0  0  0  0  0  0
   -2.3096    0.9477    2.2068 H   0  0  0  0  0  0  0  0  0  0  0  0
   -1.0560    3.7098    1.7935 H   0  0  0  0  0  0  0  0  0  0  0  0
   -2.0662    2.8320    0.6260 H   0  0  0  0  0  0  0  0  0  0  0  0
   -2.7696    3.3993    2.1490 H   0  0  0  0  0  0  0  0  0  0  0  0
   -0.1301    0.8352    0.3664 N   0  0  0  0  0  0  0  0  0  0  0  0
    0.7253   -0.1936   -0.2802 C   0  0  2  0  0  0  0  0  0  0  0  0
    0.5760   -0.1357   -1.8209 C   0  0  0  0  0  0  0  0  0  0  0  0
    1.1584   -0.9460   -2.5268 O   0  0  0  0  0  0  0  0  0  0  0  0
    0.3219   -1.6535    0.0962 C   0  0  0  0  0  0  0  0  0  0  0  0
    0.4804   -1.9997    1.5517 C   0  0  0  0  0  0  0  0  0  0  0  0
    1.6707   -2.2513    2.2342 N   0  3  0  0  0  0  0  0  0  0  0  0
   -0.5464   -2.1321    2.4499 C   0  0  0  0  0  0  0  0  0  0  0  0
    1.4254   -2.4219    3.5115 C   0  0  0  0  0  0  0  0  0  0  0  0
    0.0437   -2.3773    3.6786 N   0  0  0  0  0  0  0  0  0  0  0  0
   -0.9769    1.0906   -0.1369 H   0  0  0  0  0  0  0  0  0  0  0  0
    1.7750   -0.0091   -0.0273 H   0  0  0  0  0  0  0  0  0  0  0  0
    0.9264   -2.3656   -0.4780 H   0  0  0  0  0  0  0  0  0  0  0  0
   -0.7207   -1.8142   -0.1985 H   0  0  0  0  0  0  0  0  0  0  0  0
    2.5906   -2.1320    1.8042 H   0  0  0  0  0  0  0  0  0  0  0  0
   -1.6096   -1.9857    2.2647 H   0  0  0  0  0  0  0  0  0  0  0  0
    2.1662   -2.5363    4.3033 H   0  0  0  0  0  0  0  0  0  0  0  0
   -0.4519   -2.3055    4.5736 H   0  0  0  0  0  0  0  0  0  0  0  0
   -0.2647    0.7870   -2.4122 N   0  0  0  0  0  0  0  0  0  0  0  0
   -0.3730    1.0216   -3.8571 C   0  0  2  0  0  0  0  0  0  0  0  0
   -0.8227    2.4776   -4.1071 C   0  0  0  0  0  0  0  0  0  0  0  0
   -1.1686    3.1679   -3.1513 O   0  0  0  0  0  0  0  0  0  0  0  0
   -1.3766    0.0292   -4.4539 C   0  0  0  0  0  0  0  0  0  0  0  0
   -0.5284    1.5886   -1.8396 H   0  0  0  0  0  0  0  0  0  0  0  0
    0.6039    0.8847   -4.3340 H   0  0  0  0  0  0  0  0  0  0  0  0
   -2.3634    0.1614   -3.9989 H   0  0  0  0  0  0  0  0  0  0  0  0
   -1.4688    0.1779   -5.5343 H   0  0  0  0  0  0  0  0  0  0  0  0
   -1.0461   -0.9992   -4.2769 H   0  0  0  0  0  0  0  0  0  0  0  0
   -0.8185    3.0227   -5.3768 N   0  0  0  0  0  0  0  0  0  0  0  0
   -1.2168    4.3984   -5.6560 C   0  0  0  0  0  0  0  0  0  0  0  0
   -0.5151    2.4335   -6.1476 H   0  0  0  0  0  0  0  0  0  0  0  0
   -2.2563    4.5659   -5.3547 H   0  0  0  0  0  0  0  0  0  0  0  0
   -0.5757    5.1014   -5.1134 H   0  0  0  0  0  0  0  0  0  0  0  0
   -1.1305    4.6089   -6.7265 H   0  0  0  0  0  0  0  0  0  0  0  0
  1  2  2  0  0  0  0
  1  3  1  0  0  0  0
  1  7  1  0  0  0  0
  3  4  1  0  0  0  0
  3  5  1  0  0  0  0
  3  6  1  0  0  0  0
  7  8  1  0  0  0  0
  7 12  1  0  0  0  0
  8  9  1  0  0  0  0
  8 11  1  0  0  0  0
  8 13  1  0  0  0  0
  9 10  2  0  0  0  0
  9 17  1  0  0  0  0
 11 14  1  0  0  0  0
 11 15  1  0  0  0  0
 11 16  1  0  0  0  0
 17 18  1  0  0  0  0
 17 27  1  0  0  0  0
 18 19  1  0  0  0  0
 18 21  1  0  0  0  0
 18 28  1  0  0  0  0
 19 20  2  0  0  0  0
 19 35  1  0  0  0  0
 21 22  1  0  0  0  0
 21 29  1  0  0  0  0
 21 30  1  0  0  0  0
 22 23  1  0  0  0  0
 22 24  2  0  0  0  0
 23 25  2  0  0  0  0
 23 31  1  0  0  0  0
 24 26  1  0  0  0  0
 24 32  1  0  0  0  0
 25 26  1  0  0  0  0
 25 33  1  0  0  0  0
 26 34  1  0  0  0  0
 35 36  1  0  0  0  0
 35 40  1  0  0  0  0
 36 37  1  0  0  0  0
 36 39  1  0  0  0  0
 36 41  1  0  0  0  0
 37 38  2  0  0  0  0
 37 45  1  0  0  0  0
 39 42  1  0  0  0  0
 39 43  1  0  0  0  0
 39 44  1  0  0  0  0
 45 46  1  0  0  0  0
 45 47  1  0  0  0  0
 46 48  1  0  0  0  0
 46 49  1  0  0  0  0
 46 50  1  0  0  0  0
M  CHG  1  23   1
M  END
$$$$

  -OEChem-05262216443D

 50 50  0     1  0  0  0  0  0999 V2000
   -1.5159    0.9438    4.7401 C   0  0  0  0  0  0  0  0  0  0  0  0
   -1.8224   -0.1890    4.3901 O   0  0  0  0  0  0  0  0  0  0  0  0
   -1.3143    1.2509    6.2114 C   0  0  0  0  0  0  0  0  0  0  0  0
   -1.5384    0.3690    6.8178 H   0  0  0  0  0  0  0  0  0  0  0  0
   -0.2789    1.5501    6.3923 H   0  0  0  0  0  0  0  0  0  0  0  0
   -1.9789    2.0628    6.5180 H   0  0  0  0  0  0  0  0  0  0  0  0
   -1.3186    1.9358    3.8014 N   0  0  0  0  0  0  0  0  0  0  0  0
   -1.4208    1.7314    2.3482 C   0  0  2  0  0  0  0  0  0  0  0  0
   -0.1897    1.0393    1.7093 C   0  0  0  0  0  0  0  0  0  0  0  0
    0.7997    0.7589    2.3774 O   0  0  0  0  0  0  0  0  0  0  0  0
   -1.6497    3.1115    1.7217 C   0  0  0  0  0  0  0  0  0  0  0  0
   -0.9402    2.8171    4.1396 H   0  0  0  0  0  0  0  0  0  0  0  0
   -2.2965    1.1076    2.1383 H   0  0  0  0  0  0  0  0  0  0  0  0
   -0.7764    3.7537    1.8774 H   0  0  0  0  0  0  0  0  0  0  0  0
   -1.8282    3.0269    0.6453 H   0  0  0  0  0  0  0  0  0  0  0  0
   -2.5223    3.5949    2.1732 H   0  0  0  0  0  0  0  0  0  0  0  0
   -0.1516    0.7941    0.3440 N   0  0  0  0  0  0  0  0  0  0  0  0
    0.6662   -0.2537   -0.3187 C   0  0  2  0  0  0  0  0  0  0  0  0
    0.4381   -0.1948   -1.8525 C   0  0  0  0  0  0  0  0  0  0  0  0
    0.7488   -1.1313   -2.5749 O   0  0  0  0  0  0  0  0  0  0  0  0
    0.2710   -1.7033    0.1065 C   0  0  0  0  0  0  0  0  0  0  0  0
    0.4911   -2.0256    1.5590 C   0  0  0  0  0  0  0  0  0  0  0  0
    1.7066   -2.2754    2.1965 N   0  3  0  0  0  0  0  0  0  0  0  0
   -0.4998   -2.1496    2.4973 C   0  0  0  0  0  0  0  0  0  0  0  0
    1.5108   -2.4430    3.4826 C   0  0  0  0  0  0  0  0  0  0  0  0
    0.1366   -2.3930    3.7028 N   0  0  0  0  0  0  0  0  0  0  0  0
   -0.9962    1.0762   -0.1504 H   0  0  0  0  0  0  0  0  0  0  0  0
    1.7278   -0.0744   -0.1183 H   0  0  0  0  0  0  0  0  0  0  0  0
    0.8463   -2.4320   -0.4765 H   0  0  0  0  0  0  0  0  0  0  0  0
   -0.7843   -1.8621   -0.1405 H   0  0  0  0  0  0  0  0  0  0  0  0
    2.6094   -2.1625    1.7305 H   0  0  0  0  0  0  0  0  0  0  0  0
   -1.5696   -2.0038    2.3513 H   0  0  0  0  0  0  0  0  0  0  0  0
    2.2818   -2.5622    4.2443 H   0  0  0  0  0  0  0  0  0  0  0  0
   -0.3284   -2.3558    4.6151 H   0  0  0  0  0  0  0  0  0  0  0  0
   -0.1634    0.9119   -2.4205 N   0  0  0  0  0  0  0  0  0  0  0  0
   -0.3178    1.1392   -3.8633 C   0  0  2  0  0  0  0  0  0  0  0  0
   -0.3822    2.6545   -4.1511 C   0  0  0  0  0  0  0  0  0  0  0  0
   -0.4857    3.4381   -3.2115 O   0  0  0  0  0  0  0  0  0  0  0  0
   -1.5942    0.4411   -4.3465 C   0  0  0  0  0  0  0  0  0  0  0  0
   -0.1872    1.7579   -1.8492 H   0  0  0  0  0  0  0  0  0  0  0  0
    0.5463    0.7328   -4.4003 H   0  0  0  0  0  0  0  0  0  0  0  0
   -2.4711    0.8467   -3.8318 H   0  0  0  0  0  0  0  0  0  0  0  0
   -1.7269    0.5833   -5.4234 H   0  0  0  0  0  0  0  0  0  0  0  0
   -1.5396   -0.6340   -4.1484 H   0  0  0  0  0  0  0  0  0  0  0  0
   -0.3084    3.1417   -5.4421 N   0  0  0  0  0  0  0  0  0  0  0  0
   -0.3624    4.5640   -5.7632 C   0  0  0  0  0  0  0  0  0  0  0  0
   -0.2112    2.4711   -6.1997 H   0  0  0  0  0  0  0  0  0  0  0  0
   -1.3135    4.9959   -5.4337 H   0  0  0  0  0  0  0  0  0  0  0  0
    0.4563    5.1005   -5.2716 H   0  0  0  0  0  0  0  0  0  0  0  0
   -0.2722    4.7130   -6.8438 H   0  0  0  0  0  0  0  0  0  0  0  0
  1  2  2  0  0  0  0
  1  3  1  0  0  0  0
  1  7  1  0  0  0  0
  3  4  1  0  0  0  0
  3  5  1  0  0  0  0
  3  6  1  0  0  0  0
  7  8  1  0  0  0  0
  7 12  1  0  0  0  0
  8  9  1  0  0  0  0
  8 11  1  0  0  0  0
  8 13  1  0  0  0  0
  9 10  2  0  0  0  0
  9 17  1  0  0  0  0
 11 14  1  0  0  0  0
 11 15  1  0  0  0  0
 11 16  1  0  0  0  0
 17 18  1  0  0  0  0
 17 27  1  0  0  0  0
 18 19  1  0  0  0  0
 18 21  1  0  0  0  0
 18 28  1  0  0  0  0
 19 20  2  0  0  0  0
 19 35  1  0  0  0  0
 21 22  1  0  0  0  0
 21 29  1  0  0  0  0
 21 30  1  0  0  0  0
 22 23  1  0  0  0  0
 22 24  2  0  0  0  0
 23 25  2  0  0  0  0
 23 31  1  0  0  0  0
 24 26  1  0  0  0  0
 24 32  1  0  0  0  0
 25 26  1  0  0  0  0
 25 33  1  0  0  0  0
 26 34  1  0  0  0  0
 35 36  1  0  0  0  0
 35 40  1  0  0  0  0
 36 37  1  0  0  0  0
 36 39  1  0  0  0  0
 36 41  1  0  0  0  0
 37 38  2  0  0  0  0
 37 45  1  0  0  0  0
 39 42  1  0  0  0  0
 39 43  1  0  0  0  0
 39 44  1  0  0  0  0
 45 46  1  0  0  0  0
 45 47  1  0  0  0  0
 46 48  1  0  0  0  0
 46 49  1  0  0  0  0
 46 50  1  0  0  0  0
M  CHG  1  23   1
M  END
$$$$

  -OEChem-05262216443D

 50 50  0     1  0  0  0  0  0999 V2000
   -1.4421    1.0170    4.7308 C   0  0  0  0  0  0  0  0  0  0  0  0
   -1.8012   -0.1079    4.4057 O   0  0  0  0  0  0  0  0  0  0  0  0
   -1.1768    1.3337    6.1899 C   0  0  0  0  0  0  0  0  0  0  0  0
   -1.4410    0.4786    6.8181 H   0  0  0  0  0  0  0  0  0  0  0  0
   -0.1190    1.5665    6.3353 H   0  0  0  0  0  0  0  0  0  0  0  0
   -1.7769    2.1928    6.5001 H   0  0  0  0  0  0  0  0  0  0  0  0
   -1.2393    1.9902    3.7740 N   0  0  0  0  0  0  0  0  0  0  0  0
   -1.3785    1.7662    2.3272 C   0  0  2  0  0  0  0  0  0  0  0  0
   -0.1912    1.0071    1.6814 C   0  0  0  0  0  0  0  0  0  0  0  0
    0.7956    0.6929    2.3384 O   0  0  0  0  0  0  0  0  0  0  0  0
   -1.5568    3.1451    1.6817 C   0  0  0  0  0  0  0  0  0  0  0  0
   -0.8185    2.8606    4.0893 H   0  0  0  0  0  0  0  0  0  0  0  0
   -2.2852    1.1794    2.1441 H   0  0  0  0  0  0  0  0  0  0  0  0
   -0.6524    3.7492    1.8101 H   0  0  0  0  0  0  0  0  0  0  0  0
   -1.7601    3.0517    0.6104 H   0  0  0  0  0  0  0  0  0  0  0  0
   -2.3975    3.6751    2.1415 H   0  0  0  0  0  0  0  0  0  0  0  0
   -0.1808    0.7436    0.3193 N   0  0  0  0  0  0  0  0  0  0  0  0
    0.5839   -0.3426   -0.3431 C   0  0  2  0  0  0  0  0  0  0  0  0
    0.3200   -0.2696   -1.8704 C   0  0  0  0  0  0  0  0  0  0  0  0
    0.3538   -1.2635   -2.5822 O   0  0  0  0  0  0  0  0  0  0  0  0
    0.1433   -1.7722    0.1084 C   0  0  0  0  0  0  0  0  0  0  0  0
    0.3776   -2.0870    1.5604 C   0  0  0  0  0  0  0  0  0  0  0  0
    1.5923   -2.3758    2.1829 N   0  3  0  0  0  0  0  0  0  0  0  0
   -0.6019   -2.1572    2.5162 C   0  0  0  0  0  0  0  0  0  0  0  0
    1.4105   -2.5190    3.4742 C   0  0  0  0  0  0  0  0  0  0  0  0
    0.0432   -2.4097    3.7152 N   0  0  0  0  0  0  0  0  0  0  0  0
   -1.0061    1.0751   -0.1779 H   0  0  0  0  0  0  0  0  0  0  0  0
    1.6550   -0.2021   -0.1657 H   0  0  0  0  0  0  0  0  0  0  0  0
    0.6804   -2.5266   -0.4779 H   0  0  0  0  0  0  0  0  0  0  0  0
   -0.9215   -1.8954   -0.1174 H   0  0  0  0  0  0  0  0  0  0  0  0
    2.4911   -2.3095    1.7007 H   0  0  0  0  0  0  0  0  0  0  0  0
   -1.6668   -1.9681    2.3846 H   0  0  0  0  0  0  0  0  0  0  0  0
    2.1881   -2.6609    4.2253 H   0  0  0  0  0  0  0  0  0  0  0  0
   -0.4050   -2.3405    4.6341 H   0  0  0  0  0  0  0  0  0  0  0  0
    0.0497    0.9550   -2.4485 N   0  0  0  0  0  0  0  0  0  0  0  0
   -0.0937    1.2129   -3.8875 C   0  0  2  0  0  0  0  0  0  0  0  0
    0.0957    2.7192   -4.1722 C   0  0  0  0  0  0  0  0  0  0  0  0
    0.1505    3.5050   -3.2307 O   0  0  0  0  0  0  0  0  0  0  0  0
   -1.4798    0.7512   -4.3544 C   0  0  0  0  0  0  0  0  0  0  0  0
    0.2002    1.7823   -1.8679 H   0  0  0  0  0  0  0  0  0  0  0  0
    0.6784    0.6651   -4.4387 H   0  0  0  0  0  0  0  0  0  0  0  0
   -2.2653    1.2905   -3.8157 H   0  0  0  0  0  0  0  0  0  0  0  0
   -1.6047    0.9338   -5.4259 H   0  0  0  0  0  0  0  0  0  0  0  0
   -1.6078   -0.3209   -4.1759 H   0  0  0  0  0  0  0  0  0  0  0  0
    0.2138    3.1956   -5.4641 N   0  0  0  0  0  0  0  0  0  0  0  0
    0.3749    4.6109   -5.7809 C   0  0  0  0  0  0  0  0  0  0  0  0
    0.1589    2.5254   -6.2261 H   0  0  0  0  0  0  0  0  0  0  0  0
   -0.4971    5.1807   -5.4426 H   0  0  0  0  0  0  0  0  0  0  0  0
    1.2692    5.0155   -5.2945 H   0  0  0  0  0  0  0  0  0  0  0  0
    0.4797    4.7481   -6.8616 H   0  0  0  0  0  0  0  0  0  0  0  0
  1  2  2  0  0  0  0
  1  3  1  0  0  0  0
  1  7  1  0  0  0  0
  3  4  1  0  0  0  0
  3  5  1  0  0  0  0
  3  6  1  0  0  0  0
  7  8  1  0  0  0  0
  7 12  1  0  0  0  0
  8  9  1  0  0  0  0
  8 11  1  0  0  0  0
  8 13  1  0  0  0  0
  9 10  2  0  0  0  0
  9 17  1  0  0  0  0
 11 14  1  0  0  0  0
 11 15  1  0  0  0  0
 11 16  1  0  0  0  0
 17 18  1  0  0  0  0
 17 27  1  0  0  0  0
 18 19  1  0  0  0  0
 18 21  1  0  0  0  0
 18 28  1  0  0  0  0
 19 20  2  0  0  0  0
 19 35  1  0  0  0  0
 21 22  1  0  0  0  0
 21 29  1  0  0  0  0
 21 30  1  0  0  0  0
 22 23  1  0  0  0  0
 22 24  2  0  0  0  0
 23 25  2  0  0  0  0
 23 31  1  0  0  0  0
 24 26  1  0  0  0  0
 24 32  1  0  0  0  0
 25 26  1  0  0  0  0
 25 33  1  0  0  0  0
 26 34  1  0  0  0  0
 35 36  1  0  0  0  0
 35 40  1  0  0  0  0
 36 37  1  0  0  0  0
 36 39  1  0  0  0  0
 36 41  1  0  0  0  0
 37 38  2  0  0  0  0
 37 45  1  0  0  0  0
 39 42  1  0  0  0  0
 39 43  1  0  0  0  0
 39 44  1  0  0  0  0
 45 46  1  0  0  0  0
 45 47  1  0  0  0  0
 46 48  1  0  0  0  0
 46 49  1  0  0  0  0
 46 50  1  0  0  0  0
M  CHG  1  23   1
M  END
$$$$

  -OEChem-05262216443D

 50 50  0     1  0  0  0  0  0999 V2000
   -1.3810    0.5909    4.9444 C   0  0  0  0  0  0  0  0  0  0  0  0
   -1.4384   -0.5819    4.5966 O   0  0  0  0  0  0  0  0  0  0  0  0
   -0.9955    0.9380    6.3693 C   0  0  0  0  0  0  0  0  0  0  0  0
   -0.9577    0.0336    6.9827 H   0  0  0  0  0  0  0  0  0  0  0  0
   -0.0133    1.4172    6.3847 H   0  0  0  0  0  0  0  0  0  0  0  0
   -1.7320    1.6208    6.8007 H   0  0  0  0  0  0  0  0  0  0  0  0
   -1.6231    1.6031    4.0382 N   0  0  0  0  0  0  0  0  0  0  0  0
   -1.8891    1.3820    2.6084 C   0  0  2  0  0  0  0  0  0  0  0  0
   -0.6229    1.0863    1.7640 C   0  0  0  0  0  0  0  0  0  0  0  0
    0.4878    1.0470    2.2820 O   0  0  0  0  0  0  0  0  0  0  0  0
   -2.6124    2.6308    2.0927 C   0  0  0  0  0  0  0  0  0  0  0  0
   -1.4223    2.5498    4.3505 H   0  0  0  0  0  0  0  0  0  0  0  0
   -2.5639    0.5260    2.5011 H   0  0  0  0  0  0  0  0  0  0  0  0
   -1.9547    3.5048    2.1446 H   0  0  0  0  0  0  0  0  0  0  0  0
   -2.9285    2.4963    1.0539 H   0  0  0  0  0  0  0  0  0  0  0  0
   -3.5049    2.8294    2.6955 H   0  0  0  0  0  0  0  0  0  0  0  0
   -0.7070    0.9218    0.3888 N   0  0  0  0  0  0  0  0  0  0  0  0
    0.2314    0.1202   -0.4337 C   0  0  2  0  0  0  0  0  0  0  0  0
   -0.2186    0.2141   -1.9150 C   0  0  0  0  0  0  0  0  0  0  0  0
   -0.2786   -0.7697   -2.6410 O   0  0  0  0  0  0  0  0  0  0  0  0
    0.2639   -1.3957   -0.0593 C   0  0  0  0  0  0  0  0  0  0  0  0
    0.7608   -1.7015    1.3267 C   0  0  0  0  0  0  0  0  0  0  0  0
    2.0790   -1.6617    1.7815 N   0  3  0  0  0  0  0  0  0  0  0  0
   -0.0258   -2.0981    2.3761 C   0  0  0  0  0  0  0  0  0  0  0  0
    2.1158   -1.9134    3.0683 C   0  0  0  0  0  0  0  0  0  0  0  0
    0.8163   -2.2127    3.4692 N   0  0  0  0  0  0  0  0  0  0  0  0
   -1.6465    1.0273    0.0094 H   0  0  0  0  0  0  0  0  0  0  0  0
    1.2389    0.5427   -0.3545 H   0  0  0  0  0  0  0  0  0  0  0  0
    0.9079   -1.9332   -0.7654 H   0  0  0  0  0  0  0  0  0  0  0  0
   -0.7460   -1.8051   -0.1758 H   0  0  0  0  0  0  0  0  0  0  0  0
    2.8518   -1.3150    1.2091 H   0  0  0  0  0  0  0  0  0  0  0  0
   -1.1084   -2.2182    2.3812 H   0  0  0  0  0  0  0  0  0  0  0  0
    2.9935   -1.8613    3.7129 H   0  0  0  0  0  0  0  0  0  0  0  0
    0.4903   -2.3114    4.4356 H   0  0  0  0  0  0  0  0  0  0  0  0
   -0.5672    1.4512   -2.4247 N   0  0  0  0  0  0  0  0  0  0  0  0
   -0.5813    1.7187   -3.8720 C   0  0  2  0  0  0  0  0  0  0  0  0
    0.8004    2.2051   -4.3620 C   0  0  0  0  0  0  0  0  0  0  0  0
    1.6182    2.6255   -3.5504 O   0  0  0  0  0  0  0  0  0  0  0  0
   -1.6527    2.7780   -4.1422 C   0  0  0  0  0  0  0  0  0  0  0  0
   -0.2613    2.2318   -1.8457 H   0  0  0  0  0  0  0  0  0  0  0  0
   -0.8419    0.8141   -4.4319 H   0  0  0  0  0  0  0  0  0  0  0  0
   -1.4176    3.7072   -3.6126 H   0  0  0  0  0  0  0  0  0  0  0  0
   -1.7140    2.9961   -5.2130 H   0  0  0  0  0  0  0  0  0  0  0  0
   -2.6320    2.4223   -3.8067 H   0  0  0  0  0  0  0  0  0  0  0  0
    1.1241    2.1849   -5.7055 N   0  0  0  0  0  0  0  0  0  0  0  0
    2.4176    2.6197   -6.2214 C   0  0  0  0  0  0  0  0  0  0  0  0
    0.4451    1.7928   -6.3518 H   0  0  0  0  0  0  0  0  0  0  0  0
    2.6183    3.6562   -5.9299 H   0  0  0  0  0  0  0  0  0  0  0  0
    3.2194    1.9835   -5.8321 H   0  0  0  0  0  0  0  0  0  0  0  0
    2.4299    2.5615   -7.3142 H   0  0  0  0  0  0  0  0  0  0  0  0
  1  2  2  0  0  0  0
  1  3  1  0  0  0  0
  1  7  1  0  0  0  0
  3  4  1  0  0  0  0
  3  5  1  0  0  0  0
  3  6  1  0  0  0  0
  7  8  1  0  0  0  0
  7 12  1  0  0  0  0
  8  9  1  0  0  0  0
  8 11  1  0  0  0  0
  8 13  1  0  0  0  0
  9 10  2  0  0  0  0
  9 17  1  0  0  0  0
 11 14  1  0  0  0  0
 11 15  1  0  0  0  0
 11 16  1  0  0  0  0
 17 18  1  0  0  0  0
 17 27  1  0  0  0  0
 18 19  1  0  0  0  0
 18 21  1  0  0  0  0
 18 28  1  0  0  0  0
 19 20  2  0  0  0  0
 19 35  1  0  0  0  0
 21 22  1  0  0  0  0
 21 29  1  0  0  0  0
 21 30  1  0  0  0  0
 22 23  1  0  0  0  0
 22 24  2  0  0  0  0
 23 25  2  0  0  0  0
 23 31  1  0  0  0  0
 24 26  1  0  0  0  0
 24 32  1  0  0  0  0
 25 26  1  0  0  0  0
 25 33  1  0  0  0  0
 26 34  1  0  0  0  0
 35 36  1  0  0  0  0
 35 40  1  0  0  0  0
 36 37  1  0  0  0  0
 36 39  1  0  0  0  0
 36 41  1  0  0  0  0
 37 38  2  0  0  0  0
 37 45  1  0  0  0  0
 39 42  1  0  0  0  0
 39 43  1  0  0  0  0
 39 44  1  0  0  0  0
 45 46  1  0  0  0  0
 45 47  1  0  0  0  0
 46 48  1  0  0  0  0
 46 49  1  0  0  0  0
 46 50  1  0  0  0  0
M  CHG  1  23   1
M  END
$$$$

  -OEChem-05262216443D

 50 50  0     1  0  0  0  0  0999 V2000
   -1.3523    0.4856    4.9584 C   0  0  0  0  0  0  0  0  0  0  0  0
   -1.4302   -0.6649    4.5469 O   0  0  0  0  0  0  0  0  0  0  0  0
   -0.9206    0.7465    6.3887 C   0  0  0  0  0  0  0  0  0  0  0  0
   -0.8313   -0.1960    6.9361 H   0  0  0  0  0  0  0  0  0  0  0  0
    0.0467    1.2551    6.4002 H   0  0  0  0  0  0  0  0  0  0  0  0
   -1.6594    1.3741    6.8937 H   0  0  0  0  0  0  0  0  0  0  0  0
   -1.6119    1.5495    4.1185 N   0  0  0  0  0  0  0  0  0  0  0  0
   -1.9172    1.4115    2.6858 C   0  0  2  0  0  0  0  0  0  0  0  0
   -0.6770    1.1389    1.7967 C   0  0  0  0  0  0  0  0  0  0  0  0
    0.4476    1.0760    2.2816 O   0  0  0  0  0  0  0  0  0  0  0  0
   -2.6254    2.7005    2.2543 C   0  0  0  0  0  0  0  0  0  0  0  0
   -1.3918    2.4750    4.4775 H   0  0  0  0  0  0  0  0  0  0  0  0
   -2.6118    0.5756    2.5486 H   0  0  0  0  0  0  0  0  0  0  0  0
   -1.9492    3.5577    2.3385 H   0  0  0  0  0  0  0  0  0  0  0  0
   -2.9662    2.6291    1.2169 H   0  0  0  0  0  0  0  0  0  0  0  0
   -3.5006    2.8838    2.8865 H   0  0  0  0  0  0  0  0  0  0  0  0
   -0.7986    1.0336    0.4189 N   0  0  0  0  0  0  0  0  0  0  0  0
    0.1126    0.2657   -0.4611 C   0  0  2  0  0  0  0  0  0  0  0  0
   -0.3758    0.4239   -1.9221 C   0  0  0  0  0  0  0  0  0  0  0  0
   -0.6976   -0.5348   -2.6128 O   0  0  0  0  0  0  0  0  0  0  0  0
    0.1642   -1.2638   -0.1553 C   0  0  0  0  0  0  0  0  0  0  0  0
    0.7078   -1.6253    1.1988 C   0  0  0  0  0  0  0  0  0  0  0  0
    2.0406   -1.5961    1.6100 N   0  3  0  0  0  0  0  0  0  0  0  0
   -0.0402   -2.0753    2.2544 C   0  0  0  0  0  0  0  0  0  0  0  0
    2.1230   -1.9069    2.8817 C   0  0  0  0  0  0  0  0  0  0  0  0
    0.8394   -2.2342    3.3122 N   0  0  0  0  0  0  0  0  0  0  0  0
   -1.7473    1.1571    0.0686 H   0  0  0  0  0  0  0  0  0  0  0  0
    1.1229    0.6836   -0.3921 H   0  0  0  0  0  0  0  0  0  0  0  0
    0.7796   -1.7651   -0.9115 H   0  0  0  0  0  0  0  0  0  0  0  0
   -0.8488   -1.6716   -0.2483 H   0  0  0  0  0  0  0  0  0  0  0  0
    2.7911   -1.2180    1.0274 H   0  0  0  0  0  0  0  0  0  0  0  0
   -1.1212   -2.2059    2.2886 H   0  0  0  0  0  0  0  0  0  0  0  0
    3.0226   -1.8794    3.4971 H   0  0  0  0  0  0  0  0  0  0  0  0
    0.5484   -2.3900    4.2823 H   0  0  0  0  0  0  0  0  0  0  0  0
   -0.4290    1.6950   -2.4610 N   0  0  0  0  0  0  0  0  0  0  0  0
   -0.3228    1.9035   -3.9133 C   0  0  2  0  0  0  0  0  0  0  0  0
    1.1540    1.8911   -4.3709 C   0  0  0  0  0  0  0  0  0  0  0  0
    2.0513    1.9960   -3.5401 O   0  0  0  0  0  0  0  0  0  0  0  0
   -0.9823    3.2442   -4.2450 C   0  0  0  0  0  0  0  0  0  0  0  0
    0.0288    2.4009   -1.8877 H   0  0  0  0  0  0  0  0  0  0  0  0
   -0.8549    1.1138   -4.4551 H   0  0  0  0  0  0  0  0  0  0  0  0
   -0.4633    4.0642   -3.7380 H   0  0  0  0  0  0  0  0  0  0  0  0
   -0.9524    3.4299   -5.3232 H   0  0  0  0  0  0  0  0  0  0  0  0
   -2.0291    3.2419   -3.9254 H   0  0  0  0  0  0  0  0  0  0  0  0
    1.4806    1.7646   -5.7079 N   0  0  0  0  0  0  0  0  0  0  0  0
    2.8554    1.7290   -6.1952 C   0  0  0  0  0  0  0  0  0  0  0  0
    0.7219    1.6368   -6.3717 H   0  0  0  0  0  0  0  0  0  0  0  0
    3.3905    2.6386   -5.9017 H   0  0  0  0  0  0  0  0  0  0  0  0
    3.3852    0.8619   -5.7865 H   0  0  0  0  0  0  0  0  0  0  0  0
    2.8693    1.6591   -7.2874 H   0  0  0  0  0  0  0  0  0  0  0  0
  1  2  2  0  0  0  0
  1  3  1  0  0  0  0
  1  7  1  0  0  0  0
  3  4  1  0  0  0  0
  3  5  1  0  0  0  0
  3  6  1  0  0  0  0
  7  8  1  0  0  0  0
  7 12  1  0  0  0  0
  8  9  1  0  0  0  0
  8 11  1  0  0  0  0
  8 13  1  0  0  0  0
  9 10  2  0  0  0  0
  9 17  1  0  0  0  0
 11 14  1  0  0  0  0
 11 15  1  0  0  0  0
 11 16  1  0  0  0  0
 17 18  1  0  0  0  0
 17 27  1  0  0  0  0
 18 19  1  0  0  0  0
 18 21  1  0  0  0  0
 18 28  1  0  0  0  0
 19 20  2  0  0  0  0
 19 35  1  0  0  0  0
 21 22  1  0  0  0  0
 21 29  1  0  0  0  0
 21 30  1  0  0  0  0
 22 23  1  0  0  0  0
 22 24  2  0  0  0  0
 23 25  2  0  0  0  0
 23 31  1  0  0  0  0
 24 26  1  0  0  0  0
 24 32  1  0  0  0  0
 25 26  1  0  0  0  0
 25 33  1  0  0  0  0
 26 34  1  0  0  0  0
 35 36  1  0  0  0  0
 35 40  1  0  0  0  0
 36 37  1  0  0  0  0
 36 39  1  0  0  0  0
 36 41  1  0  0  0  0
 37 38  2  0  0  0  0
 37 45  1  0  0  0  0
 39 42  1  0  0  0  0
 39 43  1  0  0  0  0
 39 44  1  0  0  0  0
 45 46  1  0  0  0  0
 45 47  1  0  0  0  0
 46 48  1  0  0  0  0
 46 49  1  0  0  0  0
 46 50  1  0  0  0  0
M  CHG  1  23   1
M  END
$$$$

  -OEChem-05262216443D

 50 50  0     1  0  0  0  0  0999 V2000
   -1.3942    0.3651    4.9710 C   0  0  0  0  0  0  0  0  0  0  0  0
   -1.4519   -0.7630    4.4985 O   0  0  0  0  0  0  0  0  0  0  0  0
   -1.0060    0.5558    6.4246 C   0  0  0  0  0  0  0  0  0  0  0  0
   -0.9156   -0.4132    6.9237 H   0  0  0  0  0  0  0  0  0  0  0  0
   -0.0482    1.0781    6.4897 H   0  0  0  0  0  0  0  0  0  0  0  0
   -1.7688    1.1444    6.9412 H   0  0  0  0  0  0  0  0  0  0  0  0
   -1.6410    1.4696    4.1814 N   0  0  0  0  0  0  0  0  0  0  0  0
   -1.9230    1.4086    2.7387 C   0  0  2  0  0  0  0  0  0  0  0  0
   -0.6680    1.2004    1.8516 C   0  0  0  0  0  0  0  0  0  0  0  0
    0.4499    1.1027    2.3468 O   0  0  0  0  0  0  0  0  0  0  0  0
   -2.6431    2.7122    2.3760 C   0  0  0  0  0  0  0  0  0  0  0  0
   -1.4491    2.3775    4.5968 H   0  0  0  0  0  0  0  0  0  0  0  0
   -2.6049    0.5739    2.5429 H   0  0  0  0  0  0  0  0  0  0  0  0
   -1.9803    3.5717    2.5227 H   0  0  0  0  0  0  0  0  0  0  0  0
   -2.9692    2.6995    1.3317 H   0  0  0  0  0  0  0  0  0  0  0  0
   -3.5295    2.8446    3.0054 H   0  0  0  0  0  0  0  0  0  0  0  0
   -0.7725    1.1760    0.4685 N   0  0  0  0  0  0  0  0  0  0  0  0
    0.1424    0.4516   -0.4423 C   0  0  2  0  0  0  0  0  0  0  0  0
   -0.3201    0.6942   -1.8986 C   0  0  0  0  0  0  0  0  0  0  0  0
   -0.9078   -0.1651   -2.5436 O   0  0  0  0  0  0  0  0  0  0  0  0
    0.1777   -1.0932   -0.2296 C   0  0  0  0  0  0  0  0  0  0  0  0
    0.7014   -1.5400    1.1070 C   0  0  0  0  0  0  0  0  0  0  0  0
    2.0287   -1.5474    1.5361 N   0  3  0  0  0  0  0  0  0  0  0  0
   -0.0654   -2.0370    2.1276 C   0  0  0  0  0  0  0  0  0  0  0  0
    2.0912   -1.9287    2.7896 C   0  0  0  0  0  0  0  0  0  0  0  0
    0.7986   -2.2630    3.1860 N   0  0  0  0  0  0  0  0  0  0  0  0
   -1.7171    1.3205    0.1152 H   0  0  0  0  0  0  0  0  0  0  0  0
    1.1563    0.8513   -0.3334 H   0  0  0  0  0  0  0  0  0  0  0  0
    0.7934   -1.5516   -1.0124 H   0  0  0  0  0  0  0  0  0  0  0  0
   -0.8373   -1.4874   -0.3531 H   0  0  0  0  0  0  0  0  0  0  0  0
    2.7917   -1.1507    0.9830 H   0  0  0  0  0  0  0  0  0  0  0  0
   -1.1486   -2.1530    2.1424 H   0  0  0  0  0  0  0  0  0  0  0  0
    2.9828   -1.9468    3.4169 H   0  0  0  0  0  0  0  0  0  0  0  0
    0.4922   -2.4589    4.1441 H   0  0  0  0  0  0  0  0  0  0  0  0
   -0.0659    1.9209   -2.4807 N   0  0  0  0  0  0  0  0  0  0  0  0
    0.0487    2.0463   -3.9417 C   0  0  2  0  0  0  0  0  0  0  0  0
    1.4210    1.5411   -4.4450 C   0  0  0  0  0  0  0  0  0  0  0  0
    2.3423    1.3782   -3.6501 O   0  0  0  0  0  0  0  0  0  0  0  0
   -0.1502    3.5204   -4.3026 C   0  0  0  0  0  0  0  0  0  0  0  0
    0.5537    2.5187   -1.9388 H   0  0  0  0  0  0  0  0  0  0  0  0
   -0.7340    1.4601   -4.4358 H   0  0  0  0  0  0  0  0  0  0  0  0
    0.6314    4.1370   -3.8469 H   0  0  0  0  0  0  0  0  0  0  0  0
   -0.1108    3.6583   -5.3877 H   0  0  0  0  0  0  0  0  0  0  0  0
   -1.1241    3.8707   -3.9466 H   0  0  0  0  0  0  0  0  0  0  0  0
    1.6255    1.2667   -5.7841 N   0  0  0  0  0  0  0  0  0  0  0  0
    2.8879    0.7625   -6.3134 C   0  0  0  0  0  0  0  0  0  0  0  0
    0.8349    1.3664   -6.4148 H   0  0  0  0  0  0  0  0  0  0  0  0
    3.7040    1.4574   -6.0886 H   0  0  0  0  0  0  0  0  0  0  0  0
    3.1253   -0.2127   -5.8753 H   0  0  0  0  0  0  0  0  0  0  0  0
    2.8247    0.6469   -7.3999 H   0  0  0  0  0  0  0  0  0  0  0  0
  1  2  2  0  0  0  0
  1  3  1  0  0  0  0
  1  7  1  0  0  0  0
  3  4  1  0  0  0  0
  3  5  1  0  0  0  0
  3  6  1  0  0  0  0
  7  8  1  0  0  0  0
  7 12  1  0  0  0  0
  8  9  1  0  0  0  0
  8 11  1  0  0  0  0
  8 13  1  0  0  0  0
  9 10  2  0  0  0  0
  9 17  1  0  0  0  0
 11 14  1  0  0  0  0
 11 15  1  0  0  0  0
 11 16  1  0  0  0  0
 17 18  1  0  0  0  0
 17 27  1  0  0  0  0
 18 19  1  0  0  0  0
 18 21  1  0  0  0  0
 18 28  1  0  0  0  0
 19 20  2  0  0  0  0
 19 35  1  0  0  0  0
 21 22  1  0  0  0  0
 21 29  1  0  0  0  0
 21 30  1  0  0  0  0
 22 23  1  0  0  0  0
 22 24  2  0  0  0  0
 23 25  2  0  0  0  0
 23 31  1  0  0  0  0
 24 26  1  0  0  0  0
 24 32  1  0  0  0  0
 25 26  1  0  0  0  0
 25 33  1  0  0  0  0
 26 34  1  0  0  0  0
 35 36  1  0  0  0  0
 35 40  1  0  0  0  0
 36 37  1  0  0  0  0
 36 39  1  0  0  0  0
 36 41  1  0  0  0  0
 37 38  2  0  0  0  0
 37 45  1  0  0  0  0
 39 42  1  0  0  0  0
 39 43  1  0  0  0  0
 39 44  1  0  0  0  0
 45 46  1  0  0  0  0
 45 47  1  0  0  0  0
 46 48  1  0  0  0  0
 46 49  1  0  0  0  0
 46 50  1  0  0  0  0
M  CHG  1  23   1
M  END
$$$$

  -OEChem-05262216443D

 50 50  0     1  0  0  0  0  0999 V2000
   -1.4733    0.2578    4.9421 C   0  0  0  0  0  0  0  0  0  0  0  0
   -1.5295   -0.8390    4.4006 O   0  0  0  0  0  0  0  0  0  0  0  0
   -1.1540    0.3530    6.4216 C   0  0  0  0  0  0  0  0  0  0  0  0
   -1.1408   -0.6436    6.8714 H   0  0  0  0  0  0  0  0  0  0  0  0
   -0.1762    0.8194    6.5634 H   0  0  0  0  0  0  0  0  0  0  0  0
   -1.9122    0.9539    6.9299 H   0  0  0  0  0  0  0  0  0  0  0  0
   -1.6645    1.4115    4.2095 N   0  0  0  0  0  0  0  0  0  0  0  0
   -1.9086    1.4385    2.7588 C   0  0  2  0  0  0  0  0  0  0  0  0
   -0.6357    1.2603    1.8922 C   0  0  0  0  0  0  0  0  0  0  0  0
    0.4696    1.1180    2.4053 O   0  0  0  0  0  0  0  0  0  0  0  0
   -2.5989    2.7713    2.4493 C   0  0  0  0  0  0  0  0  0  0  0  0
   -1.4709    2.2900    4.6832 H   0  0  0  0  0  0  0  0  0  0  0  0
   -2.5977    0.6275    2.4989 H   0  0  0  0  0  0  0  0  0  0  0  0
   -1.9272    3.6100    2.6594 H   0  0  0  0  0  0  0  0  0  0  0  0
   -2.8957    2.8203    1.3973 H   0  0  0  0  0  0  0  0  0  0  0  0
   -3.4998    2.8846    3.0612 H   0  0  0  0  0  0  0  0  0  0  0  0
   -0.7129    1.3072    0.5088 N   0  0  0  0  0  0  0  0  0  0  0  0
    0.2118    0.6228   -0.4197 C   0  0  2  0  0  0  0  0  0  0  0  0
   -0.2175    0.9410   -1.8685 C   0  0  0  0  0  0  0  0  0  0  0  0
   -1.0364    0.2448   -2.4556 O   0  0  0  0  0  0  0  0  0  0  0  0
    0.2260   -0.9311   -0.3022 C   0  0  0  0  0  0  0  0  0  0  0  0
    0.7148   -1.4592    1.0173 C   0  0  0  0  0  0  0  0  0  0  0  0
    2.0322   -1.5043    1.4727 N   0  3  0  0  0  0  0  0  0  0  0  0
   -0.0797   -1.9967    1.9952 C   0  0  0  0  0  0  0  0  0  0  0  0
    2.0636   -1.9507    2.7057 C   0  0  0  0  0  0  0  0  0  0  0  0
    0.7587   -2.2875    3.0582 N   0  0  0  0  0  0  0  0  0  0  0  0
   -1.6493    1.4766    0.1437 H   0  0  0  0  0  0  0  0  0  0  0  0
    1.2274    1.0019   -0.2652 H   0  0  0  0  0  0  0  0  0  0  0  0
    0.8527   -1.3469   -1.1000 H   0  0  0  0  0  0  0  0  0  0  0  0
   -0.7900   -1.3076   -0.4673 H   0  0  0  0  0  0  0  0  0  0  0  0
    2.8124   -1.0961    0.9531 H   0  0  0  0  0  0  0  0  0  0  0  0
   -1.1644   -2.0974    1.9817 H   0  0  0  0  0  0  0  0  0  0  0  0
    2.9422   -2.0140    3.3482 H   0  0  0  0  0  0  0  0  0  0  0  0
    0.4303   -2.5326    3.9975 H   0  0  0  0  0  0  0  0  0  0  0  0
    0.3127    2.0471   -2.5038 N   0  0  0  0  0  0  0  0  0  0  0  0
    0.4273    2.0657   -3.9693 C   0  0  2  0  0  0  0  0  0  0  0  0
    1.5725    1.1460   -4.4570 C   0  0  0  0  0  0  0  0  0  0  0  0
    2.4163    0.7406   -3.6614 O   0  0  0  0  0  0  0  0  0  0  0  0
    0.6725    3.5130   -4.4028 C   0  0  0  0  0  0  0  0  0  0  0  0
    1.0693    2.5000   -1.9972 H   0  0  0  0  0  0  0  0  0  0  0  0
   -0.5078    1.7206   -4.4245 H   0  0  0  0  0  0  0  0  0  0  0  0
    1.6122    3.8870   -3.9834 H   0  0  0  0  0  0  0  0  0  0  0  0
    0.7284    3.5824   -5.4936 H   0  0  0  0  0  0  0  0  0  0  0  0
   -0.1441    4.1557   -4.0588 H   0  0  0  0  0  0  0  0  0  0  0  0
    1.6536    0.7643   -5.7829 N   0  0  0  0  0  0  0  0  0  0  0  0
    2.6842   -0.1301   -6.2989 C   0  0  0  0  0  0  0  0  0  0  0  0
    0.9138    1.0696   -6.4090 H   0  0  0  0  0  0  0  0  0  0  0  0
    3.6815    0.2782   -6.1032 H   0  0  0  0  0  0  0  0  0  0  0  0
    2.6086   -1.1156   -5.8277 H   0  0  0  0  0  0  0  0  0  0  0  0
    2.5707   -0.2548   -7.3803 H   0  0  0  0  0  0  0  0  0  0  0  0
  1  2  2  0  0  0  0
  1  3  1  0  0  0  0
  1  7  1  0  0  0  0
  3  4  1  0  0  0  0
  3  5  1  0  0  0  0
  3  6  1  0  0  0  0
  7  8  1  0  0  0  0
  7 12  1  0  0  0  0
  8  9  1  0  0  0  0
  8 11  1  0  0  0  0
  8 13  1  0  0  0  0
  9 10  2  0  0  0  0
  9 17  1  0  0  0  0
 11 14  1  0  0  0  0
 11 15  1  0  0  0  0
 11 16  1  0  0  0  0
 17 18  1  0  0  0  0
 17 27  1  0  0  0  0
 18 19  1  0  0  0  0
 18 21  1  0  0  0  0
 18 28  1  0  0  0  0
 19 20  2  0  0  0  0
 19 35  1  0  0  0  0
 21 22  1  0  0  0  0
 21 29  1  0  0  0  0
 21 30  1  0  0  0  0
 22 23  1  0  0  0  0
 22 24  2  0  0  0  0
 23 25  2  0  0  0  0
 23 31  1  0  0  0  0
 24 26  1  0  0  0  0
 24 32  1  0  0  0  0
 25 26  1  0  0  0  0
 25 33  1  0  0  0  0
 26 34  1  0  0  0  0
 35 36  1  0  0  0  0
 35 40  1  0  0  0  0
 36 37  1  0  0  0  0
 36 39  1  0  0  0  0
 36 41  1  0  0  0  0
 37 38  2  0  0  0  0
 37 45  1  0  0  0  0
 39 42  1  0  0  0  0
 39 43  1  0  0  0  0
 39 44  1  0  0  0  0
 45 46  1  0  0  0  0
 45 47  1  0  0  0  0
 46 48  1  0  0  0  0
 46 49  1  0  0  0  0
 46 50  1  0  0  0  0
M  CHG  1  23   1
M  END
$$$$

  -OEChem-05262216443D

 50 50  0     1  0  0  0  0  0999 V2000
   -1.4490    0.2062    4.9285 C   0  0  0  0  0  0  0  0  0  0  0  0
   -1.5110   -0.8798    4.3656 O   0  0  0  0  0  0  0  0  0  0  0  0
   -1.1307    0.2710    6.4100 C   0  0  0  0  0  0  0  0  0  0  0  0
   -1.0016   -0.7364    6.8154 H   0  0  0  0  0  0  0  0  0  0  0  0
   -0.2098    0.8369    6.5717 H   0  0  0  0  0  0  0  0  0  0  0  0
   -1.9479    0.7609    6.9453 H   0  0  0  0  0  0  0  0  0  0  0  0
   -1.6404    1.3763    4.2221 N   0  0  0  0  0  0  0  0  0  0  0  0
   -1.8763    1.4403    2.7711 C   0  0  2  0  0  0  0  0  0  0  0  0
   -0.5958    1.2993    1.9090 C   0  0  0  0  0  0  0  0  0  0  0  0
    0.4986    1.0951    2.4253 O   0  0  0  0  0  0  0  0  0  0  0  0
   -2.5803    2.7734    2.4962 C   0  0  0  0  0  0  0  0  0  0  0  0
   -1.4475    2.2431    4.7171 H   0  0  0  0  0  0  0  0  0  0  0  0
   -2.5545    0.6301    2.4829 H   0  0  0  0  0  0  0  0  0  0  0  0
   -1.9203    3.6136    2.7359 H   0  0  0  0  0  0  0  0  0  0  0  0
   -2.8710    2.8505    1.4440 H   0  0  0  0  0  0  0  0  0  0  0  0
   -3.4864    2.8571    3.1053 H   0  0  0  0  0  0  0  0  0  0  0  0
   -0.6505    1.4291    0.5295 N   0  0  0  0  0  0  0  0  0  0  0  0
    0.2719    0.7665   -0.4152 C   0  0  2  0  0  0  0  0  0  0  0  0
   -0.1117    1.1715   -1.8525 C   0  0  0  0  0  0  0  0  0  0  0  0
   -1.1033    0.6927   -2.3890 O   0  0  0  0  0  0  0  0  0  0  0  0
    0.2150   -0.7900   -0.4030 C   0  0  0  0  0  0  0  0  0  0  0  0
    0.6388   -1.4187    0.8947 C   0  0  0  0  0  0  0  0  0  0  0  0
    1.9361   -1.5511    1.3892 N   0  3  0  0  0  0  0  0  0  0  0  0
   -0.2134   -1.9703    1.8145 C   0  0  0  0  0  0  0  0  0  0  0  0
    1.9024   -2.0571    2.5991 C   0  0  0  0  0  0  0  0  0  0  0  0
    0.5724   -2.3526    2.8886 N   0  0  0  0  0  0  0  0  0  0  0  0
   -1.5764    1.6362    0.1560 H   0  0  0  0  0  0  0  0  0  0  0  0
    1.2966    1.0940   -0.2132 H   0  0  0  0  0  0  0  0  0  0  0  0
    0.8487   -1.1819   -1.2076 H   0  0  0  0  0  0  0  0  0  0  0  0
   -0.8099   -1.1097   -0.6223 H   0  0  0  0  0  0  0  0  0  0  0  0
    2.7511   -1.1490    0.9206 H   0  0  0  0  0  0  0  0  0  0  0  0
   -1.3004   -2.0179    1.7597 H   0  0  0  0  0  0  0  0  0  0  0  0
    2.7519   -2.1877    3.2697 H   0  0  0  0  0  0  0  0  0  0  0  0
    0.1964   -2.6004    3.8098 H   0  0  0  0  0  0  0  0  0  0  0  0
    0.6679    2.0815   -2.5397 N   0  0  0  0  0  0  0  0  0  0  0  0
    0.7828    1.9709   -4.0008 C   0  0  2  0  0  0  0  0  0  0  0  0
    1.6618    0.7612   -4.4018 C   0  0  0  0  0  0  0  0  0  0  0  0
    2.3496    0.1931   -3.5558 O   0  0  0  0  0  0  0  0  0  0  0  0
    1.3801    3.2786   -4.5270 C   0  0  0  0  0  0  0  0  0  0  0  0
    1.5190    2.3542   -2.0551 H   0  0  0  0  0  0  0  0  0  0  0  0
   -0.2088    1.8384   -4.4479 H   0  0  0  0  0  0  0  0  0  0  0  0
    2.3848    3.4352   -4.1213 H   0  0  0  0  0  0  0  0  0  0  0  0
    1.4472    3.2578   -5.6192 H   0  0  0  0  0  0  0  0  0  0  0  0
    0.7508    4.1265   -4.2381 H   0  0  0  0  0  0  0  0  0  0  0  0
    1.6660    0.2931   -5.7019 N   0  0  0  0  0  0  0  0  0  0  0  0
    2.4284   -0.8742   -6.1313 C   0  0  0  0  0  0  0  0  0  0  0  0
    1.0469    0.7453   -6.3691 H   0  0  0  0  0  0  0  0  0  0  0  0
    3.4956   -0.7325   -5.9291 H   0  0  0  0  0  0  0  0  0  0  0  0
    2.0858   -1.7706   -5.6038 H   0  0  0  0  0  0  0  0  0  0  0  0
    2.3009   -1.0357   -7.2063 H   0  0  0  0  0  0  0  0  0  0  0  0
  1  2  2  0  0  0  0
  1  3  1  0  0  0  0
  1  7  1  0  0  0  0
  3  4  1  0  0  0  0
  3  5  1  0  0  0  0
  3  6  1  0  0  0  0
  7  8  1  0  0  0  0
  7 12  1  0  0  0  0
  8  9  1  0  0  0  0
  8 11  1  0  0  0  0
  8 13  1  0  0  0  0
  9 10  2  0  0  0  0
  9 17  1  0  0  0  0
 11 14  1  0  0  0  0
 11 15  1  0  0  0  0
 11 16  1  0  0  0  0
 17 18  1  0  0  0  0
 17 27  1  0  0  0  0
 18 19  1  0  0  0  0
 18 21  1  0  0  0  0
 18 28  1  0  0  0  0
 19 20  2  0  0  0  0
 19 35  1  0  0  0  0
 21 22  1  0  0  0  0
 21 29  1  0  0  0  0
 21 30  1  0  0  0  0
 22 23  1  0  0  0  0
 22 24  2  0  0  0  0
 23 25  2  0  0  0  0
 23 31  1  0  0  0  0
 24 26  1  0  0  0  0
 24 32  1  0  0  0  0
 25 26  1  0  0  0  0
 25 33  1  0  0  0  0
 26 34  1  0  0  0  0
 35 36  1  0  0  0  0
 35 40  1  0  0  0  0
 36 37  1  0  0  0  0
 36 39  1  0  0  0  0
 36 41  1  0  0  0  0
 37 38  2  0  0  0  0
 37 45  1  0  0  0  0
 39 42  1  0  0  0  0
 39 43  1  0  0  0  0
 39 44  1  0  0  0  0
 45 46  1  0  0  0  0
 45 47  1  0  0  0  0
 46 48  1  0  0  0  0
 46 49  1  0  0  0  0
 46 50  1  0  0  0  0
M  CHG  1  23   1
M  END
$$$$

  -OEChem-05262216443D

 50 50  0     1  0  0  0  0  0999 V2000
   -1.5336    0.1697    4.8770 C   0  0  0  0  0  0  0  0  0  0  0  0
   -1.6182   -0.8984    4.2832 O   0  0  0  0  0  0  0  0  0  0  0  0
   -1.2325    0.1823    6.3634 C   0  0  0  0  0  0  0  0  0  0  0  0
   -1.1922   -0.8394    6.7513 H   0  0  0  0  0  0  0  0  0  0  0  0
   -0.2702    0.6671    6.5458 H   0  0  0  0  0  0  0  0  0  0  0  0
   -2.0138    0.7281    6.8988 H   0  0  0  0  0  0  0  0  0  0  0  0
   -1.6718    1.3648    4.2002 N   0  0  0  0  0  0  0  0  0  0  0  0
   -1.8564    1.4757    2.7443 C   0  0  2  0  0  0  0  0  0  0  0  0
   -0.5480    1.3273    1.9254 C   0  0  0  0  0  0  0  0  0  0  0  0
    0.5193    1.0706    2.4745 O   0  0  0  0  0  0  0  0  0  0  0  0
   -2.5213    2.8315    2.4805 C   0  0  0  0  0  0  0  0  0  0  0  0
   -1.4554    2.2097    4.7227 H   0  0  0  0  0  0  0  0  0  0  0  0
   -2.5425    0.6900    2.4102 H   0  0  0  0  0  0  0  0  0  0  0  0
   -1.8504    3.6507    2.7596 H   0  0  0  0  0  0  0  0  0  0  0  0
   -2.7788    2.9397    1.4222 H   0  0  0  0  0  0  0  0  0  0  0  0
   -3.4436    2.9229    3.0637 H   0  0  0  0  0  0  0  0  0  0  0  0
   -0.5450    1.4974    0.5495 N   0  0  0  0  0  0  0  0  0  0  0  0
    0.4020    0.8460   -0.3785 C   0  0  2  0  0  0  0  0  0  0  0  0
    0.0832    1.2984   -1.8158 C   0  0  0  0  0  0  0  0  0  0  0  0
   -1.0084    1.0389   -2.3072 O   0  0  0  0  0  0  0  0  0  0  0  0
    0.2916   -0.7063   -0.4319 C   0  0  0  0  0  0  0  0  0  0  0  0
    0.6302   -1.3987    0.8582 C   0  0  0  0  0  0  0  0  0  0  0  0
    1.8962   -1.5969    1.4083 N   0  3  0  0  0  0  0  0  0  0  0  0
   -0.2852   -1.9406    1.7207 C   0  0  0  0  0  0  0  0  0  0  0  0
    1.7859   -2.1362    2.5988 C   0  0  0  0  0  0  0  0  0  0  0  0
    0.4331   -2.3841    2.8182 N   0  0  0  0  0  0  0  0  0  0  0  0
   -1.4478    1.7428    0.1419 H   0  0  0  0  0  0  0  0  0  0  0  0
    1.4249    1.1384   -0.1220 H   0  0  0  0  0  0  0  0  0  0  0  0
    0.9491   -1.0927   -1.2197 H   0  0  0  0  0  0  0  0  0  0  0  0
   -0.7320   -0.9783   -0.7137 H   0  0  0  0  0  0  0  0  0  0  0  0
    2.7482   -1.2207    0.9873 H   0  0  0  0  0  0  0  0  0  0  0  0
   -1.3693   -1.9389    1.6164 H   0  0  0  0  0  0  0  0  0  0  0  0
    2.5972   -2.3217    3.3029 H   0  0  0  0  0  0  0  0  0  0  0  0
    0.0039   -2.6296    3.7168 H   0  0  0  0  0  0  0  0  0  0  0  0
    1.0409    1.9574   -2.5621 N   0  0  0  0  0  0  0  0  0  0  0  0
    1.0815    1.7674   -4.0188 C   0  0  2  0  0  0  0  0  0  0  0  0
    1.6397    0.3712   -4.3848 C   0  0  0  0  0  0  0  0  0  0  0  0
    2.2092   -0.3059   -3.5311 O   0  0  0  0  0  0  0  0  0  0  0  0
    1.9591    2.8727   -4.6117 C   0  0  0  0  0  0  0  0  0  0  0  0
    1.9467    2.0388   -2.1083 H   0  0  0  0  0  0  0  0  0  0  0  0
    0.0739    1.8578   -4.4401 H   0  0  0  0  0  0  0  0  0  0  0  0
    2.9835    2.7962   -4.2327 H   0  0  0  0  0  0  0  0  0  0  0  0
    1.9878    2.7968   -5.7032 H   0  0  0  0  0  0  0  0  0  0  0  0
    1.5611    3.8574   -4.3461 H   0  0  0  0  0  0  0  0  0  0  0  0
    1.4968   -0.1333   -5.6631 N   0  0  0  0  0  0  0  0  0  0  0  0
    1.9735   -1.4532   -6.0611 C   0  0  0  0  0  0  0  0  0  0  0  0
    0.9861    0.4274   -6.3399 H   0  0  0  0  0  0  0  0  0  0  0  0
    3.0534   -1.5367   -5.8991 H   0  0  0  0  0  0  0  0  0  0  0  0
    1.4688   -2.2336   -5.4817 H   0  0  0  0  0  0  0  0  0  0  0  0
    1.7712   -1.6260   -7.1228 H   0  0  0  0  0  0  0  0  0  0  0  0
  1  2  2  0  0  0  0
  1  3  1  0  0  0  0
  1  7  1  0  0  0  0
  3  4  1  0  0  0  0
  3  5  1  0  0  0  0
  3  6  1  0  0  0  0
  7  8  1  0  0  0  0
  7 12  1  0  0  0  0
  8  9  1  0  0  0  0
  8 11  1  0  0  0  0
  8 13  1  0  0  0  0
  9 10  2  0  0  0  0
  9 17  1  0  0  0  0
 11 14  1  0  0  0  0
 11 15  1  0  0  0  0
 11 16  1  0  0  0  0
 17 18  1  0  0  0  0
 17 27  1  0  0  0  0
 18 19  1  0  0  0  0
 18 21  1  0  0  0  0
 18 28  1  0  0  0  0
 19 20  2  0  0  0  0
 19 35  1  0  0  0  0
 21 22  1  0  0  0  0
 21 29  1  0  0  0  0
 21 30  1  0  0  0  0
 22 23  1  0  0  0  0
 22 24  2  0  0  0  0
 23 25  2  0  0  0  0
 23 31  1  0  0  0  0
 24 26  1  0  0  0  0
 24 32  1  0  0  0  0
 25 26  1  0  0  0  0
 25 33  1  0  0  0  0
 26 34  1  0  0  0  0
 35 36  1  0  0  0  0
 35 40  1  0  0  0  0
 36 37  1  0  0  0  0
 36 39  1  0  0  0  0
 36 41  1  0  0  0  0
 37 38  2  0  0  0  0
 37 45  1  0  0  0  0
 39 42  1  0  0  0  0
 39 43  1  0  0  0  0
 39 44  1  0  0  0  0
 45 46  1  0  0  0  0
 45 47  1  0  0  0  0
 46 48  1  0  0  0  0
 46 49  1  0  0  0  0
 46 50  1  0  0  0  0
M  CHG  1  23   1
M  END
$$$$

  -OEChem-05262216443D

 50 50  0     1  0  0  0  0  0999 V2000
   -1.6309    0.2014    4.8469 C   0  0  0  0  0  0  0  0  0  0  0  0
   -1.7126   -0.8648    4.2491 O   0  0  0  0  0  0  0  0  0  0  0  0
   -1.4208    0.2081    6.3488 C   0  0  0  0  0  0  0  0  0  0  0  0
   -1.5122   -0.8053    6.7496 H   0  0  0  0  0  0  0  0  0  0  0  0
   -0.4258    0.5936    6.5840 H   0  0  0  0  0  0  0  0  0  0  0  0
   -2.1710    0.8414    6.8291 H   0  0  0  0  0  0  0  0  0  0  0  0
   -1.6911    1.3990    4.1633 N   0  0  0  0  0  0  0  0  0  0  0  0
   -1.7994    1.5144    2.7004 C   0  0  2  0  0  0  0  0  0  0  0  0
   -0.4600    1.3220    1.9441 C   0  0  0  0  0  0  0  0  0  0  0  0
    0.5697    1.0208    2.5404 O   0  0  0  0  0  0  0  0  0  0  0  0
   -2.4048    2.8906    2.4038 C   0  0  0  0  0  0  0  0  0  0  0  0
   -1.4868    2.2389    4.6984 H   0  0  0  0  0  0  0  0  0  0  0  0
   -2.4937    0.7512    2.3329 H   0  0  0  0  0  0  0  0  0  0  0  0
   -1.7200    3.6876    2.7119 H   0  0  0  0  0  0  0  0  0  0  0  0
   -2.6085    3.0027    1.3343 H   0  0  0  0  0  0  0  0  0  0  0  0
   -3.3496    3.0145    2.9431 H   0  0  0  0  0  0  0  0  0  0  0  0
   -0.3906    1.4887    0.5697 N   0  0  0  0  0  0  0  0  0  0  0  0
    0.5865    0.8254   -0.3168 C   0  0  2  0  0  0  0  0  0  0  0  0
    0.3269    1.2889   -1.7627 C   0  0  0  0  0  0  0  0  0  0  0  0
   -0.8162    1.2605   -2.2036 O   0  0  0  0  0  0  0  0  0  0  0  0
    0.4193   -0.7201   -0.3945 C   0  0  0  0  0  0  0  0  0  0  0  0
    0.6586   -1.4386    0.9041 C   0  0  0  0  0  0  0  0  0  0  0  0
    1.8781   -1.6975    1.5294 N   0  3  0  0  0  0  0  0  0  0  0  0
   -0.3316   -1.9438    1.7041 C   0  0  0  0  0  0  0  0  0  0  0  0
    1.6692   -2.2375    2.7066 C   0  0  0  0  0  0  0  0  0  0  0  0
    0.2959   -2.4262    2.8399 N   0  0  0  0  0  0  0  0  0  0  0  0
   -1.2601    1.7726    0.1161 H   0  0  0  0  0  0  0  0  0  0  0  0
    1.6041    1.0920   -0.0149 H   0  0  0  0  0  0  0  0  0  0  0  0
    1.1058   -1.1262   -1.1463 H   0  0  0  0  0  0  0  0  0  0  0  0
   -0.5960   -0.9479   -0.7389 H   0  0  0  0  0  0  0  0  0  0  0  0
    2.7701   -1.3526    1.1694 H   0  0  0  0  0  0  0  0  0  0  0  0
   -1.4058   -1.8900    1.5327 H   0  0  0  0  0  0  0  0  0  0  0  0
    2.4247   -2.4601    3.4604 H   0  0  0  0  0  0  0  0  0  0  0  0
   -0.1992   -2.6426    3.7122 H   0  0  0  0  0  0  0  0  0  0  0  0
    1.3800    1.6552   -2.5783 N   0  0  0  0  0  0  0  0  0  0  0  0
    1.2907    1.4793   -4.0350 C   0  0  2  0  0  0  0  0  0  0  0  0
    1.5417    0.0072   -4.4372 C   0  0  0  0  0  0  0  0  0  0  0  0
    2.0444   -0.7705   -3.6294 O   0  0  0  0  0  0  0  0  0  0  0  0
    2.3242    2.4036   -4.6836 C   0  0  0  0  0  0  0  0  0  0  0  0
    2.3026    1.5162   -2.1753 H   0  0  0  0  0  0  0  0  0  0  0  0
    0.2958    1.7674   -4.3924 H   0  0  0  0  0  0  0  0  0  0  0  0
    3.3367    2.1326   -4.3672 H   0  0  0  0  0  0  0  0  0  0  0  0
    2.2720    2.3324   -5.7746 H   0  0  0  0  0  0  0  0  0  0  0  0
    2.1354    3.4433   -4.3976 H   0  0  0  0  0  0  0  0  0  0  0  0
    1.1971   -0.4505   -5.6946 N   0  0  0  0  0  0  0  0  0  0  0  0
    1.3850   -1.8317   -6.1256 C   0  0  0  0  0  0  0  0  0  0  0  0
    0.7454    0.2028   -6.3292 H   0  0  0  0  0  0  0  0  0  0  0  0
    2.4420   -2.1123   -6.0664 H   0  0  0  0  0  0  0  0  0  0  0  0
    0.8038   -2.5133   -5.4955 H   0  0  0  0  0  0  0  0  0  0  0  0
    1.0544   -1.9538   -7.1619 H   0  0  0  0  0  0  0  0  0  0  0  0
  1  2  2  0  0  0  0
  1  3  1  0  0  0  0
  1  7  1  0  0  0  0
  3  4  1  0  0  0  0
  3  5  1  0  0  0  0
  3  6  1  0  0  0  0
  7  8  1  0  0  0  0
  7 12  1  0  0  0  0
  8  9  1  0  0  0  0
  8 11  1  0  0  0  0
  8 13  1  0  0  0  0
  9 10  2  0  0  0  0
  9 17  1  0  0  0  0
 11 14  1  0  0  0  0
 11 15  1  0  0  0  0
 11 16  1  0  0  0  0
 17 18  1  0  0  0  0
 17 27  1  0  0  0  0
 18 19  1  0  0  0  0
 18 21  1  0  0  0  0
 18 28  1  0  0  0  0
 19 20  2  0  0  0  0
 19 35  1  0  0  0  0
 21 22  1  0  0  0  0
 21 29  1  0  0  0  0
 21 30  1  0  0  0  0
 22 23  1  0  0  0  0
 22 24  2  0  0  0  0
 23 25  2  0  0  0  0
 23 31  1  0  0  0  0
 24 26  1  0  0  0  0
 24 32  1  0  0  0  0
 25 26  1  0  0  0  0
 25 33  1  0  0  0  0
 26 34  1  0  0  0  0
 35 36  1  0  0  0  0
 35 40  1  0  0  0  0
 36 37  1  0  0  0  0
 36 39  1  0  0  0  0
 36 41  1  0  0  0  0
 37 38  2  0  0  0  0
 37 45  1  0  0  0  0
 39 42  1  0  0  0  0
 39 43  1  0  0  0  0
 39 44  1  0  0  0  0
 45 46  1  0  0  0  0
 45 47  1  0  0  0  0
 46 48  1  0  0  0  0
 46 49  1  0  0  0  0
 46 50  1  0  0  0  0
M  CHG  1  23   1
M  END
$$$$

  -OEChem-05262216443D

 50 50  0     1  0  0  0  0  0999 V2000
   -1.6907    0.2529    4.8252 C   0  0  0  0  0  0  0  0  0  0  0  0
   -1.7796   -0.8179    4.2360 O   0  0  0  0  0  0  0  0  0  0  0  0
   -1.5308    0.2717    6.3332 C   0  0  0  0  0  0  0  0  0  0  0  0
   -1.6694   -0.7330    6.7416 H   0  0  0  0  0  0  0  0  0  0  0  0
   -0.5322    0.6275    6.5987 H   0  0  0  0  0  0  0  0  0  0  0  0
   -2.2759    0.9346    6.7804 H   0  0  0  0  0  0  0  0  0  0  0  0
   -1.7006    1.4441    4.1278 N   0  0  0  0  0  0  0  0  0  0  0  0
   -1.7598    1.5455    2.6609 C   0  0  2  0  0  0  0  0  0  0  0  0
   -0.4016    1.3100    1.9514 C   0  0  0  0  0  0  0  0  0  0  0  0
    0.5972    0.9803    2.5840 O   0  0  0  0  0  0  0  0  0  0  0  0
   -2.3213    2.9324    2.3298 C   0  0  0  0  0  0  0  0  0  0  0  0
   -1.4910    2.2846    4.6601 H   0  0  0  0  0  0  0  0  0  0  0  0
   -2.4616    0.7959    2.2800 H   0  0  0  0  0  0  0  0  0  0  0  0
   -1.6234    3.7157    2.6431 H   0  0  0  0  0  0  0  0  0  0  0  0
   -2.4955    3.0332    1.2539 H   0  0  0  0  0  0  0  0  0  0  0  0
   -3.2753    3.0891    2.8438 H   0  0  0  0  0  0  0  0  0  0  0  0
   -0.2784    1.4667    0.5798 N   0  0  0  0  0  0  0  0  0  0  0  0
    0.7194    0.7878   -0.2725 C   0  0  2  0  0  0  0  0  0  0  0  0
    0.5130    1.2517   -1.7291 C   0  0  0  0  0  0  0  0  0  0  0  0
   -0.6261    1.4500   -2.1364 O   0  0  0  0  0  0  0  0  0  0  0  0
    0.5062   -0.7521   -0.3565 C   0  0  0  0  0  0  0  0  0  0  0  0
    0.6712   -1.4775    0.9511 C   0  0  0  0  0  0  0  0  0  0  0  0
    1.8530   -1.7775    1.6286 N   0  3  0  0  0  0  0  0  0  0  0  0
   -0.3690   -1.9502    1.7072 C   0  0  0  0  0  0  0  0  0  0  0  0
    1.5746   -2.3091    2.7953 C   0  0  0  0  0  0  0  0  0  0  0  0
    0.1916   -2.4527    2.8689 N   0  0  0  0  0  0  0  0  0  0  0  0
   -1.1142    1.7909    0.0900 H   0  0  0  0  0  0  0  0  0  0  0  0
    1.7328    1.0317    0.0620 H   0  0  0  0  0  0  0  0  0  0  0  0
    1.2086   -1.1841   -1.0780 H   0  0  0  0  0  0  0  0  0  0  0  0
   -0.5012   -0.9457   -0.7438 H   0  0  0  0  0  0  0  0  0  0  0  0
    2.7699   -1.4556    1.3134 H   0  0  0  0  0  0  0  0  0  0  0  0
   -1.4324   -1.8614    1.4896 H   0  0  0  0  0  0  0  0  0  0  0  0
    2.2886   -2.5537    3.5817 H   0  0  0  0  0  0  0  0  0  0  0  0
   -0.3476   -2.6439    3.7210 H   0  0  0  0  0  0  0  0  0  0  0  0
    1.5823    1.3073   -2.6029 N   0  0  0  0  0  0  0  0  0  0  0  0
    1.3947    1.1545   -4.0533 C   0  0  2  0  0  0  0  0  0  0  0  0
    1.3346   -0.3359   -4.4569 C   0  0  0  0  0  0  0  0  0  0  0  0
    1.7126   -1.1983   -3.6679 O   0  0  0  0  0  0  0  0  0  0  0  0
    2.5603    1.8604   -4.7506 C   0  0  0  0  0  0  0  0  0  0  0  0
    2.4631    0.9603   -2.2339 H   0  0  0  0  0  0  0  0  0  0  0  0
    0.4617    1.6328   -4.3713 H   0  0  0  0  0  0  0  0  0  0  0  0
    3.5132    1.3984   -4.4728 H   0  0  0  0  0  0  0  0  0  0  0  0
    2.4511    1.8005   -5.8380 H   0  0  0  0  0  0  0  0  0  0  0  0
    2.5878    2.9170   -4.4657 H   0  0  0  0  0  0  0  0  0  0  0  0
    0.8566   -0.7124   -5.6973 N   0  0  0  0  0  0  0  0  0  0  0  0
    0.7575   -2.1018   -6.1303 C   0  0  0  0  0  0  0  0  0  0  0  0
    0.5164    0.0187   -6.3161 H   0  0  0  0  0  0  0  0  0  0  0  0
    1.7402   -2.5846   -6.1000 H   0  0  0  0  0  0  0  0  0  0  0  0
    0.0716   -2.6575   -5.4822 H   0  0  0  0  0  0  0  0  0  0  0  0
    0.3807   -2.1536   -7.1566 H   0  0  0  0  0  0  0  0  0  0  0  0
  1  2  2  0  0  0  0
  1  3  1  0  0  0  0
  1  7  1  0  0  0  0
  3  4  1  0  0  0  0
  3  5  1  0  0  0  0
  3  6  1  0  0  0  0
  7  8  1  0  0  0  0
  7 12  1  0  0  0  0
  8  9  1  0  0  0  0
  8 11  1  0  0  0  0
  8 13  1  0  0  0  0
  9 10  2  0  0  0  0
  9 17  1  0  0  0  0
 11 14  1  0  0  0  0
 11 15  1  0  0  0  0
 11 16  1  0  0  0  0
 17 18  1  0  0  0  0
 17 27  1  0  0  0  0
 18 19  1  0  0  0  0
 18 21  1  0  0  0  0
 18 28  1  0  0  0  0
 19 20  2  0  0  0  0
 19 35  1  0  0  0  0
 21 22  1  0  0  0  0
 21 29  1  0  0  0  0
 21 30  1  0  0  0  0
 22 23  1  0  0  0  0
 22 24  2  0  0  0  0
 23 25  2  0  0  0  0
 23 31  1  0  0  0  0
 24 26  1  0  0  0  0
 24 32  1  0  0  0  0
 25 26  1  0  0  0  0
 25 33  1  0  0  0  0
 26 34  1  0  0  0  0
 35 36  1  0  0  0  0
 35 40  1  0  0  0  0
 36 37  1  0  0  0  0
 36 39  1  0  0  0  0
 36 41  1  0  0  0  0
 37 38  2  0  0  0  0
 37 45  1  0  0  0  0
 39 42  1  0  0  0  0
 39 43  1  0  0  0  0
 39 44  1  0  0  0  0
 45 46  1  0  0  0  0
 45 47  1  0  0  0  0
 46 48  1  0  0  0  0
 46 49  1  0  0  0  0
 46 50  1  0  0  0  0
M  CHG  1  23   1
M  END
$$$$

  -OEChem-05262216443D

 50 50  0     1  0  0  0  0  0999 V2000
   -1.8169    0.2491    4.7114 C   0  0  0  0  0  0  0  0  0  0  0  0
   -1.8737   -0.8166    4.1093 O   0  0  0  0  0  0  0  0  0  0  0  0
   -1.7548    0.2561    6.2266 C   0  0  0  0  0  0  0  0  0  0  0  0
   -1.8806   -0.7577    6.6164 H   0  0  0  0  0  0  0  0  0  0  0  0
   -0.7894    0.6453    6.5588 H   0  0  0  0  0  0  0  0  0  0  0  0
   -2.5511    0.8864    6.6309 H   0  0  0  0  0  0  0  0  0  0  0  0
   -1.7769    1.4456    4.0246 N   0  0  0  0  0  0  0  0  0  0  0  0
   -1.7459    1.5584    2.5579 C   0  0  2  0  0  0  0  0  0  0  0  0
   -0.3547    1.2978    1.9265 C   0  0  0  0  0  0  0  0  0  0  0  0
    0.6071    0.9726    2.6166 O   0  0  0  0  0  0  0  0  0  0  0  0
   -2.2519    2.9612    2.2049 C   0  0  0  0  0  0  0  0  0  0  0  0
   -1.5973    2.2812    4.5753 H   0  0  0  0  0  0  0  0  0  0  0  0
   -2.4408    0.8280    2.1297 H   0  0  0  0  0  0  0  0  0  0  0  0
   -1.5621    3.7249    2.5791 H   0  0  0  0  0  0  0  0  0  0  0  0
   -2.3438    3.0788    1.1205 H   0  0  0  0  0  0  0  0  0  0  0  0
   -3.2378    3.1335    2.6491 H   0  0  0  0  0  0  0  0  0  0  0  0
   -0.1608    1.4360    0.5615 N   0  0  0  0  0  0  0  0  0  0  0  0
    0.8868    0.7678   -0.2378 C   0  0  2  0  0  0  0  0  0  0  0  0
    0.7339    1.2199   -1.7089 C   0  0  0  0  0  0  0  0  0  0  0  0
   -0.3564    1.6219   -2.1014 O   0  0  0  0  0  0  0  0  0  0  0  0
    0.6869   -0.7755   -0.3131 C   0  0  0  0  0  0  0  0  0  0  0  0
    0.7932   -1.4861    1.0089 C   0  0  0  0  0  0  0  0  0  0  0  0
    1.9381   -1.7754    1.7524 N   0  3  0  0  0  0  0  0  0  0  0  0
   -0.2836   -1.9627    1.7093 C   0  0  0  0  0  0  0  0  0  0  0  0
    1.5986   -2.2991    2.9065 C   0  0  0  0  0  0  0  0  0  0  0  0
    0.2148   -2.4527    2.9039 N   0  0  0  0  0  0  0  0  0  0  0  0
   -0.9584    1.7813    0.0239 H   0  0  0  0  0  0  0  0  0  0  0  0
    1.8808    1.0294    0.1380 H   0  0  0  0  0  0  0  0  0  0  0  0
    1.4274   -1.2145   -0.9894 H   0  0  0  0  0  0  0  0  0  0  0  0
   -0.2977   -0.9806   -0.7502 H   0  0  0  0  0  0  0  0  0  0  0  0
    2.8679   -1.4424    1.4919 H   0  0  0  0  0  0  0  0  0  0  0  0
   -1.3338   -1.8849    1.4313 H   0  0  0  0  0  0  0  0  0  0  0  0
    2.2682   -2.5307    3.7350 H   0  0  0  0  0  0  0  0  0  0  0  0
   -0.3700   -2.6468    3.7242 H   0  0  0  0  0  0  0  0  0  0  0  0
    1.7503    1.0059   -2.6227 N   0  0  0  0  0  0  0  0  0  0  0  0
    1.4676    0.8466   -4.0577 C   0  0  2  0  0  0  0  0  0  0  0  0
    1.0091   -0.5922   -4.3869 C   0  0  0  0  0  0  0  0  0  0  0  0
    1.2336   -1.5013   -3.5920 O   0  0  0  0  0  0  0  0  0  0  0  0
    2.7423    1.1966   -4.8289 C   0  0  0  0  0  0  0  0  0  0  0  0
    2.5576    0.4998   -2.2709 H   0  0  0  0  0  0  0  0  0  0  0  0
    0.6765    1.5380   -4.3682 H   0  0  0  0  0  0  0  0  0  0  0  0
    3.5540    0.5114   -4.5634 H   0  0  0  0  0  0  0  0  0  0  0  0
    2.5690    1.1262   -5.9073 H   0  0  0  0  0  0  0  0  0  0  0  0
    3.0579    2.2190   -4.5972 H   0  0  0  0  0  0  0  0  0  0  0  0
    0.3446   -0.8690   -5.5665 N   0  0  0  0  0  0  0  0  0  0  0  0
   -0.1485   -2.1964   -5.9171 C   0  0  0  0  0  0  0  0  0  0  0  0
    0.1301   -0.0894   -6.1826 H   0  0  0  0  0  0  0  0  0  0  0  0
    0.6752   -2.9176   -5.9489 H   0  0  0  0  0  0  0  0  0  0  0  0
   -0.8870   -2.5372   -5.1839 H   0  0  0  0  0  0  0  0  0  0  0  0
   -0.6253   -2.1757   -6.9022 H   0  0  0  0  0  0  0  0  0  0  0  0
  1  2  2  0  0  0  0
  1  3  1  0  0  0  0
  1  7  1  0  0  0  0
  3  4  1  0  0  0  0
  3  5  1  0  0  0  0
  3  6  1  0  0  0  0
  7  8  1  0  0  0  0
  7 12  1  0  0  0  0
  8  9  1  0  0  0  0
  8 11  1  0  0  0  0
  8 13  1  0  0  0  0
  9 10  2  0  0  0  0
  9 17  1  0  0  0  0
 11 14  1  0  0  0  0
 11 15  1  0  0  0  0
 11 16  1  0  0  0  0
 17 18  1  0  0  0  0
 17 27  1  0  0  0  0
 18 19  1  0  0  0  0
 18 21  1  0  0  0  0
 18 28  1  0  0  0  0
 19 20  2  0  0  0  0
 19 35  1  0  0  0  0
 21 22  1  0  0  0  0
 21 29  1  0  0  0  0
 21 30  1  0  0  0  0
 22 23  1  0  0  0  0
 22 24  2  0  0  0  0
 23 25  2  0  0  0  0
 23 31  1  0  0  0  0
 24 26  1  0  0  0  0
 24 32  1  0  0  0  0
 25 26  1  0  0  0  0
 25 33  1  0  0  0  0
 26 34  1  0  0  0  0
 35 36  1  0  0  0  0
 35 40  1  0  0  0  0
 36 37  1  0  0  0  0
 36 39  1  0  0  0  0
 36 41  1  0  0  0  0
 37 38  2  0  0  0  0
 37 45  1  0  0  0  0
 39 42  1  0  0  0  0
 39 43  1  0  0  0  0
 39 44  1  0  0  0  0
 45 46  1  0  0  0  0
 45 47  1  0  0  0  0
 46 48  1  0  0  0  0
 46 49  1  0  0  0  0
 46 50  1  0  0  0  0
M  CHG  1  23   1
M  END
$$$$

  -OEChem-05262216443D

 50 50  0     1  0  0  0  0  0999 V2000
   -2.0199    0.0380    4.5437 C   0  0  0  0  0  0  0  0  0  0  0  0
   -2.2190   -0.9094    3.7924 O   0  0  0  0  0  0  0  0  0  0  0  0
   -2.0522   -0.1744    6.0449 C   0  0  0  0  0  0  0  0  0  0  0  0
   -2.4129   -1.1800    6.2786 H   0  0  0  0  0  0  0  0  0  0  0  0
   -1.0493   -0.0525    6.4612 H   0  0  0  0  0  0  0  0  0  0  0  0
   -2.7228    0.5525    6.5104 H   0  0  0  0  0  0  0  0  0  0  0  0
   -1.7363    1.2913    4.0392 N   0  0  0  0  0  0  0  0  0  0  0  0
   -1.6241    1.6033    2.6055 C   0  0  2  0  0  0  0  0  0  0  0  0
   -0.2889    1.1630    1.9546 C   0  0  0  0  0  0  0  0  0  0  0  0
    0.5981    0.6313    2.6171 O   0  0  0  0  0  0  0  0  0  0  0  0
   -1.8243    3.1148    2.4571 C   0  0  0  0  0  0  0  0  0  0  0  0
   -1.4622    2.0041    4.7104 H   0  0  0  0  0  0  0  0  0  0  0  0
   -2.4329    1.0963    2.0683 H   0  0  0  0  0  0  0  0  0  0  0  0
   -1.0138    3.6608    2.9511 H   0  0  0  0  0  0  0  0  0  0  0  0
   -1.8407    3.4008    1.4007 H   0  0  0  0  0  0  0  0  0  0  0  0
   -2.7752    3.4191    2.9064 H   0  0  0  0  0  0  0  0  0  0  0  0
   -0.0866    1.3278    0.5928 N   0  0  0  0  0  0  0  0  0  0  0  0
    0.9763    0.6864   -0.2066 C   0  0  2  0  0  0  0  0  0  0  0  0
    1.0957    1.4130   -1.5688 C   0  0  0  0  0  0  0  0  0  0  0  0
    0.2325    2.2200   -1.8967 O   0  0  0  0  0  0  0  0  0  0  0  0
    0.5821   -0.7797   -0.5420 C   0  0  0  0  0  0  0  0  0  0  0  0
    0.4579   -1.6492    0.6800 C   0  0  0  0  0  0  0  0  0  0  0  0
    1.4718   -2.1870    1.4736 N   0  3  0  0  0  0  0  0  0  0  0  0
   -0.7392   -2.0084    1.2400 C   0  0  0  0  0  0  0  0  0  0  0  0
    0.9502   -2.7553    2.5347 C   0  0  0  0  0  0  0  0  0  0  0  0
   -0.4347   -2.6861    2.4080 N   0  0  0  0  0  0  0  0  0  0  0  0
   -0.7718    1.8810    0.0746 H   0  0  0  0  0  0  0  0  0  0  0  0
    1.9372    0.7357    0.3156 H   0  0  0  0  0  0  0  0  0  0  0  0
    1.3211   -1.2338   -1.2097 H   0  0  0  0  0  0  0  0  0  0  0  0
   -0.3704   -0.7738   -1.0853 H   0  0  0  0  0  0  0  0  0  0  0  0
    2.4601   -1.9731    1.3309 H   0  0  0  0  0  0  0  0  0  0  0  0
   -1.7328   -1.7242    0.8959 H   0  0  0  0  0  0  0  0  0  0  0  0
    1.4965   -3.1618    3.3860 H   0  0  0  0  0  0  0  0  0  0  0  0
   -1.1116   -2.8337    3.1659 H   0  0  0  0  0  0  0  0  0  0  0  0
    2.0267    1.0056   -2.5086 N   0  0  0  0  0  0  0  0  0  0  0  0
    1.7759    1.1607   -3.9500 C   0  0  2  0  0  0  0  0  0  0  0  0
    0.8910    0.0147   -4.4921 C   0  0  0  0  0  0  0  0  0  0  0  0
    0.7600   -1.0168   -3.8377 O   0  0  0  0  0  0  0  0  0  0  0  0
    3.1311    1.1831   -4.6608 C   0  0  0  0  0  0  0  0  0  0  0  0
    2.5912    0.2038   -2.2447 H   0  0  0  0  0  0  0  0  0  0  0  0
    1.2671    2.1104   -4.1491 H   0  0  0  0  0  0  0  0  0  0  0  0
    3.6634    0.2389   -4.5065 H   0  0  0  0  0  0  0  0  0  0  0  0
    2.9972    1.3335   -5.7367 H   0  0  0  0  0  0  0  0  0  0  0  0
    3.7484    2.0002   -4.2739 H   0  0  0  0  0  0  0  0  0  0  0  0
    0.2469    0.1339   -5.7089 N   0  0  0  0  0  0  0  0  0  0  0  0
   -0.6171   -0.9017   -6.2652 C   0  0  0  0  0  0  0  0  0  0  0  0
    0.3371    1.0152   -6.2074 H   0  0  0  0  0  0  0  0  0  0  0  0
   -0.0668   -1.8417   -6.3798 H   0  0  0  0  0  0  0  0  0  0  0  0
   -1.4786   -1.0753   -5.6117 H   0  0  0  0  0  0  0  0  0  0  0  0
   -0.9864   -0.5979   -7.2498 H   0  0  0  0  0  0  0  0  0  0  0  0
  1  2  2  0  0  0  0
  1  3  1  0  0  0  0
  1  7  1  0  0  0  0
  3  4  1  0  0  0  0
  3  5  1  0  0  0  0
  3  6  1  0  0  0  0
  7  8  1  0  0  0  0
  7 12  1  0  0  0  0
  8  9  1  0  0  0  0
  8 11  1  0  0  0  0
  8 13  1  0  0  0  0
  9 10  2  0  0  0  0
  9 17  1  0  0  0  0
 11 14  1  0  0  0  0
 11 15  1  0  0  0  0
 11 16  1  0  0  0  0
 17 18  1  0  0  0  0
 17 27  1  0  0  0  0
 18 19  1  0  0  0  0
 18 21  1  0  0  0  0
 18 28  1  0  0  0  0
 19 20  2  0  0  0  0
 19 35  1  0  0  0  0
 21 22  1  0  0  0  0
 21 29  1  0  0  0  0
 21 30  1  0  0  0  0
 22 23  1  0  0  0  0
 22 24  2  0  0  0  0
 23 25  2  0  0  0  0
 23 31  1  0  0  0  0
 24 26  1  0  0  0  0
 24 32  1  0  0  0  0
 25 26  1  0  0  0  0
 25 33  1  0  0  0  0
 26 34  1  0  0  0  0
 35 36  1  0  0  0  0
 35 40  1  0  0  0  0
 36 37  1  0  0  0  0
 36 39  1  0  0  0  0
 36 41  1  0  0  0  0
 37 38  2  0  0  0  0
 37 45  1  0  0  0  0
 39 42  1  0  0  0  0
 39 43  1  0  0  0  0
 39 44  1  0  0  0  0
 45 46  1  0  0  0  0
 45 47  1  0  0  0  0
 46 48  1  0  0  0  0
 46 49  1  0  0  0  0
 46 50  1  0  0  0  0
M  CHG  1  23   1
M  END
$$$$

  -OEChem-05262216443D

 50 50  0     1  0  0  0  0  0999 V2000
   -2.0748    0.1338    4.4638 C   0  0  0  0  0  0  0  0  0  0  0  0
   -2.3014   -0.8118    3.7179 O   0  0  0  0  0  0  0  0  0  0  0  0
   -2.1419   -0.0600    5.9664 C   0  0  0  0  0  0  0  0  0  0  0  0
   -2.4898   -1.0689    6.2047 H   0  0  0  0  0  0  0  0  0  0  0  0
   -1.1526    0.0864    6.4068 H   0  0  0  0  0  0  0  0  0  0  0  0
   -2.8368    0.6611    6.4040 H   0  0  0  0  0  0  0  0  0  0  0  0
   -1.7274    1.3683    3.9530 N   0  0  0  0  0  0  0  0  0  0  0  0
   -1.5565    1.6524    2.5195 C   0  0  2  0  0  0  0  0  0  0  0  0
   -0.2243    1.1371    1.9208 C   0  0  0  0  0  0  0  0  0  0  0  0
    0.6120    0.5715    2.6201 O   0  0  0  0  0  0  0  0  0  0  0  0
   -1.6784    3.1691    2.3403 C   0  0  0  0  0  0  0  0  0  0  0  0
   -1.4199    2.0690    4.6225 H   0  0  0  0  0  0  0  0  0  0  0  0
   -2.3712    1.1758    1.9639 H   0  0  0  0  0  0  0  0  0  0  0  0
   -0.8536    3.6842    2.8437 H   0  0  0  0  0  0  0  0  0  0  0  0
   -1.6561    3.4366    1.2791 H   0  0  0  0  0  0  0  0  0  0  0  0
   -2.6232    3.5277    2.7614 H   0  0  0  0  0  0  0  0  0  0  0  0
    0.0326    1.2777    0.5661 N   0  0  0  0  0  0  0  0  0  0  0  0
    1.0950    0.5872   -0.1933 C   0  0  2  0  0  0  0  0  0  0  0  0
    1.2801    1.3063   -1.5576 C   0  0  0  0  0  0  0  0  0  0  0  0
    0.6028    2.2983   -1.8053 O   0  0  0  0  0  0  0  0  0  0  0  0
    0.6396   -0.8683   -0.5111 C   0  0  0  0  0  0  0  0  0  0  0  0
    0.4417   -1.7138    0.7183 C   0  0  0  0  0  0  0  0  0  0  0  0
    1.4060   -2.2880    1.5472 N   0  3  0  0  0  0  0  0  0  0  0  0
   -0.7871   -2.0199    1.2412 C   0  0  0  0  0  0  0  0  0  0  0  0
    0.8266   -2.8269    2.5938 C   0  0  0  0  0  0  0  0  0  0  0  0
   -0.5494   -2.7013    2.4222 N   0  0  0  0  0  0  0  0  0  0  0  0
   -0.5801    1.8954    0.0304 H   0  0  0  0  0  0  0  0  0  0  0  0
    2.0427    0.6018    0.3546 H   0  0  0  0  0  0  0  0  0  0  0  0
    1.3704   -1.3737   -1.1495 H   0  0  0  0  0  0  0  0  0  0  0  0
   -0.2989   -0.8263   -1.0770 H   0  0  0  0  0  0  0  0  0  0  0  0
    2.4064   -2.1142    1.4369 H   0  0  0  0  0  0  0  0  0  0  0  0
   -1.7572   -1.7014    0.8618 H   0  0  0  0  0  0  0  0  0  0  0  0
    1.3277   -3.2510    3.4639 H   0  0  0  0  0  0  0  0  0  0  0  0
   -1.2575   -2.8236    3.1557 H   0  0  0  0  0  0  0  0  0  0  0  0
    1.9814    0.7133   -2.5943 N   0  0  0  0  0  0  0  0  0  0  0  0
    1.6036    0.9226   -4.0009 C   0  0  2  0  0  0  0  0  0  0  0  0
    0.5031   -0.0736   -4.4292 C   0  0  0  0  0  0  0  0  0  0  0  0
    0.3027   -1.0834   -3.7585 O   0  0  0  0  0  0  0  0  0  0  0  0
    2.8599    0.7454   -4.8565 C   0  0  0  0  0  0  0  0  0  0  0  0
    2.3757   -0.1986   -2.3852 H   0  0  0  0  0  0  0  0  0  0  0  0
    1.2253    1.9395   -4.1533 H   0  0  0  0  0  0  0  0  0  0  0  0
    3.2622   -0.2668   -4.7469 H   0  0  0  0  0  0  0  0  0  0  0  0
    2.6310    0.9145   -5.9133 H   0  0  0  0  0  0  0  0  0  0  0  0
    3.6292    1.4622   -4.5522 H   0  0  0  0  0  0  0  0  0  0  0  0
   -0.2631    0.1574   -5.5552 N   0  0  0  0  0  0  0  0  0  0  0  0
   -1.3241   -0.7388   -6.0014 C   0  0  0  0  0  0  0  0  0  0  0  0
   -0.1005    1.0183   -6.0709 H   0  0  0  0  0  0  0  0  0  0  0  0
   -0.9222   -1.7357   -6.2121 H   0  0  0  0  0  0  0  0  0  0  0  0
   -2.1012   -0.8267   -5.2347 H   0  0  0  0  0  0  0  0  0  0  0  0
   -1.7857   -0.3534   -6.9159 H   0  0  0  0  0  0  0  0  0  0  0  0
  1  2  2  0  0  0  0
  1  3  1  0  0  0  0
  1  7  1  0  0  0  0
  3  4  1  0  0  0  0
  3  5  1  0  0  0  0
  3  6  1  0  0  0  0
  7  8  1  0  0  0  0
  7 12  1  0  0  0  0
  8  9  1  0  0  0  0
  8 11  1  0  0  0  0
  8 13  1  0  0  0  0
  9 10  2  0  0  0  0
  9 17  1  0  0  0  0
 11 14  1  0  0  0  0
 11 15  1  0  0  0  0
 11 16  1  0  0  0  0
 17 18  1  0  0  0  0
 17 27  1  0  0  0  0
 18 19  1  0  0  0  0
 18 21  1  0  0  0  0
 18 28  1  0  0  0  0
 19 20  2  0  0  0  0
 19 35  1  0  0  0  0
 21 22  1  0  0  0  0
 21 29  1  0  0  0  0
 21 30  1  0  0  0  0
 22 23  1  0  0  0  0
 22 24  2  0  0  0  0
 23 25  2  0  0  0  0
 23 31  1  0  0  0  0
 24 26  1  0  0  0  0
 24 32  1  0  0  0  0
 25 26  1  0  0  0  0
 25 33  1  0  0  0  0
 26 34  1  0  0  0  0
 35 36  1  0  0  0  0
 35 40  1  0  0  0  0
 36 37  1  0  0  0  0
 36 39  1  0  0  0  0
 36 41  1  0  0  0  0
 37 38  2  0  0  0  0
 37 45  1  0  0  0  0
 39 42  1  0  0  0  0
 39 43  1  0  0  0  0
 39 44  1  0  0  0  0
 45 46  1  0  0  0  0
 45 47  1  0  0  0  0
 46 48  1  0  0  0  0
 46 49  1  0  0  0  0
 46 50  1  0  0  0  0
M  CHG  1  23   1
M  END
$$$$

  -OEChem-05262216443D

 50 50  0     1  0  0  0  0  0999 V2000
   -2.1128    0.2185    4.4012 C   0  0  0  0  0  0  0  0  0  0  0  0
   -2.2851   -0.7866    3.7214 O   0  0  0  0  0  0  0  0  0  0  0  0
   -2.2310    0.1363    5.9111 C   0  0  0  0  0  0  0  0  0  0  0  0
   -2.5611   -0.8615    6.2127 H   0  0  0  0  0  0  0  0  0  0  0  0
   -1.2628    0.3438    6.3734 H   0  0  0  0  0  0  0  0  0  0  0  0
   -2.9603    0.8677    6.2687 H   0  0  0  0  0  0  0  0  0  0  0  0
   -1.7811    1.4219    3.8117 N   0  0  0  0  0  0  0  0  0  0  0  0
   -1.5709    1.6104    2.3676 C   0  0  2  0  0  0  0  0  0  0  0  0
   -0.2162    1.0747    1.8404 C   0  0  0  0  0  0  0  0  0  0  0  0
    0.6025    0.5595    2.5971 O   0  0  0  0  0  0  0  0  0  0  0  0
   -1.7036    3.1112    2.0895 C   0  0  0  0  0  0  0  0  0  0  0  0
   -1.5315    2.1834    4.4374 H   0  0  0  0  0  0  0  0  0  0  0  0
   -2.3643    1.0882    1.8220 H   0  0  0  0  0  0  0  0  0  0  0  0
   -0.9061    3.6678    2.5928 H   0  0  0  0  0  0  0  0  0  0  0  0
   -1.6418    3.3135    1.0158 H   0  0  0  0  0  0  0  0  0  0  0  0
   -2.6687    3.4820    2.4499 H   0  0  0  0  0  0  0  0  0  0  0  0
    0.0841    1.1448    0.4887 N   0  0  0  0  0  0  0  0  0  0  0  0
    1.1754    0.4257   -0.2008 C   0  0  2  0  0  0  0  0  0  0  0  0
    1.3895    1.0836   -1.5945 C   0  0  0  0  0  0  0  0  0  0  0  0
    0.9346    2.2042   -1.7947 O   0  0  0  0  0  0  0  0  0  0  0  0
    0.7578   -1.0583   -0.4310 C   0  0  0  0  0  0  0  0  0  0  0  0
    0.5497   -1.8256    0.8471 C   0  0  0  0  0  0  0  0  0  0  0  0
    1.5063   -2.3226    1.7333 N   0  3  0  0  0  0  0  0  0  0  0  0
   -0.6846   -2.1223    1.3622 C   0  0  0  0  0  0  0  0  0  0  0  0
    0.9128   -2.7951    2.8039 C   0  0  0  0  0  0  0  0  0  0  0  0
   -0.4612   -2.7125    2.5937 N   0  0  0  0  0  0  0  0  0  0  0  0
   -0.4960    1.7545   -0.0896 H   0  0  0  0  0  0  0  0  0  0  0  0
    2.1076    0.4909    0.3695 H   0  0  0  0  0  0  0  0  0  0  0  0
    1.5177   -1.5879   -1.0121 H   0  0  0  0  0  0  0  0  0  0  0  0
   -0.1690   -1.0751   -1.0173 H   0  0  0  0  0  0  0  0  0  0  0  0
    2.5043   -2.1249    1.6398 H   0  0  0  0  0  0  0  0  0  0  0  0
   -1.6512   -1.8489    0.9412 H   0  0  0  0  0  0  0  0  0  0  0  0
    1.4010   -3.1381    3.7162 H   0  0  0  0  0  0  0  0  0  0  0  0
   -1.1818   -2.7850    3.3217 H   0  0  0  0  0  0  0  0  0  0  0  0
    1.8473    0.3649   -2.6877 N   0  0  0  0  0  0  0  0  0  0  0  0
    1.4108    0.6855   -4.0553 C   0  0  2  0  0  0  0  0  0  0  0  0
    0.0417    0.0390   -4.3622 C   0  0  0  0  0  0  0  0  0  0  0  0
   -0.3594   -0.8941   -3.6708 O   0  0  0  0  0  0  0  0  0  0  0  0
    2.4801    0.1711   -5.0215 C   0  0  0  0  0  0  0  0  0  0  0  0
    2.0285   -0.6183   -2.5155 H   0  0  0  0  0  0  0  0  0  0  0  0
    1.3189    1.7691   -4.1884 H   0  0  0  0  0  0  0  0  0  0  0  0
    2.5853   -0.9155   -4.9378 H   0  0  0  0  0  0  0  0  0  0  0  0
    2.2118    0.4143   -6.0544 H   0  0  0  0  0  0  0  0  0  0  0  0
    3.4466    0.6344   -4.7990 H   0  0  0  0  0  0  0  0  0  0  0  0
   -0.7370    0.4953   -5.4080 N   0  0  0  0  0  0  0  0  0  0  0  0
   -2.0437   -0.0629   -5.7372 C   0  0  0  0  0  0  0  0  0  0  0  0
   -0.3952    1.2899   -5.9421 H   0  0  0  0  0  0  0  0  0  0  0  0
   -1.9576   -1.1289   -5.9739 H   0  0  0  0  0  0  0  0  0  0  0  0
   -2.7354    0.0563   -4.8963 H   0  0  0  0  0  0  0  0  0  0  0  0
   -2.4664    0.4499   -6.6069 H   0  0  0  0  0  0  0  0  0  0  0  0
  1  2  2  0  0  0  0
  1  3  1  0  0  0  0
  1  7  1  0  0  0  0
  3  4  1  0  0  0  0
  3  5  1  0  0  0  0
  3  6  1  0  0  0  0
  7  8  1  0  0  0  0
  7 12  1  0  0  0  0
  8  9  1  0  0  0  0
  8 11  1  0  0  0  0
  8 13  1  0  0  0  0
  9 10  2  0  0  0  0
  9 17  1  0  0  0  0
 11 14  1  0  0  0  0
 11 15  1  0  0  0  0
 11 16  1  0  0  0  0
 17 18  1  0  0  0  0
 17 27  1  0  0  0  0
 18 19  1  0  0  0  0
 18 21  1  0  0  0  0
 18 28  1  0  0  0  0
 19 20  2  0  0  0  0
 19 35  1  0  0  0  0
 21 22  1  0  0  0  0
 21 29  1  0  0  0  0
 21 30  1  0  0  0  0
 22 23  1  0  0  0  0
 22 24  2  0  0  0  0
 23 25  2  0  0  0  0
 23 31  1  0  0  0  0
 24 26  1  0  0  0  0
 24 32  1  0  0  0  0
 25 26  1  0  0  0  0
 25 33  1  0  0  0  0
 26 34  1  0  0  0  0
 35 36  1  0  0  0  0
 35 40  1  0  0  0  0
 36 37  1  0  0  0  0
 36 39  1  0  0  0  0
 36 41  1  0  0  0  0
 37 38  2  0  0  0  0
 37 45  1  0  0  0  0
 39 42  1  0  0  0  0
 39 43  1  0  0  0  0
 39 44  1  0  0  0  0
 45 46  1  0  0  0  0
 45 47  1  0  0  0  0
 46 48  1  0  0  0  0
 46 49  1  0  0  0  0
 46 50  1  0  0  0  0
M  CHG  1  23   1
M  END
$$$$

  -OEChem-05262216443D

 50 50  0     1  0  0  0  0  0999 V2000
   -2.1180    0.3083    4.3326 C   0  0  0  0  0  0  0  0  0  0  0  0
   -2.2584   -0.7591    3.7463 O   0  0  0  0  0  0  0  0  0  0  0  0
   -2.2041    0.3522    5.8462 C   0  0  0  0  0  0  0  0  0  0  0  0
   -2.5255   -0.6171    6.2372 H   0  0  0  0  0  0  0  0  0  0  0  0
   -1.2262    0.5966    6.2683 H   0  0  0  0  0  0  0  0  0  0  0  0
   -2.9261    1.1113    6.1584 H   0  0  0  0  0  0  0  0  0  0  0  0
   -1.8384    1.4665    3.6352 N   0  0  0  0  0  0  0  0  0  0  0  0
   -1.6188    1.5247    2.1811 C   0  0  2  0  0  0  0  0  0  0  0  0
   -0.2264    1.0200    1.7253 C   0  0  0  0  0  0  0  0  0  0  0  0
    0.5849    0.5800    2.5357 O   0  0  0  0  0  0  0  0  0  0  0  0
   -1.8379    2.9782    1.7493 C   0  0  0  0  0  0  0  0  0  0  0  0
   -1.6005    2.2849    4.1897 H   0  0  0  0  0  0  0  0  0  0  0  0
   -2.3708    0.9032    1.6831 H   0  0  0  0  0  0  0  0  0  0  0  0
   -1.0825    3.6309    2.1991 H   0  0  0  0  0  0  0  0  0  0  0  0
   -1.7740    3.0733    0.6608 H   0  0  0  0  0  0  0  0  0  0  0  0
   -2.8285    3.3233    2.0624 H   0  0  0  0  0  0  0  0  0  0  0  0
    0.1165    1.0202    0.3818 N   0  0  0  0  0  0  0  0  0  0  0  0
    1.2365    0.2729   -0.2271 C   0  0  2  0  0  0  0  0  0  0  0  0
    1.4850    0.8621   -1.6448 C   0  0  0  0  0  0  0  0  0  0  0  0
    1.2795    2.0560   -1.8260 O   0  0  0  0  0  0  0  0  0  0  0  0
    0.8600   -1.2318   -0.3718 C   0  0  0  0  0  0  0  0  0  0  0  0
    0.6311   -1.9166    0.9482 C   0  0  0  0  0  0  0  0  0  0  0  0
    1.5707   -2.3299    1.8935 N   0  3  0  0  0  0  0  0  0  0  0  0
   -0.6124   -2.2034    1.4470 C   0  0  0  0  0  0  0  0  0  0  0  0
    0.9541   -2.7342    2.9791 C   0  0  0  0  0  0  0  0  0  0  0  0
   -0.4144   -2.6985    2.7242 N   0  0  0  0  0  0  0  0  0  0  0  0
   -0.4794    1.5537   -0.2515 H   0  0  0  0  0  0  0  0  0  0  0  0
    2.1496    0.3916    0.3654 H   0  0  0  0  0  0  0  0  0  0  0  0
    1.6559   -1.7730   -0.8915 H   0  0  0  0  0  0  0  0  0  0  0  0
   -0.0488   -1.3121   -0.9808 H   0  0  0  0  0  0  0  0  0  0  0  0
    2.5655   -2.1088    1.8180 H   0  0  0  0  0  0  0  0  0  0  0  0
   -1.5712   -1.9802    0.9802 H   0  0  0  0  0  0  0  0  0  0  0  0
    1.4213   -2.9939    3.9293 H   0  0  0  0  0  0  0  0  0  0  0  0
   -1.1531   -2.7207    3.4379 H   0  0  0  0  0  0  0  0  0  0  0  0
    1.6865    0.0653   -2.7620 N   0  0  0  0  0  0  0  0  0  0  0  0
    1.1842    0.4843   -4.0795 C   0  0  2  0  0  0  0  0  0  0  0  0
   -0.3432    0.2669   -4.1828 C   0  0  0  0  0  0  0  0  0  0  0  0
   -0.9037   -0.5004   -3.4030 O   0  0  0  0  0  0  0  0  0  0  0  0
    1.9189   -0.3320   -5.1453 C   0  0  0  0  0  0  0  0  0  0  0  0
    1.6486   -0.9333   -2.5895 H   0  0  0  0  0  0  0  0  0  0  0  0
    1.3963    1.5457   -4.2504 H   0  0  0  0  0  0  0  0  0  0  0  0
    1.7118   -1.4003   -5.0241 H   0  0  0  0  0  0  0  0  0  0  0  0
    1.5994   -0.0291   -6.1475 H   0  0  0  0  0  0  0  0  0  0  0  0
    2.9992   -0.1736   -5.0664 H   0  0  0  0  0  0  0  0  0  0  0  0
   -1.0887    0.9257   -5.1413 N   0  0  0  0  0  0  0  0  0  0  0  0
   -2.5355    0.7872   -5.2651 C   0  0  0  0  0  0  0  0  0  0  0  0
   -0.6082    1.5941   -5.7379 H   0  0  0  0  0  0  0  0  0  0  0  0
   -2.8088   -0.2619   -5.4202 H   0  0  0  0  0  0  0  0  0  0  0  0
   -3.0346    1.1516   -4.3610 H   0  0  0  0  0  0  0  0  0  0  0  0
   -2.9004    1.3667   -6.1188 H   0  0  0  0  0  0  0  0  0  0  0  0
  1  2  2  0  0  0  0
  1  3  1  0  0  0  0
  1  7  1  0  0  0  0
  3  4  1  0  0  0  0
  3  5  1  0  0  0  0
  3  6  1  0  0  0  0
  7  8  1  0  0  0  0
  7 12  1  0  0  0  0
  8  9  1  0  0  0  0
  8 11  1  0  0  0  0
  8 13  1  0  0  0  0
  9 10  2  0  0  0  0
  9 17  1  0  0  0  0
 11 14  1  0  0  0  0
 11 15  1  0  0  0  0
 11 16  1  0  0  0  0
 17 18  1  0  0  0  0
 17 27  1  0  0  0  0
 18 19  1  0  0  0  0
 18 21  1  0  0  0  0
 18 28  1  0  0  0  0
 19 20  2  0  0  0  0
 19 35  1  0  0  0  0
 21 22  1  0  0  0  0
 21 29  1  0  0  0  0
 21 30  1  0  0  0  0
 22 23  1  0  0  0  0
 22 24  2  0  0  0  0
 23 25  2  0  0  0  0
 23 31  1  0  0  0  0
 24 26  1  0  0  0  0
 24 32  1  0  0  0  0
 25 26  1  0  0  0  0
 25 33  1  0  0  0  0
 26 34  1  0  0  0  0
 35 36  1  0  0  0  0
 35 40  1  0  0  0  0
 36 37  1  0  0  0  0
 36 39  1  0  0  0  0
 36 41  1  0  0  0  0
 37 38  2  0  0  0  0
 37 45  1  0  0  0  0
 39 42  1  0  0  0  0
 39 43  1  0  0  0  0
 39 44  1  0  0  0  0
 45 46  1  0  0  0  0
 45 47  1  0  0  0  0
 46 48  1  0  0  0  0
 46 49  1  0  0  0  0
 46 50  1  0  0  0  0
M  CHG  1  23   1
M  END
$$$$

  -OEChem-05262216443D

 50 50  0     1  0  0  0  0  0999 V2000
   -2.1293    0.4049    4.2340 C   0  0  0  0  0  0  0  0  0  0  0  0
   -2.2598   -0.6967    3.7123 O   0  0  0  0  0  0  0  0  0  0  0  0
   -2.2244    0.5388    5.7417 C   0  0  0  0  0  0  0  0  0  0  0  0
   -2.5308   -0.4107    6.1890 H   0  0  0  0  0  0  0  0  0  0  0  0
   -1.2534    0.8264    6.1526 H   0  0  0  0  0  0  0  0  0  0  0  0
   -2.9618    1.3017    6.0039 H   0  0  0  0  0  0  0  0  0  0  0  0
   -1.8530    1.5209    3.4700 N   0  0  0  0  0  0  0  0  0  0  0  0
   -1.6164    1.4922    2.0178 C   0  0  2  0  0  0  0  0  0  0  0  0
   -0.2074    0.9908    1.6120 C   0  0  0  0  0  0  0  0  0  0  0  0
    0.5978    0.6117    2.4585 O   0  0  0  0  0  0  0  0  0  0  0  0
   -1.8619    2.9108    1.4941 C   0  0  0  0  0  0  0  0  0  0  0  0
   -1.6215    2.3717    3.9763 H   0  0  0  0  0  0  0  0  0  0  0  0
   -2.3480    0.8245    1.5502 H   0  0  0  0  0  0  0  0  0  0  0  0
   -1.1234    3.6067    1.9055 H   0  0  0  0  0  0  0  0  0  0  0  0
   -1.7919    2.9382    0.4022 H   0  0  0  0  0  0  0  0  0  0  0  0
   -2.8616    3.2544    1.7791 H   0  0  0  0  0  0  0  0  0  0  0  0
    0.1562    0.9219    0.2759 N   0  0  0  0  0  0  0  0  0  0  0  0
    1.2758    0.1299   -0.2736 C   0  0  2  0  0  0  0  0  0  0  0  0
    1.5508    0.6493   -1.7096 C   0  0  0  0  0  0  0  0  0  0  0  0
    1.6388    1.8568   -1.8855 O   0  0  0  0  0  0  0  0  0  0  0  0
    0.9101   -1.3811   -0.3317 C   0  0  0  0  0  0  0  0  0  0  0  0
    0.6734   -1.9837    1.0264 C   0  0  0  0  0  0  0  0  0  0  0  0
    1.6117   -2.3290    1.9995 N   0  3  0  0  0  0  0  0  0  0  0  0
   -0.5703   -2.2481    1.5368 C   0  0  0  0  0  0  0  0  0  0  0  0
    0.9931   -2.6699    3.1052 C   0  0  0  0  0  0  0  0  0  0  0  0
   -0.3743   -2.6629    2.8425 N   0  0  0  0  0  0  0  0  0  0  0  0
   -0.4868    1.3380   -0.3984 H   0  0  0  0  0  0  0  0  0  0  0  0
    2.1806    0.2823    0.3241 H   0  0  0  0  0  0  0  0  0  0  0  0
    1.7146   -1.9424   -0.8181 H   0  0  0  0  0  0  0  0  0  0  0  0
    0.0026   -1.5023   -0.9358 H   0  0  0  0  0  0  0  0  0  0  0  0
    2.6048   -2.1033    1.9149 H   0  0  0  0  0  0  0  0  0  0  0  0
   -1.5295   -2.0603    1.0555 H   0  0  0  0  0  0  0  0  0  0  0  0
    1.4577   -2.8653    4.0718 H   0  0  0  0  0  0  0  0  0  0  0  0
   -1.1166   -2.6483    3.5529 H   0  0  0  0  0  0  0  0  0  0  0  0
    1.4560   -0.1659   -2.8275 N   0  0  0  0  0  0  0  0  0  0  0  0
    0.8763    0.3741   -4.0670 C   0  0  2  0  0  0  0  0  0  0  0  0
   -0.6552    0.5575   -3.9310 C   0  0  0  0  0  0  0  0  0  0  0  0
   -1.2556    0.0318   -2.9944 O   0  0  0  0  0  0  0  0  0  0  0  0
    1.2079   -0.5975   -5.2021 C   0  0  0  0  0  0  0  0  0  0  0  0
    1.2029   -1.1272   -2.6281 H   0  0  0  0  0  0  0  0  0  0  0  0
    1.3217    1.3474   -4.3028 H   0  0  0  0  0  0  0  0  0  0  0  0
    0.7539   -1.5764   -5.0169 H   0  0  0  0  0  0  0  0  0  0  0  0
    0.8307   -0.2155   -6.1561 H   0  0  0  0  0  0  0  0  0  0  0  0
    2.2918   -0.7247   -5.2879 H   0  0  0  0  0  0  0  0  0  0  0  0
   -1.3613    1.3067   -4.8527 N   0  0  0  0  0  0  0  0  0  0  0  0
   -2.8009    1.5295   -4.7738 C   0  0  0  0  0  0  0  0  0  0  0  0
   -0.8348    1.7686   -5.5897 H   0  0  0  0  0  0  0  0  0  0  0  0
   -3.3393    0.5761   -4.7975 H   0  0  0  0  0  0  0  0  0  0  0  0
   -3.0581    2.0564   -3.8487 H   0  0  0  0  0  0  0  0  0  0  0  0
   -3.1379    2.1354   -5.6209 H   0  0  0  0  0  0  0  0  0  0  0  0
  1  2  2  0  0  0  0
  1  3  1  0  0  0  0
  1  7  1  0  0  0  0
  3  4  1  0  0  0  0
  3  5  1  0  0  0  0
  3  6  1  0  0  0  0
  7  8  1  0  0  0  0
  7 12  1  0  0  0  0
  8  9  1  0  0  0  0
  8 11  1  0  0  0  0
  8 13  1  0  0  0  0
  9 10  2  0  0  0  0
  9 17  1  0  0  0  0
 11 14  1  0  0  0  0
 11 15  1  0  0  0  0
 11 16  1  0  0  0  0
 17 18  1  0  0  0  0
 17 27  1  0  0  0  0
 18 19  1  0  0  0  0
 18 21  1  0  0  0  0
 18 28  1  0  0  0  0
 19 20  2  0  0  0  0
 19 35  1  0  0  0  0
 21 22  1  0  0  0  0
 21 29  1  0  0  0  0
 21 30  1  0  0  0  0
 22 23  1  0  0  0  0
 22 24  2  0  0  0  0
 23 25  2  0  0  0  0
 23 31  1  0  0  0  0
 24 26  1  0  0  0  0
 24 32  1  0  0  0  0
 25 26  1  0  0  0  0
 25 33  1  0  0  0  0
 26 34  1  0  0  0  0
 35 36  1  0  0  0  0
 35 40  1  0  0  0  0
 36 37  1  0  0  0  0
 36 39  1  0  0  0  0
 36 41  1  0  0  0  0
 37 38  2  0  0  0  0
 37 45  1  0  0  0  0
 39 42  1  0  0  0  0
 39 43  1  0  0  0  0
 39 44  1  0  0  0  0
 45 46  1  0  0  0  0
 45 47  1  0  0  0  0
 46 48  1  0  0  0  0
 46 49  1  0  0  0  0
 46 50  1  0  0  0  0
M  CHG  1  23   1
M  END
$$$$

  -OEChem-05262216443D

 50 50  0     1  0  0  0  0  0999 V2000
   -2.1742    0.5153    4.0539 C   0  0  0  0  0  0  0  0  0  0  0  0
   -2.2667   -0.6281    3.6217 O   0  0  0  0  0  0  0  0  0  0  0  0
   -2.3305    0.7713    5.5404 C   0  0  0  0  0  0  0  0  0  0  0  0
   -2.6943   -0.1285    6.0442 H   0  0  0  0  0  0  0  0  0  0  0  0
   -1.3683    1.0556    5.9736 H   0  0  0  0  0  0  0  0  0  0  0  0
   -3.0486    1.5782    5.7074 H   0  0  0  0  0  0  0  0  0  0  0  0
   -1.8926    1.5703    3.2094 N   0  0  0  0  0  0  0  0  0  0  0  0
   -1.6230    1.4306    1.7694 C   0  0  2  0  0  0  0  0  0  0  0  0
   -0.1887    0.9528    1.4325 C   0  0  0  0  0  0  0  0  0  0  0  0
    0.6093    0.6612    2.3195 O   0  0  0  0  0  0  0  0  0  0  0  0
   -1.9094    2.7892    1.1212 C   0  0  0  0  0  0  0  0  0  0  0  0
   -1.6841    2.4622    3.6510 H   0  0  0  0  0  0  0  0  0  0  0  0
   -2.3183    0.6989    1.3442 H   0  0  0  0  0  0  0  0  0  0  0  0
   -1.2054    3.5454    1.4840 H   0  0  0  0  0  0  0  0  0  0  0  0
   -1.8177    2.7249    0.0321 H   0  0  0  0  0  0  0  0  0  0  0  0
   -2.9269    3.1168    1.3575 H   0  0  0  0  0  0  0  0  0  0  0  0
    0.1977    0.7948    0.1119 N   0  0  0  0  0  0  0  0  0  0  0  0
    1.3232   -0.0328   -0.3645 C   0  0  2  0  0  0  0  0  0  0  0  0
    1.6025    0.4075   -1.8213 C   0  0  0  0  0  0  0  0  0  0  0  0
    1.9452    1.5622   -2.0315 O   0  0  0  0  0  0  0  0  0  0  0  0
    0.9857   -1.5481   -0.3146 C   0  0  0  0  0  0  0  0  0  0  0  0
    0.7503   -2.0429    1.0868 C   0  0  0  0  0  0  0  0  0  0  0  0
    1.6923   -2.2901    2.0863 N   0  3  0  0  0  0  0  0  0  0  0  0
   -0.4899   -2.2833    1.6177 C   0  0  0  0  0  0  0  0  0  0  0  0
    1.0781   -2.5504    3.2161 C   0  0  0  0  0  0  0  0  0  0  0  0
   -0.2887   -2.5871    2.9530 N   0  0  0  0  0  0  0  0  0  0  0  0
   -0.4933    1.0637   -0.5956 H   0  0  0  0  0  0  0  0  0  0  0  0
    2.2209    0.1732    0.2284 H   0  0  0  0  0  0  0  0  0  0  0  0
    1.8007   -2.1264   -0.7627 H   0  0  0  0  0  0  0  0  0  0  0  0
    0.0793   -1.7312   -0.9026 H   0  0  0  0  0  0  0  0  0  0  0  0
    2.6815   -2.0537    1.9845 H   0  0  0  0  0  0  0  0  0  0  0  0
   -1.4524   -2.1483    1.1253 H   0  0  0  0  0  0  0  0  0  0  0  0
    1.5447   -2.6592    4.1953 H   0  0  0  0  0  0  0  0  0  0  0  0
   -1.0330   -2.5310    3.6591 H   0  0  0  0  0  0  0  0  0  0  0  0
    1.2218   -0.3703   -2.9039 N   0  0  0  0  0  0  0  0  0  0  0  0
    0.5270    0.3016   -4.0138 C   0  0  2  0  0  0  0  0  0  0  0  0
   -0.8511    0.8604   -3.5694 C   0  0  0  0  0  0  0  0  0  0  0  0
   -1.3488    0.5157   -2.4958 O   0  0  0  0  0  0  0  0  0  0  0  0
    0.3594   -0.7131   -5.1472 C   0  0  0  0  0  0  0  0  0  0  0  0
    0.8366   -1.2736   -2.6534 H   0  0  0  0  0  0  0  0  0  0  0  0
    1.1339    1.1367   -4.3826 H   0  0  0  0  0  0  0  0  0  0  0  0
   -0.2630   -1.5542   -4.8248 H   0  0  0  0  0  0  0  0  0  0  0  0
   -0.1153   -0.2437   -6.0147 H   0  0  0  0  0  0  0  0  0  0  0  0
    1.3357   -1.0988   -5.4581 H   0  0  0  0  0  0  0  0  0  0  0  0
   -1.5294    1.7657   -4.3622 N   0  0  0  0  0  0  0  0  0  0  0  0
   -2.8010    2.3723   -3.9838 C   0  0  0  0  0  0  0  0  0  0  0  0
   -1.0683    2.0878   -5.2094 H   0  0  0  0  0  0  0  0  0  0  0  0
   -3.5659    1.6024   -3.8369 H   0  0  0  0  0  0  0  0  0  0  0  0
   -2.6926    2.9439   -3.0561 H   0  0  0  0  0  0  0  0  0  0  0  0
   -3.1448    3.0523   -4.7695 H   0  0  0  0  0  0  0  0  0  0  0  0
  1  2  2  0  0  0  0
  1  3  1  0  0  0  0
  1  7  1  0  0  0  0
  3  4  1  0  0  0  0
  3  5  1  0  0  0  0
  3  6  1  0  0  0  0
  7  8  1  0  0  0  0
  7 12  1  0  0  0  0
  8  9  1  0  0  0  0
  8 11  1  0  0  0  0
  8 13  1  0  0  0  0
  9 10  2  0  0  0  0
  9 17  1  0  0  0  0
 11 14  1  0  0  0  0
 11 15  1  0  0  0  0
 11 16  1  0  0  0  0
 17 18  1  0  0  0  0
 17 27  1  0  0  0  0
 18 19  1  0  0  0  0
 18 21  1  0  0  0  0
 18 28  1  0  0  0  0
 19 20  2  0  0  0  0
 19 35  1  0  0  0  0
 21 22  1  0  0  0  0
 21 29  1  0  0  0  0
 21 30  1  0  0  0  0
 22 23  1  0  0  0  0
 22 24  2  0  0  0  0
 23 25  2  0  0  0  0
 23 31  1  0  0  0  0
 24 26  1  0  0  0  0
 24 32  1  0  0  0  0
 25 26  1  0  0  0  0
 25 33  1  0  0  0  0
 26 34  1  0  0  0  0
 35 36  1  0  0  0  0
 35 40  1  0  0  0  0
 36 37  1  0  0  0  0
 36 39  1  0  0  0  0
 36 41  1  0  0  0  0
 37 38  2  0  0  0  0
 37 45  1  0  0  0  0
 39 42  1  0  0  0  0
 39 43  1  0  0  0  0
 39 44  1  0  0  0  0
 45 46  1  0  0  0  0
 45 47  1  0  0  0  0
 46 48  1  0  0  0  0
 46 49  1  0  0  0  0
 46 50  1  0  0  0  0
M  CHG  1  23   1
M  END
$$$$

  -OEChem-05262216443D

 50 50  0     1  0  0  0  0  0999 V2000
   -2.1029    0.6228    4.0804 C   0  0  0  0  0  0  0  0  0  0  0  0
   -2.1923   -0.5415    3.7071 O   0  0  0  0  0  0  0  0  0  0  0  0
   -2.2095    0.9493    5.5576 C   0  0  0  0  0  0  0  0  0  0  0  0
   -2.4955    0.0589    6.1241 H   0  0  0  0  0  0  0  0  0  0  0  0
   -1.2481    1.3116    5.9300 H   0  0  0  0  0  0  0  0  0  0  0  0
   -2.9669    1.7212    5.7166 H   0  0  0  0  0  0  0  0  0  0  0  0
   -1.8666    1.6393    3.1769 N   0  0  0  0  0  0  0  0  0  0  0  0
   -1.6407    1.4322    1.7375 C   0  0  2  0  0  0  0  0  0  0  0  0
   -0.2231    0.9201    1.3808 C   0  0  0  0  0  0  0  0  0  0  0  0
    0.6008    0.6654    2.2551 O   0  0  0  0  0  0  0  0  0  0  0  0
   -1.9262    2.7641    1.0359 C   0  0  0  0  0  0  0  0  0  0  0  0
   -1.6619    2.5557    3.5667 H   0  0  0  0  0  0  0  0  0  0  0  0
   -2.3583    0.6926    1.3665 H   0  0  0  0  0  0  0  0  0  0  0  0
   -1.2006    3.5242    1.3433 H   0  0  0  0  0  0  0  0  0  0  0  0
   -1.8674    2.6495   -0.0514 H   0  0  0  0  0  0  0  0  0  0  0  0
   -2.9314    3.1182    1.2854 H   0  0  0  0  0  0  0  0  0  0  0  0
    0.1197    0.6948    0.0580 N   0  0  0  0  0  0  0  0  0  0  0  0
    1.2288   -0.1564   -0.4155 C   0  0  2  0  0  0  0  0  0  0  0  0
    1.4572    0.2095   -1.8978 C   0  0  0  0  0  0  0  0  0  0  0  0
    2.0514    1.2432   -2.1635 O   0  0  0  0  0  0  0  0  0  0  0  0
    0.9162   -1.6713   -0.2813 C   0  0  0  0  0  0  0  0  0  0  0  0
    0.7411   -2.0957    1.1520 C   0  0  0  0  0  0  0  0  0  0  0  0
    1.7262   -2.2780    2.1238 N   0  3  0  0  0  0  0  0  0  0  0  0
   -0.4739   -2.3124    1.7484 C   0  0  0  0  0  0  0  0  0  0  0  0
    1.1619   -2.4762    3.2916 C   0  0  0  0  0  0  0  0  0  0  0  0
   -0.2145   -2.5374    3.0892 N   0  0  0  0  0  0  0  0  0  0  0  0
   -0.5803    0.9682   -0.6414 H   0  0  0  0  0  0  0  0  0  0  0  0
    2.1448    0.0844    0.1351 H   0  0  0  0  0  0  0  0  0  0  0  0
    1.7227   -2.2584   -0.7347 H   0  0  0  0  0  0  0  0  0  0  0  0
   -0.0073   -1.9010   -0.8223 H   0  0  0  0  0  0  0  0  0  0  0  0
    2.7091   -2.0452    1.9660 H   0  0  0  0  0  0  0  0  0  0  0  0
   -1.4577   -2.2093    1.2929 H   0  0  0  0  0  0  0  0  0  0  0  0
    1.6700   -2.5245    4.2550 H   0  0  0  0  0  0  0  0  0  0  0  0
   -0.9289   -2.4474    3.8220 H   0  0  0  0  0  0  0  0  0  0  0  0
    0.7817   -0.4518   -2.9111 N   0  0  0  0  0  0  0  0  0  0  0  0
    0.1850    0.3548   -3.9875 C   0  0  2  0  0  0  0  0  0  0  0  0
   -1.0342    1.1620   -3.4720 C   0  0  0  0  0  0  0  0  0  0  0  0
   -1.5331    0.8994   -2.3760 O   0  0  0  0  0  0  0  0  0  0  0  0
   -0.2306   -0.5944   -5.1139 C   0  0  0  0  0  0  0  0  0  0  0  0
    0.1922   -1.2099   -2.5858 H   0  0  0  0  0  0  0  0  0  0  0  0
    0.9236    1.0609   -4.3849 H   0  0  0  0  0  0  0  0  0  0  0  0
   -0.9919   -1.2993   -4.7645 H   0  0  0  0  0  0  0  0  0  0  0  0
   -0.6417   -0.0308   -5.9573 H   0  0  0  0  0  0  0  0  0  0  0  0
    0.6350   -1.1622   -5.4702 H   0  0  0  0  0  0  0  0  0  0  0  0
   -1.5714    2.1871   -4.2260 N   0  0  0  0  0  0  0  0  0  0  0  0
   -2.6962    3.0055   -3.7864 C   0  0  0  0  0  0  0  0  0  0  0  0
   -1.1085    2.4233   -5.1002 H   0  0  0  0  0  0  0  0  0  0  0  0
   -3.5736    2.3799   -3.5906 H   0  0  0  0  0  0  0  0  0  0  0  0
   -2.4401    3.5507   -2.8719 H   0  0  0  0  0  0  0  0  0  0  0  0
   -2.9601    3.7338   -4.5597 H   0  0  0  0  0  0  0  0  0  0  0  0
  1  2  2  0  0  0  0
  1  3  1  0  0  0  0
  1  7  1  0  0  0  0
  3  4  1  0  0  0  0
  3  5  1  0  0  0  0
  3  6  1  0  0  0  0
  7  8  1  0  0  0  0
  7 12  1  0  0  0  0
  8  9  1  0  0  0  0
  8 11  1  0  0  0  0
  8 13  1  0  0  0  0
  9 10  2  0  0  0  0
  9 17  1  0  0  0  0
 11 14  1  0  0  0  0
 11 15  1  0  0  0  0
 11 16  1  0  0  0  0
 17 18  1  0  0  0  0
 17 27  1  0  0  0  0
 18 19  1  0  0  0  0
 18 21  1  0  0  0  0
 18 28  1  0  0  0  0
 19 20  2  0  0  0  0
 19 35  1  0  0  0  0
 21 22  1  0  0  0  0
 21 29  1  0  0  0  0
 21 30  1  0  0  0  0
 22 23  1  0  0  0  0
 22 24  2  0  0  0  0
 23 25  2  0  0  0  0
 23 31  1  0  0  0  0
 24 26  1  0  0  0  0
 24 32  1  0  0  0  0
 25 26  1  0  0  0  0
 25 33  1  0  0  0  0
 26 34  1  0  0  0  0
 35 36  1  0  0  0  0
 35 40  1  0  0  0  0
 36 37  1  0  0  0  0
 36 39  1  0  0  0  0
 36 41  1  0  0  0  0
 37 38  2  0  0  0  0
 37 45  1  0  0  0  0
 39 42  1  0  0  0  0
 39 43  1  0  0  0  0
 39 44  1  0  0  0  0
 45 46  1  0  0  0  0
 45 47  1  0  0  0  0
 46 48  1  0  0  0  0
 46 49  1  0  0  0  0
 46 50  1  0  0  0  0
M  CHG  1  23   1
M  END
$$$$

  -OEChem-05262216443D

 50 50  0     1  0  0  0  0  0999 V2000
   -2.0628    0.6505    4.0781 C   0  0  0  0  0  0  0  0  0  0  0  0
   -2.1668   -0.4993    3.6670 O   0  0  0  0  0  0  0  0  0  0  0  0
   -2.1589    0.9267    5.5662 C   0  0  0  0  0  0  0  0  0  0  0  0
   -2.3751    0.0034    6.1105 H   0  0  0  0  0  0  0  0  0  0  0  0
   -1.2158    1.3397    5.9325 H   0  0  0  0  0  0  0  0  0  0  0  0
   -2.9611    1.6429    5.7613 H   0  0  0  0  0  0  0  0  0  0  0  0
   -1.8237    1.6933    3.2061 N   0  0  0  0  0  0  0  0  0  0  0  0
   -1.6341    1.5322    1.7558 C   0  0  2  0  0  0  0  0  0  0  0  0
   -0.2607    0.9404    1.3514 C   0  0  0  0  0  0  0  0  0  0  0  0
    0.6011    0.6984    2.1919 O   0  0  0  0  0  0  0  0  0  0  0  0
   -1.8364    2.9108    1.1189 C   0  0  0  0  0  0  0  0  0  0  0  0
   -1.6196    2.5992    3.6199 H   0  0  0  0  0  0  0  0  0  0  0  0
   -2.4075    0.8600    1.3690 H   0  0  0  0  0  0  0  0  0  0  0  0
   -1.0619    3.6078    1.4552 H   0  0  0  0  0  0  0  0  0  0  0  0
   -1.7904    2.8433    0.0274 H   0  0  0  0  0  0  0  0  0  0  0  0
   -2.8157    3.3169    1.3923 H   0  0  0  0  0  0  0  0  0  0  0  0
    0.0015    0.6441    0.0236 N   0  0  0  0  0  0  0  0  0  0  0  0
    1.0907   -0.2206   -0.4758 C   0  0  2  0  0  0  0  0  0  0  0  0
    1.2331    0.0491   -1.9859 C   0  0  0  0  0  0  0  0  0  0  0  0
    2.0451    0.8759   -2.3703 O   0  0  0  0  0  0  0  0  0  0  0  0
    0.8234   -1.7331   -0.2564 C   0  0  0  0  0  0  0  0  0  0  0  0
    0.7480   -2.0970    1.2016 C   0  0  0  0  0  0  0  0  0  0  0  0
    1.8025   -2.2129    2.1083 N   0  3  0  0  0  0  0  0  0  0  0  0
   -0.4160   -2.3197    1.8897 C   0  0  0  0  0  0  0  0  0  0  0  0
    1.3282   -2.3848    3.3192 C   0  0  0  0  0  0  0  0  0  0  0  0
   -0.0565   -2.4902    3.2155 N   0  0  0  0  0  0  0  0  0  0  0  0
   -0.6947    0.9691   -0.6583 H   0  0  0  0  0  0  0  0  0  0  0  0
    2.0336    0.0614    0.0063 H   0  0  0  0  0  0  0  0  0  0  0  0
    1.6158   -2.3205   -0.7334 H   0  0  0  0  0  0  0  0  0  0  0  0
   -0.1218   -2.0106   -0.7328 H   0  0  0  0  0  0  0  0  0  0  0  0
    2.7655   -1.9643    1.8713 H   0  0  0  0  0  0  0  0  0  0  0  0
   -1.4324   -2.2588    1.5029 H   0  0  0  0  0  0  0  0  0  0  0  0
    1.9053   -2.3879    4.2442 H   0  0  0  0  0  0  0  0  0  0  0  0
   -0.7216   -2.4273    3.9939 H   0  0  0  0  0  0  0  0  0  0  0  0
    0.2993   -0.4565   -2.8750 N   0  0  0  0  0  0  0  0  0  0  0  0
   -0.1790    0.4083   -3.9637 C   0  0  2  0  0  0  0  0  0  0  0  0
   -1.1699    1.4683   -3.4233 C   0  0  0  0  0  0  0  0  0  0  0  0
   -1.6610    1.3340   -2.3011 O   0  0  0  0  0  0  0  0  0  0  0  0
   -0.8499   -0.4791   -5.0147 C   0  0  0  0  0  0  0  0  0  0  0  0
   -0.4318   -1.0014   -2.4293 H   0  0  0  0  0  0  0  0  0  0  0  0
    0.6614    0.9295   -4.4365 H   0  0  0  0  0  0  0  0  0  0  0  0
   -1.7130   -0.9995   -4.5875 H   0  0  0  0  0  0  0  0  0  0  0  0
   -1.1932    0.1229   -5.8619 H   0  0  0  0  0  0  0  0  0  0  0  0
   -0.1413   -1.2251   -5.3884 H   0  0  0  0  0  0  0  0  0  0  0  0
   -1.4999    2.5760   -4.1793 N   0  0  0  0  0  0  0  0  0  0  0  0
   -2.3741    3.6423   -3.7035 C   0  0  0  0  0  0  0  0  0  0  0  0
   -1.0256    2.6961   -5.0710 H   0  0  0  0  0  0  0  0  0  0  0  0
   -3.3526    3.2408   -3.4193 H   0  0  0  0  0  0  0  0  0  0  0  0
   -1.9315    4.1418   -2.8353 H   0  0  0  0  0  0  0  0  0  0  0  0
   -2.5250    4.3872   -4.4912 H   0  0  0  0  0  0  0  0  0  0  0  0
  1  2  2  0  0  0  0
  1  3  1  0  0  0  0
  1  7  1  0  0  0  0
  3  4  1  0  0  0  0
  3  5  1  0  0  0  0
  3  6  1  0  0  0  0
  7  8  1  0  0  0  0
  7 12  1  0  0  0  0
  8  9  1  0  0  0  0
  8 11  1  0  0  0  0
  8 13  1  0  0  0  0
  9 10  2  0  0  0  0
  9 17  1  0  0  0  0
 11 14  1  0  0  0  0
 11 15  1  0  0  0  0
 11 16  1  0  0  0  0
 17 18  1  0  0  0  0
 17 27  1  0  0  0  0
 18 19  1  0  0  0  0
 18 21  1  0  0  0  0
 18 28  1  0  0  0  0
 19 20  2  0  0  0  0
 19 35  1  0  0  0  0
 21 22  1  0  0  0  0
 21 29  1  0  0  0  0
 21 30  1  0  0  0  0
 22 23  1  0  0  0  0
 22 24  2  0  0  0  0
 23 25  2  0  0  0  0
 23 31  1  0  0  0  0
 24 26  1  0  0  0  0
 24 32  1  0  0  0  0
 25 26  1  0  0  0  0
 25 33  1  0  0  0  0
 26 34  1  0  0  0  0
 35 36  1  0  0  0  0
 35 40  1  0  0  0  0
 36 37  1  0  0  0  0
 36 39  1  0  0  0  0
 36 41  1  0  0  0  0
 37 38  2  0  0  0  0
 37 45  1  0  0  0  0
 39 42  1  0  0  0  0
 39 43  1  0  0  0  0
 39 44  1  0  0  0  0
 45 46  1  0  0  0  0
 45 47  1  0  0  0  0
 46 48  1  0  0  0  0
 46 49  1  0  0  0  0
 46 50  1  0  0  0  0
M  CHG  1  23   1
M  END
$$$$

  -OEChem-05262216443D

 50 50  0     1  0  0  0  0  0999 V2000
   -1.9973    0.7319    4.0997 C   0  0  0  0  0  0  0  0  0  0  0  0
   -2.1499   -0.4050    3.6690 O   0  0  0  0  0  0  0  0  0  0  0  0
   -2.0742    0.9894    5.5924 C   0  0  0  0  0  0  0  0  0  0  0  0
   -2.3000    0.0628    6.1269 H   0  0  0  0  0  0  0  0  0  0  0  0
   -1.1205    1.3828    5.9535 H   0  0  0  0  0  0  0  0  0  0  0  0
   -2.8630    1.7155    5.8050 H   0  0  0  0  0  0  0  0  0  0  0  0
   -1.7209    1.7796    3.2454 N   0  0  0  0  0  0  0  0  0  0  0  0
   -1.5623    1.6451    1.7889 C   0  0  2  0  0  0  0  0  0  0  0  0
   -0.2501    0.9525    1.3446 C   0  0  0  0  0  0  0  0  0  0  0  0
    0.6329    0.6851    2.1550 O   0  0  0  0  0  0  0  0  0  0  0  0
   -1.6471    3.0575    1.2039 C   0  0  0  0  0  0  0  0  0  0  0  0
   -1.4885    2.6715    3.6739 H   0  0  0  0  0  0  0  0  0  0  0  0
   -2.3960    1.0559    1.3926 H   0  0  0  0  0  0  0  0  0  0  0  0
   -0.8134    3.6720    1.5594 H   0  0  0  0  0  0  0  0  0  0  0  0
   -1.6113    3.0262    0.1112 H   0  0  0  0  0  0  0  0  0  0  0  0
   -2.5861    3.5362    1.4994 H   0  0  0  0  0  0  0  0  0  0  0  0
   -0.0591    0.6166    0.0129 N   0  0  0  0  0  0  0  0  0  0  0  0
    1.0014   -0.2723   -0.5107 C   0  0  2  0  0  0  0  0  0  0  0  0
    1.0935   -0.0706   -2.0340 C   0  0  0  0  0  0  0  0  0  0  0  0
    2.0631    0.4985   -2.5081 O   0  0  0  0  0  0  0  0  0  0  0  0
    0.7113   -1.7748   -0.2616 C   0  0  0  0  0  0  0  0  0  0  0  0
    0.6731   -2.1220    1.2016 C   0  0  0  0  0  0  0  0  0  0  0  0
    1.7521   -2.2498    2.0770 N   0  3  0  0  0  0  0  0  0  0  0  0
   -0.4733   -2.3194    1.9261 C   0  0  0  0  0  0  0  0  0  0  0  0
    1.3125   -2.4122    3.3024 C   0  0  0  0  0  0  0  0  0  0  0  0
   -0.0764   -2.4920    3.2411 N   0  0  0  0  0  0  0  0  0  0  0  0
   -0.7302    1.0156   -0.6549 H   0  0  0  0  0  0  0  0  0  0  0  0
    1.9662    0.0026   -0.0694 H   0  0  0  0  0  0  0  0  0  0  0  0
    1.4783   -2.3837   -0.7530 H   0  0  0  0  0  0  0  0  0  0  0  0
   -0.2510   -2.0398   -0.7110 H   0  0  0  0  0  0  0  0  0  0  0  0
    2.7116   -2.0212    1.8081 H   0  0  0  0  0  0  0  0  0  0  0  0
   -1.4996   -2.2448    1.5686 H   0  0  0  0  0  0  0  0  0  0  0  0
    1.9176   -2.4279    4.2090 H   0  0  0  0  0  0  0  0  0  0  0  0
   -0.7162   -2.4327    4.0399 H   0  0  0  0  0  0  0  0  0  0  0  0
   -0.0138   -0.3292   -2.8229 N   0  0  0  0  0  0  0  0  0  0  0  0
   -0.3715    0.6033   -3.9011 C   0  0  2  0  0  0  0  0  0  0  0  0
   -1.2103    1.7710   -3.3321 C   0  0  0  0  0  0  0  0  0  0  0  0
   -1.6826    1.6825   -2.1979 O   0  0  0  0  0  0  0  0  0  0  0  0
   -1.1584   -0.1724   -4.9602 C   0  0  0  0  0  0  0  0  0  0  0  0
   -0.8123   -0.6699   -2.2949 H   0  0  0  0  0  0  0  0  0  0  0  0
    0.5260    1.0193   -4.3730 H   0  0  0  0  0  0  0  0  0  0  0  0
   -2.0771   -0.5873   -4.5330 H   0  0  0  0  0  0  0  0  0  0  0  0
   -1.4293    0.4834   -5.7937 H   0  0  0  0  0  0  0  0  0  0  0  0
   -0.5533   -0.9955   -5.3536 H   0  0  0  0  0  0  0  0  0  0  0  0
   -1.4255    2.9187   -4.0690 N   0  0  0  0  0  0  0  0  0  0  0  0
   -2.1802    4.0631   -3.5704 C   0  0  0  0  0  0  0  0  0  0  0  0
   -0.9818    2.9856   -4.9818 H   0  0  0  0  0  0  0  0  0  0  0  0
   -3.1974    3.7632   -3.2964 H   0  0  0  0  0  0  0  0  0  0  0  0
   -1.6899    4.4920   -2.6901 H   0  0  0  0  0  0  0  0  0  0  0  0
   -2.2465    4.8381   -4.3406 H   0  0  0  0  0  0  0  0  0  0  0  0
  1  2  2  0  0  0  0
  1  3  1  0  0  0  0
  1  7  1  0  0  0  0
  3  4  1  0  0  0  0
  3  5  1  0  0  0  0
  3  6  1  0  0  0  0
  7  8  1  0  0  0  0
  7 12  1  0  0  0  0
  8  9  1  0  0  0  0
  8 11  1  0  0  0  0
  8 13  1  0  0  0  0
  9 10  2  0  0  0  0
  9 17  1  0  0  0  0
 11 14  1  0  0  0  0
 11 15  1  0  0  0  0
 11 16  1  0  0  0  0
 17 18  1  0  0  0  0
 17 27  1  0  0  0  0
 18 19  1  0  0  0  0
 18 21  1  0  0  0  0
 18 28  1  0  0  0  0
 19 20  2  0  0  0  0
 19 35  1  0  0  0  0
 21 22  1  0  0  0  0
 21 29  1  0  0  0  0
 21 30  1  0  0  0  0
 22 23  1  0  0  0  0
 22 24  2  0  0  0  0
 23 25  2  0  0  0  0
 23 31  1  0  0  0  0
 24 26  1  0  0  0  0
 24 32  1  0  0  0  0
 25 26  1  0  0  0  0
 25 33  1  0  0  0  0
 26 34  1  0  0  0  0
 35 36  1  0  0  0  0
 35 40  1  0  0  0  0
 36 37  1  0  0  0  0
 36 39  1  0  0  0  0
 36 41  1  0  0  0  0
 37 38  2  0  0  0  0
 37 45  1  0  0  0  0
 39 42  1  0  0  0  0
 39 43  1  0  0  0  0
 39 44  1  0  0  0  0
 45 46  1  0  0  0  0
 45 47  1  0  0  0  0
 46 48  1  0  0  0  0
 46 49  1  0  0  0  0
 46 50  1  0  0  0  0
M  CHG  1  23   1
M  END
$$$$

  -OEChem-05262216443D

 50 50  0     1  0  0  0  0  0999 V2000
   -1.8787    0.8264    4.1679 C   0  0  0  0  0  0  0  0  0  0  0  0
   -2.1201   -0.2882    3.7214 O   0  0  0  0  0  0  0  0  0  0  0  0
   -1.8998    1.0452    5.6688 C   0  0  0  0  0  0  0  0  0  0  0  0
   -1.1717    0.3892    6.1517 H   0  0  0  0  0  0  0  0  0  0  0  0
   -1.6501    2.0814    5.9099 H   0  0  0  0  0  0  0  0  0  0  0  0
   -2.8964    0.8261    6.0615 H   0  0  0  0  0  0  0  0  0  0  0  0
   -1.5587    1.8705    3.3239 N   0  0  0  0  0  0  0  0  0  0  0  0
   -1.4663    1.7584    1.8596 C   0  0  2  0  0  0  0  0  0  0  0  0
   -0.2417    0.9577    1.3501 C   0  0  0  0  0  0  0  0  0  0  0  0
    0.6650    0.6385    2.1142 O   0  0  0  0  0  0  0  0  0  0  0  0
   -1.4370    3.1889    1.3133 C   0  0  0  0  0  0  0  0  0  0  0  0
   -1.2597    2.7388    3.7595 H   0  0  0  0  0  0  0  0  0  0  0  0
   -2.3662    1.2596    1.4840 H   0  0  0  0  0  0  0  0  0  0  0  0
   -0.5393    3.7136    1.6560 H   0  0  0  0  0  0  0  0  0  0  0  0
   -1.4372    3.1871    0.2203 H   0  0  0  0  0  0  0  0  0  0  0  0
   -2.3182    3.7438    1.6509 H   0  0  0  0  0  0  0  0  0  0  0  0
   -0.1512    0.5910    0.0145 N   0  0  0  0  0  0  0  0  0  0  0  0
    0.8531   -0.3422   -0.5488 C   0  0  2  0  0  0  0  0  0  0  0  0
    0.8884   -0.2110   -2.0814 C   0  0  0  0  0  0  0  0  0  0  0  0
    1.9450    0.0326   -2.6404 O   0  0  0  0  0  0  0  0  0  0  0  0
    0.5097   -1.8270   -0.2684 C   0  0  0  0  0  0  0  0  0  0  0  0
    0.5191   -2.1672    1.1965 C   0  0  0  0  0  0  0  0  0  0  0  0
    1.6321   -2.3385    2.0200 N   0  3  0  0  0  0  0  0  0  0  0  0
   -0.5994   -2.3140    1.9747 C   0  0  0  0  0  0  0  0  0  0  0  0
    1.2452   -2.4873    3.2645 C   0  0  0  0  0  0  0  0  0  0  0  0
   -0.1474   -2.5067    3.2693 N   0  0  0  0  0  0  0  0  0  0  0  0
   -0.7703    1.0941   -0.6322 H   0  0  0  0  0  0  0  0  0  0  0  0
    1.8478   -0.0992   -0.1575 H   0  0  0  0  0  0  0  0  0  0  0  0
    1.2286   -2.4728   -0.7855 H   0  0  0  0  0  0  0  0  0  0  0  0
   -0.4805   -2.0515   -0.6788 H   0  0  0  0  0  0  0  0  0  0  0  0
    2.5868   -2.1547    1.7034 H   0  0  0  0  0  0  0  0  0  0  0  0
   -1.6373   -2.1953    1.6660 H   0  0  0  0  0  0  0  0  0  0  0  0
    1.8926   -2.5358    4.1402 H   0  0  0  0  0  0  0  0  0  0  0  0
   -0.7457   -2.4380    4.0985 H   0  0  0  0  0  0  0  0  0  0  0  0
   -0.3013   -0.1610   -2.7838 N   0  0  0  0  0  0  0  0  0  0  0  0
   -0.4894    0.8252   -3.8561 C   0  0  2  0  0  0  0  0  0  0  0  0
   -1.1446    2.0985   -3.2748 C   0  0  0  0  0  0  0  0  0  0  0  0
   -1.5918    2.0744   -2.1273 O   0  0  0  0  0  0  0  0  0  0  0  0
   -1.3661    0.1923   -4.9391 C   0  0  0  0  0  0  0  0  0  0  0  0
   -1.1210   -0.2831   -2.1942 H   0  0  0  0  0  0  0  0  0  0  0  0
    0.4690    1.1073   -4.3063 H   0  0  0  0  0  0  0  0  0  0  0  0
   -2.3452   -0.0819   -4.5335 H   0  0  0  0  0  0  0  0  0  0  0  0
   -1.5172    0.8909   -5.7678 H   0  0  0  0  0  0  0  0  0  0  0  0
   -0.8868   -0.7095   -5.3332 H   0  0  0  0  0  0  0  0  0  0  0  0
   -1.2135    3.2667   -4.0080 N   0  0  0  0  0  0  0  0  0  0  0  0
   -1.7851    4.5060   -3.4923 C   0  0  0  0  0  0  0  0  0  0  0  0
   -0.8012    3.2681   -4.9378 H   0  0  0  0  0  0  0  0  0  0  0  0
   -2.8272    4.3534   -3.1915 H   0  0  0  0  0  0  0  0  0  0  0  0
   -1.2165    4.8595   -2.6257 H   0  0  0  0  0  0  0  0  0  0  0  0
   -1.7606    5.2841   -4.2618 H   0  0  0  0  0  0  0  0  0  0  0  0
  1  2  2  0  0  0  0
  1  3  1  0  0  0  0
  1  7  1  0  0  0  0
  3  4  1  0  0  0  0
  3  5  1  0  0  0  0
  3  6  1  0  0  0  0
  7  8  1  0  0  0  0
  7 12  1  0  0  0  0
  8  9  1  0  0  0  0
  8 11  1  0  0  0  0
  8 13  1  0  0  0  0
  9 10  2  0  0  0  0
  9 17  1  0  0  0  0
 11 14  1  0  0  0  0
 11 15  1  0  0  0  0
 11 16  1  0  0  0  0
 17 18  1  0  0  0  0
 17 27  1  0  0  0  0
 18 19  1  0  0  0  0
 18 21  1  0  0  0  0
 18 28  1  0  0  0  0
 19 20  2  0  0  0  0
 19 35  1  0  0  0  0
 21 22  1  0  0  0  0
 21 29  1  0  0  0  0
 21 30  1  0  0  0  0
 22 23  1  0  0  0  0
 22 24  2  0  0  0  0
 23 25  2  0  0  0  0
 23 31  1  0  0  0  0
 24 26  1  0  0  0  0
 24 32  1  0  0  0  0
 25 26  1  0  0  0  0
 25 33  1  0  0  0  0
 26 34  1  0  0  0  0
 35 36  1  0  0  0  0
 35 40  1  0  0  0  0
 36 37  1  0  0  0  0
 36 39  1  0  0  0  0
 36 41  1  0  0  0  0
 37 38  2  0  0  0  0
 37 45  1  0  0  0  0
 39 42  1  0  0  0  0
 39 43  1  0  0  0  0
 39 44  1  0  0  0  0
 45 46  1  0  0  0  0
 45 47  1  0  0  0  0
 46 48  1  0  0  0  0
 46 49  1  0  0  0  0
 46 50  1  0  0  0  0
M  CHG  1  23   1
M  END
$$$$

  -OEChem-05262216443D

 50 50  0     1  0  0  0  0  0999 V2000
   -1.8912    0.8536    4.1424 C   0  0  0  0  0  0  0  0  0  0  0  0
   -2.1983   -0.2129    3.6251 O   0  0  0  0  0  0  0  0  0  0  0  0
   -1.9113    0.9919    5.6525 C   0  0  0  0  0  0  0  0  0  0  0  0
   -2.2676    0.0673    6.1144 H   0  0  0  0  0  0  0  0  0  0  0  0
   -0.9055    1.2070    6.0216 H   0  0  0  0  0  0  0  0  0  0  0  0
   -2.5794    1.8067    5.9428 H   0  0  0  0  0  0  0  0  0  0  0  0
   -1.4867    1.9216    3.3687 N   0  0  0  0  0  0  0  0  0  0  0  0
   -1.3788    1.8897    1.9017 C   0  0  2  0  0  0  0  0  0  0  0  0
   -0.2505    0.9763    1.3612 C   0  0  0  0  0  0  0  0  0  0  0  0
    0.6709    0.6197    2.0902 O   0  0  0  0  0  0  0  0  0  0  0  0
   -1.1548    3.3356    1.4499 C   0  0  0  0  0  0  0  0  0  0  0  0
   -1.1425    2.7421    3.8600 H   0  0  0  0  0  0  0  0  0  0  0  0
   -2.3259    1.5324    1.4833 H   0  0  0  0  0  0  0  0  0  0  0  0
   -0.2079    3.7192    1.8440 H   0  0  0  0  0  0  0  0  0  0  0  0
   -1.1248    3.4004    0.3591 H   0  0  0  0  0  0  0  0  0  0  0  0
   -1.9679    3.9765    1.8055 H   0  0  0  0  0  0  0  0  0  0  0  0
   -0.2506    0.5814    0.0301 N   0  0  0  0  0  0  0  0  0  0  0  0
    0.7149   -0.3723   -0.5703 C   0  0  2  0  0  0  0  0  0  0  0  0
    0.6794   -0.3026   -2.1077 C   0  0  0  0  0  0  0  0  0  0  0  0
    1.7273   -0.3449   -2.7313 O   0  0  0  0  0  0  0  0  0  0  0  0
    0.3587   -1.8465   -0.2502 C   0  0  0  0  0  0  0  0  0  0  0  0
    0.4290   -2.1794    1.2142 C   0  0  0  0  0  0  0  0  0  0  0  0
    1.5775   -2.3674    1.9828 N   0  3  0  0  0  0  0  0  0  0  0  0
   -0.6529   -2.3150    2.0441 C   0  0  0  0  0  0  0  0  0  0  0  0
    1.2496   -2.5254    3.2429 C   0  0  0  0  0  0  0  0  0  0  0  0
   -0.1415   -2.5257    3.3140 N   0  0  0  0  0  0  0  0  0  0  0  0
   -0.8011    1.1770   -0.5986 H   0  0  0  0  0  0  0  0  0  0  0  0
    1.7313   -0.1369   -0.2344 H   0  0  0  0  0  0  0  0  0  0  0  0
    1.0385   -2.5135   -0.7932 H   0  0  0  0  0  0  0  0  0  0  0  0
   -0.6539   -2.0539   -0.6130 H   0  0  0  0  0  0  0  0  0  0  0  0
    2.5187   -2.2041    1.6182 H   0  0  0  0  0  0  0  0  0  0  0  0
   -1.7028   -2.1840    1.7827 H   0  0  0  0  0  0  0  0  0  0  0  0
    1.9385   -2.5975    4.0848 H   0  0  0  0  0  0  0  0  0  0  0  0
   -0.7003   -2.4953    4.1713 H   0  0  0  0  0  0  0  0  0  0  0  0
   -0.4975    0.0354   -2.7467 N   0  0  0  0  0  0  0  0  0  0  0  0
   -0.5153    1.0483   -3.8081 C   0  0  2  0  0  0  0  0  0  0  0  0
   -0.9602    2.4010   -3.2091 C   0  0  0  0  0  0  0  0  0  0  0  0
   -1.3834    2.4353   -2.0526 O   0  0  0  0  0  0  0  0  0  0  0  0
   -1.4777    0.5776   -4.9009 C   0  0  0  0  0  0  0  0  0  0  0  0
   -1.2956    0.0912   -2.1187 H   0  0  0  0  0  0  0  0  0  0  0  0
    0.4798    1.1783   -4.2484 H   0  0  0  0  0  0  0  0  0  0  0  0
   -2.4928    0.4734   -4.5040 H   0  0  0  0  0  0  0  0  0  0  0  0
   -1.5001    1.2935   -5.7283 H   0  0  0  0  0  0  0  0  0  0  0  0
   -1.1563   -0.3920   -5.2947 H   0  0  0  0  0  0  0  0  0  0  0  0
   -0.8707    3.5693   -3.9395 N   0  0  0  0  0  0  0  0  0  0  0  0
   -1.2687    4.8732   -3.4212 C   0  0  0  0  0  0  0  0  0  0  0  0
   -0.5035    3.5101   -4.8860 H   0  0  0  0  0  0  0  0  0  0  0  0
   -2.3310    4.8726   -3.1549 H   0  0  0  0  0  0  0  0  0  0  0  0
   -0.6823    5.1291   -2.5322 H   0  0  0  0  0  0  0  0  0  0  0  0
   -1.1036    5.6475   -4.1771 H   0  0  0  0  0  0  0  0  0  0  0  0
  1  2  2  0  0  0  0
  1  3  1  0  0  0  0
  1  7  1  0  0  0  0
  3  4  1  0  0  0  0
  3  5  1  0  0  0  0
  3  6  1  0  0  0  0
  7  8  1  0  0  0  0
  7 12  1  0  0  0  0
  8  9  1  0  0  0  0
  8 11  1  0  0  0  0
  8 13  1  0  0  0  0
  9 10  2  0  0  0  0
  9 17  1  0  0  0  0
 11 14  1  0  0  0  0
 11 15  1  0  0  0  0
 11 16  1  0  0  0  0
 17 18  1  0  0  0  0
 17 27  1  0  0  0  0
 18 19  1  0  0  0  0
 18 21  1  0  0  0  0
 18 28  1  0  0  0  0
 19 20  2  0  0  0  0
 19 35  1  0  0  0  0
 21 22  1  0  0  0  0
 21 29  1  0  0  0  0
 21 30  1  0  0  0  0
 22 23  1  0  0  0  0
 22 24  2  0  0  0  0
 23 25  2  0  0  0  0
 23 31  1  0  0  0  0
 24 26  1  0  0  0  0
 24 32  1  0  0  0  0
 25 26  1  0  0  0  0
 25 33  1  0  0  0  0
 26 34  1  0  0  0  0
 35 36  1  0  0  0  0
 35 40  1  0  0  0  0
 36 37  1  0  0  0  0
 36 39  1  0  0  0  0
 36 41  1  0  0  0  0
 37 38  2  0  0  0  0
 37 45  1  0  0  0  0
 39 42  1  0  0  0  0
 39 43  1  0  0  0  0
 39 44  1  0  0  0  0
 45 46  1  0  0  0  0
 45 47  1  0  0  0  0
 46 48  1  0  0  0  0
 46 49  1  0  0  0  0
 46 50  1  0  0  0  0
M  CHG  1  23   1
M  END
$$$$

  -OEChem-05262216443D

 50 50  0     1  0  0  0  0  0999 V2000
   -1.5306    0.5844    4.8034 C   0  0  0  0  0  0  0  0  0  0  0  0
   -1.9652   -0.4579    4.3278 O   0  0  0  0  0  0  0  0  0  0  0  0
   -1.2588    0.6802    6.2922 C   0  0  0  0  0  0  0  0  0  0  0  0
   -1.5430   -0.2500    6.7917 H   0  0  0  0  0  0  0  0  0  0  0  0
   -0.1959    0.8642    6.4674 H   0  0  0  0  0  0  0  0  0  0  0  0
   -1.8381    1.5001    6.7244 H   0  0  0  0  0  0  0  0  0  0  0  0
   -1.2523    1.6644    3.9905 N   0  0  0  0  0  0  0  0  0  0  0  0
   -1.3879    1.6550    2.5257 C   0  0  2  0  0  0  0  0  0  0  0  0
   -0.2281    0.9459    1.7803 C   0  0  0  0  0  0  0  0  0  0  0  0
    0.7220    0.4700    2.3935 O   0  0  0  0  0  0  0  0  0  0  0  0
   -1.5046    3.1165    2.0791 C   0  0  0  0  0  0  0  0  0  0  0  0
   -0.7755    2.4508    4.4251 H   0  0  0  0  0  0  0  0  0  0  0  0
   -2.3167    1.1392    2.2593 H   0  0  0  0  0  0  0  0  0  0  0  0
   -0.5809    3.6616    2.3003 H   0  0  0  0  0  0  0  0  0  0  0  0
   -1.6940    3.1816    1.0031 H   0  0  0  0  0  0  0  0  0  0  0  0
   -2.3325    3.6086    2.5997 H   0  0  0  0  0  0  0  0  0  0  0  0
   -0.2491    0.8328    0.3961 N   0  0  0  0  0  0  0  0  0  0  0  0
    0.5659   -0.1400   -0.3728 C   0  0  2  0  0  0  0  0  0  0  0  0
    0.6303    0.2041   -1.8765 C   0  0  0  0  0  0  0  0  0  0  0  0
    1.4025   -0.4107   -2.5966 O   0  0  0  0  0  0  0  0  0  0  0  0
   -0.0123   -1.5788   -0.2925 C   0  0  0  0  0  0  0  0  0  0  0  0
    0.0070   -2.1393    1.1034 C   0  0  0  0  0  0  0  0  0  0  0  0
    1.1205   -2.6087    1.8005 N   0  3  0  0  0  0  0  0  0  0  0  0
   -1.0777   -2.2484    1.9332 C   0  0  0  0  0  0  0  0  0  0  0  0
    0.7840   -2.8985    3.0343 C   0  0  0  0  0  0  0  0  0  0  0  0
   -0.5911   -2.7093    3.1455 N   0  0  0  0  0  0  0  0  0  0  0  0
   -1.0793    1.2117   -0.0526 H   0  0  0  0  0  0  0  0  0  0  0  0
    1.5942   -0.1273    0.0050 H   0  0  0  0  0  0  0  0  0  0  0  0
    0.5627   -2.2488   -0.9424 H   0  0  0  0  0  0  0  0  0  0  0  0
   -1.0404   -1.5713   -0.6704 H   0  0  0  0  0  0  0  0  0  0  0  0
    2.0727   -2.5366    1.4342 H   0  0  0  0  0  0  0  0  0  0  0  0
   -2.1021   -1.9452    1.7232 H   0  0  0  0  0  0  0  0  0  0  0  0
    1.4614   -3.1879    3.8383 H   0  0  0  0  0  0  0  0  0  0  0  0
   -1.1179   -2.6571    4.0247 H   0  0  0  0  0  0  0  0  0  0  0  0
   -0.2474    1.1090   -2.4395 N   0  0  0  0  0  0  0  0  0  0  0  0
   -0.1281    1.6368   -3.8038 C   0  0  2  0  0  0  0  0  0  0  0  0
   -0.5923    3.1094   -3.8261 C   0  0  0  0  0  0  0  0  0  0  0  0
   -1.1131    3.5868   -2.8205 O   0  0  0  0  0  0  0  0  0  0  0  0
   -0.9749    0.7740   -4.7442 C   0  0  0  0  0  0  0  0  0  0  0  0
   -0.7191    1.7396   -1.7937 H   0  0  0  0  0  0  0  0  0  0  0  0
    0.9175    1.6124   -4.1305 H   0  0  0  0  0  0  0  0  0  0  0  0
   -2.0272    0.7975   -4.4436 H   0  0  0  0  0  0  0  0  0  0  0  0
   -0.8989    1.1370   -5.7737 H   0  0  0  0  0  0  0  0  0  0  0  0
   -0.6281   -0.2640   -4.7203 H   0  0  0  0  0  0  0  0  0  0  0  0
   -0.4026    3.9030   -4.9413 N   0  0  0  0  0  0  0  0  0  0  0  0
   -0.7980    5.3061   -5.0018 C   0  0  0  0  0  0  0  0  0  0  0  0
    0.0459    3.4848   -5.7521 H   0  0  0  0  0  0  0  0  0  0  0  0
   -1.8820    5.4050   -4.8820 H   0  0  0  0  0  0  0  0  0  0  0  0
   -0.3025    5.8799   -4.2115 H   0  0  0  0  0  0  0  0  0  0  0  0
   -0.5167    5.7376   -5.9673 H   0  0  0  0  0  0  0  0  0  0  0  0
  1  2  2  0  0  0  0
  1  3  1  0  0  0  0
  1  7  1  0  0  0  0
  3  4  1  0  0  0  0
  3  5  1  0  0  0  0
  3  6  1  0  0  0  0
  7  8  1  0  0  0  0
  7 12  1  0  0  0  0
  8  9  1  0  0  0  0
  8 11  1  0  0  0  0
  8 13  1  0  0  0  0
  9 10  2  0  0  0  0
  9 17  1  0  0  0  0
 11 14  1  0  0  0  0
 11 15  1  0  0  0  0
 11 16  1  0  0  0  0
 17 18  1  0  0  0  0
 17 27  1  0  0  0  0
 18 19  1  0  0  0  0
 18 21  1  0  0  0  0
 18 28  1  0  0  0  0
 19 20  2  0  0  0  0
 19 35  1  0  0  0  0
 21 22  1  0  0  0  0
 21 29  1  0  0  0  0
 21 30  1  0  0  0  0
 22 23  1  0  0  0  0
 22 24  2  0  0  0  0
 23 25  2  0  0  0  0
 23 31  1  0  0  0  0
 24 26  1  0  0  0  0
 24 32  1  0  0  0  0
 25 26  1  0  0  0  0
 25 33  1  0  0  0  0
 26 34  1  0  0  0  0
 35 36  1  0  0  0  0
 35 40  1  0  0  0  0
 36 37  1  0  0  0  0
 36 39  1  0  0  0  0
 36 41  1  0  0  0  0
 37 38  2  0  0  0  0
 37 45  1  0  0  0  0
 39 42  1  0  0  0  0
 39 43  1  0  0  0  0
 39 44  1  0  0  0  0
 45 46  1  0  0  0  0
 45 47  1  0  0  0  0
 46 48  1  0  0  0  0
 46 49  1  0  0  0  0
 46 50  1  0  0  0  0
M  CHG  1  23   1
M  END
$$$$

  -OEChem-05262216443D

 50 50  0     1  0  0  0  0  0999 V2000
   -1.4224    0.6300    4.8149 C   0  0  0  0  0  0  0  0  0  0  0  0
   -1.8905   -0.4190    4.3882 O   0  0  0  0  0  0  0  0  0  0  0  0
   -1.0776    0.7600    6.2860 C   0  0  0  0  0  0  0  0  0  0  0  0
   -1.3082   -0.1688    6.8148 H   0  0  0  0  0  0  0  0  0  0  0  0
   -0.0129    0.9774    6.4029 H   0  0  0  0  0  0  0  0  0  0  0  0
   -1.6576    1.5703    6.7345 H   0  0  0  0  0  0  0  0  0  0  0  0
   -1.1695    1.6844    3.9611 N   0  0  0  0  0  0  0  0  0  0  0  0
   -1.3616    1.6343    2.5038 C   0  0  2  0  0  0  0  0  0  0  0  0
   -0.2264    0.9097    1.7362 C   0  0  0  0  0  0  0  0  0  0  0  0
    0.7337    0.4281    2.3289 O   0  0  0  0  0  0  0  0  0  0  0  0
   -1.5034    3.0825    2.0223 C   0  0  0  0  0  0  0  0  0  0  0  0
   -0.6605    2.4736    4.3515 H   0  0  0  0  0  0  0  0  0  0  0  0
   -2.2967    1.1076    2.2858 H   0  0  0  0  0  0  0  0  0  0  0  0
   -0.5756    3.6382    2.1948 H   0  0  0  0  0  0  0  0  0  0  0  0
   -1.7330    3.1181    0.9527 H   0  0  0  0  0  0  0  0  0  0  0  0
   -2.3146    3.5844    2.5598 H   0  0  0  0  0  0  0  0  0  0  0  0
   -0.2817    0.7853    0.3541 N   0  0  0  0  0  0  0  0  0  0  0  0
    0.4928   -0.2111   -0.4263 C   0  0  2  0  0  0  0  0  0  0  0  0
    0.5136    0.1436   -1.9306 C   0  0  0  0  0  0  0  0  0  0  0  0
    1.0590   -0.6046   -2.7281 O   0  0  0  0  0  0  0  0  0  0  0  0
   -0.1207   -1.6347   -0.3130 C   0  0  0  0  0  0  0  0  0  0  0  0
   -0.0795   -2.1792    1.0888 C   0  0  0  0  0  0  0  0  0  0  0  0
    1.0361   -2.6705    1.7667 N   0  3  0  0  0  0  0  0  0  0  0  0
   -1.1461   -2.2417    1.9464 C   0  0  0  0  0  0  0  0  0  0  0  0
    0.7224   -2.9250    3.0142 C   0  0  0  0  0  0  0  0  0  0  0  0
   -0.6432   -2.6928    3.1556 N   0  0  0  0  0  0  0  0  0  0  0  0
   -1.1220    1.1633   -0.0786 H   0  0  0  0  0  0  0  0  0  0  0  0
    1.5321   -0.2199   -0.0804 H   0  0  0  0  0  0  0  0  0  0  0  0
    0.4188   -2.3299   -0.9667 H   0  0  0  0  0  0  0  0  0  0  0  0
   -1.1572   -1.6046   -0.6653 H   0  0  0  0  0  0  0  0  0  0  0  0
    1.9799   -2.6369    1.3748 H   0  0  0  0  0  0  0  0  0  0  0  0
   -2.1658   -1.9111    1.7555 H   0  0  0  0  0  0  0  0  0  0  0  0
    1.4112   -3.2174    3.8074 H   0  0  0  0  0  0  0  0  0  0  0  0
   -1.1423   -2.5939    4.0474 H   0  0  0  0  0  0  0  0  0  0  0  0
   -0.1373    1.2702   -2.3925 N   0  0  0  0  0  0  0  0  0  0  0  0
   -0.0168    1.8068   -3.7532 C   0  0  2  0  0  0  0  0  0  0  0  0
   -0.1901    3.3410   -3.7176 C   0  0  0  0  0  0  0  0  0  0  0  0
   -0.5663    3.8763   -2.6776 O   0  0  0  0  0  0  0  0  0  0  0  0
   -1.0794    1.1550   -4.6442 C   0  0  0  0  0  0  0  0  0  0  0  0
   -0.3774    1.9677   -1.6882 H   0  0  0  0  0  0  0  0  0  0  0  0
    0.9794    1.5912   -4.1552 H   0  0  0  0  0  0  0  0  0  0  0  0
   -2.0835    1.3770   -4.2687 H   0  0  0  0  0  0  0  0  0  0  0  0
   -1.0020    1.5260   -5.6707 H   0  0  0  0  0  0  0  0  0  0  0  0
   -0.9460    0.0688   -4.6622 H   0  0  0  0  0  0  0  0  0  0  0  0
    0.0992    4.1211   -4.8207 N   0  0  0  0  0  0  0  0  0  0  0  0
   -0.0321    5.5740   -4.8269 C   0  0  0  0  0  0  0  0  0  0  0  0
    0.4241    3.6541   -5.6630 H   0  0  0  0  0  0  0  0  0  0  0  0
   -1.0751    5.8646   -4.6615 H   0  0  0  0  0  0  0  0  0  0  0  0
    0.5866    6.0201   -4.0407 H   0  0  0  0  0  0  0  0  0  0  0  0
    0.2914    5.9804   -5.7902 H   0  0  0  0  0  0  0  0  0  0  0  0
  1  2  2  0  0  0  0
  1  3  1  0  0  0  0
  1  7  1  0  0  0  0
  3  4  1  0  0  0  0
  3  5  1  0  0  0  0
  3  6  1  0  0  0  0
  7  8  1  0  0  0  0
  7 12  1  0  0  0  0
  8  9  1  0  0  0  0
  8 11  1  0  0  0  0
  8 13  1  0  0  0  0
  9 10  2  0  0  0  0
  9 17  1  0  0  0  0
 11 14  1  0  0  0  0
 11 15  1  0  0  0  0
 11 16  1  0  0  0  0
 17 18  1  0  0  0  0
 17 27  1  0  0  0  0
 18 19  1  0  0  0  0
 18 21  1  0  0  0  0
 18 28  1  0  0  0  0
 19 20  2  0  0  0  0
 19 35  1  0  0  0  0
 21 22  1  0  0  0  0
 21 29  1  0  0  0  0
 21 30  1  0  0  0  0
 22 23  1  0  0  0  0
 22 24  2  0  0  0  0
 23 25  2  0  0  0  0
 23 31  1  0  0  0  0
 24 26  1  0  0  0  0
 24 32  1  0  0  0  0
 25 26  1  0  0  0  0
 25 33  1  0  0  0  0
 26 34  1  0  0  0  0
 35 36  1  0  0  0  0
 35 40  1  0  0  0  0
 36 37  1  0  0  0  0
 36 39  1  0  0  0  0
 36 41  1  0  0  0  0
 37 38  2  0  0  0  0
 37 45  1  0  0  0  0
 39 42  1  0  0  0  0
 39 43  1  0  0  0  0
 39 44  1  0  0  0  0
 45 46  1  0  0  0  0
 45 47  1  0  0  0  0
 46 48  1  0  0  0  0
 46 49  1  0  0  0  0
 46 50  1  0  0  0  0
M  CHG  1  23   1
M  END
$$$$

  -OEChem-05262216443D

 50 50  0     1  0  0  0  0  0999 V2000
   -1.3349    0.6627    4.8153 C   0  0  0  0  0  0  0  0  0  0  0  0
   -1.8527   -0.3701    4.4064 O   0  0  0  0  0  0  0  0  0  0  0  0
   -0.9310    0.7788    6.2724 C   0  0  0  0  0  0  0  0  0  0  0  0
   -1.3018   -0.0798    6.8390 H   0  0  0  0  0  0  0  0  0  0  0  0
    0.1580    0.8154    6.3564 H   0  0  0  0  0  0  0  0  0  0  0  0
   -1.3517    1.6899    6.7052 H   0  0  0  0  0  0  0  0  0  0  0  0
   -1.0742    1.7067    3.9510 N   0  0  0  0  0  0  0  0  0  0  0  0
   -1.3081    1.6540    2.4997 C   0  0  2  0  0  0  0  0  0  0  0  0
   -0.2177    0.8863    1.7100 C   0  0  0  0  0  0  0  0  0  0  0  0
    0.7379    0.3743    2.2844 O   0  0  0  0  0  0  0  0  0  0  0  0
   -1.4170    3.1020    2.0095 C   0  0  0  0  0  0  0  0  0  0  0  0
   -0.5191    2.4747    4.3205 H   0  0  0  0  0  0  0  0  0  0  0  0
   -2.2653    1.1568    2.3108 H   0  0  0  0  0  0  0  0  0  0  0  0
   -0.4657    3.6271    2.1464 H   0  0  0  0  0  0  0  0  0  0  0  0
   -1.6799    3.1358    0.9475 H   0  0  0  0  0  0  0  0  0  0  0  0
   -2.1933    3.6351    2.5682 H   0  0  0  0  0  0  0  0  0  0  0  0
   -0.3011    0.7608    0.3295 N   0  0  0  0  0  0  0  0  0  0  0  0
    0.4336   -0.2558   -0.4622 C   0  0  2  0  0  0  0  0  0  0  0  0
    0.4225    0.1170   -1.9641 C   0  0  0  0  0  0  0  0  0  0  0  0
    0.7139   -0.7089   -2.8166 O   0  0  0  0  0  0  0  0  0  0  0  0
   -0.2226   -1.6606   -0.3300 C   0  0  0  0  0  0  0  0  0  0  0  0
   -0.1768   -2.2051    1.0726 C   0  0  0  0  0  0  0  0  0  0  0  0
    0.9294   -2.7323    1.7391 N   0  3  0  0  0  0  0  0  0  0  0  0
   -1.2354   -2.2321    1.9425 C   0  0  0  0  0  0  0  0  0  0  0  0
    0.6215   -2.9729    2.9910 C   0  0  0  0  0  0  0  0  0  0  0  0
   -0.7339   -2.6952    3.1477 N   0  0  0  0  0  0  0  0  0  0  0  0
   -1.1238    1.1807   -0.0998 H   0  0  0  0  0  0  0  0  0  0  0  0
    1.4797   -0.2938   -0.1397 H   0  0  0  0  0  0  0  0  0  0  0  0
    0.2845   -2.3763   -0.9875 H   0  0  0  0  0  0  0  0  0  0  0  0
   -1.2624   -1.5996   -0.6678 H   0  0  0  0  0  0  0  0  0  0  0  0
    1.8693   -2.7321    1.3368 H   0  0  0  0  0  0  0  0  0  0  0  0
   -2.2461   -1.8700    1.7614 H   0  0  0  0  0  0  0  0  0  0  0  0
    1.3089   -3.2853    3.7776 H   0  0  0  0  0  0  0  0  0  0  0  0
   -1.2177   -2.5748    4.0455 H   0  0  0  0  0  0  0  0  0  0  0  0
    0.0656    1.3927   -2.3522 N   0  0  0  0  0  0  0  0  0  0  0  0
    0.1712    1.9302   -3.7139 C   0  0  2  0  0  0  0  0  0  0  0  0
    0.2575    3.4712   -3.6565 C   0  0  0  0  0  0  0  0  0  0  0  0
    0.0563    4.0438   -2.5887 O   0  0  0  0  0  0  0  0  0  0  0  0
   -1.0466    1.4854   -4.5318 C   0  0  0  0  0  0  0  0  0  0  0  0
    0.0253    2.0968   -1.6139 H   0  0  0  0  0  0  0  0  0  0  0  0
    1.0853    1.5589   -4.1899 H   0  0  0  0  0  0  0  0  0  0  0  0
   -1.9706    1.8462   -4.0692 H   0  0  0  0  0  0  0  0  0  0  0  0
   -0.9906    1.8799   -5.5508 H   0  0  0  0  0  0  0  0  0  0  0  0
   -1.0890    0.3932   -4.5915 H   0  0  0  0  0  0  0  0  0  0  0  0
    0.5799    4.2132   -4.7768 N   0  0  0  0  0  0  0  0  0  0  0  0
    0.6817    5.6686   -4.7672 C   0  0  0  0  0  0  0  0  0  0  0  0
    0.7471    3.7151   -5.6469 H   0  0  0  0  0  0  0  0  0  0  0  0
   -0.2817    6.1185   -4.5048 H   0  0  0  0  0  0  0  0  0  0  0  0
    1.4327    5.9973   -4.0407 H   0  0  0  0  0  0  0  0  0  0  0  0
    0.9761    6.0354   -5.7553 H   0  0  0  0  0  0  0  0  0  0  0  0
  1  2  2  0  0  0  0
  1  3  1  0  0  0  0
  1  7  1  0  0  0  0
  3  4  1  0  0  0  0
  3  5  1  0  0  0  0
  3  6  1  0  0  0  0
  7  8  1  0  0  0  0
  7 12  1  0  0  0  0
  8  9  1  0  0  0  0
  8 11  1  0  0  0  0
  8 13  1  0  0  0  0
  9 10  2  0  0  0  0
  9 17  1  0  0  0  0
 11 14  1  0  0  0  0
 11 15  1  0  0  0  0
 11 16  1  0  0  0  0
 17 18  1  0  0  0  0
 17 27  1  0  0  0  0
 18 19  1  0  0  0  0
 18 21  1  0  0  0  0
 18 28  1  0  0  0  0
 19 20  2  0  0  0  0
 19 35  1  0  0  0  0
 21 22  1  0  0  0  0
 21 29  1  0  0  0  0
 21 30  1  0  0  0  0
 22 23  1  0  0  0  0
 22 24  2  0  0  0  0
 23 25  2  0  0  0  0
 23 31  1  0  0  0  0
 24 26  1  0  0  0  0
 24 32  1  0  0  0  0
 25 26  1  0  0  0  0
 25 33  1  0  0  0  0
 26 34  1  0  0  0  0
 35 36  1  0  0  0  0
 35 40  1  0  0  0  0
 36 37  1  0  0  0  0
 36 39  1  0  0  0  0
 36 41  1  0  0  0  0
 37 38  2  0  0  0  0
 37 45  1  0  0  0  0
 39 42  1  0  0  0  0
 39 43  1  0  0  0  0
 39 44  1  0  0  0  0
 45 46  1  0  0  0  0
 45 47  1  0  0  0  0
 46 48  1  0  0  0  0
 46 49  1  0  0  0  0
 46 50  1  0  0  0  0
M  CHG  1  23   1
M  END
$$$$

  -OEChem-05262216443D

 50 50  0     1  0  0  0  0  0999 V2000
   -1.2832    0.6510    4.8089 C   0  0  0  0  0  0  0  0  0  0  0  0
   -1.8354   -0.3596    4.3898 O   0  0  0  0  0  0  0  0  0  0  0  0
   -0.8774    0.7398    6.2674 C   0  0  0  0  0  0  0  0  0  0  0  0
   -1.2674   -0.1175    6.8231 H   0  0  0  0  0  0  0  0  0  0  0  0
    0.2121    0.7509    6.3526 H   0  0  0  0  0  0  0  0  0  0  0  0
   -1.2784    1.6544    6.7118 H   0  0  0  0  0  0  0  0  0  0  0  0
   -0.9903    1.6958    3.9561 N   0  0  0  0  0  0  0  0  0  0  0  0
   -1.2466    1.6780    2.5076 C   0  0  2  0  0  0  0  0  0  0  0  0
   -0.2108    0.8672    1.6881 C   0  0  0  0  0  0  0  0  0  0  0  0
    0.7465    0.3273    2.2335 O   0  0  0  0  0  0  0  0  0  0  0  0
   -1.2812    3.1377    2.0416 C   0  0  0  0  0  0  0  0  0  0  0  0
   -0.4117    2.4423    4.3333 H   0  0  0  0  0  0  0  0  0  0  0  0
   -2.2320    1.2356    2.3257 H   0  0  0  0  0  0  0  0  0  0  0  0
   -0.3011    3.6075    2.1756 H   0  0  0  0  0  0  0  0  0  0  0  0
   -1.5535    3.2024    0.9836 H   0  0  0  0  0  0  0  0  0  0  0  0
   -2.0207    3.7039    2.6173 H   0  0  0  0  0  0  0  0  0  0  0  0
   -0.3392    0.7452    0.3107 N   0  0  0  0  0  0  0  0  0  0  0  0
    0.3460   -0.2829   -0.5086 C   0  0  2  0  0  0  0  0  0  0  0  0
    0.2814    0.1157   -2.0035 C   0  0  0  0  0  0  0  0  0  0  0  0
    0.2851   -0.7260   -2.8901 O   0  0  0  0  0  0  0  0  0  0  0  0
   -0.3305   -1.6770   -0.3552 C   0  0  0  0  0  0  0  0  0  0  0  0
   -0.2442   -2.2274    1.0425 C   0  0  0  0  0  0  0  0  0  0  0  0
    0.8736   -2.7778    1.6701 N   0  3  0  0  0  0  0  0  0  0  0  0
   -1.2738   -2.2390    1.9464 C   0  0  0  0  0  0  0  0  0  0  0  0
    0.6010   -3.0234    2.9293 C   0  0  0  0  0  0  0  0  0  0  0  0
   -0.7430   -2.7210    3.1313 N   0  0  0  0  0  0  0  0  0  0  0  0
   -1.1455    1.2112   -0.1024 H   0  0  0  0  0  0  0  0  0  0  0  0
    1.4022   -0.3430   -0.2250 H   0  0  0  0  0  0  0  0  0  0  0  0
    0.1399   -2.3993   -1.0319 H   0  0  0  0  0  0  0  0  0  0  0  0
   -1.3811   -1.5967   -0.6548 H   0  0  0  0  0  0  0  0  0  0  0  0
    1.7996   -2.7937    1.2372 H   0  0  0  0  0  0  0  0  0  0  0  0
   -2.2828   -1.8564    1.7996 H   0  0  0  0  0  0  0  0  0  0  0  0
    1.3064   -3.3579    3.6900 H   0  0  0  0  0  0  0  0  0  0  0  0
   -1.2004   -2.6098    4.0434 H   0  0  0  0  0  0  0  0  0  0  0  0
    0.2441    1.4531   -2.3432 N   0  0  0  0  0  0  0  0  0  0  0  0
    0.3372    2.0009   -3.7028 C   0  0  2  0  0  0  0  0  0  0  0  0
    0.7384    3.4912   -3.6386 C   0  0  0  0  0  0  0  0  0  0  0  0
    0.7500    4.0643   -2.5530 O   0  0  0  0  0  0  0  0  0  0  0  0
   -1.0116    1.8403   -4.4158 C   0  0  0  0  0  0  0  0  0  0  0  0
    0.3962    2.1242   -1.5881 H   0  0  0  0  0  0  0  0  0  0  0  0
    1.1118    1.4659   -4.2629 H   0  0  0  0  0  0  0  0  0  0  0  0
   -1.7992    2.3688   -3.8694 H   0  0  0  0  0  0  0  0  0  0  0  0
   -0.9602    2.2456   -5.4308 H   0  0  0  0  0  0  0  0  0  0  0  0
   -1.2859    0.7832   -4.4866 H   0  0  0  0  0  0  0  0  0  0  0  0
    1.0983    4.1859   -4.7778 N   0  0  0  0  0  0  0  0  0  0  0  0
    1.4774    5.5951   -4.7679 C   0  0  0  0  0  0  0  0  0  0  0  0
    1.0802    3.6891   -5.6641 H   0  0  0  0  0  0  0  0  0  0  0  0
    0.6454    6.2139   -4.4151 H   0  0  0  0  0  0  0  0  0  0  0  0
    2.3389    5.7574   -4.1112 H   0  0  0  0  0  0  0  0  0  0  0  0
    1.7473    5.9226   -5.7768 H   0  0  0  0  0  0  0  0  0  0  0  0
  1  2  2  0  0  0  0
  1  3  1  0  0  0  0
  1  7  1  0  0  0  0
  3  4  1  0  0  0  0
  3  5  1  0  0  0  0
  3  6  1  0  0  0  0
  7  8  1  0  0  0  0
  7 12  1  0  0  0  0
  8  9  1  0  0  0  0
  8 11  1  0  0  0  0
  8 13  1  0  0  0  0
  9 10  2  0  0  0  0
  9 17  1  0  0  0  0
 11 14  1  0  0  0  0
 11 15  1  0  0  0  0
 11 16  1  0  0  0  0
 17 18  1  0  0  0  0
 17 27  1  0  0  0  0
 18 19  1  0  0  0  0
 18 21  1  0  0  0  0
 18 28  1  0  0  0  0
 19 20  2  0  0  0  0
 19 35  1  0  0  0  0
 21 22  1  0  0  0  0
 21 29  1  0  0  0  0
 21 30  1  0  0  0  0
 22 23  1  0  0  0  0
 22 24  2  0  0  0  0
 23 25  2  0  0  0  0
 23 31  1  0  0  0  0
 24 26  1  0  0  0  0
 24 32  1  0  0  0  0
 25 26  1  0  0  0  0
 25 33  1  0  0  0  0
 26 34  1  0  0  0  0
 35 36  1  0  0  0  0
 35 40  1  0  0  0  0
 36 37  1  0  0  0  0
 36 39  1  0  0  0  0
 36 41  1  0  0  0  0
 37 38  2  0  0  0  0
 37 45  1  0  0  0  0
 39 42  1  0  0  0  0
 39 43  1  0  0  0  0
 39 44  1  0  0  0  0
 45 46  1  0  0  0  0
 45 47  1  0  0  0  0
 46 48  1  0  0  0  0
 46 49  1  0  0  0  0
 46 50  1  0  0  0  0
M  CHG  1  23   1
M  END
$$$$

  -OEChem-05262216443D

 50 50  0     1  0  0  0  0  0999 V2000
   -1.3969    0.2384    4.8844 C   0  0  0  0  0  0  0  0  0  0  0  0
   -1.5852   -0.8746    4.4081 O   0  0  0  0  0  0  0  0  0  0  0  0
   -0.9710    0.3779    6.3332 C   0  0  0  0  0  0  0  0  0  0  0  0
   -0.9823   -0.5970    6.8281 H   0  0  0  0  0  0  0  0  0  0  0  0
    0.0394    0.7906    6.3881 H   0  0  0  0  0  0  0  0  0  0  0  0
   -1.6576    1.0446    6.8613 H   0  0  0  0  0  0  0  0  0  0  0  0
   -1.5370    1.3679    4.1039 N   0  0  0  0  0  0  0  0  0  0  0  0
   -1.8589    1.3469    2.6684 C   0  0  2  0  0  0  0  0  0  0  0  0
   -0.6551    1.0219    1.7475 C   0  0  0  0  0  0  0  0  0  0  0  0
    0.4625    0.8236    2.2124 O   0  0  0  0  0  0  0  0  0  0  0  0
   -2.4527    2.7170    2.3248 C   0  0  0  0  0  0  0  0  0  0  0  0
   -1.2353    2.2465    4.5177 H   0  0  0  0  0  0  0  0  0  0  0  0
   -2.6263    0.5868    2.4873 H   0  0  0  0  0  0  0  0  0  0  0  0
   -1.7053    3.5058    2.4607 H   0  0  0  0  0  0  0  0  0  0  0  0
   -2.7983    2.7415    1.2869 H   0  0  0  0  0  0  0  0  0  0  0  0
   -3.3087    2.9331    2.9726 H   0  0  0  0  0  0  0  0  0  0  0  0
   -0.8221    0.9462    0.3709 N   0  0  0  0  0  0  0  0  0  0  0  0
    0.1021    0.2456   -0.5503 C   0  0  2  0  0  0  0  0  0  0  0  0
   -0.1807    0.6899   -2.0053 C   0  0  0  0  0  0  0  0  0  0  0  0
   -0.2337   -0.1181   -2.9231 O   0  0  0  0  0  0  0  0  0  0  0  0
   -0.0377   -1.3020   -0.4618 C   0  0  0  0  0  0  0  0  0  0  0  0
    0.3422   -1.8539    0.8845 C   0  0  0  0  0  0  0  0  0  0  0  0
    1.6308   -2.0041    1.3968 N   0  3  0  0  0  0  0  0  0  0  0  0
   -0.5375   -2.2829    1.8429 C   0  0  0  0  0  0  0  0  0  0  0  0
    1.5700   -2.4041    2.6440 C   0  0  0  0  0  0  0  0  0  0  0  0
    0.2275   -2.6127    2.9494 N   0  0  0  0  0  0  0  0  0  0  0  0
   -1.7650    1.1251    0.0297 H   0  0  0  0  0  0  0  0  0  0  0  0
    1.1342    0.5324   -0.3216 H   0  0  0  0  0  0  0  0  0  0  0  0
    0.5992   -1.7781   -1.2162 H   0  0  0  0  0  0  0  0  0  0  0  0
   -1.0714   -1.5792   -0.6957 H   0  0  0  0  0  0  0  0  0  0  0  0
    2.4629   -1.6627    0.9105 H   0  0  0  0  0  0  0  0  0  0  0  0
   -1.6248   -2.2804    1.7872 H   0  0  0  0  0  0  0  0  0  0  0  0
    2.4105   -2.5106    3.3299 H   0  0  0  0  0  0  0  0  0  0  0  0
   -0.1604   -2.7407    3.8906 H   0  0  0  0  0  0  0  0  0  0  0  0
   -0.3581    2.0347   -2.2713 N   0  0  0  0  0  0  0  0  0  0  0  0
   -0.1298    2.5804   -3.6184 C   0  0  2  0  0  0  0  0  0  0  0  0
    1.3649    2.9020   -3.8388 C   0  0  0  0  0  0  0  0  0  0  0  0
    2.1020    3.0500   -2.8696 O   0  0  0  0  0  0  0  0  0  0  0  0
   -0.9804    3.8440   -3.7667 C   0  0  0  0  0  0  0  0  0  0  0  0
   -0.0698    2.6414   -1.5057 H   0  0  0  0  0  0  0  0  0  0  0  0
   -0.4427    1.8620   -4.3839 H   0  0  0  0  0  0  0  0  0  0  0  0
   -0.6815    4.5970   -3.0300 H   0  0  0  0  0  0  0  0  0  0  0  0
   -0.8592    4.2713   -4.7672 H   0  0  0  0  0  0  0  0  0  0  0  0
   -2.0393    3.6099   -3.6182 H   0  0  0  0  0  0  0  0  0  0  0  0
    1.8851    3.0247   -5.1132 N   0  0  0  0  0  0  0  0  0  0  0  0
    3.2975    3.2794   -5.3764 C   0  0  0  0  0  0  0  0  0  0  0  0
    1.2652    2.8434   -5.8978 H   0  0  0  0  0  0  0  0  0  0  0  0
    3.6196    4.2058   -4.8888 H   0  0  0  0  0  0  0  0  0  0  0  0
    3.9116    2.4535   -5.0022 H   0  0  0  0  0  0  0  0  0  0  0  0
    3.4714    3.3800   -6.4522 H   0  0  0  0  0  0  0  0  0  0  0  0
  1  2  2  0  0  0  0
  1  3  1  0  0  0  0
  1  7  1  0  0  0  0
  3  4  1  0  0  0  0
  3  5  1  0  0  0  0
  3  6  1  0  0  0  0
  7  8  1  0  0  0  0
  7 12  1  0  0  0  0
  8  9  1  0  0  0  0
  8 11  1  0  0  0  0
  8 13  1  0  0  0  0
  9 10  2  0  0  0  0
  9 17  1  0  0  0  0
 11 14  1  0  0  0  0
 11 15  1  0  0  0  0
 11 16  1  0  0  0  0
 17 18  1  0  0  0  0
 17 27  1  0  0  0  0
 18 19  1  0  0  0  0
 18 21  1  0  0  0  0
 18 28  1  0  0  0  0
 19 20  2  0  0  0  0
 19 35  1  0  0  0  0
 21 22  1  0  0  0  0
 21 29  1  0  0  0  0
 21 30  1  0  0  0  0
 22 23  1  0  0  0  0
 22 24  2  0  0  0  0
 23 25  2  0  0  0  0
 23 31  1  0  0  0  0
 24 26  1  0  0  0  0
 24 32  1  0  0  0  0
 25 26  1  0  0  0  0
 25 33  1  0  0  0  0
 26 34  1  0  0  0  0
 35 36  1  0  0  0  0
 35 40  1  0  0  0  0
 36 37  1  0  0  0  0
 36 39  1  0  0  0  0
 36 41  1  0  0  0  0
 37 38  2  0  0  0  0
 37 45  1  0  0  0  0
 39 42  1  0  0  0  0
 39 43  1  0  0  0  0
 39 44  1  0  0  0  0
 45 46  1  0  0  0  0
 45 47  1  0  0  0  0
 46 48  1  0  0  0  0
 46 49  1  0  0  0  0
 46 50  1  0  0  0  0
M  CHG  1  23   1
M  END
$$$$

  -OEChem-05262216443D

 50 50  0     1  0  0  0  0  0999 V2000
   -1.4443    0.1175    4.8861 C   0  0  0  0  0  0  0  0  0  0  0  0
   -1.6282   -0.9702    4.3535 O   0  0  0  0  0  0  0  0  0  0  0  0
   -1.0175    0.1831    6.3397 C   0  0  0  0  0  0  0  0  0  0  0  0
   -1.0277   -0.8162    6.7836 H   0  0  0  0  0  0  0  0  0  0  0  0
   -0.0073    0.5931    6.4146 H   0  0  0  0  0  0  0  0  0  0  0  0
   -1.7038    0.8216    6.9018 H   0  0  0  0  0  0  0  0  0  0  0  0
   -1.5833    1.2849    4.1634 N   0  0  0  0  0  0  0  0  0  0  0  0
   -1.8960    1.3353    2.7266 C   0  0  2  0  0  0  0  0  0  0  0  0
   -0.6832    1.0682    1.7999 C   0  0  0  0  0  0  0  0  0  0  0  0
    0.4352    0.8690    2.2630 O   0  0  0  0  0  0  0  0  0  0  0  0
   -2.4956    2.7176    2.4504 C   0  0  0  0  0  0  0  0  0  0  0  0
   -1.2768    2.1405    4.6199 H   0  0  0  0  0  0  0  0  0  0  0  0
   -2.6558    0.5796    2.4999 H   0  0  0  0  0  0  0  0  0  0  0  0
   -1.7579    3.5031    2.6457 H   0  0  0  0  0  0  0  0  0  0  0  0
   -2.8205    2.7987    1.4087 H   0  0  0  0  0  0  0  0  0  0  0  0
   -3.3657    2.8895    3.0925 H   0  0  0  0  0  0  0  0  0  0  0  0
   -0.8394    1.0505    0.4204 N   0  0  0  0  0  0  0  0  0  0  0  0
    0.1029    0.4037   -0.5193 C   0  0  2  0  0  0  0  0  0  0  0  0
   -0.1770    0.9080   -1.9538 C   0  0  0  0  0  0  0  0  0  0  0  0
   -0.4883    0.1416   -2.8564 O   0  0  0  0  0  0  0  0  0  0  0  0
   -0.0129   -1.1473   -0.5039 C   0  0  0  0  0  0  0  0  0  0  0  0
    0.3612   -1.7547    0.8197 C   0  0  0  0  0  0  0  0  0  0  0  0
    1.6443   -1.9106    1.3439 N   0  3  0  0  0  0  0  0  0  0  0  0
   -0.5264   -2.2409    1.7426 C   0  0  0  0  0  0  0  0  0  0  0  0
    1.5706   -2.3683    2.5706 C   0  0  0  0  0  0  0  0  0  0  0  0
    0.2271   -2.6129    2.8436 N   0  0  0  0  0  0  0  0  0  0  0  0
   -1.7831    1.2258    0.0790 H   0  0  0  0  0  0  0  0  0  0  0  0
    1.1297    0.6926   -0.2686 H   0  0  0  0  0  0  0  0  0  0  0  0
    0.6366   -1.5736   -1.2774 H   0  0  0  0  0  0  0  0  0  0  0  0
   -1.0406   -1.4304   -0.7583 H   0  0  0  0  0  0  0  0  0  0  0  0
    2.4776   -1.5324    0.8877 H   0  0  0  0  0  0  0  0  0  0  0  0
   -1.6130   -2.2505    1.6695 H   0  0  0  0  0  0  0  0  0  0  0  0
    2.4020   -2.4918    3.2649 H   0  0  0  0  0  0  0  0  0  0  0  0
   -0.1726   -2.7940    3.7710 H   0  0  0  0  0  0  0  0  0  0  0  0
   -0.0630    2.2591   -2.2192 N   0  0  0  0  0  0  0  0  0  0  0  0
    0.2050    2.7363   -3.5846 C   0  0  2  0  0  0  0  0  0  0  0  0
    1.6996    2.5863   -3.9495 C   0  0  0  0  0  0  0  0  0  0  0  0
    2.5336    2.4401   -3.0611 O   0  0  0  0  0  0  0  0  0  0  0  0
   -0.2260    4.2026   -3.6636 C   0  0  0  0  0  0  0  0  0  0  0  0
    0.3811    2.7905   -1.4733 H   0  0  0  0  0  0  0  0  0  0  0  0
   -0.3840    2.1640   -4.3098 H   0  0  0  0  0  0  0  0  0  0  0  0
    0.3601    4.8145   -2.9701 H   0  0  0  0  0  0  0  0  0  0  0  0
   -0.0792    4.5907   -4.6764 H   0  0  0  0  0  0  0  0  0  0  0  0
   -1.2857    4.3010   -3.4078 H   0  0  0  0  0  0  0  0  0  0  0  0
    2.1107    2.6125   -5.2686 N   0  0  0  0  0  0  0  0  0  0  0  0
    3.4997    2.4336   -5.6765 C   0  0  0  0  0  0  0  0  0  0  0  0
    1.3948    2.6794   -5.9865 H   0  0  0  0  0  0  0  0  0  0  0  0
    4.1395    3.1861   -5.2033 H   0  0  0  0  0  0  0  0  0  0  0  0
    3.8576    1.4382   -5.3926 H   0  0  0  0  0  0  0  0  0  0  0  0
    3.5923    2.5380   -6.7622 H   0  0  0  0  0  0  0  0  0  0  0  0
  1  2  2  0  0  0  0
  1  3  1  0  0  0  0
  1  7  1  0  0  0  0
  3  4  1  0  0  0  0
  3  5  1  0  0  0  0
  3  6  1  0  0  0  0
  7  8  1  0  0  0  0
  7 12  1  0  0  0  0
  8  9  1  0  0  0  0
  8 11  1  0  0  0  0
  8 13  1  0  0  0  0
  9 10  2  0  0  0  0
  9 17  1  0  0  0  0
 11 14  1  0  0  0  0
 11 15  1  0  0  0  0
 11 16  1  0  0  0  0
 17 18  1  0  0  0  0
 17 27  1  0  0  0  0
 18 19  1  0  0  0  0
 18 21  1  0  0  0  0
 18 28  1  0  0  0  0
 19 20  2  0  0  0  0
 19 35  1  0  0  0  0
 21 22  1  0  0  0  0
 21 29  1  0  0  0  0
 21 30  1  0  0  0  0
 22 23  1  0  0  0  0
 22 24  2  0  0  0  0
 23 25  2  0  0  0  0
 23 31  1  0  0  0  0
 24 26  1  0  0  0  0
 24 32  1  0  0  0  0
 25 26  1  0  0  0  0
 25 33  1  0  0  0  0
 26 34  1  0  0  0  0
 35 36  1  0  0  0  0
 35 40  1  0  0  0  0
 36 37  1  0  0  0  0
 36 39  1  0  0  0  0
 36 41  1  0  0  0  0
 37 38  2  0  0  0  0
 37 45  1  0  0  0  0
 39 42  1  0  0  0  0
 39 43  1  0  0  0  0
 39 44  1  0  0  0  0
 45 46  1  0  0  0  0
 45 47  1  0  0  0  0
 46 48  1  0  0  0  0
 46 49  1  0  0  0  0
 46 50  1  0  0  0  0
M  CHG  1  23   1
M  END
$$$$

  -OEChem-05262216443D

 50 50  0     1  0  0  0  0  0999 V2000
   -1.4372    0.0262    4.8948 C   0  0  0  0  0  0  0  0  0  0  0  0
   -1.6071   -1.0420    4.3194 O   0  0  0  0  0  0  0  0  0  0  0  0
   -1.0327    0.0412    6.3564 C   0  0  0  0  0  0  0  0  0  0  0  0
   -1.0022   -0.9773    6.7528 H   0  0  0  0  0  0  0  0  0  0  0  0
   -0.0436    0.4928    6.4668 H   0  0  0  0  0  0  0  0  0  0  0  0
   -1.7553    0.6201    6.9373 H   0  0  0  0  0  0  0  0  0  0  0  0
   -1.5815    1.2200    4.2174 N   0  0  0  0  0  0  0  0  0  0  0  0
   -1.8963    1.3279    2.7841 C   0  0  2  0  0  0  0  0  0  0  0  0
   -0.6836    1.1107    1.8439 C   0  0  0  0  0  0  0  0  0  0  0  0
    0.4351    0.8826    2.2930 O   0  0  0  0  0  0  0  0  0  0  0  0
   -2.5092    2.7152    2.5673 C   0  0  0  0  0  0  0  0  0  0  0  0
   -1.2986    2.0614    4.7138 H   0  0  0  0  0  0  0  0  0  0  0  0
   -2.6503    0.5761    2.5264 H   0  0  0  0  0  0  0  0  0  0  0  0
   -1.7748    3.4985    2.7825 H   0  0  0  0  0  0  0  0  0  0  0  0
   -2.8487    2.8332    1.5337 H   0  0  0  0  0  0  0  0  0  0  0  0
   -3.3724    2.8562    3.2261 H   0  0  0  0  0  0  0  0  0  0  0  0
   -0.8435    1.1650    0.4661 N   0  0  0  0  0  0  0  0  0  0  0  0
    0.0859    0.5567   -0.5093 C   0  0  2  0  0  0  0  0  0  0  0  0
   -0.1894    1.1343   -1.9151 C   0  0  0  0  0  0  0  0  0  0  0  0
   -0.7489    0.4719   -2.7798 O   0  0  0  0  0  0  0  0  0  0  0  0
   -0.0468   -0.9908   -0.5763 C   0  0  0  0  0  0  0  0  0  0  0  0
    0.3276   -1.6704    0.7121 C   0  0  0  0  0  0  0  0  0  0  0  0
    1.6122   -1.8664    1.2195 N   0  3  0  0  0  0  0  0  0  0  0  0
   -0.5595   -2.1874    1.6186 C   0  0  0  0  0  0  0  0  0  0  0  0
    1.5415   -2.3804    2.4240 C   0  0  0  0  0  0  0  0  0  0  0  0
    0.1964   -2.6177    2.6964 N   0  0  0  0  0  0  0  0  0  0  0  0
   -1.7879    1.3605    0.1377 H   0  0  0  0  0  0  0  0  0  0  0  0
    1.1178    0.8148   -0.2466 H   0  0  0  0  0  0  0  0  0  0  0  0
    0.5887   -1.3804   -1.3801 H   0  0  0  0  0  0  0  0  0  0  0  0
   -1.0801   -1.2497   -0.8336 H   0  0  0  0  0  0  0  0  0  0  0  0
    2.4487   -1.4849    0.7715 H   0  0  0  0  0  0  0  0  0  0  0  0
   -1.6464   -2.1786    1.5534 H   0  0  0  0  0  0  0  0  0  0  0  0
    2.3763   -2.5493    3.1047 H   0  0  0  0  0  0  0  0  0  0  0  0
   -0.2003   -2.8250    3.6199 H   0  0  0  0  0  0  0  0  0  0  0  0
    0.2336    2.4170   -2.2058 N   0  0  0  0  0  0  0  0  0  0  0  0
    0.5596    2.7921   -3.5897 C   0  0  2  0  0  0  0  0  0  0  0  0
    1.9291    2.2155   -4.0193 C   0  0  0  0  0  0  0  0  0  0  0  0
    2.7119    1.7966   -3.1709 O   0  0  0  0  0  0  0  0  0  0  0  0
    0.5662    4.3206   -3.6760 C   0  0  0  0  0  0  0  0  0  0  0  0
    0.8233    2.8325   -1.4884 H   0  0  0  0  0  0  0  0  0  0  0  0
   -0.2047    2.4096   -4.2752 H   0  0  0  0  0  0  0  0  0  0  0  0
    1.3358    4.7403   -3.0200 H   0  0  0  0  0  0  0  0  0  0  0  0
    0.7708    4.6458   -4.7009 H   0  0  0  0  0  0  0  0  0  0  0  0
   -0.4063    4.7232   -3.3756 H   0  0  0  0  0  0  0  0  0  0  0  0
    2.2845    2.1604   -5.3535 N   0  0  0  0  0  0  0  0  0  0  0  0
    3.5456    1.5963   -5.8218 C   0  0  0  0  0  0  0  0  0  0  0  0
    1.5998    2.4667   -6.0393 H   0  0  0  0  0  0  0  0  0  0  0  0
    4.3933    2.1317   -5.3808 H   0  0  0  0  0  0  0  0  0  0  0  0
    3.6173    0.5381   -5.5490 H   0  0  0  0  0  0  0  0  0  0  0  0
    3.6165    1.6777   -6.9109 H   0  0  0  0  0  0  0  0  0  0  0  0
  1  2  2  0  0  0  0
  1  3  1  0  0  0  0
  1  7  1  0  0  0  0
  3  4  1  0  0  0  0
  3  5  1  0  0  0  0
  3  6  1  0  0  0  0
  7  8  1  0  0  0  0
  7 12  1  0  0  0  0
  8  9  1  0  0  0  0
  8 11  1  0  0  0  0
  8 13  1  0  0  0  0
  9 10  2  0  0  0  0
  9 17  1  0  0  0  0
 11 14  1  0  0  0  0
 11 15  1  0  0  0  0
 11 16  1  0  0  0  0
 17 18  1  0  0  0  0
 17 27  1  0  0  0  0
 18 19  1  0  0  0  0
 18 21  1  0  0  0  0
 18 28  1  0  0  0  0
 19 20  2  0  0  0  0
 19 35  1  0  0  0  0
 21 22  1  0  0  0  0
 21 29  1  0  0  0  0
 21 30  1  0  0  0  0
 22 23  1  0  0  0  0
 22 24  2  0  0  0  0
 23 25  2  0  0  0  0
 23 31  1  0  0  0  0
 24 26  1  0  0  0  0
 24 32  1  0  0  0  0
 25 26  1  0  0  0  0
 25 33  1  0  0  0  0
 26 34  1  0  0  0  0
 35 36  1  0  0  0  0
 35 40  1  0  0  0  0
 36 37  1  0  0  0  0
 36 39  1  0  0  0  0
 36 41  1  0  0  0  0
 37 38  2  0  0  0  0
 37 45  1  0  0  0  0
 39 42  1  0  0  0  0
 39 43  1  0  0  0  0
 39 44  1  0  0  0  0
 45 46  1  0  0  0  0
 45 47  1  0  0  0  0
 46 48  1  0  0  0  0
 46 49  1  0  0  0  0
 46 50  1  0  0  0  0
M  CHG  1  23   1
M  END
$$$$

  -OEChem-05262216443D

 50 50  0     1  0  0  0  0  0999 V2000
   -1.4791   -0.0540    4.8891 C   0  0  0  0  0  0  0  0  0  0  0  0
   -1.6467   -1.0993    4.2723 O   0  0  0  0  0  0  0  0  0  0  0  0
   -1.1030   -0.0975    6.3578 C   0  0  0  0  0  0  0  0  0  0  0  0
   -1.1636   -1.1221    6.7352 H   0  0  0  0  0  0  0  0  0  0  0  0
   -0.0829    0.2700    6.4936 H   0  0  0  0  0  0  0  0  0  0  0  0
   -1.7863    0.5287    6.9372 H   0  0  0  0  0  0  0  0  0  0  0  0
   -1.5994    1.1648    4.2525 N   0  0  0  0  0  0  0  0  0  0  0  0
   -1.8880    1.3292    2.8188 C   0  0  2  0  0  0  0  0  0  0  0  0
   -0.6570    1.1540    1.8932 C   0  0  0  0  0  0  0  0  0  0  0  0
    0.4476    0.8804    2.3520 O   0  0  0  0  0  0  0  0  0  0  0  0
   -2.5064    2.7206    2.6475 C   0  0  0  0  0  0  0  0  0  0  0  0
   -1.3211    1.9853    4.7848 H   0  0  0  0  0  0  0  0  0  0  0  0
   -2.6323    0.5844    2.5172 H   0  0  0  0  0  0  0  0  0  0  0  0
   -1.7829    3.4982    2.9136 H   0  0  0  0  0  0  0  0  0  0  0  0
   -2.8228    2.8816    1.6124 H   0  0  0  0  0  0  0  0  0  0  0  0
   -3.3860    2.8275    3.2908 H   0  0  0  0  0  0  0  0  0  0  0  0
   -0.7857    1.2777    0.5167 N   0  0  0  0  0  0  0  0  0  0  0  0
    0.1539    0.6977   -0.4649 C   0  0  2  0  0  0  0  0  0  0  0  0
   -0.0721    1.3411   -1.8485 C   0  0  0  0  0  0  0  0  0  0  0  0
   -0.8575    0.8493   -2.6490 O   0  0  0  0  0  0  0  0  0  0  0  0
   -0.0138   -0.8383   -0.6225 C   0  0  0  0  0  0  0  0  0  0  0  0
    0.3086   -1.5927    0.6372 C   0  0  0  0  0  0  0  0  0  0  0  0
    1.5727   -1.8468    1.1687 N   0  3  0  0  0  0  0  0  0  0  0  0
   -0.6176   -2.1237    1.4950 C   0  0  0  0  0  0  0  0  0  0  0  0
    1.4540   -2.4098    2.3472 C   0  0  0  0  0  0  0  0  0  0  0  0
    0.0961   -2.6219    2.5723 N   0  0  0  0  0  0  0  0  0  0  0  0
   -1.7189    1.5034    0.1752 H   0  0  0  0  0  0  0  0  0  0  0  0
    1.1838    0.9146   -0.1621 H   0  0  0  0  0  0  0  0  0  0  0  0
    0.6338   -1.1977   -1.4307 H   0  0  0  0  0  0  0  0  0  0  0  0
   -1.0461   -1.0584   -0.9172 H   0  0  0  0  0  0  0  0  0  0  0  0
    2.4312   -1.4711    0.7591 H   0  0  0  0  0  0  0  0  0  0  0  0
   -1.7016   -2.0777    1.4013 H   0  0  0  0  0  0  0  0  0  0  0  0
    2.2638   -2.6305    3.0428 H   0  0  0  0  0  0  0  0  0  0  0  0
   -0.3315   -2.8475    3.4779 H   0  0  0  0  0  0  0  0  0  0  0  0
    0.6348    2.4771   -2.1922 N   0  0  0  0  0  0  0  0  0  0  0  0
    0.9454    2.7499   -3.6032 C   0  0  2  0  0  0  0  0  0  0  0  0
    2.0754    1.8286   -4.1207 C   0  0  0  0  0  0  0  0  0  0  0  0
    2.7682    1.1991   -3.3252 O   0  0  0  0  0  0  0  0  0  0  0  0
    1.3505    4.2215   -3.7201 C   0  0  0  0  0  0  0  0  0  0  0  0
    1.3554    2.7407   -1.5247 H   0  0  0  0  0  0  0  0  0  0  0  0
    0.0576    2.5843   -4.2235 H   0  0  0  0  0  0  0  0  0  0  0  0
    2.2530    4.4208   -3.1330 H   0  0  0  0  0  0  0  0  0  0  0  0
    1.5519    4.4820   -4.7640 H   0  0  0  0  0  0  0  0  0  0  0  0
    0.5455    4.8668   -3.3541 H   0  0  0  0  0  0  0  0  0  0  0  0
    2.3108    1.6985   -5.4762 N   0  0  0  0  0  0  0  0  0  0  0  0
    3.3338    0.8196   -6.0321 C   0  0  0  0  0  0  0  0  0  0  0  0
    1.6882    2.1880   -6.1129 H   0  0  0  0  0  0  0  0  0  0  0  0
    4.3221    1.0832   -5.6402 H   0  0  0  0  0  0  0  0  0  0  0  0
    3.1213   -0.2245   -5.7792 H   0  0  0  0  0  0  0  0  0  0  0  0
    3.3610    0.9122   -7.1225 H   0  0  0  0  0  0  0  0  0  0  0  0
  1  2  2  0  0  0  0
  1  3  1  0  0  0  0
  1  7  1  0  0  0  0
  3  4  1  0  0  0  0
  3  5  1  0  0  0  0
  3  6  1  0  0  0  0
  7  8  1  0  0  0  0
  7 12  1  0  0  0  0
  8  9  1  0  0  0  0
  8 11  1  0  0  0  0
  8 13  1  0  0  0  0
  9 10  2  0  0  0  0
  9 17  1  0  0  0  0
 11 14  1  0  0  0  0
 11 15  1  0  0  0  0
 11 16  1  0  0  0  0
 17 18  1  0  0  0  0
 17 27  1  0  0  0  0
 18 19  1  0  0  0  0
 18 21  1  0  0  0  0
 18 28  1  0  0  0  0
 19 20  2  0  0  0  0
 19 35  1  0  0  0  0
 21 22  1  0  0  0  0
 21 29  1  0  0  0  0
 21 30  1  0  0  0  0
 22 23  1  0  0  0  0
 22 24  2  0  0  0  0
 23 25  2  0  0  0  0
 23 31  1  0  0  0  0
 24 26  1  0  0  0  0
 24 32  1  0  0  0  0
 25 26  1  0  0  0  0
 25 33  1  0  0  0  0
 26 34  1  0  0  0  0
 35 36  1  0  0  0  0
 35 40  1  0  0  0  0
 36 37  1  0  0  0  0
 36 39  1  0  0  0  0
 36 41  1  0  0  0  0
 37 38  2  0  0  0  0
 37 45  1  0  0  0  0
 39 42  1  0  0  0  0
 39 43  1  0  0  0  0
 39 44  1  0  0  0  0
 45 46  1  0  0  0  0
 45 47  1  0  0  0  0
 46 48  1  0  0  0  0
 46 49  1  0  0  0  0
 46 50  1  0  0  0  0
M  CHG  1  23   1
M  END
$$$$

  -OEChem-05262216443D

 50 50  0     1  0  0  0  0  0999 V2000
   -1.5273   -0.1185    4.8450 C   0  0  0  0  0  0  0  0  0  0  0  0
   -1.7206   -1.1274    4.1771 O   0  0  0  0  0  0  0  0  0  0  0  0
   -1.1553   -0.2430    6.3099 C   0  0  0  0  0  0  0  0  0  0  0  0
   -1.2066   -1.2880    6.6275 H   0  0  0  0  0  0  0  0  0  0  0  0
   -0.1391    0.1258    6.4703 H   0  0  0  0  0  0  0  0  0  0  0  0
   -1.8473    0.3414    6.9217 H   0  0  0  0  0  0  0  0  0  0  0  0
   -1.6114    1.1332    4.2693 N   0  0  0  0  0  0  0  0  0  0  0  0
   -1.8694    1.3721    2.8406 C   0  0  2  0  0  0  0  0  0  0  0  0
   -0.6286    1.1901    1.9303 C   0  0  0  0  0  0  0  0  0  0  0  0
    0.4571    0.8566    2.3959 O   0  0  0  0  0  0  0  0  0  0  0  0
   -2.4292    2.7932    2.7176 C   0  0  0  0  0  0  0  0  0  0  0  0
   -1.3108    1.9180    4.8417 H   0  0  0  0  0  0  0  0  0  0  0  0
   -2.6370    0.6711    2.4952 H   0  0  0  0  0  0  0  0  0  0  0  0
   -1.6747    3.5311    3.0102 H   0  0  0  0  0  0  0  0  0  0  0  0
   -2.7368    3.0013    1.6883 H   0  0  0  0  0  0  0  0  0  0  0  0
   -3.3049    2.9144    3.3633 H   0  0  0  0  0  0  0  0  0  0  0  0
   -0.7266    1.3798    0.5595 N   0  0  0  0  0  0  0  0  0  0  0  0
    0.2191    0.8252   -0.4285 C   0  0  2  0  0  0  0  0  0  0  0  0
    0.0392    1.5320   -1.7846 C   0  0  0  0  0  0  0  0  0  0  0  0
   -0.9052    1.2455   -2.5095 O   0  0  0  0  0  0  0  0  0  0  0  0
    0.0093   -0.6918   -0.6791 C   0  0  0  0  0  0  0  0  0  0  0  0
    0.2746   -1.5247    0.5435 C   0  0  0  0  0  0  0  0  0  0  0  0
    1.5158   -1.8474    1.0907 N   0  3  0  0  0  0  0  0  0  0  0  0
   -0.6901   -2.0609    1.3540 C   0  0  0  0  0  0  0  0  0  0  0  0
    1.3492   -2.4643    2.2358 C   0  0  0  0  0  0  0  0  0  0  0  0
   -0.0206   -2.6356    2.4215 N   0  0  0  0  0  0  0  0  0  0  0  0
   -1.6434    1.6537    0.2074 H   0  0  0  0  0  0  0  0  0  0  0  0
    1.2464    0.9959   -0.0904 H   0  0  0  0  0  0  0  0  0  0  0  0
    0.6683   -1.0238   -1.4904 H   0  0  0  0  0  0  0  0  0  0  0  0
   -1.0207   -0.8628   -1.0126 H   0  0  0  0  0  0  0  0  0  0  0  0
    2.3967   -1.4873    0.7166 H   0  0  0  0  0  0  0  0  0  0  0  0
   -1.7691   -1.9685    1.2397 H   0  0  0  0  0  0  0  0  0  0  0  0
    2.1339   -2.7498    2.9367 H   0  0  0  0  0  0  0  0  0  0  0  0
   -0.4768   -2.8807    3.3081 H   0  0  0  0  0  0  0  0  0  0  0  0
    0.9733    2.4605   -2.2007 N   0  0  0  0  0  0  0  0  0  0  0  0
    1.2608    2.6052   -3.6345 C   0  0  2  0  0  0  0  0  0  0  0  0
    2.0905    1.4113   -4.1662 C   0  0  0  0  0  0  0  0  0  0  0  0
    2.6066    0.6206   -3.3789 O   0  0  0  0  0  0  0  0  0  0  0  0
    2.0167    3.9220   -3.8285 C   0  0  0  0  0  0  0  0  0  0  0  0
    1.7746    2.5550   -1.5823 H   0  0  0  0  0  0  0  0  0  0  0  0
    0.3254    2.6539   -4.2030 H   0  0  0  0  0  0  0  0  0  0  0  0
    2.9734    3.8990   -3.2964 H   0  0  0  0  0  0  0  0  0  0  0  0
    2.2150    4.0984   -4.8902 H   0  0  0  0  0  0  0  0  0  0  0  0
    1.4243    4.7594   -3.4461 H   0  0  0  0  0  0  0  0  0  0  0  0
    2.2551    1.2187   -5.5248 N   0  0  0  0  0  0  0  0  0  0  0  0
    3.0068    0.1054   -6.0932 C   0  0  0  0  0  0  0  0  0  0  0  0
    1.7858    1.8637   -6.1546 H   0  0  0  0  0  0  0  0  0  0  0  0
    4.0442    0.1231   -5.7422 H   0  0  0  0  0  0  0  0  0  0  0  0
    2.5536   -0.8494   -5.8066 H   0  0  0  0  0  0  0  0  0  0  0  0
    3.0126    0.1704   -7.1859 H   0  0  0  0  0  0  0  0  0  0  0  0
  1  2  2  0  0  0  0
  1  3  1  0  0  0  0
  1  7  1  0  0  0  0
  3  4  1  0  0  0  0
  3  5  1  0  0  0  0
  3  6  1  0  0  0  0
  7  8  1  0  0  0  0
  7 12  1  0  0  0  0
  8  9  1  0  0  0  0
  8 11  1  0  0  0  0
  8 13  1  0  0  0  0
  9 10  2  0  0  0  0
  9 17  1  0  0  0  0
 11 14  1  0  0  0  0
 11 15  1  0  0  0  0
 11 16  1  0  0  0  0
 17 18  1  0  0  0  0
 17 27  1  0  0  0  0
 18 19  1  0  0  0  0
 18 21  1  0  0  0  0
 18 28  1  0  0  0  0
 19 20  2  0  0  0  0
 19 35  1  0  0  0  0
 21 22  1  0  0  0  0
 21 29  1  0  0  0  0
 21 30  1  0  0  0  0
 22 23  1  0  0  0  0
 22 24  2  0  0  0  0
 23 25  2  0  0  0  0
 23 31  1  0  0  0  0
 24 26  1  0  0  0  0
 24 32  1  0  0  0  0
 25 26  1  0  0  0  0
 25 33  1  0  0  0  0
 26 34  1  0  0  0  0
 35 36  1  0  0  0  0
 35 40  1  0  0  0  0
 36 37  1  0  0  0  0
 36 39  1  0  0  0  0
 36 41  1  0  0  0  0
 37 38  2  0  0  0  0
 37 45  1  0  0  0  0
 39 42  1  0  0  0  0
 39 43  1  0  0  0  0
 39 44  1  0  0  0  0
 45 46  1  0  0  0  0
 45 47  1  0  0  0  0
 46 48  1  0  0  0  0
 46 49  1  0  0  0  0
 46 50  1  0  0  0  0
M  CHG  1  23   1
M  END
$$$$

  -OEChem-05262216443D

 50 50  0     1  0  0  0  0  0999 V2000
   -1.6428   -0.1476    4.7846 C   0  0  0  0  0  0  0  0  0  0  0  0
   -1.8316   -1.1329    4.0809 O   0  0  0  0  0  0  0  0  0  0  0  0
   -1.3564   -0.3207    6.2637 C   0  0  0  0  0  0  0  0  0  0  0  0
   -1.4543   -1.3716    6.5496 H   0  0  0  0  0  0  0  0  0  0  0  0
   -0.3410    0.0143    6.4898 H   0  0  0  0  0  0  0  0  0  0  0  0
   -2.0648    0.2683    6.8521 H   0  0  0  0  0  0  0  0  0  0  0  0
   -1.6541    1.1205    4.2400 N   0  0  0  0  0  0  0  0  0  0  0  0
   -1.8306    1.4069    2.8078 C   0  0  2  0  0  0  0  0  0  0  0  0
   -0.5511    1.2109    1.9559 C   0  0  0  0  0  0  0  0  0  0  0  0
    0.4960    0.8184    2.4626 O   0  0  0  0  0  0  0  0  0  0  0  0
   -2.3410    2.8475    2.6993 C   0  0  0  0  0  0  0  0  0  0  0  0
   -1.3587    1.8790    4.8492 H   0  0  0  0  0  0  0  0  0  0  0  0
   -2.5994    0.7408    2.4019 H   0  0  0  0  0  0  0  0  0  0  0  0
   -1.5858    3.5515    3.0639 H   0  0  0  0  0  0  0  0  0  0  0  0
   -2.5761    3.0988    1.6603 H   0  0  0  0  0  0  0  0  0  0  0  0
   -3.2520    2.9742    3.2934 H   0  0  0  0  0  0  0  0  0  0  0  0
   -0.5762    1.4367    0.5876 N   0  0  0  0  0  0  0  0  0  0  0  0
    0.4051    0.8891   -0.3675 C   0  0  2  0  0  0  0  0  0  0  0  0
    0.2972    1.6393   -1.7064 C   0  0  0  0  0  0  0  0  0  0  0  0
   -0.7404    1.5720   -2.3538 O   0  0  0  0  0  0  0  0  0  0  0  0
    0.1508   -0.6074   -0.6885 C   0  0  0  0  0  0  0  0  0  0  0  0
    0.3136   -1.4934    0.5153 C   0  0  0  0  0  0  0  0  0  0  0  0
    1.5046   -1.8892    1.1225 N   0  3  0  0  0  0  0  0  0  0  0  0
   -0.7194   -2.0109    1.2507 C   0  0  0  0  0  0  0  0  0  0  0  0
    1.2438   -2.5283    2.2377 C   0  0  0  0  0  0  0  0  0  0  0  0
   -0.1406   -2.6442    2.3380 N   0  0  0  0  0  0  0  0  0  0  0  0
   -1.4592    1.7621    0.1942 H   0  0  0  0  0  0  0  0  0  0  0  0
    1.4187    1.0185    0.0256 H   0  0  0  0  0  0  0  0  0  0  0  0
    0.8395   -0.9401   -1.4743 H   0  0  0  0  0  0  0  0  0  0  0  0
   -0.8646   -0.7216   -1.0847 H   0  0  0  0  0  0  0  0  0  0  0  0
    2.4210   -1.5613    0.8102 H   0  0  0  0  0  0  0  0  0  0  0  0
   -1.7845   -1.8668    1.0764 H   0  0  0  0  0  0  0  0  0  0  0  0
    1.9721   -2.8665    2.9750 H   0  0  0  0  0  0  0  0  0  0  0  0
   -0.6583   -2.8866    3.1913 H   0  0  0  0  0  0  0  0  0  0  0  0
    1.3875    2.3223   -2.2098 N   0  0  0  0  0  0  0  0  0  0  0  0
    1.5786    2.4099   -3.6641 C   0  0  2  0  0  0  0  0  0  0  0  0
    2.0436    1.0541   -4.2482 C   0  0  0  0  0  0  0  0  0  0  0  0
    2.4671    0.1755   -3.4995 O   0  0  0  0  0  0  0  0  0  0  0  0
    2.6128    3.5048   -3.9387 C   0  0  0  0  0  0  0  0  0  0  0  0
    2.2379    2.2242   -1.6619 H   0  0  0  0  0  0  0  0  0  0  0  0
    0.6379    2.6905   -4.1510 H   0  0  0  0  0  0  0  0  0  0  0  0
    3.5763    3.2490   -3.4860 H   0  0  0  0  0  0  0  0  0  0  0  0
    2.7594    3.6322   -5.0157 H   0  0  0  0  0  0  0  0  0  0  0  0
    2.2744    4.4592   -3.5228 H   0  0  0  0  0  0  0  0  0  0  0  0
    1.9708    0.8093   -5.6061 N   0  0  0  0  0  0  0  0  0  0  0  0
    2.3380   -0.4666   -6.2106 C   0  0  0  0  0  0  0  0  0  0  0  0
    1.5601    1.5289   -6.1950 H   0  0  0  0  0  0  0  0  0  0  0  0
    3.3726   -0.7269   -5.9620 H   0  0  0  0  0  0  0  0  0  0  0  0
    1.6786   -1.2642   -5.8524 H   0  0  0  0  0  0  0  0  0  0  0  0
    2.2511   -0.4092   -7.3003 H   0  0  0  0  0  0  0  0  0  0  0  0
  1  2  2  0  0  0  0
  1  3  1  0  0  0  0
  1  7  1  0  0  0  0
  3  4  1  0  0  0  0
  3  5  1  0  0  0  0
  3  6  1  0  0  0  0
  7  8  1  0  0  0  0
  7 12  1  0  0  0  0
  8  9  1  0  0  0  0
  8 11  1  0  0  0  0
  8 13  1  0  0  0  0
  9 10  2  0  0  0  0
  9 17  1  0  0  0  0
 11 14  1  0  0  0  0
 11 15  1  0  0  0  0
 11 16  1  0  0  0  0
 17 18  1  0  0  0  0
 17 27  1  0  0  0  0
 18 19  1  0  0  0  0
 18 21  1  0  0  0  0
 18 28  1  0  0  0  0
 19 20  2  0  0  0  0
 19 35  1  0  0  0  0
 21 22  1  0  0  0  0
 21 29  1  0  0  0  0
 21 30  1  0  0  0  0
 22 23  1  0  0  0  0
 22 24  2  0  0  0  0
 23 25  2  0  0  0  0
 23 31  1  0  0  0  0
 24 26  1  0  0  0  0
 24 32  1  0  0  0  0
 25 26  1  0  0  0  0
 25 33  1  0  0  0  0
 26 34  1  0  0  0  0
 35 36  1  0  0  0  0
 35 40  1  0  0  0  0
 36 37  1  0  0  0  0
 36 39  1  0  0  0  0
 36 41  1  0  0  0  0
 37 38  2  0  0  0  0
 37 45  1  0  0  0  0
 39 42  1  0  0  0  0
 39 43  1  0  0  0  0
 39 44  1  0  0  0  0
 45 46  1  0  0  0  0
 45 47  1  0  0  0  0
 46 48  1  0  0  0  0
 46 49  1  0  0  0  0
 46 50  1  0  0  0  0
M  CHG  1  23   1
M  END
$$$$

  -OEChem-05262216443D

 50 50  0     1  0  0  0  0  0999 V2000
   -1.7420   -0.1174    4.7481 C   0  0  0  0  0  0  0  0  0  0  0  0
   -1.9548   -1.0789    4.0188 O   0  0  0  0  0  0  0  0  0  0  0  0
   -1.5276   -0.3325    6.2340 C   0  0  0  0  0  0  0  0  0  0  0  0
   -1.7233   -1.3751    6.4996 H   0  0  0  0  0  0  0  0  0  0  0  0
   -0.4971   -0.0868    6.5027 H   0  0  0  0  0  0  0  0  0  0  0  0
   -2.2065    0.3056    6.8056 H   0  0  0  0  0  0  0  0  0  0  0  0
   -1.6622    1.1584    4.2269 N   0  0  0  0  0  0  0  0  0  0  0  0
   -1.7697    1.4774    2.7946 C   0  0  2  0  0  0  0  0  0  0  0  0
   -0.4787    1.2094    1.9803 C   0  0  0  0  0  0  0  0  0  0  0  0
    0.5281    0.7562    2.5172 O   0  0  0  0  0  0  0  0  0  0  0  0
   -2.1788    2.9504    2.6934 C   0  0  0  0  0  0  0  0  0  0  0  0
   -1.3579    1.8920    4.8618 H   0  0  0  0  0  0  0  0  0  0  0  0
   -2.5673    0.8698    2.3540 H   0  0  0  0  0  0  0  0  0  0  0  0
   -1.3868    3.5979    3.0838 H   0  0  0  0  0  0  0  0  0  0  0  0
   -2.3717    3.2291    1.6527 H   0  0  0  0  0  0  0  0  0  0  0  0
   -3.0927    3.1318    3.2685 H   0  0  0  0  0  0  0  0  0  0  0  0
   -0.4483    1.4390    0.6125 N   0  0  0  0  0  0  0  0  0  0  0  0
    0.5460    0.8669   -0.3150 C   0  0  2  0  0  0  0  0  0  0  0  0
    0.5013    1.6282   -1.6519 C   0  0  0  0  0  0  0  0  0  0  0  0
   -0.5770    1.7912   -2.2100 O   0  0  0  0  0  0  0  0  0  0  0  0
    0.2288   -0.6099   -0.6676 C   0  0  0  0  0  0  0  0  0  0  0  0
    0.3016   -1.5183    0.5289 C   0  0  0  0  0  0  0  0  0  0  0  0
    1.4444   -1.9850    1.1778 N   0  3  0  0  0  0  0  0  0  0  0  0
   -0.7859   -1.9856    1.2180 C   0  0  0  0  0  0  0  0  0  0  0  0
    1.1049   -2.6221    2.2727 C   0  0  0  0  0  0  0  0  0  0  0  0
   -0.2862   -2.6625    2.3176 N   0  0  0  0  0  0  0  0  0  0  0  0
   -1.2909    1.8294    0.1894 H   0  0  0  0  0  0  0  0  0  0  0  0
    1.5506    0.9523    0.1119 H   0  0  0  0  0  0  0  0  0  0  0  0
    0.9279   -0.9702   -1.4310 H   0  0  0  0  0  0  0  0  0  0  0  0
   -0.7747   -0.6652   -1.1048 H   0  0  0  0  0  0  0  0  0  0  0  0
    2.3894   -1.7044    0.9079 H   0  0  0  0  0  0  0  0  0  0  0  0
   -1.8338   -1.7789    1.0064 H   0  0  0  0  0  0  0  0  0  0  0  0
    1.7832   -3.0085    3.0334 H   0  0  0  0  0  0  0  0  0  0  0  0
   -0.8493   -2.8820    3.1479 H   0  0  0  0  0  0  0  0  0  0  0  0
    1.6743    2.0158   -2.2704 N   0  0  0  0  0  0  0  0  0  0  0  0
    1.7507    2.1022   -3.7354 C   0  0  2  0  0  0  0  0  0  0  0  0
    1.9090    0.7000   -4.3679 C   0  0  0  0  0  0  0  0  0  0  0  0
    2.2460   -0.2519   -3.6673 O   0  0  0  0  0  0  0  0  0  0  0  0
    2.9426    2.9948   -4.0909 C   0  0  0  0  0  0  0  0  0  0  0  0
    2.5234    1.7051   -1.8067 H   0  0  0  0  0  0  0  0  0  0  0  0
    0.8407    2.5614   -4.1374 H   0  0  0  0  0  0  0  0  0  0  0  0
    3.8762    2.5582   -3.7213 H   0  0  0  0  0  0  0  0  0  0  0  0
    3.0230    3.1140   -5.1759 H   0  0  0  0  0  0  0  0  0  0  0  0
    2.8206    3.9866   -3.6441 H   0  0  0  0  0  0  0  0  0  0  0  0
    1.6669    0.4996   -5.7135 N   0  0  0  0  0  0  0  0  0  0  0  0
    1.7674   -0.8043   -6.3600 C   0  0  0  0  0  0  0  0  0  0  0  0
    1.3440    1.2936   -6.2600 H   0  0  0  0  0  0  0  0  0  0  0  0
    2.7738   -1.2183   -6.2358 H   0  0  0  0  0  0  0  0  0  0  0  0
    1.0432   -1.5031   -5.9283 H   0  0  0  0  0  0  0  0  0  0  0  0
    1.5635   -0.7131   -7.4315 H   0  0  0  0  0  0  0  0  0  0  0  0
  1  2  2  0  0  0  0
  1  3  1  0  0  0  0
  1  7  1  0  0  0  0
  3  4  1  0  0  0  0
  3  5  1  0  0  0  0
  3  6  1  0  0  0  0
  7  8  1  0  0  0  0
  7 12  1  0  0  0  0
  8  9  1  0  0  0  0
  8 11  1  0  0  0  0
  8 13  1  0  0  0  0
  9 10  2  0  0  0  0
  9 17  1  0  0  0  0
 11 14  1  0  0  0  0
 11 15  1  0  0  0  0
 11 16  1  0  0  0  0
 17 18  1  0  0  0  0
 17 27  1  0  0  0  0
 18 19  1  0  0  0  0
 18 21  1  0  0  0  0
 18 28  1  0  0  0  0
 19 20  2  0  0  0  0
 19 35  1  0  0  0  0
 21 22  1  0  0  0  0
 21 29  1  0  0  0  0
 21 30  1  0  0  0  0
 22 23  1  0  0  0  0
 22 24  2  0  0  0  0
 23 25  2  0  0  0  0
 23 31  1  0  0  0  0
 24 26  1  0  0  0  0
 24 32  1  0  0  0  0
 25 26  1  0  0  0  0
 25 33  1  0  0  0  0
 26 34  1  0  0  0  0
 35 36  1  0  0  0  0
 35 40  1  0  0  0  0
 36 37  1  0  0  0  0
 36 39  1  0  0  0  0
 36 41  1  0  0  0  0
 37 38  2  0  0  0  0
 37 45  1  0  0  0  0
 39 42  1  0  0  0  0
 39 43  1  0  0  0  0
 39 44  1  0  0  0  0
 45 46  1  0  0  0  0
 45 47  1  0  0  0  0
 46 48  1  0  0  0  0
 46 49  1  0  0  0  0
 46 50  1  0  0  0  0
M  CHG  1  23   1
M  END
$$$$

  -OEChem-05262216443D

 50 50  0     1  0  0  0  0  0999 V2000
   -1.8436   -0.0649    4.7012 C   0  0  0  0  0  0  0  0  0  0  0  0
   -2.0637   -1.0173    3.9621 O   0  0  0  0  0  0  0  0  0  0  0  0
   -1.7088   -0.2870    6.1955 C   0  0  0  0  0  0  0  0  0  0  0  0
   -1.9718   -1.3170    6.4521 H   0  0  0  0  0  0  0  0  0  0  0  0
   -0.6800   -0.0962    6.5107 H   0  0  0  0  0  0  0  0  0  0  0  0
   -2.3775    0.3884    6.7353 H   0  0  0  0  0  0  0  0  0  0  0  0
   -1.6845    1.2056    4.1860 N   0  0  0  0  0  0  0  0  0  0  0  0
   -1.7142    1.5302    2.7512 C   0  0  2  0  0  0  0  0  0  0  0  0
   -0.4058    1.1974    1.9912 C   0  0  0  0  0  0  0  0  0  0  0  0
    0.5591    0.7049    2.5692 O   0  0  0  0  0  0  0  0  0  0  0  0
   -2.0416    3.0224    2.6382 C   0  0  0  0  0  0  0  0  0  0  0  0
   -1.3818    1.9263    4.8362 H   0  0  0  0  0  0  0  0  0  0  0  0
   -2.5222    0.9649    2.2746 H   0  0  0  0  0  0  0  0  0  0  0  0
   -1.2413    3.6263    3.0785 H   0  0  0  0  0  0  0  0  0  0  0  0
   -2.1598    3.3157    1.5904 H   0  0  0  0  0  0  0  0  0  0  0  0
   -2.9766    3.2473    3.1615 H   0  0  0  0  0  0  0  0  0  0  0  0
   -0.3165    1.4077    0.6236 N   0  0  0  0  0  0  0  0  0  0  0  0
    0.6980    0.8070   -0.2631 C   0  0  2  0  0  0  0  0  0  0  0  0
    0.7104    1.5603   -1.6070 C   0  0  0  0  0  0  0  0  0  0  0  0
   -0.3509    1.9515   -2.0790 O   0  0  0  0  0  0  0  0  0  0  0  0
    0.3395   -0.6593   -0.6199 C   0  0  0  0  0  0  0  0  0  0  0  0
    0.3326   -1.5633    0.5829 C   0  0  0  0  0  0  0  0  0  0  0  0
    1.4269   -2.0721    1.2823 N   0  3  0  0  0  0  0  0  0  0  0  0
   -0.8012   -1.9839    1.2259 C   0  0  0  0  0  0  0  0  0  0  0  0
    1.0151   -2.6889    2.3641 C   0  0  0  0  0  0  0  0  0  0  0  0
   -0.3770   -2.6737    2.3489 N   0  0  0  0  0  0  0  0  0  0  0  0
   -1.1115    1.8553    0.1650 H   0  0  0  0  0  0  0  0  0  0  0  0
    1.6901    0.8699    0.1958 H   0  0  0  0  0  0  0  0  0  0  0  0
    1.0526   -1.0527   -1.3527 H   0  0  0  0  0  0  0  0  0  0  0  0
   -0.6477   -0.6778   -1.0964 H   0  0  0  0  0  0  0  0  0  0  0  0
    2.3925   -1.8251    1.0576 H   0  0  0  0  0  0  0  0  0  0  0  0
   -1.8298   -1.7362    0.9682 H   0  0  0  0  0  0  0  0  0  0  0  0
    1.6436   -3.0972    3.1556 H   0  0  0  0  0  0  0  0  0  0  0  0
   -0.9841   -2.8671    3.1543 H   0  0  0  0  0  0  0  0  0  0  0  0
    1.8757    1.6549   -2.3441 N   0  0  0  0  0  0  0  0  0  0  0  0
    1.8384    1.7735   -3.8091 C   0  0  2  0  0  0  0  0  0  0  0  0
    1.6598    0.3914   -4.4779 C   0  0  0  0  0  0  0  0  0  0  0  0
    1.8742   -0.6313   -3.8318 O   0  0  0  0  0  0  0  0  0  0  0  0
    3.1452    2.4303   -4.2597 C   0  0  0  0  0  0  0  0  0  0  0  0
    2.6707    1.1490   -1.9636 H   0  0  0  0  0  0  0  0  0  0  0  0
    1.0056    2.4148   -4.1184 H   0  0  0  0  0  0  0  0  0  0  0  0
    4.0038    1.8063   -3.9912 H   0  0  0  0  0  0  0  0  0  0  0  0
    3.1479    2.5742   -5.3446 H   0  0  0  0  0  0  0  0  0  0  0  0
    3.2618    3.4087   -3.7830 H   0  0  0  0  0  0  0  0  0  0  0  0
    1.2564    0.2905   -5.7957 N   0  0  0  0  0  0  0  0  0  0  0  0
    1.0459   -0.9835   -6.4744 C   0  0  0  0  0  0  0  0  0  0  0  0
    1.0467    1.1511   -6.2944 H   0  0  0  0  0  0  0  0  0  0  0  0
    1.9666   -1.5766   -6.4727 H   0  0  0  0  0  0  0  0  0  0  0  0
    0.2564   -1.5575   -5.9778 H   0  0  0  0  0  0  0  0  0  0  0  0
    0.7476   -0.8148   -7.5139 H   0  0  0  0  0  0  0  0  0  0  0  0
  1  2  2  0  0  0  0
  1  3  1  0  0  0  0
  1  7  1  0  0  0  0
  3  4  1  0  0  0  0
  3  5  1  0  0  0  0
  3  6  1  0  0  0  0
  7  8  1  0  0  0  0
  7 12  1  0  0  0  0
  8  9  1  0  0  0  0
  8 11  1  0  0  0  0
  8 13  1  0  0  0  0
  9 10  2  0  0  0  0
  9 17  1  0  0  0  0
 11 14  1  0  0  0  0
 11 15  1  0  0  0  0
 11 16  1  0  0  0  0
 17 18  1  0  0  0  0
 17 27  1  0  0  0  0
 18 19  1  0  0  0  0
 18 21  1  0  0  0  0
 18 28  1  0  0  0  0
 19 20  2  0  0  0  0
 19 35  1  0  0  0  0
 21 22  1  0  0  0  0
 21 29  1  0  0  0  0
 21 30  1  0  0  0  0
 22 23  1  0  0  0  0
 22 24  2  0  0  0  0
 23 25  2  0  0  0  0
 23 31  1  0  0  0  0
 24 26  1  0  0  0  0
 24 32  1  0  0  0  0
 25 26  1  0  0  0  0
 25 33  1  0  0  0  0
 26 34  1  0  0  0  0
 35 36  1  0  0  0  0
 35 40  1  0  0  0  0
 36 37  1  0  0  0  0
 36 39  1  0  0  0  0
 36 41  1  0  0  0  0
 37 38  2  0  0  0  0
 37 45  1  0  0  0  0
 39 42  1  0  0  0  0
 39 43  1  0  0  0  0
 39 44  1  0  0  0  0
 45 46  1  0  0  0  0
 45 47  1  0  0  0  0
 46 48  1  0  0  0  0
 46 49  1  0  0  0  0
 46 50  1  0  0  0  0
M  CHG  1  23   1
M  END
$$$$

  -OEChem-05262216443D

 50 50  0     1  0  0  0  0  0999 V2000
   -1.9265   -0.0169    4.6447 C   0  0  0  0  0  0  0  0  0  0  0  0
   -2.1542   -0.9557    3.8906 O   0  0  0  0  0  0  0  0  0  0  0  0
   -1.8721   -0.2502    6.1424 C   0  0  0  0  0  0  0  0  0  0  0  0
   -2.1765   -1.2736    6.3785 H   0  0  0  0  0  0  0  0  0  0  0  0
   -0.8552   -0.0904    6.5093 H   0  0  0  0  0  0  0  0  0  0  0  0
   -2.5476    0.4411    6.6528 H   0  0  0  0  0  0  0  0  0  0  0  0
   -1.6879    1.2472    4.1444 N   0  0  0  0  0  0  0  0  0  0  0  0
   -1.6549    1.5806    2.7116 C   0  0  2  0  0  0  0  0  0  0  0  0
   -0.3445    1.1795    1.9894 C   0  0  0  0  0  0  0  0  0  0  0  0
    0.5829    0.6533    2.5984 O   0  0  0  0  0  0  0  0  0  0  0  0
   -1.8917    3.0896    2.5970 C   0  0  0  0  0  0  0  0  0  0  0  0
   -1.3795    1.9514    4.8099 H   0  0  0  0  0  0  0  0  0  0  0  0
   -2.4791    1.0644    2.2076 H   0  0  0  0  0  0  0  0  0  0  0  0
   -1.0650    3.6439    3.0534 H   0  0  0  0  0  0  0  0  0  0  0  0
   -1.9722    3.3901    1.5476 H   0  0  0  0  0  0  0  0  0  0  0  0
   -2.8213    3.3693    3.1034 H   0  0  0  0  0  0  0  0  0  0  0  0
   -0.2086    1.3751    0.6234 N   0  0  0  0  0  0  0  0  0  0  0  0
    0.8217    0.7534   -0.2311 C   0  0  2  0  0  0  0  0  0  0  0  0
    0.8823    1.5000   -1.5816 C   0  0  0  0  0  0  0  0  0  0  0  0
   -0.1068    2.1101   -1.9724 O   0  0  0  0  0  0  0  0  0  0  0  0
    0.4308   -0.7062   -0.5871 C   0  0  0  0  0  0  0  0  0  0  0  0
    0.3635   -1.6035    0.6192 C   0  0  0  0  0  0  0  0  0  0  0  0
    1.4164   -2.1444    1.3576 N   0  3  0  0  0  0  0  0  0  0  0  0
   -0.8044   -1.9843    1.2253 C   0  0  0  0  0  0  0  0  0  0  0  0
    0.9478   -2.7392    2.4289 C   0  0  0  0  0  0  0  0  0  0  0  0
   -0.4418   -2.6800    2.3658 N   0  0  0  0  0  0  0  0  0  0  0  0
   -0.9515    1.8844    0.1416 H   0  0  0  0  0  0  0  0  0  0  0  0
    1.8028    0.7988    0.2529 H   0  0  0  0  0  0  0  0  0  0  0  0
    1.1519   -1.1303   -1.2935 H   0  0  0  0  0  0  0  0  0  0  0  0
   -0.5412   -0.6998   -1.0935 H   0  0  0  0  0  0  0  0  0  0  0  0
    2.3962   -1.9253    1.1692 H   0  0  0  0  0  0  0  0  0  0  0  0
   -1.8150   -1.7044    0.9312 H   0  0  0  0  0  0  0  0  0  0  0  0
    1.5357   -3.1596    3.2449 H   0  0  0  0  0  0  0  0  0  0  0  0
   -1.0823   -2.8471    3.1508 H   0  0  0  0  0  0  0  0  0  0  0  0
    1.9588    1.3222   -2.4312 N   0  0  0  0  0  0  0  0  0  0  0  0
    1.8187    1.4614   -3.8887 C   0  0  2  0  0  0  0  0  0  0  0  0
    1.3227    0.1460   -4.5299 C   0  0  0  0  0  0  0  0  0  0  0  0
    1.3870   -0.9039   -3.8955 O   0  0  0  0  0  0  0  0  0  0  0  0
    3.1829    1.8615   -4.4556 C   0  0  0  0  0  0  0  0  0  0  0  0
    2.6522    0.6484   -2.1192 H   0  0  0  0  0  0  0  0  0  0  0  0
    1.1003    2.2523   -4.1313 H   0  0  0  0  0  0  0  0  0  0  0  0
    3.9283    1.0856   -4.2532 H   0  0  0  0  0  0  0  0  0  0  0  0
    3.1204    2.0068   -5.5386 H   0  0  0  0  0  0  0  0  0  0  0  0
    3.5218    2.7985   -4.0021 H   0  0  0  0  0  0  0  0  0  0  0  0
    0.8048    0.1348   -5.8106 N   0  0  0  0  0  0  0  0  0  0  0  0
    0.2977   -1.0697   -6.4584 C   0  0  0  0  0  0  0  0  0  0  0  0
    0.7270    1.0232   -6.2985 H   0  0  0  0  0  0  0  0  0  0  0  0
    1.0786   -1.8358   -6.5104 H   0  0  0  0  0  0  0  0  0  0  0  0
   -0.5557   -1.4732   -5.9031 H   0  0  0  0  0  0  0  0  0  0  0  0
   -0.0293   -0.8430   -7.4780 H   0  0  0  0  0  0  0  0  0  0  0  0
  1  2  2  0  0  0  0
  1  3  1  0  0  0  0
  1  7  1  0  0  0  0
  3  4  1  0  0  0  0
  3  5  1  0  0  0  0
  3  6  1  0  0  0  0
  7  8  1  0  0  0  0
  7 12  1  0  0  0  0
  8  9  1  0  0  0  0
  8 11  1  0  0  0  0
  8 13  1  0  0  0  0
  9 10  2  0  0  0  0
  9 17  1  0  0  0  0
 11 14  1  0  0  0  0
 11 15  1  0  0  0  0
 11 16  1  0  0  0  0
 17 18  1  0  0  0  0
 17 27  1  0  0  0  0
 18 19  1  0  0  0  0
 18 21  1  0  0  0  0
 18 28  1  0  0  0  0
 19 20  2  0  0  0  0
 19 35  1  0  0  0  0
 21 22  1  0  0  0  0
 21 29  1  0  0  0  0
 21 30  1  0  0  0  0
 22 23  1  0  0  0  0
 22 24  2  0  0  0  0
 23 25  2  0  0  0  0
 23 31  1  0  0  0  0
 24 26  1  0  0  0  0
 24 32  1  0  0  0  0
 25 26  1  0  0  0  0
 25 33  1  0  0  0  0
 26 34  1  0  0  0  0
 35 36  1  0  0  0  0
 35 40  1  0  0  0  0
 36 37  1  0  0  0  0
 36 39  1  0  0  0  0
 36 41  1  0  0  0  0
 37 38  2  0  0  0  0
 37 45  1  0  0  0  0
 39 42  1  0  0  0  0
 39 43  1  0  0  0  0
 39 44  1  0  0  0  0
 45 46  1  0  0  0  0
 45 47  1  0  0  0  0
 46 48  1  0  0  0  0
 46 49  1  0  0  0  0
 46 50  1  0  0  0  0
M  CHG  1  23   1
M  END
$$$$

  -OEChem-05262216443D

 50 50  0     1  0  0  0  0  0999 V2000
   -2.1834   -0.1888    4.3796 C   0  0  0  0  0  0  0  0  0  0  0  0
   -2.4788   -0.9839    3.4945 O   0  0  0  0  0  0  0  0  0  0  0  0
   -2.2589   -0.6171    5.8326 C   0  0  0  0  0  0  0  0  0  0  0  0
   -2.7049   -1.6123    5.9126 H   0  0  0  0  0  0  0  0  0  0  0  0
   -1.2565   -0.6429    6.2670 H   0  0  0  0  0  0  0  0  0  0  0  0
   -2.8742    0.0871    6.3987 H   0  0  0  0  0  0  0  0  0  0  0  0
   -1.7465    1.0830    4.0682 N   0  0  0  0  0  0  0  0  0  0  0  0
   -1.5626    1.5815    2.6964 C   0  0  2  0  0  0  0  0  0  0  0  0
   -0.2982    1.0428    1.9832 C   0  0  0  0  0  0  0  0  0  0  0  0
    0.5241    0.3502    2.5777 O   0  0  0  0  0  0  0  0  0  0  0  0
   -1.5260    3.1110    2.7689 C   0  0  0  0  0  0  0  0  0  0  0  0
   -1.3939    1.6466    4.8375 H   0  0  0  0  0  0  0  0  0  0  0  0
   -2.4289    1.2872    2.0941 H   0  0  0  0  0  0  0  0  0  0  0  0
   -0.6589    3.4492    3.3456 H   0  0  0  0  0  0  0  0  0  0  0  0
   -1.4635    3.5443    1.7656 H   0  0  0  0  0  0  0  0  0  0  0  0
   -2.4336    3.4917    3.2484 H   0  0  0  0  0  0  0  0  0  0  0  0
   -0.1276    1.2580    0.6242 N   0  0  0  0  0  0  0  0  0  0  0  0
    0.9473    0.6690   -0.1962 C   0  0  2  0  0  0  0  0  0  0  0  0
    1.3007    1.6256   -1.3585 C   0  0  0  0  0  0  0  0  0  0  0  0
    0.5714    2.5841   -1.5891 O   0  0  0  0  0  0  0  0  0  0  0  0
    0.4305   -0.6580   -0.8068 C   0  0  0  0  0  0  0  0  0  0  0  0
    0.1261   -1.6667    0.2703 C   0  0  0  0  0  0  0  0  0  0  0  0
    1.0191   -2.4199    1.0329 N   0  3  0  0  0  0  0  0  0  0  0  0
   -1.1358   -1.9264    0.7361 C   0  0  0  0  0  0  0  0  0  0  0  0
    0.3720   -3.0343    1.9943 C   0  0  0  0  0  0  0  0  0  0  0  0
   -0.9843   -2.7711    1.8226 N   0  0  0  0  0  0  0  0  0  0  0  0
   -0.7152    1.9633    0.1764 H   0  0  0  0  0  0  0  0  0  0  0  0
    1.8506    0.5042    0.3999 H   0  0  0  0  0  0  0  0  0  0  0  0
    1.1701   -1.0854   -1.4914 H   0  0  0  0  0  0  0  0  0  0  0  0
   -0.4701   -0.4554   -1.3984 H   0  0  0  0  0  0  0  0  0  0  0  0
    2.0329   -2.3200    0.9593 H   0  0  0  0  0  0  0  0  0  0  0  0
   -2.0630   -1.4681    0.3950 H   0  0  0  0  0  0  0  0  0  0  0  0
    0.8159   -3.6021    2.8121 H   0  0  0  0  0  0  0  0  0  0  0  0
   -1.7098   -2.9041    2.5376 H   0  0  0  0  0  0  0  0  0  0  0  0
    2.2876    1.2921   -2.2694 N   0  0  0  0  0  0  0  0  0  0  0  0
    2.2015    1.7292   -3.6715 C   0  0  2  0  0  0  0  0  0  0  0  0
    1.2654    0.8065   -4.4846 C   0  0  0  0  0  0  0  0  0  0  0  0
    0.9803   -0.3069   -4.0504 O   0  0  0  0  0  0  0  0  0  0  0  0
    3.6149    1.7184   -4.2586 C   0  0  0  0  0  0  0  0  0  0  0  0
    2.7253    0.3880   -2.1209 H   0  0  0  0  0  0  0  0  0  0  0  0
    1.8128    2.7519   -3.7302 H   0  0  0  0  0  0  0  0  0  0  0  0
    4.0332    0.7067   -4.2403 H   0  0  0  0  0  0  0  0  0  0  0  0
    3.6012    2.0690   -5.2956 H   0  0  0  0  0  0  0  0  0  0  0  0
    4.2706    2.3786   -3.6818 H   0  0  0  0  0  0  0  0  0  0  0  0
    0.7424    1.2182   -5.6952 N   0  0  0  0  0  0  0  0  0  0  0  0
   -0.1710    0.4054   -6.4904 C   0  0  0  0  0  0  0  0  0  0  0  0
    0.9563    2.1616   -6.0076 H   0  0  0  0  0  0  0  0  0  0  0  0
    0.2932   -0.5520   -6.7508 H   0  0  0  0  0  0  0  0  0  0  0  0
   -1.0938    0.2097   -5.9342 H   0  0  0  0  0  0  0  0  0  0  0  0
   -0.4312    0.9255   -7.4176 H   0  0  0  0  0  0  0  0  0  0  0  0
  1  2  2  0  0  0  0
  1  3  1  0  0  0  0
  1  7  1  0  0  0  0
  3  4  1  0  0  0  0
  3  5  1  0  0  0  0
  3  6  1  0  0  0  0
  7  8  1  0  0  0  0
  7 12  1  0  0  0  0
  8  9  1  0  0  0  0
  8 11  1  0  0  0  0
  8 13  1  0  0  0  0
  9 10  2  0  0  0  0
  9 17  1  0  0  0  0
 11 14  1  0  0  0  0
 11 15  1  0  0  0  0
 11 16  1  0  0  0  0
 17 18  1  0  0  0  0
 17 27  1  0  0  0  0
 18 19  1  0  0  0  0
 18 21  1  0  0  0  0
 18 28  1  0  0  0  0
 19 20  2  0  0  0  0
 19 35  1  0  0  0  0
 21 22  1  0  0  0  0
 21 29  1  0  0  0  0
 21 30  1  0  0  0  0
 22 23  1  0  0  0  0
 22 24  2  0  0  0  0
 23 25  2  0  0  0  0
 23 31  1  0  0  0  0
 24 26  1  0  0  0  0
 24 32  1  0  0  0  0
 25 26  1  0  0  0  0
 25 33  1  0  0  0  0
 26 34  1  0  0  0  0
 35 36  1  0  0  0  0
 35 40  1  0  0  0  0
 36 37  1  0  0  0  0
 36 39  1  0  0  0  0
 36 41  1  0  0  0  0
 37 38  2  0  0  0  0
 37 45  1  0  0  0  0
 39 42  1  0  0  0  0
 39 43  1  0  0  0  0
 39 44  1  0  0  0  0
 45 46  1  0  0  0  0
 45 47  1  0  0  0  0
 46 48  1  0  0  0  0
 46 49  1  0  0  0  0
 46 50  1  0  0  0  0
M  CHG  1  23   1
M  END
$$$$

  -OEChem-05262216443D

 50 50  0     1  0  0  0  0  0999 V2000
   -2.2224   -0.0820    4.3250 C   0  0  0  0  0  0  0  0  0  0  0  0
   -2.5357   -0.8678    3.4380 O   0  0  0  0  0  0  0  0  0  0  0  0
   -2.3804   -0.4871    5.7781 C   0  0  0  0  0  0  0  0  0  0  0  0
   -2.8813   -1.4567    5.8495 H   0  0  0  0  0  0  0  0  0  0  0  0
   -1.3997   -0.5590    6.2550 H   0  0  0  0  0  0  0  0  0  0  0  0
   -2.9815    0.2553    6.3095 H   0  0  0  0  0  0  0  0  0  0  0  0
   -1.7000    1.1581    4.0167 N   0  0  0  0  0  0  0  0  0  0  0  0
   -1.4579    1.6375    2.6469 C   0  0  2  0  0  0  0  0  0  0  0  0
   -0.2240    1.0095    1.9537 C   0  0  0  0  0  0  0  0  0  0  0  0
    0.5464    0.2746    2.5665 O   0  0  0  0  0  0  0  0  0  0  0  0
   -1.3105    3.1600    2.7190 C   0  0  0  0  0  0  0  0  0  0  0  0
   -1.3487    1.7138    4.7922 H   0  0  0  0  0  0  0  0  0  0  0  0
   -2.3336    1.4045    2.0316 H   0  0  0  0  0  0  0  0  0  0  0  0
   -0.4299    3.4340    3.3091 H   0  0  0  0  0  0  0  0  0  0  0  0
   -1.1999    3.5845    1.7162 H   0  0  0  0  0  0  0  0  0  0  0  0
   -2.1952    3.6076    3.1833 H   0  0  0  0  0  0  0  0  0  0  0  0
   -0.0214    1.2035    0.5955 N   0  0  0  0  0  0  0  0  0  0  0  0
    1.0423    0.5600   -0.2002 C   0  0  2  0  0  0  0  0  0  0  0  0
    1.4542    1.4946   -1.3662 C   0  0  0  0  0  0  0  0  0  0  0  0
    0.9209    2.5941   -1.4666 O   0  0  0  0  0  0  0  0  0  0  0  0
    0.4673   -0.7550   -0.7920 C   0  0  0  0  0  0  0  0  0  0  0  0
    0.1033   -1.7324    0.2946 C   0  0  0  0  0  0  0  0  0  0  0  0
    0.9480   -2.5178    1.0794 N   0  3  0  0  0  0  0  0  0  0  0  0
   -1.1762   -1.9248    0.7437 C   0  0  0  0  0  0  0  0  0  0  0  0
    0.2575   -3.0873    2.0385 C   0  0  0  0  0  0  0  0  0  0  0  0
   -1.0820   -2.7611    1.8426 N   0  0  0  0  0  0  0  0  0  0  0  0
   -0.5292    1.9689    0.1486 H   0  0  0  0  0  0  0  0  0  0  0  0
    1.9301    0.3637    0.4101 H   0  0  0  0  0  0  0  0  0  0  0  0
    1.1863   -1.2335   -1.4635 H   0  0  0  0  0  0  0  0  0  0  0  0
   -0.4196   -0.5182   -1.3920 H   0  0  0  0  0  0  0  0  0  0  0  0
    1.9664   -2.4615    1.0252 H   0  0  0  0  0  0  0  0  0  0  0  0
   -2.0745   -1.4253    0.3837 H   0  0  0  0  0  0  0  0  0  0  0  0
    0.6608   -3.6641    2.8709 H   0  0  0  0  0  0  0  0  0  0  0  0
   -1.8245   -2.8498    2.5468 H   0  0  0  0  0  0  0  0  0  0  0  0
    2.2023    1.0178   -2.4290 N   0  0  0  0  0  0  0  0  0  0  0  0
    1.9979    1.5221   -3.7958 C   0  0  2  0  0  0  0  0  0  0  0  0
    0.8458    0.7632   -4.4913 C   0  0  0  0  0  0  0  0  0  0  0  0
    0.4653   -0.3132   -4.0368 O   0  0  0  0  0  0  0  0  0  0  0  0
    3.3084    1.3439   -4.5658 C   0  0  0  0  0  0  0  0  0  0  0  0
    2.4577    0.0370   -2.3686 H   0  0  0  0  0  0  0  0  0  0  0  0
    1.7490    2.5890   -3.7833 H   0  0  0  0  0  0  0  0  0  0  0  0
    3.5811    0.2853   -4.6238 H   0  0  0  0  0  0  0  0  0  0  0  0
    3.2104    1.7326   -5.5844 H   0  0  0  0  0  0  0  0  0  0  0  0
    4.1180    1.8866   -4.0674 H   0  0  0  0  0  0  0  0  0  0  0  0
    0.2328    1.2818   -5.6152 N   0  0  0  0  0  0  0  0  0  0  0  0
   -0.8734    0.6236   -6.3012 C   0  0  0  0  0  0  0  0  0  0  0  0
    0.5443    2.1905   -5.9479 H   0  0  0  0  0  0  0  0  0  0  0  0
   -0.5744   -0.3721   -6.6461 H   0  0  0  0  0  0  0  0  0  0  0  0
   -1.7339    0.5209   -5.6317 H   0  0  0  0  0  0  0  0  0  0  0  0
   -1.1818    1.2112   -7.1714 H   0  0  0  0  0  0  0  0  0  0  0  0
  1  2  2  0  0  0  0
  1  3  1  0  0  0  0
  1  7  1  0  0  0  0
  3  4  1  0  0  0  0
  3  5  1  0  0  0  0
  3  6  1  0  0  0  0
  7  8  1  0  0  0  0
  7 12  1  0  0  0  0
  8  9  1  0  0  0  0
  8 11  1  0  0  0  0
  8 13  1  0  0  0  0
  9 10  2  0  0  0  0
  9 17  1  0  0  0  0
 11 14  1  0  0  0  0
 11 15  1  0  0  0  0
 11 16  1  0  0  0  0
 17 18  1  0  0  0  0
 17 27  1  0  0  0  0
 18 19  1  0  0  0  0
 18 21  1  0  0  0  0
 18 28  1  0  0  0  0
 19 20  2  0  0  0  0
 19 35  1  0  0  0  0
 21 22  1  0  0  0  0
 21 29  1  0  0  0  0
 21 30  1  0  0  0  0
 22 23  1  0  0  0  0
 22 24  2  0  0  0  0
 23 25  2  0  0  0  0
 23 31  1  0  0  0  0
 24 26  1  0  0  0  0
 24 32  1  0  0  0  0
 25 26  1  0  0  0  0
 25 33  1  0  0  0  0
 26 34  1  0  0  0  0
 35 36  1  0  0  0  0
 35 40  1  0  0  0  0
 36 37  1  0  0  0  0
 36 39  1  0  0  0  0
 36 41  1  0  0  0  0
 37 38  2  0  0  0  0
 37 45  1  0  0  0  0
 39 42  1  0  0  0  0
 39 43  1  0  0  0  0
 39 44  1  0  0  0  0
 45 46  1  0  0  0  0
 45 47  1  0  0  0  0
 46 48  1  0  0  0  0
 46 49  1  0  0  0  0
 46 50  1  0  0  0  0
M  CHG  1  23   1
M  END
$$$$

  -OEChem-05262216443D

 50 50  0     1  0  0  0  0  0999 V2000
   -2.2282    0.0309    4.2897 C   0  0  0  0  0  0  0  0  0  0  0  0
   -2.5344   -0.8143    3.4561 O   0  0  0  0  0  0  0  0  0  0  0  0
   -2.3921   -0.2734    5.7664 C   0  0  0  0  0  0  0  0  0  0  0  0
   -2.8835   -1.2407    5.9025 H   0  0  0  0  0  0  0  0  0  0  0  0
   -1.4140   -0.3016    6.2533 H   0  0  0  0  0  0  0  0  0  0  0  0
   -3.0038    0.4986    6.2406 H   0  0  0  0  0  0  0  0  0  0  0  0
   -1.7071    1.2491    3.9027 N   0  0  0  0  0  0  0  0  0  0  0  0
   -1.4480    1.6339    2.5067 C   0  0  2  0  0  0  0  0  0  0  0  0
   -0.2061    0.9595    1.8742 C   0  0  0  0  0  0  0  0  0  0  0  0
    0.5429    0.2508    2.5423 O   0  0  0  0  0  0  0  0  0  0  0  0
   -1.3006    3.1581    2.4767 C   0  0  0  0  0  0  0  0  0  0  0  0
   -1.3577    1.8533    4.6418 H   0  0  0  0  0  0  0  0  0  0  0  0
   -2.3164    1.3592    1.8983 H   0  0  0  0  0  0  0  0  0  0  0  0
   -0.4254    3.4714    3.0556 H   0  0  0  0  0  0  0  0  0  0  0  0
   -1.1803    3.5151    1.4488 H   0  0  0  0  0  0  0  0  0  0  0  0
   -2.1899    3.6350    2.9015 H   0  0  0  0  0  0  0  0  0  0  0  0
    0.0287    1.0828    0.5129 N   0  0  0  0  0  0  0  0  0  0  0  0
    1.1009    0.3848   -0.2240 C   0  0  2  0  0  0  0  0  0  0  0  0
    1.5463    1.2635   -1.4240 C   0  0  0  0  0  0  0  0  0  0  0  0
    1.2522    2.4533   -1.4275 O   0  0  0  0  0  0  0  0  0  0  0  0
    0.5296   -0.9643   -0.7414 C   0  0  0  0  0  0  0  0  0  0  0  0
    0.1432   -1.8713    0.3978 C   0  0  0  0  0  0  0  0  0  0  0  0
    0.9720   -2.6089    1.2440 N   0  3  0  0  0  0  0  0  0  0  0  0
   -1.1453   -2.0366    0.8331 C   0  0  0  0  0  0  0  0  0  0  0  0
    0.2626   -3.1146    2.2246 C   0  0  0  0  0  0  0  0  0  0  0  0
   -1.0726   -2.8015    1.9845 N   0  0  0  0  0  0  0  0  0  0  0  0
   -0.4424    1.8470    0.0264 H   0  0  0  0  0  0  0  0  0  0  0  0
    1.9753    0.2184    0.4139 H   0  0  0  0  0  0  0  0  0  0  0  0
    1.2612   -1.4878   -1.3632 H   0  0  0  0  0  0  0  0  0  0  0  0
   -0.3468   -0.7644   -1.3698 H   0  0  0  0  0  0  0  0  0  0  0  0
    1.9915   -2.5511    1.2108 H   0  0  0  0  0  0  0  0  0  0  0  0
   -2.0365   -1.5617    0.4251 H   0  0  0  0  0  0  0  0  0  0  0  0
    0.6500   -3.6346    3.1007 H   0  0  0  0  0  0  0  0  0  0  0  0
   -1.8253   -2.8397    2.6825 H   0  0  0  0  0  0  0  0  0  0  0  0
    2.0373    0.7044   -2.5925 N   0  0  0  0  0  0  0  0  0  0  0  0
    1.7862    1.3265   -3.9015 C   0  0  2  0  0  0  0  0  0  0  0  0
    0.4014    0.9131   -4.4477 C   0  0  0  0  0  0  0  0  0  0  0  0
   -0.1635   -0.0751   -3.9847 O   0  0  0  0  0  0  0  0  0  0  0  0
    2.8982    0.8825   -4.8547 C   0  0  0  0  0  0  0  0  0  0  0  0
    2.0736   -0.3096   -2.6023 H   0  0  0  0  0  0  0  0  0  0  0  0
    1.8148    2.4190   -3.8233 H   0  0  0  0  0  0  0  0  0  0  0  0
    2.8892   -0.2053   -4.9781 H   0  0  0  0  0  0  0  0  0  0  0  0
    2.7664    1.3433   -5.8388 H   0  0  0  0  0  0  0  0  0  0  0  0
    3.8755    1.1821   -4.4629 H   0  0  0  0  0  0  0  0  0  0  0  0
   -0.2094    1.6388   -5.4521 N   0  0  0  0  0  0  0  0  0  0  0  0
   -1.5201    1.3048   -5.9982 C   0  0  0  0  0  0  0  0  0  0  0  0
    0.2677    2.4684   -5.7952 H   0  0  0  0  0  0  0  0  0  0  0  0
   -1.5088    0.3018   -6.4378 H   0  0  0  0  0  0  0  0  0  0  0  0
   -2.2827    1.3364   -5.2127 H   0  0  0  0  0  0  0  0  0  0  0  0
   -1.7991    2.0195   -6.7788 H   0  0  0  0  0  0  0  0  0  0  0  0
  1  2  2  0  0  0  0
  1  3  1  0  0  0  0
  1  7  1  0  0  0  0
  3  4  1  0  0  0  0
  3  5  1  0  0  0  0
  3  6  1  0  0  0  0
  7  8  1  0  0  0  0
  7 12  1  0  0  0  0
  8  9  1  0  0  0  0
  8 11  1  0  0  0  0
  8 13  1  0  0  0  0
  9 10  2  0  0  0  0
  9 17  1  0  0  0  0
 11 14  1  0  0  0  0
 11 15  1  0  0  0  0
 11 16  1  0  0  0  0
 17 18  1  0  0  0  0
 17 27  1  0  0  0  0
 18 19  1  0  0  0  0
 18 21  1  0  0  0  0
 18 28  1  0  0  0  0
 19 20  2  0  0  0  0
 19 35  1  0  0  0  0
 21 22  1  0  0  0  0
 21 29  1  0  0  0  0
 21 30  1  0  0  0  0
 22 23  1  0  0  0  0
 22 24  2  0  0  0  0
 23 25  2  0  0  0  0
 23 31  1  0  0  0  0
 24 26  1  0  0  0  0
 24 32  1  0  0  0  0
 25 26  1  0  0  0  0
 25 33  1  0  0  0  0
 26 34  1  0  0  0  0
 35 36  1  0  0  0  0
 35 40  1  0  0  0  0
 36 37  1  0  0  0  0
 36 39  1  0  0  0  0
 36 41  1  0  0  0  0
 37 38  2  0  0  0  0
 37 45  1  0  0  0  0
 39 42  1  0  0  0  0
 39 43  1  0  0  0  0
 39 44  1  0  0  0  0
 45 46  1  0  0  0  0
 45 47  1  0  0  0  0
 46 48  1  0  0  0  0
 46 49  1  0  0  0  0
 46 50  1  0  0  0  0
M  CHG  1  23   1
M  END
$$$$

  -OEChem-05262216443D

 50 50  0     1  0  0  0  0  0999 V2000
   -2.2291    0.1524    4.2175 C   0  0  0  0  0  0  0  0  0  0  0  0
   -2.5325   -0.7440    3.4380 O   0  0  0  0  0  0  0  0  0  0  0  0
   -2.3822   -0.0668    5.7101 C   0  0  0  0  0  0  0  0  0  0  0  0
   -2.8881   -1.0165    5.9047 H   0  0  0  0  0  0  0  0  0  0  0  0
   -1.3994   -0.0846    6.1878 H   0  0  0  0  0  0  0  0  0  0  0  0
   -2.9762    0.7400    6.1471 H   0  0  0  0  0  0  0  0  0  0  0  0
   -1.7145    1.3476    3.7562 N   0  0  0  0  0  0  0  0  0  0  0  0
   -1.4400    1.6362    2.3401 C   0  0  2  0  0  0  0  0  0  0  0  0
   -0.1885    0.9234    1.7719 C   0  0  0  0  0  0  0  0  0  0  0  0
    0.5446    0.2533    2.4951 O   0  0  0  0  0  0  0  0  0  0  0  0
   -1.2948    3.1549    2.2046 C   0  0  0  0  0  0  0  0  0  0  0  0
   -1.3600    1.9938    4.4567 H   0  0  0  0  0  0  0  0  0  0  0  0
   -2.3002    1.3171    1.7415 H   0  0  0  0  0  0  0  0  0  0  0  0
   -0.4287    3.5108    2.7724 H   0  0  0  0  0  0  0  0  0  0  0  0
   -1.1598    3.4387    1.1559 H   0  0  0  0  0  0  0  0  0  0  0  0
   -2.1906    3.6586    2.5815 H   0  0  0  0  0  0  0  0  0  0  0  0
    0.0727    0.9686    0.4104 N   0  0  0  0  0  0  0  0  0  0  0  0
    1.1461    0.2153   -0.2677 C   0  0  2  0  0  0  0  0  0  0  0  0
    1.6161    1.0324   -1.5006 C   0  0  0  0  0  0  0  0  0  0  0  0
    1.5860    2.2550   -1.4366 O   0  0  0  0  0  0  0  0  0  0  0  0
    0.5829   -1.1635   -0.7053 C   0  0  0  0  0  0  0  0  0  0  0  0
    0.1819   -1.9933    0.4859 C   0  0  0  0  0  0  0  0  0  0  0  0
    0.9993   -2.6723    1.3902 N   0  3  0  0  0  0  0  0  0  0  0  0
   -1.1126   -2.1299    0.9135 C   0  0  0  0  0  0  0  0  0  0  0  0
    0.2766   -3.1099    2.3939 C   0  0  0  0  0  0  0  0  0  0  0  0
   -1.0557   -2.8162    2.1144 N   0  0  0  0  0  0  0  0  0  0  0  0
   -0.4021    1.6919   -0.1303 H   0  0  0  0  0  0  0  0  0  0  0  0
    2.0104    0.0843    0.3918 H   0  0  0  0  0  0  0  0  0  0  0  0
    1.3308   -1.7224   -1.2758 H   0  0  0  0  0  0  0  0  0  0  0  0
   -0.2851   -1.0084   -1.3577 H   0  0  0  0  0  0  0  0  0  0  0  0
    2.0189   -2.6100    1.3702 H   0  0  0  0  0  0  0  0  0  0  0  0
   -1.9982   -1.6831    0.4630 H   0  0  0  0  0  0  0  0  0  0  0  0
    0.6524   -3.5663    3.3099 H   0  0  0  0  0  0  0  0  0  0  0  0
   -1.8176   -2.8055    2.8037 H   0  0  0  0  0  0  0  0  0  0  0  0
    1.8277    0.4457   -2.7386 N   0  0  0  0  0  0  0  0  0  0  0  0
    1.5215    1.1791   -3.9769 C   0  0  2  0  0  0  0  0  0  0  0  0
    0.0073    1.1229   -4.2847 C   0  0  0  0  0  0  0  0  0  0  0  0
   -0.6949    0.2800   -3.7305 O   0  0  0  0  0  0  0  0  0  0  0  0
    2.3304    0.5508   -5.1140 C   0  0  0  0  0  0  0  0  0  0  0  0
    1.6293   -0.5485   -2.7777 H   0  0  0  0  0  0  0  0  0  0  0  0
    1.8180    2.2300   -3.8859 H   0  0  0  0  0  0  0  0  0  0  0  0
    2.0453   -0.4961   -5.2594 H   0  0  0  0  0  0  0  0  0  0  0  0
    2.1560    1.0902   -6.0503 H   0  0  0  0  0  0  0  0  0  0  0  0
    3.4005    0.5938   -4.8872 H   0  0  0  0  0  0  0  0  0  0  0  0
   -0.5704    2.0114   -5.1712 N   0  0  0  0  0  0  0  0  0  0  0  0
   -1.9975    2.0278   -5.4744 C   0  0  0  0  0  0  0  0  0  0  0  0
    0.0254    2.7253   -5.5820 H   0  0  0  0  0  0  0  0  0  0  0  0
   -2.3158    1.0624   -5.8822 H   0  0  0  0  0  0  0  0  0  0  0  0
   -2.5794    2.2373   -4.5706 H   0  0  0  0  0  0  0  0  0  0  0  0
   -2.2190    2.8029   -6.2147 H   0  0  0  0  0  0  0  0  0  0  0  0
  1  2  2  0  0  0  0
  1  3  1  0  0  0  0
  1  7  1  0  0  0  0
  3  4  1  0  0  0  0
  3  5  1  0  0  0  0
  3  6  1  0  0  0  0
  7  8  1  0  0  0  0
  7 12  1  0  0  0  0
  8  9  1  0  0  0  0
  8 11  1  0  0  0  0
  8 13  1  0  0  0  0
  9 10  2  0  0  0  0
  9 17  1  0  0  0  0
 11 14  1  0  0  0  0
 11 15  1  0  0  0  0
 11 16  1  0  0  0  0
 17 18  1  0  0  0  0
 17 27  1  0  0  0  0
 18 19  1  0  0  0  0
 18 21  1  0  0  0  0
 18 28  1  0  0  0  0
 19 20  2  0  0  0  0
 19 35  1  0  0  0  0
 21 22  1  0  0  0  0
 21 29  1  0  0  0  0
 21 30  1  0  0  0  0
 22 23  1  0  0  0  0
 22 24  2  0  0  0  0
 23 25  2  0  0  0  0
 23 31  1  0  0  0  0
 24 26  1  0  0  0  0
 24 32  1  0  0  0  0
 25 26  1  0  0  0  0
 25 33  1  0  0  0  0
 26 34  1  0  0  0  0
 35 36  1  0  0  0  0
 35 40  1  0  0  0  0
 36 37  1  0  0  0  0
 36 39  1  0  0  0  0
 36 41  1  0  0  0  0
 37 38  2  0  0  0  0
 37 45  1  0  0  0  0
 39 42  1  0  0  0  0
 39 43  1  0  0  0  0
 39 44  1  0  0  0  0
 45 46  1  0  0  0  0
 45 47  1  0  0  0  0
 46 48  1  0  0  0  0
 46 49  1  0  0  0  0
 46 50  1  0  0  0  0
M  CHG  1  23   1
M  END
$$$$

  -OEChem-05262216443D

 50 50  0     1  0  0  0  0  0999 V2000
   -2.2060    0.2561    4.1612 C   0  0  0  0  0  0  0  0  0  0  0  0
   -2.5009   -0.7151    3.4733 O   0  0  0  0  0  0  0  0  0  0  0  0
   -2.3024    0.1650    5.6721 C   0  0  0  0  0  0  0  0  0  0  0  0
   -2.7834   -0.7715    5.9673 H   0  0  0  0  0  0  0  0  0  0  0  0
   -1.3029    0.2034    6.1125 H   0  0  0  0  0  0  0  0  0  0  0  0
   -2.8942    0.9980    6.0601 H   0  0  0  0  0  0  0  0  0  0  0  0
   -1.7415    1.4197    3.5815 N   0  0  0  0  0  0  0  0  0  0  0  0
   -1.4925    1.5839    2.1408 C   0  0  2  0  0  0  0  0  0  0  0  0
   -0.1994    0.8984    1.6352 C   0  0  0  0  0  0  0  0  0  0  0  0
    0.5457    0.3040    2.4104 O   0  0  0  0  0  0  0  0  0  0  0  0
   -1.4474    3.0883    1.8566 C   0  0  0  0  0  0  0  0  0  0  0  0
   -1.3810    2.1296    4.2137 H   0  0  0  0  0  0  0  0  0  0  0  0
   -2.3316    1.1538    1.5836 H   0  0  0  0  0  0  0  0  0  0  0  0
   -0.6015    3.5529    2.3738 H   0  0  0  0  0  0  0  0  0  0  0  0
   -1.3409    3.2759    0.7836 H   0  0  0  0  0  0  0  0  0  0  0  0
   -2.3708    3.5682    2.1963 H   0  0  0  0  0  0  0  0  0  0  0  0
    0.0850    0.8651    0.2780 N   0  0  0  0  0  0  0  0  0  0  0  0
    1.1653    0.0704   -0.3384 C   0  0  2  0  0  0  0  0  0  0  0  0
    1.6572    0.8147   -1.6041 C   0  0  0  0  0  0  0  0  0  0  0  0
    1.8993    2.0110   -1.5210 O   0  0  0  0  0  0  0  0  0  0  0  0
    0.6237   -1.3400   -0.6867 C   0  0  0  0  0  0  0  0  0  0  0  0
    0.2228   -2.0883    0.5575 C   0  0  0  0  0  0  0  0  0  0  0  0
    1.0466   -2.6892    1.5100 N   0  3  0  0  0  0  0  0  0  0  0  0
   -1.0709   -2.2074    0.9933 C   0  0  0  0  0  0  0  0  0  0  0  0
    0.3274   -3.0588    2.5430 C   0  0  0  0  0  0  0  0  0  0  0  0
   -1.0077   -2.8028    2.2416 N   0  0  0  0  0  0  0  0  0  0  0  0
   -0.4731    1.4606   -0.3345 H   0  0  0  0  0  0  0  0  0  0  0  0
    2.0209   -0.0118    0.3405 H   0  0  0  0  0  0  0  0  0  0  0  0
    1.3856   -1.9215   -1.2158 H   0  0  0  0  0  0  0  0  0  0  0  0
   -0.2443   -1.2400   -1.3496 H   0  0  0  0  0  0  0  0  0  0  0  0
    2.0653   -2.6102    1.4897 H   0  0  0  0  0  0  0  0  0  0  0  0
   -1.9609   -1.8025    0.5129 H   0  0  0  0  0  0  0  0  0  0  0  0
    0.7072   -3.4380    3.4920 H   0  0  0  0  0  0  0  0  0  0  0  0
   -1.7666   -2.7376    2.9321 H   0  0  0  0  0  0  0  0  0  0  0  0
    1.5946    0.2415   -2.8646 N   0  0  0  0  0  0  0  0  0  0  0  0
    1.2357    1.0780   -4.0201 C   0  0  2  0  0  0  0  0  0  0  0  0
   -0.2730    1.4241   -4.0018 C   0  0  0  0  0  0  0  0  0  0  0  0
   -1.0362    0.8001   -3.2658 O   0  0  0  0  0  0  0  0  0  0  0  0
    1.6071    0.3123   -5.2922 C   0  0  0  0  0  0  0  0  0  0  0  0
    1.1999   -0.6926   -2.8821 H   0  0  0  0  0  0  0  0  0  0  0  0
    1.8051    2.0142   -4.0043 H   0  0  0  0  0  0  0  0  0  0  0  0
    1.0407   -0.6219   -5.3607 H   0  0  0  0  0  0  0  0  0  0  0  0
    1.3896    0.9149   -6.1796 H   0  0  0  0  0  0  0  0  0  0  0  0
    2.6757    0.0743   -5.2929 H   0  0  0  0  0  0  0  0  0  0  0  0
   -0.7753    2.4373   -4.7957 N   0  0  0  0  0  0  0  0  0  0  0  0
   -2.1780    2.8388   -4.7938 C   0  0  0  0  0  0  0  0  0  0  0  0
   -0.1138    2.9762   -5.3486 H   0  0  0  0  0  0  0  0  0  0  0  0
   -2.8212    1.9911   -5.0532 H   0  0  0  0  0  0  0  0  0  0  0  0
   -2.4695    3.2129   -3.8068 H   0  0  0  0  0  0  0  0  0  0  0  0
   -2.3459    3.6335   -5.5274 H   0  0  0  0  0  0  0  0  0  0  0  0
  1  2  2  0  0  0  0
  1  3  1  0  0  0  0
  1  7  1  0  0  0  0
  3  4  1  0  0  0  0
  3  5  1  0  0  0  0
  3  6  1  0  0  0  0
  7  8  1  0  0  0  0
  7 12  1  0  0  0  0
  8  9  1  0  0  0  0
  8 11  1  0  0  0  0
  8 13  1  0  0  0  0
  9 10  2  0  0  0  0
  9 17  1  0  0  0  0
 11 14  1  0  0  0  0
 11 15  1  0  0  0  0
 11 16  1  0  0  0  0
 17 18  1  0  0  0  0
 17 27  1  0  0  0  0
 18 19  1  0  0  0  0
 18 21  1  0  0  0  0
 18 28  1  0  0  0  0
 19 20  2  0  0  0  0
 19 35  1  0  0  0  0
 21 22  1  0  0  0  0
 21 29  1  0  0  0  0
 21 30  1  0  0  0  0
 22 23  1  0  0  0  0
 22 24  2  0  0  0  0
 23 25  2  0  0  0  0
 23 31  1  0  0  0  0
 24 26  1  0  0  0  0
 24 32  1  0  0  0  0
 25 26  1  0  0  0  0
 25 33  1  0  0  0  0
 26 34  1  0  0  0  0
 35 36  1  0  0  0  0
 35 40  1  0  0  0  0
 36 37  1  0  0  0  0
 36 39  1  0  0  0  0
 36 41  1  0  0  0  0
 37 38  2  0  0  0  0
 37 45  1  0  0  0  0
 39 42  1  0  0  0  0
 39 43  1  0  0  0  0
 39 44  1  0  0  0  0
 45 46  1  0  0  0  0
 45 47  1  0  0  0  0
 46 48  1  0  0  0  0
 46 49  1  0  0  0  0
 46 50  1  0  0  0  0
M  CHG  1  23   1
M  END
$$$$

  -OEChem-05262216443D

 50 50  0     1  0  0  0  0  0999 V2000
   -2.2024    0.4329    3.9898 C   0  0  0  0  0  0  0  0  0  0  0  0
   -2.4954   -0.5843    3.3709 O   0  0  0  0  0  0  0  0  0  0  0  0
   -2.3134    0.4517    5.5020 C   0  0  0  0  0  0  0  0  0  0  0  0
   -2.7764   -0.4716    5.8605 H   0  0  0  0  0  0  0  0  0  0  0  0
   -1.3199    0.5455    5.9475 H   0  0  0  0  0  0  0  0  0  0  0  0
   -2.9278    1.2971    5.8217 H   0  0  0  0  0  0  0  0  0  0  0  0
   -1.7273    1.5496    3.3323 N   0  0  0  0  0  0  0  0  0  0  0  0
   -1.4520    1.6027    1.8881 C   0  0  2  0  0  0  0  0  0  0  0  0
   -0.1488    0.8846    1.4605 C   0  0  0  0  0  0  0  0  0  0  0  0
    0.5819    0.3463    2.2887 O   0  0  0  0  0  0  0  0  0  0  0  0
   -1.4005    3.0809    1.4892 C   0  0  0  0  0  0  0  0  0  0  0  0
   -1.3704    2.3024    3.9150 H   0  0  0  0  0  0  0  0  0  0  0  0
   -2.2804    1.1301    1.3493 H   0  0  0  0  0  0  0  0  0  0  0  0
   -0.5621    3.5836    1.9826 H   0  0  0  0  0  0  0  0  0  0  0  0
   -1.2758    3.1845    0.4065 H   0  0  0  0  0  0  0  0  0  0  0  0
   -2.3283    3.5862    1.7757 H   0  0  0  0  0  0  0  0  0  0  0  0
    0.1589    0.7581    0.1156 N   0  0  0  0  0  0  0  0  0  0  0  0
    1.2234   -0.0985   -0.4369 C   0  0  2  0  0  0  0  0  0  0  0  0
    1.7259    0.5835   -1.7285 C   0  0  0  0  0  0  0  0  0  0  0  0
    2.2173    1.7008   -1.6548 O   0  0  0  0  0  0  0  0  0  0  0  0
    0.6710   -1.5200   -0.7058 C   0  0  0  0  0  0  0  0  0  0  0  0
    0.2499   -2.1771    0.5819 C   0  0  0  0  0  0  0  0  0  0  0  0
    1.0594   -2.7204    1.5798 N   0  3  0  0  0  0  0  0  0  0  0  0
   -1.0478   -2.2443    1.0167 C   0  0  0  0  0  0  0  0  0  0  0  0
    0.3292   -3.0011    2.6327 C   0  0  0  0  0  0  0  0  0  0  0  0
   -1.0004   -2.7482    2.3053 N   0  0  0  0  0  0  0  0  0  0  0  0
   -0.4530    1.2334   -0.5548 H   0  0  0  0  0  0  0  0  0  0  0  0
    2.0729   -0.1516    0.2527 H   0  0  0  0  0  0  0  0  0  0  0  0
    1.4308   -2.1374   -1.1965 H   0  0  0  0  0  0  0  0  0  0  0  0
   -0.1947   -1.4534   -1.3746 H   0  0  0  0  0  0  0  0  0  0  0  0
    2.0794   -2.6556    1.5612 H   0  0  0  0  0  0  0  0  0  0  0  0
   -1.9284   -1.8574    0.5050 H   0  0  0  0  0  0  0  0  0  0  0  0
    0.6988   -3.3128    3.6097 H   0  0  0  0  0  0  0  0  0  0  0  0
   -1.7597   -2.6133    2.9857 H   0  0  0  0  0  0  0  0  0  0  0  0
    1.3765    0.0953   -2.9770 N   0  0  0  0  0  0  0  0  0  0  0  0
    0.8878    1.0605   -3.9745 C   0  0  2  0  0  0  0  0  0  0  0  0
   -0.4728    1.6778   -3.5535 C   0  0  0  0  0  0  0  0  0  0  0  0
   -1.1152    1.1952   -2.6191 O   0  0  0  0  0  0  0  0  0  0  0  0
    0.7608    0.3272   -5.3121 C   0  0  0  0  0  0  0  0  0  0  0  0
    0.8611   -0.7773   -2.9511 H   0  0  0  0  0  0  0  0  0  0  0  0
    1.6122    1.8748   -4.0922 H   0  0  0  0  0  0  0  0  0  0  0  0
    0.0226   -0.4783   -5.2436 H   0  0  0  0  0  0  0  0  0  0  0  0
    0.4467    1.0184   -6.1005 H   0  0  0  0  0  0  0  0  0  0  0  0
    1.7245   -0.1051   -5.6001 H   0  0  0  0  0  0  0  0  0  0  0  0
   -0.9769    2.7834   -4.2110 N   0  0  0  0  0  0  0  0  0  0  0  0
   -2.2304    3.4352   -3.8465 C   0  0  0  0  0  0  0  0  0  0  0  0
   -0.4001    3.2051   -4.9346 H   0  0  0  0  0  0  0  0  0  0  0  0
   -3.0614    2.7229   -3.8882 H   0  0  0  0  0  0  0  0  0  0  0  0
   -2.1688    3.8469   -2.8336 H   0  0  0  0  0  0  0  0  0  0  0  0
   -2.4467    4.2542   -4.5396 H   0  0  0  0  0  0  0  0  0  0  0  0
  1  2  2  0  0  0  0
  1  3  1  0  0  0  0
  1  7  1  0  0  0  0
  3  4  1  0  0  0  0
  3  5  1  0  0  0  0
  3  6  1  0  0  0  0
  7  8  1  0  0  0  0
  7 12  1  0  0  0  0
  8  9  1  0  0  0  0
  8 11  1  0  0  0  0
  8 13  1  0  0  0  0
  9 10  2  0  0  0  0
  9 17  1  0  0  0  0
 11 14  1  0  0  0  0
 11 15  1  0  0  0  0
 11 16  1  0  0  0  0
 17 18  1  0  0  0  0
 17 27  1  0  0  0  0
 18 19  1  0  0  0  0
 18 21  1  0  0  0  0
 18 28  1  0  0  0  0
 19 20  2  0  0  0  0
 19 35  1  0  0  0  0
 21 22  1  0  0  0  0
 21 29  1  0  0  0  0
 21 30  1  0  0  0  0
 22 23  1  0  0  0  0
 22 24  2  0  0  0  0
 23 25  2  0  0  0  0
 23 31  1  0  0  0  0
 24 26  1  0  0  0  0
 24 32  1  0  0  0  0
 25 26  1  0  0  0  0
 25 33  1  0  0  0  0
 26 34  1  0  0  0  0
 35 36  1  0  0  0  0
 35 40  1  0  0  0  0
 36 37  1  0  0  0  0
 36 39  1  0  0  0  0
 36 41  1  0  0  0  0
 37 38  2  0  0  0  0
 37 45  1  0  0  0  0
 39 42  1  0  0  0  0
 39 43  1  0  0  0  0
 39 44  1  0  0  0  0
 45 46  1  0  0  0  0
 45 47  1  0  0  0  0
 46 48  1  0  0  0  0
 46 49  1  0  0  0  0
 46 50  1  0  0  0  0
M  CHG  1  23   1
M  END
$$$$

  -OEChem-05262216443D

 50 50  0     1  0  0  0  0  0999 V2000
   -2.1051    0.5381    4.0243 C   0  0  0  0  0  0  0  0  0  0  0  0
   -2.4078   -0.5157    3.4745 O   0  0  0  0  0  0  0  0  0  0  0  0
   -2.1723    0.6439    5.5356 C   0  0  0  0  0  0  0  0  0  0  0  0
   -2.5922   -0.2710    5.9621 H   0  0  0  0  0  0  0  0  0  0  0  0
   -1.1706    0.7964    5.9449 H   0  0  0  0  0  0  0  0  0  0  0  0
   -2.8072    1.4860    5.8226 H   0  0  0  0  0  0  0  0  0  0  0  0
   -1.6675    1.6204    3.2872 N   0  0  0  0  0  0  0  0  0  0  0  0
   -1.4546    1.5949    1.8315 C   0  0  2  0  0  0  0  0  0  0  0  0
   -0.1699    0.8533    1.3883 C   0  0  0  0  0  0  0  0  0  0  0  0
    0.5895    0.3464    2.2103 O   0  0  0  0  0  0  0  0  0  0  0  0
   -1.4282    3.0469    1.3442 C   0  0  0  0  0  0  0  0  0  0  0  0
   -1.2966    2.4084    3.8119 H   0  0  0  0  0  0  0  0  0  0  0  0
   -2.3041    1.0919    1.3570 H   0  0  0  0  0  0  0  0  0  0  0  0
   -0.5715    3.5804    1.7691 H   0  0  0  0  0  0  0  0  0  0  0  0
   -1.3526    3.0858    0.2526 H   0  0  0  0  0  0  0  0  0  0  0  0
   -2.3455    3.5654    1.6407 H   0  0  0  0  0  0  0  0  0  0  0  0
    0.0813    0.6634    0.0394 N   0  0  0  0  0  0  0  0  0  0  0  0
    1.1182   -0.2226   -0.5201 C   0  0  2  0  0  0  0  0  0  0  0  0
    1.5658    0.3975   -1.8592 C   0  0  0  0  0  0  0  0  0  0  0  0
    2.3012    1.3731   -1.8416 O   0  0  0  0  0  0  0  0  0  0  0  0
    0.5689   -1.6590   -0.6992 C   0  0  0  0  0  0  0  0  0  0  0  0
    0.2137   -2.2546    0.6380 C   0  0  0  0  0  0  0  0  0  0  0  0
    1.0767   -2.7407    1.6207 N   0  3  0  0  0  0  0  0  0  0  0  0
   -1.0594   -2.3004    1.1440 C   0  0  0  0  0  0  0  0  0  0  0  0
    0.4042   -2.9641    2.7247 C   0  0  0  0  0  0  0  0  0  0  0  0
   -0.9419   -2.7313    2.4544 N   0  0  0  0  0  0  0  0  0  0  0  0
   -0.5319    1.1520   -0.6234 H   0  0  0  0  0  0  0  0  0  0  0  0
    1.9969   -0.2424    0.1343 H   0  0  0  0  0  0  0  0  0  0  0  0
    1.3128   -2.2901   -1.1979 H   0  0  0  0  0  0  0  0  0  0  0  0
   -0.3269   -1.6347   -1.3284 H   0  0  0  0  0  0  0  0  0  0  0  0
    2.0941   -2.6775    1.5440 H   0  0  0  0  0  0  0  0  0  0  0  0
   -1.9682   -1.9422    0.6623 H   0  0  0  0  0  0  0  0  0  0  0  0
    0.8258   -3.2207    3.6968 H   0  0  0  0  0  0  0  0  0  0  0  0
   -1.6643   -2.5592    3.1658 H   0  0  0  0  0  0  0  0  0  0  0  0
    0.9267    0.0587   -3.0406 N   0  0  0  0  0  0  0  0  0  0  0  0
    0.5445    1.1441   -3.9580 C   0  0  2  0  0  0  0  0  0  0  0  0
   -0.6268    1.9807   -3.3813 C   0  0  0  0  0  0  0  0  0  0  0  0
   -1.2617    1.5728   -2.4070 O   0  0  0  0  0  0  0  0  0  0  0  0
    0.1550    0.5140   -5.2972 C   0  0  0  0  0  0  0  0  0  0  0  0
    0.2217   -0.6624   -2.9335 H   0  0  0  0  0  0  0  0  0  0  0  0
    1.3957    1.8140   -4.1263 H   0  0  0  0  0  0  0  0  0  0  0  0
   -0.7139   -0.1412   -5.1783 H   0  0  0  0  0  0  0  0  0  0  0  0
   -0.0935    1.2899   -6.0281 H   0  0  0  0  0  0  0  0  0  0  0  0
    0.9870   -0.0767   -5.6942 H   0  0  0  0  0  0  0  0  0  0  0  0
   -0.9675    3.1967   -3.9409 N   0  0  0  0  0  0  0  0  0  0  0  0
   -2.0336    4.0488   -3.4260 C   0  0  0  0  0  0  0  0  0  0  0  0
   -0.3908    3.5437   -4.7033 H   0  0  0  0  0  0  0  0  0  0  0  0
   -2.9862    3.5082   -3.4121 H   0  0  0  0  0  0  0  0  0  0  0  0
   -1.8018    4.3810   -2.4087 H   0  0  0  0  0  0  0  0  0  0  0  0
   -2.1510    4.9334   -4.0599 H   0  0  0  0  0  0  0  0  0  0  0  0
  1  2  2  0  0  0  0
  1  3  1  0  0  0  0
  1  7  1  0  0  0  0
  3  4  1  0  0  0  0
  3  5  1  0  0  0  0
  3  6  1  0  0  0  0
  7  8  1  0  0  0  0
  7 12  1  0  0  0  0
  8  9  1  0  0  0  0
  8 11  1  0  0  0  0
  8 13  1  0  0  0  0
  9 10  2  0  0  0  0
  9 17  1  0  0  0  0
 11 14  1  0  0  0  0
 11 15  1  0  0  0  0
 11 16  1  0  0  0  0
 17 18  1  0  0  0  0
 17 27  1  0  0  0  0
 18 19  1  0  0  0  0
 18 21  1  0  0  0  0
 18 28  1  0  0  0  0
 19 20  2  0  0  0  0
 19 35  1  0  0  0  0
 21 22  1  0  0  0  0
 21 29  1  0  0  0  0
 21 30  1  0  0  0  0
 22 23  1  0  0  0  0
 22 24  2  0  0  0  0
 23 25  2  0  0  0  0
 23 31  1  0  0  0  0
 24 26  1  0  0  0  0
 24 32  1  0  0  0  0
 25 26  1  0  0  0  0
 25 33  1  0  0  0  0
 26 34  1  0  0  0  0
 35 36  1  0  0  0  0
 35 40  1  0  0  0  0
 36 37  1  0  0  0  0
 36 39  1  0  0  0  0
 36 41  1  0  0  0  0
 37 38  2  0  0  0  0
 37 45  1  0  0  0  0
 39 42  1  0  0  0  0
 39 43  1  0  0  0  0
 39 44  1  0  0  0  0
 45 46  1  0  0  0  0
 45 47  1  0  0  0  0
 46 48  1  0  0  0  0
 46 49  1  0  0  0  0
 46 50  1  0  0  0  0
M  CHG  1  23   1
M  END
$$$$

  -OEChem-05262216443D

 50 50  0     1  0  0  0  0  0999 V2000
   -2.0183    0.5876    4.0678 C   0  0  0  0  0  0  0  0  0  0  0  0
   -2.3361   -0.4698    3.5340 O   0  0  0  0  0  0  0  0  0  0  0  0
   -2.0420    0.7041    5.5798 C   0  0  0  0  0  0  0  0  0  0  0  0
   -2.4373   -0.2128    6.0254 H   0  0  0  0  0  0  0  0  0  0  0  0
   -1.0303    0.8729    5.9576 H   0  0  0  0  0  0  0  0  0  0  0  0
   -2.6786    1.5406    5.8799 H   0  0  0  0  0  0  0  0  0  0  0  0
   -1.6019    1.6652    3.3122 N   0  0  0  0  0  0  0  0  0  0  0  0
   -1.4457    1.6379    1.8495 C   0  0  2  0  0  0  0  0  0  0  0  0
   -0.2036    0.8573    1.3540 C   0  0  0  0  0  0  0  0  0  0  0  0
    0.5944    0.3635    2.1466 O   0  0  0  0  0  0  0  0  0  0  0  0
   -1.3893    3.0915    1.3709 C   0  0  0  0  0  0  0  0  0  0  0  0
   -1.2223    2.4594    3.8209 H   0  0  0  0  0  0  0  0  0  0  0  0
   -2.3290    1.1651    1.4071 H   0  0  0  0  0  0  0  0  0  0  0  0
   -0.5011    3.5932    1.7688 H   0  0  0  0  0  0  0  0  0  0  0  0
   -1.3519    3.1373    0.2780 H   0  0  0  0  0  0  0  0  0  0  0  0
   -2.2783    3.6364    1.7037 H   0  0  0  0  0  0  0  0  0  0  0  0
   -0.0313    0.6244   -0.0015 N   0  0  0  0  0  0  0  0  0  0  0  0
    0.9884   -0.2686   -0.5859 C   0  0  2  0  0  0  0  0  0  0  0  0
    1.3648    0.2870   -1.9712 C   0  0  0  0  0  0  0  0  0  0  0  0
    2.3018    1.0637   -2.0679 O   0  0  0  0  0  0  0  0  0  0  0  0
    0.4595   -1.7188   -0.6943 C   0  0  0  0  0  0  0  0  0  0  0  0
    0.1835   -2.2805    0.6753 C   0  0  0  0  0  0  0  0  0  0  0  0
    1.1082   -2.7204    1.6231 N   0  3  0  0  0  0  0  0  0  0  0  0
   -1.0587   -2.3312    1.2525 C   0  0  0  0  0  0  0  0  0  0  0  0
    0.5012   -2.9269    2.7676 C   0  0  0  0  0  0  0  0  0  0  0  0
   -0.8617   -2.7240    2.5655 N   0  0  0  0  0  0  0  0  0  0  0  0
   -0.6327    1.1568   -0.6419 H   0  0  0  0  0  0  0  0  0  0  0  0
    1.8986   -0.2536    0.0243 H   0  0  0  0  0  0  0  0  0  0  0  0
    1.1923   -2.3496   -1.2094 H   0  0  0  0  0  0  0  0  0  0  0  0
   -0.4635   -1.7355   -1.2823 H   0  0  0  0  0  0  0  0  0  0  0  0
    2.1188   -2.6476    1.4860 H   0  0  0  0  0  0  0  0  0  0  0  0
   -1.9988   -2.0009    0.8132 H   0  0  0  0  0  0  0  0  0  0  0  0
    0.9805   -3.1533    3.7202 H   0  0  0  0  0  0  0  0  0  0  0  0
   -1.5506   -2.5557    3.3095 H   0  0  0  0  0  0  0  0  0  0  0  0
    0.4921    0.1310   -3.0346 N   0  0  0  0  0  0  0  0  0  0  0  0
    0.2418    1.2764   -3.9219 C   0  0  2  0  0  0  0  0  0  0  0  0
   -0.7238    2.2848   -3.2521 C   0  0  0  0  0  0  0  0  0  0  0  0
   -1.3564    1.9559   -2.2473 O   0  0  0  0  0  0  0  0  0  0  0  0
   -0.3453    0.7403   -5.2297 C   0  0  0  0  0  0  0  0  0  0  0  0
   -0.3416   -0.3990   -2.8013 H   0  0  0  0  0  0  0  0  0  0  0  0
    1.1786    1.7967   -4.1522 H   0  0  0  0  0  0  0  0  0  0  0  0
   -1.3000    0.2369   -5.0470 H   0  0  0  0  0  0  0  0  0  0  0  0
   -0.5146    1.5574   -5.9380 H   0  0  0  0  0  0  0  0  0  0  0  0
    0.3447    0.0247   -5.6887 H   0  0  0  0  0  0  0  0  0  0  0  0
   -0.8766    3.5612   -3.7569 N   0  0  0  0  0  0  0  0  0  0  0  0
   -1.7432    4.5670   -3.1523 C   0  0  0  0  0  0  0  0  0  0  0  0
   -0.2989    3.8276   -4.5504 H   0  0  0  0  0  0  0  0  0  0  0  0
   -2.7750    4.2034   -3.0975 H   0  0  0  0  0  0  0  0  0  0  0  0
   -1.4005    4.8109   -2.1412 H   0  0  0  0  0  0  0  0  0  0  0  0
   -1.7336    5.4839   -3.7501 H   0  0  0  0  0  0  0  0  0  0  0  0
  1  2  2  0  0  0  0
  1  3  1  0  0  0  0
  1  7  1  0  0  0  0
  3  4  1  0  0  0  0
  3  5  1  0  0  0  0
  3  6  1  0  0  0  0
  7  8  1  0  0  0  0
  7 12  1  0  0  0  0
  8  9  1  0  0  0  0
  8 11  1  0  0  0  0
  8 13  1  0  0  0  0
  9 10  2  0  0  0  0
  9 17  1  0  0  0  0
 11 14  1  0  0  0  0
 11 15  1  0  0  0  0
 11 16  1  0  0  0  0
 17 18  1  0  0  0  0
 17 27  1  0  0  0  0
 18 19  1  0  0  0  0
 18 21  1  0  0  0  0
 18 28  1  0  0  0  0
 19 20  2  0  0  0  0
 19 35  1  0  0  0  0
 21 22  1  0  0  0  0
 21 29  1  0  0  0  0
 21 30  1  0  0  0  0
 22 23  1  0  0  0  0
 22 24  2  0  0  0  0
 23 25  2  0  0  0  0
 23 31  1  0  0  0  0
 24 26  1  0  0  0  0
 24 32  1  0  0  0  0
 25 26  1  0  0  0  0
 25 33  1  0  0  0  0
 26 34  1  0  0  0  0
 35 36  1  0  0  0  0
 35 40  1  0  0  0  0
 36 37  1  0  0  0  0
 36 39  1  0  0  0  0
 36 41  1  0  0  0  0
 37 38  2  0  0  0  0
 37 45  1  0  0  0  0
 39 42  1  0  0  0  0
 39 43  1  0  0  0  0
 39 44  1  0  0  0  0
 45 46  1  0  0  0  0
 45 47  1  0  0  0  0
 46 48  1  0  0  0  0
 46 49  1  0  0  0  0
 46 50  1  0  0  0  0
M  CHG  1  23   1
M  END
$$$$

  -OEChem-05262216443D

 50 50  0     1  0  0  0  0  0999 V2000
   -1.9428    0.6243    4.0965 C   0  0  0  0  0  0  0  0  0  0  0  0
   -2.3007   -0.4100    3.5442 O   0  0  0  0  0  0  0  0  0  0  0  0
   -1.9325    0.7042    5.6113 C   0  0  0  0  0  0  0  0  0  0  0  0
   -2.3796   -0.1956    6.0429 H   0  0  0  0  0  0  0  0  0  0  0  0
   -0.9057    0.7980    5.9736 H   0  0  0  0  0  0  0  0  0  0  0  0
   -2.5072    1.5726    5.9433 H   0  0  0  0  0  0  0  0  0  0  0  0
   -1.5073    1.7069    3.3593 N   0  0  0  0  0  0  0  0  0  0  0  0
   -1.3877    1.7206    1.8925 C   0  0  2  0  0  0  0  0  0  0  0  0
   -0.2120    0.8784    1.3383 C   0  0  0  0  0  0  0  0  0  0  0  0
    0.6178    0.3785    2.0935 O   0  0  0  0  0  0  0  0  0  0  0  0
   -1.2407    3.1859    1.4717 C   0  0  0  0  0  0  0  0  0  0  0  0
   -1.0992    2.4786    3.8801 H   0  0  0  0  0  0  0  0  0  0  0  0
   -2.3114    1.3254    1.4558 H   0  0  0  0  0  0  0  0  0  0  0  0
   -0.3152    3.6110    1.8735 H   0  0  0  0  0  0  0  0  0  0  0  0
   -1.2157    3.2746    0.3819 H   0  0  0  0  0  0  0  0  0  0  0  0
   -2.0862    3.7751    1.8408 H   0  0  0  0  0  0  0  0  0  0  0  0
   -0.1283    0.6123   -0.0210 N   0  0  0  0  0  0  0  0  0  0  0  0
    0.8676   -0.2901   -0.6380 C   0  0  2  0  0  0  0  0  0  0  0  0
    1.1748    0.1999   -2.0634 C   0  0  0  0  0  0  0  0  0  0  0  0
    2.2503    0.7260   -2.2999 O   0  0  0  0  0  0  0  0  0  0  0  0
    0.3401   -1.7424   -0.6948 C   0  0  0  0  0  0  0  0  0  0  0  0
    0.1299   -2.2837    0.6940 C   0  0  0  0  0  0  0  0  0  0  0  0
    1.1014   -2.7053    1.6021 N   0  3  0  0  0  0  0  0  0  0  0  0
   -1.0831   -2.3358    1.3293 C   0  0  0  0  0  0  0  0  0  0  0  0
    0.5510   -2.9064    2.7756 C   0  0  0  0  0  0  0  0  0  0  0  0
   -0.8214   -2.7161    2.6346 N   0  0  0  0  0  0  0  0  0  0  0  0
   -0.7043    1.1999   -0.6357 H   0  0  0  0  0  0  0  0  0  0  0  0
    1.8073   -0.2586   -0.0739 H   0  0  0  0  0  0  0  0  0  0  0  0
    1.0522   -2.3796   -1.2309 H   0  0  0  0  0  0  0  0  0  0  0  0
   -0.6061   -1.7721   -1.2443 H   0  0  0  0  0  0  0  0  0  0  0  0
    2.1035   -2.6269    1.4153 H   0  0  0  0  0  0  0  0  0  0  0  0
   -2.0457   -2.0171    0.9319 H   0  0  0  0  0  0  0  0  0  0  0  0
    1.0763   -3.1221    3.7062 H   0  0  0  0  0  0  0  0  0  0  0  0
   -1.4814   -2.5642    3.4064 H   0  0  0  0  0  0  0  0  0  0  0  0
    0.1481    0.2739   -2.9880 N   0  0  0  0  0  0  0  0  0  0  0  0
    0.0283    1.4586   -3.8496 C   0  0  2  0  0  0  0  0  0  0  0  0
   -0.7493    2.5737   -3.1126 C   0  0  0  0  0  0  0  0  0  0  0  0
   -1.3695    2.3026   -2.0834 O   0  0  0  0  0  0  0  0  0  0  0  0
   -0.6935    1.0411   -5.1328 C   0  0  0  0  0  0  0  0  0  0  0  0
   -0.7410   -0.0662   -2.6326 H   0  0  0  0  0  0  0  0  0  0  0  0
    1.0167    1.8471   -4.1201 H   0  0  0  0  0  0  0  0  0  0  0  0
   -1.7018    0.6777   -4.9090 H   0  0  0  0  0  0  0  0  0  0  0  0
   -0.7755    1.8891   -5.8200 H   0  0  0  0  0  0  0  0  0  0  0  0
   -0.1383    0.2430   -5.6364 H   0  0  0  0  0  0  0  0  0  0  0  0
   -0.7434    3.8738   -3.5784 N   0  0  0  0  0  0  0  0  0  0  0  0
   -1.4354    4.9707   -2.9108 C   0  0  0  0  0  0  0  0  0  0  0  0
   -0.1825    4.0791   -4.4018 H   0  0  0  0  0  0  0  0  0  0  0  0
   -2.5038    4.7495   -2.8154 H   0  0  0  0  0  0  0  0  0  0  0  0
   -1.0183    5.1371   -1.9121 H   0  0  0  0  0  0  0  0  0  0  0  0
   -1.3269    5.8942   -3.4882 H   0  0  0  0  0  0  0  0  0  0  0  0
  1  2  2  0  0  0  0
  1  3  1  0  0  0  0
  1  7  1  0  0  0  0
  3  4  1  0  0  0  0
  3  5  1  0  0  0  0
  3  6  1  0  0  0  0
  7  8  1  0  0  0  0
  7 12  1  0  0  0  0
  8  9  1  0  0  0  0
  8 11  1  0  0  0  0
  8 13  1  0  0  0  0
  9 10  2  0  0  0  0
  9 17  1  0  0  0  0
 11 14  1  0  0  0  0
 11 15  1  0  0  0  0
 11 16  1  0  0  0  0
 17 18  1  0  0  0  0
 17 27  1  0  0  0  0
 18 19  1  0  0  0  0
 18 21  1  0  0  0  0
 18 28  1  0  0  0  0
 19 20  2  0  0  0  0
 19 35  1  0  0  0  0
 21 22  1  0  0  0  0
 21 29  1  0  0  0  0
 21 30  1  0  0  0  0
 22 23  1  0  0  0  0
 22 24  2  0  0  0  0
 23 25  2  0  0  0  0
 23 31  1  0  0  0  0
 24 26  1  0  0  0  0
 24 32  1  0  0  0  0
 25 26  1  0  0  0  0
 25 33  1  0  0  0  0
 26 34  1  0  0  0  0
 35 36  1  0  0  0  0
 35 40  1  0  0  0  0
 36 37  1  0  0  0  0
 36 39  1  0  0  0  0
 36 41  1  0  0  0  0
 37 38  2  0  0  0  0
 37 45  1  0  0  0  0
 39 42  1  0  0  0  0
 39 43  1  0  0  0  0
 39 44  1  0  0  0  0
 45 46  1  0  0  0  0
 45 47  1  0  0  0  0
 46 48  1  0  0  0  0
 46 49  1  0  0  0  0
 46 50  1  0  0  0  0
M  CHG  1  23   1
M  END
$$$$

  -OEChem-05262216443D

 50 50  0     1  0  0  0  0  0999 V2000
   -1.8690    0.6757    4.1021 C   0  0  0  0  0  0  0  0  0  0  0  0
   -2.2997   -0.2983    3.4961 O   0  0  0  0  0  0  0  0  0  0  0  0
   -1.8611    0.6739    5.6189 C   0  0  0  0  0  0  0  0  0  0  0  0
   -2.4012   -0.1966    6.0010 H   0  0  0  0  0  0  0  0  0  0  0  0
   -0.8324    0.6426    5.9869 H   0  0  0  0  0  0  0  0  0  0  0  0
   -2.3464    1.5780    5.9957 H   0  0  0  0  0  0  0  0  0  0  0  0
   -1.3490    1.7586    3.4231 N   0  0  0  0  0  0  0  0  0  0  0  0
   -1.2376    1.8460    1.9586 C   0  0  2  0  0  0  0  0  0  0  0  0
   -0.1822    0.8967    1.3395 C   0  0  0  0  0  0  0  0  0  0  0  0
    0.6644    0.3534    2.0448 O   0  0  0  0  0  0  0  0  0  0  0  0
   -0.8978    3.3027    1.6312 C   0  0  0  0  0  0  0  0  0  0  0  0
   -0.8956    2.4756    3.9831 H   0  0  0  0  0  0  0  0  0  0  0  0
   -2.2077    1.6029    1.5116 H   0  0  0  0  0  0  0  0  0  0  0  0
    0.0735    3.5756    2.0566 H   0  0  0  0  0  0  0  0  0  0  0  0
   -0.8551    3.4561    0.5497 H   0  0  0  0  0  0  0  0  0  0  0  0
   -1.6602    3.9736    2.0398 H   0  0  0  0  0  0  0  0  0  0  0  0
   -0.2142    0.6099   -0.0190 N   0  0  0  0  0  0  0  0  0  0  0  0
    0.7250   -0.3207   -0.6871 C   0  0  2  0  0  0  0  0  0  0  0  0
    0.9550    0.1052   -2.1469 C   0  0  0  0  0  0  0  0  0  0  0  0
    2.0887    0.3243   -2.5404 O   0  0  0  0  0  0  0  0  0  0  0  0
    0.1561   -1.7567   -0.6994 C   0  0  0  0  0  0  0  0  0  0  0  0
    0.0089   -2.2917    0.6992 C   0  0  0  0  0  0  0  0  0  0  0  0
    1.0191   -2.7398    1.5505 N   0  3  0  0  0  0  0  0  0  0  0  0
   -1.1693   -2.3271    1.3972 C   0  0  0  0  0  0  0  0  0  0  0  0
    0.5271   -2.9512    2.7479 C   0  0  0  0  0  0  0  0  0  0  0  0
   -0.8471   -2.7345    2.6806 N   0  0  0  0  0  0  0  0  0  0  0  0
   -0.7377    1.2771   -0.5978 H   0  0  0  0  0  0  0  0  0  0  0  0
    1.6984   -0.3054   -0.1829 H   0  0  0  0  0  0  0  0  0  0  0  0
    0.8178   -2.4164   -1.2720 H   0  0  0  0  0  0  0  0  0  0  0  0
   -0.8197   -1.7600   -1.1964 H   0  0  0  0  0  0  0  0  0  0  0  0
    2.0112   -2.6816    1.3093 H   0  0  0  0  0  0  0  0  0  0  0  0
   -2.1455   -1.9877    1.0536 H   0  0  0  0  0  0  0  0  0  0  0  0
    1.0963   -3.1965    3.6449 H   0  0  0  0  0  0  0  0  0  0  0  0
   -1.4745   -2.6251    3.4842 H   0  0  0  0  0  0  0  0  0  0  0  0
   -0.1335    0.4629   -2.9200 N   0  0  0  0  0  0  0  0  0  0  0  0
   -0.0936    1.6724   -3.7521 C   0  0  2  0  0  0  0  0  0  0  0  0
   -0.6853    2.8612   -2.9608 C   0  0  0  0  0  0  0  0  0  0  0  0
   -1.2744    2.6453   -1.9007 O   0  0  0  0  0  0  0  0  0  0  0  0
   -0.8966    1.3987   -5.0257 C   0  0  0  0  0  0  0  0  0  0  0  0
   -1.0243    0.3213   -2.4506 H   0  0  0  0  0  0  0  0  0  0  0  0
    0.9346    1.9242   -4.0353 H   0  0  0  0  0  0  0  0  0  0  0  0
   -1.9384    1.1662   -4.7828 H   0  0  0  0  0  0  0  0  0  0  0  0
   -0.8804    2.2715   -5.6858 H   0  0  0  0  0  0  0  0  0  0  0  0
   -0.4673    0.5498   -5.5677 H   0  0  0  0  0  0  0  0  0  0  0  0
   -0.5436    4.1603   -3.4077 N   0  0  0  0  0  0  0  0  0  0  0  0
   -1.0679    5.3194   -2.6929 C   0  0  0  0  0  0  0  0  0  0  0  0
   -0.0263    4.3110   -4.2704 H   0  0  0  0  0  0  0  0  0  0  0  0
   -2.1572    5.2531   -2.5980 H   0  0  0  0  0  0  0  0  0  0  0  0
   -0.6304    5.3840   -1.6910 H   0  0  0  0  0  0  0  0  0  0  0  0
   -0.8253    6.2396   -3.2340 H   0  0  0  0  0  0  0  0  0  0  0  0
  1  2  2  0  0  0  0
  1  3  1  0  0  0  0
  1  7  1  0  0  0  0
  3  4  1  0  0  0  0
  3  5  1  0  0  0  0
  3  6  1  0  0  0  0
  7  8  1  0  0  0  0
  7 12  1  0  0  0  0
  8  9  1  0  0  0  0
  8 11  1  0  0  0  0
  8 13  1  0  0  0  0
  9 10  2  0  0  0  0
  9 17  1  0  0  0  0
 11 14  1  0  0  0  0
 11 15  1  0  0  0  0
 11 16  1  0  0  0  0
 17 18  1  0  0  0  0
 17 27  1  0  0  0  0
 18 19  1  0  0  0  0
 18 21  1  0  0  0  0
 18 28  1  0  0  0  0
 19 20  2  0  0  0  0
 19 35  1  0  0  0  0
 21 22  1  0  0  0  0
 21 29  1  0  0  0  0
 21 30  1  0  0  0  0
 22 23  1  0  0  0  0
 22 24  2  0  0  0  0
 23 25  2  0  0  0  0
 23 31  1  0  0  0  0
 24 26  1  0  0  0  0
 24 32  1  0  0  0  0
 25 26  1  0  0  0  0
 25 33  1  0  0  0  0
 26 34  1  0  0  0  0
 35 36  1  0  0  0  0
 35 40  1  0  0  0  0
 36 37  1  0  0  0  0
 36 39  1  0  0  0  0
 36 41  1  0  0  0  0
 37 38  2  0  0  0  0
 37 45  1  0  0  0  0
 39 42  1  0  0  0  0
 39 43  1  0  0  0  0
 39 44  1  0  0  0  0
 45 46  1  0  0  0  0
 45 47  1  0  0  0  0
 46 48  1  0  0  0  0
 46 49  1  0  0  0  0
 46 50  1  0  0  0  0
M  CHG  1  23   1
M  END
$$$$

  -OEChem-05262216443D

 50 50  0     1  0  0  0  0  0999 V2000
   -1.8247    0.7310    4.1150 C   0  0  0  0  0  0  0  0  0  0  0  0
   -2.3161   -0.1865    3.4696 O   0  0  0  0  0  0  0  0  0  0  0  0
   -1.8475    0.6806    5.6308 C   0  0  0  0  0  0  0  0  0  0  0  0
   -2.4245   -0.1825    5.9741 H   0  0  0  0  0  0  0  0  0  0  0  0
   -0.8285    0.6026    6.0177 H   0  0  0  0  0  0  0  0  0  0  0  0
   -2.3101    1.5880    6.0273 H   0  0  0  0  0  0  0  0  0  0  0  0
   -1.2153    1.7940    3.4806 N   0  0  0  0  0  0  0  0  0  0  0  0
   -1.1006    1.9390    2.0209 C   0  0  2  0  0  0  0  0  0  0  0  0
   -0.1744    0.8997    1.3432 C   0  0  0  0  0  0  0  0  0  0  0  0
    0.6821    0.3072    1.9949 O   0  0  0  0  0  0  0  0  0  0  0  0
   -0.5802    3.3564    1.7644 C   0  0  0  0  0  0  0  0  0  0  0  0
   -0.7375    2.4699    4.0705 H   0  0  0  0  0  0  0  0  0  0  0  0
   -2.0960    1.8416    1.5740 H   0  0  0  0  0  0  0  0  0  0  0  0
    0.4156    3.4854    2.2011 H   0  0  0  0  0  0  0  0  0  0  0  0
   -0.5116    3.5561    0.6923 H   0  0  0  0  0  0  0  0  0  0  0  0
   -1.2557    4.0966    2.2049 H   0  0  0  0  0  0  0  0  0  0  0  0
   -0.3246    0.6094   -0.0077 N   0  0  0  0  0  0  0  0  0  0  0  0
    0.5395   -0.3551   -0.7318 C   0  0  2  0  0  0  0  0  0  0  0  0
    0.6976    0.0164   -2.2168 C   0  0  0  0  0  0  0  0  0  0  0  0
    1.7955   -0.0735   -2.7414 O   0  0  0  0  0  0  0  0  0  0  0  0
   -0.0814   -1.7682   -0.6958 C   0  0  0  0  0  0  0  0  0  0  0  0
   -0.1593   -2.3002    0.7096 C   0  0  0  0  0  0  0  0  0  0  0  0
    0.8900   -2.7864    1.4894 N   0  3  0  0  0  0  0  0  0  0  0  0
   -1.2913   -2.3131    1.4813 C   0  0  0  0  0  0  0  0  0  0  0  0
    0.4691   -3.0094    2.7115 C   0  0  0  0  0  0  0  0  0  0  0  0
   -0.8995   -2.7529    2.7348 N   0  0  0  0  0  0  0  0  0  0  0  0
   -0.7943    1.3435   -0.5483 H   0  0  0  0  0  0  0  0  0  0  0  0
    1.5430   -0.3699   -0.2907 H   0  0  0  0  0  0  0  0  0  0  0  0
    0.5158   -2.4540   -1.3081 H   0  0  0  0  0  0  0  0  0  0  0  0
   -1.0859   -1.7334   -1.1306 H   0  0  0  0  0  0  0  0  0  0  0  0
    1.8650   -2.7572    1.1827 H   0  0  0  0  0  0  0  0  0  0  0  0
   -2.2787   -1.9457    1.2040 H   0  0  0  0  0  0  0  0  0  0  0  0
    1.0858   -3.2941    3.5641 H   0  0  0  0  0  0  0  0  0  0  0  0
   -1.4806   -2.6758    3.5748 H   0  0  0  0  0  0  0  0  0  0  0  0
   -0.3280    0.6761   -2.8646 N   0  0  0  0  0  0  0  0  0  0  0  0
   -0.0704    1.8875   -3.6514 C   0  0  2  0  0  0  0  0  0  0  0  0
   -0.4777    3.1222   -2.8167 C   0  0  0  0  0  0  0  0  0  0  0  0
   -1.0667    2.9548   -1.7475 O   0  0  0  0  0  0  0  0  0  0  0  0
   -0.8762    1.7971   -4.9491 C   0  0  0  0  0  0  0  0  0  0  0  0
   -1.1860    0.7244   -2.3203 H   0  0  0  0  0  0  0  0  0  0  0  0
    0.9923    1.9785   -3.9029 H   0  0  0  0  0  0  0  0  0  0  0  0
   -1.9479    1.7335   -4.7348 H   0  0  0  0  0  0  0  0  0  0  0  0
   -0.6982    2.6771   -5.5747 H   0  0  0  0  0  0  0  0  0  0  0  0
   -0.5804    0.9077   -5.5150 H   0  0  0  0  0  0  0  0  0  0  0  0
   -0.1672    4.4022   -3.2313 N   0  0  0  0  0  0  0  0  0  0  0  0
   -0.5179    5.5990   -2.4748 C   0  0  0  0  0  0  0  0  0  0  0  0
    0.3381    4.5077   -4.1077 H   0  0  0  0  0  0  0  0  0  0  0  0
   -1.6007    5.6507   -2.3176 H   0  0  0  0  0  0  0  0  0  0  0  0
   -0.0192    5.5972   -1.4997 H   0  0  0  0  0  0  0  0  0  0  0  0
   -0.2069    6.4961   -3.0195 H   0  0  0  0  0  0  0  0  0  0  0  0
  1  2  2  0  0  0  0
  1  3  1  0  0  0  0
  1  7  1  0  0  0  0
  3  4  1  0  0  0  0
  3  5  1  0  0  0  0
  3  6  1  0  0  0  0
  7  8  1  0  0  0  0
  7 12  1  0  0  0  0
  8  9  1  0  0  0  0
  8 11  1  0  0  0  0
  8 13  1  0  0  0  0
  9 10  2  0  0  0  0
  9 17  1  0  0  0  0
 11 14  1  0  0  0  0
 11 15  1  0  0  0  0
 11 16  1  0  0  0  0
 17 18  1  0  0  0  0
 17 27  1  0  0  0  0
 18 19  1  0  0  0  0
 18 21  1  0  0  0  0
 18 28  1  0  0  0  0
 19 20  2  0  0  0  0
 19 35  1  0  0  0  0
 21 22  1  0  0  0  0
 21 29  1  0  0  0  0
 21 30  1  0  0  0  0
 22 23  1  0  0  0  0
 22 24  2  0  0  0  0
 23 25  2  0  0  0  0
 23 31  1  0  0  0  0
 24 26  1  0  0  0  0
 24 32  1  0  0  0  0
 25 26  1  0  0  0  0
 25 33  1  0  0  0  0
 26 34  1  0  0  0  0
 35 36  1  0  0  0  0
 35 40  1  0  0  0  0
 36 37  1  0  0  0  0
 36 39  1  0  0  0  0
 36 41  1  0  0  0  0
 37 38  2  0  0  0  0
 37 45  1  0  0  0  0
 39 42  1  0  0  0  0
 39 43  1  0  0  0  0
 39 44  1  0  0  0  0
 45 46  1  0  0  0  0
 45 47  1  0  0  0  0
 46 48  1  0  0  0  0
 46 49  1  0  0  0  0
 46 50  1  0  0  0  0
M  CHG  1  23   1
M  END
$$$$

  -OEChem-05262216443D

 50 50  0     1  0  0  0  0  0999 V2000
   -1.5586    0.2389    4.7249 C   0  0  0  0  0  0  0  0  0  0  0  0
   -2.1181   -0.6686    4.1198 O   0  0  0  0  0  0  0  0  0  0  0  0
   -1.2762    0.0968    6.2080 C   0  0  0  0  0  0  0  0  0  0  0  0
   -1.6837   -0.8454    6.5846 H   0  0  0  0  0  0  0  0  0  0  0  0
   -0.1980    0.1116    6.3853 H   0  0  0  0  0  0  0  0  0  0  0  0
   -1.7387    0.9213    6.7567 H   0  0  0  0  0  0  0  0  0  0  0  0
   -1.1475    1.3765    4.0606 N   0  0  0  0  0  0  0  0  0  0  0  0
   -1.2833    1.5818    2.6108 C   0  0  2  0  0  0  0  0  0  0  0  0
   -0.2332    0.8297    1.7562 C   0  0  0  0  0  0  0  0  0  0  0  0
    0.6757    0.1951    2.2820 O   0  0  0  0  0  0  0  0  0  0  0  0
   -1.1952    3.0909    2.3610 C   0  0  0  0  0  0  0  0  0  0  0  0
   -0.5733    2.0300    4.5877 H   0  0  0  0  0  0  0  0  0  0  0  0
   -2.2739    1.2373    2.2956 H   0  0  0  0  0  0  0  0  0  0  0  0
   -0.2114    3.4734    2.6530 H   0  0  0  0  0  0  0  0  0  0  0  0
   -1.3534    3.3211    1.3026 H   0  0  0  0  0  0  0  0  0  0  0  0
   -1.9598    3.6173    2.9417 H   0  0  0  0  0  0  0  0  0  0  0  0
   -0.3539    0.8073    0.3723 N   0  0  0  0  0  0  0  0  0  0  0  0
    0.4208   -0.0960   -0.5117 C   0  0  2  0  0  0  0  0  0  0  0  0
    0.6850    0.5143   -1.9020 C   0  0  0  0  0  0  0  0  0  0  0  0
    1.4471   -0.0540   -2.6688 O   0  0  0  0  0  0  0  0  0  0  0  0
   -0.3183   -1.4401   -0.7039 C   0  0  0  0  0  0  0  0  0  0  0  0
   -0.4320   -2.1744    0.6051 C   0  0  0  0  0  0  0  0  0  0  0  0
    0.5856   -2.8551    1.2732 N   0  3  0  0  0  0  0  0  0  0  0  0
   -1.5522   -2.2244    1.3922 C   0  0  0  0  0  0  0  0  0  0  0  0
    0.1684   -3.2220    2.4609 C   0  0  0  0  0  0  0  0  0  0  0  0
   -1.1749   -2.8688    2.5592 N   0  0  0  0  0  0  0  0  0  0  0  0
   -1.1649    1.2857   -0.0132 H   0  0  0  0  0  0  0  0  0  0  0  0
    1.4076   -0.2809   -0.0734 H   0  0  0  0  0  0  0  0  0  0  0  0
    0.2194   -2.0689   -1.4233 H   0  0  0  0  0  0  0  0  0  0  0  0
   -1.3145   -1.2527   -1.1182 H   0  0  0  0  0  0  0  0  0  0  0  0
    1.5536   -2.8648    0.9427 H   0  0  0  0  0  0  0  0  0  0  0  0
   -2.5167   -1.7601    1.1930 H   0  0  0  0  0  0  0  0  0  0  0  0
    0.7737   -3.6727    3.2476 H   0  0  0  0  0  0  0  0  0  0  0  0
   -1.7099   -2.8110    3.4340 H   0  0  0  0  0  0  0  0  0  0  0  0
   -0.0218    1.6188   -2.3329 N   0  0  0  0  0  0  0  0  0  0  0  0
    0.3037    2.3911   -3.5369 C   0  0  2  0  0  0  0  0  0  0  0  0
    0.0228    3.8873   -3.2765 C   0  0  0  0  0  0  0  0  0  0  0  0
   -0.5387    4.2183   -2.2345 O   0  0  0  0  0  0  0  0  0  0  0  0
   -0.5350    1.8623   -4.7046 C   0  0  0  0  0  0  0  0  0  0  0  0
   -0.4882    2.1610   -1.6075 H   0  0  0  0  0  0  0  0  0  0  0  0
    1.3679    2.2886   -3.7773 H   0  0  0  0  0  0  0  0  0  0  0  0
   -1.6031    1.9750   -4.4926 H   0  0  0  0  0  0  0  0  0  0  0  0
   -0.3031    2.4080   -5.6242 H   0  0  0  0  0  0  0  0  0  0  0  0
   -0.3230    0.8015   -4.8730 H   0  0  0  0  0  0  0  0  0  0  0  0
    0.4182    4.8576   -4.1769 N   0  0  0  0  0  0  0  0  0  0  0  0
    0.1964    6.2837   -3.9637 C   0  0  0  0  0  0  0  0  0  0  0  0
    0.8997    4.5569   -5.0200 H   0  0  0  0  0  0  0  0  0  0  0  0
   -0.8732    6.4943   -3.8560 H   0  0  0  0  0  0  0  0  0  0  0  0
    0.7146    6.6214   -3.0598 H   0  0  0  0  0  0  0  0  0  0  0  0
    0.5761    6.8585   -4.8143 H   0  0  0  0  0  0  0  0  0  0  0  0
  1  2  2  0  0  0  0
  1  3  1  0  0  0  0
  1  7  1  0  0  0  0
  3  4  1  0  0  0  0
  3  5  1  0  0  0  0
  3  6  1  0  0  0  0
  7  8  1  0  0  0  0
  7 12  1  0  0  0  0
  8  9  1  0  0  0  0
  8 11  1  0  0  0  0
  8 13  1  0  0  0  0
  9 10  2  0  0  0  0
  9 17  1  0  0  0  0
 11 14  1  0  0  0  0
 11 15  1  0  0  0  0
 11 16  1  0  0  0  0
 17 18  1  0  0  0  0
 17 27  1  0  0  0  0
 18 19  1  0  0  0  0
 18 21  1  0  0  0  0
 18 28  1  0  0  0  0
 19 20  2  0  0  0  0
 19 35  1  0  0  0  0
 21 22  1  0  0  0  0
 21 29  1  0  0  0  0
 21 30  1  0  0  0  0
 22 23  1  0  0  0  0
 22 24  2  0  0  0  0
 23 25  2  0  0  0  0
 23 31  1  0  0  0  0
 24 26  1  0  0  0  0
 24 32  1  0  0  0  0
 25 26  1  0  0  0  0
 25 33  1  0  0  0  0
 26 34  1  0  0  0  0
 35 36  1  0  0  0  0
 35 40  1  0  0  0  0
 36 37  1  0  0  0  0
 36 39  1  0  0  0  0
 36 41  1  0  0  0  0
 37 38  2  0  0  0  0
 37 45  1  0  0  0  0
 39 42  1  0  0  0  0
 39 43  1  0  0  0  0
 39 44  1  0  0  0  0
 45 46  1  0  0  0  0
 45 47  1  0  0  0  0
 46 48  1  0  0  0  0
 46 49  1  0  0  0  0
 46 50  1  0  0  0  0
M  CHG  1  23   1
M  END
$$$$

  -OEChem-05262216443D

 50 50  0     1  0  0  0  0  0999 V2000
   -1.4670    0.2491    4.7384 C   0  0  0  0  0  0  0  0  0  0  0  0
   -2.0524   -0.6594    4.1597 O   0  0  0  0  0  0  0  0  0  0  0  0
   -1.1394    0.1192    6.2133 C   0  0  0  0  0  0  0  0  0  0  0  0
   -1.5363   -0.8192    6.6099 H   0  0  0  0  0  0  0  0  0  0  0  0
   -0.0564    0.1334    6.3587 H   0  0  0  0  0  0  0  0  0  0  0  0
   -1.5841    0.9492    6.7685 H   0  0  0  0  0  0  0  0  0  0  0  0
   -1.0727    1.3793    4.0516 N   0  0  0  0  0  0  0  0  0  0  0  0
   -1.2576    1.5727    2.6054 C   0  0  2  0  0  0  0  0  0  0  0  0
   -0.2415    0.8048    1.7235 C   0  0  0  0  0  0  0  0  0  0  0  0
    0.6721    0.1574    2.2252 O   0  0  0  0  0  0  0  0  0  0  0  0
   -1.1699    3.0785    2.3367 C   0  0  0  0  0  0  0  0  0  0  0  0
   -0.4747    2.0320    4.5525 H   0  0  0  0  0  0  0  0  0  0  0  0
   -2.2610    1.2323    2.3282 H   0  0  0  0  0  0  0  0  0  0  0  0
   -0.1686    3.4542    2.5729 H   0  0  0  0  0  0  0  0  0  0  0  0
   -1.3819    3.2993    1.2857 H   0  0  0  0  0  0  0  0  0  0  0  0
   -1.8985    3.6181    2.9508 H   0  0  0  0  0  0  0  0  0  0  0  0
   -0.3930    0.7869    0.3427 N   0  0  0  0  0  0  0  0  0  0  0  0
    0.3482   -0.1241   -0.5616 C   0  0  2  0  0  0  0  0  0  0  0  0
    0.5791    0.5046   -1.9515 C   0  0  0  0  0  0  0  0  0  0  0  0
    1.1095   -0.1503   -2.8361 O   0  0  0  0  0  0  0  0  0  0  0  0
   -0.4181   -1.4581   -0.7329 C   0  0  0  0  0  0  0  0  0  0  0  0
   -0.5091   -2.1905    0.5791 C   0  0  0  0  0  0  0  0  0  0  0  0
    0.5130   -2.8882    1.2228 N   0  3  0  0  0  0  0  0  0  0  0  0
   -1.6096   -2.2204    1.3948 C   0  0  0  0  0  0  0  0  0  0  0  0
    0.1204   -3.2449    2.4219 C   0  0  0  0  0  0  0  0  0  0  0  0
   -1.2135   -2.8677    2.5541 N   0  0  0  0  0  0  0  0  0  0  0  0
   -1.1997    1.2843   -0.0298 H   0  0  0  0  0  0  0  0  0  0  0  0
    1.3442   -0.3235   -0.1516 H   0  0  0  0  0  0  0  0  0  0  0  0
    0.0886   -2.0981   -1.4644 H   0  0  0  0  0  0  0  0  0  0  0  0
   -1.4210   -1.2551   -1.1227 H   0  0  0  0  0  0  0  0  0  0  0  0
    1.4716   -2.9183    0.8677 H   0  0  0  0  0  0  0  0  0  0  0  0
   -2.5713   -1.7417    1.2182 H   0  0  0  0  0  0  0  0  0  0  0  0
    0.7377   -3.7048    3.1941 H   0  0  0  0  0  0  0  0  0  0  0  0
   -1.7234   -2.7966    3.4432 H   0  0  0  0  0  0  0  0  0  0  0  0
    0.1131    1.7744   -2.2253 N   0  0  0  0  0  0  0  0  0  0  0  0
    0.4266    2.5376   -3.4380 C   0  0  2  0  0  0  0  0  0  0  0  0
    0.4492    4.0458   -3.1070 C   0  0  0  0  0  0  0  0  0  0  0  0
    0.0641    4.4233   -2.0029 O   0  0  0  0  0  0  0  0  0  0  0  0
   -0.6259    2.2223   -4.5056 C   0  0  0  0  0  0  0  0  0  0  0  0
   -0.1259    2.3472   -1.4158 H   0  0  0  0  0  0  0  0  0  0  0  0
    1.4191    2.2610   -3.8107 H   0  0  0  0  0  0  0  0  0  0  0  0
   -1.6247    2.4988   -4.1528 H   0  0  0  0  0  0  0  0  0  0  0  0
   -0.4175    2.7732   -5.4277 H   0  0  0  0  0  0  0  0  0  0  0  0
   -0.6216    1.1525   -4.7376 H   0  0  0  0  0  0  0  0  0  0  0  0
    0.9225    4.9711   -4.0173 N   0  0  0  0  0  0  0  0  0  0  0  0
    0.9848    6.4027   -3.7426 C   0  0  0  0  0  0  0  0  0  0  0  0
    1.2498    4.6295   -4.9169 H   0  0  0  0  0  0  0  0  0  0  0  0
   -0.0182    6.8023   -3.5592 H   0  0  0  0  0  0  0  0  0  0  0  0
    1.6077    6.5987   -2.8633 H   0  0  0  0  0  0  0  0  0  0  0  0
    1.4172    6.9345   -4.5959 H   0  0  0  0  0  0  0  0  0  0  0  0
  1  2  2  0  0  0  0
  1  3  1  0  0  0  0
  1  7  1  0  0  0  0
  3  4  1  0  0  0  0
  3  5  1  0  0  0  0
  3  6  1  0  0  0  0
  7  8  1  0  0  0  0
  7 12  1  0  0  0  0
  8  9  1  0  0  0  0
  8 11  1  0  0  0  0
  8 13  1  0  0  0  0
  9 10  2  0  0  0  0
  9 17  1  0  0  0  0
 11 14  1  0  0  0  0
 11 15  1  0  0  0  0
 11 16  1  0  0  0  0
 17 18  1  0  0  0  0
 17 27  1  0  0  0  0
 18 19  1  0  0  0  0
 18 21  1  0  0  0  0
 18 28  1  0  0  0  0
 19 20  2  0  0  0  0
 19 35  1  0  0  0  0
 21 22  1  0  0  0  0
 21 29  1  0  0  0  0
 21 30  1  0  0  0  0
 22 23  1  0  0  0  0
 22 24  2  0  0  0  0
 23 25  2  0  0  0  0
 23 31  1  0  0  0  0
 24 26  1  0  0  0  0
 24 32  1  0  0  0  0
 25 26  1  0  0  0  0
 25 33  1  0  0  0  0
 26 34  1  0  0  0  0
 35 36  1  0  0  0  0
 35 40  1  0  0  0  0
 36 37  1  0  0  0  0
 36 39  1  0  0  0  0
 36 41  1  0  0  0  0
 37 38  2  0  0  0  0
 37 45  1  0  0  0  0
 39 42  1  0  0  0  0
 39 43  1  0  0  0  0
 39 44  1  0  0  0  0
 45 46  1  0  0  0  0
 45 47  1  0  0  0  0
 46 48  1  0  0  0  0
 46 49  1  0  0  0  0
 46 50  1  0  0  0  0
M  CHG  1  23   1
M  END
$$$$

  -OEChem-05262216443D

 50 50  0     1  0  0  0  0  0999 V2000
   -1.4278    0.2315    4.7398 C   0  0  0  0  0  0  0  0  0  0  0  0
   -2.0339   -0.6677    4.1683 O   0  0  0  0  0  0  0  0  0  0  0  0
   -1.0499    0.0768    6.2003 C   0  0  0  0  0  0  0  0  0  0  0  0
   -1.4772   -0.8435    6.6081 H   0  0  0  0  0  0  0  0  0  0  0  0
    0.0375    0.0371    6.3025 H   0  0  0  0  0  0  0  0  0  0  0  0
   -1.4308    0.9236    6.7770 H   0  0  0  0  0  0  0  0  0  0  0  0
   -1.0487    1.3677    4.0542 N   0  0  0  0  0  0  0  0  0  0  0  0
   -1.2686    1.5739    2.6145 C   0  0  2  0  0  0  0  0  0  0  0  0
   -0.2755    0.8113    1.7019 C   0  0  0  0  0  0  0  0  0  0  0  0
    0.6561    0.1694    2.1768 O   0  0  0  0  0  0  0  0  0  0  0  0
   -1.1820    3.0815    2.3574 C   0  0  0  0  0  0  0  0  0  0  0  0
   -0.4343    2.0130    4.5448 H   0  0  0  0  0  0  0  0  0  0  0  0
   -2.2794    1.2385    2.3589 H   0  0  0  0  0  0  0  0  0  0  0  0
   -0.1737    3.4509    2.5725 H   0  0  0  0  0  0  0  0  0  0  0  0
   -1.4187    3.3122    1.3140 H   0  0  0  0  0  0  0  0  0  0  0  0
   -1.8926    3.6184    2.9944 H   0  0  0  0  0  0  0  0  0  0  0  0
   -0.4634    0.7919    0.3254 N   0  0  0  0  0  0  0  0  0  0  0  0
    0.2613   -0.1110   -0.5993 C   0  0  2  0  0  0  0  0  0  0  0  0
    0.4423    0.5322   -1.9918 C   0  0  0  0  0  0  0  0  0  0  0  0
    0.7382   -0.1562   -2.9572 O   0  0  0  0  0  0  0  0  0  0  0  0
   -0.5002   -1.4531   -0.7425 C   0  0  0  0  0  0  0  0  0  0  0  0
   -0.5492   -2.1878    0.5709 C   0  0  0  0  0  0  0  0  0  0  0  0
    0.4943   -2.8800    1.1851 N   0  3  0  0  0  0  0  0  0  0  0  0
   -1.6272   -2.2278    1.4157 C   0  0  0  0  0  0  0  0  0  0  0  0
    0.1354   -3.2471    2.3915 C   0  0  0  0  0  0  0  0  0  0  0  0
   -1.1967   -2.8788    2.5605 N   0  0  0  0  0  0  0  0  0  0  0  0
   -1.2657    1.3062   -0.0343 H   0  0  0  0  0  0  0  0  0  0  0  0
    1.2712   -0.3010   -0.2193 H   0  0  0  0  0  0  0  0  0  0  0  0
   -0.0099   -2.0932   -1.4852 H   0  0  0  0  0  0  0  0  0  0  0  0
   -1.5151   -1.2584   -1.1051 H   0  0  0  0  0  0  0  0  0  0  0  0
    1.4423   -2.9052    0.8029 H   0  0  0  0  0  0  0  0  0  0  0  0
   -2.5961   -1.7540    1.2674 H   0  0  0  0  0  0  0  0  0  0  0  0
    0.7751   -3.7099    3.1436 H   0  0  0  0  0  0  0  0  0  0  0  0
   -1.6862   -2.8201    3.4616 H   0  0  0  0  0  0  0  0  0  0  0  0
    0.2391    1.8871   -2.1591 N   0  0  0  0  0  0  0  0  0  0  0  0
    0.5680    2.6404   -3.3754 C   0  0  2  0  0  0  0  0  0  0  0  0
    0.9209    4.0987   -3.0107 C   0  0  0  0  0  0  0  0  0  0  0  0
    0.7196    4.4973   -1.8666 O   0  0  0  0  0  0  0  0  0  0  0  0
   -0.6282    2.5882   -4.3321 C   0  0  0  0  0  0  0  0  0  0  0  0
    0.1888    2.4451   -1.3057 H   0  0  0  0  0  0  0  0  0  0  0  0
    1.4432    2.1977   -3.8634 H   0  0  0  0  0  0  0  0  0  0  0  0
   -1.5112    3.0389   -3.8677 H   0  0  0  0  0  0  0  0  0  0  0  0
   -0.4063    3.1301   -5.2567 H   0  0  0  0  0  0  0  0  0  0  0  0
   -0.8620    1.5507   -4.5919 H   0  0  0  0  0  0  0  0  0  0  0  0
    1.4862    4.9500   -3.9409 N   0  0  0  0  0  0  0  0  0  0  0  0
    1.8691    6.3248   -3.6376 C   0  0  0  0  0  0  0  0  0  0  0  0
    1.6646    4.5854   -4.8728 H   0  0  0  0  0  0  0  0  0  0  0  0
    0.9988    6.9030   -3.3091 H   0  0  0  0  0  0  0  0  0  0  0  0
    2.6254    6.3466   -2.8457 H   0  0  0  0  0  0  0  0  0  0  0  0
    2.2868    6.8072   -4.5268 H   0  0  0  0  0  0  0  0  0  0  0  0
  1  2  2  0  0  0  0
  1  3  1  0  0  0  0
  1  7  1  0  0  0  0
  3  4  1  0  0  0  0
  3  5  1  0  0  0  0
  3  6  1  0  0  0  0
  7  8  1  0  0  0  0
  7 12  1  0  0  0  0
  8  9  1  0  0  0  0
  8 11  1  0  0  0  0
  8 13  1  0  0  0  0
  9 10  2  0  0  0  0
  9 17  1  0  0  0  0
 11 14  1  0  0  0  0
 11 15  1  0  0  0  0
 11 16  1  0  0  0  0
 17 18  1  0  0  0  0
 17 27  1  0  0  0  0
 18 19  1  0  0  0  0
 18 21  1  0  0  0  0
 18 28  1  0  0  0  0
 19 20  2  0  0  0  0
 19 35  1  0  0  0  0
 21 22  1  0  0  0  0
 21 29  1  0  0  0  0
 21 30  1  0  0  0  0
 22 23  1  0  0  0  0
 22 24  2  0  0  0  0
 23 25  2  0  0  0  0
 23 31  1  0  0  0  0
 24 26  1  0  0  0  0
 24 32  1  0  0  0  0
 25 26  1  0  0  0  0
 25 33  1  0  0  0  0
 26 34  1  0  0  0  0
 35 36  1  0  0  0  0
 35 40  1  0  0  0  0
 36 37  1  0  0  0  0
 36 39  1  0  0  0  0
 36 41  1  0  0  0  0
 37 38  2  0  0  0  0
 37 45  1  0  0  0  0
 39 42  1  0  0  0  0
 39 43  1  0  0  0  0
 39 44  1  0  0  0  0
 45 46  1  0  0  0  0
 45 47  1  0  0  0  0
 46 48  1  0  0  0  0
 46 49  1  0  0  0  0
 46 50  1  0  0  0  0
M  CHG  1  23   1
M  END
$$$$

  -OEChem-05262216443D

 50 50  0     1  0  0  0  0  0999 V2000
   -1.5611   -0.0175    4.7356 C   0  0  0  0  0  0  0  0  0  0  0  0
   -1.8705   -1.0532    4.1579 O   0  0  0  0  0  0  0  0  0  0  0  0
   -1.1436   -0.0621    6.1930 C   0  0  0  0  0  0  0  0  0  0  0  0
   -1.2682   -1.0715    6.5949 H   0  0  0  0  0  0  0  0  0  0  0  0
   -0.0949    0.2297    6.2899 H   0  0  0  0  0  0  0  0  0  0  0  0
   -1.7596    0.6245    6.7792 H   0  0  0  0  0  0  0  0  0  0  0  0
   -1.5497    1.1863    4.0601 N   0  0  0  0  0  0  0  0  0  0  0  0
   -1.8279    1.3283    2.6225 C   0  0  2  0  0  0  0  0  0  0  0  0
   -0.6432    0.9386    1.7027 C   0  0  0  0  0  0  0  0  0  0  0  0
    0.4374    0.6013    2.1749 O   0  0  0  0  0  0  0  0  0  0  0  0
   -2.2396    2.7846    2.3848 C   0  0  0  0  0  0  0  0  0  0  0  0
   -1.1461    1.9791    4.5532 H   0  0  0  0  0  0  0  0  0  0  0  0
   -2.6746    0.6849    2.3605 H   0  0  0  0  0  0  0  0  0  0  0  0
   -1.4042    3.4599    2.5982 H   0  0  0  0  0  0  0  0  0  0  0  0
   -2.5501    2.9349    1.3462 H   0  0  0  0  0  0  0  0  0  0  0  0
   -3.0796    3.0543    3.0338 H   0  0  0  0  0  0  0  0  0  0  0  0
   -0.8118    0.8906    0.3241 N   0  0  0  0  0  0  0  0  0  0  0  0
    0.1443    0.2510   -0.6089 C   0  0  2  0  0  0  0  0  0  0  0  0
    0.1312    0.9500   -1.9871 C   0  0  0  0  0  0  0  0  0  0  0  0
    0.3648    0.3166   -3.0068 O   0  0  0  0  0  0  0  0  0  0  0  0
   -0.1758   -1.2583   -0.7636 C   0  0  0  0  0  0  0  0  0  0  0  0
    0.0059   -1.9848    0.5418 C   0  0  0  0  0  0  0  0  0  0  0  0
    1.2134   -2.3331    1.1467 N   0  3  0  0  0  0  0  0  0  0  0  0
   -1.0053   -2.3653    1.3837 C   0  0  0  0  0  0  0  0  0  0  0  0
    0.9879   -2.8055    2.3487 C   0  0  0  0  0  0  0  0  0  0  0  0
   -0.3926   -2.8664    2.5207 N   0  0  0  0  0  0  0  0  0  0  0  0
   -1.7288    1.1499   -0.0350 H   0  0  0  0  0  0  0  0  0  0  0  0
    1.1649    0.3660   -0.2278 H   0  0  0  0  0  0  0  0  0  0  0  0
    0.4818   -1.7145   -1.5123 H   0  0  0  0  0  0  0  0  0  0  0  0
   -1.2031   -1.3761   -1.1232 H   0  0  0  0  0  0  0  0  0  0  0  0
    2.1224   -2.0610    0.7651 H   0  0  0  0  0  0  0  0  0  0  0  0
   -2.0731   -2.2121    1.2379 H   0  0  0  0  0  0  0  0  0  0  0  0
    1.7416   -3.0570    3.0954 H   0  0  0  0  0  0  0  0  0  0  0  0
   -0.8743   -2.9737    3.4215 H   0  0  0  0  0  0  0  0  0  0  0  0
   -0.1652    2.2977   -2.0700 N   0  0  0  0  0  0  0  0  0  0  0  0
    0.1714    3.0937   -3.2607 C   0  0  2  0  0  0  0  0  0  0  0  0
    1.5849    3.7010   -3.1381 C   0  0  0  0  0  0  0  0  0  0  0  0
    2.0766    3.8653   -2.0267 O   0  0  0  0  0  0  0  0  0  0  0  0
   -0.8770    4.1998   -3.4000 C   0  0  0  0  0  0  0  0  0  0  0  0
   -0.0732    2.7897   -1.1829 H   0  0  0  0  0  0  0  0  0  0  0  0
    0.1421    2.4741   -4.1635 H   0  0  0  0  0  0  0  0  0  0  0  0
   -0.8623    4.8558   -2.5235 H   0  0  0  0  0  0  0  0  0  0  0  0
   -0.6770    4.8062   -4.2890 H   0  0  0  0  0  0  0  0  0  0  0  0
   -1.8773    3.7663   -3.4964 H   0  0  0  0  0  0  0  0  0  0  0  0
    2.2989    4.0686   -4.2626 N   0  0  0  0  0  0  0  0  0  0  0  0
    3.6546    4.6037   -4.2054 C   0  0  0  0  0  0  0  0  0  0  0  0
    1.8881    3.8708   -5.1709 H   0  0  0  0  0  0  0  0  0  0  0  0
    3.6818    5.5189   -3.6043 H   0  0  0  0  0  0  0  0  0  0  0  0
    4.3373    3.8711   -3.7622 H   0  0  0  0  0  0  0  0  0  0  0  0
    4.0105    4.8430   -5.2122 H   0  0  0  0  0  0  0  0  0  0  0  0
  1  2  2  0  0  0  0
  1  3  1  0  0  0  0
  1  7  1  0  0  0  0
  3  4  1  0  0  0  0
  3  5  1  0  0  0  0
  3  6  1  0  0  0  0
  7  8  1  0  0  0  0
  7 12  1  0  0  0  0
  8  9  1  0  0  0  0
  8 11  1  0  0  0  0
  8 13  1  0  0  0  0
  9 10  2  0  0  0  0
  9 17  1  0  0  0  0
 11 14  1  0  0  0  0
 11 15  1  0  0  0  0
 11 16  1  0  0  0  0
 17 18  1  0  0  0  0
 17 27  1  0  0  0  0
 18 19  1  0  0  0  0
 18 21  1  0  0  0  0
 18 28  1  0  0  0  0
 19 20  2  0  0  0  0
 19 35  1  0  0  0  0
 21 22  1  0  0  0  0
 21 29  1  0  0  0  0
 21 30  1  0  0  0  0
 22 23  1  0  0  0  0
 22 24  2  0  0  0  0
 23 25  2  0  0  0  0
 23 31  1  0  0  0  0
 24 26  1  0  0  0  0
 24 32  1  0  0  0  0
 25 26  1  0  0  0  0
 25 33  1  0  0  0  0
 26 34  1  0  0  0  0
 35 36  1  0  0  0  0
 35 40  1  0  0  0  0
 36 37  1  0  0  0  0
 36 39  1  0  0  0  0
 36 41  1  0  0  0  0
 37 38  2  0  0  0  0
 37 45  1  0  0  0  0
 39 42  1  0  0  0  0
 39 43  1  0  0  0  0
 39 44  1  0  0  0  0
 45 46  1  0  0  0  0
 45 47  1  0  0  0  0
 46 48  1  0  0  0  0
 46 49  1  0  0  0  0
 46 50  1  0  0  0  0
M  CHG  1  23   1
M  END
$$$$

  -OEChem-05262216443D

 50 50  0     1  0  0  0  0  0999 V2000
   -1.5412   -0.0967    4.7435 C   0  0  0  0  0  0  0  0  0  0  0  0
   -1.8276   -1.1271    4.1449 O   0  0  0  0  0  0  0  0  0  0  0  0
   -1.1002   -0.1638    6.1930 C   0  0  0  0  0  0  0  0  0  0  0  0
   -1.2401   -1.1744    6.5865 H   0  0  0  0  0  0  0  0  0  0  0  0
   -0.0440    0.1048    6.2745 H   0  0  0  0  0  0  0  0  0  0  0  0
   -1.6915    0.5295    6.7967 H   0  0  0  0  0  0  0  0  0  0  0  0
   -1.5760    1.1228    4.0982 N   0  0  0  0  0  0  0  0  0  0  0  0
   -1.8781    1.2907    2.6683 C   0  0  2  0  0  0  0  0  0  0  0  0
   -0.6923    0.9670    1.7254 C   0  0  0  0  0  0  0  0  0  0  0  0
    0.4047    0.6531    2.1756 O   0  0  0  0  0  0  0  0  0  0  0  0
   -2.3446    2.7363    2.4736 C   0  0  0  0  0  0  0  0  0  0  0  0
   -1.1879    1.9147    4.6047 H   0  0  0  0  0  0  0  0  0  0  0  0
   -2.7047    0.6246    2.3989 H   0  0  0  0  0  0  0  0  0  0  0  0
   -1.5363    3.4370    2.7081 H   0  0  0  0  0  0  0  0  0  0  0  0
   -2.6612    2.9055    1.4398 H   0  0  0  0  0  0  0  0  0  0  0  0
   -3.1944    2.9524    3.1295 H   0  0  0  0  0  0  0  0  0  0  0  0
   -0.8750    0.9566    0.3483 N   0  0  0  0  0  0  0  0  0  0  0  0
    0.0846    0.3681   -0.6123 C   0  0  2  0  0  0  0  0  0  0  0  0
    0.0325    1.1144   -1.9633 C   0  0  0  0  0  0  0  0  0  0  0  0
    0.0219    0.5013   -3.0220 O   0  0  0  0  0  0  0  0  0  0  0  0
   -0.1958   -1.1438   -0.8081 C   0  0  0  0  0  0  0  0  0  0  0  0
    0.0213   -1.9017    0.4738 C   0  0  0  0  0  0  0  0  0  0  0  0
    1.2461   -2.2320    1.0532 N   0  3  0  0  0  0  0  0  0  0  0  0
   -0.9677   -2.3349    1.3169 C   0  0  0  0  0  0  0  0  0  0  0  0
    1.0500   -2.7465    2.2429 C   0  0  0  0  0  0  0  0  0  0  0  0
   -0.3257   -2.8531    2.4301 N   0  0  0  0  0  0  0  0  0  0  0  0
   -1.8012    1.2062    0.0057 H   0  0  0  0  0  0  0  0  0  0  0  0
    1.1070    0.4968   -0.2403 H   0  0  0  0  0  0  0  0  0  0  0  0
    0.4656   -1.5562   -1.5786 H   0  0  0  0  0  0  0  0  0  0  0  0
   -1.2241   -1.2798   -1.1598 H   0  0  0  0  0  0  0  0  0  0  0  0
    2.1413   -1.9198    0.6698 H   0  0  0  0  0  0  0  0  0  0  0  0
   -2.0415   -2.2082    1.1890 H   0  0  0  0  0  0  0  0  0  0  0  0
    1.8202   -2.9969    2.9727 H   0  0  0  0  0  0  0  0  0  0  0  0
   -0.7920   -3.0046    3.3326 H   0  0  0  0  0  0  0  0  0  0  0  0
    0.0118    2.4962   -1.9713 N   0  0  0  0  0  0  0  0  0  0  0  0
    0.4346    3.2564   -3.1578 C   0  0  2  0  0  0  0  0  0  0  0  0
    1.9690    3.4312   -3.1907 C   0  0  0  0  0  0  0  0  0  0  0  0
    2.6175    3.3027   -2.1575 O   0  0  0  0  0  0  0  0  0  0  0  0
   -0.2619    4.6185   -3.1188 C   0  0  0  0  0  0  0  0  0  0  0  0
    0.2589    2.9140   -1.0761 H   0  0  0  0  0  0  0  0  0  0  0  0
    0.1292    2.7394   -4.0741 H   0  0  0  0  0  0  0  0  0  0  0  0
    0.0372    5.1786   -2.2268 H   0  0  0  0  0  0  0  0  0  0  0  0
    0.0019    5.2082   -4.0023 H   0  0  0  0  0  0  0  0  0  0  0  0
   -1.3486    4.4890   -3.1030 H   0  0  0  0  0  0  0  0  0  0  0  0
    2.6217    3.7355   -4.3699 N   0  0  0  0  0  0  0  0  0  0  0  0
    4.0707    3.8721   -4.4677 C   0  0  0  0  0  0  0  0  0  0  0  0
    2.0663    3.7865   -5.2192 H   0  0  0  0  0  0  0  0  0  0  0  0
    4.4316    4.6456   -3.7813 H   0  0  0  0  0  0  0  0  0  0  0  0
    4.5626    2.9254   -4.2205 H   0  0  0  0  0  0  0  0  0  0  0  0
    4.3569    4.1552   -5.4854 H   0  0  0  0  0  0  0  0  0  0  0  0
  1  2  2  0  0  0  0
  1  3  1  0  0  0  0
  1  7  1  0  0  0  0
  3  4  1  0  0  0  0
  3  5  1  0  0  0  0
  3  6  1  0  0  0  0
  7  8  1  0  0  0  0
  7 12  1  0  0  0  0
  8  9  1  0  0  0  0
  8 11  1  0  0  0  0
  8 13  1  0  0  0  0
  9 10  2  0  0  0  0
  9 17  1  0  0  0  0
 11 14  1  0  0  0  0
 11 15  1  0  0  0  0
 11 16  1  0  0  0  0
 17 18  1  0  0  0  0
 17 27  1  0  0  0  0
 18 19  1  0  0  0  0
 18 21  1  0  0  0  0
 18 28  1  0  0  0  0
 19 20  2  0  0  0  0
 19 35  1  0  0  0  0
 21 22  1  0  0  0  0
 21 29  1  0  0  0  0
 21 30  1  0  0  0  0
 22 23  1  0  0  0  0
 22 24  2  0  0  0  0
 23 25  2  0  0  0  0
 23 31  1  0  0  0  0
 24 26  1  0  0  0  0
 24 32  1  0  0  0  0
 25 26  1  0  0  0  0
 25 33  1  0  0  0  0
 26 34  1  0  0  0  0
 35 36  1  0  0  0  0
 35 40  1  0  0  0  0
 36 37  1  0  0  0  0
 36 39  1  0  0  0  0
 36 41  1  0  0  0  0
 37 38  2  0  0  0  0
 37 45  1  0  0  0  0
 39 42  1  0  0  0  0
 39 43  1  0  0  0  0
 39 44  1  0  0  0  0
 45 46  1  0  0  0  0
 45 47  1  0  0  0  0
 46 48  1  0  0  0  0
 46 49  1  0  0  0  0
 46 50  1  0  0  0  0
M  CHG  1  23   1
M  END
$$$$

  -OEChem-05262216443D

 50 50  0     1  0  0  0  0  0999 V2000
   -1.6126   -0.2164    4.7183 C   0  0  0  0  0  0  0  0  0  0  0  0
   -1.8674   -1.2102    4.0483 O   0  0  0  0  0  0  0  0  0  0  0  0
   -1.2440   -0.3668    6.1814 C   0  0  0  0  0  0  0  0  0  0  0  0
   -1.3413   -1.4105    6.4927 H   0  0  0  0  0  0  0  0  0  0  0  0
   -0.2122   -0.0447    6.3422 H   0  0  0  0  0  0  0  0  0  0  0  0
   -1.9084    0.2440    6.7979 H   0  0  0  0  0  0  0  0  0  0  0  0
   -1.6278    1.0387    4.1445 N   0  0  0  0  0  0  0  0  0  0  0  0
   -1.9025    1.2933    2.7220 C   0  0  2  0  0  0  0  0  0  0  0  0
   -0.7063    1.0123    1.7785 C   0  0  0  0  0  0  0  0  0  0  0  0
    0.3941    0.7041    2.2247 O   0  0  0  0  0  0  0  0  0  0  0  0
   -2.3482    2.7541    2.6045 C   0  0  0  0  0  0  0  0  0  0  0  0
   -1.2750    1.8047    4.7130 H   0  0  0  0  0  0  0  0  0  0  0  0
   -2.7321    0.6539    2.4018 H   0  0  0  0  0  0  0  0  0  0  0  0
   -1.5369    3.4282    2.8983 H   0  0  0  0  0  0  0  0  0  0  0  0
   -2.6386    2.9896    1.5760 H   0  0  0  0  0  0  0  0  0  0  0  0
   -3.2100    2.9424    3.2532 H   0  0  0  0  0  0  0  0  0  0  0  0
   -0.8807    1.0485    0.4013 N   0  0  0  0  0  0  0  0  0  0  0  0
    0.0920    0.5179   -0.5773 C   0  0  2  0  0  0  0  0  0  0  0  0
    0.0197    1.3193   -1.8932 C   0  0  0  0  0  0  0  0  0  0  0  0
   -0.2456    0.7725   -2.9555 O   0  0  0  0  0  0  0  0  0  0  0  0
   -0.1492   -0.9899   -0.8377 C   0  0  0  0  0  0  0  0  0  0  0  0
    0.0838   -1.7934    0.4126 C   0  0  0  0  0  0  0  0  0  0  0  0
    1.3142   -2.1166    0.9843 N   0  3  0  0  0  0  0  0  0  0  0  0
   -0.8977   -2.2846    1.2317 C   0  0  0  0  0  0  0  0  0  0  0  0
    1.1257   -2.6846    2.1508 C   0  0  0  0  0  0  0  0  0  0  0  0
   -0.2480   -2.8315    2.3262 N   0  0  0  0  0  0  0  0  0  0  0  0
   -1.8083    1.2974    0.0619 H   0  0  0  0  0  0  0  0  0  0  0  0
    1.1121    0.6515   -0.1998 H   0  0  0  0  0  0  0  0  0  0  0  0
    0.5224   -1.3490   -1.6260 H   0  0  0  0  0  0  0  0  0  0  0  0
   -1.1741   -1.1376   -1.1952 H   0  0  0  0  0  0  0  0  0  0  0  0
    2.2033   -1.7679    0.6183 H   0  0  0  0  0  0  0  0  0  0  0  0
   -1.9736   -2.1781    1.1038 H   0  0  0  0  0  0  0  0  0  0  0  0
    1.8985   -2.9485    2.8733 H   0  0  0  0  0  0  0  0  0  0  0  0
   -0.7159   -3.0350    3.2173 H   0  0  0  0  0  0  0  0  0  0  0  0
    0.2807    2.6755   -1.8649 N   0  0  0  0  0  0  0  0  0  0  0  0
    0.7494    3.3699   -3.0729 C   0  0  2  0  0  0  0  0  0  0  0  0
    2.2502    3.1007   -3.3275 C   0  0  0  0  0  0  0  0  0  0  0  0
    2.9606    2.6908   -2.4145 O   0  0  0  0  0  0  0  0  0  0  0  0
    0.4937    4.8672   -2.8848 C   0  0  0  0  0  0  0  0  0  0  0  0
    0.6846    2.9986   -0.9884 H   0  0  0  0  0  0  0  0  0  0  0  0
    0.1856    3.0298   -3.9485 H   0  0  0  0  0  0  0  0  0  0  0  0
    1.0591    5.2500   -2.0288 H   0  0  0  0  0  0  0  0  0  0  0  0
    0.7990    5.4225   -3.7774 H   0  0  0  0  0  0  0  0  0  0  0  0
   -0.5711    5.0524   -2.7117 H   0  0  0  0  0  0  0  0  0  0  0  0
    2.8044    3.3119   -4.5757 N   0  0  0  0  0  0  0  0  0  0  0  0
    4.2015    3.0308   -4.8873 C   0  0  0  0  0  0  0  0  0  0  0  0
    2.1822    3.5928   -5.3283 H   0  0  0  0  0  0  0  0  0  0  0  0
    4.8647    3.6142   -4.2397 H   0  0  0  0  0  0  0  0  0  0  0  0
    4.4194    1.9668   -4.7469 H   0  0  0  0  0  0  0  0  0  0  0  0
    4.4181    3.2933   -5.9274 H   0  0  0  0  0  0  0  0  0  0  0  0
  1  2  2  0  0  0  0
  1  3  1  0  0  0  0
  1  7  1  0  0  0  0
  3  4  1  0  0  0  0
  3  5  1  0  0  0  0
  3  6  1  0  0  0  0
  7  8  1  0  0  0  0
  7 12  1  0  0  0  0
  8  9  1  0  0  0  0
  8 11  1  0  0  0  0
  8 13  1  0  0  0  0
  9 10  2  0  0  0  0
  9 17  1  0  0  0  0
 11 14  1  0  0  0  0
 11 15  1  0  0  0  0
 11 16  1  0  0  0  0
 17 18  1  0  0  0  0
 17 27  1  0  0  0  0
 18 19  1  0  0  0  0
 18 21  1  0  0  0  0
 18 28  1  0  0  0  0
 19 20  2  0  0  0  0
 19 35  1  0  0  0  0
 21 22  1  0  0  0  0
 21 29  1  0  0  0  0
 21 30  1  0  0  0  0
 22 23  1  0  0  0  0
 22 24  2  0  0  0  0
 23 25  2  0  0  0  0
 23 31  1  0  0  0  0
 24 26  1  0  0  0  0
 24 32  1  0  0  0  0
 25 26  1  0  0  0  0
 25 33  1  0  0  0  0
 26 34  1  0  0  0  0
 35 36  1  0  0  0  0
 35 40  1  0  0  0  0
 36 37  1  0  0  0  0
 36 39  1  0  0  0  0
 36 41  1  0  0  0  0
 37 38  2  0  0  0  0
 37 45  1  0  0  0  0
 39 42  1  0  0  0  0
 39 43  1  0  0  0  0
 39 44  1  0  0  0  0
 45 46  1  0  0  0  0
 45 47  1  0  0  0  0
 46 48  1  0  0  0  0
 46 49  1  0  0  0  0
 46 50  1  0  0  0  0
M  CHG  1  23   1
M  END
$$$$

  -OEChem-05262216443D

 50 50  0     1  0  0  0  0  0999 V2000
   -1.6281   -0.3065    4.7128 C   0  0  0  0  0  0  0  0  0  0  0  0
   -1.8735   -1.2718    3.9991 O   0  0  0  0  0  0  0  0  0  0  0  0
   -1.2619   -0.5183    6.1690 C   0  0  0  0  0  0  0  0  0  0  0  0
   -1.3870   -1.5696    6.4429 H   0  0  0  0  0  0  0  0  0  0  0  0
   -0.2217   -0.2294    6.3388 H   0  0  0  0  0  0  0  0  0  0  0  0
   -1.9088    0.0878    6.8084 H   0  0  0  0  0  0  0  0  0  0  0  0
   -1.6515    0.9723    4.1945 N   0  0  0  0  0  0  0  0  0  0  0  0
   -1.9217    1.2885    2.7833 C   0  0  2  0  0  0  0  0  0  0  0  0
   -0.7216    1.0509    1.8324 C   0  0  0  0  0  0  0  0  0  0  0  0
    0.3782    0.7257    2.2686 O   0  0  0  0  0  0  0  0  0  0  0  0
   -2.3673    2.7532    2.7290 C   0  0  0  0  0  0  0  0  0  0  0  0
   -1.3122    1.7158    4.7993 H   0  0  0  0  0  0  0  0  0  0  0  0
   -2.7506    0.6642    2.4325 H   0  0  0  0  0  0  0  0  0  0  0  0
   -1.5546    3.4144    3.0479 H   0  0  0  0  0  0  0  0  0  0  0  0
   -2.6612    3.0311    1.7120 H   0  0  0  0  0  0  0  0  0  0  0  0
   -3.2270    2.9149    3.3877 H   0  0  0  0  0  0  0  0  0  0  0  0
   -0.8895    1.1495    0.4575 N   0  0  0  0  0  0  0  0  0  0  0  0
    0.0861    0.6608   -0.5390 C   0  0  2  0  0  0  0  0  0  0  0  0
    0.0303    1.5140   -1.8217 C   0  0  0  0  0  0  0  0  0  0  0  0
   -0.4670    1.0739   -2.8500 O   0  0  0  0  0  0  0  0  0  0  0  0
   -0.1552   -0.8317   -0.8734 C   0  0  0  0  0  0  0  0  0  0  0  0
    0.0693   -1.6959    0.3374 C   0  0  0  0  0  0  0  0  0  0  0  0
    1.2961   -2.0488    0.8994 N   0  3  0  0  0  0  0  0  0  0  0  0
   -0.9173   -2.2226    1.1273 C   0  0  0  0  0  0  0  0  0  0  0  0
    1.1008   -2.6745    2.0348 C   0  0  0  0  0  0  0  0  0  0  0  0
   -0.2743   -2.8241    2.1969 N   0  0  0  0  0  0  0  0  0  0  0  0
   -1.8175    1.4064    0.1248 H   0  0  0  0  0  0  0  0  0  0  0  0
    1.1035    0.7689   -0.1473 H   0  0  0  0  0  0  0  0  0  0  0  0
    0.5180   -1.1499   -1.6776 H   0  0  0  0  0  0  0  0  0  0  0  0
   -1.1794   -0.9612   -1.2408 H   0  0  0  0  0  0  0  0  0  0  0  0
    2.1890   -1.6942    0.5483 H   0  0  0  0  0  0  0  0  0  0  0  0
   -1.9923   -2.1071    0.9978 H   0  0  0  0  0  0  0  0  0  0  0  0
    1.8695   -2.9794    2.7452 H   0  0  0  0  0  0  0  0  0  0  0  0
   -0.7468   -3.0706    3.0746 H   0  0  0  0  0  0  0  0  0  0  0  0
    0.5905    2.7767   -1.8141 N   0  0  0  0  0  0  0  0  0  0  0  0
    1.1079    3.3635   -3.0591 C   0  0  2  0  0  0  0  0  0  0  0  0
    2.4558    2.7255   -3.4708 C   0  0  0  0  0  0  0  0  0  0  0  0
    3.0988    2.0691   -2.6561 O   0  0  0  0  0  0  0  0  0  0  0  0
    1.2695    4.8687   -2.8342 C   0  0  0  0  0  0  0  0  0  0  0  0
    1.1182    2.9929   -0.9716 H   0  0  0  0  0  0  0  0  0  0  0  0
    0.3923    3.2083   -3.8742 H   0  0  0  0  0  0  0  0  0  0  0  0
    1.9998    5.0632   -2.0419 H   0  0  0  0  0  0  0  0  0  0  0  0
    1.6141    5.3588   -3.7502 H   0  0  0  0  0  0  0  0  0  0  0  0
    0.3122    5.3139   -2.5449 H   0  0  0  0  0  0  0  0  0  0  0  0
    2.9478    2.8853   -4.7524 N   0  0  0  0  0  0  0  0  0  0  0  0
    4.1969    2.2887   -5.2123 C   0  0  0  0  0  0  0  0  0  0  0  0
    2.3762    3.3978   -5.4182 H   0  0  0  0  0  0  0  0  0  0  0  0
    5.0388    2.6470   -4.6105 H   0  0  0  0  0  0  0  0  0  0  0  0
    4.1513    1.1970   -5.1393 H   0  0  0  0  0  0  0  0  0  0  0  0
    4.3823    2.5570   -6.2570 H   0  0  0  0  0  0  0  0  0  0  0  0
  1  2  2  0  0  0  0
  1  3  1  0  0  0  0
  1  7  1  0  0  0  0
  3  4  1  0  0  0  0
  3  5  1  0  0  0  0
  3  6  1  0  0  0  0
  7  8  1  0  0  0  0
  7 12  1  0  0  0  0
  8  9  1  0  0  0  0
  8 11  1  0  0  0  0
  8 13  1  0  0  0  0
  9 10  2  0  0  0  0
  9 17  1  0  0  0  0
 11 14  1  0  0  0  0
 11 15  1  0  0  0  0
 11 16  1  0  0  0  0
 17 18  1  0  0  0  0
 17 27  1  0  0  0  0
 18 19  1  0  0  0  0
 18 21  1  0  0  0  0
 18 28  1  0  0  0  0
 19 20  2  0  0  0  0
 19 35  1  0  0  0  0
 21 22  1  0  0  0  0
 21 29  1  0  0  0  0
 21 30  1  0  0  0  0
 22 23  1  0  0  0  0
 22 24  2  0  0  0  0
 23 25  2  0  0  0  0
 23 31  1  0  0  0  0
 24 26  1  0  0  0  0
 24 32  1  0  0  0  0
 25 26  1  0  0  0  0
 25 33  1  0  0  0  0
 26 34  1  0  0  0  0
 35 36  1  0  0  0  0
 35 40  1  0  0  0  0
 36 37  1  0  0  0  0
 36 39  1  0  0  0  0
 36 41  1  0  0  0  0
 37 38  2  0  0  0  0
 37 45  1  0  0  0  0
 39 42  1  0  0  0  0
 39 43  1  0  0  0  0
 39 44  1  0  0  0  0
 45 46  1  0  0  0  0
 45 47  1  0  0  0  0
 46 48  1  0  0  0  0
 46 49  1  0  0  0  0
 46 50  1  0  0  0  0
M  CHG  1  23   1
M  END
$$$$

  -OEChem-05262216443D

 50 50  0     1  0  0  0  0  0999 V2000
   -1.6659   -0.3910    4.6942 C   0  0  0  0  0  0  0  0  0  0  0  0
   -1.9217   -1.3207    3.9381 O   0  0  0  0  0  0  0  0  0  0  0  0
   -1.3136   -0.6732    6.1422 C   0  0  0  0  0  0  0  0  0  0  0  0
   -1.4722   -1.7304    6.3726 H   0  0  0  0  0  0  0  0  0  0  0  0
   -0.2658   -0.4241    6.3270 H   0  0  0  0  0  0  0  0  0  0  0  0
   -1.9443   -0.0745    6.8045 H   0  0  0  0  0  0  0  0  0  0  0  0
   -1.6609    0.9097    4.2320 N   0  0  0  0  0  0  0  0  0  0  0  0
   -1.9081    1.2924    2.8330 C   0  0  2  0  0  0  0  0  0  0  0  0
   -0.6945    1.0933    1.8907 C   0  0  0  0  0  0  0  0  0  0  0  0
    0.3919    0.7236    2.3260 O   0  0  0  0  0  0  0  0  0  0  0  0
   -2.3495    2.7589    2.8395 C   0  0  0  0  0  0  0  0  0  0  0  0
   -1.3113    1.6191    4.8711 H   0  0  0  0  0  0  0  0  0  0  0  0
   -2.7332    0.6881    2.4409 H   0  0  0  0  0  0  0  0  0  0  0  0
   -1.5395    3.4036    3.1964 H   0  0  0  0  0  0  0  0  0  0  0  0
   -2.6319    3.0831    1.8330 H   0  0  0  0  0  0  0  0  0  0  0  0
   -3.2159    2.8915    3.4956 H   0  0  0  0  0  0  0  0  0  0  0  0
   -0.8396    1.2597    0.5201 N   0  0  0  0  0  0  0  0  0  0  0  0
    0.1414    0.7997   -0.4827 C   0  0  2  0  0  0  0  0  0  0  0  0
    0.1253    1.7088   -1.7263 C   0  0  0  0  0  0  0  0  0  0  0  0
   -0.5840    1.4334   -2.6852 O   0  0  0  0  0  0  0  0  0  0  0  0
   -0.1336   -0.6639   -0.9022 C   0  0  0  0  0  0  0  0  0  0  0  0
    0.0436   -1.5967    0.2642 C   0  0  0  0  0  0  0  0  0  0  0  0
    1.2482   -2.0137    0.8293 N   0  3  0  0  0  0  0  0  0  0  0  0
   -0.9734   -2.1315    1.0090 C   0  0  0  0  0  0  0  0  0  0  0  0
    1.0123   -2.6871    1.9293 C   0  0  0  0  0  0  0  0  0  0  0  0
   -0.3695   -2.8039    2.0589 N   0  0  0  0  0  0  0  0  0  0  0  0
   -1.7544    1.5573    0.1841 H   0  0  0  0  0  0  0  0  0  0  0  0
    1.1537    0.8580   -0.0683 H   0  0  0  0  0  0  0  0  0  0  0  0
    0.5457   -0.9555   -1.7115 H   0  0  0  0  0  0  0  0  0  0  0  0
   -1.1542   -0.7460   -1.2926 H   0  0  0  0  0  0  0  0  0  0  0  0
    2.1575   -1.6698    0.5112 H   0  0  0  0  0  0  0  0  0  0  0  0
   -2.0415   -1.9758    0.8668 H   0  0  0  0  0  0  0  0  0  0  0  0
    1.7577   -3.0480    2.6384 H   0  0  0  0  0  0  0  0  0  0  0  0
   -0.8650   -3.0712    2.9179 H   0  0  0  0  0  0  0  0  0  0  0  0
    0.9582    2.8101   -1.7785 N   0  0  0  0  0  0  0  0  0  0  0  0
    1.4651    3.2841   -3.0748 C   0  0  2  0  0  0  0  0  0  0  0  0
    2.5710    2.3519   -3.6252 C   0  0  0  0  0  0  0  0  0  0  0  0
    3.1043    1.5268   -2.8872 O   0  0  0  0  0  0  0  0  0  0  0  0
    2.0018    4.7043   -2.8804 C   0  0  0  0  0  0  0  0  0  0  0  0
    1.6072    2.8825   -0.9990 H   0  0  0  0  0  0  0  0  0  0  0  0
    0.6509    3.3189   -3.8071 H   0  0  0  0  0  0  0  0  0  0  0  0
    2.8372    4.7076   -2.1727 H   0  0  0  0  0  0  0  0  0  0  0  0
    2.3532    5.1148   -3.8322 H   0  0  0  0  0  0  0  0  0  0  0  0
    1.2135    5.3581   -2.4941 H   0  0  0  0  0  0  0  0  0  0  0  0
    2.9649    2.4331   -4.9475 N   0  0  0  0  0  0  0  0  0  0  0  0
    3.9780    1.5653   -5.5382 C   0  0  0  0  0  0  0  0  0  0  0  0
    2.4743    3.0907   -5.5474 H   0  0  0  0  0  0  0  0  0  0  0  0
    4.9267    1.6600   -4.9989 H   0  0  0  0  0  0  0  0  0  0  0  0
    3.6552    0.5193   -5.5029 H   0  0  0  0  0  0  0  0  0  0  0  0
    4.1490    1.8387   -6.5844 H   0  0  0  0  0  0  0  0  0  0  0  0
  1  2  2  0  0  0  0
  1  3  1  0  0  0  0
  1  7  1  0  0  0  0
  3  4  1  0  0  0  0
  3  5  1  0  0  0  0
  3  6  1  0  0  0  0
  7  8  1  0  0  0  0
  7 12  1  0  0  0  0
  8  9  1  0  0  0  0
  8 11  1  0  0  0  0
  8 13  1  0  0  0  0
  9 10  2  0  0  0  0
  9 17  1  0  0  0  0
 11 14  1  0  0  0  0
 11 15  1  0  0  0  0
 11 16  1  0  0  0  0
 17 18  1  0  0  0  0
 17 27  1  0  0  0  0
 18 19  1  0  0  0  0
 18 21  1  0  0  0  0
 18 28  1  0  0  0  0
 19 20  2  0  0  0  0
 19 35  1  0  0  0  0
 21 22  1  0  0  0  0
 21 29  1  0  0  0  0
 21 30  1  0  0  0  0
 22 23  1  0  0  0  0
 22 24  2  0  0  0  0
 23 25  2  0  0  0  0
 23 31  1  0  0  0  0
 24 26  1  0  0  0  0
 24 32  1  0  0  0  0
 25 26  1  0  0  0  0
 25 33  1  0  0  0  0
 26 34  1  0  0  0  0
 35 36  1  0  0  0  0
 35 40  1  0  0  0  0
 36 37  1  0  0  0  0
 36 39  1  0  0  0  0
 36 41  1  0  0  0  0
 37 38  2  0  0  0  0
 37 45  1  0  0  0  0
 39 42  1  0  0  0  0
 39 43  1  0  0  0  0
 39 44  1  0  0  0  0
 45 46  1  0  0  0  0
 45 47  1  0  0  0  0
 46 48  1  0  0  0  0
 46 49  1  0  0  0  0
 46 50  1  0  0  0  0
M  CHG  1  23   1
M  END
$$$$

  -OEChem-05262216443D

 50 50  0     1  0  0  0  0  0999 V2000
   -1.6636   -0.4713    4.6530 C   0  0  0  0  0  0  0  0  0  0  0  0
   -1.9483   -1.3526    3.8504 O   0  0  0  0  0  0  0  0  0  0  0  0
   -1.3075   -0.8390    6.0805 C   0  0  0  0  0  0  0  0  0  0  0  0
   -1.5057   -1.8992    6.2602 H   0  0  0  0  0  0  0  0  0  0  0  0
   -0.2489   -0.6403    6.2646 H   0  0  0  0  0  0  0  0  0  0  0  0
   -1.9072   -0.2503    6.7794 H   0  0  0  0  0  0  0  0  0  0  0  0
   -1.6293    0.8518    4.2615 N   0  0  0  0  0  0  0  0  0  0  0  0
   -1.8719    1.3142    2.8860 C   0  0  2  0  0  0  0  0  0  0  0  0
   -0.6667    1.1341    1.9291 C   0  0  0  0  0  0  0  0  0  0  0  0
    0.4069    0.7013    2.3379 O   0  0  0  0  0  0  0  0  0  0  0  0
   -2.2758    2.7890    2.9724 C   0  0  0  0  0  0  0  0  0  0  0  0
   -1.2543    1.5164    4.9336 H   0  0  0  0  0  0  0  0  0  0  0  0
   -2.7129    0.7525    2.4658 H   0  0  0  0  0  0  0  0  0  0  0  0
   -1.4527    3.3910    3.3711 H   0  0  0  0  0  0  0  0  0  0  0  0
   -2.5406    3.1765    1.9837 H   0  0  0  0  0  0  0  0  0  0  0  0
   -3.1441    2.9081    3.6288 H   0  0  0  0  0  0  0  0  0  0  0  0
   -0.8079    1.3839    0.5706 N   0  0  0  0  0  0  0  0  0  0  0  0
    0.1612    0.9584   -0.4576 C   0  0  2  0  0  0  0  0  0  0  0  0
    0.1747    1.9323   -1.6490 C   0  0  0  0  0  0  0  0  0  0  0  0
   -0.6808    1.8447   -2.5202 O   0  0  0  0  0  0  0  0  0  0  0  0
   -0.1595   -0.4634   -0.9743 C   0  0  0  0  0  0  0  0  0  0  0  0
   -0.0175   -1.4740    0.1301 C   0  0  0  0  0  0  0  0  0  0  0  0
    1.1715   -1.9641    0.6683 N   0  3  0  0  0  0  0  0  0  0  0  0
   -1.0528   -2.0092    0.8488 C   0  0  0  0  0  0  0  0  0  0  0  0
    0.9120   -2.6876    1.7305 C   0  0  0  0  0  0  0  0  0  0  0  0
   -0.4731   -2.7582    1.8597 N   0  0  0  0  0  0  0  0  0  0  0  0
   -1.7101    1.7351    0.2517 H   0  0  0  0  0  0  0  0  0  0  0  0
    1.1726    0.9575   -0.0377 H   0  0  0  0  0  0  0  0  0  0  0  0
    0.5146   -0.7231   -1.7993 H   0  0  0  0  0  0  0  0  0  0  0  0
   -1.1805   -0.4867   -1.3715 H   0  0  0  0  0  0  0  0  0  0  0  0
    2.0926   -1.6401    0.3633 H   0  0  0  0  0  0  0  0  0  0  0  0
   -2.1140   -1.8021    0.7209 H   0  0  0  0  0  0  0  0  0  0  0  0
    1.6441   -3.1155    2.4156 H   0  0  0  0  0  0  0  0  0  0  0  0
   -0.9758   -3.0439    2.7090 H   0  0  0  0  0  0  0  0  0  0  0  0
    1.2269    2.8153   -1.7959 N   0  0  0  0  0  0  0  0  0  0  0  0
    1.7290    3.1199   -3.1434 C   0  0  2  0  0  0  0  0  0  0  0  0
    2.5618    1.9425   -3.7074 C   0  0  0  0  0  0  0  0  0  0  0  0
    2.8882    1.0112   -2.9733 O   0  0  0  0  0  0  0  0  0  0  0  0
    2.5738    4.3935   -3.0533 C   0  0  0  0  0  0  0  0  0  0  0  0
    1.9415    2.7317   -1.0773 H   0  0  0  0  0  0  0  0  0  0  0  0
    0.8925    3.3068   -3.8263 H   0  0  0  0  0  0  0  0  0  0  0  0
    3.4388    4.2375   -2.4006 H   0  0  0  0  0  0  0  0  0  0  0  0
    2.9355    4.6854   -4.0442 H   0  0  0  0  0  0  0  0  0  0  0  0
    1.9762    5.2171   -2.6498 H   0  0  0  0  0  0  0  0  0  0  0  0
    2.9391    1.9182   -5.0365 N   0  0  0  0  0  0  0  0  0  0  0  0
    3.7020    0.8277   -5.6337 C   0  0  0  0  0  0  0  0  0  0  0  0
    2.6212    2.6772   -5.6333 H   0  0  0  0  0  0  0  0  0  0  0  0
    4.6522    0.6893   -5.1068 H   0  0  0  0  0  0  0  0  0  0  0  0
    3.1342   -0.1076   -5.5874 H   0  0  0  0  0  0  0  0  0  0  0  0
    3.9207    1.0480   -6.6833 H   0  0  0  0  0  0  0  0  0  0  0  0
  1  2  2  0  0  0  0
  1  3  1  0  0  0  0
  1  7  1  0  0  0  0
  3  4  1  0  0  0  0
  3  5  1  0  0  0  0
  3  6  1  0  0  0  0
  7  8  1  0  0  0  0
  7 12  1  0  0  0  0
  8  9  1  0  0  0  0
  8 11  1  0  0  0  0
  8 13  1  0  0  0  0
  9 10  2  0  0  0  0
  9 17  1  0  0  0  0
 11 14  1  0  0  0  0
 11 15  1  0  0  0  0
 11 16  1  0  0  0  0
 17 18  1  0  0  0  0
 17 27  1  0  0  0  0
 18 19  1  0  0  0  0
 18 21  1  0  0  0  0
 18 28  1  0  0  0  0
 19 20  2  0  0  0  0
 19 35  1  0  0  0  0
 21 22  1  0  0  0  0
 21 29  1  0  0  0  0
 21 30  1  0  0  0  0
 22 23  1  0  0  0  0
 22 24  2  0  0  0  0
 23 25  2  0  0  0  0
 23 31  1  0  0  0  0
 24 26  1  0  0  0  0
 24 32  1  0  0  0  0
 25 26  1  0  0  0  0
 25 33  1  0  0  0  0
 26 34  1  0  0  0  0
 35 36  1  0  0  0  0
 35 40  1  0  0  0  0
 36 37  1  0  0  0  0
 36 39  1  0  0  0  0
 36 41  1  0  0  0  0
 37 38  2  0  0  0  0
 37 45  1  0  0  0  0
 39 42  1  0  0  0  0
 39 43  1  0  0  0  0
 39 44  1  0  0  0  0
 45 46  1  0  0  0  0
 45 47  1  0  0  0  0
 46 48  1  0  0  0  0
 46 49  1  0  0  0  0
 46 50  1  0  0  0  0
M  CHG  1  23   1
M  END
$$$$

  -OEChem-05262216443D

 50 50  0     1  0  0  0  0  0999 V2000
   -1.8243   -0.4649    4.5974 C   0  0  0  0  0  0  0  0  0  0  0  0
   -2.0798   -1.3203    3.7574 O   0  0  0  0  0  0  0  0  0  0  0  0
   -1.5967   -0.8692    6.0411 C   0  0  0  0  0  0  0  0  0  0  0  0
   -1.7505   -1.9447    6.1635 H   0  0  0  0  0  0  0  0  0  0  0  0
   -0.5757   -0.6223    6.3423 H   0  0  0  0  0  0  0  0  0  0  0  0
   -2.2976   -0.3401    6.6916 H   0  0  0  0  0  0  0  0  0  0  0  0
   -1.7116    0.8628    4.2374 N   0  0  0  0  0  0  0  0  0  0  0  0
   -1.8340    1.3603    2.8583 C   0  0  2  0  0  0  0  0  0  0  0  0
   -0.5842    1.1204    1.9752 C   0  0  0  0  0  0  0  0  0  0  0  0
    0.4361    0.6193    2.4391 O   0  0  0  0  0  0  0  0  0  0  0  0
   -2.1468    2.8572    2.9453 C   0  0  0  0  0  0  0  0  0  0  0  0
   -1.3735    1.5021    4.9521 H   0  0  0  0  0  0  0  0  0  0  0  0
   -2.6798    0.8596    2.3748 H   0  0  0  0  0  0  0  0  0  0  0  0
   -1.3132    3.3979    3.4055 H   0  0  0  0  0  0  0  0  0  0  0  0
   -2.3220    3.2747    1.9489 H   0  0  0  0  0  0  0  0  0  0  0  0
   -3.0463    3.0244    3.5468 H   0  0  0  0  0  0  0  0  0  0  0  0
   -0.6308    1.3940    0.6158 N   0  0  0  0  0  0  0  0  0  0  0  0
    0.3856    0.9590   -0.3595 C   0  0  2  0  0  0  0  0  0  0  0  0
    0.4855    1.9609   -1.5217 C   0  0  0  0  0  0  0  0  0  0  0  0
   -0.4685    2.1012   -2.2763 O   0  0  0  0  0  0  0  0  0  0  0  0
    0.0324   -0.4283   -0.9443 C   0  0  0  0  0  0  0  0  0  0  0  0
    0.0523   -1.4763    0.1347 C   0  0  0  0  0  0  0  0  0  0  0  0
    1.1717   -2.0462    0.7393 N   0  3  0  0  0  0  0  0  0  0  0  0
   -1.0579   -1.9606    0.7734 C   0  0  0  0  0  0  0  0  0  0  0  0
    0.7999   -2.7678    1.7691 C   0  0  0  0  0  0  0  0  0  0  0  0
   -0.5922   -2.7580    1.8058 N   0  0  0  0  0  0  0  0  0  0  0  0
   -1.4817    1.8199    0.2495 H   0  0  0  0  0  0  0  0  0  0  0  0
    1.3692    0.9101    0.1191 H   0  0  0  0  0  0  0  0  0  0  0  0
    0.7448   -0.6978   -1.7331 H   0  0  0  0  0  0  0  0  0  0  0  0
   -0.9603   -0.3880   -1.4069 H   0  0  0  0  0  0  0  0  0  0  0  0
    2.1284   -1.7757    0.5009 H   0  0  0  0  0  0  0  0  0  0  0  0
   -2.0935   -1.6835    0.5828 H   0  0  0  0  0  0  0  0  0  0  0  0
    1.4575   -3.2468    2.4946 H   0  0  0  0  0  0  0  0  0  0  0  0
   -1.1646   -3.0157    2.6193 H   0  0  0  0  0  0  0  0  0  0  0  0
    1.6804    2.6045   -1.7807 N   0  0  0  0  0  0  0  0  0  0  0  0
    2.0528    2.9087   -3.1693 C   0  0  2  0  0  0  0  0  0  0  0  0
    2.4844    1.6281   -3.9237 C   0  0  0  0  0  0  0  0  0  0  0  0
    2.7442    0.6034   -3.2954 O   0  0  0  0  0  0  0  0  0  0  0  0
    3.1914    3.9321   -3.1396 C   0  0  0  0  0  0  0  0  0  0  0  0
    2.4474    2.3278   -1.1739 H   0  0  0  0  0  0  0  0  0  0  0  0
    1.2017    3.3512   -3.6989 H   0  0  0  0  0  0  0  0  0  0  0  0
    4.0701    3.5177   -2.6344 H   0  0  0  0  0  0  0  0  0  0  0  0
    3.4790    4.2155   -4.1569 H   0  0  0  0  0  0  0  0  0  0  0  0
    2.8766    4.8358   -2.6076 H   0  0  0  0  0  0  0  0  0  0  0  0
    2.5648    1.6160   -5.3030 N   0  0  0  0  0  0  0  0  0  0  0  0
    2.9128    0.4285   -6.0752 C   0  0  0  0  0  0  0  0  0  0  0  0
    2.2913    2.4596   -5.7998 H   0  0  0  0  0  0  0  0  0  0  0  0
    3.9011    0.0567   -5.7844 H   0  0  0  0  0  0  0  0  0  0  0  0
    2.1755   -0.3648   -5.9121 H   0  0  0  0  0  0  0  0  0  0  0  0
    2.9351    0.6640   -7.1439 H   0  0  0  0  0  0  0  0  0  0  0  0
  1  2  2  0  0  0  0
  1  3  1  0  0  0  0
  1  7  1  0  0  0  0
  3  4  1  0  0  0  0
  3  5  1  0  0  0  0
  3  6  1  0  0  0  0
  7  8  1  0  0  0  0
  7 12  1  0  0  0  0
  8  9  1  0  0  0  0
  8 11  1  0  0  0  0
  8 13  1  0  0  0  0
  9 10  2  0  0  0  0
  9 17  1  0  0  0  0
 11 14  1  0  0  0  0
 11 15  1  0  0  0  0
 11 16  1  0  0  0  0
 17 18  1  0  0  0  0
 17 27  1  0  0  0  0
 18 19  1  0  0  0  0
 18 21  1  0  0  0  0
 18 28  1  0  0  0  0
 19 20  2  0  0  0  0
 19 35  1  0  0  0  0
 21 22  1  0  0  0  0
 21 29  1  0  0  0  0
 21 30  1  0  0  0  0
 22 23  1  0  0  0  0
 22 24  2  0  0  0  0
 23 25  2  0  0  0  0
 23 31  1  0  0  0  0
 24 26  1  0  0  0  0
 24 32  1  0  0  0  0
 25 26  1  0  0  0  0
 25 33  1  0  0  0  0
 26 34  1  0  0  0  0
 35 36  1  0  0  0  0
 35 40  1  0  0  0  0
 36 37  1  0  0  0  0
 36 39  1  0  0  0  0
 36 41  1  0  0  0  0
 37 38  2  0  0  0  0
 37 45  1  0  0  0  0
 39 42  1  0  0  0  0
 39 43  1  0  0  0  0
 39 44  1  0  0  0  0
 45 46  1  0  0  0  0
 45 47  1  0  0  0  0
 46 48  1  0  0  0  0
 46 49  1  0  0  0  0
 46 50  1  0  0  0  0
M  CHG  1  23   1
M  END
$$$$

  -OEChem-05262216443D

 50 50  0     1  0  0  0  0  0999 V2000
   -1.9278   -0.4241    4.5552 C   0  0  0  0  0  0  0  0  0  0  0  0
   -2.2241   -1.2439    3.6933 O   0  0  0  0  0  0  0  0  0  0  0  0
   -1.7604   -0.8697    5.9950 C   0  0  0  0  0  0  0  0  0  0  0  0
   -2.0493   -1.9186    6.1046 H   0  0  0  0  0  0  0  0  0  0  0  0
   -0.7177   -0.7560    6.3024 H   0  0  0  0  0  0  0  0  0  0  0  0
   -2.3930   -0.2641    6.6491 H   0  0  0  0  0  0  0  0  0  0  0  0
   -1.7113    0.8985    4.2253 N   0  0  0  0  0  0  0  0  0  0  0  0
   -1.7609    1.4271    2.8534 C   0  0  2  0  0  0  0  0  0  0  0  0
   -0.5043    1.1159    2.0039 C   0  0  0  0  0  0  0  0  0  0  0  0
    0.4657    0.5412    2.4905 O   0  0  0  0  0  0  0  0  0  0  0  0
   -1.9762    2.9398    2.9572 C   0  0  0  0  0  0  0  0  0  0  0  0
   -1.3406    1.4966    4.9593 H   0  0  0  0  0  0  0  0  0  0  0  0
   -2.6233    0.9923    2.3368 H   0  0  0  0  0  0  0  0  0  0  0  0
   -1.1213    3.4182    3.4465 H   0  0  0  0  0  0  0  0  0  0  0  0
   -2.0969    3.3820    1.9633 H   0  0  0  0  0  0  0  0  0  0  0  0
   -2.8781    3.1572    3.5388 H   0  0  0  0  0  0  0  0  0  0  0  0
   -0.4946    1.3977    0.6457 N   0  0  0  0  0  0  0  0  0  0  0  0
    0.5339    0.9265   -0.2989 C   0  0  2  0  0  0  0  0  0  0  0  0
    0.7066    1.9339   -1.4476 C   0  0  0  0  0  0  0  0  0  0  0  0
   -0.2834    2.3011   -2.0682 O   0  0  0  0  0  0  0  0  0  0  0  0
    0.1118   -0.4264   -0.9165 C   0  0  0  0  0  0  0  0  0  0  0  0
    0.0260   -1.4913    0.1439 C   0  0  0  0  0  0  0  0  0  0  0  0
    1.0804   -2.1465    0.7785 N   0  3  0  0  0  0  0  0  0  0  0  0
   -1.1374   -1.9087    0.7340 C   0  0  0  0  0  0  0  0  0  0  0  0
    0.6221   -2.8603    1.7784 C   0  0  0  0  0  0  0  0  0  0  0  0
   -0.7665   -2.7553    1.7655 N   0  0  0  0  0  0  0  0  0  0  0  0
   -1.2902    1.9050    0.2575 H   0  0  0  0  0  0  0  0  0  0  0  0
    1.4988    0.8237    0.2080 H   0  0  0  0  0  0  0  0  0  0  0  0
    0.8304   -0.7334   -1.6852 H   0  0  0  0  0  0  0  0  0  0  0  0
   -0.8593   -0.3121   -1.4119 H   0  0  0  0  0  0  0  0  0  0  0  0
    2.0614   -1.9404    0.5793 H   0  0  0  0  0  0  0  0  0  0  0  0
   -2.1439   -1.5575    0.5128 H   0  0  0  0  0  0  0  0  0  0  0  0
    1.2185   -3.3978    2.5159 H   0  0  0  0  0  0  0  0  0  0  0  0
   -1.3859   -2.9918    2.5505 H   0  0  0  0  0  0  0  0  0  0  0  0
    1.9709    2.3002   -1.8671 N   0  0  0  0  0  0  0  0  0  0  0  0
    2.2183    2.6137   -3.2812 C   0  0  2  0  0  0  0  0  0  0  0  0
    2.3412    1.3208   -4.1204 C   0  0  0  0  0  0  0  0  0  0  0  0
    2.5230    0.2427   -3.5586 O   0  0  0  0  0  0  0  0  0  0  0  0
    3.5043    3.4399   -3.3628 C   0  0  0  0  0  0  0  0  0  0  0  0
    2.7316    1.8272   -1.3868 H   0  0  0  0  0  0  0  0  0  0  0  0
    1.3954    3.2124   -3.6875 H   0  0  0  0  0  0  0  0  0  0  0  0
    4.3563    2.8661   -2.9837 H   0  0  0  0  0  0  0  0  0  0  0  0
    3.7118    3.7247   -4.3990 H   0  0  0  0  0  0  0  0  0  0  0  0
    3.4067    4.3540   -2.7684 H   0  0  0  0  0  0  0  0  0  0  0  0
    2.2321    1.3586   -5.4971 N   0  0  0  0  0  0  0  0  0  0  0  0
    2.2888    0.1679   -6.3376 C   0  0  0  0  0  0  0  0  0  0  0  0
    2.0301    2.2551   -5.9317 H   0  0  0  0  0  0  0  0  0  0  0  0
    3.2390   -0.3579   -6.1958 H   0  0  0  0  0  0  0  0  0  0  0  0
    1.4681   -0.5143   -6.0915 H   0  0  0  0  0  0  0  0  0  0  0  0
    2.2035    0.4438   -7.3933 H   0  0  0  0  0  0  0  0  0  0  0  0
  1  2  2  0  0  0  0
  1  3  1  0  0  0  0
  1  7  1  0  0  0  0
  3  4  1  0  0  0  0
  3  5  1  0  0  0  0
  3  6  1  0  0  0  0
  7  8  1  0  0  0  0
  7 12  1  0  0  0  0
  8  9  1  0  0  0  0
  8 11  1  0  0  0  0
  8 13  1  0  0  0  0
  9 10  2  0  0  0  0
  9 17  1  0  0  0  0
 11 14  1  0  0  0  0
 11 15  1  0  0  0  0
 11 16  1  0  0  0  0
 17 18  1  0  0  0  0
 17 27  1  0  0  0  0
 18 19  1  0  0  0  0
 18 21  1  0  0  0  0
 18 28  1  0  0  0  0
 19 20  2  0  0  0  0
 19 35  1  0  0  0  0
 21 22  1  0  0  0  0
 21 29  1  0  0  0  0
 21 30  1  0  0  0  0
 22 23  1  0  0  0  0
 22 24  2  0  0  0  0
 23 25  2  0  0  0  0
 23 31  1  0  0  0  0
 24 26  1  0  0  0  0
 24 32  1  0  0  0  0
 25 26  1  0  0  0  0
 25 33  1  0  0  0  0
 26 34  1  0  0  0  0
 35 36  1  0  0  0  0
 35 40  1  0  0  0  0
 36 37  1  0  0  0  0
 36 39  1  0  0  0  0
 36 41  1  0  0  0  0
 37 38  2  0  0  0  0
 37 45  1  0  0  0  0
 39 42  1  0  0  0  0
 39 43  1  0  0  0  0
 39 44  1  0  0  0  0
 45 46  1  0  0  0  0
 45 47  1  0  0  0  0
 46 48  1  0  0  0  0
 46 49  1  0  0  0  0
 46 50  1  0  0  0  0
M  CHG  1  23   1
M  END
$$$$

  -OEChem-05262216443D

 50 50  0     1  0  0  0  0  0999 V2000
   -2.0321   -0.3473    4.5243 C   0  0  0  0  0  0  0  0  0  0  0  0
   -2.3259   -1.1553    3.6503 O   0  0  0  0  0  0  0  0  0  0  0  0
   -1.9807   -0.7894    5.9742 C   0  0  0  0  0  0  0  0  0  0  0  0
   -2.3818   -1.8014    6.0767 H   0  0  0  0  0  0  0  0  0  0  0  0
   -0.9482   -0.7793    6.3316 H   0  0  0  0  0  0  0  0  0  0  0  0
   -2.5773   -0.1139    6.5926 H   0  0  0  0  0  0  0  0  0  0  0  0
   -1.7190    0.9575    4.2006 N   0  0  0  0  0  0  0  0  0  0  0  0
   -1.6838    1.4841    2.8276 C   0  0  2  0  0  0  0  0  0  0  0  0
   -0.4224    1.0882    2.0210 C   0  0  0  0  0  0  0  0  0  0  0  0
    0.4986    0.4650    2.5423 O   0  0  0  0  0  0  0  0  0  0  0  0
   -1.8021    3.0079    2.9249 C   0  0  0  0  0  0  0  0  0  0  0  0
   -1.3610    1.5428    4.9511 H   0  0  0  0  0  0  0  0  0  0  0  0
   -2.5551    1.1066    2.2814 H   0  0  0  0  0  0  0  0  0  0  0  0
   -0.9316    3.4299    3.4380 H   0  0  0  0  0  0  0  0  0  0  0  0
   -1.8658    3.4547    1.9277 H   0  0  0  0  0  0  0  0  0  0  0  0
   -2.7038    3.2853    3.4806 H   0  0  0  0  0  0  0  0  0  0  0  0
   -0.3605    1.3470    0.6601 N   0  0  0  0  0  0  0  0  0  0  0  0
    0.6790    0.8318   -0.2491 C   0  0  2  0  0  0  0  0  0  0  0  0
    0.9103    1.8222   -1.4044 C   0  0  0  0  0  0  0  0  0  0  0  0
   -0.0522    2.4103   -1.8827 O   0  0  0  0  0  0  0  0  0  0  0  0
    0.2148   -0.5073   -0.8666 C   0  0  0  0  0  0  0  0  0  0  0  0
    0.0523   -1.5576    0.2001 C   0  0  0  0  0  0  0  0  0  0  0  0
    1.0542   -2.2560    0.8737 N   0  3  0  0  0  0  0  0  0  0  0  0
   -1.1473   -1.9149    0.7568 C   0  0  0  0  0  0  0  0  0  0  0  0
    0.5311   -2.9376    1.8645 C   0  0  0  0  0  0  0  0  0  0  0  0
   -0.8498   -2.7675    1.8067 N   0  0  0  0  0  0  0  0  0  0  0  0
   -1.0927    1.9275    0.2490 H   0  0  0  0  0  0  0  0  0  0  0  0
    1.6261    0.7018    0.2847 H   0  0  0  0  0  0  0  0  0  0  0  0
    0.9373   -0.8561   -1.6126 H   0  0  0  0  0  0  0  0  0  0  0  0
   -0.7359   -0.3535   -1.3899 H   0  0  0  0  0  0  0  0  0  0  0  0
    2.0498   -2.0941    0.7103 H   0  0  0  0  0  0  0  0  0  0  0  0
   -2.1289   -1.5189    0.5008 H   0  0  0  0  0  0  0  0  0  0  0  0
    1.0774   -3.4945    2.6260 H   0  0  0  0  0  0  0  0  0  0  0  0
   -1.5047   -2.9672    2.5729 H   0  0  0  0  0  0  0  0  0  0  0  0
    2.1529    1.9201   -2.0011 N   0  0  0  0  0  0  0  0  0  0  0  0
    2.2831    2.2962   -3.4164 C   0  0  2  0  0  0  0  0  0  0  0  0
    2.0566    1.0772   -4.3391 C   0  0  0  0  0  0  0  0  0  0  0  0
    2.1083   -0.0584   -3.8730 O   0  0  0  0  0  0  0  0  0  0  0  0
    3.6840    2.8780   -3.6198 C   0  0  0  0  0  0  0  0  0  0  0  0
    2.8483    1.2636   -1.6574 H   0  0  0  0  0  0  0  0  0  0  0  0
    1.5480    3.0657   -3.6774 H   0  0  0  0  0  0  0  0  0  0  0  0
    4.4496    2.1305   -3.3875 H   0  0  0  0  0  0  0  0  0  0  0  0
    3.8185    3.2005   -4.6571 H   0  0  0  0  0  0  0  0  0  0  0  0
    3.8330    3.7449   -2.9679 H   0  0  0  0  0  0  0  0  0  0  0  0
    1.7900    1.2490   -5.6838 N   0  0  0  0  0  0  0  0  0  0  0  0
    1.5351    0.1422   -6.5992 C   0  0  0  0  0  0  0  0  0  0  0  0
    1.7109    2.2005   -6.0327 H   0  0  0  0  0  0  0  0  0  0  0  0
    2.3922   -0.5391   -6.6270 H   0  0  0  0  0  0  0  0  0  0  0  0
    0.6483   -0.4190   -6.2858 H   0  0  0  0  0  0  0  0  0  0  0  0
    1.3642    0.5197   -7.6122 H   0  0  0  0  0  0  0  0  0  0  0  0
  1  2  2  0  0  0  0
  1  3  1  0  0  0  0
  1  7  1  0  0  0  0
  3  4  1  0  0  0  0
  3  5  1  0  0  0  0
  3  6  1  0  0  0  0
  7  8  1  0  0  0  0
  7 12  1  0  0  0  0
  8  9  1  0  0  0  0
  8 11  1  0  0  0  0
  8 13  1  0  0  0  0
  9 10  2  0  0  0  0
  9 17  1  0  0  0  0
 11 14  1  0  0  0  0
 11 15  1  0  0  0  0
 11 16  1  0  0  0  0
 17 18  1  0  0  0  0
 17 27  1  0  0  0  0
 18 19  1  0  0  0  0
 18 21  1  0  0  0  0
 18 28  1  0  0  0  0
 19 20  2  0  0  0  0
 19 35  1  0  0  0  0
 21 22  1  0  0  0  0
 21 29  1  0  0  0  0
 21 30  1  0  0  0  0
 22 23  1  0  0  0  0
 22 24  2  0  0  0  0
 23 25  2  0  0  0  0
 23 31  1  0  0  0  0
 24 26  1  0  0  0  0
 24 32  1  0  0  0  0
 25 26  1  0  0  0  0
 25 33  1  0  0  0  0
 26 34  1  0  0  0  0
 35 36  1  0  0  0  0
 35 40  1  0  0  0  0
 36 37  1  0  0  0  0
 36 39  1  0  0  0  0
 36 41  1  0  0  0  0
 37 38  2  0  0  0  0
 37 45  1  0  0  0  0
 39 42  1  0  0  0  0
 39 43  1  0  0  0  0
 39 44  1  0  0  0  0
 45 46  1  0  0  0  0
 45 47  1  0  0  0  0
 46 48  1  0  0  0  0
 46 49  1  0  0  0  0
 46 50  1  0  0  0  0
M  CHG  1  23   1
M  END
$$$$

  -OEChem-05262216443D

 50 50  0     1  0  0  0  0  0999 V2000
   -2.1099   -0.2755    4.4606 C   0  0  0  0  0  0  0  0  0  0  0  0
   -2.3957   -1.0799    3.5807 O   0  0  0  0  0  0  0  0  0  0  0  0
   -2.1334   -0.7092    5.9137 C   0  0  0  0  0  0  0  0  0  0  0  0
   -2.5193   -1.7287    5.9995 H   0  0  0  0  0  0  0  0  0  0  0  0
   -1.1233   -0.6775    6.3296 H   0  0  0  0  0  0  0  0  0  0  0  0
   -2.7784   -0.0427    6.4920 H   0  0  0  0  0  0  0  0  0  0  0  0
   -1.7392    1.0156    4.1420 N   0  0  0  0  0  0  0  0  0  0  0  0
   -1.6260    1.5282    2.7675 C   0  0  2  0  0  0  0  0  0  0  0  0
   -0.3583    1.0604    2.0105 C   0  0  0  0  0  0  0  0  0  0  0  0
    0.5106    0.3960    2.5696 O   0  0  0  0  0  0  0  0  0  0  0  0
   -1.6722    3.0572    2.8477 C   0  0  0  0  0  0  0  0  0  0  0  0
   -1.3975    1.5959    4.9039 H   0  0  0  0  0  0  0  0  0  0  0  0
   -2.4942    1.1895    2.1921 H   0  0  0  0  0  0  0  0  0  0  0  0
   -0.8069    3.4405    3.3983 H   0  0  0  0  0  0  0  0  0  0  0  0
   -1.6668    3.4974    1.8455 H   0  0  0  0  0  0  0  0  0  0  0  0
   -2.5839    3.3844    3.3582 H   0  0  0  0  0  0  0  0  0  0  0  0
   -0.2380    1.2977    0.6496 N   0  0  0  0  0  0  0  0  0  0  0  0
    0.8242    0.7478   -0.2137 C   0  0  2  0  0  0  0  0  0  0  0  0
    1.1167    1.7232   -1.3728 C   0  0  0  0  0  0  0  0  0  0  0  0
    0.2449    2.5104   -1.7236 O   0  0  0  0  0  0  0  0  0  0  0  0
    0.3388   -0.5837   -0.8342 C   0  0  0  0  0  0  0  0  0  0  0  0
    0.1015   -1.6170    0.2355 C   0  0  0  0  0  0  0  0  0  0  0  0
    1.0428   -2.3477    0.9607 N   0  3  0  0  0  0  0  0  0  0  0  0
   -1.1352   -1.9199    0.7401 C   0  0  0  0  0  0  0  0  0  0  0  0
    0.4476   -2.9909    1.9368 C   0  0  0  0  0  0  0  0  0  0  0  0
   -0.9212   -2.7676    1.8134 N   0  0  0  0  0  0  0  0  0  0  0  0
   -0.8959    1.9482    0.2174 H   0  0  0  0  0  0  0  0  0  0  0  0
    1.7487    0.6010    0.3542 H   0  0  0  0  0  0  0  0  0  0  0  0
    1.0768   -0.9679   -1.5464 H   0  0  0  0  0  0  0  0  0  0  0  0
   -0.5848   -0.4052   -1.3966 H   0  0  0  0  0  0  0  0  0  0  0  0
    2.0504   -2.2227    0.8478 H   0  0  0  0  0  0  0  0  0  0  0  0
   -2.0866   -1.4873    0.4352 H   0  0  0  0  0  0  0  0  0  0  0  0
    0.9350   -3.5542    2.7328 H   0  0  0  0  0  0  0  0  0  0  0  0
   -1.6157   -2.9223    2.5548 H   0  0  0  0  0  0  0  0  0  0  0  0
    2.2657    1.5885   -2.1306 N   0  0  0  0  0  0  0  0  0  0  0  0
    2.2926    2.0016   -3.5421 C   0  0  2  0  0  0  0  0  0  0  0  0
    1.6879    0.9089   -4.4524 C   0  0  0  0  0  0  0  0  0  0  0  0
    1.5790   -0.2411   -4.0339 O   0  0  0  0  0  0  0  0  0  0  0  0
    3.7474    2.2825   -3.9262 C   0  0  0  0  0  0  0  0  0  0  0  0
    2.8458    0.7876   -1.8982 H   0  0  0  0  0  0  0  0  0  0  0  0
    1.7164    2.9230   -3.6822 H   0  0  0  0  0  0  0  0  0  0  0  0
    4.3560    1.3782   -3.8232 H   0  0  0  0  0  0  0  0  0  0  0  0
    3.8102    2.6253   -4.9639 H   0  0  0  0  0  0  0  0  0  0  0  0
    4.1665    3.0613   -3.2811 H   0  0  0  0  0  0  0  0  0  0  0  0
    1.2625    1.2092   -5.7321 N   0  0  0  0  0  0  0  0  0  0  0  0
    0.6551    0.2276   -6.6240 C   0  0  0  0  0  0  0  0  0  0  0  0
    1.3218    2.1774   -6.0364 H   0  0  0  0  0  0  0  0  0  0  0  0
    1.3447   -0.6030   -6.8082 H   0  0  0  0  0  0  0  0  0  0  0  0
   -0.2662   -0.1707   -6.1860 H   0  0  0  0  0  0  0  0  0  0  0  0
    0.4089    0.6897   -7.5850 H   0  0  0  0  0  0  0  0  0  0  0  0
  1  2  2  0  0  0  0
  1  3  1  0  0  0  0
  1  7  1  0  0  0  0
  3  4  1  0  0  0  0
  3  5  1  0  0  0  0
  3  6  1  0  0  0  0
  7  8  1  0  0  0  0
  7 12  1  0  0  0  0
  8  9  1  0  0  0  0
  8 11  1  0  0  0  0
  8 13  1  0  0  0  0
  9 10  2  0  0  0  0
  9 17  1  0  0  0  0
 11 14  1  0  0  0  0
 11 15  1  0  0  0  0
 11 16  1  0  0  0  0
 17 18  1  0  0  0  0
 17 27  1  0  0  0  0
 18 19  1  0  0  0  0
 18 21  1  0  0  0  0
 18 28  1  0  0  0  0
 19 20  2  0  0  0  0
 19 35  1  0  0  0  0
 21 22  1  0  0  0  0
 21 29  1  0  0  0  0
 21 30  1  0  0  0  0
 22 23  1  0  0  0  0
 22 24  2  0  0  0  0
 23 25  2  0  0  0  0
 23 31  1  0  0  0  0
 24 26  1  0  0  0  0
 24 32  1  0  0  0  0
 25 26  1  0  0  0  0
 25 33  1  0  0  0  0
 26 34  1  0  0  0  0
 35 36  1  0  0  0  0
 35 40  1  0  0  0  0
 36 37  1  0  0  0  0
 36 39  1  0  0  0  0
 36 41  1  0  0  0  0
 37 38  2  0  0  0  0
 37 45  1  0  0  0  0
 39 42  1  0  0  0  0
 39 43  1  0  0  0  0
 39 44  1  0  0  0  0
 45 46  1  0  0  0  0
 45 47  1  0  0  0  0
 46 48  1  0  0  0  0
 46 49  1  0  0  0  0
 46 50  1  0  0  0  0
M  CHG  1  23   1
M  END
$$$$

  -OEChem-05262216443D

 50 50  0     1  0  0  0  0  0999 V2000
   -2.3599   -0.3860    4.1833 C   0  0  0  0  0  0  0  0  0  0  0  0
   -2.6894   -1.0191    3.1860 O   0  0  0  0  0  0  0  0  0  0  0  0
   -2.5461   -0.9977    5.5586 C   0  0  0  0  0  0  0  0  0  0  0  0
   -3.0987   -1.9384    5.4844 H   0  0  0  0  0  0  0  0  0  0  0  0
   -1.5728   -1.1935    6.0155 H   0  0  0  0  0  0  0  0  0  0  0  0
   -3.1089   -0.3135    6.1987 H   0  0  0  0  0  0  0  0  0  0  0  0
   -1.7953    0.8689    4.0690 N   0  0  0  0  0  0  0  0  0  0  0  0
   -1.5140    1.5330    2.7868 C   0  0  2  0  0  0  0  0  0  0  0  0
   -0.3188    0.9367    2.0059 C   0  0  0  0  0  0  0  0  0  0  0  0
    0.4417    0.1244    2.5266 O   0  0  0  0  0  0  0  0  0  0  0  0
   -1.2648    3.0152    3.0780 C   0  0  0  0  0  0  0  0  0  0  0  0
   -1.4303    1.2877    4.9206 H   0  0  0  0  0  0  0  0  0  0  0  0
   -2.3995    1.4504    2.1473 H   0  0  0  0  0  0  0  0  0  0  0  0
   -0.3801    3.1396    3.7111 H   0  0  0  0  0  0  0  0  0  0  0  0
   -1.1035    3.5683    2.1471 H   0  0  0  0  0  0  0  0  0  0  0  0
   -2.1266    3.4537    3.5913 H   0  0  0  0  0  0  0  0  0  0  0  0
   -0.1856    1.2024    0.6519 N   0  0  0  0  0  0  0  0  0  0  0  0
    0.9030    0.6702   -0.1892 C   0  0  2  0  0  0  0  0  0  0  0  0
    1.4787    1.7823   -1.0928 C   0  0  0  0  0  0  0  0  0  0  0  0
    0.8830    2.8502   -1.1796 O   0  0  0  0  0  0  0  0  0  0  0  0
    0.3081   -0.4683   -1.0477 C   0  0  0  0  0  0  0  0  0  0  0  0
   -0.1516   -1.5823   -0.1406 C   0  0  0  0  0  0  0  0  0  0  0  0
    0.6228   -2.5218    0.5407 N   0  3  0  0  0  0  0  0  0  0  0  0
   -1.4493   -1.7417    0.2690 C   0  0  0  0  0  0  0  0  0  0  0  0
   -0.1225   -3.1656    1.4069 C   0  0  0  0  0  0  0  0  0  0  0  0
   -1.4327   -2.7227    1.2458 N   0  0  0  0  0  0  0  0  0  0  0  0
   -0.6805    2.0197    0.2913 H   0  0  0  0  0  0  0  0  0  0  0  0
    1.7296    0.2945    0.4227 H   0  0  0  0  0  0  0  0  0  0  0  0
    1.0465   -0.8562   -1.7567 H   0  0  0  0  0  0  0  0  0  0  0  0
   -0.5314   -0.0822   -1.6373 H   0  0  0  0  0  0  0  0  0  0  0  0
    1.6433   -2.5382    0.4970 H   0  0  0  0  0  0  0  0  0  0  0  0
   -2.3010   -1.1276   -0.0198 H   0  0  0  0  0  0  0  0  0  0  0  0
    0.2249   -3.8778    2.1555 H   0  0  0  0  0  0  0  0  0  0  0  0
   -2.1870   -2.8454    1.9325 H   0  0  0  0  0  0  0  0  0  0  0  0
    2.5149    1.5070   -1.9669 N   0  0  0  0  0  0  0  0  0  0  0  0
    2.6237    2.2057   -3.2567 C   0  0  2  0  0  0  0  0  0  0  0  0
    1.7254    1.5366   -4.3212 C   0  0  0  0  0  0  0  0  0  0  0  0
    1.3087    0.3960   -4.1342 O   0  0  0  0  0  0  0  0  0  0  0  0
    4.0918    2.1758   -3.6878 C   0  0  0  0  0  0  0  0  0  0  0  0
    2.8290    0.5411   -1.9711 H   0  0  0  0  0  0  0  0  0  0  0  0
    2.3164    3.2525   -3.1551 H   0  0  0  0  0  0  0  0  0  0  0  0
    4.4326    1.1446   -3.8256 H   0  0  0  0  0  0  0  0  0  0  0  0
    4.2249    2.7136   -4.6317 H   0  0  0  0  0  0  0  0  0  0  0  0
    4.7198    2.6531   -2.9288 H   0  0  0  0  0  0  0  0  0  0  0  0
    1.3776    2.2063   -5.4785 N   0  0  0  0  0  0  0  0  0  0  0  0
    0.5012    1.6410   -6.4987 C   0  0  0  0  0  0  0  0  0  0  0  0
    1.6973    3.1653   -5.5853 H   0  0  0  0  0  0  0  0  0  0  0  0
    0.9138    0.7022   -6.8836 H   0  0  0  0  0  0  0  0  0  0  0  0
   -0.4933    1.4446   -6.0843 H   0  0  0  0  0  0  0  0  0  0  0  0
    0.3948    2.3380   -7.3359 H   0  0  0  0  0  0  0  0  0  0  0  0
  1  2  2  0  0  0  0
  1  3  1  0  0  0  0
  1  7  1  0  0  0  0
  3  4  1  0  0  0  0
  3  5  1  0  0  0  0
  3  6  1  0  0  0  0
  7  8  1  0  0  0  0
  7 12  1  0  0  0  0
  8  9  1  0  0  0  0
  8 11  1  0  0  0  0
  8 13  1  0  0  0  0
  9 10  2  0  0  0  0
  9 17  1  0  0  0  0
 11 14  1  0  0  0  0
 11 15  1  0  0  0  0
 11 16  1  0  0  0  0
 17 18  1  0  0  0  0
 17 27  1  0  0  0  0
 18 19  1  0  0  0  0
 18 21  1  0  0  0  0
 18 28  1  0  0  0  0
 19 20  2  0  0  0  0
 19 35  1  0  0  0  0
 21 22  1  0  0  0  0
 21 29  1  0  0  0  0
 21 30  1  0  0  0  0
 22 23  1  0  0  0  0
 22 24  2  0  0  0  0
 23 25  2  0  0  0  0
 23 31  1  0  0  0  0
 24 26  1  0  0  0  0
 24 32  1  0  0  0  0
 25 26  1  0  0  0  0
 25 33  1  0  0  0  0
 26 34  1  0  0  0  0
 35 36  1  0  0  0  0
 35 40  1  0  0  0  0
 36 37  1  0  0  0  0
 36 39  1  0  0  0  0
 36 41  1  0  0  0  0
 37 38  2  0  0  0  0
 37 45  1  0  0  0  0
 39 42  1  0  0  0  0
 39 43  1  0  0  0  0
 39 44  1  0  0  0  0
 45 46  1  0  0  0  0
 45 47  1  0  0  0  0
 46 48  1  0  0  0  0
 46 49  1  0  0  0  0
 46 50  1  0  0  0  0
M  CHG  1  23   1
M  END
$$$$

  -OEChem-05262216443D

 50 50  0     1  0  0  0  0  0999 V2000
   -2.3827   -0.2732    4.1376 C   0  0  0  0  0  0  0  0  0  0  0  0
   -2.7321   -0.9085    3.1486 O   0  0  0  0  0  0  0  0  0  0  0  0
   -2.6132   -0.8469    5.5221 C   0  0  0  0  0  0  0  0  0  0  0  0
   -3.1554   -1.7939    5.4562 H   0  0  0  0  0  0  0  0  0  0  0  0
   -1.6555   -1.0215    6.0185 H   0  0  0  0  0  0  0  0  0  0  0  0
   -3.2025   -0.1481    6.1213 H   0  0  0  0  0  0  0  0  0  0  0  0
   -1.7569    0.9506    4.0077 N   0  0  0  0  0  0  0  0  0  0  0  0
   -1.4266    1.5771    2.7183 C   0  0  2  0  0  0  0  0  0  0  0  0
   -0.2571    0.9045    1.9601 C   0  0  0  0  0  0  0  0  0  0  0  0
    0.4493    0.0588    2.5037 O   0  0  0  0  0  0  0  0  0  0  0  0
   -1.1002    3.0473    2.9941 C   0  0  0  0  0  0  0  0  0  0  0  0
   -1.3807    1.3657    4.8563 H   0  0  0  0  0  0  0  0  0  0  0  0
   -2.3088    1.5330    2.0704 H   0  0  0  0  0  0  0  0  0  0  0  0
   -0.2155    3.1311    3.6339 H   0  0  0  0  0  0  0  0  0  0  0  0
   -0.9018    3.5799    2.0585 H   0  0  0  0  0  0  0  0  0  0  0  0
   -1.9410    3.5376    3.4954 H   0  0  0  0  0  0  0  0  0  0  0  0
   -0.0897    1.1446    0.6043 N   0  0  0  0  0  0  0  0  0  0  0  0
    0.9928    0.5499   -0.2041 C   0  0  2  0  0  0  0  0  0  0  0  0
    1.6355    1.6246   -1.1143 C   0  0  0  0  0  0  0  0  0  0  0  0
    1.2362    2.7816   -1.0453 O   0  0  0  0  0  0  0  0  0  0  0  0
    0.3568   -0.5840   -1.0433 C   0  0  0  0  0  0  0  0  0  0  0  0
   -0.1658   -1.6541   -0.1174 C   0  0  0  0  0  0  0  0  0  0  0  0
    0.5535   -2.6119    0.5983 N   0  3  0  0  0  0  0  0  0  0  0  0
   -1.4776   -1.7502    0.2667 C   0  0  0  0  0  0  0  0  0  0  0  0
   -0.2363   -3.2012    1.4642 C   0  0  0  0  0  0  0  0  0  0  0  0
   -1.5229   -2.7079    1.2655 N   0  0  0  0  0  0  0  0  0  0  0  0
   -0.5137    1.9978    0.2369 H   0  0  0  0  0  0  0  0  0  0  0  0
    1.7916    0.1510    0.4296 H   0  0  0  0  0  0  0  0  0  0  0  0
    1.0830   -1.0263   -1.7316 H   0  0  0  0  0  0  0  0  0  0  0  0
   -0.4567   -0.1753   -1.6545 H   0  0  0  0  0  0  0  0  0  0  0  0
    1.5738   -2.6650    0.5848 H   0  0  0  0  0  0  0  0  0  0  0  0
   -2.2970   -1.1096   -0.0559 H   0  0  0  0  0  0  0  0  0  0  0  0
    0.0652   -3.9059    2.2393 H   0  0  0  0  0  0  0  0  0  0  0  0
   -2.2935   -2.7793    1.9414 H   0  0  0  0  0  0  0  0  0  0  0  0
    2.4510    1.2588   -2.1713 N   0  0  0  0  0  0  0  0  0  0  0  0
    2.4557    2.0247   -3.4273 C   0  0  2  0  0  0  0  0  0  0  0  0
    1.2876    1.5869   -4.3395 C   0  0  0  0  0  0  0  0  0  0  0  0
    0.7276    0.5125   -4.1345 O   0  0  0  0  0  0  0  0  0  0  0  0
    3.8002    1.7900   -4.1201 C   0  0  0  0  0  0  0  0  0  0  0  0
    2.5911    0.2590   -2.2788 H   0  0  0  0  0  0  0  0  0  0  0  0
    2.3551    3.0972   -3.2266 H   0  0  0  0  0  0  0  0  0  0  0  0
    3.9299    0.7302   -4.3627 H   0  0  0  0  0  0  0  0  0  0  0  0
    3.8586    2.3671   -5.0485 H   0  0  0  0  0  0  0  0  0  0  0  0
    4.6225    2.1027   -3.4685 H   0  0  0  0  0  0  0  0  0  0  0  0
    0.8630    2.3874   -5.3823 N   0  0  0  0  0  0  0  0  0  0  0  0
   -0.2417    2.0327   -6.2666 C   0  0  0  0  0  0  0  0  0  0  0  0
    1.3207    3.2866   -5.5067 H   0  0  0  0  0  0  0  0  0  0  0  0
   -0.0279    1.0955   -6.7912 H   0  0  0  0  0  0  0  0  0  0  0  0
   -1.1686    1.9129   -5.6958 H   0  0  0  0  0  0  0  0  0  0  0  0
   -0.3960    2.8178   -7.0133 H   0  0  0  0  0  0  0  0  0  0  0  0
  1  2  2  0  0  0  0
  1  3  1  0  0  0  0
  1  7  1  0  0  0  0
  3  4  1  0  0  0  0
  3  5  1  0  0  0  0
  3  6  1  0  0  0  0
  7  8  1  0  0  0  0
  7 12  1  0  0  0  0
  8  9  1  0  0  0  0
  8 11  1  0  0  0  0
  8 13  1  0  0  0  0
  9 10  2  0  0  0  0
  9 17  1  0  0  0  0
 11 14  1  0  0  0  0
 11 15  1  0  0  0  0
 11 16  1  0  0  0  0
 17 18  1  0  0  0  0
 17 27  1  0  0  0  0
 18 19  1  0  0  0  0
 18 21  1  0  0  0  0
 18 28  1  0  0  0  0
 19 20  2  0  0  0  0
 19 35  1  0  0  0  0
 21 22  1  0  0  0  0
 21 29  1  0  0  0  0
 21 30  1  0  0  0  0
 22 23  1  0  0  0  0
 22 24  2  0  0  0  0
 23 25  2  0  0  0  0
 23 31  1  0  0  0  0
 24 26  1  0  0  0  0
 24 32  1  0  0  0  0
 25 26  1  0  0  0  0
 25 33  1  0  0  0  0
 26 34  1  0  0  0  0
 35 36  1  0  0  0  0
 35 40  1  0  0  0  0
 36 37  1  0  0  0  0
 36 39  1  0  0  0  0
 36 41  1  0  0  0  0
 37 38  2  0  0  0  0
 37 45  1  0  0  0  0
 39 42  1  0  0  0  0
 39 43  1  0  0  0  0
 39 44  1  0  0  0  0
 45 46  1  0  0  0  0
 45 47  1  0  0  0  0
 46 48  1  0  0  0  0
 46 49  1  0  0  0  0
 46 50  1  0  0  0  0
M  CHG  1  23   1
M  END
$$$$

  -OEChem-05262216443D

 50 50  0     1  0  0  0  0  0999 V2000
   -2.3936   -0.1270    4.0836 C   0  0  0  0  0  0  0  0  0  0  0  0
   -2.7680   -0.7766    3.1132 O   0  0  0  0  0  0  0  0  0  0  0  0
   -2.6269   -0.6652    5.4823 C   0  0  0  0  0  0  0  0  0  0  0  0
   -3.2775   -1.5436    5.4476 H   0  0  0  0  0  0  0  0  0  0  0  0
   -1.6739   -0.9474    5.9365 H   0  0  0  0  0  0  0  0  0  0  0  0
   -3.1047    0.0976    6.1022 H   0  0  0  0  0  0  0  0  0  0  0  0
   -1.7213    1.0679    3.9187 N   0  0  0  0  0  0  0  0  0  0  0  0
   -1.3513    1.6308    2.6108 C   0  0  2  0  0  0  0  0  0  0  0  0
   -0.2138    0.8703    1.8883 C   0  0  0  0  0  0  0  0  0  0  0  0
    0.4529    0.0202    2.4742 O   0  0  0  0  0  0  0  0  0  0  0  0
   -0.9482    3.0911    2.8327 C   0  0  0  0  0  0  0  0  0  0  0  0
   -1.3186    1.4855    4.7535 H   0  0  0  0  0  0  0  0  0  0  0  0
   -2.2304    1.6098    1.9579 H   0  0  0  0  0  0  0  0  0  0  0  0
   -0.0622    3.1527    3.4733 H   0  0  0  0  0  0  0  0  0  0  0  0
   -0.7186    3.5772    1.8788 H   0  0  0  0  0  0  0  0  0  0  0  0
   -1.7639    3.6437    3.3099 H   0  0  0  0  0  0  0  0  0  0  0  0
   -0.0304    1.0462    0.5249 N   0  0  0  0  0  0  0  0  0  0  0  0
    1.0394    0.3824   -0.2461 C   0  0  2  0  0  0  0  0  0  0  0  0
    1.7141    1.4075   -1.1921 C   0  0  0  0  0  0  0  0  0  0  0  0
    1.5494    2.6036   -0.9819 O   0  0  0  0  0  0  0  0  0  0  0  0
    0.3789   -0.7814   -1.0246 C   0  0  0  0  0  0  0  0  0  0  0  0
   -0.1719   -1.7876   -0.0452 C   0  0  0  0  0  0  0  0  0  0  0  0
    0.5192   -2.7232    0.7258 N   0  3  0  0  0  0  0  0  0  0  0  0
   -1.4879   -1.8310    0.3332 C   0  0  0  0  0  0  0  0  0  0  0  0
   -0.2907   -3.2450    1.6162 C   0  0  0  0  0  0  0  0  0  0  0  0
   -1.5637   -2.7324    1.3810 N   0  0  0  0  0  0  0  0  0  0  0  0
   -0.4079    1.9076    0.1281 H   0  0  0  0  0  0  0  0  0  0  0  0
    1.8260   -0.0030    0.4111 H   0  0  0  0  0  0  0  0  0  0  0  0
    1.0981   -1.2805   -1.6805 H   0  0  0  0  0  0  0  0  0  0  0  0
   -0.4242   -0.3872   -1.6589 H   0  0  0  0  0  0  0  0  0  0  0  0
    1.5382   -2.7974    0.7273 H   0  0  0  0  0  0  0  0  0  0  0  0
   -2.2888   -1.1880   -0.0288 H   0  0  0  0  0  0  0  0  0  0  0  0
   -0.0113   -3.9128    2.4314 H   0  0  0  0  0  0  0  0  0  0  0  0
   -2.3421   -2.7511    2.0511 H   0  0  0  0  0  0  0  0  0  0  0  0
    2.2691    1.0155   -2.3988 N   0  0  0  0  0  0  0  0  0  0  0  0
    2.2089    1.8898   -3.5804 C   0  0  2  0  0  0  0  0  0  0  0  0
    0.8513    1.7381   -4.3031 C   0  0  0  0  0  0  0  0  0  0  0  0
    0.1467    0.7583   -4.0717 O   0  0  0  0  0  0  0  0  0  0  0  0
    3.3642    1.5083   -4.5091 C   0  0  0  0  0  0  0  0  0  0  0  0
    2.1948    0.0238   -2.6013 H   0  0  0  0  0  0  0  0  0  0  0  0
    2.3316    2.9398   -3.2922 H   0  0  0  0  0  0  0  0  0  0  0  0
    3.2641    0.4710   -4.8447 H   0  0  0  0  0  0  0  0  0  0  0  0
    3.3774    2.1571   -5.3906 H   0  0  0  0  0  0  0  0  0  0  0  0
    4.3212    1.6159   -3.9883 H   0  0  0  0  0  0  0  0  0  0  0  0
    0.4182    2.6901   -5.2059 N   0  0  0  0  0  0  0  0  0  0  0  0
   -0.8618    2.6126   -5.9016 C   0  0  0  0  0  0  0  0  0  0  0  0
    1.0057    3.5069   -5.3517 H   0  0  0  0  0  0  0  0  0  0  0  0
   -0.9201    1.6965   -6.4990 H   0  0  0  0  0  0  0  0  0  0  0  0
   -1.6902    2.6193   -5.1852 H   0  0  0  0  0  0  0  0  0  0  0  0
   -0.9804    3.4684   -6.5734 H   0  0  0  0  0  0  0  0  0  0  0  0
  1  2  2  0  0  0  0
  1  3  1  0  0  0  0
  1  7  1  0  0  0  0
  3  4  1  0  0  0  0
  3  5  1  0  0  0  0
  3  6  1  0  0  0  0
  7  8  1  0  0  0  0
  7 12  1  0  0  0  0
  8  9  1  0  0  0  0
  8 11  1  0  0  0  0
  8 13  1  0  0  0  0
  9 10  2  0  0  0  0
  9 17  1  0  0  0  0
 11 14  1  0  0  0  0
 11 15  1  0  0  0  0
 11 16  1  0  0  0  0
 17 18  1  0  0  0  0
 17 27  1  0  0  0  0
 18 19  1  0  0  0  0
 18 21  1  0  0  0  0
 18 28  1  0  0  0  0
 19 20  2  0  0  0  0
 19 35  1  0  0  0  0
 21 22  1  0  0  0  0
 21 29  1  0  0  0  0
 21 30  1  0  0  0  0
 22 23  1  0  0  0  0
 22 24  2  0  0  0  0
 23 25  2  0  0  0  0
 23 31  1  0  0  0  0
 24 26  1  0  0  0  0
 24 32  1  0  0  0  0
 25 26  1  0  0  0  0
 25 33  1  0  0  0  0
 26 34  1  0  0  0  0
 35 36  1  0  0  0  0
 35 40  1  0  0  0  0
 36 37  1  0  0  0  0
 36 39  1  0  0  0  0
 36 41  1  0  0  0  0
 37 38  2  0  0  0  0
 37 45  1  0  0  0  0
 39 42  1  0  0  0  0
 39 43  1  0  0  0  0
 39 44  1  0  0  0  0
 45 46  1  0  0  0  0
 45 47  1  0  0  0  0
 46 48  1  0  0  0  0
 46 49  1  0  0  0  0
 46 50  1  0  0  0  0
M  CHG  1  23   1
M  END
$$$$

  -OEChem-05262216443D

 50 50  0     1  0  0  0  0  0999 V2000
   -2.3586   -0.0075    4.0497 C   0  0  0  0  0  0  0  0  0  0  0  0
   -2.7369   -0.7312    3.1346 O   0  0  0  0  0  0  0  0  0  0  0  0
   -2.5818   -0.4354    5.4875 C   0  0  0  0  0  0  0  0  0  0  0  0
   -3.2372   -1.3098    5.5265 H   0  0  0  0  0  0  0  0  0  0  0  0
   -1.6265   -0.6879    5.9545 H   0  0  0  0  0  0  0  0  0  0  0  0
   -3.0499    0.3757    6.0512 H   0  0  0  0  0  0  0  0  0  0  0  0
   -1.6946    1.1748    3.7893 N   0  0  0  0  0  0  0  0  0  0  0  0
   -1.3376    1.6381    2.4398 C   0  0  2  0  0  0  0  0  0  0  0  0
   -0.1913    0.8395    1.7748 C   0  0  0  0  0  0  0  0  0  0  0  0
    0.4659    0.0216    2.4149 O   0  0  0  0  0  0  0  0  0  0  0  0
   -0.9575    3.1174    2.5460 C   0  0  0  0  0  0  0  0  0  0  0  0
   -1.2841    1.6539    4.5865 H   0  0  0  0  0  0  0  0  0  0  0  0
   -2.2184    1.5528    1.7941 H   0  0  0  0  0  0  0  0  0  0  0  0
   -0.0693    3.2420    3.1740 H   0  0  0  0  0  0  0  0  0  0  0  0
   -0.7403    3.5315    1.5561 H   0  0  0  0  0  0  0  0  0  0  0  0
   -1.7795    3.6923    2.9845 H   0  0  0  0  0  0  0  0  0  0  0  0
    0.0069    0.9384    0.4058 N   0  0  0  0  0  0  0  0  0  0  0  0
    1.0673    0.2129   -0.3199 C   0  0  2  0  0  0  0  0  0  0  0  0
    1.7646    1.1794   -1.3089 C   0  0  0  0  0  0  0  0  0  0  0  0
    1.8588    2.3625   -1.0074 O   0  0  0  0  0  0  0  0  0  0  0  0
    0.4025   -0.9934   -1.0254 C   0  0  0  0  0  0  0  0  0  0  0  0
   -0.1575   -1.9290    0.0164 C   0  0  0  0  0  0  0  0  0  0  0  0
    0.5292   -2.8144    0.8477 N   0  3  0  0  0  0  0  0  0  0  0  0
   -1.4746   -1.9426    0.3943 C   0  0  0  0  0  0  0  0  0  0  0  0
   -0.2835   -3.2707    1.7708 C   0  0  0  0  0  0  0  0  0  0  0  0
   -1.5547   -2.7711    1.5007 N   0  0  0  0  0  0  0  0  0  0  0  0
   -0.3845    1.7626   -0.0501 H   0  0  0  0  0  0  0  0  0  0  0  0
    1.8461   -0.1415    0.3638 H   0  0  0  0  0  0  0  0  0  0  0  0
    1.1260   -1.5379   -1.6396 H   0  0  0  0  0  0  0  0  0  0  0  0
   -0.3971   -0.6374   -1.6866 H   0  0  0  0  0  0  0  0  0  0  0  0
    1.5486   -2.8833    0.8625 H   0  0  0  0  0  0  0  0  0  0  0  0
   -2.2725   -1.3216   -0.0107 H   0  0  0  0  0  0  0  0  0  0  0  0
   -0.0065   -3.8795    2.6316 H   0  0  0  0  0  0  0  0  0  0  0  0
   -2.3290   -2.7336    2.1755 H   0  0  0  0  0  0  0  0  0  0  0  0
    2.0468    0.8032   -2.6118 N   0  0  0  0  0  0  0  0  0  0  0  0
    1.9496    1.7816   -3.7055 C   0  0  2  0  0  0  0  0  0  0  0  0
    0.4756    1.9859   -4.1241 C   0  0  0  0  0  0  0  0  0  0  0  0
   -0.3719    1.1608   -3.7899 O   0  0  0  0  0  0  0  0  0  0  0  0
    2.7812    1.2610   -4.8797 C   0  0  0  0  0  0  0  0  0  0  0  0
    1.7430   -0.1335   -2.8564 H   0  0  0  0  0  0  0  0  0  0  0  0
    2.3597    2.7494   -3.3958 H   0  0  0  0  0  0  0  0  0  0  0  0
    2.3894    0.3023   -5.2348 H   0  0  0  0  0  0  0  0  0  0  0  0
    2.7590    1.9734   -5.7106 H   0  0  0  0  0  0  0  0  0  0  0  0
    3.8233    1.1216   -4.5744 H   0  0  0  0  0  0  0  0  0  0  0  0
    0.0958    3.0879   -4.8654 N   0  0  0  0  0  0  0  0  0  0  0  0
   -1.2841    3.3525   -5.2575 C   0  0  0  0  0  0  0  0  0  0  0  0
    0.8093    3.7763   -5.0899 H   0  0  0  0  0  0  0  0  0  0  0  0
   -1.6866    2.5147   -5.8370 H   0  0  0  0  0  0  0  0  0  0  0  0
   -1.9121    3.5028   -4.3730 H   0  0  0  0  0  0  0  0  0  0  0  0
   -1.3366    4.2544   -5.8755 H   0  0  0  0  0  0  0  0  0  0  0  0
  1  2  2  0  0  0  0
  1  3  1  0  0  0  0
  1  7  1  0  0  0  0
  3  4  1  0  0  0  0
  3  5  1  0  0  0  0
  3  6  1  0  0  0  0
  7  8  1  0  0  0  0
  7 12  1  0  0  0  0
  8  9  1  0  0  0  0
  8 11  1  0  0  0  0
  8 13  1  0  0  0  0
  9 10  2  0  0  0  0
  9 17  1  0  0  0  0
 11 14  1  0  0  0  0
 11 15  1  0  0  0  0
 11 16  1  0  0  0  0
 17 18  1  0  0  0  0
 17 27  1  0  0  0  0
 18 19  1  0  0  0  0
 18 21  1  0  0  0  0
 18 28  1  0  0  0  0
 19 20  2  0  0  0  0
 19 35  1  0  0  0  0
 21 22  1  0  0  0  0
 21 29  1  0  0  0  0
 21 30  1  0  0  0  0
 22 23  1  0  0  0  0
 22 24  2  0  0  0  0
 23 25  2  0  0  0  0
 23 31  1  0  0  0  0
 24 26  1  0  0  0  0
 24 32  1  0  0  0  0
 25 26  1  0  0  0  0
 25 33  1  0  0  0  0
 26 34  1  0  0  0  0
 35 36  1  0  0  0  0
 35 40  1  0  0  0  0
 36 37  1  0  0  0  0
 36 39  1  0  0  0  0
 36 41  1  0  0  0  0
 37 38  2  0  0  0  0
 37 45  1  0  0  0  0
 39 42  1  0  0  0  0
 39 43  1  0  0  0  0
 39 44  1  0  0  0  0
 45 46  1  0  0  0  0
 45 47  1  0  0  0  0
 46 48  1  0  0  0  0
 46 49  1  0  0  0  0
 46 50  1  0  0  0  0
M  CHG  1  23   1
M  END
$$$$

  -OEChem-05262216443D

 50 50  0     1  0  0  0  0  0999 V2000
   -2.3023    0.1187    4.0194 C   0  0  0  0  0  0  0  0  0  0  0  0
   -2.6944   -0.6817    3.1767 O   0  0  0  0  0  0  0  0  0  0  0  0
   -2.4842   -0.1902    5.4929 C   0  0  0  0  0  0  0  0  0  0  0  0
   -3.0763   -1.1005    5.6208 H   0  0  0  0  0  0  0  0  0  0  0  0
   -1.5101   -0.3319    5.9676 H   0  0  0  0  0  0  0  0  0  0  0  0
   -3.0035    0.6358    5.9855 H   0  0  0  0  0  0  0  0  0  0  0  0
   -1.6627    1.2839    3.6458 N   0  0  0  0  0  0  0  0  0  0  0  0
   -1.3378    1.6349    2.2548 C   0  0  2  0  0  0  0  0  0  0  0  0
   -0.1746    0.8165    1.6455 C   0  0  0  0  0  0  0  0  0  0  0  0
    0.4869    0.0446    2.3360 O   0  0  0  0  0  0  0  0  0  0  0  0
   -1.0033    3.1284    2.2221 C   0  0  0  0  0  0  0  0  0  0  0  0
   -1.2361    1.8288    4.3907 H   0  0  0  0  0  0  0  0  0  0  0  0
   -2.2230    1.4646    1.6326 H   0  0  0  0  0  0  0  0  0  0  0  0
   -0.1116    3.3358    2.8233 H   0  0  0  0  0  0  0  0  0  0  0  0
   -0.8112    3.4575    1.1957 H   0  0  0  0  0  0  0  0  0  0  0  0
   -1.8376    3.7153    2.6195 H   0  0  0  0  0  0  0  0  0  0  0  0
    0.0300    0.8337    0.2738 N   0  0  0  0  0  0  0  0  0  0  0  0
    1.0736    0.0504   -0.4140 C   0  0  2  0  0  0  0  0  0  0  0  0
    1.7810    0.9561   -1.4475 C   0  0  0  0  0  0  0  0  0  0  0  0
    2.1472    2.0699   -1.0979 O   0  0  0  0  0  0  0  0  0  0  0  0
    0.4008   -1.1923   -1.0412 C   0  0  0  0  0  0  0  0  0  0  0  0
   -0.1558   -2.0545    0.0636 C   0  0  0  0  0  0  0  0  0  0  0  0
    0.5362   -2.8859    0.9451 N   0  3  0  0  0  0  0  0  0  0  0  0
   -1.4674   -2.0291    0.4600 C   0  0  0  0  0  0  0  0  0  0  0  0
   -0.2650   -3.2628    1.9128 C   0  0  0  0  0  0  0  0  0  0  0  0
   -1.5368   -2.7743    1.6249 N   0  0  0  0  0  0  0  0  0  0  0  0
   -0.4264    1.5779   -0.2545 H   0  0  0  0  0  0  0  0  0  0  0  0
    1.8507   -0.2700    0.2878 H   0  0  0  0  0  0  0  0  0  0  0  0
    1.1208   -1.7728   -1.6268 H   0  0  0  0  0  0  0  0  0  0  0  0
   -0.4049   -0.8733   -1.7138 H   0  0  0  0  0  0  0  0  0  0  0  0
    1.5556   -2.9588    0.9530 H   0  0  0  0  0  0  0  0  0  0  0  0
   -2.2660   -1.4286    0.0262 H   0  0  0  0  0  0  0  0  0  0  0  0
    0.0224   -3.8033    2.8149 H   0  0  0  0  0  0  0  0  0  0  0  0
   -2.2956   -2.6700    2.3112 H   0  0  0  0  0  0  0  0  0  0  0  0
    1.7813    0.6487   -2.7985 N   0  0  0  0  0  0  0  0  0  0  0  0
    1.6410    1.7333   -3.7822 C   0  0  2  0  0  0  0  0  0  0  0  0
    0.1893    2.2701   -3.8102 C   0  0  0  0  0  0  0  0  0  0  0  0
   -0.7107    1.6323   -3.2658 O   0  0  0  0  0  0  0  0  0  0  0  0
    2.0456    1.1844   -5.1525 C   0  0  0  0  0  0  0  0  0  0  0  0
    1.2827   -0.2025   -3.0346 H   0  0  0  0  0  0  0  0  0  0  0  0
    2.3111    2.5634   -3.5312 H   0  0  0  0  0  0  0  0  0  0  0  0
    1.3802    0.3692   -5.4548 H   0  0  0  0  0  0  0  0  0  0  0  0
    1.9947    1.9718   -5.9112 H   0  0  0  0  0  0  0  0  0  0  0  0
    3.0720    0.8051   -5.1205 H   0  0  0  0  0  0  0  0  0  0  0  0
   -0.1098    3.4652   -4.4361 N   0  0  0  0  0  0  0  0  0  0  0  0
   -1.4516    4.0365   -4.4772 C   0  0  0  0  0  0  0  0  0  0  0  0
    0.6606    3.9972   -4.8323 H   0  0  0  0  0  0  0  0  0  0  0  0
   -2.1531    3.3381   -4.9458 H   0  0  0  0  0  0  0  0  0  0  0  0
   -1.8035    4.2630   -3.4653 H   0  0  0  0  0  0  0  0  0  0  0  0
   -1.4511    4.9638   -5.0589 H   0  0  0  0  0  0  0  0  0  0  0  0
  1  2  2  0  0  0  0
  1  3  1  0  0  0  0
  1  7  1  0  0  0  0
  3  4  1  0  0  0  0
  3  5  1  0  0  0  0
  3  6  1  0  0  0  0
  7  8  1  0  0  0  0
  7 12  1  0  0  0  0
  8  9  1  0  0  0  0
  8 11  1  0  0  0  0
  8 13  1  0  0  0  0
  9 10  2  0  0  0  0
  9 17  1  0  0  0  0
 11 14  1  0  0  0  0
 11 15  1  0  0  0  0
 11 16  1  0  0  0  0
 17 18  1  0  0  0  0
 17 27  1  0  0  0  0
 18 19  1  0  0  0  0
 18 21  1  0  0  0  0
 18 28  1  0  0  0  0
 19 20  2  0  0  0  0
 19 35  1  0  0  0  0
 21 22  1  0  0  0  0
 21 29  1  0  0  0  0
 21 30  1  0  0  0  0
 22 23  1  0  0  0  0
 22 24  2  0  0  0  0
 23 25  2  0  0  0  0
 23 31  1  0  0  0  0
 24 26  1  0  0  0  0
 24 32  1  0  0  0  0
 25 26  1  0  0  0  0
 25 33  1  0  0  0  0
 26 34  1  0  0  0  0
 35 36  1  0  0  0  0
 35 40  1  0  0  0  0
 36 37  1  0  0  0  0
 36 39  1  0  0  0  0
 36 41  1  0  0  0  0
 37 38  2  0  0  0  0
 37 45  1  0  0  0  0
 39 42  1  0  0  0  0
 39 43  1  0  0  0  0
 39 44  1  0  0  0  0
 45 46  1  0  0  0  0
 45 47  1  0  0  0  0
 46 48  1  0  0  0  0
 46 49  1  0  0  0  0
 46 50  1  0  0  0  0
M  CHG  1  23   1
M  END
$$$$

  -OEChem-05262216443D

 50 50  0     1  0  0  0  0  0999 V2000
   -2.2608    0.3129    3.8902 C   0  0  0  0  0  0  0  0  0  0  0  0
   -2.6667   -0.5425    3.1103 O   0  0  0  0  0  0  0  0  0  0  0  0
   -2.4290    0.1090    5.3834 C   0  0  0  0  0  0  0  0  0  0  0  0
   -3.0394   -0.7767    5.5802 H   0  0  0  0  0  0  0  0  0  0  0  0
   -1.4516   -0.0230    5.8546 H   0  0  0  0  0  0  0  0  0  0  0  0
   -2.9228    0.9781    5.8255 H   0  0  0  0  0  0  0  0  0  0  0  0
   -1.6150    1.4431    3.4301 N   0  0  0  0  0  0  0  0  0  0  0  0
   -1.2879    1.6850    2.0165 C   0  0  2  0  0  0  0  0  0  0  0  0
   -0.1180    0.8269    1.4790 C   0  0  0  0  0  0  0  0  0  0  0  0
    0.5337    0.1007    2.2260 O   0  0  0  0  0  0  0  0  0  0  0  0
   -0.9645    3.1739    1.8632 C   0  0  0  0  0  0  0  0  0  0  0  0
   -1.1712    2.0304    4.1313 H   0  0  0  0  0  0  0  0  0  0  0  0
   -2.1693    1.4603    1.4064 H   0  0  0  0  0  0  0  0  0  0  0  0
   -0.0688    3.4345    2.4369 H   0  0  0  0  0  0  0  0  0  0  0  0
   -0.7847    3.4219    0.8119 H   0  0  0  0  0  0  0  0  0  0  0  0
   -1.7994    3.7850    2.2212 H   0  0  0  0  0  0  0  0  0  0  0  0
    0.0982    0.7492    0.1130 N   0  0  0  0  0  0  0  0  0  0  0  0
    1.1135   -0.1043   -0.5286 C   0  0  2  0  0  0  0  0  0  0  0  0
    1.8291    0.7426   -1.6005 C   0  0  0  0  0  0  0  0  0  0  0  0
    2.4336    1.7478   -1.2549 O   0  0  0  0  0  0  0  0  0  0  0  0
    0.4153   -1.3666   -1.0795 C   0  0  0  0  0  0  0  0  0  0  0  0
   -0.1552   -2.1459    0.0787 C   0  0  0  0  0  0  0  0  0  0  0  0
    0.5274   -2.9336    1.0064 N   0  3  0  0  0  0  0  0  0  0  0  0
   -1.4611   -2.0621    0.4865 C   0  0  0  0  0  0  0  0  0  0  0  0
   -0.2722   -3.2328    2.0021 C   0  0  0  0  0  0  0  0  0  0  0  0
   -1.5348   -2.7317    1.6964 N   0  0  0  0  0  0  0  0  0  0  0  0
   -0.4032    1.4135   -0.4847 H   0  0  0  0  0  0  0  0  0  0  0  0
    1.8860   -0.4012    0.1894 H   0  0  0  0  0  0  0  0  0  0  0  0
    1.1233   -1.9911   -1.6342 H   0  0  0  0  0  0  0  0  0  0  0  0
   -0.3902   -1.0749   -1.7630 H   0  0  0  0  0  0  0  0  0  0  0  0
    1.5448   -3.0331    1.0065 H   0  0  0  0  0  0  0  0  0  0  0  0
   -2.2497   -1.4671    0.0272 H   0  0  0  0  0  0  0  0  0  0  0  0
    0.0117   -3.7263    2.9317 H   0  0  0  0  0  0  0  0  0  0  0  0
   -2.2815   -2.5636    2.3834 H   0  0  0  0  0  0  0  0  0  0  0  0
    1.5569    0.5568   -2.9455 N   0  0  0  0  0  0  0  0  0  0  0  0
    1.3056    1.7546   -3.7626 C   0  0  2  0  0  0  0  0  0  0  0  0
   -0.0086    2.4659   -3.3435 C   0  0  0  0  0  0  0  0  0  0  0  0
   -0.7987    1.9170   -2.5734 O   0  0  0  0  0  0  0  0  0  0  0  0
    1.2443    1.3179   -5.2284 C   0  0  0  0  0  0  0  0  0  0  0  0
    0.9365   -0.2215   -3.1387 H   0  0  0  0  0  0  0  0  0  0  0  0
    2.1316    2.4660   -3.6472 H   0  0  0  0  0  0  0  0  0  0  0  0
    0.4145    0.6225   -5.3904 H   0  0  0  0  0  0  0  0  0  0  0  0
    1.1024    2.1844   -5.8819 H   0  0  0  0  0  0  0  0  0  0  0  0
    2.1773    0.8222   -5.5153 H   0  0  0  0  0  0  0  0  0  0  0  0
   -0.3069    3.7275   -3.8208 N   0  0  0  0  0  0  0  0  0  0  0  0
   -1.5119    4.4635   -3.4543 C   0  0  0  0  0  0  0  0  0  0  0  0
    0.3838    4.1847   -4.4106 H   0  0  0  0  0  0  0  0  0  0  0  0
   -2.4073    3.8892   -3.7151 H   0  0  0  0  0  0  0  0  0  0  0  0
   -1.5245    4.6682   -2.3786 H   0  0  0  0  0  0  0  0  0  0  0  0
   -1.5495    5.4184   -3.9881 H   0  0  0  0  0  0  0  0  0  0  0  0
  1  2  2  0  0  0  0
  1  3  1  0  0  0  0
  1  7  1  0  0  0  0
  3  4  1  0  0  0  0
  3  5  1  0  0  0  0
  3  6  1  0  0  0  0
  7  8  1  0  0  0  0
  7 12  1  0  0  0  0
  8  9  1  0  0  0  0
  8 11  1  0  0  0  0
  8 13  1  0  0  0  0
  9 10  2  0  0  0  0
  9 17  1  0  0  0  0
 11 14  1  0  0  0  0
 11 15  1  0  0  0  0
 11 16  1  0  0  0  0
 17 18  1  0  0  0  0
 17 27  1  0  0  0  0
 18 19  1  0  0  0  0
 18 21  1  0  0  0  0
 18 28  1  0  0  0  0
 19 20  2  0  0  0  0
 19 35  1  0  0  0  0
 21 22  1  0  0  0  0
 21 29  1  0  0  0  0
 21 30  1  0  0  0  0
 22 23  1  0  0  0  0
 22 24  2  0  0  0  0
 23 25  2  0  0  0  0
 23 31  1  0  0  0  0
 24 26  1  0  0  0  0
 24 32  1  0  0  0  0
 25 26  1  0  0  0  0
 25 33  1  0  0  0  0
 26 34  1  0  0  0  0
 35 36  1  0  0  0  0
 35 40  1  0  0  0  0
 36 37  1  0  0  0  0
 36 39  1  0  0  0  0
 36 41  1  0  0  0  0
 37 38  2  0  0  0  0
 37 45  1  0  0  0  0
 39 42  1  0  0  0  0
 39 43  1  0  0  0  0
 39 44  1  0  0  0  0
 45 46  1  0  0  0  0
 45 47  1  0  0  0  0
 46 48  1  0  0  0  0
 46 49  1  0  0  0  0
 46 50  1  0  0  0  0
M  CHG  1  23   1
M  END
$$$$

  -OEChem-05262216443D

 50 50  0     1  0  0  0  0  0999 V2000
   -2.1564    0.4013    3.9174 C   0  0  0  0  0  0  0  0  0  0  0  0
   -2.5866   -0.4946    3.1980 O   0  0  0  0  0  0  0  0  0  0  0  0
   -2.2388    0.2593    5.4251 C   0  0  0  0  0  0  0  0  0  0  0  0
   -2.7857   -0.6492    5.6915 H   0  0  0  0  0  0  0  0  0  0  0  0
   -1.2337    0.2045    5.8511 H   0  0  0  0  0  0  0  0  0  0  0  0
   -2.7605    1.1192    5.8530 H   0  0  0  0  0  0  0  0  0  0  0  0
   -1.5577    1.5209    3.3744 N   0  0  0  0  0  0  0  0  0  0  0  0
   -1.3002    1.6968    1.9367 C   0  0  2  0  0  0  0  0  0  0  0  0
   -0.1486    0.8212    1.3875 C   0  0  0  0  0  0  0  0  0  0  0  0
    0.5364    0.1284    2.1364 O   0  0  0  0  0  0  0  0  0  0  0  0
   -0.9987    3.1780    1.6944 C   0  0  0  0  0  0  0  0  0  0  0  0
   -1.0880    2.1458    4.0246 H   0  0  0  0  0  0  0  0  0  0  0  0
   -2.2071    1.4364    1.3804 H   0  0  0  0  0  0  0  0  0  0  0  0
   -0.0819    3.4740    2.2148 H   0  0  0  0  0  0  0  0  0  0  0  0
   -0.8677    3.3735    0.6250 H   0  0  0  0  0  0  0  0  0  0  0  0
   -1.8235    3.7995    2.0569 H   0  0  0  0  0  0  0  0  0  0  0  0
    0.0078    0.6847    0.0178 N   0  0  0  0  0  0  0  0  0  0  0  0
    1.0052   -0.1878   -0.6269 C   0  0  2  0  0  0  0  0  0  0  0  0
    1.6645    0.6133   -1.7650 C   0  0  0  0  0  0  0  0  0  0  0  0
    2.4864    1.4736   -1.4863 O   0  0  0  0  0  0  0  0  0  0  0  0
    0.3128   -1.4874   -1.0905 C   0  0  0  0  0  0  0  0  0  0  0  0
   -0.1930   -2.2191    0.1272 C   0  0  0  0  0  0  0  0  0  0  0  0
    0.5447   -2.9463    1.0618 N   0  3  0  0  0  0  0  0  0  0  0  0
   -1.4810   -2.1361    0.5887 C   0  0  0  0  0  0  0  0  0  0  0  0
   -0.2034   -3.2023    2.1083 C   0  0  0  0  0  0  0  0  0  0  0  0
   -1.4883   -2.7401    1.8345 N   0  0  0  0  0  0  0  0  0  0  0  0
   -0.4947    1.3535   -0.5778 H   0  0  0  0  0  0  0  0  0  0  0  0
    1.8114   -0.4385    0.0718 H   0  0  0  0  0  0  0  0  0  0  0  0
    1.0130   -2.1211   -1.6455 H   0  0  0  0  0  0  0  0  0  0  0  0
   -0.5261   -1.2487   -1.7526 H   0  0  0  0  0  0  0  0  0  0  0  0
    1.5631   -3.0259    1.0226 H   0  0  0  0  0  0  0  0  0  0  0  0
   -2.3001   -1.5789    0.1367 H   0  0  0  0  0  0  0  0  0  0  0  0
    0.1314   -3.6362    3.0509 H   0  0  0  0  0  0  0  0  0  0  0  0
   -2.2055   -2.5447    2.5455 H   0  0  0  0  0  0  0  0  0  0  0  0
    1.1233    0.5835   -3.0392 N   0  0  0  0  0  0  0  0  0  0  0  0
    0.9625    1.8602   -3.7528 C   0  0  2  0  0  0  0  0  0  0  0  0
   -0.1477    2.7317   -3.1101 C   0  0  0  0  0  0  0  0  0  0  0  0
   -0.9225    2.2446   -2.2849 O   0  0  0  0  0  0  0  0  0  0  0  0
    0.6282    1.5456   -5.2128 C   0  0  0  0  0  0  0  0  0  0  0  0
    0.3411   -0.0544   -3.1399 H   0  0  0  0  0  0  0  0  0  0  0  0
    1.9009    2.4260   -3.7274 H   0  0  0  0  0  0  0  0  0  0  0  0
   -0.3204    1.0038   -5.2843 H   0  0  0  0  0  0  0  0  0  0  0  0
    0.5443    2.4691   -5.7944 H   0  0  0  0  0  0  0  0  0  0  0  0
    1.4170    0.9307   -5.6579 H   0  0  0  0  0  0  0  0  0  0  0  0
   -0.2771    4.0661   -3.4431 N   0  0  0  0  0  0  0  0  0  0  0  0
   -1.2752    4.9494   -2.8505 C   0  0  0  0  0  0  0  0  0  0  0  0
    0.4109    4.4632   -4.0780 H   0  0  0  0  0  0  0  0  0  0  0  0
   -2.2832    4.5509   -3.0080 H   0  0  0  0  0  0  0  0  0  0  0  0
   -1.1018    5.0562   -1.7746 H   0  0  0  0  0  0  0  0  0  0  0  0
   -1.2235    5.9418   -3.3091 H   0  0  0  0  0  0  0  0  0  0  0  0
  1  2  2  0  0  0  0
  1  3  1  0  0  0  0
  1  7  1  0  0  0  0
  3  4  1  0  0  0  0
  3  5  1  0  0  0  0
  3  6  1  0  0  0  0
  7  8  1  0  0  0  0
  7 12  1  0  0  0  0
  8  9  1  0  0  0  0
  8 11  1  0  0  0  0
  8 13  1  0  0  0  0
  9 10  2  0  0  0  0
  9 17  1  0  0  0  0
 11 14  1  0  0  0  0
 11 15  1  0  0  0  0
 11 16  1  0  0  0  0
 17 18  1  0  0  0  0
 17 27  1  0  0  0  0
 18 19  1  0  0  0  0
 18 21  1  0  0  0  0
 18 28  1  0  0  0  0
 19 20  2  0  0  0  0
 19 35  1  0  0  0  0
 21 22  1  0  0  0  0
 21 29  1  0  0  0  0
 21 30  1  0  0  0  0
 22 23  1  0  0  0  0
 22 24  2  0  0  0  0
 23 25  2  0  0  0  0
 23 31  1  0  0  0  0
 24 26  1  0  0  0  0
 24 32  1  0  0  0  0
 25 26  1  0  0  0  0
 25 33  1  0  0  0  0
 26 34  1  0  0  0  0
 35 36  1  0  0  0  0
 35 40  1  0  0  0  0
 36 37  1  0  0  0  0
 36 39  1  0  0  0  0
 36 41  1  0  0  0  0
 37 38  2  0  0  0  0
 37 45  1  0  0  0  0
 39 42  1  0  0  0  0
 39 43  1  0  0  0  0
 39 44  1  0  0  0  0
 45 46  1  0  0  0  0
 45 47  1  0  0  0  0
 46 48  1  0  0  0  0
 46 49  1  0  0  0  0
 46 50  1  0  0  0  0
M  CHG  1  23   1
M  END
$$$$

  -OEChem-05262216443D

 50 50  0     1  0  0  0  0  0999 V2000
   -2.0523    0.4370    3.9640 C   0  0  0  0  0  0  0  0  0  0  0  0
   -2.4985   -0.4744    3.2746 O   0  0  0  0  0  0  0  0  0  0  0  0
   -2.0745    0.3167    5.4756 C   0  0  0  0  0  0  0  0  0  0  0  0
   -2.5912   -0.5985    5.7769 H   0  0  0  0  0  0  0  0  0  0  0  0
   -1.0526    0.2892    5.8623 H   0  0  0  0  0  0  0  0  0  0  0  0
   -2.5973    1.1722    5.9109 H   0  0  0  0  0  0  0  0  0  0  0  0
   -1.4875    1.5551    3.3833 N   0  0  0  0  0  0  0  0  0  0  0  0
   -1.2975    1.7220    1.9339 C   0  0  2  0  0  0  0  0  0  0  0  0
   -0.1829    0.8325    1.3328 C   0  0  0  0  0  0  0  0  0  0  0  0
    0.5520    0.1631    2.0551 O   0  0  0  0  0  0  0  0  0  0  0  0
   -0.9933    3.2002    1.6758 C   0  0  0  0  0  0  0  0  0  0  0  0
   -1.0084    2.1995    4.0071 H   0  0  0  0  0  0  0  0  0  0  0  0
   -2.2328    1.4689    1.4232 H   0  0  0  0  0  0  0  0  0  0  0  0
   -0.0491    3.4875    2.1498 H   0  0  0  0  0  0  0  0  0  0  0  0
   -0.9142    3.3951    0.6018 H   0  0  0  0  0  0  0  0  0  0  0  0
   -1.7929    3.8302    2.0780 H   0  0  0  0  0  0  0  0  0  0  0  0
   -0.1138    0.6594   -0.0409 N   0  0  0  0  0  0  0  0  0  0  0  0
    0.8655   -0.2144   -0.7154 C   0  0  2  0  0  0  0  0  0  0  0  0
    1.4482    0.5429   -1.9206 C   0  0  0  0  0  0  0  0  0  0  0  0
    2.4617    1.2086   -1.7760 O   0  0  0  0  0  0  0  0  0  0  0  0
    0.1912   -1.5467   -1.1022 C   0  0  0  0  0  0  0  0  0  0  0  0
   -0.2240   -2.2519    0.1642 C   0  0  0  0  0  0  0  0  0  0  0  0
    0.5907   -2.9243    1.0757 N   0  3  0  0  0  0  0  0  0  0  0  0
   -1.4854   -2.1949    0.6977 C   0  0  0  0  0  0  0  0  0  0  0  0
   -0.0874   -3.1726    2.1707 C   0  0  0  0  0  0  0  0  0  0  0  0
   -1.4009   -2.7622    1.9580 N   0  0  0  0  0  0  0  0  0  0  0  0
   -0.6110    1.3544   -0.6113 H   0  0  0  0  0  0  0  0  0  0  0  0
    1.7137   -0.4245   -0.0538 H   0  0  0  0  0  0  0  0  0  0  0  0
    0.8825   -2.1760   -1.6734 H   0  0  0  0  0  0  0  0  0  0  0  0
   -0.6865   -1.3583   -1.7284 H   0  0  0  0  0  0  0  0  0  0  0  0
    1.6077   -2.9689    0.9801 H   0  0  0  0  0  0  0  0  0  0  0  0
   -2.3479   -1.6785    0.2792 H   0  0  0  0  0  0  0  0  0  0  0  0
    0.3160   -3.5657    3.1040 H   0  0  0  0  0  0  0  0  0  0  0  0
   -2.0866   -2.5778    2.7015 H   0  0  0  0  0  0  0  0  0  0  0  0
    0.6805    0.7008   -3.0615 N   0  0  0  0  0  0  0  0  0  0  0  0
    0.6485    2.0179   -3.7147 C   0  0  2  0  0  0  0  0  0  0  0  0
   -0.2324    3.0071   -2.9121 C   0  0  0  0  0  0  0  0  0  0  0  0
   -1.0047    2.5839   -2.0504 O   0  0  0  0  0  0  0  0  0  0  0  0
    0.1049    1.8300   -5.1331 C   0  0  0  0  0  0  0  0  0  0  0  0
   -0.2223    0.2392   -3.0129 H   0  0  0  0  0  0  0  0  0  0  0  0
    1.6599    2.4345   -3.7849 H   0  0  0  0  0  0  0  0  0  0  0  0
   -0.9152    1.4335   -5.1067 H   0  0  0  0  0  0  0  0  0  0  0  0
    0.0921    2.7849   -5.6680 H   0  0  0  0  0  0  0  0  0  0  0  0
    0.7367    1.1320   -5.6922 H   0  0  0  0  0  0  0  0  0  0  0  0
   -0.1486    4.3679   -3.1330 N   0  0  0  0  0  0  0  0  0  0  0  0
   -0.9064    5.3550   -2.3711 C   0  0  0  0  0  0  0  0  0  0  0  0
    0.5460    4.6952   -3.8000 H   0  0  0  0  0  0  0  0  0  0  0  0
   -1.9793    5.1401   -2.4206 H   0  0  0  0  0  0  0  0  0  0  0  0
   -0.5938    5.3516   -1.3216 H   0  0  0  0  0  0  0  0  0  0  0  0
   -0.7397    6.3574   -2.7781 H   0  0  0  0  0  0  0  0  0  0  0  0
  1  2  2  0  0  0  0
  1  3  1  0  0  0  0
  1  7  1  0  0  0  0
  3  4  1  0  0  0  0
  3  5  1  0  0  0  0
  3  6  1  0  0  0  0
  7  8  1  0  0  0  0
  7 12  1  0  0  0  0
  8  9  1  0  0  0  0
  8 11  1  0  0  0  0
  8 13  1  0  0  0  0
  9 10  2  0  0  0  0
  9 17  1  0  0  0  0
 11 14  1  0  0  0  0
 11 15  1  0  0  0  0
 11 16  1  0  0  0  0
 17 18  1  0  0  0  0
 17 27  1  0  0  0  0
 18 19  1  0  0  0  0
 18 21  1  0  0  0  0
 18 28  1  0  0  0  0
 19 20  2  0  0  0  0
 19 35  1  0  0  0  0
 21 22  1  0  0  0  0
 21 29  1  0  0  0  0
 21 30  1  0  0  0  0
 22 23  1  0  0  0  0
 22 24  2  0  0  0  0
 23 25  2  0  0  0  0
 23 31  1  0  0  0  0
 24 26  1  0  0  0  0
 24 32  1  0  0  0  0
 25 26  1  0  0  0  0
 25 33  1  0  0  0  0
 26 34  1  0  0  0  0
 35 36  1  0  0  0  0
 35 40  1  0  0  0  0
 36 37  1  0  0  0  0
 36 39  1  0  0  0  0
 36 41  1  0  0  0  0
 37 38  2  0  0  0  0
 37 45  1  0  0  0  0
 39 42  1  0  0  0  0
 39 43  1  0  0  0  0
 39 44  1  0  0  0  0
 45 46  1  0  0  0  0
 45 47  1  0  0  0  0
 46 48  1  0  0  0  0
 46 49  1  0  0  0  0
 46 50  1  0  0  0  0
M  CHG  1  23   1
M  END
$$$$

  -OEChem-05262216443D

 50 50  0     1  0  0  0  0  0999 V2000
   -1.9481    0.4753    3.9988 C   0  0  0  0  0  0  0  0  0  0  0  0
   -2.4389   -0.3951    3.2882 O   0  0  0  0  0  0  0  0  0  0  0  0
   -1.9706    0.3150    5.5068 C   0  0  0  0  0  0  0  0  0  0  0  0
   -2.5177   -0.5901    5.7850 H   0  0  0  0  0  0  0  0  0  0  0  0
   -0.9497    0.2426    5.8902 H   0  0  0  0  0  0  0  0  0  0  0  0
   -2.4631    1.1760    5.9659 H   0  0  0  0  0  0  0  0  0  0  0  0
   -1.3385    1.5835    3.4461 N   0  0  0  0  0  0  0  0  0  0  0  0
   -1.1704    1.8015    2.0007 C   0  0  2  0  0  0  0  0  0  0  0  0
   -0.1567    0.8462    1.3247 C   0  0  0  0  0  0  0  0  0  0  0  0
    0.5982    0.1507    2.0005 O   0  0  0  0  0  0  0  0  0  0  0  0
   -0.7316    3.2565    1.8155 C   0  0  0  0  0  0  0  0  0  0  0  0
   -0.8361    2.1941    4.0848 H   0  0  0  0  0  0  0  0  0  0  0  0
   -2.1380    1.6628    1.5061 H   0  0  0  0  0  0  0  0  0  0  0  0
    0.2378    3.4295    2.2940 H   0  0  0  0  0  0  0  0  0  0  0  0
   -0.6392    3.5000    0.7532 H   0  0  0  0  0  0  0  0  0  0  0  0
   -1.4670    3.9356    2.2581 H   0  0  0  0  0  0  0  0  0  0  0  0
   -0.1931    0.6611   -0.0507 N   0  0  0  0  0  0  0  0  0  0  0  0
    0.7407   -0.2282   -0.7749 C   0  0  2  0  0  0  0  0  0  0  0  0
    1.2614    0.4793   -2.0365 C   0  0  0  0  0  0  0  0  0  0  0  0
    2.4091    0.8932   -2.0666 O   0  0  0  0  0  0  0  0  0  0  0  0
    0.0324   -1.5541   -1.1161 C   0  0  0  0  0  0  0  0  0  0  0  0
   -0.3228   -2.2547    0.1703 C   0  0  0  0  0  0  0  0  0  0  0  0
    0.5334   -2.9353    1.0363 N   0  3  0  0  0  0  0  0  0  0  0  0
   -1.5542   -2.1912    0.7685 C   0  0  0  0  0  0  0  0  0  0  0  0
   -0.0901   -3.1905    2.1616 C   0  0  0  0  0  0  0  0  0  0  0  0
   -1.4098   -2.7699    2.0179 N   0  0  0  0  0  0  0  0  0  0  0  0
   -0.6631    1.4039   -0.5821 H   0  0  0  0  0  0  0  0  0  0  0  0
    1.6235   -0.4414   -0.1609 H   0  0  0  0  0  0  0  0  0  0  0  0
    0.6864   -2.1920   -1.7205 H   0  0  0  0  0  0  0  0  0  0  0  0
   -0.8732   -1.3587   -1.6995 H   0  0  0  0  0  0  0  0  0  0  0  0
    1.5434   -2.9888    0.8860 H   0  0  0  0  0  0  0  0  0  0  0  0
   -2.4338   -1.6666    0.3983 H   0  0  0  0  0  0  0  0  0  0  0  0
    0.3572   -3.5979    3.0684 H   0  0  0  0  0  0  0  0  0  0  0  0
   -2.0632   -2.6022    2.7924 H   0  0  0  0  0  0  0  0  0  0  0  0
    0.3529    0.8812   -2.9989 N   0  0  0  0  0  0  0  0  0  0  0  0
    0.4622    2.2205   -3.5942 C   0  0  2  0  0  0  0  0  0  0  0  0
   -0.2569    3.2582   -2.7007 C   0  0  0  0  0  0  0  0  0  0  0  0
   -1.0055    2.8716   -1.8020 O   0  0  0  0  0  0  0  0  0  0  0  0
   -0.1609    2.1701   -4.9911 C   0  0  0  0  0  0  0  0  0  0  0  0
   -0.6017    0.5977   -2.7973 H   0  0  0  0  0  0  0  0  0  0  0  0
    1.5119    2.5191   -3.6950 H   0  0  0  0  0  0  0  0  0  0  0  0
   -1.2214    1.9046   -4.9322 H   0  0  0  0  0  0  0  0  0  0  0  0
   -0.0739    3.1427   -5.4856 H   0  0  0  0  0  0  0  0  0  0  0  0
    0.3518    1.4243   -5.6073 H   0  0  0  0  0  0  0  0  0  0  0  0
   -0.0555    4.6128   -2.8786 N   0  0  0  0  0  0  0  0  0  0  0  0
   -0.6795    5.6349   -2.0452 C   0  0  0  0  0  0  0  0  0  0  0  0
    0.6085    4.9028   -3.5925 H   0  0  0  0  0  0  0  0  0  0  0  0
   -1.7700    5.5356   -2.0655 H   0  0  0  0  0  0  0  0  0  0  0  0
   -0.3364    5.5472   -1.0091 H   0  0  0  0  0  0  0  0  0  0  0  0
   -0.4199    6.6330   -2.4116 H   0  0  0  0  0  0  0  0  0  0  0  0
  1  2  2  0  0  0  0
  1  3  1  0  0  0  0
  1  7  1  0  0  0  0
  3  4  1  0  0  0  0
  3  5  1  0  0  0  0
  3  6  1  0  0  0  0
  7  8  1  0  0  0  0
  7 12  1  0  0  0  0
  8  9  1  0  0  0  0
  8 11  1  0  0  0  0
  8 13  1  0  0  0  0
  9 10  2  0  0  0  0
  9 17  1  0  0  0  0
 11 14  1  0  0  0  0
 11 15  1  0  0  0  0
 11 16  1  0  0  0  0
 17 18  1  0  0  0  0
 17 27  1  0  0  0  0
 18 19  1  0  0  0  0
 18 21  1  0  0  0  0
 18 28  1  0  0  0  0
 19 20  2  0  0  0  0
 19 35  1  0  0  0  0
 21 22  1  0  0  0  0
 21 29  1  0  0  0  0
 21 30  1  0  0  0  0
 22 23  1  0  0  0  0
 22 24  2  0  0  0  0
 23 25  2  0  0  0  0
 23 31  1  0  0  0  0
 24 26  1  0  0  0  0
 24 32  1  0  0  0  0
 25 26  1  0  0  0  0
 25 33  1  0  0  0  0
 26 34  1  0  0  0  0
 35 36  1  0  0  0  0
 35 40  1  0  0  0  0
 36 37  1  0  0  0  0
 36 39  1  0  0  0  0
 36 41  1  0  0  0  0
 37 38  2  0  0  0  0
 37 45  1  0  0  0  0
 39 42  1  0  0  0  0
 39 43  1  0  0  0  0
 39 44  1  0  0  0  0
 45 46  1  0  0  0  0
 45 47  1  0  0  0  0
 46 48  1  0  0  0  0
 46 49  1  0  0  0  0
 46 50  1  0  0  0  0
M  CHG  1  23   1
M  END
$$$$

  -OEChem-05262216443D

 50 50  0     1  0  0  0  0  0999 V2000
   -1.8796    0.5129    4.0085 C   0  0  0  0  0  0  0  0  0  0  0  0
   -2.4178   -0.2907    3.2560 O   0  0  0  0  0  0  0  0  0  0  0  0
   -1.9411    0.2950    5.5082 C   0  0  0  0  0  0  0  0  0  0  0  0
   -2.5986   -0.5461    5.7446 H   0  0  0  0  0  0  0  0  0  0  0  0
   -0.9417    0.0823    5.8959 H   0  0  0  0  0  0  0  0  0  0  0  0
   -2.3304    1.1904    5.9997 H   0  0  0  0  0  0  0  0  0  0  0  0
   -1.1802    1.5934    3.5107 N   0  0  0  0  0  0  0  0  0  0  0  0
   -0.9930    1.8767    2.0789 C   0  0  2  0  0  0  0  0  0  0  0  0
   -0.1140    0.8448    1.3316 C   0  0  0  0  0  0  0  0  0  0  0  0
    0.6541    0.1121    1.9507 O   0  0  0  0  0  0  0  0  0  0  0  0
   -0.3621    3.2683    1.9854 C   0  0  0  0  0  0  0  0  0  0  0  0
   -0.6610    2.1518    4.1827 H   0  0  0  0  0  0  0  0  0  0  0  0
   -1.9724    1.8992    1.5889 H   0  0  0  0  0  0  0  0  0  0  0  0
    0.6138    3.2817    2.4818 H   0  0  0  0  0  0  0  0  0  0  0  0
   -0.2193    3.5593    0.9414 H   0  0  0  0  0  0  0  0  0  0  0  0
   -1.0086    4.0122    2.4613 H   0  0  0  0  0  0  0  0  0  0  0  0
   -0.2690    0.6638   -0.0370 N   0  0  0  0  0  0  0  0  0  0  0  0
    0.5988   -0.2414   -0.8264 C   0  0  2  0  0  0  0  0  0  0  0  0
    1.0466    0.4264   -2.1364 C   0  0  0  0  0  0  0  0  0  0  0  0
    2.2359    0.5520   -2.3774 O   0  0  0  0  0  0  0  0  0  0  0  0
   -0.1595   -1.5481   -1.1241 C   0  0  0  0  0  0  0  0  0  0  0  0
   -0.4479   -2.2545    0.1750 C   0  0  0  0  0  0  0  0  0  0  0  0
    0.4479   -2.9632    0.9762 N   0  3  0  0  0  0  0  0  0  0  0  0
   -1.6405   -2.1853    0.8460 C   0  0  0  0  0  0  0  0  0  0  0  0
   -0.1137   -3.2407    2.1285 C   0  0  0  0  0  0  0  0  0  0  0  0
   -1.4329   -2.7977    2.0704 N   0  0  0  0  0  0  0  0  0  0  0  0
   -0.7089    1.4547   -0.5207 H   0  0  0  0  0  0  0  0  0  0  0  0
    1.5165   -0.4734   -0.2736 H   0  0  0  0  0  0  0  0  0  0  0  0
    0.4383   -2.1958   -1.7749 H   0  0  0  0  0  0  0  0  0  0  0  0
   -1.0951   -1.3258   -1.6476 H   0  0  0  0  0  0  0  0  0  0  0  0
    1.4450   -3.0360    0.7610 H   0  0  0  0  0  0  0  0  0  0  0  0
   -2.5337   -1.6437    0.5376 H   0  0  0  0  0  0  0  0  0  0  0  0
    0.3769   -3.6845    2.9949 H   0  0  0  0  0  0  0  0  0  0  0  0
   -2.0563   -2.6773    2.8760 H   0  0  0  0  0  0  0  0  0  0  0  0
    0.1064    1.1012   -2.8914 N   0  0  0  0  0  0  0  0  0  0  0  0
    0.3890    2.4392   -3.4259 C   0  0  2  0  0  0  0  0  0  0  0  0
   -0.1847    3.5085   -2.4686 C   0  0  0  0  0  0  0  0  0  0  0  0
   -0.9117    3.1572   -1.5380 O   0  0  0  0  0  0  0  0  0  0  0  0
   -0.2457    2.5372   -4.8153 C   0  0  0  0  0  0  0  0  0  0  0  0
   -0.8435    0.9937   -2.5449 H   0  0  0  0  0  0  0  0  0  0  0  0
    1.4677    2.6080   -3.5213 H   0  0  0  0  0  0  0  0  0  0  0  0
   -1.3304    2.4007   -4.7553 H   0  0  0  0  0  0  0  0  0  0  0  0
   -0.0431    3.5147   -5.2639 H   0  0  0  0  0  0  0  0  0  0  0  0
    0.1663    1.7654   -5.4737 H   0  0  0  0  0  0  0  0  0  0  0  0
    0.1222    4.8458   -2.6261 N   0  0  0  0  0  0  0  0  0  0  0  0
   -0.3930    5.8985   -1.7575 C   0  0  0  0  0  0  0  0  0  0  0  0
    0.7371    5.1036   -3.3943 H   0  0  0  0  0  0  0  0  0  0  0  0
   -1.4871    5.9296   -1.7982 H   0  0  0  0  0  0  0  0  0  0  0  0
   -0.0829    5.7288   -0.7210 H   0  0  0  0  0  0  0  0  0  0  0  0
   -0.0091    6.8729   -2.0757 H   0  0  0  0  0  0  0  0  0  0  0  0
  1  2  2  0  0  0  0
  1  3  1  0  0  0  0
  1  7  1  0  0  0  0
  3  4  1  0  0  0  0
  3  5  1  0  0  0  0
  3  6  1  0  0  0  0
  7  8  1  0  0  0  0
  7 12  1  0  0  0  0
  8  9  1  0  0  0  0
  8 11  1  0  0  0  0
  8 13  1  0  0  0  0
  9 10  2  0  0  0  0
  9 17  1  0  0  0  0
 11 14  1  0  0  0  0
 11 15  1  0  0  0  0
 11 16  1  0  0  0  0
 17 18  1  0  0  0  0
 17 27  1  0  0  0  0
 18 19  1  0  0  0  0
 18 21  1  0  0  0  0
 18 28  1  0  0  0  0
 19 20  2  0  0  0  0
 19 35  1  0  0  0  0
 21 22  1  0  0  0  0
 21 29  1  0  0  0  0
 21 30  1  0  0  0  0
 22 23  1  0  0  0  0
 22 24  2  0  0  0  0
 23 25  2  0  0  0  0
 23 31  1  0  0  0  0
 24 26  1  0  0  0  0
 24 32  1  0  0  0  0
 25 26  1  0  0  0  0
 25 33  1  0  0  0  0
 26 34  1  0  0  0  0
 35 36  1  0  0  0  0
 35 40  1  0  0  0  0
 36 37  1  0  0  0  0
 36 39  1  0  0  0  0
 36 41  1  0  0  0  0
 37 38  2  0  0  0  0
 37 45  1  0  0  0  0
 39 42  1  0  0  0  0
 39 43  1  0  0  0  0
 39 44  1  0  0  0  0
 45 46  1  0  0  0  0
 45 47  1  0  0  0  0
 46 48  1  0  0  0  0
 46 49  1  0  0  0  0
 46 50  1  0  0  0  0
M  CHG  1  23   1
M  END
$$$$

  -OEChem-05262216443D

 50 50  0     1  0  0  0  0  0999 V2000
   -1.8470    0.6135    3.9543 C   0  0  0  0  0  0  0  0  0  0  0  0
   -2.4041   -0.1329    3.1589 O   0  0  0  0  0  0  0  0  0  0  0  0
   -2.0024    0.3762    5.4441 C   0  0  0  0  0  0  0  0  0  0  0  0
   -2.7114   -0.4355    5.6286 H   0  0  0  0  0  0  0  0  0  0  0  0
   -1.0372    0.1102    5.8822 H   0  0  0  0  0  0  0  0  0  0  0  0
   -2.3759    1.2821    5.9288 H   0  0  0  0  0  0  0  0  0  0  0  0
   -1.0474    1.6490    3.5157 N   0  0  0  0  0  0  0  0  0  0  0  0
   -0.7921    1.9683    2.1025 C   0  0  2  0  0  0  0  0  0  0  0  0
   -0.0731    0.8484    1.3134 C   0  0  0  0  0  0  0  0  0  0  0  0
    0.7079    0.0877    1.8806 O   0  0  0  0  0  0  0  0  0  0  0  0
    0.0635    3.2382    2.0914 C   0  0  0  0  0  0  0  0  0  0  0  0
   -0.5440    2.1740    4.2257 H   0  0  0  0  0  0  0  0  0  0  0  0
   -1.7453    2.1757    1.6042 H   0  0  0  0  0  0  0  0  0  0  0  0
    1.0129    3.0661    2.6094 H   0  0  0  0  0  0  0  0  0  0  0  0
    0.2859    3.5459    1.0667 H   0  0  0  0  0  0  0  0  0  0  0  0
   -0.4642    4.0584    2.5879 H   0  0  0  0  0  0  0  0  0  0  0  0
   -0.3518    0.6613   -0.0347 N   0  0  0  0  0  0  0  0  0  0  0  0
    0.4495   -0.2519   -0.8854 C   0  0  2  0  0  0  0  0  0  0  0  0
    0.7984    0.3797   -2.2444 C   0  0  0  0  0  0  0  0  0  0  0  0
    1.9331    0.2747   -2.6803 O   0  0  0  0  0  0  0  0  0  0  0  0
   -0.3439   -1.5499   -1.1189 C   0  0  0  0  0  0  0  0  0  0  0  0
   -0.5462   -2.2569    0.1955 C   0  0  0  0  0  0  0  0  0  0  0  0
    0.3989   -2.9785    0.9249 N   0  3  0  0  0  0  0  0  0  0  0  0
   -1.6921   -2.1977    0.9442 C   0  0  0  0  0  0  0  0  0  0  0  0
   -0.0892   -3.2848    2.1032 C   0  0  0  0  0  0  0  0  0  0  0  0
   -1.4087   -2.8402    2.1378 N   0  0  0  0  0  0  0  0  0  0  0  0
   -0.7749    1.4830   -0.4774 H   0  0  0  0  0  0  0  0  0  0  0  0
    1.4051   -0.4881   -0.4032 H   0  0  0  0  0  0  0  0  0  0  0  0
    0.1957   -2.2054   -1.8119 H   0  0  0  0  0  0  0  0  0  0  0  0
   -1.3124   -1.3151   -1.5732 H   0  0  0  0  0  0  0  0  0  0  0  0
    1.3789   -3.0488    0.6414 H   0  0  0  0  0  0  0  0  0  0  0  0
   -2.6036   -1.6518    0.7034 H   0  0  0  0  0  0  0  0  0  0  0  0
    0.4539   -3.7547    2.9234 H   0  0  0  0  0  0  0  0  0  0  0  0
   -2.0013   -2.7863    2.9714 H   0  0  0  0  0  0  0  0  0  0  0  0
   -0.0734    1.2942   -2.8013 N   0  0  0  0  0  0  0  0  0  0  0  0
    0.3849    2.6133   -3.2512 C   0  0  2  0  0  0  0  0  0  0  0  0
   -0.0469    3.6752   -2.2147 C   0  0  0  0  0  0  0  0  0  0  0  0
   -0.7805    3.3400   -1.2831 O   0  0  0  0  0  0  0  0  0  0  0  0
   -0.2330    2.8905   -4.6235 C   0  0  0  0  0  0  0  0  0  0  0  0
   -0.9811    1.3200   -2.3429 H   0  0  0  0  0  0  0  0  0  0  0  0
    1.4768    2.6442   -3.3411 H   0  0  0  0  0  0  0  0  0  0  0  0
   -1.3261    2.8989   -4.5604 H   0  0  0  0  0  0  0  0  0  0  0  0
    0.1008    3.8594   -5.0075 H   0  0  0  0  0  0  0  0  0  0  0  0
    0.0686    2.1159   -5.3361 H   0  0  0  0  0  0  0  0  0  0  0  0
    0.3917    4.9822   -2.2993 N   0  0  0  0  0  0  0  0  0  0  0  0
   -0.0035    6.0251   -1.3586 C   0  0  0  0  0  0  0  0  0  0  0  0
    0.9965    5.2301   -3.0787 H   0  0  0  0  0  0  0  0  0  0  0  0
   -1.0927    6.1403   -1.3474 H   0  0  0  0  0  0  0  0  0  0  0  0
    0.3354    5.7792   -0.3468 H   0  0  0  0  0  0  0  0  0  0  0  0
    0.4405    6.9833   -1.6464 H   0  0  0  0  0  0  0  0  0  0  0  0
  1  2  2  0  0  0  0
  1  3  1  0  0  0  0
  1  7  1  0  0  0  0
  3  4  1  0  0  0  0
  3  5  1  0  0  0  0
  3  6  1  0  0  0  0
  7  8  1  0  0  0  0
  7 12  1  0  0  0  0
  8  9  1  0  0  0  0
  8 11  1  0  0  0  0
  8 13  1  0  0  0  0
  9 10  2  0  0  0  0
  9 17  1  0  0  0  0
 11 14  1  0  0  0  0
 11 15  1  0  0  0  0
 11 16  1  0  0  0  0
 17 18  1  0  0  0  0
 17 27  1  0  0  0  0
 18 19  1  0  0  0  0
 18 21  1  0  0  0  0
 18 28  1  0  0  0  0
 19 20  2  0  0  0  0
 19 35  1  0  0  0  0
 21 22  1  0  0  0  0
 21 29  1  0  0  0  0
 21 30  1  0  0  0  0
 22 23  1  0  0  0  0
 22 24  2  0  0  0  0
 23 25  2  0  0  0  0
 23 31  1  0  0  0  0
 24 26  1  0  0  0  0
 24 32  1  0  0  0  0
 25 26  1  0  0  0  0
 25 33  1  0  0  0  0
 26 34  1  0  0  0  0
 35 36  1  0  0  0  0
 35 40  1  0  0  0  0
 36 37  1  0  0  0  0
 36 39  1  0  0  0  0
 36 41  1  0  0  0  0
 37 38  2  0  0  0  0
 37 45  1  0  0  0  0
 39 42  1  0  0  0  0
 39 43  1  0  0  0  0
 39 44  1  0  0  0  0
 45 46  1  0  0  0  0
 45 47  1  0  0  0  0
 46 48  1  0  0  0  0
 46 49  1  0  0  0  0
 46 50  1  0  0  0  0
M  CHG  1  23   1
M  END
$$$$

  -OEChem-05262216443D

 50 50  0     1  0  0  0  0  0999 V2000
   -1.6697   -0.0633    4.5373 C   0  0  0  0  0  0  0  0  0  0  0  0
   -2.2851   -0.8203    3.7943 O   0  0  0  0  0  0  0  0  0  0  0  0
   -1.4557   -0.4396    5.9911 C   0  0  0  0  0  0  0  0  0  0  0  0
   -1.9766   -1.3725    6.2238 H   0  0  0  0  0  0  0  0  0  0  0  0
   -0.3893   -0.5720    6.1904 H   0  0  0  0  0  0  0  0  0  0  0  0
   -1.8440    0.3483    6.6418 H   0  0  0  0  0  0  0  0  0  0  0  0
   -1.1385    1.1153    4.0538 N   0  0  0  0  0  0  0  0  0  0  0  0
   -1.2105    1.5340    2.6457 C   0  0  2  0  0  0  0  0  0  0  0  0
   -0.2589    0.7607    1.7004 C   0  0  0  0  0  0  0  0  0  0  0  0
    0.6208    0.0299    2.1445 O   0  0  0  0  0  0  0  0  0  0  0  0
   -0.8973    3.0328    2.5953 C   0  0  0  0  0  0  0  0  0  0  0  0
   -0.5236    1.6302    4.6792 H   0  0  0  0  0  0  0  0  0  0  0  0
   -2.2338    1.3826    2.2858 H   0  0  0  0  0  0  0  0  0  0  0  0
    0.1225    3.2251    2.9451 H   0  0  0  0  0  0  0  0  0  0  0  0
   -0.9871    3.4136    1.5725 H   0  0  0  0  0  0  0  0  0  0  0  0
   -1.5941    3.5903    3.2296 H   0  0  0  0  0  0  0  0  0  0  0  0
   -0.4665    0.8058    0.3278 N   0  0  0  0  0  0  0  0  0  0  0  0
    0.2969    0.0025   -0.6551 C   0  0  2  0  0  0  0  0  0  0  0  0
    0.7512    0.8184   -1.8786 C   0  0  0  0  0  0  0  0  0  0  0  0
    1.5283    0.3185   -2.6772 O   0  0  0  0  0  0  0  0  0  0  0  0
   -0.5358   -1.2182   -1.0912 C   0  0  0  0  0  0  0  0  0  0  0  0
   -0.7553   -2.1035    0.1080 C   0  0  0  0  0  0  0  0  0  0  0  0
    0.1819   -2.9452    0.7074 N   0  3  0  0  0  0  0  0  0  0  0  0
   -1.8890   -2.1295    0.8770 C   0  0  0  0  0  0  0  0  0  0  0  0
   -0.2894   -3.3946    1.8453 C   0  0  0  0  0  0  0  0  0  0  0  0
   -1.5953   -2.9278    1.9708 N   0  0  0  0  0  0  0  0  0  0  0  0
   -1.2462    1.3719    0.0012 H   0  0  0  0  0  0  0  0  0  0  0  0
    1.2273   -0.3525   -0.1984 H   0  0  0  0  0  0  0  0  0  0  0  0
   -0.0142   -1.7788   -1.8755 H   0  0  0  0  0  0  0  0  0  0  0  0
   -1.4933   -0.8868   -1.5066 H   0  0  0  0  0  0  0  0  0  0  0  0
    1.1510   -3.0122    0.3868 H   0  0  0  0  0  0  0  0  0  0  0  0
   -2.7971   -1.5483    0.7254 H   0  0  0  0  0  0  0  0  0  0  0  0
    0.2572   -3.9814    2.5841 H   0  0  0  0  0  0  0  0  0  0  0  0
   -2.1356   -2.9101    2.8443 H   0  0  0  0  0  0  0  0  0  0  0  0
    0.1966    2.0549   -2.1375 N   0  0  0  0  0  0  0  0  0  0  0  0
    0.7431    3.0144   -3.1031 C   0  0  2  0  0  0  0  0  0  0  0  0
    0.6479    4.4398   -2.5155 C   0  0  0  0  0  0  0  0  0  0  0  0
    0.0577    4.6101   -1.4505 O   0  0  0  0  0  0  0  0  0  0  0  0
   -0.0427    2.8952   -4.4120 C   0  0  0  0  0  0  0  0  0  0  0  0
   -0.2848    2.4912   -1.3525 H   0  0  0  0  0  0  0  0  0  0  0  0
    1.8011    2.8030   -3.2943 H   0  0  0  0  0  0  0  0  0  0  0  0
   -1.0996    3.1299   -4.2490 H   0  0  0  0  0  0  0  0  0  0  0  0
    0.3549    3.5833   -5.1642 H   0  0  0  0  0  0  0  0  0  0  0  0
    0.0322    1.8763   -4.8056 H   0  0  0  0  0  0  0  0  0  0  0  0
    1.2400    5.5168   -3.1468 N   0  0  0  0  0  0  0  0  0  0  0  0
    1.2023    6.8743   -2.6138 C   0  0  0  0  0  0  0  0  0  0  0  0
    1.7415    5.3443   -4.0140 H   0  0  0  0  0  0  0  0  0  0  0  0
    0.1677    7.2189   -2.5129 H   0  0  0  0  0  0  0  0  0  0  0  0
    1.6838    6.9141   -1.6310 H   0  0  0  0  0  0  0  0  0  0  0  0
    1.7294    7.5601   -3.2841 H   0  0  0  0  0  0  0  0  0  0  0  0
  1  2  2  0  0  0  0
  1  3  1  0  0  0  0
  1  7  1  0  0  0  0
  3  4  1  0  0  0  0
  3  5  1  0  0  0  0
  3  6  1  0  0  0  0
  7  8  1  0  0  0  0
  7 12  1  0  0  0  0
  8  9  1  0  0  0  0
  8 11  1  0  0  0  0
  8 13  1  0  0  0  0
  9 10  2  0  0  0  0
  9 17  1  0  0  0  0
 11 14  1  0  0  0  0
 11 15  1  0  0  0  0
 11 16  1  0  0  0  0
 17 18  1  0  0  0  0
 17 27  1  0  0  0  0
 18 19  1  0  0  0  0
 18 21  1  0  0  0  0
 18 28  1  0  0  0  0
 19 20  2  0  0  0  0
 19 35  1  0  0  0  0
 21 22  1  0  0  0  0
 21 29  1  0  0  0  0
 21 30  1  0  0  0  0
 22 23  1  0  0  0  0
 22 24  2  0  0  0  0
 23 25  2  0  0  0  0
 23 31  1  0  0  0  0
 24 26  1  0  0  0  0
 24 32  1  0  0  0  0
 25 26  1  0  0  0  0
 25 33  1  0  0  0  0
 26 34  1  0  0  0  0
 35 36  1  0  0  0  0
 35 40  1  0  0  0  0
 36 37  1  0  0  0  0
 36 39  1  0  0  0  0
 36 41  1  0  0  0  0
 37 38  2  0  0  0  0
 37 45  1  0  0  0  0
 39 42  1  0  0  0  0
 39 43  1  0  0  0  0
 39 44  1  0  0  0  0
 45 46  1  0  0  0  0
 45 47  1  0  0  0  0
 46 48  1  0  0  0  0
 46 49  1  0  0  0  0
 46 50  1  0  0  0  0
M  CHG  1  23   1
M  END
$$$$

  -OEChem-05262216443D

 50 50  0     1  0  0  0  0  0999 V2000
   -1.5975   -0.0994    4.5523 C   0  0  0  0  0  0  0  0  0  0  0  0
   -2.2572   -0.8267    3.8181 O   0  0  0  0  0  0  0  0  0  0  0  0
   -1.3357   -0.5122    5.9880 C   0  0  0  0  0  0  0  0  0  0  0  0
   -1.8202   -1.4683    6.2043 H   0  0  0  0  0  0  0  0  0  0  0  0
   -0.2609   -0.6154    6.1573 H   0  0  0  0  0  0  0  0  0  0  0  0
   -1.7330    0.2432    6.6709 H   0  0  0  0  0  0  0  0  0  0  0  0
   -1.0575    1.0770    4.0733 N   0  0  0  0  0  0  0  0  0  0  0  0
   -1.1616    1.5197    2.6751 C   0  0  2  0  0  0  0  0  0  0  0  0
   -0.2501    0.7440    1.6943 C   0  0  0  0  0  0  0  0  0  0  0  0
    0.6291   -0.0071    2.1044 O   0  0  0  0  0  0  0  0  0  0  0  0
   -0.8202    3.0124    2.6400 C   0  0  0  0  0  0  0  0  0  0  0  0
   -0.4048    1.5616    4.6844 H   0  0  0  0  0  0  0  0  0  0  0  0
   -2.1970    1.3933    2.3412 H   0  0  0  0  0  0  0  0  0  0  0  0
    0.2171    3.1773    2.9503 H   0  0  0  0  0  0  0  0  0  0  0  0
   -0.9451    3.4161    1.6298 H   0  0  0  0  0  0  0  0  0  0  0  0
   -1.4787    3.5703    3.3137 H   0  0  0  0  0  0  0  0  0  0  0  0
   -0.4882    0.8153    0.3281 N   0  0  0  0  0  0  0  0  0  0  0  0
    0.2366    0.0130   -0.6843 C   0  0  2  0  0  0  0  0  0  0  0  0
    0.6754    0.8485   -1.9019 C   0  0  0  0  0  0  0  0  0  0  0  0
    1.2285    0.3031   -2.8445 O   0  0  0  0  0  0  0  0  0  0  0  0
   -0.6397   -1.1820   -1.1122 C   0  0  0  0  0  0  0  0  0  0  0  0
   -0.8515   -2.0792    0.0795 C   0  0  0  0  0  0  0  0  0  0  0  0
    0.0787   -2.9535    0.6410 N   0  3  0  0  0  0  0  0  0  0  0  0
   -1.9644   -2.0875    0.8788 C   0  0  0  0  0  0  0  0  0  0  0  0
   -0.3749   -3.4117    1.7825 C   0  0  0  0  0  0  0  0  0  0  0  0
   -1.6639   -2.9123    1.9509 N   0  0  0  0  0  0  0  0  0  0  0  0
   -1.2574    1.4086    0.0232 H   0  0  0  0  0  0  0  0  0  0  0  0
    1.1704   -0.3695   -0.2579 H   0  0  0  0  0  0  0  0  0  0  0  0
   -0.1558   -1.7465   -1.9174 H   0  0  0  0  0  0  0  0  0  0  0  0
   -1.5987   -0.8202   -1.4969 H   0  0  0  0  0  0  0  0  0  0  0  0
    1.0351   -3.0446    0.2898 H   0  0  0  0  0  0  0  0  0  0  0  0
   -2.8599   -1.4795    0.7619 H   0  0  0  0  0  0  0  0  0  0  0  0
    0.1740   -4.0280    2.4950 H   0  0  0  0  0  0  0  0  0  0  0  0
   -2.1798   -2.8942    2.8391 H   0  0  0  0  0  0  0  0  0  0  0  0
    0.3820    2.1951   -1.9576 N   0  0  0  0  0  0  0  0  0  0  0  0
    0.9264    3.1317   -2.9456 C   0  0  2  0  0  0  0  0  0  0  0  0
    1.0444    4.5354   -2.3120 C   0  0  0  0  0  0  0  0  0  0  0  0
    0.5643    4.7338   -1.1981 O   0  0  0  0  0  0  0  0  0  0  0  0
    0.0059    3.1546   -4.1703 C   0  0  0  0  0  0  0  0  0  0  0  0
    0.0937    2.6261   -1.0795 H   0  0  0  0  0  0  0  0  0  0  0  0
    1.9301    2.8151   -3.2501 H   0  0  0  0  0  0  0  0  0  0  0  0
   -1.0004    3.4803   -3.8881 H   0  0  0  0  0  0  0  0  0  0  0  0
    0.3933    3.8398   -4.9304 H   0  0  0  0  0  0  0  0  0  0  0  0
   -0.0620    2.1556   -4.6129 H   0  0  0  0  0  0  0  0  0  0  0  0
    1.7016    5.5612   -2.9639 N   0  0  0  0  0  0  0  0  0  0  0  0
    1.8386    6.9032   -2.4085 C   0  0  0  0  0  0  0  0  0  0  0  0
    2.1018    5.3650   -3.8775 H   0  0  0  0  0  0  0  0  0  0  0  0
    0.8531    7.3487   -2.2358 H   0  0  0  0  0  0  0  0  0  0  0  0
    2.3820    6.8723   -1.4581 H   0  0  0  0  0  0  0  0  0  0  0  0
    2.3907    7.5467   -3.1006 H   0  0  0  0  0  0  0  0  0  0  0  0
  1  2  2  0  0  0  0
  1  3  1  0  0  0  0
  1  7  1  0  0  0  0
  3  4  1  0  0  0  0
  3  5  1  0  0  0  0
  3  6  1  0  0  0  0
  7  8  1  0  0  0  0
  7 12  1  0  0  0  0
  8  9  1  0  0  0  0
  8 11  1  0  0  0  0
  8 13  1  0  0  0  0
  9 10  2  0  0  0  0
  9 17  1  0  0  0  0
 11 14  1  0  0  0  0
 11 15  1  0  0  0  0
 11 16  1  0  0  0  0
 17 18  1  0  0  0  0
 17 27  1  0  0  0  0
 18 19  1  0  0  0  0
 18 21  1  0  0  0  0
 18 28  1  0  0  0  0
 19 20  2  0  0  0  0
 19 35  1  0  0  0  0
 21 22  1  0  0  0  0
 21 29  1  0  0  0  0
 21 30  1  0  0  0  0
 22 23  1  0  0  0  0
 22 24  2  0  0  0  0
 23 25  2  0  0  0  0
 23 31  1  0  0  0  0
 24 26  1  0  0  0  0
 24 32  1  0  0  0  0
 25 26  1  0  0  0  0
 25 33  1  0  0  0  0
 26 34  1  0  0  0  0
 35 36  1  0  0  0  0
 35 40  1  0  0  0  0
 36 37  1  0  0  0  0
 36 39  1  0  0  0  0
 36 41  1  0  0  0  0
 37 38  2  0  0  0  0
 37 45  1  0  0  0  0
 39 42  1  0  0  0  0
 39 43  1  0  0  0  0
 39 44  1  0  0  0  0
 45 46  1  0  0  0  0
 45 47  1  0  0  0  0
 46 48  1  0  0  0  0
 46 49  1  0  0  0  0
 46 50  1  0  0  0  0
M  CHG  1  23   1
M  END
$$$$

  -OEChem-05262216443D

 50 50  0     1  0  0  0  0  0999 V2000
   -1.5245   -0.0934    4.5659 C   0  0  0  0  0  0  0  0  0  0  0  0
   -2.1772   -0.8626    3.8683 O   0  0  0  0  0  0  0  0  0  0  0  0
   -1.1990   -0.4639    6.0002 C   0  0  0  0  0  0  0  0  0  0  0  0
   -1.7097   -1.3895    6.2788 H   0  0  0  0  0  0  0  0  0  0  0  0
   -0.1215   -0.6068    6.1142 H   0  0  0  0  0  0  0  0  0  0  0  0
   -1.5261    0.3315    6.6746 H   0  0  0  0  0  0  0  0  0  0  0  0
   -1.0509    1.0944    4.0452 N   0  0  0  0  0  0  0  0  0  0  0  0
   -1.2193    1.4993    2.6417 C   0  0  2  0  0  0  0  0  0  0  0  0
   -0.3009    0.7460    1.6494 C   0  0  0  0  0  0  0  0  0  0  0  0
    0.5944    0.0075    2.0475 O   0  0  0  0  0  0  0  0  0  0  0  0
   -0.9614    3.0071    2.5643 C   0  0  0  0  0  0  0  0  0  0  0  0
   -0.3978    1.6185    4.6227 H   0  0  0  0  0  0  0  0  0  0  0  0
   -2.2562    1.3114    2.3434 H   0  0  0  0  0  0  0  0  0  0  0  0
    0.0736    3.2361    2.8391 H   0  0  0  0  0  0  0  0  0  0  0  0
   -1.1384    3.3793    1.5504 H   0  0  0  0  0  0  0  0  0  0  0  0
   -1.6298    3.5433    3.2459 H   0  0  0  0  0  0  0  0  0  0  0  0
   -0.5574    0.8093    0.2862 N   0  0  0  0  0  0  0  0  0  0  0  0
    0.1716    0.0208   -0.7332 C   0  0  2  0  0  0  0  0  0  0  0  0
    0.5679    0.8814   -1.9491 C   0  0  0  0  0  0  0  0  0  0  0  0
    0.8917    0.3533   -3.0020 O   0  0  0  0  0  0  0  0  0  0  0  0
   -0.6875   -1.1946   -1.1441 C   0  0  0  0  0  0  0  0  0  0  0  0
   -0.8646   -2.0904    0.0548 C   0  0  0  0  0  0  0  0  0  0  0  0
    0.0856   -2.9455    0.6126 N   0  3  0  0  0  0  0  0  0  0  0  0
   -1.9676   -2.1080    0.8678 C   0  0  0  0  0  0  0  0  0  0  0  0
   -0.3454   -3.3940    1.7667 C   0  0  0  0  0  0  0  0  0  0  0  0
   -1.6399   -2.9130    1.9467 N   0  0  0  0  0  0  0  0  0  0  0  0
   -1.3149    1.4190   -0.0173 H   0  0  0  0  0  0  0  0  0  0  0  0
    1.1209   -0.3395   -0.3226 H   0  0  0  0  0  0  0  0  0  0  0  0
   -0.2046   -1.7556   -1.9527 H   0  0  0  0  0  0  0  0  0  0  0  0
   -1.6581   -0.8526   -1.5180 H   0  0  0  0  0  0  0  0  0  0  0  0
    1.0384   -3.0269    0.2502 H   0  0  0  0  0  0  0  0  0  0  0  0
   -2.8739   -1.5159    0.7535 H   0  0  0  0  0  0  0  0  0  0  0  0
    0.2232   -3.9901    2.4810 H   0  0  0  0  0  0  0  0  0  0  0  0
   -2.1396   -2.8852    2.8443 H   0  0  0  0  0  0  0  0  0  0  0  0
    0.5172    2.2567   -1.8546 N   0  0  0  0  0  0  0  0  0  0  0  0
    1.0572    3.1911   -2.8474 C   0  0  2  0  0  0  0  0  0  0  0  0
    1.5141    4.4876   -2.1436 C   0  0  0  0  0  0  0  0  0  0  0  0
    1.2189    4.6677   -0.9647 O   0  0  0  0  0  0  0  0  0  0  0  0
   -0.0242    3.4849   -3.8924 C   0  0  0  0  0  0  0  0  0  0  0  0
    0.4215    2.6380   -0.9127 H   0  0  0  0  0  0  0  0  0  0  0  0
    1.9312    2.7510   -3.3401 H   0  0  0  0  0  0  0  0  0  0  0  0
   -0.9047    3.9305   -3.4185 H   0  0  0  0  0  0  0  0  0  0  0  0
    0.3513    4.1788   -4.6506 H   0  0  0  0  0  0  0  0  0  0  0  0
   -0.3287    2.5608   -4.3939 H   0  0  0  0  0  0  0  0  0  0  0  0
    2.2733    5.4310   -2.8088 N   0  0  0  0  0  0  0  0  0  0  0  0
    2.7571    6.6550   -2.1795 C   0  0  0  0  0  0  0  0  0  0  0  0
    2.5220    5.2450   -3.7766 H   0  0  0  0  0  0  0  0  0  0  0  0
    1.9176    7.2587   -1.8186 H   0  0  0  0  0  0  0  0  0  0  0  0
    3.4103    6.4192   -1.3328 H   0  0  0  0  0  0  0  0  0  0  0  0
    3.3268    7.2518   -2.8984 H   0  0  0  0  0  0  0  0  0  0  0  0
  1  2  2  0  0  0  0
  1  3  1  0  0  0  0
  1  7  1  0  0  0  0
  3  4  1  0  0  0  0
  3  5  1  0  0  0  0
  3  6  1  0  0  0  0
  7  8  1  0  0  0  0
  7 12  1  0  0  0  0
  8  9  1  0  0  0  0
  8 11  1  0  0  0  0
  8 13  1  0  0  0  0
  9 10  2  0  0  0  0
  9 17  1  0  0  0  0
 11 14  1  0  0  0  0
 11 15  1  0  0  0  0
 11 16  1  0  0  0  0
 17 18  1  0  0  0  0
 17 27  1  0  0  0  0
 18 19  1  0  0  0  0
 18 21  1  0  0  0  0
 18 28  1  0  0  0  0
 19 20  2  0  0  0  0
 19 35  1  0  0  0  0
 21 22  1  0  0  0  0
 21 29  1  0  0  0  0
 21 30  1  0  0  0  0
 22 23  1  0  0  0  0
 22 24  2  0  0  0  0
 23 25  2  0  0  0  0
 23 31  1  0  0  0  0
 24 26  1  0  0  0  0
 24 32  1  0  0  0  0
 25 26  1  0  0  0  0
 25 33  1  0  0  0  0
 26 34  1  0  0  0  0
 35 36  1  0  0  0  0
 35 40  1  0  0  0  0
 36 37  1  0  0  0  0
 36 39  1  0  0  0  0
 36 41  1  0  0  0  0
 37 38  2  0  0  0  0
 37 45  1  0  0  0  0
 39 42  1  0  0  0  0
 39 43  1  0  0  0  0
 39 44  1  0  0  0  0
 45 46  1  0  0  0  0
 45 47  1  0  0  0  0
 46 48  1  0  0  0  0
 46 49  1  0  0  0  0
 46 50  1  0  0  0  0
M  CHG  1  23   1
M  END
$$$$

  -OEChem-05262216443D

 50 50  0     1  0  0  0  0  0999 V2000
   -1.5030   -0.1031    4.5558 C   0  0  0  0  0  0  0  0  0  0  0  0
   -2.2022   -0.8222    3.8505 O   0  0  0  0  0  0  0  0  0  0  0  0
   -1.1639   -0.5322    5.9704 C   0  0  0  0  0  0  0  0  0  0  0  0
   -1.7096   -1.4426    6.2332 H   0  0  0  0  0  0  0  0  0  0  0  0
   -0.0915   -0.7260    6.0543 H   0  0  0  0  0  0  0  0  0  0  0  0
   -1.4393    0.2554    6.6765 H   0  0  0  0  0  0  0  0  0  0  0  0
   -0.9831    1.0754    4.0596 N   0  0  0  0  0  0  0  0  0  0  0  0
   -1.1455    1.5240    2.6685 C   0  0  2  0  0  0  0  0  0  0  0  0
   -0.2852    0.7422    1.6465 C   0  0  0  0  0  0  0  0  0  0  0  0
    0.5980   -0.0251    2.0169 O   0  0  0  0  0  0  0  0  0  0  0  0
   -0.7910    3.0136    2.6250 C   0  0  0  0  0  0  0  0  0  0  0  0
   -0.2959    1.5499    4.6400 H   0  0  0  0  0  0  0  0  0  0  0  0
   -2.1959    1.4083    2.3800 H   0  0  0  0  0  0  0  0  0  0  0  0
    0.2581    3.1680    2.8990 H   0  0  0  0  0  0  0  0  0  0  0  0
   -0.9476    3.4208    1.6211 H   0  0  0  0  0  0  0  0  0  0  0  0
   -1.4197    3.5755    3.3233 H   0  0  0  0  0  0  0  0  0  0  0  0
   -0.5712    0.8246    0.2900 N   0  0  0  0  0  0  0  0  0  0  0  0
    0.1220    0.0334   -0.7508 C   0  0  2  0  0  0  0  0  0  0  0  0
    0.5024    0.9097   -1.9616 C   0  0  0  0  0  0  0  0  0  0  0  0
    0.5792    0.4282   -3.0818 O   0  0  0  0  0  0  0  0  0  0  0  0
   -0.7772   -1.1568   -1.1537 C   0  0  0  0  0  0  0  0  0  0  0  0
   -0.9557   -2.0635    0.0369 C   0  0  0  0  0  0  0  0  0  0  0  0
   -0.0211   -2.9522    0.5679 N   0  3  0  0  0  0  0  0  0  0  0  0
   -2.0455   -2.0623    0.8676 C   0  0  0  0  0  0  0  0  0  0  0  0
   -0.4490   -3.4124    1.7185 C   0  0  0  0  0  0  0  0  0  0  0  0
   -1.7255   -2.8962    1.9267 N   0  0  0  0  0  0  0  0  0  0  0  0
   -1.3006    1.4759    0.0046 H   0  0  0  0  0  0  0  0  0  0  0  0
    1.0715   -0.3545   -0.3672 H   0  0  0  0  0  0  0  0  0  0  0  0
   -0.3253   -1.7215   -1.9772 H   0  0  0  0  0  0  0  0  0  0  0  0
   -1.7457   -0.7859   -1.5061 H   0  0  0  0  0  0  0  0  0  0  0  0
    0.9220   -3.0578    0.1875 H   0  0  0  0  0  0  0  0  0  0  0  0
   -2.9363   -1.4429    0.7770 H   0  0  0  0  0  0  0  0  0  0  0  0
    0.1098   -4.0425    2.4110 H   0  0  0  0  0  0  0  0  0  0  0  0
   -2.2163   -2.8785    2.8289 H   0  0  0  0  0  0  0  0  0  0  0  0
    0.7738    2.2483   -1.7683 N   0  0  0  0  0  0  0  0  0  0  0  0
    1.3067    3.1726   -2.7761 C   0  0  2  0  0  0  0  0  0  0  0  0
    1.9511    4.3893   -2.0766 C   0  0  0  0  0  0  0  0  0  0  0  0
    1.7748    4.5546   -0.8725 O   0  0  0  0  0  0  0  0  0  0  0  0
    0.1754    3.6258   -3.7070 C   0  0  0  0  0  0  0  0  0  0  0  0
    0.8257    2.5731   -0.8017 H   0  0  0  0  0  0  0  0  0  0  0  0
    2.0824    2.6694   -3.3634 H   0  0  0  0  0  0  0  0  0  0  0  0
   -0.6149    4.1235   -3.1363 H   0  0  0  0  0  0  0  0  0  0  0  0
    0.5537    4.3242   -4.4596 H   0  0  0  0  0  0  0  0  0  0  0  0
   -0.2597    2.7674   -4.2282 H   0  0  0  0  0  0  0  0  0  0  0  0
    2.7383    5.2828   -2.7781 N   0  0  0  0  0  0  0  0  0  0  0  0
    3.3772    6.4403   -2.1606 C   0  0  0  0  0  0  0  0  0  0  0  0
    2.8796    5.1157   -3.7706 H   0  0  0  0  0  0  0  0  0  0  0  0
    2.6245    7.1107   -1.7316 H   0  0  0  0  0  0  0  0  0  0  0  0
    4.0597    6.1235   -1.3647 H   0  0  0  0  0  0  0  0  0  0  0  0
    3.9523    6.9997   -2.9052 H   0  0  0  0  0  0  0  0  0  0  0  0
  1  2  2  0  0  0  0
  1  3  1  0  0  0  0
  1  7  1  0  0  0  0
  3  4  1  0  0  0  0
  3  5  1  0  0  0  0
  3  6  1  0  0  0  0
  7  8  1  0  0  0  0
  7 12  1  0  0  0  0
  8  9  1  0  0  0  0
  8 11  1  0  0  0  0
  8 13  1  0  0  0  0
  9 10  2  0  0  0  0
  9 17  1  0  0  0  0
 11 14  1  0  0  0  0
 11 15  1  0  0  0  0
 11 16  1  0  0  0  0
 17 18  1  0  0  0  0
 17 27  1  0  0  0  0
 18 19  1  0  0  0  0
 18 21  1  0  0  0  0
 18 28  1  0  0  0  0
 19 20  2  0  0  0  0
 19 35  1  0  0  0  0
 21 22  1  0  0  0  0
 21 29  1  0  0  0  0
 21 30  1  0  0  0  0
 22 23  1  0  0  0  0
 22 24  2  0  0  0  0
 23 25  2  0  0  0  0
 23 31  1  0  0  0  0
 24 26  1  0  0  0  0
 24 32  1  0  0  0  0
 25 26  1  0  0  0  0
 25 33  1  0  0  0  0
 26 34  1  0  0  0  0
 35 36  1  0  0  0  0
 35 40  1  0  0  0  0
 36 37  1  0  0  0  0
 36 39  1  0  0  0  0
 36 41  1  0  0  0  0
 37 38  2  0  0  0  0
 37 45  1  0  0  0  0
 39 42  1  0  0  0  0
 39 43  1  0  0  0  0
 39 44  1  0  0  0  0
 45 46  1  0  0  0  0
 45 47  1  0  0  0  0
 46 48  1  0  0  0  0
 46 49  1  0  0  0  0
 46 50  1  0  0  0  0
M  CHG  1  23   1
M  END
$$$$

  -OEChem-05262216443D

 50 50  0     1  0  0  0  0  0999 V2000
   -1.7851   -0.4030    4.5157 C   0  0  0  0  0  0  0  0  0  0  0  0
   -2.1206   -1.3083    3.7604 O   0  0  0  0  0  0  0  0  0  0  0  0
   -1.4410   -0.7141    5.9596 C   0  0  0  0  0  0  0  0  0  0  0  0
   -1.6325   -1.7686    6.1776 H   0  0  0  0  0  0  0  0  0  0  0  0
   -0.3856   -0.5004    6.1466 H   0  0  0  0  0  0  0  0  0  0  0  0
   -2.0519   -0.1032    6.6293 H   0  0  0  0  0  0  0  0  0  0  0  0
   -1.6841    0.8941    4.0543 N   0  0  0  0  0  0  0  0  0  0  0  0
   -1.8964    1.2879    2.6530 C   0  0  2  0  0  0  0  0  0  0  0  0
   -0.7078    0.9648    1.7146 C   0  0  0  0  0  0  0  0  0  0  0  0
    0.3609    0.5681    2.1661 O   0  0  0  0  0  0  0  0  0  0  0  0
   -2.1948    2.7893    2.6441 C   0  0  0  0  0  0  0  0  0  0  0  0
   -1.2613    1.5700    4.6859 H   0  0  0  0  0  0  0  0  0  0  0  0
   -2.7751    0.7606    2.2666 H   0  0  0  0  0  0  0  0  0  0  0  0
   -1.3320    3.3561    3.0097 H   0  0  0  0  0  0  0  0  0  0  0  0
   -2.4304    3.1307    1.6312 H   0  0  0  0  0  0  0  0  0  0  0  0
   -3.0533    3.0091    3.2872 H   0  0  0  0  0  0  0  0  0  0  0  0
   -0.8814    0.9909    0.3368 N   0  0  0  0  0  0  0  0  0  0  0  0
    0.1198    0.5034   -0.6370 C   0  0  2  0  0  0  0  0  0  0  0  0
    0.3021    1.4874   -1.8108 C   0  0  0  0  0  0  0  0  0  0  0  0
    0.3356    1.0788   -2.9632 O   0  0  0  0  0  0  0  0  0  0  0  0
   -0.2658   -0.9174   -1.1058 C   0  0  0  0  0  0  0  0  0  0  0  0
   -0.2090   -1.8535    0.0731 C   0  0  0  0  0  0  0  0  0  0  0  0
    0.9367   -2.3631    0.6842 N   0  3  0  0  0  0  0  0  0  0  0  0
   -1.2906   -2.2773    0.7991 C   0  0  0  0  0  0  0  0  0  0  0  0
    0.6102   -2.9838    1.7918 C   0  0  0  0  0  0  0  0  0  0  0  0
   -0.7793   -2.9755    1.8814 N   0  0  0  0  0  0  0  0  0  0  0  0
   -1.7782    1.3209   -0.0149 H   0  0  0  0  0  0  0  0  0  0  0  0
    1.1073    0.4532   -0.1653 H   0  0  0  0  0  0  0  0  0  0  0  0
    0.4235   -1.2675   -1.8827 H   0  0  0  0  0  0  0  0  0  0  0  0
   -1.2700   -0.9034   -1.5428 H   0  0  0  0  0  0  0  0  0  0  0  0
    1.8819   -2.0996    0.3957 H   0  0  0  0  0  0  0  0  0  0  0  0
   -2.3355   -2.0260    0.6246 H   0  0  0  0  0  0  0  0  0  0  0  0
    1.2999   -3.3870    2.5339 H   0  0  0  0  0  0  0  0  0  0  0  0
   -1.3174   -3.1658    2.7356 H   0  0  0  0  0  0  0  0  0  0  0  0
    0.4185    2.8405   -1.5564 N   0  0  0  0  0  0  0  0  0  0  0  0
    1.0123    3.7537   -2.5454 C   0  0  2  0  0  0  0  0  0  0  0  0
    2.5542    3.7590   -2.4496 C   0  0  0  0  0  0  0  0  0  0  0  0
    3.1003    3.3762   -1.4202 O   0  0  0  0  0  0  0  0  0  0  0  0
    0.4529    5.1548   -2.2880 C   0  0  0  0  0  0  0  0  0  0  0  0
    0.6215    3.0585   -0.5830 H   0  0  0  0  0  0  0  0  0  0  0  0
    0.7333    3.4527   -3.5611 H   0  0  0  0  0  0  0  0  0  0  0  0
    0.7244    5.4997   -1.2850 H   0  0  0  0  0  0  0  0  0  0  0  0
    0.8522    5.8662   -3.0178 H   0  0  0  0  0  0  0  0  0  0  0  0
   -0.6382    5.1500   -2.3732 H   0  0  0  0  0  0  0  0  0  0  0  0
    3.3290    4.1995   -3.5061 N   0  0  0  0  0  0  0  0  0  0  0  0
    4.7878    4.1979   -3.4807 C   0  0  0  0  0  0  0  0  0  0  0  0
    2.8544    4.4584   -4.3667 H   0  0  0  0  0  0  0  0  0  0  0  0
    5.1585    4.8002   -2.6443 H   0  0  0  0  0  0  0  0  0  0  0  0
    5.1681    3.1765   -3.3740 H   0  0  0  0  0  0  0  0  0  0  0  0
    5.1844    4.6189   -4.4099 H   0  0  0  0  0  0  0  0  0  0  0  0
  1  2  2  0  0  0  0
  1  3  1  0  0  0  0
  1  7  1  0  0  0  0
  3  4  1  0  0  0  0
  3  5  1  0  0  0  0
  3  6  1  0  0  0  0
  7  8  1  0  0  0  0
  7 12  1  0  0  0  0
  8  9  1  0  0  0  0
  8 11  1  0  0  0  0
  8 13  1  0  0  0  0
  9 10  2  0  0  0  0
  9 17  1  0  0  0  0
 11 14  1  0  0  0  0
 11 15  1  0  0  0  0
 11 16  1  0  0  0  0
 17 18  1  0  0  0  0
 17 27  1  0  0  0  0
 18 19  1  0  0  0  0
 18 21  1  0  0  0  0
 18 28  1  0  0  0  0
 19 20  2  0  0  0  0
 19 35  1  0  0  0  0
 21 22  1  0  0  0  0
 21 29  1  0  0  0  0
 21 30  1  0  0  0  0
 22 23  1  0  0  0  0
 22 24  2  0  0  0  0
 23 25  2  0  0  0  0
 23 31  1  0  0  0  0
 24 26  1  0  0  0  0
 24 32  1  0  0  0  0
 25 26  1  0  0  0  0
 25 33  1  0  0  0  0
 26 34  1  0  0  0  0
 35 36  1  0  0  0  0
 35 40  1  0  0  0  0
 36 37  1  0  0  0  0
 36 39  1  0  0  0  0
 36 41  1  0  0  0  0
 37 38  2  0  0  0  0
 37 45  1  0  0  0  0
 39 42  1  0  0  0  0
 39 43  1  0  0  0  0
 39 44  1  0  0  0  0
 45 46  1  0  0  0  0
 45 47  1  0  0  0  0
 46 48  1  0  0  0  0
 46 49  1  0  0  0  0
 46 50  1  0  0  0  0
M  CHG  1  23   1
M  END
$$$$

  -OEChem-05262216443D

 50 50  0     1  0  0  0  0  0999 V2000
   -1.8149   -0.4869    4.4883 C   0  0  0  0  0  0  0  0  0  0  0  0
   -2.1234   -1.3674    3.6931 O   0  0  0  0  0  0  0  0  0  0  0  0
   -1.4814   -0.8485    5.9228 C   0  0  0  0  0  0  0  0  0  0  0  0
   -1.7176   -1.8989    6.1145 H   0  0  0  0  0  0  0  0  0  0  0  0
   -0.4175   -0.6844    6.1114 H   0  0  0  0  0  0  0  0  0  0  0  0
   -2.0645   -0.2299    6.6101 H   0  0  0  0  0  0  0  0  0  0  0  0
   -1.7305    0.8290    4.0804 N   0  0  0  0  0  0  0  0  0  0  0  0
   -1.9363    1.2747    2.6941 C   0  0  2  0  0  0  0  0  0  0  0  0
   -0.7420    0.9896    1.7513 C   0  0  0  0  0  0  0  0  0  0  0  0
    0.3363    0.6096    2.1951 O   0  0  0  0  0  0  0  0  0  0  0  0
   -2.2306    2.7763    2.7376 C   0  0  0  0  0  0  0  0  0  0  0  0
   -1.3246    1.4855    4.7427 H   0  0  0  0  0  0  0  0  0  0  0  0
   -2.8136    0.7624    2.2845 H   0  0  0  0  0  0  0  0  0  0  0  0
   -1.3687    3.3260    3.1304 H   0  0  0  0  0  0  0  0  0  0  0  0
   -2.4555    3.1549    1.7356 H   0  0  0  0  0  0  0  0  0  0  0  0
   -3.0941    2.9765    3.3803 H   0  0  0  0  0  0  0  0  0  0  0  0
   -0.9117    1.0584    0.3752 N   0  0  0  0  0  0  0  0  0  0  0  0
    0.1032    0.6326   -0.6112 C   0  0  2  0  0  0  0  0  0  0  0  0
    0.2549    1.6659   -1.7436 C   0  0  0  0  0  0  0  0  0  0  0  0
    0.0671    1.3470   -2.9097 O   0  0  0  0  0  0  0  0  0  0  0  0
   -0.2397   -0.7791   -1.1350 C   0  0  0  0  0  0  0  0  0  0  0  0
   -0.1595   -1.7562    0.0085 C   0  0  0  0  0  0  0  0  0  0  0  0
    0.9986   -2.2550    0.6049 N   0  3  0  0  0  0  0  0  0  0  0  0
   -1.2302   -2.2282    0.7201 C   0  0  0  0  0  0  0  0  0  0  0  0
    0.6872   -2.9189    1.6917 C   0  0  0  0  0  0  0  0  0  0  0  0
   -0.7022   -2.9465    1.7807 N   0  0  0  0  0  0  0  0  0  0  0  0
   -1.8134    1.3844    0.0316 H   0  0  0  0  0  0  0  0  0  0  0  0
    1.0917    0.5897   -0.1405 H   0  0  0  0  0  0  0  0  0  0  0  0
    0.4602   -1.0761   -1.9243 H   0  0  0  0  0  0  0  0  0  0  0  0
   -1.2434   -0.7777   -1.5738 H   0  0  0  0  0  0  0  0  0  0  0  0
    1.9376   -1.9644    0.3216 H   0  0  0  0  0  0  0  0  0  0  0  0
   -2.2804   -1.9952    0.5532 H   0  0  0  0  0  0  0  0  0  0  0  0
    1.3864   -3.3310    2.4199 H   0  0  0  0  0  0  0  0  0  0  0  0
   -1.2364   -3.1802    2.6264 H   0  0  0  0  0  0  0  0  0  0  0  0
    0.6406    2.9554   -1.4326 N   0  0  0  0  0  0  0  0  0  0  0  0
    1.3096    3.7978   -2.4350 C   0  0  2  0  0  0  0  0  0  0  0  0
    2.8027    3.4233   -2.5783 C   0  0  0  0  0  0  0  0  0  0  0  0
    3.3610    2.7853   -1.6909 O   0  0  0  0  0  0  0  0  0  0  0  0
    1.1579    5.2569   -1.9982 C   0  0  0  0  0  0  0  0  0  0  0  0
    0.9681    3.0679   -0.4756 H   0  0  0  0  0  0  0  0  0  0  0  0
    0.8306    3.6770   -3.4129 H   0  0  0  0  0  0  0  0  0  0  0  0
    1.6439    5.4218   -1.0310 H   0  0  0  0  0  0  0  0  0  0  0  0
    1.6146    5.9268   -2.7333 H   0  0  0  0  0  0  0  0  0  0  0  0
    0.0989    5.5174   -1.9065 H   0  0  0  0  0  0  0  0  0  0  0  0
    3.5212    3.7998   -3.6971 N   0  0  0  0  0  0  0  0  0  0  0  0
    4.9215    3.4468   -3.9045 C   0  0  0  0  0  0  0  0  0  0  0  0
    3.0216    4.2785   -4.4412 H   0  0  0  0  0  0  0  0  0  0  0  0
    5.5388    3.8228   -3.0815 H   0  0  0  0  0  0  0  0  0  0  0  0
    5.0385    2.3595   -3.9642 H   0  0  0  0  0  0  0  0  0  0  0  0
    5.2887    3.8853   -4.8375 H   0  0  0  0  0  0  0  0  0  0  0  0
  1  2  2  0  0  0  0
  1  3  1  0  0  0  0
  1  7  1  0  0  0  0
  3  4  1  0  0  0  0
  3  5  1  0  0  0  0
  3  6  1  0  0  0  0
  7  8  1  0  0  0  0
  7 12  1  0  0  0  0
  8  9  1  0  0  0  0
  8 11  1  0  0  0  0
  8 13  1  0  0  0  0
  9 10  2  0  0  0  0
  9 17  1  0  0  0  0
 11 14  1  0  0  0  0
 11 15  1  0  0  0  0
 11 16  1  0  0  0  0
 17 18  1  0  0  0  0
 17 27  1  0  0  0  0
 18 19  1  0  0  0  0
 18 21  1  0  0  0  0
 18 28  1  0  0  0  0
 19 20  2  0  0  0  0
 19 35  1  0  0  0  0
 21 22  1  0  0  0  0
 21 29  1  0  0  0  0
 21 30  1  0  0  0  0
 22 23  1  0  0  0  0
 22 24  2  0  0  0  0
 23 25  2  0  0  0  0
 23 31  1  0  0  0  0
 24 26  1  0  0  0  0
 24 32  1  0  0  0  0
 25 26  1  0  0  0  0
 25 33  1  0  0  0  0
 26 34  1  0  0  0  0
 35 36  1  0  0  0  0
 35 40  1  0  0  0  0
 36 37  1  0  0  0  0
 36 39  1  0  0  0  0
 36 41  1  0  0  0  0
 37 38  2  0  0  0  0
 37 45  1  0  0  0  0
 39 42  1  0  0  0  0
 39 43  1  0  0  0  0
 39 44  1  0  0  0  0
 45 46  1  0  0  0  0
 45 47  1  0  0  0  0
 46 48  1  0  0  0  0
 46 49  1  0  0  0  0
 46 50  1  0  0  0  0
M  CHG  1  23   1
M  END
$$$$

  -OEChem-05262216443D

 50 50  0     1  0  0  0  0  0999 V2000
   -1.8431   -0.5889    4.4660 C   0  0  0  0  0  0  0  0  0  0  0  0
   -2.1425   -1.4252    3.6215 O   0  0  0  0  0  0  0  0  0  0  0  0
   -1.5419   -1.0272    5.8866 C   0  0  0  0  0  0  0  0  0  0  0  0
   -1.7214   -2.1001    5.9995 H   0  0  0  0  0  0  0  0  0  0  0  0
   -0.4976   -0.8163    6.1297 H   0  0  0  0  0  0  0  0  0  0  0  0
   -2.1861   -0.4905    6.5879 H   0  0  0  0  0  0  0  0  0  0  0  0
   -1.7466    0.7457    4.1267 N   0  0  0  0  0  0  0  0  0  0  0  0
   -1.9428    1.2653    2.7642 C   0  0  2  0  0  0  0  0  0  0  0  0
   -0.7429    1.0323    1.8138 C   0  0  0  0  0  0  0  0  0  0  0  0
    0.3378    0.6419    2.2436 O   0  0  0  0  0  0  0  0  0  0  0  0
   -2.2410    2.7618    2.8861 C   0  0  0  0  0  0  0  0  0  0  0  0
   -1.3547    1.3680    4.8291 H   0  0  0  0  0  0  0  0  0  0  0  0
   -2.8166    0.7750    2.3215 H   0  0  0  0  0  0  0  0  0  0  0  0
   -1.3843    3.2913    3.3159 H   0  0  0  0  0  0  0  0  0  0  0  0
   -2.4570    3.1938    1.9040 H   0  0  0  0  0  0  0  0  0  0  0  0
   -3.1113    2.9252    3.5301 H   0  0  0  0  0  0  0  0  0  0  0  0
   -0.9100    1.1585    0.4415 N   0  0  0  0  0  0  0  0  0  0  0  0
    0.1085    0.7820   -0.5597 C   0  0  2  0  0  0  0  0  0  0  0  0
    0.2590    1.8602   -1.6483 C   0  0  0  0  0  0  0  0  0  0  0  0
   -0.1459    1.6544   -2.7845 O   0  0  0  0  0  0  0  0  0  0  0  0
   -0.2302   -0.6021   -1.1528 C   0  0  0  0  0  0  0  0  0  0  0  0
   -0.1530   -1.6333   -0.0582 C   0  0  0  0  0  0  0  0  0  0  0  0
    1.0060   -2.1562    0.5145 N   0  3  0  0  0  0  0  0  0  0  0  0
   -1.2233   -2.1418    0.6287 C   0  0  0  0  0  0  0  0  0  0  0  0
    0.6956   -2.8745    1.5663 C   0  0  0  0  0  0  0  0  0  0  0  0
   -0.6939   -2.9108    1.6526 N   0  0  0  0  0  0  0  0  0  0  0  0
   -1.8135    1.4904    0.1080 H   0  0  0  0  0  0  0  0  0  0  0  0
    1.0955    0.7144   -0.0893 H   0  0  0  0  0  0  0  0  0  0  0  0
    0.4726   -0.8568   -1.9545 H   0  0  0  0  0  0  0  0  0  0  0  0
   -1.2331   -0.5819   -1.5931 H   0  0  0  0  0  0  0  0  0  0  0  0
    1.9440   -1.8478    0.2466 H   0  0  0  0  0  0  0  0  0  0  0  0
   -2.2738   -1.9014    0.4739 H   0  0  0  0  0  0  0  0  0  0  0  0
    1.3961   -3.3201    2.2727 H   0  0  0  0  0  0  0  0  0  0  0  0
   -1.2286   -3.1908    2.4836 H   0  0  0  0  0  0  0  0  0  0  0  0
    0.9260    3.0338   -1.3538 N   0  0  0  0  0  0  0  0  0  0  0  0
    1.6400    3.7597   -2.4148 C   0  0  2  0  0  0  0  0  0  0  0  0
    2.9775    3.0670   -2.7662 C   0  0  0  0  0  0  0  0  0  0  0  0
    3.4515    2.2257   -2.0073 O   0  0  0  0  0  0  0  0  0  0  0  0
    1.8826    5.1907   -1.9289 C   0  0  0  0  0  0  0  0  0  0  0  0
    1.3749    3.0380   -0.4406 H   0  0  0  0  0  0  0  0  0  0  0  0
    1.0274    3.8016   -3.3223 H   0  0  0  0  0  0  0  0  0  0  0  0
    2.5110    5.1917   -1.0324 H   0  0  0  0  0  0  0  0  0  0  0  0
    2.3844    5.7786   -2.7038 H   0  0  0  0  0  0  0  0  0  0  0  0
    0.9315    5.6769   -1.6903 H   0  0  0  0  0  0  0  0  0  0  0  0
    3.6474    3.3786   -3.9340 N   0  0  0  0  0  0  0  0  0  0  0  0
    4.8905    2.7321   -4.3388 C   0  0  0  0  0  0  0  0  0  0  0  0
    3.2070    4.0359   -4.5719 H   0  0  0  0  0  0  0  0  0  0  0  0
    5.6655    2.8803   -3.5790 H   0  0  0  0  0  0  0  0  0  0  0  0
    4.7350    1.6570   -4.4786 H   0  0  0  0  0  0  0  0  0  0  0  0
    5.2490    3.1552   -5.2826 H   0  0  0  0  0  0  0  0  0  0  0  0
  1  2  2  0  0  0  0
  1  3  1  0  0  0  0
  1  7  1  0  0  0  0
  3  4  1  0  0  0  0
  3  5  1  0  0  0  0
  3  6  1  0  0  0  0
  7  8  1  0  0  0  0
  7 12  1  0  0  0  0
  8  9  1  0  0  0  0
  8 11  1  0  0  0  0
  8 13  1  0  0  0  0
  9 10  2  0  0  0  0
  9 17  1  0  0  0  0
 11 14  1  0  0  0  0
 11 15  1  0  0  0  0
 11 16  1  0  0  0  0
 17 18  1  0  0  0  0
 17 27  1  0  0  0  0
 18 19  1  0  0  0  0
 18 21  1  0  0  0  0
 18 28  1  0  0  0  0
 19 20  2  0  0  0  0
 19 35  1  0  0  0  0
 21 22  1  0  0  0  0
 21 29  1  0  0  0  0
 21 30  1  0  0  0  0
 22 23  1  0  0  0  0
 22 24  2  0  0  0  0
 23 25  2  0  0  0  0
 23 31  1  0  0  0  0
 24 26  1  0  0  0  0
 24 32  1  0  0  0  0
 25 26  1  0  0  0  0
 25 33  1  0  0  0  0
 26 34  1  0  0  0  0
 35 36  1  0  0  0  0
 35 40  1  0  0  0  0
 36 37  1  0  0  0  0
 36 39  1  0  0  0  0
 36 41  1  0  0  0  0
 37 38  2  0  0  0  0
 37 45  1  0  0  0  0
 39 42  1  0  0  0  0
 39 43  1  0  0  0  0
 39 44  1  0  0  0  0
 45 46  1  0  0  0  0
 45 47  1  0  0  0  0
 46 48  1  0  0  0  0
 46 49  1  0  0  0  0
 46 50  1  0  0  0  0
M  CHG  1  23   1
M  END
$$$$

  -OEChem-05262216443D

 50 50  0     1  0  0  0  0  0999 V2000
   -1.8476   -0.6793    4.4119 C   0  0  0  0  0  0  0  0  0  0  0  0
   -2.1490   -1.4550    3.5120 O   0  0  0  0  0  0  0  0  0  0  0  0
   -1.5484   -1.2145    5.7991 C   0  0  0  0  0  0  0  0  0  0  0  0
   -1.7846   -2.2808    5.8537 H   0  0  0  0  0  0  0  0  0  0  0  0
   -0.4905   -1.0738    6.0338 H   0  0  0  0  0  0  0  0  0  0  0  0
   -2.1516   -0.6863    6.5418 H   0  0  0  0  0  0  0  0  0  0  0  0
   -1.7440    0.6748    4.1647 N   0  0  0  0  0  0  0  0  0  0  0  0
   -1.9289    1.2848    2.8393 C   0  0  2  0  0  0  0  0  0  0  0  0
   -0.7383    1.0789    1.8718 C   0  0  0  0  0  0  0  0  0  0  0  0
    0.3403    0.6556    2.2758 O   0  0  0  0  0  0  0  0  0  0  0  0
   -2.1812    2.7791    3.0560 C   0  0  0  0  0  0  0  0  0  0  0  0
   -1.3554    1.2473    4.9098 H   0  0  0  0  0  0  0  0  0  0  0  0
   -2.8175    0.8483    2.3706 H   0  0  0  0  0  0  0  0  0  0  0  0
   -1.3066    3.2545    3.5121 H   0  0  0  0  0  0  0  0  0  0  0  0
   -2.3884    3.2775    2.1038 H   0  0  0  0  0  0  0  0  0  0  0  0
   -3.0427    2.9286    3.7149 H   0  0  0  0  0  0  0  0  0  0  0  0
   -0.9097    1.2799    0.5095 N   0  0  0  0  0  0  0  0  0  0  0  0
    0.1029    0.9565   -0.5140 C   0  0  2  0  0  0  0  0  0  0  0  0
    0.2566    2.0876   -1.5451 C   0  0  0  0  0  0  0  0  0  0  0  0
   -0.3373    2.0317   -2.6135 O   0  0  0  0  0  0  0  0  0  0  0  0
   -0.2429   -0.3854   -1.1911 C   0  0  0  0  0  0  0  0  0  0  0  0
   -0.1709   -1.4850   -0.1655 C   0  0  0  0  0  0  0  0  0  0  0  0
    0.9865   -2.0490    0.3701 N   0  3  0  0  0  0  0  0  0  0  0  0
   -1.2426   -2.0293    0.4905 C   0  0  0  0  0  0  0  0  0  0  0  0
    0.6744   -2.8353    1.3716 C   0  0  0  0  0  0  0  0  0  0  0  0
   -0.7154   -2.8674    1.4598 N   0  0  0  0  0  0  0  0  0  0  0  0
   -1.8087    1.6436    0.1977 H   0  0  0  0  0  0  0  0  0  0  0  0
    1.0895    0.8524   -0.0499 H   0  0  0  0  0  0  0  0  0  0  0  0
    0.4584   -0.5901   -2.0083 H   0  0  0  0  0  0  0  0  0  0  0  0
   -1.2465   -0.3329   -1.6276 H   0  0  0  0  0  0  0  0  0  0  0  0
    1.9258   -1.7331    0.1150 H   0  0  0  0  0  0  0  0  0  0  0  0
   -2.2918   -1.7719    0.3545 H   0  0  0  0  0  0  0  0  0  0  0  0
    1.3736   -3.3342    2.0430 H   0  0  0  0  0  0  0  0  0  0  0  0
   -1.2509   -3.2039    2.2687 H   0  0  0  0  0  0  0  0  0  0  0  0
    1.1777    3.0909   -1.3147 N   0  0  0  0  0  0  0  0  0  0  0  0
    1.9297    3.6526   -2.4463 C   0  0  2  0  0  0  0  0  0  0  0  0
    3.0286    2.6741   -2.9277 C   0  0  0  0  0  0  0  0  0  0  0  0
    3.3251    1.6958   -2.2448 O   0  0  0  0  0  0  0  0  0  0  0  0
    2.5420    4.9812   -1.9949 C   0  0  0  0  0  0  0  0  0  0  0  0
    1.7100    2.9719   -0.4560 H   0  0  0  0  0  0  0  0  0  0  0  0
    1.2554    3.8510   -3.2869 H   0  0  0  0  0  0  0  0  0  0  0  0
    3.2424    4.8223   -1.1686 H   0  0  0  0  0  0  0  0  0  0  0  0
    3.0820    5.4551   -2.8206 H   0  0  0  0  0  0  0  0  0  0  0  0
    1.7566    5.6667   -1.6606 H   0  0  0  0  0  0  0  0  0  0  0  0
    3.6769    2.8777   -4.1310 N   0  0  0  0  0  0  0  0  0  0  0  0
    4.6976    1.9757   -4.6530 C   0  0  0  0  0  0  0  0  0  0  0  0
    3.3832    3.6668   -4.7002 H   0  0  0  0  0  0  0  0  0  0  0  0
    5.5322    1.8921   -3.9487 H   0  0  0  0  0  0  0  0  0  0  0  0
    4.2779    0.9783   -4.8216 H   0  0  0  0  0  0  0  0  0  0  0  0
    5.0865    2.3522   -5.6043 H   0  0  0  0  0  0  0  0  0  0  0  0
  1  2  2  0  0  0  0
  1  3  1  0  0  0  0
  1  7  1  0  0  0  0
  3  4  1  0  0  0  0
  3  5  1  0  0  0  0
  3  6  1  0  0  0  0
  7  8  1  0  0  0  0
  7 12  1  0  0  0  0
  8  9  1  0  0  0  0
  8 11  1  0  0  0  0
  8 13  1  0  0  0  0
  9 10  2  0  0  0  0
  9 17  1  0  0  0  0
 11 14  1  0  0  0  0
 11 15  1  0  0  0  0
 11 16  1  0  0  0  0
 17 18  1  0  0  0  0
 17 27  1  0  0  0  0
 18 19  1  0  0  0  0
 18 21  1  0  0  0  0
 18 28  1  0  0  0  0
 19 20  2  0  0  0  0
 19 35  1  0  0  0  0
 21 22  1  0  0  0  0
 21 29  1  0  0  0  0
 21 30  1  0  0  0  0
 22 23  1  0  0  0  0
 22 24  2  0  0  0  0
 23 25  2  0  0  0  0
 23 31  1  0  0  0  0
 24 26  1  0  0  0  0
 24 32  1  0  0  0  0
 25 26  1  0  0  0  0
 25 33  1  0  0  0  0
 26 34  1  0  0  0  0
 35 36  1  0  0  0  0
 35 40  1  0  0  0  0
 36 37  1  0  0  0  0
 36 39  1  0  0  0  0
 36 41  1  0  0  0  0
 37 38  2  0  0  0  0
 37 45  1  0  0  0  0
 39 42  1  0  0  0  0
 39 43  1  0  0  0  0
 39 44  1  0  0  0  0
 45 46  1  0  0  0  0
 45 47  1  0  0  0  0
 46 48  1  0  0  0  0
 46 49  1  0  0  0  0
 46 50  1  0  0  0  0
M  CHG  1  23   1
M  END
$$$$

  -OEChem-05262216443D

 50 50  0     1  0  0  0  0  0999 V2000
   -1.9311   -0.7333    4.3743 C   0  0  0  0  0  0  0  0  0  0  0  0
   -2.2235   -1.4698    3.4390 O   0  0  0  0  0  0  0  0  0  0  0  0
   -1.6841   -1.3230    5.7495 C   0  0  0  0  0  0  0  0  0  0  0  0
   -1.9435   -2.3852    5.7594 H   0  0  0  0  0  0  0  0  0  0  0  0
   -0.6309   -1.2137    6.0196 H   0  0  0  0  0  0  0  0  0  0  0  0
   -2.2977   -0.8077    6.4929 H   0  0  0  0  0  0  0  0  0  0  0  0
   -1.7890    0.6261    4.1806 N   0  0  0  0  0  0  0  0  0  0  0  0
   -1.9147    1.2887    2.8736 C   0  0  2  0  0  0  0  0  0  0  0  0
   -0.6971    1.0888    1.9384 C   0  0  0  0  0  0  0  0  0  0  0  0
    0.3487    0.5987    2.3539 O   0  0  0  0  0  0  0  0  0  0  0  0
   -2.1419    2.7794    3.1380 C   0  0  0  0  0  0  0  0  0  0  0  0
   -1.4138    1.1620    4.9591 H   0  0  0  0  0  0  0  0  0  0  0  0
   -2.7968    0.8917    2.3598 H   0  0  0  0  0  0  0  0  0  0  0  0
   -1.2707    3.2190    3.6349 H   0  0  0  0  0  0  0  0  0  0  0  0
   -2.3124    3.3164    2.1995 H   0  0  0  0  0  0  0  0  0  0  0  0
   -3.0184    2.9236    3.7782 H   0  0  0  0  0  0  0  0  0  0  0  0
   -0.8163    1.3566    0.5823 N   0  0  0  0  0  0  0  0  0  0  0  0
    0.2180    1.0483   -0.4229 C   0  0  2  0  0  0  0  0  0  0  0  0
    0.4395    2.2184   -1.3944 C   0  0  0  0  0  0  0  0  0  0  0  0
   -0.3081    2.3609   -2.3526 O   0  0  0  0  0  0  0  0  0  0  0  0
   -0.1559   -0.2371   -1.1882 C   0  0  0  0  0  0  0  0  0  0  0  0
   -0.1643   -1.3928   -0.2238 C   0  0  0  0  0  0  0  0  0  0  0  0
    0.9491   -2.0331    0.3183 N   0  3  0  0  0  0  0  0  0  0  0  0
   -1.2791   -1.9087    0.3816 C   0  0  0  0  0  0  0  0  0  0  0  0
    0.5715   -2.8392    1.2807 C   0  0  0  0  0  0  0  0  0  0  0  0
   -0.8203   -2.8064    1.3322 N   0  0  0  0  0  0  0  0  0  0  0  0
   -1.6799    1.7921    0.2613 H   0  0  0  0  0  0  0  0  0  0  0  0
    1.1822    0.8803    0.0676 H   0  0  0  0  0  0  0  0  0  0  0  0
    0.5656   -0.4235   -1.9925 H   0  0  0  0  0  0  0  0  0  0  0  0
   -1.1405   -0.1189   -1.6543 H   0  0  0  0  0  0  0  0  0  0  0  0
    1.9093   -1.7612    0.0928 H   0  0  0  0  0  0  0  0  0  0  0  0
   -2.3094   -1.5906    0.2314 H   0  0  0  0  0  0  0  0  0  0  0  0
    1.2261   -3.3966    1.9511 H   0  0  0  0  0  0  0  0  0  0  0  0
   -1.3913   -3.1361    2.1201 H   0  0  0  0  0  0  0  0  0  0  0  0
    1.5698    3.0023   -1.2697 N   0  0  0  0  0  0  0  0  0  0  0  0
    2.2480    3.4830   -2.4812 C   0  0  2  0  0  0  0  0  0  0  0  0
    3.0207    2.3390   -3.1823 C   0  0  0  0  0  0  0  0  0  0  0  0
    3.1913    1.2662   -2.6054 O   0  0  0  0  0  0  0  0  0  0  0  0
    3.1981    4.6093   -2.0671 C   0  0  0  0  0  0  0  0  0  0  0  0
    2.1856    2.7243   -0.5098 H   0  0  0  0  0  0  0  0  0  0  0  0
    1.5163    3.8875   -3.1896 H   0  0  0  0  0  0  0  0  0  0  0  0
    3.9612    4.2350   -1.3769 H   0  0  0  0  0  0  0  0  0  0  0  0
    3.6999    5.0308   -2.9437 H   0  0  0  0  0  0  0  0  0  0  0  0
    2.6416    5.4113   -1.5713 H   0  0  0  0  0  0  0  0  0  0  0  0
    3.5170    2.5059   -4.4614 N   0  0  0  0  0  0  0  0  0  0  0  0
    4.2342    1.4638   -5.1876 C   0  0  0  0  0  0  0  0  0  0  0  0
    3.3275    3.3873   -4.9309 H   0  0  0  0  0  0  0  0  0  0  0  0
    5.1340    1.1638   -4.6403 H   0  0  0  0  0  0  0  0  0  0  0  0
    3.5964    0.5845   -5.3267 H   0  0  0  0  0  0  0  0  0  0  0  0
    4.5381    1.8292   -6.1735 H   0  0  0  0  0  0  0  0  0  0  0  0
  1  2  2  0  0  0  0
  1  3  1  0  0  0  0
  1  7  1  0  0  0  0
  3  4  1  0  0  0  0
  3  5  1  0  0  0  0
  3  6  1  0  0  0  0
  7  8  1  0  0  0  0
  7 12  1  0  0  0  0
  8  9  1  0  0  0  0
  8 11  1  0  0  0  0
  8 13  1  0  0  0  0
  9 10  2  0  0  0  0
  9 17  1  0  0  0  0
 11 14  1  0  0  0  0
 11 15  1  0  0  0  0
 11 16  1  0  0  0  0
 17 18  1  0  0  0  0
 17 27  1  0  0  0  0
 18 19  1  0  0  0  0
 18 21  1  0  0  0  0
 18 28  1  0  0  0  0
 19 20  2  0  0  0  0
 19 35  1  0  0  0  0
 21 22  1  0  0  0  0
 21 29  1  0  0  0  0
 21 30  1  0  0  0  0
 22 23  1  0  0  0  0
 22 24  2  0  0  0  0
 23 25  2  0  0  0  0
 23 31  1  0  0  0  0
 24 26  1  0  0  0  0
 24 32  1  0  0  0  0
 25 26  1  0  0  0  0
 25 33  1  0  0  0  0
 26 34  1  0  0  0  0
 35 36  1  0  0  0  0
 35 40  1  0  0  0  0
 36 37  1  0  0  0  0
 36 39  1  0  0  0  0
 36 41  1  0  0  0  0
 37 38  2  0  0  0  0
 37 45  1  0  0  0  0
 39 42  1  0  0  0  0
 39 43  1  0  0  0  0
 39 44  1  0  0  0  0
 45 46  1  0  0  0  0
 45 47  1  0  0  0  0
 46 48  1  0  0  0  0
 46 49  1  0  0  0  0
 46 50  1  0  0  0  0
M  CHG  1  23   1
M  END
$$$$

  -OEChem-05262216443D

 50 50  0     1  0  0  0  0  0999 V2000
   -2.0710   -0.7392    4.2970 C   0  0  0  0  0  0  0  0  0  0  0  0
   -2.3638   -1.4065    3.3113 O   0  0  0  0  0  0  0  0  0  0  0  0
   -1.9556   -1.4070    5.6535 C   0  0  0  0  0  0  0  0  0  0  0  0
   -2.2441   -2.4595    5.5848 H   0  0  0  0  0  0  0  0  0  0  0  0
   -0.9258   -1.3449    6.0138 H   0  0  0  0  0  0  0  0  0  0  0  0
   -2.6145   -0.9110    6.3707 H   0  0  0  0  0  0  0  0  0  0  0  0
   -1.8177    0.6127    4.1814 N   0  0  0  0  0  0  0  0  0  0  0  0
   -1.8363    1.3489    2.9082 C   0  0  2  0  0  0  0  0  0  0  0  0
   -0.6070    1.0912    2.0032 C   0  0  0  0  0  0  0  0  0  0  0  0
    0.3890    0.5164    2.4331 O   0  0  0  0  0  0  0  0  0  0  0  0
   -1.9449    2.8389    3.2436 C   0  0  0  0  0  0  0  0  0  0  0  0
   -1.4505    1.0817    5.0054 H   0  0  0  0  0  0  0  0  0  0  0  0
   -2.7291    1.0563    2.3451 H   0  0  0  0  0  0  0  0  0  0  0  0
   -1.0638    3.1735    3.8014 H   0  0  0  0  0  0  0  0  0  0  0  0
   -2.0219    3.4349    2.3286 H   0  0  0  0  0  0  0  0  0  0  0  0
   -2.8358    3.0286    3.8512 H   0  0  0  0  0  0  0  0  0  0  0  0
   -0.6699    1.3980    0.6520 N   0  0  0  0  0  0  0  0  0  0  0  0
    0.3859    1.0790   -0.3258 C   0  0  2  0  0  0  0  0  0  0  0  0
    0.6748    2.2696   -1.2532 C   0  0  0  0  0  0  0  0  0  0  0  0
   -0.1786    2.6165   -2.0592 O   0  0  0  0  0  0  0  0  0  0  0  0
   -0.0297   -0.1511   -1.1559 C   0  0  0  0  0  0  0  0  0  0  0  0
   -0.1384   -1.3429   -0.2424 C   0  0  0  0  0  0  0  0  0  0  0  0
    0.9104   -2.0730    0.3150 N   0  3  0  0  0  0  0  0  0  0  0  0
   -1.3061   -1.8126    0.2978 C   0  0  0  0  0  0  0  0  0  0  0  0
    0.4451   -2.8951    1.2243 C   0  0  0  0  0  0  0  0  0  0  0  0
   -0.9425   -2.7762    1.2244 N   0  0  0  0  0  0  0  0  0  0  0  0
   -1.4827    1.9168    0.3209 H   0  0  0  0  0  0  0  0  0  0  0  0
    1.3249    0.8514    0.1893 H   0  0  0  0  0  0  0  0  0  0  0  0
    0.7087   -0.3481   -1.9421 H   0  0  0  0  0  0  0  0  0  0  0  0
   -0.9886    0.0418   -1.6496 H   0  0  0  0  0  0  0  0  0  0  0  0
    1.8938   -1.8566    0.1352 H   0  0  0  0  0  0  0  0  0  0  0  0
   -2.3084   -1.4247    0.1227 H   0  0  0  0  0  0  0  0  0  0  0  0
    1.0363   -3.5227    1.8912 H   0  0  0  0  0  0  0  0  0  0  0  0
   -1.5657   -3.1057    1.9710 H   0  0  0  0  0  0  0  0  0  0  0  0
    1.9389    2.8253   -1.2932 N   0  0  0  0  0  0  0  0  0  0  0  0
    2.4912    3.2641   -2.5824 C   0  0  2  0  0  0  0  0  0  0  0  0
    2.9339    2.0523   -3.4374 C   0  0  0  0  0  0  0  0  0  0  0  0
    3.0306    0.9394   -2.9225 O   0  0  0  0  0  0  0  0  0  0  0  0
    3.6757    4.1893   -2.2947 C   0  0  0  0  0  0  0  0  0  0  0  0
    2.6068    2.3890   -0.6633 H   0  0  0  0  0  0  0  0  0  0  0  0
    1.7388    3.8271   -3.1462 H   0  0  0  0  0  0  0  0  0  0  0  0
    4.4603    3.6522   -1.7519 H   0  0  0  0  0  0  0  0  0  0  0  0
    4.0998    4.5718   -3.2283 H   0  0  0  0  0  0  0  0  0  0  0  0
    3.3526    5.0421   -1.6889 H   0  0  0  0  0  0  0  0  0  0  0  0
    3.2095    2.2015   -4.7832 N   0  0  0  0  0  0  0  0  0  0  0  0
    3.5982    1.0944   -5.6497 C   0  0  0  0  0  0  0  0  0  0  0  0
    3.0704    3.1201   -5.1962 H   0  0  0  0  0  0  0  0  0  0  0  0
    4.4981    0.6027   -5.2650 H   0  0  0  0  0  0  0  0  0  0  0  0
    2.7924    0.3554   -5.7128 H   0  0  0  0  0  0  0  0  0  0  0  0
    3.8120    1.4604   -6.6588 H   0  0  0  0  0  0  0  0  0  0  0  0
  1  2  2  0  0  0  0
  1  3  1  0  0  0  0
  1  7  1  0  0  0  0
  3  4  1  0  0  0  0
  3  5  1  0  0  0  0
  3  6  1  0  0  0  0
  7  8  1  0  0  0  0
  7 12  1  0  0  0  0
  8  9  1  0  0  0  0
  8 11  1  0  0  0  0
  8 13  1  0  0  0  0
  9 10  2  0  0  0  0
  9 17  1  0  0  0  0
 11 14  1  0  0  0  0
 11 15  1  0  0  0  0
 11 16  1  0  0  0  0
 17 18  1  0  0  0  0
 17 27  1  0  0  0  0
 18 19  1  0  0  0  0
 18 21  1  0  0  0  0
 18 28  1  0  0  0  0
 19 20  2  0  0  0  0
 19 35  1  0  0  0  0
 21 22  1  0  0  0  0
 21 29  1  0  0  0  0
 21 30  1  0  0  0  0
 22 23  1  0  0  0  0
 22 24  2  0  0  0  0
 23 25  2  0  0  0  0
 23 31  1  0  0  0  0
 24 26  1  0  0  0  0
 24 32  1  0  0  0  0
 25 26  1  0  0  0  0
 25 33  1  0  0  0  0
 26 34  1  0  0  0  0
 35 36  1  0  0  0  0
 35 40  1  0  0  0  0
 36 37  1  0  0  0  0
 36 39  1  0  0  0  0
 36 41  1  0  0  0  0
 37 38  2  0  0  0  0
 37 45  1  0  0  0  0
 39 42  1  0  0  0  0
 39 43  1  0  0  0  0
 39 44  1  0  0  0  0
 45 46  1  0  0  0  0
 45 47  1  0  0  0  0
 46 48  1  0  0  0  0
 46 49  1  0  0  0  0
 46 50  1  0  0  0  0
M  CHG  1  23   1
M  END
$$$$

  -OEChem-05262216443D

 50 50  0     1  0  0  0  0  0999 V2000
   -2.1815   -0.6681    4.2654 C   0  0  0  0  0  0  0  0  0  0  0  0
   -2.4891   -1.3150    3.2705 O   0  0  0  0  0  0  0  0  0  0  0  0
   -2.1273   -1.3504    5.6184 C   0  0  0  0  0  0  0  0  0  0  0  0
   -2.5258   -2.3664    5.5481 H   0  0  0  0  0  0  0  0  0  0  0  0
   -1.0939   -1.3990    5.9708 H   0  0  0  0  0  0  0  0  0  0  0  0
   -2.7253   -0.7916    6.3429 H   0  0  0  0  0  0  0  0  0  0  0  0
   -1.8489    0.6676    4.1626 N   0  0  0  0  0  0  0  0  0  0  0  0
   -1.7766    1.4003    2.8895 C   0  0  2  0  0  0  0  0  0  0  0  0
   -0.5348    1.0605    2.0300 C   0  0  0  0  0  0  0  0  0  0  0  0
    0.3987    0.4104    2.4923 O   0  0  0  0  0  0  0  0  0  0  0  0
   -1.8000    2.8949    3.2192 C   0  0  0  0  0  0  0  0  0  0  0  0
   -1.4684    1.1093    4.9956 H   0  0  0  0  0  0  0  0  0  0  0  0
   -2.6660    1.1637    2.2957 H   0  0  0  0  0  0  0  0  0  0  0  0
   -0.9187    3.1735    3.8065 H   0  0  0  0  0  0  0  0  0  0  0  0
   -1.8072    3.4922    2.3018 H   0  0  0  0  0  0  0  0  0  0  0  0
   -2.6968    3.1436    3.7957 H   0  0  0  0  0  0  0  0  0  0  0  0
   -0.5254    1.3682    0.6779 N   0  0  0  0  0  0  0  0  0  0  0  0
    0.5539    0.9947   -0.2540 C   0  0  2  0  0  0  0  0  0  0  0  0
    0.9338    2.1741   -1.1630 C   0  0  0  0  0  0  0  0  0  0  0  0
    0.0506    2.7354   -1.7985 O   0  0  0  0  0  0  0  0  0  0  0  0
    0.0870   -0.1978   -1.1122 C   0  0  0  0  0  0  0  0  0  0  0  0
   -0.1432   -1.3872   -0.2169 C   0  0  0  0  0  0  0  0  0  0  0  0
    0.8201   -2.2006    0.3789 N   0  3  0  0  0  0  0  0  0  0  0  0
   -1.3657   -1.7660    0.2708 C   0  0  0  0  0  0  0  0  0  0  0  0
    0.2532   -2.9863    1.2625 C   0  0  0  0  0  0  0  0  0  0  0  0
   -1.1195   -2.7581    1.2057 N   0  0  0  0  0  0  0  0  0  0  0  0
   -1.2624    1.9783    0.3242 H   0  0  0  0  0  0  0  0  0  0  0  0
    1.4571    0.7130    0.2965 H   0  0  0  0  0  0  0  0  0  0  0  0
    0.8374   -0.4428   -1.8721 H   0  0  0  0  0  0  0  0  0  0  0  0
   -0.8355    0.0679   -1.6404 H   0  0  0  0  0  0  0  0  0  0  0  0
    1.8242   -2.0622    0.2445 H   0  0  0  0  0  0  0  0  0  0  0  0
   -2.3250   -1.2966    0.0587 H   0  0  0  0  0  0  0  0  0  0  0  0
    0.7642   -3.6600    1.9509 H   0  0  0  0  0  0  0  0  0  0  0  0
   -1.7955   -3.0329    1.9286 H   0  0  0  0  0  0  0  0  0  0  0  0
    2.2621    2.4799   -1.3906 N   0  0  0  0  0  0  0  0  0  0  0  0
    2.6866    2.9849   -2.7038 C   0  0  2  0  0  0  0  0  0  0  0  0
    2.7829    1.8341   -3.7324 C   0  0  0  0  0  0  0  0  0  0  0  0
    2.8148    0.6683   -3.3436 O   0  0  0  0  0  0  0  0  0  0  0  0
    4.0435    3.6711   -2.5292 C   0  0  0  0  0  0  0  0  0  0  0  0
    2.9243    1.8623   -0.9291 H   0  0  0  0  0  0  0  0  0  0  0  0
    1.9693    3.7240   -3.0777 H   0  0  0  0  0  0  0  0  0  0  0  0
    4.7941    2.9563   -2.1763 H   0  0  0  0  0  0  0  0  0  0  0  0
    4.3861    4.0916   -3.4799 H   0  0  0  0  0  0  0  0  0  0  0  0
    3.9660    4.4848   -1.8009 H   0  0  0  0  0  0  0  0  0  0  0  0
    2.8168    2.0983   -5.0882 N   0  0  0  0  0  0  0  0  0  0  0  0
    2.8576    1.0551   -6.1074 C   0  0  0  0  0  0  0  0  0  0  0  0
    2.7332    3.0674   -5.3835 H   0  0  0  0  0  0  0  0  0  0  0  0
    3.7282    0.4071   -5.9596 H   0  0  0  0  0  0  0  0  0  0  0  0
    1.9512    0.4419   -6.0658 H   0  0  0  0  0  0  0  0  0  0  0  0
    2.9275    1.5014   -7.1044 H   0  0  0  0  0  0  0  0  0  0  0  0
  1  2  2  0  0  0  0
  1  3  1  0  0  0  0
  1  7  1  0  0  0  0
  3  4  1  0  0  0  0
  3  5  1  0  0  0  0
  3  6  1  0  0  0  0
  7  8  1  0  0  0  0
  7 12  1  0  0  0  0
  8  9  1  0  0  0  0
  8 11  1  0  0  0  0
  8 13  1  0  0  0  0
  9 10  2  0  0  0  0
  9 17  1  0  0  0  0
 11 14  1  0  0  0  0
 11 15  1  0  0  0  0
 11 16  1  0  0  0  0
 17 18  1  0  0  0  0
 17 27  1  0  0  0  0
 18 19  1  0  0  0  0
 18 21  1  0  0  0  0
 18 28  1  0  0  0  0
 19 20  2  0  0  0  0
 19 35  1  0  0  0  0
 21 22  1  0  0  0  0
 21 29  1  0  0  0  0
 21 30  1  0  0  0  0
 22 23  1  0  0  0  0
 22 24  2  0  0  0  0
 23 25  2  0  0  0  0
 23 31  1  0  0  0  0
 24 26  1  0  0  0  0
 24 32  1  0  0  0  0
 25 26  1  0  0  0  0
 25 33  1  0  0  0  0
 26 34  1  0  0  0  0
 35 36  1  0  0  0  0
 35 40  1  0  0  0  0
 36 37  1  0  0  0  0
 36 39  1  0  0  0  0
 36 41  1  0  0  0  0
 37 38  2  0  0  0  0
 37 45  1  0  0  0  0
 39 42  1  0  0  0  0
 39 43  1  0  0  0  0
 39 44  1  0  0  0  0
 45 46  1  0  0  0  0
 45 47  1  0  0  0  0
 46 48  1  0  0  0  0
 46 49  1  0  0  0  0
 46 50  1  0  0  0  0
M  CHG  1  23   1
M  END
$$$$

  -OEChem-05262216443D

 50 50  0     1  0  0  0  0  0999 V2000
   -2.2655   -0.5765    4.2432 C   0  0  0  0  0  0  0  0  0  0  0  0
   -2.5801   -1.2154    3.2449 O   0  0  0  0  0  0  0  0  0  0  0  0
   -2.2887   -1.2473    5.6034 C   0  0  0  0  0  0  0  0  0  0  0  0
   -2.7611   -2.2310    5.5338 H   0  0  0  0  0  0  0  0  0  0  0  0
   -1.2690   -1.3701    5.9770 H   0  0  0  0  0  0  0  0  0  0  0  0
   -2.8566   -0.6386    6.3116 H   0  0  0  0  0  0  0  0  0  0  0  0
   -1.8530    0.7373    4.1385 N   0  0  0  0  0  0  0  0  0  0  0  0
   -1.6981    1.4511    2.8611 C   0  0  2  0  0  0  0  0  0  0  0  0
   -0.4609    1.0191    2.0371 C   0  0  0  0  0  0  0  0  0  0  0  0
    0.4112    0.3062    2.5264 O   0  0  0  0  0  0  0  0  0  0  0  0
   -1.6289    2.9487    3.1730 C   0  0  0  0  0  0  0  0  0  0  0  0
   -1.4769    1.1674    4.9798 H   0  0  0  0  0  0  0  0  0  0  0  0
   -2.5860    1.2678    2.2463 H   0  0  0  0  0  0  0  0  0  0  0  0
   -0.7445    3.1763    3.7772 H   0  0  0  0  0  0  0  0  0  0  0  0
   -1.5746    3.5329    2.2487 H   0  0  0  0  0  0  0  0  0  0  0  0
   -2.5199    3.2649    3.7249 H   0  0  0  0  0  0  0  0  0  0  0  0
   -0.4000    1.3083    0.6826 N   0  0  0  0  0  0  0  0  0  0  0  0
    0.6894    0.8763   -0.2121 C   0  0  2  0  0  0  0  0  0  0  0  0
    1.1395    2.0331   -1.1206 C   0  0  0  0  0  0  0  0  0  0  0  0
    0.2906    2.7922   -1.5718 O   0  0  0  0  0  0  0  0  0  0  0  0
    0.1783   -0.2934   -1.0761 C   0  0  0  0  0  0  0  0  0  0  0  0
   -0.1451   -1.4605   -0.1788 C   0  0  0  0  0  0  0  0  0  0  0  0
    0.7448   -2.3279    0.4538 N   0  3  0  0  0  0  0  0  0  0  0  0
   -1.4036   -1.7561    0.2746 C   0  0  0  0  0  0  0  0  0  0  0  0
    0.1024   -3.0627    1.3296 C   0  0  0  0  0  0  0  0  0  0  0  0
   -1.2506   -2.7493    1.2278 N   0  0  0  0  0  0  0  0  0  0  0  0
   -1.0559    1.9994    0.3166 H   0  0  0  0  0  0  0  0  0  0  0  0
    1.5646    0.5601    0.3645 H   0  0  0  0  0  0  0  0  0  0  0  0
    0.9327   -0.5892   -1.8132 H   0  0  0  0  0  0  0  0  0  0  0  0
   -0.7118    0.0224   -1.6318 H   0  0  0  0  0  0  0  0  0  0  0  0
    1.7591   -2.2510    0.3566 H   0  0  0  0  0  0  0  0  0  0  0  0
   -2.3241   -1.2289    0.0287 H   0  0  0  0  0  0  0  0  0  0  0  0
    0.5480   -3.7558    2.0434 H   0  0  0  0  0  0  0  0  0  0  0  0
   -1.9620   -2.9624    1.9379 H   0  0  0  0  0  0  0  0  0  0  0  0
    2.4464    2.1067   -1.5645 N   0  0  0  0  0  0  0  0  0  0  0  0
    2.7601    2.6923   -2.8761 C   0  0  2  0  0  0  0  0  0  0  0  0
    2.5167    1.6702   -4.0103 C   0  0  0  0  0  0  0  0  0  0  0  0
    2.4323    0.4736   -3.7437 O   0  0  0  0  0  0  0  0  0  0  0  0
    4.2231    3.1418   -2.8544 C   0  0  0  0  0  0  0  0  0  0  0  0
    3.0398    1.3323   -1.2804 H   0  0  0  0  0  0  0  0  0  0  0  0
    2.1318    3.5705   -3.0626 H   0  0  0  0  0  0  0  0  0  0  0  0
    4.8873    2.2863   -2.6939 H   0  0  0  0  0  0  0  0  0  0  0  0
    4.4924    3.6161   -3.8034 H   0  0  0  0  0  0  0  0  0  0  0  0
    4.3855    3.8662   -2.0497 H   0  0  0  0  0  0  0  0  0  0  0  0
    2.3785    2.0859   -5.3208 N   0  0  0  0  0  0  0  0  0  0  0  0
    2.0906    1.1754   -6.4238 C   0  0  0  0  0  0  0  0  0  0  0  0
    2.3993    3.0855   -5.5045 H   0  0  0  0  0  0  0  0  0  0  0  0
    2.8737    0.4144   -6.5097 H   0  0  0  0  0  0  0  0  0  0  0  0
    1.1290    0.6753   -6.2669 H   0  0  0  0  0  0  0  0  0  0  0  0
    2.0427    1.7269   -7.3680 H   0  0  0  0  0  0  0  0  0  0  0  0
  1  2  2  0  0  0  0
  1  3  1  0  0  0  0
  1  7  1  0  0  0  0
  3  4  1  0  0  0  0
  3  5  1  0  0  0  0
  3  6  1  0  0  0  0
  7  8  1  0  0  0  0
  7 12  1  0  0  0  0
  8  9  1  0  0  0  0
  8 11  1  0  0  0  0
  8 13  1  0  0  0  0
  9 10  2  0  0  0  0
  9 17  1  0  0  0  0
 11 14  1  0  0  0  0
 11 15  1  0  0  0  0
 11 16  1  0  0  0  0
 17 18  1  0  0  0  0
 17 27  1  0  0  0  0
 18 19  1  0  0  0  0
 18 21  1  0  0  0  0
 18 28  1  0  0  0  0
 19 20  2  0  0  0  0
 19 35  1  0  0  0  0
 21 22  1  0  0  0  0
 21 29  1  0  0  0  0
 21 30  1  0  0  0  0
 22 23  1  0  0  0  0
 22 24  2  0  0  0  0
 23 25  2  0  0  0  0
 23 31  1  0  0  0  0
 24 26  1  0  0  0  0
 24 32  1  0  0  0  0
 25 26  1  0  0  0  0
 25 33  1  0  0  0  0
 26 34  1  0  0  0  0
 35 36  1  0  0  0  0
 35 40  1  0  0  0  0
 36 37  1  0  0  0  0
 36 39  1  0  0  0  0
 36 41  1  0  0  0  0
 37 38  2  0  0  0  0
 37 45  1  0  0  0  0
 39 42  1  0  0  0  0
 39 43  1  0  0  0  0
 39 44  1  0  0  0  0
 45 46  1  0  0  0  0
 45 47  1  0  0  0  0
 46 48  1  0  0  0  0
 46 49  1  0  0  0  0
 46 50  1  0  0  0  0
M  CHG  1  23   1
M  END
$$$$

  -OEChem-05262216443D

 50 50  0     1  0  0  0  0  0999 V2000
   -2.3376   -0.4773    4.1922 C   0  0  0  0  0  0  0  0  0  0  0  0
   -2.6562   -1.1119    3.1925 O   0  0  0  0  0  0  0  0  0  0  0  0
   -2.4240   -1.1314    5.5576 C   0  0  0  0  0  0  0  0  0  0  0  0
   -2.8887   -2.1180    5.4784 H   0  0  0  0  0  0  0  0  0  0  0  0
   -1.4229   -1.2455    5.9804 H   0  0  0  0  0  0  0  0  0  0  0  0
   -3.0266   -0.5150    6.2295 H   0  0  0  0  0  0  0  0  0  0  0  0
   -1.8589    0.8134    4.0869 N   0  0  0  0  0  0  0  0  0  0  0  0
   -1.6285    1.5040    2.8089 C   0  0  2  0  0  0  0  0  0  0  0  0
   -0.4009    0.9878    2.0204 C   0  0  0  0  0  0  0  0  0  0  0  0
    0.4153    0.2300    2.5388 O   0  0  0  0  0  0  0  0  0  0  0  0
   -1.4706    2.9958    3.1142 C   0  0  0  0  0  0  0  0  0  0  0  0
   -1.4826    1.2310    4.9340 H   0  0  0  0  0  0  0  0  0  0  0  0
   -2.5108    1.3723    2.1733 H   0  0  0  0  0  0  0  0  0  0  0  0
   -0.5885    3.1689    3.7394 H   0  0  0  0  0  0  0  0  0  0  0  0
   -1.3556    3.5678    2.1880 H   0  0  0  0  0  0  0  0  0  0  0  0
   -2.3524    3.3734    3.6422 H   0  0  0  0  0  0  0  0  0  0  0  0
   -0.2915    1.2568    0.6649 N   0  0  0  0  0  0  0  0  0  0  0  0
    0.8091    0.7739   -0.1898 C   0  0  2  0  0  0  0  0  0  0  0  0
    1.3273    1.9039   -1.1005 C   0  0  0  0  0  0  0  0  0  0  0  0
    0.5826    2.8381   -1.3737 O   0  0  0  0  0  0  0  0  0  0  0  0
    0.2739   -0.3912   -1.0476 C   0  0  0  0  0  0  0  0  0  0  0  0
   -0.1192   -1.5295   -0.1403 C   0  0  0  0  0  0  0  0  0  0  0  0
    0.7115   -2.4250    0.5338 N   0  3  0  0  0  0  0  0  0  0  0  0
   -1.4024   -1.7611    0.2795 C   0  0  0  0  0  0  0  0  0  0  0  0
    0.0100   -3.1131    1.4025 C   0  0  0  0  0  0  0  0  0  0  0  0
   -1.3236   -2.7420    1.2534 N   0  0  0  0  0  0  0  0  0  0  0  0
   -0.8678    2.0115    0.2895 H   0  0  0  0  0  0  0  0  0  0  0  0
    1.6562    0.4374    0.4165 H   0  0  0  0  0  0  0  0  0  0  0  0
    1.0330   -0.7338   -1.7586 H   0  0  0  0  0  0  0  0  0  0  0  0
   -0.5876   -0.0509   -1.6335 H   0  0  0  0  0  0  0  0  0  0  0  0
    1.7309   -2.3914    0.4735 H   0  0  0  0  0  0  0  0  0  0  0  0
   -2.2896   -1.1960   -0.0018 H   0  0  0  0  0  0  0  0  0  0  0  0
    0.4013   -3.8103    2.1436 H   0  0  0  0  0  0  0  0  0  0  0  0
   -2.0650   -2.9094    1.9446 H   0  0  0  0  0  0  0  0  0  0  0  0
    2.5396    1.7747   -1.7529 N   0  0  0  0  0  0  0  0  0  0  0  0
    2.7593    2.4118   -3.0598 C   0  0  2  0  0  0  0  0  0  0  0  0
    2.1220    1.5821   -4.1974 C   0  0  0  0  0  0  0  0  0  0  0  0
    1.8504    0.3990   -4.0085 O   0  0  0  0  0  0  0  0  0  0  0  0
    4.2693    2.5454   -3.2708 C   0  0  0  0  0  0  0  0  0  0  0  0
    3.0107    0.8854   -1.6155 H   0  0  0  0  0  0  0  0  0  0  0  0
    2.3174    3.4143   -3.0737 H   0  0  0  0  0  0  0  0  0  0  0  0
    4.7450    1.5593   -3.2850 H   0  0  0  0  0  0  0  0  0  0  0  0
    4.4800    3.0447   -4.2218 H   0  0  0  0  0  0  0  0  0  0  0  0
    4.7150    3.1374   -2.4649 H   0  0  0  0  0  0  0  0  0  0  0  0
    1.8525    2.1539   -5.4260 N   0  0  0  0  0  0  0  0  0  0  0  0
    1.2266    1.4298   -6.5270 C   0  0  0  0  0  0  0  0  0  0  0  0
    2.0437    3.1458   -5.5388 H   0  0  0  0  0  0  0  0  0  0  0  0
    1.8327    0.5630   -6.8112 H   0  0  0  0  0  0  0  0  0  0  0  0
    0.2283    1.0828   -6.2399 H   0  0  0  0  0  0  0  0  0  0  0  0
    1.1273    2.0806   -7.4016 H   0  0  0  0  0  0  0  0  0  0  0  0
  1  2  2  0  0  0  0
  1  3  1  0  0  0  0
  1  7  1  0  0  0  0
  3  4  1  0  0  0  0
  3  5  1  0  0  0  0
  3  6  1  0  0  0  0
  7  8  1  0  0  0  0
  7 12  1  0  0  0  0
  8  9  1  0  0  0  0
  8 11  1  0  0  0  0
  8 13  1  0  0  0  0
  9 10  2  0  0  0  0
  9 17  1  0  0  0  0
 11 14  1  0  0  0  0
 11 15  1  0  0  0  0
 11 16  1  0  0  0  0
 17 18  1  0  0  0  0
 17 27  1  0  0  0  0
 18 19  1  0  0  0  0
 18 21  1  0  0  0  0
 18 28  1  0  0  0  0
 19 20  2  0  0  0  0
 19 35  1  0  0  0  0
 21 22  1  0  0  0  0
 21 29  1  0  0  0  0
 21 30  1  0  0  0  0
 22 23  1  0  0  0  0
 22 24  2  0  0  0  0
 23 25  2  0  0  0  0
 23 31  1  0  0  0  0
 24 26  1  0  0  0  0
 24 32  1  0  0  0  0
 25 26  1  0  0  0  0
 25 33  1  0  0  0  0
 26 34  1  0  0  0  0
 35 36  1  0  0  0  0
 35 40  1  0  0  0  0
 36 37  1  0  0  0  0
 36 39  1  0  0  0  0
 36 41  1  0  0  0  0
 37 38  2  0  0  0  0
 37 45  1  0  0  0  0
 39 42  1  0  0  0  0
 39 43  1  0  0  0  0
 39 44  1  0  0  0  0
 45 46  1  0  0  0  0
 45 47  1  0  0  0  0
 46 48  1  0  0  0  0
 46 49  1  0  0  0  0
 46 50  1  0  0  0  0
M  CHG  1  23   1
M  END
$$$$

  -OEChem-05262216443D

 50 50  0     1  0  0  0  0  0999 V2000
   -2.5900   -0.5086    3.8719 C   0  0  0  0  0  0  0  0  0  0  0  0
   -2.8854   -0.9660    2.7727 O   0  0  0  0  0  0  0  0  0  0  0  0
   -2.9104   -1.2982    5.1264 C   0  0  0  0  0  0  0  0  0  0  0  0
   -3.5177   -2.1732    4.8798 H   0  0  0  0  0  0  0  0  0  0  0  0
   -1.9860   -1.6329    5.6034 H   0  0  0  0  0  0  0  0  0  0  0  0
   -3.4680   -0.6736    5.8291 H   0  0  0  0  0  0  0  0  0  0  0  0
   -1.9417    0.7057    3.9820 N   0  0  0  0  0  0  0  0  0  0  0  0
   -1.5084    1.5113    2.8305 C   0  0  2  0  0  0  0  0  0  0  0  0
   -0.3383    0.8924    2.0312 C   0  0  0  0  0  0  0  0  0  0  0  0
    0.3818    0.0290    2.5257 O   0  0  0  0  0  0  0  0  0  0  0  0
   -1.1116    2.8954    3.3492 C   0  0  0  0  0  0  0  0  0  0  0  0
   -1.6027    0.9631    4.9053 H   0  0  0  0  0  0  0  0  0  0  0  0
   -2.3557    1.6273    2.1461 H   0  0  0  0  0  0  0  0  0  0  0  0
   -0.2645    2.8194    4.0391 H   0  0  0  0  0  0  0  0  0  0  0  0
   -0.8231    3.5483    2.5189 H   0  0  0  0  0  0  0  0  0  0  0  0
   -1.9512    3.3605    3.8754 H   0  0  0  0  0  0  0  0  0  0  0  0
   -0.2133    1.1745    0.6807 N   0  0  0  0  0  0  0  0  0  0  0  0
    0.9095    0.6948   -0.1468 C   0  0  2  0  0  0  0  0  0  0  0  0
    1.6856    1.8794   -0.7596 C   0  0  0  0  0  0  0  0  0  0  0  0
    1.2003    3.0037   -0.7048 O   0  0  0  0  0  0  0  0  0  0  0  0
    0.3051   -0.2296   -1.2229 C   0  0  0  0  0  0  0  0  0  0  0  0
   -0.3090   -1.4158   -0.5188 C   0  0  0  0  0  0  0  0  0  0  0  0
    0.3377   -2.5060    0.0644 N   0  3  0  0  0  0  0  0  0  0  0  0
   -1.6371   -1.5021   -0.1921 C   0  0  0  0  0  0  0  0  0  0  0  0
   -0.5108   -3.1853    0.7987 C   0  0  0  0  0  0  0  0  0  0  0  0
   -1.7646   -2.6006    0.6415 N   0  0  0  0  0  0  0  0  0  0  0  0
   -0.6625    2.0356    0.3666 H   0  0  0  0  0  0  0  0  0  0  0  0
    1.6340    0.1329    0.4513 H   0  0  0  0  0  0  0  0  0  0  0  0
    1.0686   -0.5711   -1.9289 H   0  0  0  0  0  0  0  0  0  0  0  0
   -0.4499    0.3157   -1.8008 H   0  0  0  0  0  0  0  0  0  0  0  0
    1.3530   -2.6196    0.0571 H   0  0  0  0  0  0  0  0  0  0  0  0
   -2.4108   -0.7730   -0.4282 H   0  0  0  0  0  0  0  0  0  0  0  0
   -0.2729   -4.0228    1.4554 H   0  0  0  0  0  0  0  0  0  0  0  0
   -2.5678   -2.7468    1.2645 H   0  0  0  0  0  0  0  0  0  0  0  0
    2.7813    1.6481   -1.5713 N   0  0  0  0  0  0  0  0  0  0  0  0
    3.0811    2.5370   -2.7036 C   0  0  2  0  0  0  0  0  0  0  0  0
    2.2275    2.1636   -3.9366 C   0  0  0  0  0  0  0  0  0  0  0  0
    1.6888    1.0606   -3.9915 O   0  0  0  0  0  0  0  0  0  0  0  0
    4.5735    2.4139   -3.0192 C   0  0  0  0  0  0  0  0  0  0  0  0
    3.0060    0.6690   -1.7202 H   0  0  0  0  0  0  0  0  0  0  0  0
    2.8702    3.5795   -2.4406 H   0  0  0  0  0  0  0  0  0  0  0  0
    4.8219    1.3898   -3.3168 H   0  0  0  0  0  0  0  0  0  0  0  0
    4.8491    3.0885   -3.8362 H   0  0  0  0  0  0  0  0  0  0  0  0
    5.1701    2.6772   -2.1398 H   0  0  0  0  0  0  0  0  0  0  0  0
    2.0549    3.0576   -4.9756 N   0  0  0  0  0  0  0  0  0  0  0  0
    1.2276    2.7772   -6.1438 C   0  0  0  0  0  0  0  0  0  0  0  0
    2.4742    3.9789   -4.8823 H   0  0  0  0  0  0  0  0  0  0  0  0
    1.5992    1.8947   -6.6755 H   0  0  0  0  0  0  0  0  0  0  0  0
    0.1898    2.5970   -5.8442 H   0  0  0  0  0  0  0  0  0  0  0  0
    1.2450    3.6270   -6.8334 H   0  0  0  0  0  0  0  0  0  0  0  0
  1  2  2  0  0  0  0
  1  3  1  0  0  0  0
  1  7  1  0  0  0  0
  3  4  1  0  0  0  0
  3  5  1  0  0  0  0
  3  6  1  0  0  0  0
  7  8  1  0  0  0  0
  7 12  1  0  0  0  0
  8  9  1  0  0  0  0
  8 11  1  0  0  0  0
  8 13  1  0  0  0  0
  9 10  2  0  0  0  0
  9 17  1  0  0  0  0
 11 14  1  0  0  0  0
 11 15  1  0  0  0  0
 11 16  1  0  0  0  0
 17 18  1  0  0  0  0
 17 27  1  0  0  0  0
 18 19  1  0  0  0  0
 18 21  1  0  0  0  0
 18 28  1  0  0  0  0
 19 20  2  0  0  0  0
 19 35  1  0  0  0  0
 21 22  1  0  0  0  0
 21 29  1  0  0  0  0
 21 30  1  0  0  0  0
 22 23  1  0  0  0  0
 22 24  2  0  0  0  0
 23 25  2  0  0  0  0
 23 31  1  0  0  0  0
 24 26  1  0  0  0  0
 24 32  1  0  0  0  0
 25 26  1  0  0  0  0
 25 33  1  0  0  0  0
 26 34  1  0  0  0  0
 35 36  1  0  0  0  0
 35 40  1  0  0  0  0
 36 37  1  0  0  0  0
 36 39  1  0  0  0  0
 36 41  1  0  0  0  0
 37 38  2  0  0  0  0
 37 45  1  0  0  0  0
 39 42  1  0  0  0  0
 39 43  1  0  0  0  0
 39 44  1  0  0  0  0
 45 46  1  0  0  0  0
 45 47  1  0  0  0  0
 46 48  1  0  0  0  0
 46 49  1  0  0  0  0
 46 50  1  0  0  0  0
M  CHG  1  23   1
M  END
$$$$

  -OEChem-05262216443D

 50 50  0     1  0  0  0  0  0999 V2000
   -2.5908   -0.3889    3.8527 C   0  0  0  0  0  0  0  0  0  0  0  0
   -2.9207   -0.8300    2.7566 O   0  0  0  0  0  0  0  0  0  0  0  0
   -2.9605   -1.1505    5.1111 C   0  0  0  0  0  0  0  0  0  0  0  0
   -3.5850   -2.0132    4.8638 H   0  0  0  0  0  0  0  0  0  0  0  0
   -2.0567   -1.5020    5.6149 H   0  0  0  0  0  0  0  0  0  0  0  0
   -3.5171   -0.5000    5.7906 H   0  0  0  0  0  0  0  0  0  0  0  0
   -1.8625    0.7800    3.9551 N   0  0  0  0  0  0  0  0  0  0  0  0
   -1.3815    1.5499    2.7981 C   0  0  2  0  0  0  0  0  0  0  0  0
   -0.2551    0.8534    1.9992 C   0  0  0  0  0  0  0  0  0  0  0  0
    0.4010   -0.0607    2.4923 O   0  0  0  0  0  0  0  0  0  0  0  0
   -0.8971    2.9095    3.3065 C   0  0  0  0  0  0  0  0  0  0  0  0
   -1.5039    1.0187    4.8760 H   0  0  0  0  0  0  0  0  0  0  0  0
   -2.2219    1.7151    2.1153 H   0  0  0  0  0  0  0  0  0  0  0  0
   -0.0538    2.7854    3.9939 H   0  0  0  0  0  0  0  0  0  0  0  0
   -0.5715    3.5375    2.4708 H   0  0  0  0  0  0  0  0  0  0  0  0
   -1.7038    3.4297    3.8326 H   0  0  0  0  0  0  0  0  0  0  0  0
   -0.1141    1.1252    0.6479 N   0  0  0  0  0  0  0  0  0  0  0  0
    0.9820    0.5777   -0.1749 C   0  0  2  0  0  0  0  0  0  0  0  0
    1.8284    1.7154   -0.7908 C   0  0  0  0  0  0  0  0  0  0  0  0
    1.5452    2.8791   -0.5305 O   0  0  0  0  0  0  0  0  0  0  0  0
    0.3168   -0.3255   -1.2357 C   0  0  0  0  0  0  0  0  0  0  0  0
   -0.3585   -1.4659   -0.5124 C   0  0  0  0  0  0  0  0  0  0  0  0
    0.2296   -2.5838    0.0803 N   0  3  0  0  0  0  0  0  0  0  0  0
   -1.6882   -1.4754   -0.1820 C   0  0  0  0  0  0  0  0  0  0  0  0
   -0.6527   -3.2063    0.8250 C   0  0  0  0  0  0  0  0  0  0  0  0
   -1.8730   -2.5557    0.6639 N   0  0  0  0  0  0  0  0  0  0  0  0
   -0.4937    2.0218    0.3427 H   0  0  0  0  0  0  0  0  0  0  0  0
    1.6751   -0.0186    0.4267 H   0  0  0  0  0  0  0  0  0  0  0  0
    1.0494   -0.7214   -1.9453 H   0  0  0  0  0  0  0  0  0  0  0  0
   -0.4122    0.2549   -1.8133 H   0  0  0  0  0  0  0  0  0  0  0  0
    1.2381   -2.7478    0.0797 H   0  0  0  0  0  0  0  0  0  0  0  0
   -2.4209   -0.7070   -0.4242 H   0  0  0  0  0  0  0  0  0  0  0  0
   -0.4581   -4.0467    1.4917 H   0  0  0  0  0  0  0  0  0  0  0  0
   -2.6812   -2.6502    1.2899 H   0  0  0  0  0  0  0  0  0  0  0  0
    2.7047    1.4513   -1.8287 N   0  0  0  0  0  0  0  0  0  0  0  0
    2.8992    2.4192   -2.9191 C   0  0  2  0  0  0  0  0  0  0  0  0
    1.7958    2.2662   -3.9909 C   0  0  0  0  0  0  0  0  0  0  0  0
    1.1167    1.2424   -4.0214 O   0  0  0  0  0  0  0  0  0  0  0  0
    4.2825    2.1735   -3.5259 C   0  0  0  0  0  0  0  0  0  0  0  0
    2.7514    0.4769   -2.1102 H   0  0  0  0  0  0  0  0  0  0  0  0
    2.8683    3.4452   -2.5358 H   0  0  0  0  0  0  0  0  0  0  0  0
    4.3466    1.1647   -3.9466 H   0  0  0  0  0  0  0  0  0  0  0  0
    4.4843    2.8948   -4.3240 H   0  0  0  0  0  0  0  0  0  0  0  0
    5.0568    2.2827   -2.7598 H   0  0  0  0  0  0  0  0  0  0  0  0
    1.5600    3.2659   -4.9149 N   0  0  0  0  0  0  0  0  0  0  0  0
    0.5229    3.1839   -5.9377 C   0  0  0  0  0  0  0  0  0  0  0  0
    2.1136    4.1157   -4.8457 H   0  0  0  0  0  0  0  0  0  0  0  0
    0.6974    2.3244   -6.5937 H   0  0  0  0  0  0  0  0  0  0  0  0
   -0.4649    3.0796   -5.4764 H   0  0  0  0  0  0  0  0  0  0  0  0
    0.5227    4.0904   -6.5510 H   0  0  0  0  0  0  0  0  0  0  0  0
  1  2  2  0  0  0  0
  1  3  1  0  0  0  0
  1  7  1  0  0  0  0
  3  4  1  0  0  0  0
  3  5  1  0  0  0  0
  3  6  1  0  0  0  0
  7  8  1  0  0  0  0
  7 12  1  0  0  0  0
  8  9  1  0  0  0  0
  8 11  1  0  0  0  0
  8 13  1  0  0  0  0
  9 10  2  0  0  0  0
  9 17  1  0  0  0  0
 11 14  1  0  0  0  0
 11 15  1  0  0  0  0
 11 16  1  0  0  0  0
 17 18  1  0  0  0  0
 17 27  1  0  0  0  0
 18 19  1  0  0  0  0
 18 21  1  0  0  0  0
 18 28  1  0  0  0  0
 19 20  2  0  0  0  0
 19 35  1  0  0  0  0
 21 22  1  0  0  0  0
 21 29  1  0  0  0  0
 21 30  1  0  0  0  0
 22 23  1  0  0  0  0
 22 24  2  0  0  0  0
 23 25  2  0  0  0  0
 23 31  1  0  0  0  0
 24 26  1  0  0  0  0
 24 32  1  0  0  0  0
 25 26  1  0  0  0  0
 25 33  1  0  0  0  0
 26 34  1  0  0  0  0
 35 36  1  0  0  0  0
 35 40  1  0  0  0  0
 36 37  1  0  0  0  0
 36 39  1  0  0  0  0
 36 41  1  0  0  0  0
 37 38  2  0  0  0  0
 37 45  1  0  0  0  0
 39 42  1  0  0  0  0
 39 43  1  0  0  0  0
 39 44  1  0  0  0  0
 45 46  1  0  0  0  0
 45 47  1  0  0  0  0
 46 48  1  0  0  0  0
 46 49  1  0  0  0  0
 46 50  1  0  0  0  0
M  CHG  1  23   1
M  END
$$$$

  -OEChem-05262216443D

 50 50  0     1  0  0  0  0  0999 V2000
   -2.5509   -0.2572    3.8587 C   0  0  0  0  0  0  0  0  0  0  0  0
   -2.9161   -0.7557    2.7990 O   0  0  0  0  0  0  0  0  0  0  0  0
   -2.9012   -0.9347    5.1696 C   0  0  0  0  0  0  0  0  0  0  0  0
   -3.5525   -1.7950    4.9916 H   0  0  0  0  0  0  0  0  0  0  0  0
   -1.9907   -1.2771    5.6679 H   0  0  0  0  0  0  0  0  0  0  0  0
   -3.4227   -0.2321    5.8249 H   0  0  0  0  0  0  0  0  0  0  0  0
   -1.7947    0.8981    3.8745 N   0  0  0  0  0  0  0  0  0  0  0  0
   -1.3150    1.5816    2.6639 C   0  0  2  0  0  0  0  0  0  0  0  0
   -0.2137    0.8123    1.8973 C   0  0  0  0  0  0  0  0  0  0  0  0
    0.4041   -0.1071    2.4289 O   0  0  0  0  0  0  0  0  0  0  0  0
   -0.7983    2.9615    3.0776 C   0  0  0  0  0  0  0  0  0  0  0  0
   -1.4012    1.1737    4.7704 H   0  0  0  0  0  0  0  0  0  0  0  0
   -2.1612    1.7187    1.9822 H   0  0  0  0  0  0  0  0  0  0  0  0
    0.0515    2.8648    3.7612 H   0  0  0  0  0  0  0  0  0  0  0  0
   -0.4714    3.5285    2.1997 H   0  0  0  0  0  0  0  0  0  0  0  0
   -1.5884    3.5300    3.5785 H   0  0  0  0  0  0  0  0  0  0  0  0
   -0.0625    1.0224    0.5357 N   0  0  0  0  0  0  0  0  0  0  0  0
    1.0126    0.3972   -0.2601 C   0  0  2  0  0  0  0  0  0  0  0  0
    1.9010    1.4803   -0.9184 C   0  0  0  0  0  0  0  0  0  0  0  0
    1.8473    2.6299   -0.4983 O   0  0  0  0  0  0  0  0  0  0  0  0
    0.3134   -0.5436   -1.2660 C   0  0  0  0  0  0  0  0  0  0  0  0
   -0.3908   -1.6196   -0.4734 C   0  0  0  0  0  0  0  0  0  0  0  0
    0.1663   -2.7191    0.1807 N   0  3  0  0  0  0  0  0  0  0  0  0
   -1.7179   -1.5671   -0.1348 C   0  0  0  0  0  0  0  0  0  0  0  0
   -0.7285   -3.2637    0.9705 C   0  0  0  0  0  0  0  0  0  0  0  0
   -1.9298   -2.5867    0.7778 N   0  0  0  0  0  0  0  0  0  0  0  0
   -0.4122    1.9171    0.1934 H   0  0  0  0  0  0  0  0  0  0  0  0
    1.6871   -0.1913    0.3702 H   0  0  0  0  0  0  0  0  0  0  0  0
    1.0303   -1.0050   -1.9512 H   0  0  0  0  0  0  0  0  0  0  0  0
   -0.4023    0.0251   -1.8718 H   0  0  0  0  0  0  0  0  0  0  0  0
    1.1701   -2.9099    0.1907 H   0  0  0  0  0  0  0  0  0  0  0  0
   -2.4281   -0.7916   -0.4183 H   0  0  0  0  0  0  0  0  0  0  0  0
   -0.5541   -4.0636    1.6906 H   0  0  0  0  0  0  0  0  0  0  0  0
   -2.7314   -2.6122    1.4196 H   0  0  0  0  0  0  0  0  0  0  0  0
    2.5360    1.2408   -2.1252 N   0  0  0  0  0  0  0  0  0  0  0  0
    2.6901    2.3139   -3.1195 C   0  0  2  0  0  0  0  0  0  0  0  0
    1.3875    2.4961   -3.9312 C   0  0  0  0  0  0  0  0  0  0  0  0
    0.5441    1.6021   -3.9347 O   0  0  0  0  0  0  0  0  0  0  0  0
    3.8533    1.9424   -4.0425 C   0  0  0  0  0  0  0  0  0  0  0  0
    2.3719    0.3193   -2.5173 H   0  0  0  0  0  0  0  0  0  0  0  0
    2.9294    3.2639   -2.6285 H   0  0  0  0  0  0  0  0  0  0  0  0
    3.6408    1.0094   -4.5741 H   0  0  0  0  0  0  0  0  0  0  0  0
    4.0215    2.7309   -4.7828 H   0  0  0  0  0  0  0  0  0  0  0  0
    4.7730    1.8131   -3.4629 H   0  0  0  0  0  0  0  0  0  0  0  0
    1.1573    3.6510   -4.6534 N   0  0  0  0  0  0  0  0  0  0  0  0
   -0.0628    3.8878   -5.4174 C   0  0  0  0  0  0  0  0  0  0  0  0
    1.8513    4.3917   -4.5967 H   0  0  0  0  0  0  0  0  0  0  0  0
   -0.1928    3.1161   -6.1835 H   0  0  0  0  0  0  0  0  0  0  0  0
   -0.9367    3.8794   -4.7576 H   0  0  0  0  0  0  0  0  0  0  0  0
   -0.0160    4.8614   -5.9151 H   0  0  0  0  0  0  0  0  0  0  0  0
  1  2  2  0  0  0  0
  1  3  1  0  0  0  0
  1  7  1  0  0  0  0
  3  4  1  0  0  0  0
  3  5  1  0  0  0  0
  3  6  1  0  0  0  0
  7  8  1  0  0  0  0
  7 12  1  0  0  0  0
  8  9  1  0  0  0  0
  8 11  1  0  0  0  0
  8 13  1  0  0  0  0
  9 10  2  0  0  0  0
  9 17  1  0  0  0  0
 11 14  1  0  0  0  0
 11 15  1  0  0  0  0
 11 16  1  0  0  0  0
 17 18  1  0  0  0  0
 17 27  1  0  0  0  0
 18 19  1  0  0  0  0
 18 21  1  0  0  0  0
 18 28  1  0  0  0  0
 19 20  2  0  0  0  0
 19 35  1  0  0  0  0
 21 22  1  0  0  0  0
 21 29  1  0  0  0  0
 21 30  1  0  0  0  0
 22 23  1  0  0  0  0
 22 24  2  0  0  0  0
 23 25  2  0  0  0  0
 23 31  1  0  0  0  0
 24 26  1  0  0  0  0
 24 32  1  0  0  0  0
 25 26  1  0  0  0  0
 25 33  1  0  0  0  0
 26 34  1  0  0  0  0
 35 36  1  0  0  0  0
 35 40  1  0  0  0  0
 36 37  1  0  0  0  0
 36 39  1  0  0  0  0
 36 41  1  0  0  0  0
 37 38  2  0  0  0  0
 37 45  1  0  0  0  0
 39 42  1  0  0  0  0
 39 43  1  0  0  0  0
 39 44  1  0  0  0  0
 45 46  1  0  0  0  0
 45 47  1  0  0  0  0
 46 48  1  0  0  0  0
 46 49  1  0  0  0  0
 46 50  1  0  0  0  0
M  CHG  1  23   1
M  END
$$$$

  -OEChem-05262216443D

 50 50  0     1  0  0  0  0  0999 V2000
   -2.4871   -0.1238    3.8448 C   0  0  0  0  0  0  0  0  0  0  0  0
   -2.8805   -0.6730    2.8207 O   0  0  0  0  0  0  0  0  0  0  0  0
   -2.8335   -0.7174    5.1971 C   0  0  0  0  0  0  0  0  0  0  0  0
   -3.4621   -1.6034    5.0740 H   0  0  0  0  0  0  0  0  0  0  0  0
   -1.9204   -1.0035    5.7251 H   0  0  0  0  0  0  0  0  0  0  0  0
   -3.3774    0.0160    5.7979 H   0  0  0  0  0  0  0  0  0  0  0  0
   -1.7081    1.0150    3.7840 N   0  0  0  0  0  0  0  0  0  0  0  0
   -1.2370    1.6204    2.5291 C   0  0  2  0  0  0  0  0  0  0  0  0
   -0.1672    0.7866    1.7863 C   0  0  0  0  0  0  0  0  0  0  0  0
    0.4238   -0.1310    2.3508 O   0  0  0  0  0  0  0  0  0  0  0  0
   -0.6813    3.0078    2.8579 C   0  0  0  0  0  0  0  0  0  0  0  0
   -1.2935    1.3328    4.6563 H   0  0  0  0  0  0  0  0  0  0  0  0
   -2.0930    1.7405    1.8565 H   0  0  0  0  0  0  0  0  0  0  0  0
    0.1839    2.9275    3.5243 H   0  0  0  0  0  0  0  0  0  0  0  0
   -0.3654    3.5215    1.9440 H   0  0  0  0  0  0  0  0  0  0  0  0
   -1.4459    3.6188    3.3481 H   0  0  0  0  0  0  0  0  0  0  0  0
   -0.0208    0.9360    0.4161 N   0  0  0  0  0  0  0  0  0  0  0  0
    1.0251    0.2402   -0.3586 C   0  0  2  0  0  0  0  0  0  0  0  0
    1.9396    1.2708   -1.0614 C   0  0  0  0  0  0  0  0  0  0  0  0
    2.1307    2.3548   -0.5253 O   0  0  0  0  0  0  0  0  0  0  0  0
    0.2939   -0.7325   -1.3086 C   0  0  0  0  0  0  0  0  0  0  0  0
   -0.4272   -1.7451   -0.4515 C   0  0  0  0  0  0  0  0  0  0  0  0
    0.1110   -2.8206    0.2561 N   0  3  0  0  0  0  0  0  0  0  0  0
   -1.7478   -1.6383   -0.1008 C   0  0  0  0  0  0  0  0  0  0  0  0
   -0.7856   -3.2927    1.0891 C   0  0  0  0  0  0  0  0  0  0  0  0
   -1.9719   -2.5964    0.8731 N   0  0  0  0  0  0  0  0  0  0  0  0
   -0.3644    1.8152    0.0312 H   0  0  0  0  0  0  0  0  0  0  0  0
    1.6898   -0.3361    0.2930 H   0  0  0  0  0  0  0  0  0  0  0  0
    0.9965   -1.2493   -1.9692 H   0  0  0  0  0  0  0  0  0  0  0  0
   -0.4145   -0.1796   -1.9374 H   0  0  0  0  0  0  0  0  0  0  0  0
    1.1111   -3.0299    0.2727 H   0  0  0  0  0  0  0  0  0  0  0  0
   -2.4413   -0.8606   -0.4179 H   0  0  0  0  0  0  0  0  0  0  0  0
   -0.6206   -4.0505    1.8555 H   0  0  0  0  0  0  0  0  0  0  0  0
   -2.7575   -2.5525    1.5339 H   0  0  0  0  0  0  0  0  0  0  0  0
    2.3101    1.1081   -2.3857 N   0  0  0  0  0  0  0  0  0  0  0  0
    2.4137    2.2749   -3.2747 C   0  0  2  0  0  0  0  0  0  0  0  0
    1.0116    2.7260   -3.7466 C   0  0  0  0  0  0  0  0  0  0  0  0
    0.0554    1.9625   -3.6287 O   0  0  0  0  0  0  0  0  0  0  0  0
    3.2897    1.8818   -4.4669 C   0  0  0  0  0  0  0  0  0  0  0  0
    1.9369    0.2748   -2.8279 H   0  0  0  0  0  0  0  0  0  0  0  0
    2.8919    3.1135   -2.7559 H   0  0  0  0  0  0  0  0  0  0  0  0
    2.8345    1.0576   -5.0257 H   0  0  0  0  0  0  0  0  0  0  0  0
    3.4173    2.7311   -5.1454 H   0  0  0  0  0  0  0  0  0  0  0  0
    4.2798    1.5658   -4.1225 H   0  0  0  0  0  0  0  0  0  0  0  0
    0.8149    3.9812   -4.2897 N   0  0  0  0  0  0  0  0  0  0  0  0
   -0.4904    4.4742   -4.7158 C   0  0  0  0  0  0  0  0  0  0  0  0
    1.6122    4.6108   -4.3284 H   0  0  0  0  0  0  0  0  0  0  0  0
   -0.9255    3.8095   -5.4699 H   0  0  0  0  0  0  0  0  0  0  0  0
   -1.1746    4.5350   -3.8630 H   0  0  0  0  0  0  0  0  0  0  0  0
   -0.3941    5.4728   -5.1533 H   0  0  0  0  0  0  0  0  0  0  0  0
  1  2  2  0  0  0  0
  1  3  1  0  0  0  0
  1  7  1  0  0  0  0
  3  4  1  0  0  0  0
  3  5  1  0  0  0  0
  3  6  1  0  0  0  0
  7  8  1  0  0  0  0
  7 12  1  0  0  0  0
  8  9  1  0  0  0  0
  8 11  1  0  0  0  0
  8 13  1  0  0  0  0
  9 10  2  0  0  0  0
  9 17  1  0  0  0  0
 11 14  1  0  0  0  0
 11 15  1  0  0  0  0
 11 16  1  0  0  0  0
 17 18  1  0  0  0  0
 17 27  1  0  0  0  0
 18 19  1  0  0  0  0
 18 21  1  0  0  0  0
 18 28  1  0  0  0  0
 19 20  2  0  0  0  0
 19 35  1  0  0  0  0
 21 22  1  0  0  0  0
 21 29  1  0  0  0  0
 21 30  1  0  0  0  0
 22 23  1  0  0  0  0
 22 24  2  0  0  0  0
 23 25  2  0  0  0  0
 23 31  1  0  0  0  0
 24 26  1  0  0  0  0
 24 32  1  0  0  0  0
 25 26  1  0  0  0  0
 25 33  1  0  0  0  0
 26 34  1  0  0  0  0
 35 36  1  0  0  0  0
 35 40  1  0  0  0  0
 36 37  1  0  0  0  0
 36 39  1  0  0  0  0
 36 41  1  0  0  0  0
 37 38  2  0  0  0  0
 37 45  1  0  0  0  0
 39 42  1  0  0  0  0
 39 43  1  0  0  0  0
 39 44  1  0  0  0  0
 45 46  1  0  0  0  0
 45 47  1  0  0  0  0
 46 48  1  0  0  0  0
 46 49  1  0  0  0  0
 46 50  1  0  0  0  0
M  CHG  1  23   1
M  END
$$$$

  -OEChem-05262216443D

 50 50  0     1  0  0  0  0  0999 V2000
   -2.4082    0.0094    3.8199 C   0  0  0  0  0  0  0  0  0  0  0  0
   -2.8399   -0.6071    2.8507 O   0  0  0  0  0  0  0  0  0  0  0  0
   -2.6825   -0.5034    5.2205 C   0  0  0  0  0  0  0  0  0  0  0  0
   -3.2702   -1.4244    5.1809 H   0  0  0  0  0  0  0  0  0  0  0  0
   -1.7400   -0.7086    5.7343 H   0  0  0  0  0  0  0  0  0  0  0  0
   -3.2422    0.2446    5.7876 H   0  0  0  0  0  0  0  0  0  0  0  0
   -1.6459    1.1491    3.6542 N   0  0  0  0  0  0  0  0  0  0  0  0
   -1.2127    1.6610    2.3454 C   0  0  2  0  0  0  0  0  0  0  0  0
   -0.1404    0.7899    1.6500 C   0  0  0  0  0  0  0  0  0  0  0  0
    0.4464   -0.0980    2.2642 O   0  0  0  0  0  0  0  0  0  0  0  0
   -0.6801    3.0807    2.5526 C   0  0  0  0  0  0  0  0  0  0  0  0
   -1.1930    1.5189    4.4860 H   0  0  0  0  0  0  0  0  0  0  0  0
   -2.0832    1.7111    1.6827 H   0  0  0  0  0  0  0  0  0  0  0  0
    0.2103    3.0680    3.1902 H   0  0  0  0  0  0  0  0  0  0  0  0
   -0.4105    3.5332    1.5927 H   0  0  0  0  0  0  0  0  0  0  0  0
   -1.4415    3.7090    3.0260 H   0  0  0  0  0  0  0  0  0  0  0  0
    0.0044    0.8591    0.2734 N   0  0  0  0  0  0  0  0  0  0  0  0
    1.0235    0.0959   -0.4713 C   0  0  2  0  0  0  0  0  0  0  0  0
    1.9518    1.0711   -1.2266 C   0  0  0  0  0  0  0  0  0  0  0  0
    2.3965    2.0445   -0.6335 O   0  0  0  0  0  0  0  0  0  0  0  0
    0.2708   -0.9215   -1.3526 C   0  0  0  0  0  0  0  0  0  0  0  0
   -0.4534   -1.8668   -0.4237 C   0  0  0  0  0  0  0  0  0  0  0  0
    0.0825   -2.9013    0.3443 N   0  3  0  0  0  0  0  0  0  0  0  0
   -1.7666   -1.7177   -0.0596 C   0  0  0  0  0  0  0  0  0  0  0  0
   -0.8047   -3.3008    1.2239 C   0  0  0  0  0  0  0  0  0  0  0  0
   -1.9864   -2.6058    0.9799 N   0  0  0  0  0  0  0  0  0  0  0  0
   -0.3766    1.6901   -0.1802 H   0  0  0  0  0  0  0  0  0  0  0  0
    1.6840   -0.4527    0.2081 H   0  0  0  0  0  0  0  0  0  0  0  0
    0.9626   -1.4833   -1.9885 H   0  0  0  0  0  0  0  0  0  0  0  0
   -0.4411   -0.3974   -2.0019 H   0  0  0  0  0  0  0  0  0  0  0  0
    1.0809   -3.1199    0.3614 H   0  0  0  0  0  0  0  0  0  0  0  0
   -2.4546   -0.9513   -0.4146 H   0  0  0  0  0  0  0  0  0  0  0  0
   -0.6344   -4.0027    2.0407 H   0  0  0  0  0  0  0  0  0  0  0  0
   -2.7545   -2.4999    1.6549 H   0  0  0  0  0  0  0  0  0  0  0  0
    2.0608    1.0205   -2.6062 N   0  0  0  0  0  0  0  0  0  0  0  0
    2.1108    2.2802   -3.3633 C   0  0  2  0  0  0  0  0  0  0  0  0
    0.7266    2.9740   -3.3773 C   0  0  0  0  0  0  0  0  0  0  0  0
   -0.2735    2.3609   -3.0060 O   0  0  0  0  0  0  0  0  0  0  0  0
    2.5728    1.9553   -4.7857 C   0  0  0  0  0  0  0  0  0  0  0  0
    1.5083    0.2894   -3.0411 H   0  0  0  0  0  0  0  0  0  0  0  0
    2.8365    2.9664   -2.9118 H   0  0  0  0  0  0  0  0  0  0  0  0
    1.8618    1.2848   -5.2791 H   0  0  0  0  0  0  0  0  0  0  0  0
    2.6556    2.8702   -5.3806 H   0  0  0  0  0  0  0  0  0  0  0  0
    3.5540    1.4700   -4.7631 H   0  0  0  0  0  0  0  0  0  0  0  0
    0.5988    4.2822   -3.8022 N   0  0  0  0  0  0  0  0  0  0  0  0
   -0.6725    4.9964   -3.8334 C   0  0  0  0  0  0  0  0  0  0  0  0
    1.4461    4.7798   -4.0631 H   0  0  0  0  0  0  0  0  0  0  0  0
   -1.3911    4.4732   -4.4736 H   0  0  0  0  0  0  0  0  0  0  0  0
   -1.0925    5.0777   -2.8253 H   0  0  0  0  0  0  0  0  0  0  0  0
   -0.5294    6.0063   -4.2304 H   0  0  0  0  0  0  0  0  0  0  0  0
  1  2  2  0  0  0  0
  1  3  1  0  0  0  0
  1  7  1  0  0  0  0
  3  4  1  0  0  0  0
  3  5  1  0  0  0  0
  3  6  1  0  0  0  0
  7  8  1  0  0  0  0
  7 12  1  0  0  0  0
  8  9  1  0  0  0  0
  8 11  1  0  0  0  0
  8 13  1  0  0  0  0
  9 10  2  0  0  0  0
  9 17  1  0  0  0  0
 11 14  1  0  0  0  0
 11 15  1  0  0  0  0
 11 16  1  0  0  0  0
 17 18  1  0  0  0  0
 17 27  1  0  0  0  0
 18 19  1  0  0  0  0
 18 21  1  0  0  0  0
 18 28  1  0  0  0  0
 19 20  2  0  0  0  0
 19 35  1  0  0  0  0
 21 22  1  0  0  0  0
 21 29  1  0  0  0  0
 21 30  1  0  0  0  0
 22 23  1  0  0  0  0
 22 24  2  0  0  0  0
 23 25  2  0  0  0  0
 23 31  1  0  0  0  0
 24 26  1  0  0  0  0
 24 32  1  0  0  0  0
 25 26  1  0  0  0  0
 25 33  1  0  0  0  0
 26 34  1  0  0  0  0
 35 36  1  0  0  0  0
 35 40  1  0  0  0  0
 36 37  1  0  0  0  0
 36 39  1  0  0  0  0
 36 41  1  0  0  0  0
 37 38  2  0  0  0  0
 37 45  1  0  0  0  0
 39 42  1  0  0  0  0
 39 43  1  0  0  0  0
 39 44  1  0  0  0  0
 45 46  1  0  0  0  0
 45 47  1  0  0  0  0
 46 48  1  0  0  0  0
 46 49  1  0  0  0  0
 46 50  1  0  0  0  0
M  CHG  1  23   1
M  END
$$$$

  -OEChem-05262216443D

 50 50  0     1  0  0  0  0  0999 V2000
   -2.3289    0.2073    3.7398 C   0  0  0  0  0  0  0  0  0  0  0  0
   -2.7906   -0.4627    2.8210 O   0  0  0  0  0  0  0  0  0  0  0  0
   -2.5655   -0.2219    5.1751 C   0  0  0  0  0  0  0  0  0  0  0  0
   -3.2305   -1.0893    5.2083 H   0  0  0  0  0  0  0  0  0  0  0  0
   -1.6155   -0.4870    5.6461 H   0  0  0  0  0  0  0  0  0  0  0  0
   -3.0269    0.5937    5.7380 H   0  0  0  0  0  0  0  0  0  0  0  0
   -1.5569    1.3244    3.4872 N   0  0  0  0  0  0  0  0  0  0  0  0
   -1.1356    1.7377    2.1398 C   0  0  2  0  0  0  0  0  0  0  0  0
   -0.0835    0.8060    1.4952 C   0  0  0  0  0  0  0  0  0  0  0  0
    0.4936   -0.0523    2.1586 O   0  0  0  0  0  0  0  0  0  0  0  0
   -0.5836    3.1620    2.2334 C   0  0  0  0  0  0  0  0  0  0  0  0
   -1.0718    1.7291    4.2839 H   0  0  0  0  0  0  0  0  0  0  0  0
   -2.0138    1.7509    1.4854 H   0  0  0  0  0  0  0  0  0  0  0  0
    0.3086    3.1885    2.8677 H   0  0  0  0  0  0  0  0  0  0  0  0
   -0.3112    3.5327    1.2398 H   0  0  0  0  0  0  0  0  0  0  0  0
   -1.3352    3.8356    2.6570 H   0  0  0  0  0  0  0  0  0  0  0  0
    0.0483    0.7869    0.1170 N   0  0  0  0  0  0  0  0  0  0  0  0
    1.0322   -0.0419   -0.6004 C   0  0  2  0  0  0  0  0  0  0  0  0
    1.9526    0.8910   -1.4098 C   0  0  0  0  0  0  0  0  0  0  0  0
    2.6144    1.7334   -0.8202 O   0  0  0  0  0  0  0  0  0  0  0  0
    0.2508   -1.0940   -1.4111 C   0  0  0  0  0  0  0  0  0  0  0  0
   -0.4738   -1.9702   -0.4170 C   0  0  0  0  0  0  0  0  0  0  0  0
    0.0594   -2.9667    0.4017 N   0  3  0  0  0  0  0  0  0  0  0  0
   -1.7719   -1.7642   -0.0263 C   0  0  0  0  0  0  0  0  0  0  0  0
   -0.8127   -3.2885    1.3273 C   0  0  0  0  0  0  0  0  0  0  0  0
   -1.9839   -2.5798    1.0726 N   0  0  0  0  0  0  0  0  0  0  0  0
   -0.3437    1.5844   -0.3934 H   0  0  0  0  0  0  0  0  0  0  0  0
    1.6959   -0.5627    0.0982 H   0  0  0  0  0  0  0  0  0  0  0  0
    0.9266   -1.6985   -2.0248 H   0  0  0  0  0  0  0  0  0  0  0  0
   -0.4664   -0.5994   -2.0758 H   0  0  0  0  0  0  0  0  0  0  0  0
    1.0529   -3.2074    0.4076 H   0  0  0  0  0  0  0  0  0  0  0  0
   -2.4491   -0.9986   -0.4032 H   0  0  0  0  0  0  0  0  0  0  0  0
   -0.6359   -3.9419    2.1819 H   0  0  0  0  0  0  0  0  0  0  0  0
   -2.7261   -2.4065    1.7632 H   0  0  0  0  0  0  0  0  0  0  0  0
    1.8010    0.9935   -2.7820 N   0  0  0  0  0  0  0  0  0  0  0  0
    1.7688    2.3426   -3.3684 C   0  0  2  0  0  0  0  0  0  0  0  0
    0.5020    3.1258   -2.9315 C   0  0  0  0  0  0  0  0  0  0  0  0
   -0.4149    2.5524   -2.3408 O   0  0  0  0  0  0  0  0  0  0  0  0
    1.8167    2.1931   -4.8912 C   0  0  0  0  0  0  0  0  0  0  0  0
    1.1207    0.3498   -3.1708 H   0  0  0  0  0  0  0  0  0  0  0  0
    2.6503    2.9096   -3.0474 H   0  0  0  0  0  0  0  0  0  0  0  0
    0.9354    1.6553   -5.2548 H   0  0  0  0  0  0  0  0  0  0  0  0
    1.8456    3.1758   -5.3721 H   0  0  0  0  0  0  0  0  0  0  0  0
    2.7125    1.6392   -5.1903 H   0  0  0  0  0  0  0  0  0  0  0  0
    0.3867    4.4777   -3.1929 N   0  0  0  0  0  0  0  0  0  0  0  0
   -0.7679    5.2789   -2.8008 C   0  0  0  0  0  0  0  0  0  0  0  0
    1.1745    4.9419   -3.6376 H   0  0  0  0  0  0  0  0  0  0  0  0
   -1.6857    4.8709   -3.2376 H   0  0  0  0  0  0  0  0  0  0  0  0
   -0.8724    5.2937   -1.7109 H   0  0  0  0  0  0  0  0  0  0  0  0
   -0.6511    6.3096   -3.1505 H   0  0  0  0  0  0  0  0  0  0  0  0
  1  2  2  0  0  0  0
  1  3  1  0  0  0  0
  1  7  1  0  0  0  0
  3  4  1  0  0  0  0
  3  5  1  0  0  0  0
  3  6  1  0  0  0  0
  7  8  1  0  0  0  0
  7 12  1  0  0  0  0
  8  9  1  0  0  0  0
  8 11  1  0  0  0  0
  8 13  1  0  0  0  0
  9 10  2  0  0  0  0
  9 17  1  0  0  0  0
 11 14  1  0  0  0  0
 11 15  1  0  0  0  0
 11 16  1  0  0  0  0
 17 18  1  0  0  0  0
 17 27  1  0  0  0  0
 18 19  1  0  0  0  0
 18 21  1  0  0  0  0
 18 28  1  0  0  0  0
 19 20  2  0  0  0  0
 19 35  1  0  0  0  0
 21 22  1  0  0  0  0
 21 29  1  0  0  0  0
 21 30  1  0  0  0  0
 22 23  1  0  0  0  0
 22 24  2  0  0  0  0
 23 25  2  0  0  0  0
 23 31  1  0  0  0  0
 24 26  1  0  0  0  0
 24 32  1  0  0  0  0
 25 26  1  0  0  0  0
 25 33  1  0  0  0  0
 26 34  1  0  0  0  0
 35 36  1  0  0  0  0
 35 40  1  0  0  0  0
 36 37  1  0  0  0  0
 36 39  1  0  0  0  0
 36 41  1  0  0  0  0
 37 38  2  0  0  0  0
 37 45  1  0  0  0  0
 39 42  1  0  0  0  0
 39 43  1  0  0  0  0
 39 44  1  0  0  0  0
 45 46  1  0  0  0  0
 45 47  1  0  0  0  0
 46 48  1  0  0  0  0
 46 49  1  0  0  0  0
 46 50  1  0  0  0  0
M  CHG  1  23   1
M  END
$$$$

  -OEChem-05262216443D

 50 50  0     1  0  0  0  0  0999 V2000
   -2.2071    0.2849    3.7839 C   0  0  0  0  0  0  0  0  0  0  0  0
   -2.6942   -0.4384    2.9201 O   0  0  0  0  0  0  0  0  0  0  0  0
   -2.3973   -0.0604    5.2486 C   0  0  0  0  0  0  0  0  0  0  0  0
   -3.0623   -0.9221    5.3536 H   0  0  0  0  0  0  0  0  0  0  0  0
   -1.4331   -0.3007    5.7035 H   0  0  0  0  0  0  0  0  0  0  0  0
   -2.8390    0.7878    5.7781 H   0  0  0  0  0  0  0  0  0  0  0  0
   -1.4560    1.3926    3.4426 N   0  0  0  0  0  0  0  0  0  0  0  0
   -1.1091    1.7522    2.0590 C   0  0  2  0  0  0  0  0  0  0  0  0
   -0.0805    0.8065    1.3975 C   0  0  0  0  0  0  0  0  0  0  0  0
    0.5379   -0.0223    2.0611 O   0  0  0  0  0  0  0  0  0  0  0  0
   -0.5734    3.1855    2.0625 C   0  0  0  0  0  0  0  0  0  0  0  0
   -0.9525    1.8508    4.1978 H   0  0  0  0  0  0  0  0  0  0  0  0
   -2.0202    1.7271    1.4516 H   0  0  0  0  0  0  0  0  0  0  0  0
    0.3489    3.2503    2.6494 H   0  0  0  0  0  0  0  0  0  0  0  0
   -0.3567    3.5152    1.0409 H   0  0  0  0  0  0  0  0  0  0  0  0
   -1.3124    3.8680    2.4939 H   0  0  0  0  0  0  0  0  0  0  0  0
   -0.0243    0.7382    0.0157 N   0  0  0  0  0  0  0  0  0  0  0  0
    0.9308   -0.1062   -0.7230 C   0  0  2  0  0  0  0  0  0  0  0  0
    1.7931    0.8039   -1.6149 C   0  0  0  0  0  0  0  0  0  0  0  0
    2.6669    1.4876   -1.1027 O   0  0  0  0  0  0  0  0  0  0  0  0
    0.1321   -1.2044   -1.4507 C   0  0  0  0  0  0  0  0  0  0  0  0
   -0.5190   -2.0501   -0.3823 C   0  0  0  0  0  0  0  0  0  0  0  0
    0.0810   -2.9990    0.4466 N   0  3  0  0  0  0  0  0  0  0  0  0
   -1.7974   -1.8521    0.0727 C   0  0  0  0  0  0  0  0  0  0  0  0
   -0.7289   -3.2926    1.4359 C   0  0  0  0  0  0  0  0  0  0  0  0
   -1.9283   -2.6198    1.2176 N   0  0  0  0  0  0  0  0  0  0  0  0
   -0.4260    1.5370   -0.4891 H   0  0  0  0  0  0  0  0  0  0  0  0
    1.6391   -0.5887   -0.0405 H   0  0  0  0  0  0  0  0  0  0  0  0
    0.7890   -1.8179   -2.0762 H   0  0  0  0  0  0  0  0  0  0  0  0
   -0.6314   -0.7554   -2.0948 H   0  0  0  0  0  0  0  0  0  0  0  0
    1.0792   -3.2170    0.4080 H   0  0  0  0  0  0  0  0  0  0  0  0
   -2.5116   -1.1178   -0.2975 H   0  0  0  0  0  0  0  0  0  0  0  0
   -0.4876   -3.8993    2.3090 H   0  0  0  0  0  0  0  0  0  0  0  0
   -2.6333   -2.4289    1.9416 H   0  0  0  0  0  0  0  0  0  0  0  0
    1.3756    1.0890   -2.9035 N   0  0  0  0  0  0  0  0  0  0  0  0
    1.4263    2.4870   -3.3591 C   0  0  2  0  0  0  0  0  0  0  0  0
    0.3529    3.3524   -2.6498 C   0  0  0  0  0  0  0  0  0  0  0  0
   -0.5432    2.8192   -1.9932 O   0  0  0  0  0  0  0  0  0  0  0  0
    1.2159    2.4939   -4.8751 C   0  0  0  0  0  0  0  0  0  0  0  0
    0.5408    0.5862   -3.1854 H   0  0  0  0  0  0  0  0  0  0  0  0
    2.4112    2.9179   -3.1447 H   0  0  0  0  0  0  0  0  0  0  0  0
    0.2283    2.0969   -5.1306 H   0  0  0  0  0  0  0  0  0  0  0  0
    1.2921    3.5125   -5.2682 H   0  0  0  0  0  0  0  0  0  0  0  0
    1.9775    1.8794   -5.3659 H   0  0  0  0  0  0  0  0  0  0  0  0
    0.3918    4.7305   -2.7350 N   0  0  0  0  0  0  0  0  0  0  0  0
   -0.5711    5.6060   -2.0759 C   0  0  0  0  0  0  0  0  0  0  0  0
    1.1703    5.1503   -3.2369 H   0  0  0  0  0  0  0  0  0  0  0  0
   -1.5895    5.3760   -2.4071 H   0  0  0  0  0  0  0  0  0  0  0  0
   -0.5180    5.4860   -0.9887 H   0  0  0  0  0  0  0  0  0  0  0  0
   -0.3596    6.6523   -2.3182 H   0  0  0  0  0  0  0  0  0  0  0  0
  1  2  2  0  0  0  0
  1  3  1  0  0  0  0
  1  7  1  0  0  0  0
  3  4  1  0  0  0  0
  3  5  1  0  0  0  0
  3  6  1  0  0  0  0
  7  8  1  0  0  0  0
  7 12  1  0  0  0  0
  8  9  1  0  0  0  0
  8 11  1  0  0  0  0
  8 13  1  0  0  0  0
  9 10  2  0  0  0  0
  9 17  1  0  0  0  0
 11 14  1  0  0  0  0
 11 15  1  0  0  0  0
 11 16  1  0  0  0  0
 17 18  1  0  0  0  0
 17 27  1  0  0  0  0
 18 19  1  0  0  0  0
 18 21  1  0  0  0  0
 18 28  1  0  0  0  0
 19 20  2  0  0  0  0
 19 35  1  0  0  0  0
 21 22  1  0  0  0  0
 21 29  1  0  0  0  0
 21 30  1  0  0  0  0
 22 23  1  0  0  0  0
 22 24  2  0  0  0  0
 23 25  2  0  0  0  0
 23 31  1  0  0  0  0
 24 26  1  0  0  0  0
 24 32  1  0  0  0  0
 25 26  1  0  0  0  0
 25 33  1  0  0  0  0
 26 34  1  0  0  0  0
 35 36  1  0  0  0  0
 35 40  1  0  0  0  0
 36 37  1  0  0  0  0
 36 39  1  0  0  0  0
 36 41  1  0  0  0  0
 37 38  2  0  0  0  0
 37 45  1  0  0  0  0
 39 42  1  0  0  0  0
 39 43  1  0  0  0  0
 39 44  1  0  0  0  0
 45 46  1  0  0  0  0
 45 47  1  0  0  0  0
 46 48  1  0  0  0  0
 46 49  1  0  0  0  0
 46 50  1  0  0  0  0
M  CHG  1  23   1
M  END
$$$$

  -OEChem-05262216443D

 50 50  0     1  0  0  0  0  0999 V2000
   -2.1014    0.2942    3.8319 C   0  0  0  0  0  0  0  0  0  0  0  0
   -2.6060   -0.4469    2.9941 O   0  0  0  0  0  0  0  0  0  0  0  0
   -2.2287   -0.0403    5.3057 C   0  0  0  0  0  0  0  0  0  0  0  0
   -2.8117   -0.9554    5.4393 H   0  0  0  0  0  0  0  0  0  0  0  0
   -1.2378   -0.1864    5.7429 H   0  0  0  0  0  0  0  0  0  0  0  0
   -2.7328    0.7754    5.8304 H   0  0  0  0  0  0  0  0  0  0  0  0
   -1.3917    1.4166    3.4528 N   0  0  0  0  0  0  0  0  0  0  0  0
   -1.1125    1.7784    2.0545 C   0  0  2  0  0  0  0  0  0  0  0  0
   -0.1135    0.8352    1.3434 C   0  0  0  0  0  0  0  0  0  0  0  0
    0.5602    0.0317    1.9836 O   0  0  0  0  0  0  0  0  0  0  0  0
   -0.5808    3.2129    2.0447 C   0  0  0  0  0  0  0  0  0  0  0  0
   -0.8765    1.8990    4.1845 H   0  0  0  0  0  0  0  0  0  0  0  0
   -2.0512    1.7544    1.4905 H   0  0  0  0  0  0  0  0  0  0  0  0
    0.3667    3.2759    2.5899 H   0  0  0  0  0  0  0  0  0  0  0  0
   -0.4123    3.5514    1.0180 H   0  0  0  0  0  0  0  0  0  0  0  0
   -1.3015    3.8900    2.5142 H   0  0  0  0  0  0  0  0  0  0  0  0
   -0.1450    0.7358   -0.0387 N   0  0  0  0  0  0  0  0  0  0  0  0
    0.7929   -0.1029   -0.8111 C   0  0  2  0  0  0  0  0  0  0  0  0
    1.5845    0.7839   -1.7854 C   0  0  0  0  0  0  0  0  0  0  0  0
    2.6444    1.2744   -1.4293 O   0  0  0  0  0  0  0  0  0  0  0  0
    0.0012   -1.2492   -1.4655 C   0  0  0  0  0  0  0  0  0  0  0  0
   -0.5586   -2.0892   -0.3421 C   0  0  0  0  0  0  0  0  0  0  0  0
    0.1282   -2.9898    0.4731 N   0  3  0  0  0  0  0  0  0  0  0  0
   -1.8169   -1.9348    0.1806 C   0  0  0  0  0  0  0  0  0  0  0  0
   -0.6124   -3.2984    1.5106 C   0  0  0  0  0  0  0  0  0  0  0  0
   -1.8508   -2.6835    1.3452 N   0  0  0  0  0  0  0  0  0  0  0  0
   -0.5541    1.5458   -0.5195 H   0  0  0  0  0  0  0  0  0  0  0  0
    1.5508   -0.5457   -0.1548 H   0  0  0  0  0  0  0  0  0  0  0  0
    0.6507   -1.8543   -2.1075 H   0  0  0  0  0  0  0  0  0  0  0  0
   -0.8089   -0.8499   -2.0841 H   0  0  0  0  0  0  0  0  0  0  0  0
    1.1314   -3.1652    0.3819 H   0  0  0  0  0  0  0  0  0  0  0  0
   -2.5837   -1.2418   -0.1625 H   0  0  0  0  0  0  0  0  0  0  0  0
   -0.2969   -3.8772    2.3791 H   0  0  0  0  0  0  0  0  0  0  0  0
   -2.5285   -2.5164    2.0999 H   0  0  0  0  0  0  0  0  0  0  0  0
    0.9537    1.2587   -2.9219 N   0  0  0  0  0  0  0  0  0  0  0  0
    1.1367    2.6670   -3.3022 C   0  0  2  0  0  0  0  0  0  0  0  0
    0.2894    3.5947   -2.3975 C   0  0  0  0  0  0  0  0  0  0  0  0
   -0.5996    3.1206   -1.6881 O   0  0  0  0  0  0  0  0  0  0  0  0
    0.7322    2.8163   -4.7708 C   0  0  0  0  0  0  0  0  0  0  0  0
    0.0050    0.9155   -3.0359 H   0  0  0  0  0  0  0  0  0  0  0  0
    2.1892    2.9564   -3.2033 H   0  0  0  0  0  0  0  0  0  0  0  0
   -0.3229    2.5590   -4.9091 H   0  0  0  0  0  0  0  0  0  0  0  0
    0.8850    3.8462   -5.1084 H   0  0  0  0  0  0  0  0  0  0  0  0
    1.3383    2.1563   -5.3998 H   0  0  0  0  0  0  0  0  0  0  0  0
    0.5288    4.9546   -2.3636 N   0  0  0  0  0  0  0  0  0  0  0  0
   -0.2066    5.8834   -1.5124 C   0  0  0  0  0  0  0  0  0  0  0  0
    1.3039    5.3105   -2.9177 H   0  0  0  0  0  0  0  0  0  0  0  0
   -1.2825    5.8144   -1.7056 H   0  0  0  0  0  0  0  0  0  0  0  0
   -0.0232    5.6642   -0.4555 H   0  0  0  0  0  0  0  0  0  0  0  0
    0.1117    6.9117   -1.7118 H   0  0  0  0  0  0  0  0  0  0  0  0
  1  2  2  0  0  0  0
  1  3  1  0  0  0  0
  1  7  1  0  0  0  0
  3  4  1  0  0  0  0
  3  5  1  0  0  0  0
  3  6  1  0  0  0  0
  7  8  1  0  0  0  0
  7 12  1  0  0  0  0
  8  9  1  0  0  0  0
  8 11  1  0  0  0  0
  8 13  1  0  0  0  0
  9 10  2  0  0  0  0
  9 17  1  0  0  0  0
 11 14  1  0  0  0  0
 11 15  1  0  0  0  0
 11 16  1  0  0  0  0
 17 18  1  0  0  0  0
 17 27  1  0  0  0  0
 18 19  1  0  0  0  0
 18 21  1  0  0  0  0
 18 28  1  0  0  0  0
 19 20  2  0  0  0  0
 19 35  1  0  0  0  0
 21 22  1  0  0  0  0
 21 29  1  0  0  0  0
 21 30  1  0  0  0  0
 22 23  1  0  0  0  0
 22 24  2  0  0  0  0
 23 25  2  0  0  0  0
 23 31  1  0  0  0  0
 24 26  1  0  0  0  0
 24 32  1  0  0  0  0
 25 26  1  0  0  0  0
 25 33  1  0  0  0  0
 26 34  1  0  0  0  0
 35 36  1  0  0  0  0
 35 40  1  0  0  0  0
 36 37  1  0  0  0  0
 36 39  1  0  0  0  0
 36 41  1  0  0  0  0
 37 38  2  0  0  0  0
 37 45  1  0  0  0  0
 39 42  1  0  0  0  0
 39 43  1  0  0  0  0
 39 44  1  0  0  0  0
 45 46  1  0  0  0  0
 45 47  1  0  0  0  0
 46 48  1  0  0  0  0
 46 49  1  0  0  0  0
 46 50  1  0  0  0  0
M  CHG  1  23   1
M  END
$$$$

  -OEChem-05262216443D

 50 50  0     1  0  0  0  0  0999 V2000
   -1.9971    0.3356    3.8473 C   0  0  0  0  0  0  0  0  0  0  0  0
   -2.5455   -0.3393    2.9825 O   0  0  0  0  0  0  0  0  0  0  0  0
   -2.1360   -0.0556    5.3061 C   0  0  0  0  0  0  0  0  0  0  0  0
   -2.8480   -0.8785    5.4137 H   0  0  0  0  0  0  0  0  0  0  0  0
   -1.1671   -0.3704    5.7019 H   0  0  0  0  0  0  0  0  0  0  0  0
   -2.4979    0.7963    5.8875 H   0  0  0  0  0  0  0  0  0  0  0  0
   -1.2226    1.4288    3.5138 N   0  0  0  0  0  0  0  0  0  0  0  0
   -0.9313    1.8447    2.1331 C   0  0  2  0  0  0  0  0  0  0  0  0
   -0.0558    0.8432    1.3435 C   0  0  0  0  0  0  0  0  0  0  0  0
    0.6403    0.0194    1.9320 O   0  0  0  0  0  0  0  0  0  0  0  0
   -0.2333    3.2047    2.2059 C   0  0  0  0  0  0  0  0  0  0  0  0
   -0.6869    1.8544    4.2655 H   0  0  0  0  0  0  0  0  0  0  0  0
   -1.8761    1.9645    1.5921 H   0  0  0  0  0  0  0  0  0  0  0  0
    0.7202    3.1201    2.7375 H   0  0  0  0  0  0  0  0  0  0  0  0
   -0.0336    3.5876    1.2014 H   0  0  0  0  0  0  0  0  0  0  0  0
   -0.8642    3.9300    2.7291 H   0  0  0  0  0  0  0  0  0  0  0  0
   -0.2009    0.7437   -0.0324 N   0  0  0  0  0  0  0  0  0  0  0  0
    0.6780   -0.1035   -0.8674 C   0  0  2  0  0  0  0  0  0  0  0  0
    1.4088    0.7523   -1.9134 C   0  0  0  0  0  0  0  0  0  0  0  0
    2.5954    1.0012   -1.7742 O   0  0  0  0  0  0  0  0  0  0  0  0
   -0.1656   -1.2374   -1.4734 C   0  0  0  0  0  0  0  0  0  0  0  0
   -0.6655   -2.0807   -0.3259 C   0  0  0  0  0  0  0  0  0  0  0  0
    0.0632   -2.9950    0.4355 N   0  3  0  0  0  0  0  0  0  0  0  0
   -1.8937   -1.9353    0.2656 C   0  0  0  0  0  0  0  0  0  0  0  0
   -0.6250   -3.3331    1.4995 C   0  0  0  0  0  0  0  0  0  0  0  0
   -1.8693   -2.7140    1.4106 N   0  0  0  0  0  0  0  0  0  0  0  0
   -0.6072    1.5787   -0.4701 H   0  0  0  0  0  0  0  0  0  0  0  0
    1.4724   -0.5550   -0.2623 H   0  0  0  0  0  0  0  0  0  0  0  0
    0.4360   -1.8449   -2.1582 H   0  0  0  0  0  0  0  0  0  0  0  0
   -1.0065   -0.8251   -2.0407 H   0  0  0  0  0  0  0  0  0  0  0  0
    1.0592   -3.1715    0.2850 H   0  0  0  0  0  0  0  0  0  0  0  0
   -2.6784   -1.2375   -0.0231 H   0  0  0  0  0  0  0  0  0  0  0  0
   -0.2687   -3.9393    2.3330 H   0  0  0  0  0  0  0  0  0  0  0  0
   -2.5263   -2.5922    2.1898 H   0  0  0  0  0  0  0  0  0  0  0  0
    0.6507    1.4622   -2.8264 N   0  0  0  0  0  0  0  0  0  0  0  0
    0.9683    2.8661   -3.1210 C   0  0  2  0  0  0  0  0  0  0  0  0
    0.2330    3.7962   -2.1278 C   0  0  0  0  0  0  0  0  0  0  0  0
   -0.6249    3.3294   -1.3767 O   0  0  0  0  0  0  0  0  0  0  0  0
    0.5445    3.1521   -4.5638 C   0  0  0  0  0  0  0  0  0  0  0  0
   -0.3453    1.2721   -2.7602 H   0  0  0  0  0  0  0  0  0  0  0  0
    2.0448    3.0517   -3.0330 H   0  0  0  0  0  0  0  0  0  0  0  0
   -0.5331    3.0028   -4.6867 H   0  0  0  0  0  0  0  0  0  0  0  0
    0.7856    4.1837   -4.8385 H   0  0  0  0  0  0  0  0  0  0  0  0
    1.0705    2.4824   -5.2520 H   0  0  0  0  0  0  0  0  0  0  0  0
    0.5352    5.1423   -2.0599 N   0  0  0  0  0  0  0  0  0  0  0  0
   -0.1153    6.0710   -1.1420 C   0  0  0  0  0  0  0  0  0  0  0  0
    1.2694    5.4932   -2.6702 H   0  0  0  0  0  0  0  0  0  0  0  0
   -1.2025    6.0449   -1.2725 H   0  0  0  0  0  0  0  0  0  0  0  0
    0.1221    5.8146   -0.1044 H   0  0  0  0  0  0  0  0  0  0  0  0
    0.2273    7.0931   -1.3321 H   0  0  0  0  0  0  0  0  0  0  0  0
  1  2  2  0  0  0  0
  1  3  1  0  0  0  0
  1  7  1  0  0  0  0
  3  4  1  0  0  0  0
  3  5  1  0  0  0  0
  3  6  1  0  0  0  0
  7  8  1  0  0  0  0
  7 12  1  0  0  0  0
  8  9  1  0  0  0  0
  8 11  1  0  0  0  0
  8 13  1  0  0  0  0
  9 10  2  0  0  0  0
  9 17  1  0  0  0  0
 11 14  1  0  0  0  0
 11 15  1  0  0  0  0
 11 16  1  0  0  0  0
 17 18  1  0  0  0  0
 17 27  1  0  0  0  0
 18 19  1  0  0  0  0
 18 21  1  0  0  0  0
 18 28  1  0  0  0  0
 19 20  2  0  0  0  0
 19 35  1  0  0  0  0
 21 22  1  0  0  0  0
 21 29  1  0  0  0  0
 21 30  1  0  0  0  0
 22 23  1  0  0  0  0
 22 24  2  0  0  0  0
 23 25  2  0  0  0  0
 23 31  1  0  0  0  0
 24 26  1  0  0  0  0
 24 32  1  0  0  0  0
 25 26  1  0  0  0  0
 25 33  1  0  0  0  0
 26 34  1  0  0  0  0
 35 36  1  0  0  0  0
 35 40  1  0  0  0  0
 36 37  1  0  0  0  0
 36 39  1  0  0  0  0
 36 41  1  0  0  0  0
 37 38  2  0  0  0  0
 37 45  1  0  0  0  0
 39 42  1  0  0  0  0
 39 43  1  0  0  0  0
 39 44  1  0  0  0  0
 45 46  1  0  0  0  0
 45 47  1  0  0  0  0
 46 48  1  0  0  0  0
 46 49  1  0  0  0  0
 46 50  1  0  0  0  0
M  CHG  1  23   1
M  END
$$$$

  -OEChem-05262216443D

 50 50  0     1  0  0  0  0  0999 V2000
   -1.8904    0.3497    3.8768 C   0  0  0  0  0  0  0  0  0  0  0  0
   -2.4948   -0.2471    2.9933 O   0  0  0  0  0  0  0  0  0  0  0  0
   -2.0246   -0.1067    5.3168 C   0  0  0  0  0  0  0  0  0  0  0  0
   -2.7988   -0.8740    5.4024 H   0  0  0  0  0  0  0  0  0  0  0  0
   -1.0753   -0.5200    5.6667 H   0  0  0  0  0  0  0  0  0  0  0  0
   -2.3008    0.7387    5.9522 H   0  0  0  0  0  0  0  0  0  0  0  0
   -1.0526    1.4053    3.5787 N   0  0  0  0  0  0  0  0  0  0  0  0
   -0.7606    1.8728    2.2146 C   0  0  2  0  0  0  0  0  0  0  0  0
   -0.0083    0.8392    1.3430 C   0  0  0  0  0  0  0  0  0  0  0  0
    0.7068   -0.0118    1.8660 O   0  0  0  0  0  0  0  0  0  0  0  0
    0.0749    3.1479    2.3527 C   0  0  0  0  0  0  0  0  0  0  0  0
   -0.4831    1.7646    4.3401 H   0  0  0  0  0  0  0  0  0  0  0  0
   -1.7020    2.1193    1.7115 H   0  0  0  0  0  0  0  0  0  0  0  0
    1.0150    2.9364    2.8726 H   0  0  0  0  0  0  0  0  0  0  0  0
    0.3135    3.5614    1.3693 H   0  0  0  0  0  0  0  0  0  0  0  0
   -0.4766    3.9057    2.9181 H   0  0  0  0  0  0  0  0  0  0  0  0
   -0.2715    0.7578   -0.0175 N   0  0  0  0  0  0  0  0  0  0  0  0
    0.5297   -0.0951   -0.9275 C   0  0  2  0  0  0  0  0  0  0  0  0
    1.1989    0.7315   -2.0371 C   0  0  0  0  0  0  0  0  0  0  0  0
    2.4127    0.7187   -2.1601 O   0  0  0  0  0  0  0  0  0  0  0  0
   -0.3808   -1.2005   -1.4844 C   0  0  0  0  0  0  0  0  0  0  0  0
   -0.8194   -2.0562   -0.3221 C   0  0  0  0  0  0  0  0  0  0  0  0
   -0.0595   -3.0018    0.3674 N   0  3  0  0  0  0  0  0  0  0  0  0
   -2.0050   -1.9081    0.3492 C   0  0  0  0  0  0  0  0  0  0  0  0
   -0.6877   -3.3649    1.4599 C   0  0  0  0  0  0  0  0  0  0  0  0
   -1.9242   -2.7241    1.4653 N   0  0  0  0  0  0  0  0  0  0  0  0
   -0.6798    1.6149   -0.4043 H   0  0  0  0  0  0  0  0  0  0  0  0
    1.3566   -0.5697   -0.3868 H   0  0  0  0  0  0  0  0  0  0  0  0
    0.1556   -1.8087   -2.2211 H   0  0  0  0  0  0  0  0  0  0  0  0
   -1.2490   -0.7584   -1.9843 H   0  0  0  0  0  0  0  0  0  0  0  0
    0.9189   -3.1974    0.1421 H   0  0  0  0  0  0  0  0  0  0  0  0
   -2.7951   -1.1913    0.1288 H   0  0  0  0  0  0  0  0  0  0  0  0
   -0.2935   -4.0077    2.2474 H   0  0  0  0  0  0  0  0  0  0  0  0
   -2.5476   -2.6403    2.2751 H   0  0  0  0  0  0  0  0  0  0  0  0
    0.4425    1.6839   -2.6911 N   0  0  0  0  0  0  0  0  0  0  0  0
    0.9415    3.0499   -2.8874 C   0  0  2  0  0  0  0  0  0  0  0  0
    0.2895    3.9843   -1.8425 C   0  0  0  0  0  0  0  0  0  0  0  0
   -0.5779    3.5363   -1.0900 O   0  0  0  0  0  0  0  0  0  0  0  0
    0.5982    3.4779   -4.3163 C   0  0  0  0  0  0  0  0  0  0  0  0
   -0.5459    1.6467   -2.4546 H   0  0  0  0  0  0  0  0  0  0  0  0
    2.0287    3.0985   -2.7578 H   0  0  0  0  0  0  0  0  0  0  0  0
   -0.4858    3.4791   -4.4700 H   0  0  0  0  0  0  0  0  0  0  0  0
    0.9798    4.4831   -4.5204 H   0  0  0  0  0  0  0  0  0  0  0  0
    1.0507    2.7871   -5.0351 H   0  0  0  0  0  0  0  0  0  0  0  0
    0.6747    5.3057   -1.7276 N   0  0  0  0  0  0  0  0  0  0  0  0
    0.0724    6.2433   -0.7858 C   0  0  0  0  0  0  0  0  0  0  0  0
    1.3958    5.6447   -2.3601 H   0  0  0  0  0  0  0  0  0  0  0  0
   -1.0099    6.3044   -0.9425 H   0  0  0  0  0  0  0  0  0  0  0  0
    0.2624    5.9293    0.2456 H   0  0  0  0  0  0  0  0  0  0  0  0
    0.4963    7.2430   -0.9246 H   0  0  0  0  0  0  0  0  0  0  0  0
  1  2  2  0  0  0  0
  1  3  1  0  0  0  0
  1  7  1  0  0  0  0
  3  4  1  0  0  0  0
  3  5  1  0  0  0  0
  3  6  1  0  0  0  0
  7  8  1  0  0  0  0
  7 12  1  0  0  0  0
  8  9  1  0  0  0  0
  8 11  1  0  0  0  0
  8 13  1  0  0  0  0
  9 10  2  0  0  0  0
  9 17  1  0  0  0  0
 11 14  1  0  0  0  0
 11 15  1  0  0  0  0
 11 16  1  0  0  0  0
 17 18  1  0  0  0  0
 17 27  1  0  0  0  0
 18 19  1  0  0  0  0
 18 21  1  0  0  0  0
 18 28  1  0  0  0  0
 19 20  2  0  0  0  0
 19 35  1  0  0  0  0
 21 22  1  0  0  0  0
 21 29  1  0  0  0  0
 21 30  1  0  0  0  0
 22 23  1  0  0  0  0
 22 24  2  0  0  0  0
 23 25  2  0  0  0  0
 23 31  1  0  0  0  0
 24 26  1  0  0  0  0
 24 32  1  0  0  0  0
 25 26  1  0  0  0  0
 25 33  1  0  0  0  0
 26 34  1  0  0  0  0
 35 36  1  0  0  0  0
 35 40  1  0  0  0  0
 36 37  1  0  0  0  0
 36 39  1  0  0  0  0
 36 41  1  0  0  0  0
 37 38  2  0  0  0  0
 37 45  1  0  0  0  0
 39 42  1  0  0  0  0
 39 43  1  0  0  0  0
 39 44  1  0  0  0  0
 45 46  1  0  0  0  0
 45 47  1  0  0  0  0
 46 48  1  0  0  0  0
 46 49  1  0  0  0  0
 46 50  1  0  0  0  0
M  CHG  1  23   1
M  END
$$$$

  -OEChem-05262216443D

 50 50  0     1  0  0  0  0  0999 V2000
   -1.8325   -0.1002    4.2000 C   0  0  0  0  0  0  0  0  0  0  0  0
   -2.4091   -0.8088    3.3809 O   0  0  0  0  0  0  0  0  0  0  0  0
   -1.6757   -0.5741    5.6321 C   0  0  0  0  0  0  0  0  0  0  0  0
   -2.2079   -1.5174    5.7806 H   0  0  0  0  0  0  0  0  0  0  0  0
   -0.6179   -0.7248    5.8620 H   0  0  0  0  0  0  0  0  0  0  0  0
   -2.0864    0.1706    6.3189 H   0  0  0  0  0  0  0  0  0  0  0  0
   -1.2915    1.1129    3.8246 N   0  0  0  0  0  0  0  0  0  0  0  0
   -1.2783    1.6082    2.4409 C   0  0  2  0  0  0  0  0  0  0  0  0
   -0.3049    0.8475    1.5094 C   0  0  0  0  0  0  0  0  0  0  0  0
    0.5868    0.1415    1.9693 O   0  0  0  0  0  0  0  0  0  0  0  0
   -0.9134    3.0936    2.4831 C   0  0  0  0  0  0  0  0  0  0  0  0
   -0.7015    1.5812    4.5078 H   0  0  0  0  0  0  0  0  0  0  0  0
   -2.2867    1.5121    2.0248 H   0  0  0  0  0  0  0  0  0  0  0  0
    0.1046    3.2304    2.8627 H   0  0  0  0  0  0  0  0  0  0  0  0
   -0.9689    3.5309    1.4814 H   0  0  0  0  0  0  0  0  0  0  0  0
   -1.6047    3.6395    3.1330 H   0  0  0  0  0  0  0  0  0  0  0  0
   -0.5462    0.8236    0.1430 N   0  0  0  0  0  0  0  0  0  0  0  0
    0.2937    0.0920   -0.8339 C   0  0  2  0  0  0  0  0  0  0  0  0
    0.9200    1.0005   -1.9050 C   0  0  0  0  0  0  0  0  0  0  0  0
    1.9778    0.6753   -2.4205 O   0  0  0  0  0  0  0  0  0  0  0  0
   -0.5193   -1.0634   -1.4383 C   0  0  0  0  0  0  0  0  0  0  0  0
   -0.8394   -2.0164   -0.3131 C   0  0  0  0  0  0  0  0  0  0  0  0
    0.0413   -2.9104    0.2968 N   0  3  0  0  0  0  0  0  0  0  0  0
   -2.0113   -2.0387    0.3978 C   0  0  0  0  0  0  0  0  0  0  0  0
   -0.5025   -3.3958    1.3866 C   0  0  0  0  0  0  0  0  0  0  0  0
   -1.7991   -2.8942    1.4673 N   0  0  0  0  0  0  0  0  0  0  0  0
   -1.2759    1.4465   -0.1942 H   0  0  0  0  0  0  0  0  0  0  0  0
    1.1583   -0.3439   -0.3212 H   0  0  0  0  0  0  0  0  0  0  0  0
    0.0577   -1.5755   -2.2169 H   0  0  0  0  0  0  0  0  0  0  0  0
   -1.4362   -0.6820   -1.8999 H   0  0  0  0  0  0  0  0  0  0  0  0
    1.0240   -2.9935    0.0239 H   0  0  0  0  0  0  0  0  0  0  0  0
   -2.8882   -1.4149    0.2338 H   0  0  0  0  0  0  0  0  0  0  0  0
   -0.0130   -4.0326    2.1242 H   0  0  0  0  0  0  0  0  0  0  0  0
   -2.3818   -2.8986    2.3130 H   0  0  0  0  0  0  0  0  0  0  0  0
    0.2724    2.1514   -2.3080 N   0  0  0  0  0  0  0  0  0  0  0  0
    0.9998    3.3194   -2.8204 C   0  0  2  0  0  0  0  0  0  0  0  0
    0.8838    4.4739   -1.8013 C   0  0  0  0  0  0  0  0  0  0  0  0
    0.0636    4.3884   -0.8887 O   0  0  0  0  0  0  0  0  0  0  0  0
    0.3916    3.7100   -4.1691 C   0  0  0  0  0  0  0  0  0  0  0  0
   -0.5229    2.4036   -1.7274 H   0  0  0  0  0  0  0  0  0  0  0  0
    2.0635    3.0966   -2.9602 H   0  0  0  0  0  0  0  0  0  0  0  0
   -0.6674    3.9631   -4.0551 H   0  0  0  0  0  0  0  0  0  0  0  0
    0.9121    4.5758   -4.5901 H   0  0  0  0  0  0  0  0  0  0  0  0
    0.4779    2.8788   -4.8762 H   0  0  0  0  0  0  0  0  0  0  0  0
    1.6964    5.5875   -1.8874 N   0  0  0  0  0  0  0  0  0  0  0  0
    1.6472    6.6899   -0.9330 C   0  0  0  0  0  0  0  0  0  0  0  0
    2.3829    5.6180   -2.6367 H   0  0  0  0  0  0  0  0  0  0  0  0
    0.6469    7.1355   -0.9120 H   0  0  0  0  0  0  0  0  0  0  0  0
    1.8970    6.3377    0.0736 H   0  0  0  0  0  0  0  0  0  0  0  0
    2.3642    7.4678   -1.2137 H   0  0  0  0  0  0  0  0  0  0  0  0
  1  2  2  0  0  0  0
  1  3  1  0  0  0  0
  1  7  1  0  0  0  0
  3  4  1  0  0  0  0
  3  5  1  0  0  0  0
  3  6  1  0  0  0  0
  7  8  1  0  0  0  0
  7 12  1  0  0  0  0
  8  9  1  0  0  0  0
  8 11  1  0  0  0  0
  8 13  1  0  0  0  0
  9 10  2  0  0  0  0
  9 17  1  0  0  0  0
 11 14  1  0  0  0  0
 11 15  1  0  0  0  0
 11 16  1  0  0  0  0
 17 18  1  0  0  0  0
 17 27  1  0  0  0  0
 18 19  1  0  0  0  0
 18 21  1  0  0  0  0
 18 28  1  0  0  0  0
 19 20  2  0  0  0  0
 19 35  1  0  0  0  0
 21 22  1  0  0  0  0
 21 29  1  0  0  0  0
 21 30  1  0  0  0  0
 22 23  1  0  0  0  0
 22 24  2  0  0  0  0
 23 25  2  0  0  0  0
 23 31  1  0  0  0  0
 24 26  1  0  0  0  0
 24 32  1  0  0  0  0
 25 26  1  0  0  0  0
 25 33  1  0  0  0  0
 26 34  1  0  0  0  0
 35 36  1  0  0  0  0
 35 40  1  0  0  0  0
 36 37  1  0  0  0  0
 36 39  1  0  0  0  0
 36 41  1  0  0  0  0
 37 38  2  0  0  0  0
 37 45  1  0  0  0  0
 39 42  1  0  0  0  0
 39 43  1  0  0  0  0
 39 44  1  0  0  0  0
 45 46  1  0  0  0  0
 45 47  1  0  0  0  0
 46 48  1  0  0  0  0
 46 49  1  0  0  0  0
 46 50  1  0  0  0  0
M  CHG  1  23   1
M  END
$$$$

  -OEChem-05262216443D

 50 50  0     1  0  0  0  0  0999 V2000
   -1.7844   -0.3141    4.3074 C   0  0  0  0  0  0  0  0  0  0  0  0
   -2.4096   -0.9498    3.4645 O   0  0  0  0  0  0  0  0  0  0  0  0
   -1.5898   -0.8883    5.6975 C   0  0  0  0  0  0  0  0  0  0  0  0
   -2.1695   -1.8081    5.8146 H   0  0  0  0  0  0  0  0  0  0  0  0
   -0.5332   -1.1127    5.8633 H   0  0  0  0  0  0  0  0  0  0  0  0
   -1.9228   -0.1679    6.4492 H   0  0  0  0  0  0  0  0  0  0  0  0
   -1.2217    0.9065    3.9918 N   0  0  0  0  0  0  0  0  0  0  0  0
   -1.2400    1.4869    2.6416 C   0  0  2  0  0  0  0  0  0  0  0  0
   -0.2949    0.7797    1.6420 C   0  0  0  0  0  0  0  0  0  0  0  0
    0.6038    0.0431    2.0339 O   0  0  0  0  0  0  0  0  0  0  0  0
   -0.8622    2.9655    2.7624 C   0  0  0  0  0  0  0  0  0  0  0  0
   -0.5852    1.3061    4.6772 H   0  0  0  0  0  0  0  0  0  0  0  0
   -2.2591    1.4219    2.2465 H   0  0  0  0  0  0  0  0  0  0  0  0
    0.1604    3.0711    3.1395 H   0  0  0  0  0  0  0  0  0  0  0  0
   -0.9218    3.4607    1.7877 H   0  0  0  0  0  0  0  0  0  0  0  0
   -1.5428    3.4789    3.4493 H   0  0  0  0  0  0  0  0  0  0  0  0
   -0.5543    0.8594    0.2813 N   0  0  0  0  0  0  0  0  0  0  0  0
    0.2334    0.1600   -0.7594 C   0  0  2  0  0  0  0  0  0  0  0  0
    0.8849    1.1132   -1.7754 C   0  0  0  0  0  0  0  0  0  0  0  0
    1.6987    0.6741   -2.5730 O   0  0  0  0  0  0  0  0  0  0  0  0
   -0.6470   -0.9113   -1.4247 C   0  0  0  0  0  0  0  0  0  0  0  0
   -0.9964   -1.9262   -0.3643 C   0  0  0  0  0  0  0  0  0  0  0  0
   -0.1496   -2.9026    0.1608 N   0  3  0  0  0  0  0  0  0  0  0  0
   -2.1574   -1.9488    0.3643 C   0  0  0  0  0  0  0  0  0  0  0  0
   -0.7001   -3.4472    1.2186 C   0  0  0  0  0  0  0  0  0  0  0  0
   -1.9691   -2.8921    1.3625 N   0  0  0  0  0  0  0  0  0  0  0  0
   -1.3295    1.4536   -0.0039 H   0  0  0  0  0  0  0  0  0  0  0  0
    1.0863   -0.3490   -0.2976 H   0  0  0  0  0  0  0  0  0  0  0  0
   -0.1102   -1.3956   -2.2486 H   0  0  0  0  0  0  0  0  0  0  0  0
   -1.5502   -0.4541   -1.8417 H   0  0  0  0  0  0  0  0  0  0  0  0
    0.8203   -3.0181   -0.1440 H   0  0  0  0  0  0  0  0  0  0  0  0
   -3.0084   -1.2779    0.2601 H   0  0  0  0  0  0  0  0  0  0  0  0
   -0.2329   -4.1660    1.8926 H   0  0  0  0  0  0  0  0  0  0  0  0
   -2.5392   -2.9378    2.2156 H   0  0  0  0  0  0  0  0  0  0  0  0
    0.4713    2.4268   -1.8565 N   0  0  0  0  0  0  0  0  0  0  0  0
    1.2413    3.4822   -2.5240 C   0  0  2  0  0  0  0  0  0  0  0  0
    1.2766    4.7363   -1.6220 C   0  0  0  0  0  0  0  0  0  0  0  0
    0.6016    4.7551   -0.5943 O   0  0  0  0  0  0  0  0  0  0  0  0
    0.5865    3.7821   -3.8749 C   0  0  0  0  0  0  0  0  0  0  0  0
   -0.0638    2.7576   -1.0549 H   0  0  0  0  0  0  0  0  0  0  0  0
    2.2759    3.1597   -2.6868 H   0  0  0  0  0  0  0  0  0  0  0  0
   -0.4400    4.1360   -3.7349 H   0  0  0  0  0  0  0  0  0  0  0  0
    1.1495    4.5501   -4.4139 H   0  0  0  0  0  0  0  0  0  0  0  0
    0.5628    2.8775   -4.4910 H   0  0  0  0  0  0  0  0  0  0  0  0
    2.0696    5.8233   -1.9369 N   0  0  0  0  0  0  0  0  0  0  0  0
    2.1456    7.0251   -1.1127 C   0  0  0  0  0  0  0  0  0  0  0  0
    2.6248    5.7765   -2.7871 H   0  0  0  0  0  0  0  0  0  0  0  0
    1.1635    7.5047   -1.0410 H   0  0  0  0  0  0  0  0  0  0  0  0
    2.4909    6.7780   -0.1031 H   0  0  0  0  0  0  0  0  0  0  0  0
    2.8479    7.7419   -1.5501 H   0  0  0  0  0  0  0  0  0  0  0  0
  1  2  2  0  0  0  0
  1  3  1  0  0  0  0
  1  7  1  0  0  0  0
  3  4  1  0  0  0  0
  3  5  1  0  0  0  0
  3  6  1  0  0  0  0
  7  8  1  0  0  0  0
  7 12  1  0  0  0  0
  8  9  1  0  0  0  0
  8 11  1  0  0  0  0
  8 13  1  0  0  0  0
  9 10  2  0  0  0  0
  9 17  1  0  0  0  0
 11 14  1  0  0  0  0
 11 15  1  0  0  0  0
 11 16  1  0  0  0  0
 17 18  1  0  0  0  0
 17 27  1  0  0  0  0
 18 19  1  0  0  0  0
 18 21  1  0  0  0  0
 18 28  1  0  0  0  0
 19 20  2  0  0  0  0
 19 35  1  0  0  0  0
 21 22  1  0  0  0  0
 21 29  1  0  0  0  0
 21 30  1  0  0  0  0
 22 23  1  0  0  0  0
 22 24  2  0  0  0  0
 23 25  2  0  0  0  0
 23 31  1  0  0  0  0
 24 26  1  0  0  0  0
 24 32  1  0  0  0  0
 25 26  1  0  0  0  0
 25 33  1  0  0  0  0
 26 34  1  0  0  0  0
 35 36  1  0  0  0  0
 35 40  1  0  0  0  0
 36 37  1  0  0  0  0
 36 39  1  0  0  0  0
 36 41  1  0  0  0  0
 37 38  2  0  0  0  0
 37 45  1  0  0  0  0
 39 42  1  0  0  0  0
 39 43  1  0  0  0  0
 39 44  1  0  0  0  0
 45 46  1  0  0  0  0
 45 47  1  0  0  0  0
 46 48  1  0  0  0  0
 46 49  1  0  0  0  0
 46 50  1  0  0  0  0
M  CHG  1  23   1
M  END
$$$$

  -OEChem-05262216443D

 50 50  0     1  0  0  0  0  0999 V2000
   -1.7305   -0.3746    4.3173 C   0  0  0  0  0  0  0  0  0  0  0  0
   -2.3933   -0.9628    3.4690 O   0  0  0  0  0  0  0  0  0  0  0  0
   -1.5250   -0.9999    5.6835 C   0  0  0  0  0  0  0  0  0  0  0  0
   -2.0969   -1.9279    5.7675 H   0  0  0  0  0  0  0  0  0  0  0  0
   -0.4661   -1.2227    5.8369 H   0  0  0  0  0  0  0  0  0  0  0  0
   -1.8611   -0.3111    6.4628 H   0  0  0  0  0  0  0  0  0  0  0  0
   -1.1373    0.8380    4.0285 N   0  0  0  0  0  0  0  0  0  0  0  0
   -1.1664    1.4629    2.6985 C   0  0  2  0  0  0  0  0  0  0  0  0
   -0.2730    0.7525    1.6549 C   0  0  0  0  0  0  0  0  0  0  0  0
    0.6209   -0.0115    2.0026 O   0  0  0  0  0  0  0  0  0  0  0  0
   -0.7271    2.9211    2.8556 C   0  0  0  0  0  0  0  0  0  0  0  0
   -0.4729    1.1941    4.7114 H   0  0  0  0  0  0  0  0  0  0  0  0
   -2.1965    1.4497    2.3268 H   0  0  0  0  0  0  0  0  0  0  0  0
    0.3045    2.9758    3.2191 H   0  0  0  0  0  0  0  0  0  0  0  0
   -0.7805    3.4469    1.8965 H   0  0  0  0  0  0  0  0  0  0  0  0
   -1.3764    3.4406    3.5677 H   0  0  0  0  0  0  0  0  0  0  0  0
   -0.5675    0.8697    0.3041 N   0  0  0  0  0  0  0  0  0  0  0  0
    0.1851    0.1869   -0.7728 C   0  0  2  0  0  0  0  0  0  0  0  0
    0.8191    1.1647   -1.7781 C   0  0  0  0  0  0  0  0  0  0  0  0
    1.4229    0.7311   -2.7471 O   0  0  0  0  0  0  0  0  0  0  0  0
   -0.7391   -0.8476   -1.4395 C   0  0  0  0  0  0  0  0  0  0  0  0
   -1.0851   -1.8831   -0.3979 C   0  0  0  0  0  0  0  0  0  0  0  0
   -0.2528   -2.8950    0.0808 N   0  3  0  0  0  0  0  0  0  0  0  0
   -2.2299   -1.8970    0.3559 C   0  0  0  0  0  0  0  0  0  0  0  0
   -0.7934   -3.4539    1.1363 C   0  0  0  0  0  0  0  0  0  0  0  0
   -2.0441   -2.8712    1.3241 N   0  0  0  0  0  0  0  0  0  0  0  0
   -1.3262    1.4987    0.0490 H   0  0  0  0  0  0  0  0  0  0  0  0
    1.0415   -0.3492   -0.3506 H   0  0  0  0  0  0  0  0  0  0  0  0
   -0.2400   -1.3230   -2.2918 H   0  0  0  0  0  0  0  0  0  0  0  0
   -1.6418   -0.3567   -1.8177 H   0  0  0  0  0  0  0  0  0  0  0  0
    0.7057   -3.0284   -0.2510 H   0  0  0  0  0  0  0  0  0  0  0  0
   -3.0657   -1.2028    0.2885 H   0  0  0  0  0  0  0  0  0  0  0  0
   -0.3307   -4.2027    1.7801 H   0  0  0  0  0  0  0  0  0  0  0  0
   -2.5965   -2.9253    2.1882 H   0  0  0  0  0  0  0  0  0  0  0  0
    0.6523    2.5239   -1.6140 N   0  0  0  0  0  0  0  0  0  0  0  0
    1.4199    3.5509   -2.3257 C   0  0  2  0  0  0  0  0  0  0  0  0
    1.6337    4.7667   -1.3964 C   0  0  0  0  0  0  0  0  0  0  0  0
    1.0733    4.7931   -0.3025 O   0  0  0  0  0  0  0  0  0  0  0  0
    0.6608    3.9477   -3.5958 C   0  0  0  0  0  0  0  0  0  0  0  0
    0.3008    2.8173   -0.7027 H   0  0  0  0  0  0  0  0  0  0  0  0
    2.4070    3.1616   -2.5991 H   0  0  0  0  0  0  0  0  0  0  0  0
   -0.3268    4.3472   -3.3442 H   0  0  0  0  0  0  0  0  0  0  0  0
    1.2133    4.7103   -4.1530 H   0  0  0  0  0  0  0  0  0  0  0  0
    0.5297    3.0767   -4.2460 H   0  0  0  0  0  0  0  0  0  0  0  0
    2.4664    5.8075   -1.7609 N   0  0  0  0  0  0  0  0  0  0  0  0
    2.7219    6.9642   -0.9093 C   0  0  0  0  0  0  0  0  0  0  0  0
    2.9289    5.7525   -2.6643 H   0  0  0  0  0  0  0  0  0  0  0  0
    1.7885    7.4929   -0.6881 H   0  0  0  0  0  0  0  0  0  0  0  0
    3.1813    6.6517    0.0346 H   0  0  0  0  0  0  0  0  0  0  0  0
    3.4015    7.6612   -1.4099 H   0  0  0  0  0  0  0  0  0  0  0  0
  1  2  2  0  0  0  0
  1  3  1  0  0  0  0
  1  7  1  0  0  0  0
  3  4  1  0  0  0  0
  3  5  1  0  0  0  0
  3  6  1  0  0  0  0
  7  8  1  0  0  0  0
  7 12  1  0  0  0  0
  8  9  1  0  0  0  0
  8 11  1  0  0  0  0
  8 13  1  0  0  0  0
  9 10  2  0  0  0  0
  9 17  1  0  0  0  0
 11 14  1  0  0  0  0
 11 15  1  0  0  0  0
 11 16  1  0  0  0  0
 17 18  1  0  0  0  0
 17 27  1  0  0  0  0
 18 19  1  0  0  0  0
 18 21  1  0  0  0  0
 18 28  1  0  0  0  0
 19 20  2  0  0  0  0
 19 35  1  0  0  0  0
 21 22  1  0  0  0  0
 21 29  1  0  0  0  0
 21 30  1  0  0  0  0
 22 23  1  0  0  0  0
 22 24  2  0  0  0  0
 23 25  2  0  0  0  0
 23 31  1  0  0  0  0
 24 26  1  0  0  0  0
 24 32  1  0  0  0  0
 25 26  1  0  0  0  0
 25 33  1  0  0  0  0
 26 34  1  0  0  0  0
 35 36  1  0  0  0  0
 35 40  1  0  0  0  0
 36 37  1  0  0  0  0
 36 39  1  0  0  0  0
 36 41  1  0  0  0  0
 37 38  2  0  0  0  0
 37 45  1  0  0  0  0
 39 42  1  0  0  0  0
 39 43  1  0  0  0  0
 39 44  1  0  0  0  0
 45 46  1  0  0  0  0
 45 47  1  0  0  0  0
 46 48  1  0  0  0  0
 46 49  1  0  0  0  0
 46 50  1  0  0  0  0
M  CHG  1  23   1
M  END
$$$$

  -OEChem-05262216443D

 50 50  0     1  0  0  0  0  0999 V2000
   -1.7034   -0.3897    4.3068 C   0  0  0  0  0  0  0  0  0  0  0  0
   -2.3728   -0.9593    3.4509 O   0  0  0  0  0  0  0  0  0  0  0  0
   -1.5081   -1.0333    5.6661 C   0  0  0  0  0  0  0  0  0  0  0  0
   -2.0524   -1.9798    5.7206 H   0  0  0  0  0  0  0  0  0  0  0  0
   -0.4464   -1.2262    5.8393 H   0  0  0  0  0  0  0  0  0  0  0  0
   -1.8816   -0.3691    6.4496 H   0  0  0  0  0  0  0  0  0  0  0  0
   -1.0942    0.8187    4.0334 N   0  0  0  0  0  0  0  0  0  0  0  0
   -1.1208    1.4655    2.7136 C   0  0  2  0  0  0  0  0  0  0  0  0
   -0.2703    0.7403    1.6445 C   0  0  0  0  0  0  0  0  0  0  0  0
    0.6195   -0.0404    1.9644 O   0  0  0  0  0  0  0  0  0  0  0  0
   -0.6251    2.9045    2.8866 C   0  0  0  0  0  0  0  0  0  0  0  0
   -0.4326    1.1635    4.7249 H   0  0  0  0  0  0  0  0  0  0  0  0
   -2.1565    1.4946    2.3590 H   0  0  0  0  0  0  0  0  0  0  0  0
    0.4139    2.9158    3.2326 H   0  0  0  0  0  0  0  0  0  0  0  0
   -0.6756    3.4482    1.9376 H   0  0  0  0  0  0  0  0  0  0  0  0
   -1.2419    3.4358    3.6185 H   0  0  0  0  0  0  0  0  0  0  0  0
   -0.5916    0.8748    0.3016 N   0  0  0  0  0  0  0  0  0  0  0  0
    0.1413    0.2082   -0.7981 C   0  0  2  0  0  0  0  0  0  0  0  0
    0.7479    1.2141   -1.7944 C   0  0  0  0  0  0  0  0  0  0  0  0
    1.1216    0.8397   -2.8953 O   0  0  0  0  0  0  0  0  0  0  0  0
   -0.7991   -0.8173   -1.4593 C   0  0  0  0  0  0  0  0  0  0  0  0
   -1.1277   -1.8679   -0.4270 C   0  0  0  0  0  0  0  0  0  0  0  0
   -0.2897   -2.8894    0.0211 N   0  3  0  0  0  0  0  0  0  0  0  0
   -2.2589   -1.8909    0.3470 C   0  0  0  0  0  0  0  0  0  0  0  0
   -0.8148   -3.4665    1.0748 C   0  0  0  0  0  0  0  0  0  0  0  0
   -2.0605   -2.8836    1.2937 N   0  0  0  0  0  0  0  0  0  0  0  0
   -1.3217    1.5443    0.0653 H   0  0  0  0  0  0  0  0  0  0  0  0
    1.0076   -0.3328   -0.4032 H   0  0  0  0  0  0  0  0  0  0  0  0
   -0.3188   -1.2842   -2.3271 H   0  0  0  0  0  0  0  0  0  0  0  0
   -1.7072   -0.3192   -1.8149 H   0  0  0  0  0  0  0  0  0  0  0  0
    0.6627   -3.0193   -0.3288 H   0  0  0  0  0  0  0  0  0  0  0  0
   -3.0921   -1.1915    0.3073 H   0  0  0  0  0  0  0  0  0  0  0  0
   -0.3442   -4.2287    1.6970 H   0  0  0  0  0  0  0  0  0  0  0  0
   -2.6030   -2.9571    2.1623 H   0  0  0  0  0  0  0  0  0  0  0  0
    0.8447    2.5449   -1.4448 N   0  0  0  0  0  0  0  0  0  0  0  0
    1.5779    3.5704   -2.1939 C   0  0  2  0  0  0  0  0  0  0  0  0
    2.0434    4.6818   -1.2278 C   0  0  0  0  0  0  0  0  0  0  0  0
    1.6195    4.6931   -0.0744 O   0  0  0  0  0  0  0  0  0  0  0  0
    0.6662    4.1415   -3.2850 C   0  0  0  0  0  0  0  0  0  0  0  0
    0.6710    2.7673   -0.4642 H   0  0  0  0  0  0  0  0  0  0  0  0
    2.4679    3.1295   -2.6559 H   0  0  0  0  0  0  0  0  0  0  0  0
   -0.2261    4.5950   -2.8414 H   0  0  0  0  0  0  0  0  0  0  0  0
    1.1924    4.9050   -3.8658 H   0  0  0  0  0  0  0  0  0  0  0  0
    0.3509    3.3481   -3.9701 H   0  0  0  0  0  0  0  0  0  0  0  0
    2.9504    5.6434   -1.6300 N   0  0  0  0  0  0  0  0  0  0  0  0
    3.4443    6.6954   -0.7480 C   0  0  0  0  0  0  0  0  0  0  0  0
    3.2970    5.6010   -2.5845 H   0  0  0  0  0  0  0  0  0  0  0  0
    2.6179    7.3235   -0.3983 H   0  0  0  0  0  0  0  0  0  0  0  0
    3.9491    6.2616    0.1218 H   0  0  0  0  0  0  0  0  0  0  0  0
    4.1595    7.3312   -1.2793 H   0  0  0  0  0  0  0  0  0  0  0  0
  1  2  2  0  0  0  0
  1  3  1  0  0  0  0
  1  7  1  0  0  0  0
  3  4  1  0  0  0  0
  3  5  1  0  0  0  0
  3  6  1  0  0  0  0
  7  8  1  0  0  0  0
  7 12  1  0  0  0  0
  8  9  1  0  0  0  0
  8 11  1  0  0  0  0
  8 13  1  0  0  0  0
  9 10  2  0  0  0  0
  9 17  1  0  0  0  0
 11 14  1  0  0  0  0
 11 15  1  0  0  0  0
 11 16  1  0  0  0  0
 17 18  1  0  0  0  0
 17 27  1  0  0  0  0
 18 19  1  0  0  0  0
 18 21  1  0  0  0  0
 18 28  1  0  0  0  0
 19 20  2  0  0  0  0
 19 35  1  0  0  0  0
 21 22  1  0  0  0  0
 21 29  1  0  0  0  0
 21 30  1  0  0  0  0
 22 23  1  0  0  0  0
 22 24  2  0  0  0  0
 23 25  2  0  0  0  0
 23 31  1  0  0  0  0
 24 26  1  0  0  0  0
 24 32  1  0  0  0  0
 25 26  1  0  0  0  0
 25 33  1  0  0  0  0
 26 34  1  0  0  0  0
 35 36  1  0  0  0  0
 35 40  1  0  0  0  0
 36 37  1  0  0  0  0
 36 39  1  0  0  0  0
 36 41  1  0  0  0  0
 37 38  2  0  0  0  0
 37 45  1  0  0  0  0
 39 42  1  0  0  0  0
 39 43  1  0  0  0  0
 39 44  1  0  0  0  0
 45 46  1  0  0  0  0
 45 47  1  0  0  0  0
 46 48  1  0  0  0  0
 46 49  1  0  0  0  0
 46 50  1  0  0  0  0
M  CHG  1  23   1
M  END
$$$$

  -OEChem-05262216443D

 50 50  0     1  0  0  0  0  0999 V2000
   -1.6674   -0.3687    4.3159 C   0  0  0  0  0  0  0  0  0  0  0  0
   -2.3689   -0.9341    3.4832 O   0  0  0  0  0  0  0  0  0  0  0  0
   -1.4279   -1.0161    5.6664 C   0  0  0  0  0  0  0  0  0  0  0  0
   -2.0139   -1.9347    5.7575 H   0  0  0  0  0  0  0  0  0  0  0  0
   -0.3687   -1.2603    5.7822 H   0  0  0  0  0  0  0  0  0  0  0  0
   -1.7248   -0.3318    6.4654 H   0  0  0  0  0  0  0  0  0  0  0  0
   -1.0633    0.8377    4.0229 N   0  0  0  0  0  0  0  0  0  0  0  0
   -1.1176    1.4744    2.6991 C   0  0  2  0  0  0  0  0  0  0  0  0
   -0.2819    0.7441    1.6220 C   0  0  0  0  0  0  0  0  0  0  0  0
    0.5935   -0.0554    1.9356 O   0  0  0  0  0  0  0  0  0  0  0  0
   -0.6264    2.9166    2.8519 C   0  0  0  0  0  0  0  0  0  0  0  0
   -0.3730    1.1752    4.6895 H   0  0  0  0  0  0  0  0  0  0  0  0
   -2.1594    1.4955    2.3620 H   0  0  0  0  0  0  0  0  0  0  0  0
    0.4213    2.9351    3.1705 H   0  0  0  0  0  0  0  0  0  0  0  0
   -0.7059    3.4544    1.9015 H   0  0  0  0  0  0  0  0  0  0  0  0
   -1.2274    3.4475    3.5971 H   0  0  0  0  0  0  0  0  0  0  0  0
   -0.6046    0.8864    0.2803 N   0  0  0  0  0  0  0  0  0  0  0  0
    0.1148    0.2039   -0.8180 C   0  0  2  0  0  0  0  0  0  0  0  0
    0.7350    1.2088   -1.8070 C   0  0  0  0  0  0  0  0  0  0  0  0
    0.8835    0.9142   -2.9832 O   0  0  0  0  0  0  0  0  0  0  0  0
   -0.8519   -0.8014   -1.4747 C   0  0  0  0  0  0  0  0  0  0  0  0
   -1.2029   -1.8410   -0.4383 C   0  0  0  0  0  0  0  0  0  0  0  0
   -0.3947   -2.8833    0.0163 N   0  3  0  0  0  0  0  0  0  0  0  0
   -2.3327   -1.8245    0.3378 C   0  0  0  0  0  0  0  0  0  0  0  0
   -0.9333   -3.4333    1.0777 C   0  0  0  0  0  0  0  0  0  0  0  0
   -2.1608   -2.8124    1.2945 N   0  0  0  0  0  0  0  0  0  0  0  0
   -1.2981    1.5934    0.0434 H   0  0  0  0  0  0  0  0  0  0  0  0
    0.9715   -0.3555   -0.4281 H   0  0  0  0  0  0  0  0  0  0  0  0
   -0.3855   -1.2811   -2.3427 H   0  0  0  0  0  0  0  0  0  0  0  0
   -1.7487   -0.2830   -1.8297 H   0  0  0  0  0  0  0  0  0  0  0  0
    0.5517   -3.0464   -0.3358 H   0  0  0  0  0  0  0  0  0  0  0  0
   -3.1450   -1.1010    0.2914 H   0  0  0  0  0  0  0  0  0  0  0  0
   -0.4832   -4.2014    1.7075 H   0  0  0  0  0  0  0  0  0  0  0  0
   -2.6959   -2.8534    2.1704 H   0  0  0  0  0  0  0  0  0  0  0  0
    1.1319    2.4459   -1.3449 N   0  0  0  0  0  0  0  0  0  0  0  0
    1.8531    3.4698   -2.1086 C   0  0  2  0  0  0  0  0  0  0  0  0
    2.4887    4.4863   -1.1344 C   0  0  0  0  0  0  0  0  0  0  0  0
    2.1665    4.4673    0.0509 O   0  0  0  0  0  0  0  0  0  0  0  0
    0.8845    4.1787   -3.0638 C   0  0  0  0  0  0  0  0  0  0  0  0
    1.0966    2.5930   -0.3353 H   0  0  0  0  0  0  0  0  0  0  0  0
    2.6576    3.0002   -2.6847 H   0  0  0  0  0  0  0  0  0  0  0  0
    0.0676    4.6454   -2.5043 H   0  0  0  0  0  0  0  0  0  0  0  0
    1.4047    4.9557   -3.6323 H   0  0  0  0  0  0  0  0  0  0  0  0
    0.4562    3.4666   -3.7763 H   0  0  0  0  0  0  0  0  0  0  0  0
    3.4293    5.4006   -1.5692 N   0  0  0  0  0  0  0  0  0  0  0  0
    4.0713    6.3684   -0.6857 C   0  0  0  0  0  0  0  0  0  0  0  0
    3.6825    5.3915   -2.5535 H   0  0  0  0  0  0  0  0  0  0  0  0
    3.3287    7.0510   -0.2588 H   0  0  0  0  0  0  0  0  0  0  0  0
    4.5902    5.8570    0.1322 H   0  0  0  0  0  0  0  0  0  0  0  0
    4.8051    6.9608   -1.2411 H   0  0  0  0  0  0  0  0  0  0  0  0
  1  2  2  0  0  0  0
  1  3  1  0  0  0  0
  1  7  1  0  0  0  0
  3  4  1  0  0  0  0
  3  5  1  0  0  0  0
  3  6  1  0  0  0  0
  7  8  1  0  0  0  0
  7 12  1  0  0  0  0
  8  9  1  0  0  0  0
  8 11  1  0  0  0  0
  8 13  1  0  0  0  0
  9 10  2  0  0  0  0
  9 17  1  0  0  0  0
 11 14  1  0  0  0  0
 11 15  1  0  0  0  0
 11 16  1  0  0  0  0
 17 18  1  0  0  0  0
 17 27  1  0  0  0  0
 18 19  1  0  0  0  0
 18 21  1  0  0  0  0
 18 28  1  0  0  0  0
 19 20  2  0  0  0  0
 19 35  1  0  0  0  0
 21 22  1  0  0  0  0
 21 29  1  0  0  0  0
 21 30  1  0  0  0  0
 22 23  1  0  0  0  0
 22 24  2  0  0  0  0
 23 25  2  0  0  0  0
 23 31  1  0  0  0  0
 24 26  1  0  0  0  0
 24 32  1  0  0  0  0
 25 26  1  0  0  0  0
 25 33  1  0  0  0  0
 26 34  1  0  0  0  0
 35 36  1  0  0  0  0
 35 40  1  0  0  0  0
 36 37  1  0  0  0  0
 36 39  1  0  0  0  0
 36 41  1  0  0  0  0
 37 38  2  0  0  0  0
 37 45  1  0  0  0  0
 39 42  1  0  0  0  0
 39 43  1  0  0  0  0
 39 44  1  0  0  0  0
 45 46  1  0  0  0  0
 45 47  1  0  0  0  0
 46 48  1  0  0  0  0
 46 49  1  0  0  0  0
 46 50  1  0  0  0  0
M  CHG  1  23   1
M  END
$$$$

  -OEChem-05262216443D

 50 50  0     1  0  0  0  0  0999 V2000
   -2.0610   -0.6006    4.1984 C   0  0  0  0  0  0  0  0  0  0  0  0
   -2.3860   -1.3594    3.2916 O   0  0  0  0  0  0  0  0  0  0  0  0
   -1.8258   -1.1477    5.5929 C   0  0  0  0  0  0  0  0  0  0  0  0
   -2.0942   -2.2067    5.6357 H   0  0  0  0  0  0  0  0  0  0  0  0
   -0.7729   -1.0381    5.8646 H   0  0  0  0  0  0  0  0  0  0  0  0
   -2.4382   -0.6032    6.3160 H   0  0  0  0  0  0  0  0  0  0  0  0
   -1.8703    0.7443    3.9528 N   0  0  0  0  0  0  0  0  0  0  0  0
   -1.9435    1.3455    2.6135 C   0  0  2  0  0  0  0  0  0  0  0  0
   -0.7371    1.0040    1.7071 C   0  0  0  0  0  0  0  0  0  0  0  0
    0.3173    0.6035    2.1860 O   0  0  0  0  0  0  0  0  0  0  0  0
   -2.0551    2.8611    2.7928 C   0  0  0  0  0  0  0  0  0  0  0  0
   -1.4529    1.2894    4.7033 H   0  0  0  0  0  0  0  0  0  0  0  0
   -2.8511    0.9873    2.1163 H   0  0  0  0  0  0  0  0  0  0  0  0
   -1.1585    3.2577    3.2807 H   0  0  0  0  0  0  0  0  0  0  0  0
   -2.1685    3.3557    1.8232 H   0  0  0  0  0  0  0  0  0  0  0  0
   -2.9257    3.1096    3.4086 H   0  0  0  0  0  0  0  0  0  0  0  0
   -0.8785    1.0320    0.3277 N   0  0  0  0  0  0  0  0  0  0  0  0
    0.1770    0.6402   -0.6309 C   0  0  2  0  0  0  0  0  0  0  0  0
    0.5670    1.7943   -1.5728 C   0  0  0  0  0  0  0  0  0  0  0  0
    0.6917    1.5974   -2.7735 O   0  0  0  0  0  0  0  0  0  0  0  0
   -0.2603   -0.6470   -1.3574 C   0  0  0  0  0  0  0  0  0  0  0  0
   -0.3607   -1.7421   -0.3257 C   0  0  0  0  0  0  0  0  0  0  0  0
    0.7018   -2.4137    0.2796 N   0  3  0  0  0  0  0  0  0  0  0  0
   -1.5157   -2.1589    0.2821 C   0  0  0  0  0  0  0  0  0  0  0  0
    0.2584   -3.1432    1.2743 C   0  0  0  0  0  0  0  0  0  0  0  0
   -1.1293   -3.0284    1.2900 N   0  0  0  0  0  0  0  0  0  0  0  0
   -1.7527    1.4007   -0.0415 H   0  0  0  0  0  0  0  0  0  0  0  0
    1.1060    0.4158   -0.0958 H   0  0  0  0  0  0  0  0  0  0  0  0
    0.4673   -0.9260   -2.1282 H   0  0  0  0  0  0  0  0  0  0  0  0
   -1.2220   -0.4872   -1.8564 H   0  0  0  0  0  0  0  0  0  0  0  0
    1.6816   -2.2056    0.0708 H   0  0  0  0  0  0  0  0  0  0  0  0
   -2.5235   -1.7946    0.0903 H   0  0  0  0  0  0  0  0  0  0  0  0
    0.8656   -3.6999    1.9887 H   0  0  0  0  0  0  0  0  0  0  0  0
   -1.7356   -3.2940    2.0747 H   0  0  0  0  0  0  0  0  0  0  0  0
    0.7681    3.0578   -1.0516 N   0  0  0  0  0  0  0  0  0  0  0  0
    1.5494    4.0627   -1.7872 C   0  0  2  0  0  0  0  0  0  0  0  0
    3.0671    3.8388   -1.6048 C   0  0  0  0  0  0  0  0  0  0  0  0
    3.4763    3.1919   -0.6464 O   0  0  0  0  0  0  0  0  0  0  0  0
    1.1456    5.4444   -1.2670 C   0  0  0  0  0  0  0  0  0  0  0  0
    0.8819    3.0686   -0.0400 H   0  0  0  0  0  0  0  0  0  0  0  0
    1.3205    4.0140   -2.8574 H   0  0  0  0  0  0  0  0  0  0  0  0
    1.3790    5.5373   -0.2011 H   0  0  0  0  0  0  0  0  0  0  0  0
    1.6835    6.2292   -1.8081 H   0  0  0  0  0  0  0  0  0  0  0  0
    0.0717    5.6040   -1.4053 H   0  0  0  0  0  0  0  0  0  0  0  0
    3.9738    4.3702   -2.5023 N   0  0  0  0  0  0  0  0  0  0  0  0
    5.4152    4.1781   -2.3879 C   0  0  0  0  0  0  0  0  0  0  0  0
    3.6069    4.8609   -3.3129 H   0  0  0  0  0  0  0  0  0  0  0  0
    5.7843    4.5980   -1.4462 H   0  0  0  0  0  0  0  0  0  0  0  0
    5.6638    3.1120   -2.4193 H   0  0  0  0  0  0  0  0  0  0  0  0
    5.9317    4.6770   -3.2137 H   0  0  0  0  0  0  0  0  0  0  0  0
  1  2  2  0  0  0  0
  1  3  1  0  0  0  0
  1  7  1  0  0  0  0
  3  4  1  0  0  0  0
  3  5  1  0  0  0  0
  3  6  1  0  0  0  0
  7  8  1  0  0  0  0
  7 12  1  0  0  0  0
  8  9  1  0  0  0  0
  8 11  1  0  0  0  0
  8 13  1  0  0  0  0
  9 10  2  0  0  0  0
  9 17  1  0  0  0  0
 11 14  1  0  0  0  0
 11 15  1  0  0  0  0
 11 16  1  0  0  0  0
 17 18  1  0  0  0  0
 17 27  1  0  0  0  0
 18 19  1  0  0  0  0
 18 21  1  0  0  0  0
 18 28  1  0  0  0  0
 19 20  2  0  0  0  0
 19 35  1  0  0  0  0
 21 22  1  0  0  0  0
 21 29  1  0  0  0  0
 21 30  1  0  0  0  0
 22 23  1  0  0  0  0
 22 24  2  0  0  0  0
 23 25  2  0  0  0  0
 23 31  1  0  0  0  0
 24 26  1  0  0  0  0
 24 32  1  0  0  0  0
 25 26  1  0  0  0  0
 25 33  1  0  0  0  0
 26 34  1  0  0  0  0
 35 36  1  0  0  0  0
 35 40  1  0  0  0  0
 36 37  1  0  0  0  0
 36 39  1  0  0  0  0
 36 41  1  0  0  0  0
 37 38  2  0  0  0  0
 37 45  1  0  0  0  0
 39 42  1  0  0  0  0
 39 43  1  0  0  0  0
 39 44  1  0  0  0  0
 45 46  1  0  0  0  0
 45 47  1  0  0  0  0
 46 48  1  0  0  0  0
 46 49  1  0  0  0  0
 46 50  1  0  0  0  0
M  CHG  1  23   1
M  END
$$$$

  -OEChem-05262216443D

 50 50  0     1  0  0  0  0  0999 V2000
   -2.0997   -0.6883    4.1684 C   0  0  0  0  0  0  0  0  0  0  0  0
   -2.3917   -1.4166    3.2263 O   0  0  0  0  0  0  0  0  0  0  0  0
   -1.8947   -1.2836    5.5480 C   0  0  0  0  0  0  0  0  0  0  0  0
   -2.1334   -2.3506    5.5407 H   0  0  0  0  0  0  0  0  0  0  0  0
   -0.8546   -1.1563    5.8582 H   0  0  0  0  0  0  0  0  0  0  0  0
   -2.5453   -0.7853    6.2714 H   0  0  0  0  0  0  0  0  0  0  0  0
   -1.9171    0.6665    3.9768 N   0  0  0  0  0  0  0  0  0  0  0  0
   -1.9833    1.3222    2.6627 C   0  0  2  0  0  0  0  0  0  0  0  0
   -0.7570    1.0458    1.7611 C   0  0  0  0  0  0  0  0  0  0  0  0
    0.3099    0.6794    2.2402 O   0  0  0  0  0  0  0  0  0  0  0  0
   -2.1304    2.8264    2.9038 C   0  0  0  0  0  0  0  0  0  0  0  0
   -1.5285    1.1898    4.7577 H   0  0  0  0  0  0  0  0  0  0  0  0
   -2.8757    0.9670    2.1362 H   0  0  0  0  0  0  0  0  0  0  0  0
   -1.2507    3.2206    3.4237 H   0  0  0  0  0  0  0  0  0  0  0  0
   -2.2385    3.3596    1.9541 H   0  0  0  0  0  0  0  0  0  0  0  0
   -3.0164    3.0295    3.5140 H   0  0  0  0  0  0  0  0  0  0  0  0
   -0.8873    1.1043    0.3821 N   0  0  0  0  0  0  0  0  0  0  0  0
    0.1840    0.7649   -0.5767 C   0  0  2  0  0  0  0  0  0  0  0  0
    0.5459    1.9544   -1.4822 C   0  0  0  0  0  0  0  0  0  0  0  0
    0.4547    1.8580   -2.6983 O   0  0  0  0  0  0  0  0  0  0  0  0
   -0.2161   -0.5083   -1.3457 C   0  0  0  0  0  0  0  0  0  0  0  0
   -0.3014   -1.6384   -0.3519 C   0  0  0  0  0  0  0  0  0  0  0  0
    0.7700   -2.3057    0.2424 N   0  3  0  0  0  0  0  0  0  0  0  0
   -1.4526   -2.1024    0.2277 C   0  0  0  0  0  0  0  0  0  0  0  0
    0.3332   -3.0833    1.2032 C   0  0  0  0  0  0  0  0  0  0  0  0
   -1.0570   -3.0011    1.2061 N   0  0  0  0  0  0  0  0  0  0  0  0
   -1.7694    1.4549    0.0139 H   0  0  0  0  0  0  0  0  0  0  0  0
    1.1151    0.5448   -0.0435 H   0  0  0  0  0  0  0  0  0  0  0  0
    0.5240   -0.7437   -2.1188 H   0  0  0  0  0  0  0  0  0  0  0  0
   -1.1770   -0.3551   -1.8482 H   0  0  0  0  0  0  0  0  0  0  0  0
    1.7469   -2.0716    0.0474 H   0  0  0  0  0  0  0  0  0  0  0  0
   -2.4664   -1.7538    0.0373 H   0  0  0  0  0  0  0  0  0  0  0  0
    0.9459   -3.6543    1.9018 H   0  0  0  0  0  0  0  0  0  0  0  0
   -1.6672   -3.3157    1.9692 H   0  0  0  0  0  0  0  0  0  0  0  0
    1.0092    3.1226   -0.9091 N   0  0  0  0  0  0  0  0  0  0  0  0
    1.8542    4.0434   -1.6831 C   0  0  2  0  0  0  0  0  0  0  0  0
    3.3056    3.5219   -1.7921 C   0  0  0  0  0  0  0  0  0  0  0  0
    3.7046    2.6514   -1.0242 O   0  0  0  0  0  0  0  0  0  0  0  0
    1.8217    5.4075   -0.9903 C   0  0  0  0  0  0  0  0  0  0  0  0
    1.2451    3.0313    0.0770 H   0  0  0  0  0  0  0  0  0  0  0  0
    1.4553    4.1594   -2.6970 H   0  0  0  0  0  0  0  0  0  0  0  0
    2.2374    5.3353    0.0201 H   0  0  0  0  0  0  0  0  0  0  0  0
    2.4094    6.1382   -1.5549 H   0  0  0  0  0  0  0  0  0  0  0  0
    0.7927    5.7738   -0.9202 H   0  0  0  0  0  0  0  0  0  0  0  0
    4.1639    4.0241   -2.7516 N   0  0  0  0  0  0  0  0  0  0  0  0
    5.5277    3.5405   -2.9349 C   0  0  0  0  0  0  0  0  0  0  0  0
    3.7934    4.7053   -3.4084 H   0  0  0  0  0  0  0  0  0  0  0  0
    6.1158    3.6945   -2.0237 H   0  0  0  0  0  0  0  0  0  0  0  0
    5.5266    2.4724   -3.1770 H   0  0  0  0  0  0  0  0  0  0  0  0
    6.0140    4.0795   -3.7540 H   0  0  0  0  0  0  0  0  0  0  0  0
  1  2  2  0  0  0  0
  1  3  1  0  0  0  0
  1  7  1  0  0  0  0
  3  4  1  0  0  0  0
  3  5  1  0  0  0  0
  3  6  1  0  0  0  0
  7  8  1  0  0  0  0
  7 12  1  0  0  0  0
  8  9  1  0  0  0  0
  8 11  1  0  0  0  0
  8 13  1  0  0  0  0
  9 10  2  0  0  0  0
  9 17  1  0  0  0  0
 11 14  1  0  0  0  0
 11 15  1  0  0  0  0
 11 16  1  0  0  0  0
 17 18  1  0  0  0  0
 17 27  1  0  0  0  0
 18 19  1  0  0  0  0
 18 21  1  0  0  0  0
 18 28  1  0  0  0  0
 19 20  2  0  0  0  0
 19 35  1  0  0  0  0
 21 22  1  0  0  0  0
 21 29  1  0  0  0  0
 21 30  1  0  0  0  0
 22 23  1  0  0  0  0
 22 24  2  0  0  0  0
 23 25  2  0  0  0  0
 23 31  1  0  0  0  0
 24 26  1  0  0  0  0
 24 32  1  0  0  0  0
 25 26  1  0  0  0  0
 25 33  1  0  0  0  0
 26 34  1  0  0  0  0
 35 36  1  0  0  0  0
 35 40  1  0  0  0  0
 36 37  1  0  0  0  0
 36 39  1  0  0  0  0
 36 41  1  0  0  0  0
 37 38  2  0  0  0  0
 37 45  1  0  0  0  0
 39 42  1  0  0  0  0
 39 43  1  0  0  0  0
 39 44  1  0  0  0  0
 45 46  1  0  0  0  0
 45 47  1  0  0  0  0
 46 48  1  0  0  0  0
 46 49  1  0  0  0  0
 46 50  1  0  0  0  0
M  CHG  1  23   1
M  END
$$$$

  -OEChem-05262216443D

 50 50  0     1  0  0  0  0  0999 V2000
   -2.0893   -0.7745    4.1486 C   0  0  0  0  0  0  0  0  0  0  0  0
   -2.3772   -1.4701    3.1808 O   0  0  0  0  0  0  0  0  0  0  0  0
   -1.8700   -1.4194    5.5035 C   0  0  0  0  0  0  0  0  0  0  0  0
   -2.1055   -2.4863    5.4591 H   0  0  0  0  0  0  0  0  0  0  0  0
   -0.8280   -1.2991    5.8108 H   0  0  0  0  0  0  0  0  0  0  0  0
   -2.5172   -0.9507    6.2492 H   0  0  0  0  0  0  0  0  0  0  0  0
   -1.9304    0.5894    4.0089 N   0  0  0  0  0  0  0  0  0  0  0  0
   -2.0119    1.2921    2.7203 C   0  0  2  0  0  0  0  0  0  0  0  0
   -0.7755    1.0834    1.8145 C   0  0  0  0  0  0  0  0  0  0  0  0
    0.2976    0.7203    2.2834 O   0  0  0  0  0  0  0  0  0  0  0  0
   -2.2028    2.7811    3.0165 C   0  0  0  0  0  0  0  0  0  0  0  0
   -1.5406    1.0874    4.8055 H   0  0  0  0  0  0  0  0  0  0  0  0
   -2.8922    0.9318    2.1769 H   0  0  0  0  0  0  0  0  0  0  0  0
   -1.3351    3.1812    3.5516 H   0  0  0  0  0  0  0  0  0  0  0  0
   -2.3263    3.3452    2.0866 H   0  0  0  0  0  0  0  0  0  0  0  0
   -3.0945    2.9359    3.6327 H   0  0  0  0  0  0  0  0  0  0  0  0
   -0.9022    1.1946    0.4385 N   0  0  0  0  0  0  0  0  0  0  0  0
    0.1761    0.9022   -0.5265 C   0  0  2  0  0  0  0  0  0  0  0  0
    0.5340    2.1263   -1.3844 C   0  0  0  0  0  0  0  0  0  0  0  0
    0.2428    2.1547   -2.5724 O   0  0  0  0  0  0  0  0  0  0  0  0
   -0.2085   -0.3372   -1.3549 C   0  0  0  0  0  0  0  0  0  0  0  0
   -0.2937   -1.5108   -0.4133 C   0  0  0  0  0  0  0  0  0  0  0  0
    0.7778   -2.1963    0.1593 N   0  3  0  0  0  0  0  0  0  0  0  0
   -1.4464   -2.0084    0.1343 C   0  0  0  0  0  0  0  0  0  0  0  0
    0.3386   -3.0187    1.0809 C   0  0  0  0  0  0  0  0  0  0  0  0
   -1.0524   -2.9458    1.0762 N   0  0  0  0  0  0  0  0  0  0  0  0
   -1.7872    1.5476    0.0792 H   0  0  0  0  0  0  0  0  0  0  0  0
    1.1045    0.6608    0.0021 H   0  0  0  0  0  0  0  0  0  0  0  0
    0.5403   -0.5288   -2.1320 H   0  0  0  0  0  0  0  0  0  0  0  0
   -1.1667   -0.1688   -1.8583 H   0  0  0  0  0  0  0  0  0  0  0  0
    1.7546   -1.9470   -0.0174 H   0  0  0  0  0  0  0  0  0  0  0  0
   -2.4609   -1.6594   -0.0517 H   0  0  0  0  0  0  0  0  0  0  0  0
    0.9492   -3.6166    1.7582 H   0  0  0  0  0  0  0  0  0  0  0  0
   -1.6662   -3.2970    1.8203 H   0  0  0  0  0  0  0  0  0  0  0  0
    1.2688    3.1508   -0.8206 N   0  0  0  0  0  0  0  0  0  0  0  0
    2.1674    3.9569   -1.6596 C   0  0  2  0  0  0  0  0  0  0  0  0
    3.4595    3.1825   -2.0128 C   0  0  0  0  0  0  0  0  0  0  0  0
    3.7519    2.1595   -1.3990 O   0  0  0  0  0  0  0  0  0  0  0  0
    2.4975    5.2410   -0.8950 C   0  0  0  0  0  0  0  0  0  0  0  0
    1.6050    2.9498    0.1191 H   0  0  0  0  0  0  0  0  0  0  0  0
    1.6659    4.2295   -2.5949 H   0  0  0  0  0  0  0  0  0  0  0  0
    3.0213    5.0097    0.0383 H   0  0  0  0  0  0  0  0  0  0  0  0
    3.1368    5.8931   -1.4983 H   0  0  0  0  0  0  0  0  0  0  0  0
    1.5792    5.7862   -0.6551 H   0  0  0  0  0  0  0  0  0  0  0  0
    4.2935    3.6278   -3.0209 N   0  0  0  0  0  0  0  0  0  0  0  0
    5.5078    2.9266   -3.4227 C   0  0  0  0  0  0  0  0  0  0  0  0
    4.0053    4.4488   -3.5461 H   0  0  0  0  0  0  0  0  0  0  0  0
    6.1984    2.8395   -2.5770 H   0  0  0  0  0  0  0  0  0  0  0  0
    5.2676    1.9218   -3.7862 H   0  0  0  0  0  0  0  0  0  0  0  0
    6.0136    3.4727   -4.2252 H   0  0  0  0  0  0  0  0  0  0  0  0
  1  2  2  0  0  0  0
  1  3  1  0  0  0  0
  1  7  1  0  0  0  0
  3  4  1  0  0  0  0
  3  5  1  0  0  0  0
  3  6  1  0  0  0  0
  7  8  1  0  0  0  0
  7 12  1  0  0  0  0
  8  9  1  0  0  0  0
  8 11  1  0  0  0  0
  8 13  1  0  0  0  0
  9 10  2  0  0  0  0
  9 17  1  0  0  0  0
 11 14  1  0  0  0  0
 11 15  1  0  0  0  0
 11 16  1  0  0  0  0
 17 18  1  0  0  0  0
 17 27  1  0  0  0  0
 18 19  1  0  0  0  0
 18 21  1  0  0  0  0
 18 28  1  0  0  0  0
 19 20  2  0  0  0  0
 19 35  1  0  0  0  0
 21 22  1  0  0  0  0
 21 29  1  0  0  0  0
 21 30  1  0  0  0  0
 22 23  1  0  0  0  0
 22 24  2  0  0  0  0
 23 25  2  0  0  0  0
 23 31  1  0  0  0  0
 24 26  1  0  0  0  0
 24 32  1  0  0  0  0
 25 26  1  0  0  0  0
 25 33  1  0  0  0  0
 26 34  1  0  0  0  0
 35 36  1  0  0  0  0
 35 40  1  0  0  0  0
 36 37  1  0  0  0  0
 36 39  1  0  0  0  0
 36 41  1  0  0  0  0
 37 38  2  0  0  0  0
 37 45  1  0  0  0  0
 39 42  1  0  0  0  0
 39 43  1  0  0  0  0
 39 44  1  0  0  0  0
 45 46  1  0  0  0  0
 45 47  1  0  0  0  0
 46 48  1  0  0  0  0
 46 49  1  0  0  0  0
 46 50  1  0  0  0  0
M  CHG  1  23   1
M  END
$$$$

  -OEChem-05262216443D

 50 50  0     1  0  0  0  0  0999 V2000
   -2.1360   -0.8547    4.0986 C   0  0  0  0  0  0  0  0  0  0  0  0
   -2.4036   -1.4996    3.0908 O   0  0  0  0  0  0  0  0  0  0  0  0
   -1.9534   -1.5681    5.4243 C   0  0  0  0  0  0  0  0  0  0  0  0
   -2.2134   -2.6257    5.3265 H   0  0  0  0  0  0  0  0  0  0  0  0
   -0.9138   -1.4883    5.7515 H   0  0  0  0  0  0  0  0  0  0  0  0
   -2.6005   -1.1186    6.1817 H   0  0  0  0  0  0  0  0  0  0  0  0
   -1.9652    0.5135    4.0323 N   0  0  0  0  0  0  0  0  0  0  0  0
   -2.0158    1.2836    2.7809 C   0  0  2  0  0  0  0  0  0  0  0  0
   -0.7683    1.1054    1.8838 C   0  0  0  0  0  0  0  0  0  0  0  0
    0.2922    0.7027    2.3496 O   0  0  0  0  0  0  0  0  0  0  0  0
   -2.1918    2.7583    3.1496 C   0  0  0  0  0  0  0  0  0  0  0  0
   -1.5916    0.9676    4.8621 H   0  0  0  0  0  0  0  0  0  0  0  0
   -2.8919    0.9638    2.2068 H   0  0  0  0  0  0  0  0  0  0  0  0
   -1.3293    3.1183    3.7204 H   0  0  0  0  0  0  0  0  0  0  0  0
   -2.2889    3.3701    2.2471 H   0  0  0  0  0  0  0  0  0  0  0  0
   -3.0933    2.8946    3.7557 H   0  0  0  0  0  0  0  0  0  0  0  0
   -0.8732    1.2820    0.5128 N   0  0  0  0  0  0  0  0  0  0  0  0
    0.2194    1.0335   -0.4465 C   0  0  2  0  0  0  0  0  0  0  0  0
    0.5959    2.2934   -1.2422 C   0  0  0  0  0  0  0  0  0  0  0  0
    0.1314    2.4722   -2.3600 O   0  0  0  0  0  0  0  0  0  0  0  0
   -0.1614   -0.1551   -1.3477 C   0  0  0  0  0  0  0  0  0  0  0  0
   -0.2732   -1.3775   -0.4735 C   0  0  0  0  0  0  0  0  0  0  0  0
    0.7851   -2.1006    0.0763 N   0  3  0  0  0  0  0  0  0  0  0  0
   -1.4373   -1.8914    0.0336 C   0  0  0  0  0  0  0  0  0  0  0  0
    0.3275   -2.9635    0.9507 C   0  0  0  0  0  0  0  0  0  0  0  0
   -1.0630   -2.8779    0.9329 N   0  0  0  0  0  0  0  0  0  0  0  0
   -1.7442    1.6720    0.1572 H   0  0  0  0  0  0  0  0  0  0  0  0
    1.1356    0.7534    0.0839 H   0  0  0  0  0  0  0  0  0  0  0  0
    0.5988   -0.3096   -2.1221 H   0  0  0  0  0  0  0  0  0  0  0  0
   -1.1107    0.0487   -1.8554 H   0  0  0  0  0  0  0  0  0  0  0  0
    1.7661   -1.8536   -0.0800 H   0  0  0  0  0  0  0  0  0  0  0  0
   -2.4464   -1.5235   -0.1455 H   0  0  0  0  0  0  0  0  0  0  0  0
    0.9252   -3.5997    1.6046 H   0  0  0  0  0  0  0  0  0  0  0  0
   -1.6886   -3.2564    1.6536 H   0  0  0  0  0  0  0  0  0  0  0  0
    1.5699    3.1390   -0.7481 N   0  0  0  0  0  0  0  0  0  0  0  0
    2.4717    3.8327   -1.6782 C   0  0  2  0  0  0  0  0  0  0  0  0
    3.5213    2.8632   -2.2726 C   0  0  0  0  0  0  0  0  0  0  0  0
    3.6900    1.7532   -1.7719 O   0  0  0  0  0  0  0  0  0  0  0  0
    3.1555    4.9672   -0.9110 C   0  0  0  0  0  0  0  0  0  0  0  0
    1.9946    2.8206    0.1200 H   0  0  0  0  0  0  0  0  0  0  0  0
    1.8986    4.2675   -2.5046 H   0  0  0  0  0  0  0  0  0  0  0  0
    3.7603    4.5674   -0.0904 H   0  0  0  0  0  0  0  0  0  0  0  0
    3.8095    5.5410   -1.5752 H   0  0  0  0  0  0  0  0  0  0  0  0
    2.4069    5.6481   -0.4936 H   0  0  0  0  0  0  0  0  0  0  0  0
    4.2745    3.2319   -3.3710 N   0  0  0  0  0  0  0  0  0  0  0  0
    5.2657    2.3616   -3.9937 C   0  0  0  0  0  0  0  0  0  0  0  0
    4.0805    4.1349   -3.7955 H   0  0  0  0  0  0  0  0  0  0  0  0
    6.0318    2.0700   -3.2673 H   0  0  0  0  0  0  0  0  0  0  0  0
    4.7896    1.4569   -4.3863 H   0  0  0  0  0  0  0  0  0  0  0  0
    5.7582    2.8805   -4.8221 H   0  0  0  0  0  0  0  0  0  0  0  0
  1  2  2  0  0  0  0
  1  3  1  0  0  0  0
  1  7  1  0  0  0  0
  3  4  1  0  0  0  0
  3  5  1  0  0  0  0
  3  6  1  0  0  0  0
  7  8  1  0  0  0  0
  7 12  1  0  0  0  0
  8  9  1  0  0  0  0
  8 11  1  0  0  0  0
  8 13  1  0  0  0  0
  9 10  2  0  0  0  0
  9 17  1  0  0  0  0
 11 14  1  0  0  0  0
 11 15  1  0  0  0  0
 11 16  1  0  0  0  0
 17 18  1  0  0  0  0
 17 27  1  0  0  0  0
 18 19  1  0  0  0  0
 18 21  1  0  0  0  0
 18 28  1  0  0  0  0
 19 20  2  0  0  0  0
 19 35  1  0  0  0  0
 21 22  1  0  0  0  0
 21 29  1  0  0  0  0
 21 30  1  0  0  0  0
 22 23  1  0  0  0  0
 22 24  2  0  0  0  0
 23 25  2  0  0  0  0
 23 31  1  0  0  0  0
 24 26  1  0  0  0  0
 24 32  1  0  0  0  0
 25 26  1  0  0  0  0
 25 33  1  0  0  0  0
 26 34  1  0  0  0  0
 35 36  1  0  0  0  0
 35 40  1  0  0  0  0
 36 37  1  0  0  0  0
 36 39  1  0  0  0  0
 36 41  1  0  0  0  0
 37 38  2  0  0  0  0
 37 45  1  0  0  0  0
 39 42  1  0  0  0  0
 39 43  1  0  0  0  0
 39 44  1  0  0  0  0
 45 46  1  0  0  0  0
 45 47  1  0  0  0  0
 46 48  1  0  0  0  0
 46 49  1  0  0  0  0
 46 50  1  0  0  0  0
M  CHG  1  23   1
M  END
$$$$

  -OEChem-05262216443D

 50 50  0     1  0  0  0  0  0999 V2000
   -2.0851   -0.9586    4.0408 C   0  0  0  0  0  0  0  0  0  0  0  0
   -2.3485   -1.5540    3.0015 O   0  0  0  0  0  0  0  0  0  0  0  0
   -1.8563   -1.7387    5.3213 C   0  0  0  0  0  0  0  0  0  0  0  0
   -2.0255   -2.8057    5.1525 H   0  0  0  0  0  0  0  0  0  0  0  0
   -0.8298   -1.5947    5.6684 H   0  0  0  0  0  0  0  0  0  0  0  0
   -2.5457   -1.3944    6.0965 H   0  0  0  0  0  0  0  0  0  0  0  0
   -1.9574    0.4159    4.0506 N   0  0  0  0  0  0  0  0  0  0  0  0
   -2.0221    1.2508    2.8420 C   0  0  2  0  0  0  0  0  0  0  0  0
   -0.7653    1.1524    1.9444 C   0  0  0  0  0  0  0  0  0  0  0  0
    0.2897    0.7065    2.3837 O   0  0  0  0  0  0  0  0  0  0  0  0
   -2.2394    2.6976    3.2917 C   0  0  0  0  0  0  0  0  0  0  0  0
   -1.5860    0.8314    4.9013 H   0  0  0  0  0  0  0  0  0  0  0  0
   -2.8866    0.9408    2.2452 H   0  0  0  0  0  0  0  0  0  0  0  0
   -1.3885    3.0476    3.8855 H   0  0  0  0  0  0  0  0  0  0  0  0
   -2.3512    3.3570    2.4251 H   0  0  0  0  0  0  0  0  0  0  0  0
   -3.1459    2.7756    3.9010 H   0  0  0  0  0  0  0  0  0  0  0  0
   -0.8597    1.4371    0.5908 N   0  0  0  0  0  0  0  0  0  0  0  0
    0.2363    1.2514   -0.3787 C   0  0  2  0  0  0  0  0  0  0  0  0
    0.6446    2.5550   -1.0801 C   0  0  0  0  0  0  0  0  0  0  0  0
    0.0583    2.9056   -2.0953 O   0  0  0  0  0  0  0  0  0  0  0  0
   -0.1485    0.1489   -1.3812 C   0  0  0  0  0  0  0  0  0  0  0  0
   -0.2826   -1.1387   -0.6120 C   0  0  0  0  0  0  0  0  0  0  0  0
    0.7667   -1.9116   -0.1173 N   0  3  0  0  0  0  0  0  0  0  0  0
   -1.4529   -1.6679   -0.1360 C   0  0  0  0  0  0  0  0  0  0  0  0
    0.2986   -2.8268    0.6961 C   0  0  0  0  0  0  0  0  0  0  0  0
   -1.0902   -2.7189    0.6920 N   0  0  0  0  0  0  0  0  0  0  0  0
   -1.7198    1.8728    0.2626 H   0  0  0  0  0  0  0  0  0  0  0  0
    1.1409    0.9115    0.1356 H   0  0  0  0  0  0  0  0  0  0  0  0
    0.6204    0.0500   -2.1565 H   0  0  0  0  0  0  0  0  0  0  0  0
   -1.0888    0.4061   -1.8809 H   0  0  0  0  0  0  0  0  0  0  0  0
    1.7505   -1.6676   -0.2629 H   0  0  0  0  0  0  0  0  0  0  0  0
   -2.4553   -1.2679   -0.2802 H   0  0  0  0  0  0  0  0  0  0  0  0
    0.8881   -3.5160    1.3012 H   0  0  0  0  0  0  0  0  0  0  0  0
   -1.7146   -3.1237    1.3998 H   0  0  0  0  0  0  0  0  0  0  0  0
    1.8211    3.1735   -0.7047 N   0  0  0  0  0  0  0  0  0  0  0  0
    2.7281    3.6656   -1.7499 C   0  0  2  0  0  0  0  0  0  0  0  0
    3.4417    2.4944   -2.4705 C   0  0  0  0  0  0  0  0  0  0  0  0
    3.3698    1.3514   -2.0192 O   0  0  0  0  0  0  0  0  0  0  0  0
    3.7437    4.5978   -1.0846 C   0  0  0  0  0  0  0  0  0  0  0  0
    2.2785    2.7339    0.0904 H   0  0  0  0  0  0  0  0  0  0  0  0
    2.1667    4.2383   -2.4968 H   0  0  0  0  0  0  0  0  0  0  0  0
    4.3406    4.0526   -0.3464 H   0  0  0  0  0  0  0  0  0  0  0  0
    4.4208    5.0251   -1.8307 H   0  0  0  0  0  0  0  0  0  0  0  0
    3.2285    5.4202   -0.5776 H   0  0  0  0  0  0  0  0  0  0  0  0
    4.1565    2.7172   -3.6318 N   0  0  0  0  0  0  0  0  0  0  0  0
    4.8346    1.6607   -4.3746 C   0  0  0  0  0  0  0  0  0  0  0  0
    4.1631    3.6612   -4.0088 H   0  0  0  0  0  0  0  0  0  0  0  0
    5.5785    1.1632   -3.7432 H   0  0  0  0  0  0  0  0  0  0  0  0
    4.1139    0.9146   -4.7253 H   0  0  0  0  0  0  0  0  0  0  0  0
    5.3480    2.0795   -5.2458 H   0  0  0  0  0  0  0  0  0  0  0  0
  1  2  2  0  0  0  0
  1  3  1  0  0  0  0
  1  7  1  0  0  0  0
  3  4  1  0  0  0  0
  3  5  1  0  0  0  0
  3  6  1  0  0  0  0
  7  8  1  0  0  0  0
  7 12  1  0  0  0  0
  8  9  1  0  0  0  0
  8 11  1  0  0  0  0
  8 13  1  0  0  0  0
  9 10  2  0  0  0  0
  9 17  1  0  0  0  0
 11 14  1  0  0  0  0
 11 15  1  0  0  0  0
 11 16  1  0  0  0  0
 17 18  1  0  0  0  0
 17 27  1  0  0  0  0
 18 19  1  0  0  0  0
 18 21  1  0  0  0  0
 18 28  1  0  0  0  0
 19 20  2  0  0  0  0
 19 35  1  0  0  0  0
 21 22  1  0  0  0  0
 21 29  1  0  0  0  0
 21 30  1  0  0  0  0
 22 23  1  0  0  0  0
 22 24  2  0  0  0  0
 23 25  2  0  0  0  0
 23 31  1  0  0  0  0
 24 26  1  0  0  0  0
 24 32  1  0  0  0  0
 25 26  1  0  0  0  0
 25 33  1  0  0  0  0
 26 34  1  0  0  0  0
 35 36  1  0  0  0  0
 35 40  1  0  0  0  0
 36 37  1  0  0  0  0
 36 39  1  0  0  0  0
 36 41  1  0  0  0  0
 37 38  2  0  0  0  0
 37 45  1  0  0  0  0
 39 42  1  0  0  0  0
 39 43  1  0  0  0  0
 39 44  1  0  0  0  0
 45 46  1  0  0  0  0
 45 47  1  0  0  0  0
 46 48  1  0  0  0  0
 46 49  1  0  0  0  0
 46 50  1  0  0  0  0
M  CHG  1  23   1
M  END
$$$$

  -OEChem-05262216443D

 50 50  0     1  0  0  0  0  0999 V2000
   -2.2940   -0.9132    3.9761 C   0  0  0  0  0  0  0  0  0  0  0  0
   -2.5602   -1.4355    2.8989 O   0  0  0  0  0  0  0  0  0  0  0  0
   -2.2269   -1.7642    5.2295 C   0  0  0  0  0  0  0  0  0  0  0  0
   -2.5666   -2.7816    5.0170 H   0  0  0  0  0  0  0  0  0  0  0  0
   -1.1991   -1.8039    5.5990 H   0  0  0  0  0  0  0  0  0  0  0  0
   -2.8682   -1.3380    6.0054 H   0  0  0  0  0  0  0  0  0  0  0  0
   -2.0184    0.4374    4.0543 N   0  0  0  0  0  0  0  0  0  0  0  0
   -1.9314    1.3207    2.8822 C   0  0  2  0  0  0  0  0  0  0  0  0
   -0.6580    1.1059    2.0310 C   0  0  0  0  0  0  0  0  0  0  0  0
    0.3290    0.5465    2.4986 O   0  0  0  0  0  0  0  0  0  0  0  0
   -1.9950    2.7663    3.3804 C   0  0  0  0  0  0  0  0  0  0  0  0
   -1.6553    0.7780    4.9411 H   0  0  0  0  0  0  0  0  0  0  0  0
   -2.7994    1.1383    2.2393 H   0  0  0  0  0  0  0  0  0  0  0  0
   -1.1344    2.9919    4.0187 H   0  0  0  0  0  0  0  0  0  0  0  0
   -1.9915    3.4634    2.5365 H   0  0  0  0  0  0  0  0  0  0  0  0
   -2.9108    2.9308    3.9572 H   0  0  0  0  0  0  0  0  0  0  0  0
   -0.6799    1.4054    0.6785 N   0  0  0  0  0  0  0  0  0  0  0  0
    0.4429    1.1675   -0.2458 C   0  0  2  0  0  0  0  0  0  0  0  0
    0.9347    2.4634   -0.9063 C   0  0  0  0  0  0  0  0  0  0  0  0
    0.2214    3.0143   -1.7343 O   0  0  0  0  0  0  0  0  0  0  0  0
    0.0108    0.1278   -1.2947 C   0  0  0  0  0  0  0  0  0  0  0  0
   -0.2600   -1.1683   -0.5762 C   0  0  0  0  0  0  0  0  0  0  0  0
    0.6891   -2.0512   -0.0631 N   0  3  0  0  0  0  0  0  0  0  0  0
   -1.4937   -1.5978   -0.1638 C   0  0  0  0  0  0  0  0  0  0  0  0
    0.1023   -2.9444    0.6964 C   0  0  0  0  0  0  0  0  0  0  0  0
   -1.2686   -2.7037    0.6407 N   0  0  0  0  0  0  0  0  0  0  0  0
   -1.4645    1.9580    0.3358 H   0  0  0  0  0  0  0  0  0  0  0  0
    1.3033    0.7601    0.2941 H   0  0  0  0  0  0  0  0  0  0  0  0
    0.7978   -0.0119   -2.0452 H   0  0  0  0  0  0  0  0  0  0  0  0
   -0.8855    0.4761   -1.8198 H   0  0  0  0  0  0  0  0  0  0  0  0
    1.6964   -1.9066   -0.1699 H   0  0  0  0  0  0  0  0  0  0  0  0
   -2.4465   -1.0982   -0.3316 H   0  0  0  0  0  0  0  0  0  0  0  0
    0.5967   -3.7091    1.2961 H   0  0  0  0  0  0  0  0  0  0  0  0
   -1.9621   -3.0771    1.2992 H   0  0  0  0  0  0  0  0  0  0  0  0
    2.2411    2.8738   -0.7246 N   0  0  0  0  0  0  0  0  0  0  0  0
    2.9837    3.4391   -1.8589 C   0  0  2  0  0  0  0  0  0  0  0  0
    3.4031    2.3322   -2.8561 C   0  0  0  0  0  0  0  0  0  0  0  0
    3.3310    1.1485   -2.5288 O   0  0  0  0  0  0  0  0  0  0  0  0
    4.2110    4.1643   -1.3016 C   0  0  0  0  0  0  0  0  0  0  0  0
    2.7835    2.2778   -0.1047 H   0  0  0  0  0  0  0  0  0  0  0  0
    2.3623    4.1668   -2.3928 H   0  0  0  0  0  0  0  0  0  0  0  0
    4.8703    3.4625   -0.7802 H   0  0  0  0  0  0  0  0  0  0  0  0
    4.7782    4.6368   -2.1097 H   0  0  0  0  0  0  0  0  0  0  0  0
    3.9032    4.9434   -0.5966 H   0  0  0  0  0  0  0  0  0  0  0  0
    3.8463    2.6588   -4.1235 N   0  0  0  0  0  0  0  0  0  0  0  0
    4.2241    1.6657   -5.1227 C   0  0  0  0  0  0  0  0  0  0  0  0
    3.8528    3.6416   -4.3838 H   0  0  0  0  0  0  0  0  0  0  0  0
    5.0362    1.0335   -4.7483 H   0  0  0  0  0  0  0  0  0  0  0  0
    3.3688    1.0295   -5.3735 H   0  0  0  0  0  0  0  0  0  0  0  0
    4.5672    2.1595   -6.0373 H   0  0  0  0  0  0  0  0  0  0  0  0
  1  2  2  0  0  0  0
  1  3  1  0  0  0  0
  1  7  1  0  0  0  0
  3  4  1  0  0  0  0
  3  5  1  0  0  0  0
  3  6  1  0  0  0  0
  7  8  1  0  0  0  0
  7 12  1  0  0  0  0
  8  9  1  0  0  0  0
  8 11  1  0  0  0  0
  8 13  1  0  0  0  0
  9 10  2  0  0  0  0
  9 17  1  0  0  0  0
 11 14  1  0  0  0  0
 11 15  1  0  0  0  0
 11 16  1  0  0  0  0
 17 18  1  0  0  0  0
 17 27  1  0  0  0  0
 18 19  1  0  0  0  0
 18 21  1  0  0  0  0
 18 28  1  0  0  0  0
 19 20  2  0  0  0  0
 19 35  1  0  0  0  0
 21 22  1  0  0  0  0
 21 29  1  0  0  0  0
 21 30  1  0  0  0  0
 22 23  1  0  0  0  0
 22 24  2  0  0  0  0
 23 25  2  0  0  0  0
 23 31  1  0  0  0  0
 24 26  1  0  0  0  0
 24 32  1  0  0  0  0
 25 26  1  0  0  0  0
 25 33  1  0  0  0  0
 26 34  1  0  0  0  0
 35 36  1  0  0  0  0
 35 40  1  0  0  0  0
 36 37  1  0  0  0  0
 36 39  1  0  0  0  0
 36 41  1  0  0  0  0
 37 38  2  0  0  0  0
 37 45  1  0  0  0  0
 39 42  1  0  0  0  0
 39 43  1  0  0  0  0
 39 44  1  0  0  0  0
 45 46  1  0  0  0  0
 45 47  1  0  0  0  0
 46 48  1  0  0  0  0
 46 49  1  0  0  0  0
 46 50  1  0  0  0  0
M  CHG  1  23   1
M  END
$$$$

  -OEChem-05262216443D

 50 50  0     1  0  0  0  0  0999 V2000
   -2.4391   -0.8276    3.9288 C   0  0  0  0  0  0  0  0  0  0  0  0
   -2.7071   -1.3057    2.8317 O   0  0  0  0  0  0  0  0  0  0  0  0
   -2.5020   -1.7003    5.1674 C   0  0  0  0  0  0  0  0  0  0  0  0
   -2.9160   -2.6816    4.9202 H   0  0  0  0  0  0  0  0  0  0  0  0
   -1.4994   -1.8333    5.5815 H   0  0  0  0  0  0  0  0  0  0  0  0
   -3.1398   -1.2326    5.9218 H   0  0  0  0  0  0  0  0  0  0  0  0
   -2.0413    0.4892    4.0460 N   0  0  0  0  0  0  0  0  0  0  0  0
   -1.8289    1.3821    2.8980 C   0  0  2  0  0  0  0  0  0  0  0  0
   -0.5664    1.0477    2.0699 C   0  0  0  0  0  0  0  0  0  0  0  0
    0.3491    0.3852    2.5486 O   0  0  0  0  0  0  0  0  0  0  0  0
   -1.7448    2.8141    3.4303 C   0  0  0  0  0  0  0  0  0  0  0  0
   -1.6851    0.7793    4.9532 H   0  0  0  0  0  0  0  0  0  0  0  0
   -2.6958    1.3099    2.2325 H   0  0  0  0  0  0  0  0  0  0  0  0
   -0.8812    2.9264    4.0940 H   0  0  0  0  0  0  0  0  0  0  0  0
   -1.6411    3.5254    2.6047 H   0  0  0  0  0  0  0  0  0  0  0  0
   -2.6511    3.0673    3.9899 H   0  0  0  0  0  0  0  0  0  0  0  0
   -0.5355    1.3544    0.7196 N   0  0  0  0  0  0  0  0  0  0  0  0
    0.5977    1.0591   -0.1746 C   0  0  2  0  0  0  0  0  0  0  0  0
    1.1689    2.3363   -0.8080 C   0  0  0  0  0  0  0  0  0  0  0  0
    0.4103    3.0758   -1.4212 O   0  0  0  0  0  0  0  0  0  0  0  0
    0.1175    0.0681   -1.2496 C   0  0  0  0  0  0  0  0  0  0  0  0
   -0.2634   -1.2170   -0.5593 C   0  0  0  0  0  0  0  0  0  0  0  0
    0.6000   -2.1790   -0.0367 N   0  3  0  0  0  0  0  0  0  0  0  0
   -1.5362   -1.5525   -0.1799 C   0  0  0  0  0  0  0  0  0  0  0  0
   -0.0728   -3.0295    0.7002 C   0  0  0  0  0  0  0  0  0  0  0  0
   -1.4186   -2.6802    0.6169 N   0  0  0  0  0  0  0  0  0  0  0  0
   -1.2364    2.0121    0.3792 H   0  0  0  0  0  0  0  0  0  0  0  0
    1.4191    0.5980    0.3826 H   0  0  0  0  0  0  0  0  0  0  0  0
    0.9064   -0.1177   -1.9870 H   0  0  0  0  0  0  0  0  0  0  0  0
   -0.7395    0.4898   -1.7869 H   0  0  0  0  0  0  0  0  0  0  0  0
    1.6172   -2.1161   -0.1195 H   0  0  0  0  0  0  0  0  0  0  0  0
   -2.4417   -0.9755   -0.3609 H   0  0  0  0  0  0  0  0  0  0  0  0
    0.3456   -3.8365    1.3024 H   0  0  0  0  0  0  0  0  0  0  0  0
   -2.1558   -3.0057    1.2529 H   0  0  0  0  0  0  0  0  0  0  0  0
    2.5352    2.5358   -0.8595 N   0  0  0  0  0  0  0  0  0  0  0  0
    3.1392    3.1876   -2.0297 C   0  0  2  0  0  0  0  0  0  0  0  0
    3.2577    2.1979   -3.2123 C   0  0  0  0  0  0  0  0  0  0  0  0
    3.1441    0.9900   -3.0130 O   0  0  0  0  0  0  0  0  0  0  0  0
    4.5163    3.7133   -1.6181 C   0  0  0  0  0  0  0  0  0  0  0  0
    3.0873    1.7889   -0.4469 H   0  0  0  0  0  0  0  0  0  0  0  0
    2.5266    4.0372   -2.3513 H   0  0  0  0  0  0  0  0  0  0  0  0
    5.1688    2.8887   -1.3127 H   0  0  0  0  0  0  0  0  0  0  0  0
    4.9907    4.2399   -2.4521 H   0  0  0  0  0  0  0  0  0  0  0  0
    4.4204    4.4118   -0.7807 H   0  0  0  0  0  0  0  0  0  0  0  0
    3.4732    2.6551   -4.4982 N   0  0  0  0  0  0  0  0  0  0  0  0
    3.5446    1.7765   -5.6607 C   0  0  0  0  0  0  0  0  0  0  0  0
    3.5149    3.6606   -4.6417 H   0  0  0  0  0  0  0  0  0  0  0  0
    4.3506    1.0449   -5.5409 H   0  0  0  0  0  0  0  0  0  0  0  0
    2.5991    1.2402   -5.7949 H   0  0  0  0  0  0  0  0  0  0  0  0
    3.7426    2.3600   -6.5655 H   0  0  0  0  0  0  0  0  0  0  0  0
  1  2  2  0  0  0  0
  1  3  1  0  0  0  0
  1  7  1  0  0  0  0
  3  4  1  0  0  0  0
  3  5  1  0  0  0  0
  3  6  1  0  0  0  0
  7  8  1  0  0  0  0
  7 12  1  0  0  0  0
  8  9  1  0  0  0  0
  8 11  1  0  0  0  0
  8 13  1  0  0  0  0
  9 10  2  0  0  0  0
  9 17  1  0  0  0  0
 11 14  1  0  0  0  0
 11 15  1  0  0  0  0
 11 16  1  0  0  0  0
 17 18  1  0  0  0  0
 17 27  1  0  0  0  0
 18 19  1  0  0  0  0
 18 21  1  0  0  0  0
 18 28  1  0  0  0  0
 19 20  2  0  0  0  0
 19 35  1  0  0  0  0
 21 22  1  0  0  0  0
 21 29  1  0  0  0  0
 21 30  1  0  0  0  0
 22 23  1  0  0  0  0
 22 24  2  0  0  0  0
 23 25  2  0  0  0  0
 23 31  1  0  0  0  0
 24 26  1  0  0  0  0
 24 32  1  0  0  0  0
 25 26  1  0  0  0  0
 25 33  1  0  0  0  0
 26 34  1  0  0  0  0
 35 36  1  0  0  0  0
 35 40  1  0  0  0  0
 36 37  1  0  0  0  0
 36 39  1  0  0  0  0
 36 41  1  0  0  0  0
 37 38  2  0  0  0  0
 37 45  1  0  0  0  0
 39 42  1  0  0  0  0
 39 43  1  0  0  0  0
 39 44  1  0  0  0  0
 45 46  1  0  0  0  0
 45 47  1  0  0  0  0
 46 48  1  0  0  0  0
 46 49  1  0  0  0  0
 46 50  1  0  0  0  0
M  CHG  1  23   1
M  END
$$$$

  -OEChem-05262216443D

 50 50  0     1  0  0  0  0  0999 V2000
   -2.4971   -0.7343    3.9358 C   0  0  0  0  0  0  0  0  0  0  0  0
   -2.7951   -1.2023    2.8418 O   0  0  0  0  0  0  0  0  0  0  0  0
   -2.6164   -1.5945    5.1789 C   0  0  0  0  0  0  0  0  0  0  0  0
   -3.1456   -2.5233    4.9488 H   0  0  0  0  0  0  0  0  0  0  0  0
   -1.6217   -1.8382    5.5605 H   0  0  0  0  0  0  0  0  0  0  0  0
   -3.1729   -1.0590    5.9522 H   0  0  0  0  0  0  0  0  0  0  0  0
   -2.0119    0.5539    4.0453 N   0  0  0  0  0  0  0  0  0  0  0  0
   -1.7337    1.4222    2.8922 C   0  0  2  0  0  0  0  0  0  0  0  0
   -0.4939    0.9940    2.0729 C   0  0  0  0  0  0  0  0  0  0  0  0
    0.3574    0.2516    2.5539 O   0  0  0  0  0  0  0  0  0  0  0  0
   -1.5541    2.8497    3.4137 C   0  0  0  0  0  0  0  0  0  0  0  0
   -1.6329    0.8224    4.9498 H   0  0  0  0  0  0  0  0  0  0  0  0
   -2.6004    1.4053    2.2228 H   0  0  0  0  0  0  0  0  0  0  0  0
   -0.6897    2.9099    4.0834 H   0  0  0  0  0  0  0  0  0  0  0  0
   -1.3962    3.5444    2.5825 H   0  0  0  0  0  0  0  0  0  0  0  0
   -2.4450    3.1700    3.9635 H   0  0  0  0  0  0  0  0  0  0  0  0
   -0.4299    1.2958    0.7228 N   0  0  0  0  0  0  0  0  0  0  0  0
    0.6993    0.9310   -0.1519 C   0  0  2  0  0  0  0  0  0  0  0  0
    1.3481    2.1766   -0.7762 C   0  0  0  0  0  0  0  0  0  0  0  0
    0.6241    3.0901   -1.1516 O   0  0  0  0  0  0  0  0  0  0  0  0
    0.1652   -0.0252   -1.2332 C   0  0  0  0  0  0  0  0  0  0  0  0
   -0.3113   -1.2804   -0.5451 C   0  0  0  0  0  0  0  0  0  0  0  0
    0.4672   -2.3050   -0.0070 N   0  3  0  0  0  0  0  0  0  0  0  0
   -1.6104   -1.5117   -0.1759 C   0  0  0  0  0  0  0  0  0  0  0  0
   -0.2786   -3.0904    0.7324 C   0  0  0  0  0  0  0  0  0  0  0  0
   -1.5913   -2.6365    0.6326 N   0  0  0  0  0  0  0  0  0  0  0  0
   -1.0432    2.0409    0.3915 H   0  0  0  0  0  0  0  0  0  0  0  0
    1.4858    0.4250    0.4167 H   0  0  0  0  0  0  0  0  0  0  0  0
    0.9469   -0.2682   -1.9610 H   0  0  0  0  0  0  0  0  0  0  0  0
   -0.6542    0.4537   -1.7809 H   0  0  0  0  0  0  0  0  0  0  0  0
    1.4873   -2.3203   -0.0705 H   0  0  0  0  0  0  0  0  0  0  0  0
   -2.4647   -0.8638   -0.3671 H   0  0  0  0  0  0  0  0  0  0  0  0
    0.0691   -3.9184    1.3508 H   0  0  0  0  0  0  0  0  0  0  0  0
   -2.3527   -2.8838    1.2759 H   0  0  0  0  0  0  0  0  0  0  0  0
    2.6941    2.1770   -1.0888 N   0  0  0  0  0  0  0  0  0  0  0  0
    3.1949    2.9294   -2.2476 C   0  0  2  0  0  0  0  0  0  0  0  0
    3.0097    2.1204   -3.5519 C   0  0  0  0  0  0  0  0  0  0  0  0
    2.7969    0.9114   -3.4944 O   0  0  0  0  0  0  0  0  0  0  0  0
    4.6735    3.2400   -2.0029 C   0  0  0  0  0  0  0  0  0  0  0  0
    3.1774    1.3037   -0.8976 H   0  0  0  0  0  0  0  0  0  0  0  0
    2.6556    3.8775   -2.3519 H   0  0  0  0  0  0  0  0  0  0  0  0
    5.2542    2.3153   -1.9213 H   0  0  0  0  0  0  0  0  0  0  0  0
    5.0816    3.8338   -2.8269 H   0  0  0  0  0  0  0  0  0  0  0  0
    4.7932    3.8098   -1.0757 H   0  0  0  0  0  0  0  0  0  0  0  0
    3.0690    2.7426   -4.7841 N   0  0  0  0  0  0  0  0  0  0  0  0
    2.8704    2.0419   -6.0482 C   0  0  0  0  0  0  0  0  0  0  0  0
    3.2032    3.7502   -4.7990 H   0  0  0  0  0  0  0  0  0  0  0  0
    3.6138    1.2467   -6.1686 H   0  0  0  0  0  0  0  0  0  0  0  0
    1.8700    1.5982   -6.0883 H   0  0  0  0  0  0  0  0  0  0  0  0
    2.9731    2.7376   -6.8870 H   0  0  0  0  0  0  0  0  0  0  0  0
  1  2  2  0  0  0  0
  1  3  1  0  0  0  0
  1  7  1  0  0  0  0
  3  4  1  0  0  0  0
  3  5  1  0  0  0  0
  3  6  1  0  0  0  0
  7  8  1  0  0  0  0
  7 12  1  0  0  0  0
  8  9  1  0  0  0  0
  8 11  1  0  0  0  0
  8 13  1  0  0  0  0
  9 10  2  0  0  0  0
  9 17  1  0  0  0  0
 11 14  1  0  0  0  0
 11 15  1  0  0  0  0
 11 16  1  0  0  0  0
 17 18  1  0  0  0  0
 17 27  1  0  0  0  0
 18 19  1  0  0  0  0
 18 21  1  0  0  0  0
 18 28  1  0  0  0  0
 19 20  2  0  0  0  0
 19 35  1  0  0  0  0
 21 22  1  0  0  0  0
 21 29  1  0  0  0  0
 21 30  1  0  0  0  0
 22 23  1  0  0  0  0
 22 24  2  0  0  0  0
 23 25  2  0  0  0  0
 23 31  1  0  0  0  0
 24 26  1  0  0  0  0
 24 32  1  0  0  0  0
 25 26  1  0  0  0  0
 25 33  1  0  0  0  0
 26 34  1  0  0  0  0
 35 36  1  0  0  0  0
 35 40  1  0  0  0  0
 36 37  1  0  0  0  0
 36 39  1  0  0  0  0
 36 41  1  0  0  0  0
 37 38  2  0  0  0  0
 37 45  1  0  0  0  0
 39 42  1  0  0  0  0
 39 43  1  0  0  0  0
 39 44  1  0  0  0  0
 45 46  1  0  0  0  0
 45 47  1  0  0  0  0
 46 48  1  0  0  0  0
 46 49  1  0  0  0  0
 46 50  1  0  0  0  0
M  CHG  1  23   1
M  END
$$$$

  -OEChem-05262216443D

 50 50  0     1  0  0  0  0  0999 V2000
   -2.5274   -0.6442    3.9419 C   0  0  0  0  0  0  0  0  0  0  0  0
   -2.8470   -1.0879    2.8439 O   0  0  0  0  0  0  0  0  0  0  0  0
   -2.7307   -1.4918    5.1832 C   0  0  0  0  0  0  0  0  0  0  0  0
   -3.2620   -2.4138    4.9315 H   0  0  0  0  0  0  0  0  0  0  0  0
   -1.7631   -1.7491    5.6214 H   0  0  0  0  0  0  0  0  0  0  0  0
   -3.3205   -0.9404    5.9199 H   0  0  0  0  0  0  0  0  0  0  0  0
   -1.9506    0.6051    4.0591 N   0  0  0  0  0  0  0  0  0  0  0  0
   -1.6084    1.4574    2.9108 C   0  0  2  0  0  0  0  0  0  0  0  0
   -0.4165    0.9354    2.0753 C   0  0  0  0  0  0  0  0  0  0  0  0
    0.3729    0.1175    2.5397 O   0  0  0  0  0  0  0  0  0  0  0  0
   -1.3021    2.8597    3.4409 C   0  0  0  0  0  0  0  0  0  0  0  0
   -1.5689    0.8485    4.9696 H   0  0  0  0  0  0  0  0  0  0  0  0
   -2.4789    1.5202    2.2491 H   0  0  0  0  0  0  0  0  0  0  0  0
   -0.4257    2.8405    4.0973 H   0  0  0  0  0  0  0  0  0  0  0  0
   -1.0984    3.5459    2.6123 H   0  0  0  0  0  0  0  0  0  0  0  0
   -2.1542    3.2492    4.0072 H   0  0  0  0  0  0  0  0  0  0  0  0
   -0.3408    1.2451    0.7273 N   0  0  0  0  0  0  0  0  0  0  0  0
    0.7721    0.8270   -0.1458 C   0  0  2  0  0  0  0  0  0  0  0  0
    1.4830    2.0477   -0.7599 C   0  0  0  0  0  0  0  0  0  0  0  0
    0.8583    3.0935   -0.8913 O   0  0  0  0  0  0  0  0  0  0  0  0
    0.1792   -0.0945   -1.2286 C   0  0  0  0  0  0  0  0  0  0  0  0
   -0.3662   -1.3225   -0.5402 C   0  0  0  0  0  0  0  0  0  0  0  0
    0.3458   -2.3956   -0.0041 N   0  3  0  0  0  0  0  0  0  0  0  0
   -1.6782   -1.4744   -0.1742 C   0  0  0  0  0  0  0  0  0  0  0  0
   -0.4492   -3.1333    0.7334 C   0  0  0  0  0  0  0  0  0  0  0  0
   -1.7312   -2.5993    0.6321 N   0  0  0  0  0  0  0  0  0  0  0  0
   -0.8693    2.0641    0.4241 H   0  0  0  0  0  0  0  0  0  0  0  0
    1.5332    0.2798    0.4191 H   0  0  0  0  0  0  0  0  0  0  0  0
    0.9400   -0.3829   -1.9618 H   0  0  0  0  0  0  0  0  0  0  0  0
   -0.6133    0.4323   -1.7720 H   0  0  0  0  0  0  0  0  0  0  0  0
    1.3637   -2.4697   -0.0561 H   0  0  0  0  0  0  0  0  0  0  0  0
   -2.4905   -0.7747   -0.3654 H   0  0  0  0  0  0  0  0  0  0  0  0
   -0.1552   -3.9808    1.3530 H   0  0  0  0  0  0  0  0  0  0  0  0
   -2.5079   -2.7999    1.2734 H   0  0  0  0  0  0  0  0  0  0  0  0
    2.7250    1.9043   -1.3493 N   0  0  0  0  0  0  0  0  0  0  0  0
    3.1266    2.7357   -2.4938 C   0  0  2  0  0  0  0  0  0  0  0  0
    2.6535    2.1043   -3.8225 C   0  0  0  0  0  0  0  0  0  0  0  0
    2.2881    0.9313   -3.8419 O   0  0  0  0  0  0  0  0  0  0  0  0
    4.6510    2.8699   -2.4664 C   0  0  0  0  0  0  0  0  0  0  0  0
    3.0888    0.9556   -1.3569 H   0  0  0  0  0  0  0  0  0  0  0  0
    2.6919    3.7384   -2.4165 H   0  0  0  0  0  0  0  0  0  0  0  0
    5.1269    1.8887   -2.5636 H   0  0  0  0  0  0  0  0  0  0  0  0
    4.9952    3.5049   -3.2888 H   0  0  0  0  0  0  0  0  0  0  0  0
    4.9740    3.3232   -1.5238 H   0  0  0  0  0  0  0  0  0  0  0  0
    2.6363    2.8408   -4.9913 N   0  0  0  0  0  0  0  0  0  0  0  0
    2.1968    2.2998   -6.2727 C   0  0  0  0  0  0  0  0  0  0  0  0
    2.9151    3.8171   -4.9413 H   0  0  0  0  0  0  0  0  0  0  0  0
    2.8215    1.4487   -6.5644 H   0  0  0  0  0  0  0  0  0  0  0  0
    1.1549    1.9677   -6.2126 H   0  0  0  0  0  0  0  0  0  0  0  0
    2.2705    3.0644   -7.0523 H   0  0  0  0  0  0  0  0  0  0  0  0
  1  2  2  0  0  0  0
  1  3  1  0  0  0  0
  1  7  1  0  0  0  0
  3  4  1  0  0  0  0
  3  5  1  0  0  0  0
  3  6  1  0  0  0  0
  7  8  1  0  0  0  0
  7 12  1  0  0  0  0
  8  9  1  0  0  0  0
  8 11  1  0  0  0  0
  8 13  1  0  0  0  0
  9 10  2  0  0  0  0
  9 17  1  0  0  0  0
 11 14  1  0  0  0  0
 11 15  1  0  0  0  0
 11 16  1  0  0  0  0
 17 18  1  0  0  0  0
 17 27  1  0  0  0  0
 18 19  1  0  0  0  0
 18 21  1  0  0  0  0
 18 28  1  0  0  0  0
 19 20  2  0  0  0  0
 19 35  1  0  0  0  0
 21 22  1  0  0  0  0
 21 29  1  0  0  0  0
 21 30  1  0  0  0  0
 22 23  1  0  0  0  0
 22 24  2  0  0  0  0
 23 25  2  0  0  0  0
 23 31  1  0  0  0  0
 24 26  1  0  0  0  0
 24 32  1  0  0  0  0
 25 26  1  0  0  0  0
 25 33  1  0  0  0  0
 26 34  1  0  0  0  0
 35 36  1  0  0  0  0
 35 40  1  0  0  0  0
 36 37  1  0  0  0  0
 36 39  1  0  0  0  0
 36 41  1  0  0  0  0
 37 38  2  0  0  0  0
 37 45  1  0  0  0  0
 39 42  1  0  0  0  0
 39 43  1  0  0  0  0
 39 44  1  0  0  0  0
 45 46  1  0  0  0  0
 45 47  1  0  0  0  0
 46 48  1  0  0  0  0
 46 49  1  0  0  0  0
 46 50  1  0  0  0  0
M  CHG  1  23   1
M  END
$$$$

  -OEChem-05262216443D

 50 50  0     1  0  0  0  0  0999 V2000
   -2.7579   -0.5304    3.5413 C   0  0  0  0  0  0  0  0  0  0  0  0
   -3.0080   -0.7649    2.3634 O   0  0  0  0  0  0  0  0  0  0  0  0
   -3.1659   -1.5263    4.6093 C   0  0  0  0  0  0  0  0  0  0  0  0
   -3.7457   -2.3409    4.1672 H   0  0  0  0  0  0  0  0  0  0  0  0
   -2.2767   -1.9443    5.0881 H   0  0  0  0  0  0  0  0  0  0  0  0
   -3.7791   -1.0309    5.3664 H   0  0  0  0  0  0  0  0  0  0  0  0
   -2.0693    0.6098    3.9055 N   0  0  0  0  0  0  0  0  0  0  0  0
   -1.4828    1.5429    2.9334 C   0  0  2  0  0  0  0  0  0  0  0  0
   -0.3077    0.9320    2.1380 C   0  0  0  0  0  0  0  0  0  0  0  0
    0.4252    0.0881    2.6449 O   0  0  0  0  0  0  0  0  0  0  0  0
   -1.0135    2.7885    3.6878 C   0  0  0  0  0  0  0  0  0  0  0  0
   -1.7462    0.6579    4.8684 H   0  0  0  0  0  0  0  0  0  0  0  0
   -2.2589    1.8411    2.2205 H   0  0  0  0  0  0  0  0  0  0  0  0
   -0.2303    2.5299    4.4082 H   0  0  0  0  0  0  0  0  0  0  0  0
   -0.6086    3.5283    2.9893 H   0  0  0  0  0  0  0  0  0  0  0  0
   -1.8491    3.2455    4.2274 H   0  0  0  0  0  0  0  0  0  0  0  0
   -0.2000    1.1908    0.7836 N   0  0  0  0  0  0  0  0  0  0  0  0
    0.9361    0.7354   -0.0381 C   0  0  2  0  0  0  0  0  0  0  0  0
    1.8892    1.9002   -0.3791 C   0  0  0  0  0  0  0  0  0  0  0  0
    1.5222    3.0526   -0.1808 O   0  0  0  0  0  0  0  0  0  0  0  0
    0.3283    0.0729   -1.2888 C   0  0  0  0  0  0  0  0  0  0  0  0
   -0.4535   -1.1395   -0.8388 C   0  0  0  0  0  0  0  0  0  0  0  0
    0.0423   -2.3743   -0.4172 N   0  3  0  0  0  0  0  0  0  0  0  0
   -1.8073   -1.1451   -0.6225 C   0  0  0  0  0  0  0  0  0  0  0  0
   -0.9257   -3.0934    0.0994 C   0  0  0  0  0  0  0  0  0  0  0  0
   -2.1034   -2.3617   -0.0293 N   0  0  0  0  0  0  0  0  0  0  0  0
   -0.6574    2.0481    0.4758 H   0  0  0  0  0  0  0  0  0  0  0  0
    1.5385   -0.0051    0.4973 H   0  0  0  0  0  0  0  0  0  0  0  0
    1.1069   -0.2297   -1.9963 H   0  0  0  0  0  0  0  0  0  0  0  0
   -0.3209    0.7864   -1.8091 H   0  0  0  0  0  0  0  0  0  0  0  0
    1.0396   -2.5968   -0.3967 H   0  0  0  0  0  0  0  0  0  0  0  0
   -2.4924   -0.3123   -0.7754 H   0  0  0  0  0  0  0  0  0  0  0  0
   -0.8252   -4.0678    0.5789 H   0  0  0  0  0  0  0  0  0  0  0  0
   -2.9884   -2.5687    0.4452 H   0  0  0  0  0  0  0  0  0  0  0  0
    3.0179    1.6673   -1.1436 N   0  0  0  0  0  0  0  0  0  0  0  0
    3.5122    2.6775   -2.0908 C   0  0  2  0  0  0  0  0  0  0  0  0
    2.7305    2.6149   -3.4225 C   0  0  0  0  0  0  0  0  0  0  0  0
    2.0791    1.6103   -3.6994 O   0  0  0  0  0  0  0  0  0  0  0  0
    5.0020    2.4145   -2.3235 C   0  0  0  0  0  0  0  0  0  0  0  0
    3.1492    0.7026   -1.4315 H   0  0  0  0  0  0  0  0  0  0  0  0
    3.4009    3.6840   -1.6721 H   0  0  0  0  0  0  0  0  0  0  0  0
    5.1548    1.4246   -2.7661 H   0  0  0  0  0  0  0  0  0  0  0  0
    5.4225    3.1647   -3.0006 H   0  0  0  0  0  0  0  0  0  0  0  0
    5.5483    2.4618   -1.3759 H   0  0  0  0  0  0  0  0  0  0  0  0
    2.7560    3.6748   -4.3083 N   0  0  0  0  0  0  0  0  0  0  0  0
    2.0298    3.6814   -5.5735 C   0  0  0  0  0  0  0  0  0  0  0  0
    3.2724    4.5070   -4.0361 H   0  0  0  0  0  0  0  0  0  0  0  0
    2.3674    2.8594   -6.2135 H   0  0  0  0  0  0  0  0  0  0  0  0
    0.9536    3.5743   -5.4006 H   0  0  0  0  0  0  0  0  0  0  0  0
    2.2016    4.6232   -6.1041 H   0  0  0  0  0  0  0  0  0  0  0  0
  1  2  2  0  0  0  0
  1  3  1  0  0  0  0
  1  7  1  0  0  0  0
  3  4  1  0  0  0  0
  3  5  1  0  0  0  0
  3  6  1  0  0  0  0
  7  8  1  0  0  0  0
  7 12  1  0  0  0  0
  8  9  1  0  0  0  0
  8 11  1  0  0  0  0
  8 13  1  0  0  0  0
  9 10  2  0  0  0  0
  9 17  1  0  0  0  0
 11 14  1  0  0  0  0
 11 15  1  0  0  0  0
 11 16  1  0  0  0  0
 17 18  1  0  0  0  0
 17 27  1  0  0  0  0
 18 19  1  0  0  0  0
 18 21  1  0  0  0  0
 18 28  1  0  0  0  0
 19 20  2  0  0  0  0
 19 35  1  0  0  0  0
 21 22  1  0  0  0  0
 21 29  1  0  0  0  0
 21 30  1  0  0  0  0
 22 23  1  0  0  0  0
 22 24  2  0  0  0  0
 23 25  2  0  0  0  0
 23 31  1  0  0  0  0
 24 26  1  0  0  0  0
 24 32  1  0  0  0  0
 25 26  1  0  0  0  0
 25 33  1  0  0  0  0
 26 34  1  0  0  0  0
 35 36  1  0  0  0  0
 35 40  1  0  0  0  0
 36 37  1  0  0  0  0
 36 39  1  0  0  0  0
 36 41  1  0  0  0  0
 37 38  2  0  0  0  0
 37 45  1  0  0  0  0
 39 42  1  0  0  0  0
 39 43  1  0  0  0  0
 39 44  1  0  0  0  0
 45 46  1  0  0  0  0
 45 47  1  0  0  0  0
 46 48  1  0  0  0  0
 46 49  1  0  0  0  0
 46 50  1  0  0  0  0
M  CHG  1  23   1
M  END
$$$$

  -OEChem-05262216443D

 50 50  0     1  0  0  0  0  0999 V2000
   -2.7440   -0.4165    3.5443 C   0  0  0  0  0  0  0  0  0  0  0  0
   -3.0203   -0.6577    2.3736 O   0  0  0  0  0  0  0  0  0  0  0  0
   -3.2123   -1.3590    4.6361 C   0  0  0  0  0  0  0  0  0  0  0  0
   -3.8360   -2.1511    4.2130 H   0  0  0  0  0  0  0  0  0  0  0  0
   -2.3505   -1.8139    5.1310 H   0  0  0  0  0  0  0  0  0  0  0  0
   -3.7993   -0.8092    5.3763 H   0  0  0  0  0  0  0  0  0  0  0  0
   -1.9788    0.6831    3.8799 N   0  0  0  0  0  0  0  0  0  0  0  0
   -1.3488    1.5638    2.8860 C   0  0  2  0  0  0  0  0  0  0  0  0
   -0.2267    0.8717    2.0808 C   0  0  0  0  0  0  0  0  0  0  0  0
    0.4414   -0.0301    2.5783 O   0  0  0  0  0  0  0  0  0  0  0  0
   -0.7909    2.7866    3.6167 C   0  0  0  0  0  0  0  0  0  0  0  0
   -1.6480    0.7318    4.8403 H   0  0  0  0  0  0  0  0  0  0  0  0
   -2.1148    1.9012    2.1800 H   0  0  0  0  0  0  0  0  0  0  0  0
   -0.0210    2.4871    4.3356 H   0  0  0  0  0  0  0  0  0  0  0  0
   -0.3432    3.4873    2.9040 H   0  0  0  0  0  0  0  0  0  0  0  0
   -1.5897    3.3067    4.1548 H   0  0  0  0  0  0  0  0  0  0  0  0
   -0.1117    1.1258    0.7255 N   0  0  0  0  0  0  0  0  0  0  0  0
    0.9970    0.6057   -0.0963 C   0  0  2  0  0  0  0  0  0  0  0  0
    2.0138    1.7182   -0.4396 C   0  0  0  0  0  0  0  0  0  0  0  0
    1.8279    2.8537   -0.0177 O   0  0  0  0  0  0  0  0  0  0  0  0
    0.3403   -0.0393   -1.3332 C   0  0  0  0  0  0  0  0  0  0  0  0
   -0.4964   -1.2023   -0.8510 C   0  0  0  0  0  0  0  0  0  0  0  0
   -0.0609   -2.4545   -0.4144 N   0  3  0  0  0  0  0  0  0  0  0  0
   -1.8453   -1.1320   -0.6157 C   0  0  0  0  0  0  0  0  0  0  0  0
   -1.0555   -3.1053    0.1406 C   0  0  0  0  0  0  0  0  0  0  0  0
   -2.1954   -2.3160    0.0124 N   0  0  0  0  0  0  0  0  0  0  0  0
   -0.5077    2.0161    0.4272 H   0  0  0  0  0  0  0  0  0  0  0  0
    1.5636   -0.1615    0.4404 H   0  0  0  0  0  0  0  0  0  0  0  0
    1.0894   -0.3924   -2.0486 H   0  0  0  0  0  0  0  0  0  0  0  0
   -0.2798    0.7002   -1.8536 H   0  0  0  0  0  0  0  0  0  0  0  0
    0.9242   -2.7258   -0.3927 H   0  0  0  0  0  0  0  0  0  0  0  0
   -2.4868   -0.2667   -0.7761 H   0  0  0  0  0  0  0  0  0  0  0  0
   -0.9961   -4.0680    0.6495 H   0  0  0  0  0  0  0  0  0  0  0  0
   -3.0768   -2.4570    0.5172 H   0  0  0  0  0  0  0  0  0  0  0  0
    2.9481    1.5183   -1.4405 N   0  0  0  0  0  0  0  0  0  0  0  0
    3.3492    2.6173   -2.3313 C   0  0  2  0  0  0  0  0  0  0  0  0
    2.3262    2.7970   -3.4758 C   0  0  0  0  0  0  0  0  0  0  0  0
    1.5376    1.8903   -3.7337 O   0  0  0  0  0  0  0  0  0  0  0  0
    4.7351    2.2864   -2.8902 C   0  0  0  0  0  0  0  0  0  0  0  0
    2.9161    0.6031   -1.8781 H   0  0  0  0  0  0  0  0  0  0  0  0
    3.4159    3.5595   -1.7760 H   0  0  0  0  0  0  0  0  0  0  0  0
    4.7043    1.3620   -3.4763 H   0  0  0  0  0  0  0  0  0  0  0  0
    5.0907    3.0945   -3.5371 H   0  0  0  0  0  0  0  0  0  0  0  0
    5.4525    2.1590   -2.0731 H   0  0  0  0  0  0  0  0  0  0  0  0
    2.2868    3.9643   -4.2137 N   0  0  0  0  0  0  0  0  0  0  0  0
    1.3393    4.1957   -5.2986 C   0  0  0  0  0  0  0  0  0  0  0  0
    2.9269    4.7104   -3.9542 H   0  0  0  0  0  0  0  0  0  0  0  0
    1.4870    3.4638   -6.0997 H   0  0  0  0  0  0  0  0  0  0  0  0
    0.3096    4.1152   -4.9346 H   0  0  0  0  0  0  0  0  0  0  0  0
    1.4791    5.1974   -5.7166 H   0  0  0  0  0  0  0  0  0  0  0  0
  1  2  2  0  0  0  0
  1  3  1  0  0  0  0
  1  7  1  0  0  0  0
  3  4  1  0  0  0  0
  3  5  1  0  0  0  0
  3  6  1  0  0  0  0
  7  8  1  0  0  0  0
  7 12  1  0  0  0  0
  8  9  1  0  0  0  0
  8 11  1  0  0  0  0
  8 13  1  0  0  0  0
  9 10  2  0  0  0  0
  9 17  1  0  0  0  0
 11 14  1  0  0  0  0
 11 15  1  0  0  0  0
 11 16  1  0  0  0  0
 17 18  1  0  0  0  0
 17 27  1  0  0  0  0
 18 19  1  0  0  0  0
 18 21  1  0  0  0  0
 18 28  1  0  0  0  0
 19 20  2  0  0  0  0
 19 35  1  0  0  0  0
 21 22  1  0  0  0  0
 21 29  1  0  0  0  0
 21 30  1  0  0  0  0
 22 23  1  0  0  0  0
 22 24  2  0  0  0  0
 23 25  2  0  0  0  0
 23 31  1  0  0  0  0
 24 26  1  0  0  0  0
 24 32  1  0  0  0  0
 25 26  1  0  0  0  0
 25 33  1  0  0  0  0
 26 34  1  0  0  0  0
 35 36  1  0  0  0  0
 35 40  1  0  0  0  0
 36 37  1  0  0  0  0
 36 39  1  0  0  0  0
 36 41  1  0  0  0  0
 37 38  2  0  0  0  0
 37 45  1  0  0  0  0
 39 42  1  0  0  0  0
 39 43  1  0  0  0  0
 39 44  1  0  0  0  0
 45 46  1  0  0  0  0
 45 47  1  0  0  0  0
 46 48  1  0  0  0  0
 46 49  1  0  0  0  0
 46 50  1  0  0  0  0
M  CHG  1  23   1
M  END
$$$$

  -OEChem-05262216443D

 50 50  0     1  0  0  0  0  0999 V2000
   -2.7019   -0.2869    3.5510 C   0  0  0  0  0  0  0  0  0  0  0  0
   -3.0064   -0.5969    2.4034 O   0  0  0  0  0  0  0  0  0  0  0  0
   -3.1949   -1.1273    4.7135 C   0  0  0  0  0  0  0  0  0  0  0  0
   -3.8574   -1.9202    4.3560 H   0  0  0  0  0  0  0  0  0  0  0  0
   -2.3472   -1.5824    5.2323 H   0  0  0  0  0  0  0  0  0  0  0  0
   -3.7479   -0.5006    5.4181 H   0  0  0  0  0  0  0  0  0  0  0  0
   -1.8895    0.8018    3.7995 N   0  0  0  0  0  0  0  0  0  0  0  0
   -1.2521    1.5985    2.7415 C   0  0  2  0  0  0  0  0  0  0  0  0
   -0.1738    0.8238    1.9510 C   0  0  0  0  0  0  0  0  0  0  0  0
    0.4413   -0.1043    2.4686 O   0  0  0  0  0  0  0  0  0  0  0  0
   -0.6316    2.8392    3.3869 C   0  0  0  0  0  0  0  0  0  0  0  0
   -1.5432    0.9050    4.7498 H   0  0  0  0  0  0  0  0  0  0  0  0
   -2.0238    1.9232    2.0355 H   0  0  0  0  0  0  0  0  0  0  0  0
    0.1487    2.5524    4.0997 H   0  0  0  0  0  0  0  0  0  0  0  0
   -0.1810    3.4816    2.6231 H   0  0  0  0  0  0  0  0  0  0  0  0
   -1.3946    3.4179    3.9170 H   0  0  0  0  0  0  0  0  0  0  0  0
   -0.0566    1.0301    0.5873 N   0  0  0  0  0  0  0  0  0  0  0  0
    1.0254    0.4349   -0.2202 C   0  0  2  0  0  0  0  0  0  0  0  0
    2.0860    1.4958   -0.6005 C   0  0  0  0  0  0  0  0  0  0  0  0
    2.1108    2.5623    0.0019 O   0  0  0  0  0  0  0  0  0  0  0  0
    0.3305   -0.2531   -1.4129 C   0  0  0  0  0  0  0  0  0  0  0  0
   -0.5310   -1.3605   -0.8499 C   0  0  0  0  0  0  0  0  0  0  0  0
   -0.1263   -2.5989   -0.3489 N   0  3  0  0  0  0  0  0  0  0  0  0
   -1.8699   -1.2279   -0.5858 C   0  0  0  0  0  0  0  0  0  0  0  0
   -1.1256   -3.1742    0.2770 C   0  0  0  0  0  0  0  0  0  0  0  0
   -2.2419   -2.3551    0.1283 N   0  0  0  0  0  0  0  0  0  0  0  0
   -0.4215    1.9235    0.2612 H   0  0  0  0  0  0  0  0  0  0  0  0
    1.5714   -0.3262    0.3463 H   0  0  0  0  0  0  0  0  0  0  0  0
    1.0568   -0.6731   -2.1142 H   0  0  0  0  0  0  0  0  0  0  0  0
   -0.2765    0.4753   -1.9637 H   0  0  0  0  0  0  0  0  0  0  0  0
    0.8510   -2.8969   -0.3229 H   0  0  0  0  0  0  0  0  0  0  0  0
   -2.4850   -0.3502   -0.7807 H   0  0  0  0  0  0  0  0  0  0  0  0
   -1.0825   -4.0993    0.8529 H   0  0  0  0  0  0  0  0  0  0  0  0
   -3.1034   -2.4199    0.6821 H   0  0  0  0  0  0  0  0  0  0  0  0
    2.8049    1.3808   -1.7781 N   0  0  0  0  0  0  0  0  0  0  0  0
    3.1524    2.5769   -2.5597 C   0  0  2  0  0  0  0  0  0  0  0  0
    1.9409    3.0551   -3.3922 C   0  0  0  0  0  0  0  0  0  0  0  0
    1.0046    2.2865   -3.6010 O   0  0  0  0  0  0  0  0  0  0  0  0
    4.3311    2.2226   -3.4689 C   0  0  0  0  0  0  0  0  0  0  0  0
    2.5849    0.5600   -2.3325 H   0  0  0  0  0  0  0  0  0  0  0  0
    3.4619    3.3933   -1.8976 H   0  0  0  0  0  0  0  0  0  0  0  0
    4.0566    1.4220   -4.1635 H   0  0  0  0  0  0  0  0  0  0  0  0
    4.6407    3.0958   -4.0518 H   0  0  0  0  0  0  0  0  0  0  0  0
    5.1845    1.8891   -2.8697 H   0  0  0  0  0  0  0  0  0  0  0  0
    1.8920    4.3406   -3.8955 N   0  0  0  0  0  0  0  0  0  0  0  0
    0.7492    4.8700   -4.6315 C   0  0  0  0  0  0  0  0  0  0  0  0
    2.6525    4.9708   -3.6543 H   0  0  0  0  0  0  0  0  0  0  0  0
    0.5156    4.2334   -5.4917 H   0  0  0  0  0  0  0  0  0  0  0  0
   -0.1319    4.9231   -3.9834 H   0  0  0  0  0  0  0  0  0  0  0  0
    0.9692    5.8768   -5.0001 H   0  0  0  0  0  0  0  0  0  0  0  0
  1  2  2  0  0  0  0
  1  3  1  0  0  0  0
  1  7  1  0  0  0  0
  3  4  1  0  0  0  0
  3  5  1  0  0  0  0
  3  6  1  0  0  0  0
  7  8  1  0  0  0  0
  7 12  1  0  0  0  0
  8  9  1  0  0  0  0
  8 11  1  0  0  0  0
  8 13  1  0  0  0  0
  9 10  2  0  0  0  0
  9 17  1  0  0  0  0
 11 14  1  0  0  0  0
 11 15  1  0  0  0  0
 11 16  1  0  0  0  0
 17 18  1  0  0  0  0
 17 27  1  0  0  0  0
 18 19  1  0  0  0  0
 18 21  1  0  0  0  0
 18 28  1  0  0  0  0
 19 20  2  0  0  0  0
 19 35  1  0  0  0  0
 21 22  1  0  0  0  0
 21 29  1  0  0  0  0
 21 30  1  0  0  0  0
 22 23  1  0  0  0  0
 22 24  2  0  0  0  0
 23 25  2  0  0  0  0
 23 31  1  0  0  0  0
 24 26  1  0  0  0  0
 24 32  1  0  0  0  0
 25 26  1  0  0  0  0
 25 33  1  0  0  0  0
 26 34  1  0  0  0  0
 35 36  1  0  0  0  0
 35 40  1  0  0  0  0
 36 37  1  0  0  0  0
 36 39  1  0  0  0  0
 36 41  1  0  0  0  0
 37 38  2  0  0  0  0
 37 45  1  0  0  0  0
 39 42  1  0  0  0  0
 39 43  1  0  0  0  0
 39 44  1  0  0  0  0
 45 46  1  0  0  0  0
 45 47  1  0  0  0  0
 46 48  1  0  0  0  0
 46 49  1  0  0  0  0
 46 50  1  0  0  0  0
M  CHG  1  23   1
M  END
$$$$

  -OEChem-05262216443D

 50 50  0     1  0  0  0  0  0999 V2000
   -2.6142   -0.1799    3.5789 C   0  0  0  0  0  0  0  0  0  0  0  0
   -2.9775   -0.5299    2.4601 O   0  0  0  0  0  0  0  0  0  0  0  0
   -3.0682   -0.9628    4.7958 C   0  0  0  0  0  0  0  0  0  0  0  0
   -3.7744   -1.7447    4.5042 H   0  0  0  0  0  0  0  0  0  0  0  0
   -2.2074   -1.4279    5.2823 H   0  0  0  0  0  0  0  0  0  0  0  0
   -3.5607   -0.2947    5.5068 H   0  0  0  0  0  0  0  0  0  0  0  0
   -1.7678    0.8988    3.7456 N   0  0  0  0  0  0  0  0  0  0  0  0
   -1.1548    1.6293    2.6268 C   0  0  2  0  0  0  0  0  0  0  0  0
   -0.1123    0.7996    1.8438 C   0  0  0  0  0  0  0  0  0  0  0  0
    0.4795   -0.1341    2.3781 O   0  0  0  0  0  0  0  0  0  0  0  0
   -0.5020    2.8957    3.1844 C   0  0  0  0  0  0  0  0  0  0  0  0
   -1.3723    1.0276    4.6735 H   0  0  0  0  0  0  0  0  0  0  0  0
   -1.9444    1.9252    1.9281 H   0  0  0  0  0  0  0  0  0  0  0  0
    0.2960    2.6388    3.8892 H   0  0  0  0  0  0  0  0  0  0  0  0
   -0.0671    3.4900    2.3739 H   0  0  0  0  0  0  0  0  0  0  0  0
   -1.2436    3.5110    3.7039 H   0  0  0  0  0  0  0  0  0  0  0  0
   -0.0213    0.9561    0.4713 N   0  0  0  0  0  0  0  0  0  0  0  0
    1.0118    0.2931   -0.3467 C   0  0  2  0  0  0  0  0  0  0  0  0
    2.0971    1.3048   -0.7835 C   0  0  0  0  0  0  0  0  0  0  0  0
    2.3715    2.2432   -0.0467 O   0  0  0  0  0  0  0  0  0  0  0  0
    0.2615   -0.4244   -1.4869 C   0  0  0  0  0  0  0  0  0  0  0  0
   -0.6103   -1.4799   -0.8456 C   0  0  0  0  0  0  0  0  0  0  0  0
   -0.2199   -2.7052   -0.3020 N   0  3  0  0  0  0  0  0  0  0  0  0
   -1.9321   -1.2930   -0.5328 C   0  0  0  0  0  0  0  0  0  0  0  0
   -1.2076   -3.2178    0.3927 C   0  0  0  0  0  0  0  0  0  0  0  0
   -2.3049   -2.3723    0.2512 N   0  0  0  0  0  0  0  0  0  0  0  0
   -0.3867    1.8377    0.1151 H   0  0  0  0  0  0  0  0  0  0  0  0
    1.5503   -0.4626    0.2345 H   0  0  0  0  0  0  0  0  0  0  0  0
    0.9564   -0.8982   -2.1865 H   0  0  0  0  0  0  0  0  0  0  0  0
   -0.3447    0.2960   -2.0499 H   0  0  0  0  0  0  0  0  0  0  0  0
    0.7500   -3.0287   -0.2964 H   0  0  0  0  0  0  0  0  0  0  0  0
   -2.5279   -0.4048   -0.7394 H   0  0  0  0  0  0  0  0  0  0  0  0
   -1.1656   -4.1142    1.0126 H   0  0  0  0  0  0  0  0  0  0  0  0
   -3.1365   -2.3767    0.8527 H   0  0  0  0  0  0  0  0  0  0  0  0
    2.5602    1.3256   -2.0885 N   0  0  0  0  0  0  0  0  0  0  0  0
    2.8723    2.6084   -2.7369 C   0  0  2  0  0  0  0  0  0  0  0  0
    1.5769    3.3317   -3.1730 C   0  0  0  0  0  0  0  0  0  0  0  0
    0.5181    2.7086   -3.2233 O   0  0  0  0  0  0  0  0  0  0  0  0
    3.7664    2.3239   -3.9458 C   0  0  0  0  0  0  0  0  0  0  0  0
    2.1294    0.6391   -2.6984 H   0  0  0  0  0  0  0  0  0  0  0  0
    3.4199    3.2626   -2.0492 H   0  0  0  0  0  0  0  0  0  0  0  0
    3.2442    1.6932   -4.6726 H   0  0  0  0  0  0  0  0  0  0  0  0
    4.0509    3.2584   -4.4397 H   0  0  0  0  0  0  0  0  0  0  0  0
    4.6801    1.8111   -3.6292 H   0  0  0  0  0  0  0  0  0  0  0  0
    1.5941    4.6719   -3.5086 N   0  0  0  0  0  0  0  0  0  0  0  0
    0.4013    5.4160   -3.8974 C   0  0  0  0  0  0  0  0  0  0  0  0
    2.4746    5.1718   -3.4163 H   0  0  0  0  0  0  0  0  0  0  0  0
   -0.0700    4.9582   -4.7736 H   0  0  0  0  0  0  0  0  0  0  0  0
   -0.3237    5.4338   -3.0768 H   0  0  0  0  0  0  0  0  0  0  0  0
    0.6637    6.4483   -4.1488 H   0  0  0  0  0  0  0  0  0  0  0  0
  1  2  2  0  0  0  0
  1  3  1  0  0  0  0
  1  7  1  0  0  0  0
  3  4  1  0  0  0  0
  3  5  1  0  0  0  0
  3  6  1  0  0  0  0
  7  8  1  0  0  0  0
  7 12  1  0  0  0  0
  8  9  1  0  0  0  0
  8 11  1  0  0  0  0
  8 13  1  0  0  0  0
  9 10  2  0  0  0  0
  9 17  1  0  0  0  0
 11 14  1  0  0  0  0
 11 15  1  0  0  0  0
 11 16  1  0  0  0  0
 17 18  1  0  0  0  0
 17 27  1  0  0  0  0
 18 19  1  0  0  0  0
 18 21  1  0  0  0  0
 18 28  1  0  0  0  0
 19 20  2  0  0  0  0
 19 35  1  0  0  0  0
 21 22  1  0  0  0  0
 21 29  1  0  0  0  0
 21 30  1  0  0  0  0
 22 23  1  0  0  0  0
 22 24  2  0  0  0  0
 23 25  2  0  0  0  0
 23 31  1  0  0  0  0
 24 26  1  0  0  0  0
 24 32  1  0  0  0  0
 25 26  1  0  0  0  0
 25 33  1  0  0  0  0
 26 34  1  0  0  0  0
 35 36  1  0  0  0  0
 35 40  1  0  0  0  0
 36 37  1  0  0  0  0
 36 39  1  0  0  0  0
 36 41  1  0  0  0  0
 37 38  2  0  0  0  0
 37 45  1  0  0  0  0
 39 42  1  0  0  0  0
 39 43  1  0  0  0  0
 39 44  1  0  0  0  0
 45 46  1  0  0  0  0
 45 47  1  0  0  0  0
 46 48  1  0  0  0  0
 46 49  1  0  0  0  0
 46 50  1  0  0  0  0
M  CHG  1  23   1
M  END
$$$$

  -OEChem-05262216443D

 50 50  0     1  0  0  0  0  0999 V2000
   -2.5341   -0.0137    3.5413 C   0  0  0  0  0  0  0  0  0  0  0  0
   -2.9246   -0.4033    2.4451 O   0  0  0  0  0  0  0  0  0  0  0  0
   -3.0045   -0.7188    4.7991 C   0  0  0  0  0  0  0  0  0  0  0  0
   -3.7386   -1.4900    4.5507 H   0  0  0  0  0  0  0  0  0  0  0  0
   -2.1563   -1.1879    5.3040 H   0  0  0  0  0  0  0  0  0  0  0  0
   -3.4697    0.0009    5.4776 H   0  0  0  0  0  0  0  0  0  0  0  0
   -1.6473    1.0401    3.6462 N   0  0  0  0  0  0  0  0  0  0  0  0
   -1.0295    1.7008    2.4867 C   0  0  2  0  0  0  0  0  0  0  0  0
   -0.0410    0.7990    1.7139 C   0  0  0  0  0  0  0  0  0  0  0  0
    0.5231   -0.1379    2.2727 O   0  0  0  0  0  0  0  0  0  0  0  0
   -0.3063    2.9554    2.9804 C   0  0  0  0  0  0  0  0  0  0  0  0
   -1.2350    1.1984    4.5621 H   0  0  0  0  0  0  0  0  0  0  0  0
   -1.8215    2.0064    1.7948 H   0  0  0  0  0  0  0  0  0  0  0  0
    0.4955    2.6884    3.6770 H   0  0  0  0  0  0  0  0  0  0  0  0
    0.1367    3.4965    2.1379 H   0  0  0  0  0  0  0  0  0  0  0  0
   -1.0058    3.6250    3.4906 H   0  0  0  0  0  0  0  0  0  0  0  0
    0.0280    0.8989    0.3347 N   0  0  0  0  0  0  0  0  0  0  0  0
    1.0227    0.1717   -0.4744 C   0  0  2  0  0  0  0  0  0  0  0  0
    2.1207    1.1406   -0.9622 C   0  0  0  0  0  0  0  0  0  0  0  0
    2.6071    1.9391   -0.1730 O   0  0  0  0  0  0  0  0  0  0  0  0
    0.2370   -0.5796   -1.5654 C   0  0  0  0  0  0  0  0  0  0  0  0
   -0.6423   -1.5812   -0.8529 C   0  0  0  0  0  0  0  0  0  0  0  0
   -0.2636   -2.7851   -0.2565 N   0  3  0  0  0  0  0  0  0  0  0  0
   -1.9498   -1.3453   -0.5138 C   0  0  0  0  0  0  0  0  0  0  0  0
   -1.2403   -3.2324    0.4965 C   0  0  0  0  0  0  0  0  0  0  0  0
   -2.3232   -2.3712    0.3383 N   0  0  0  0  0  0  0  0  0  0  0  0
   -0.3327    1.7681   -0.0593 H   0  0  0  0  0  0  0  0  0  0  0  0
    1.5554   -0.5703    0.1291 H   0  0  0  0  0  0  0  0  0  0  0  0
    0.9113   -1.0985   -2.2541 H   0  0  0  0  0  0  0  0  0  0  0  0
   -0.3688    0.1266   -2.1460 H   0  0  0  0  0  0  0  0  0  0  0  0
    0.7007   -3.1254   -0.2538 H   0  0  0  0  0  0  0  0  0  0  0  0
   -2.5288   -0.4524   -0.7467 H   0  0  0  0  0  0  0  0  0  0  0  0
   -1.1976   -4.0900    1.1688 H   0  0  0  0  0  0  0  0  0  0  0  0
   -3.1330   -2.3179    0.9668 H   0  0  0  0  0  0  0  0  0  0  0  0
    2.3386    1.3222   -2.3175 N   0  0  0  0  0  0  0  0  0  0  0  0
    2.5621    2.6836   -2.8262 C   0  0  2  0  0  0  0  0  0  0  0  0
    1.2497    3.5056   -2.8074 C   0  0  0  0  0  0  0  0  0  0  0  0
    0.1727    2.9440   -2.6079 O   0  0  0  0  0  0  0  0  0  0  0  0
    3.1148    2.5700   -4.2491 C   0  0  0  0  0  0  0  0  0  0  0  0
    1.7595    0.7404   -2.9133 H   0  0  0  0  0  0  0  0  0  0  0  0
    3.3032    3.2032   -2.2080 H   0  0  0  0  0  0  0  0  0  0  0  0
    2.3902    2.0809   -4.9083 H   0  0  0  0  0  0  0  0  0  0  0  0
    3.3373    3.5621   -4.6545 H   0  0  0  0  0  0  0  0  0  0  0  0
    4.0397    1.9842   -4.2500 H   0  0  0  0  0  0  0  0  0  0  0  0
    1.2720    4.8720   -3.0115 N   0  0  0  0  0  0  0  0  0  0  0  0
    0.0775    5.7087   -2.9828 C   0  0  0  0  0  0  0  0  0  0  0  0
    2.1785    5.3180   -3.1257 H   0  0  0  0  0  0  0  0  0  0  0  0
   -0.6607    5.3505   -3.7084 H   0  0  0  0  0  0  0  0  0  0  0  0
   -0.3742    5.6979   -1.9853 H   0  0  0  0  0  0  0  0  0  0  0  0
    0.3329    6.7427   -3.2359 H   0  0  0  0  0  0  0  0  0  0  0  0
  1  2  2  0  0  0  0
  1  3  1  0  0  0  0
  1  7  1  0  0  0  0
  3  4  1  0  0  0  0
  3  5  1  0  0  0  0
  3  6  1  0  0  0  0
  7  8  1  0  0  0  0
  7 12  1  0  0  0  0
  8  9  1  0  0  0  0
  8 11  1  0  0  0  0
  8 13  1  0  0  0  0
  9 10  2  0  0  0  0
  9 17  1  0  0  0  0
 11 14  1  0  0  0  0
 11 15  1  0  0  0  0
 11 16  1  0  0  0  0
 17 18  1  0  0  0  0
 17 27  1  0  0  0  0
 18 19  1  0  0  0  0
 18 21  1  0  0  0  0
 18 28  1  0  0  0  0
 19 20  2  0  0  0  0
 19 35  1  0  0  0  0
 21 22  1  0  0  0  0
 21 29  1  0  0  0  0
 21 30  1  0  0  0  0
 22 23  1  0  0  0  0
 22 24  2  0  0  0  0
 23 25  2  0  0  0  0
 23 31  1  0  0  0  0
 24 26  1  0  0  0  0
 24 32  1  0  0  0  0
 25 26  1  0  0  0  0
 25 33  1  0  0  0  0
 26 34  1  0  0  0  0
 35 36  1  0  0  0  0
 35 40  1  0  0  0  0
 36 37  1  0  0  0  0
 36 39  1  0  0  0  0
 36 41  1  0  0  0  0
 37 38  2  0  0  0  0
 37 45  1  0  0  0  0
 39 42  1  0  0  0  0
 39 43  1  0  0  0  0
 39 44  1  0  0  0  0
 45 46  1  0  0  0  0
 45 47  1  0  0  0  0
 46 48  1  0  0  0  0
 46 49  1  0  0  0  0
 46 50  1  0  0  0  0
M  CHG  1  23   1
M  END
$$$$

  -OEChem-05262216443D

 50 50  0     1  0  0  0  0  0999 V2000
   -2.3973    0.1556    3.5238 C   0  0  0  0  0  0  0  0  0  0  0  0
   -2.8474   -0.3016    2.4774 O   0  0  0  0  0  0  0  0  0  0  0  0
   -2.7953   -0.4665    4.8485 C   0  0  0  0  0  0  0  0  0  0  0  0
   -3.5425   -1.2493    4.6930 H   0  0  0  0  0  0  0  0  0  0  0  0
   -1.9193   -0.9055    5.3328 H   0  0  0  0  0  0  0  0  0  0  0  0
   -3.2203    0.2968    5.5054 H   0  0  0  0  0  0  0  0  0  0  0  0
   -1.5063    1.2109    3.5158 N   0  0  0  0  0  0  0  0  0  0  0  0
   -0.9355    1.7831    2.2876 C   0  0  2  0  0  0  0  0  0  0  0  0
    0.0319    0.8293    1.5517 C   0  0  0  0  0  0  0  0  0  0  0  0
    0.5832   -0.0919    2.1479 O   0  0  0  0  0  0  0  0  0  0  0  0
   -0.2078    3.0766    2.6582 C   0  0  0  0  0  0  0  0  0  0  0  0
   -1.0431    1.4183    4.3967 H   0  0  0  0  0  0  0  0  0  0  0  0
   -1.7531    2.0295    1.6017 H   0  0  0  0  0  0  0  0  0  0  0  0
    0.6258    2.8674    3.3366 H   0  0  0  0  0  0  0  0  0  0  0  0
    0.1912    3.5603    1.7605 H   0  0  0  0  0  0  0  0  0  0  0  0
   -0.8934    3.7738    3.1501 H   0  0  0  0  0  0  0  0  0  0  0  0
    0.0712    0.8528    0.1691 N   0  0  0  0  0  0  0  0  0  0  0  0
    1.0202    0.0594   -0.6294 C   0  0  2  0  0  0  0  0  0  0  0  0
    2.1139    0.9946   -1.1797 C   0  0  0  0  0  0  0  0  0  0  0  0
    2.7994    1.6421   -0.4011 O   0  0  0  0  0  0  0  0  0  0  0  0
    0.1894   -0.7288   -1.6579 C   0  0  0  0  0  0  0  0  0  0  0  0
   -0.6904   -1.6702   -0.8673 C   0  0  0  0  0  0  0  0  0  0  0  0
   -0.3204   -2.8487   -0.2172 N   0  3  0  0  0  0  0  0  0  0  0  0
   -1.9760   -1.3767   -0.4902 C   0  0  0  0  0  0  0  0  0  0  0  0
   -1.2775   -3.2230    0.5983 C   0  0  0  0  0  0  0  0  0  0  0  0
   -2.3430   -2.3416    0.4330 N   0  0  0  0  0  0  0  0  0  0  0  0
   -0.2686    1.7168   -0.2642 H   0  0  0  0  0  0  0  0  0  0  0  0
    1.5564   -0.6620   -0.0040 H   0  0  0  0  0  0  0  0  0  0  0  0
    0.8356   -1.2939   -2.3379 H   0  0  0  0  0  0  0  0  0  0  0  0
   -0.4221   -0.0428   -2.2553 H   0  0  0  0  0  0  0  0  0  0  0  0
    0.6348   -3.2134   -0.2285 H   0  0  0  0  0  0  0  0  0  0  0  0
   -2.5371   -0.4785   -0.7454 H   0  0  0  0  0  0  0  0  0  0  0  0
   -1.2297   -4.0399    1.3194 H   0  0  0  0  0  0  0  0  0  0  0  0
   -3.1180   -2.2229    1.0964 H   0  0  0  0  0  0  0  0  0  0  0  0
    2.0902    1.3579   -2.5153 N   0  0  0  0  0  0  0  0  0  0  0  0
    2.2302    2.7856   -2.8410 C   0  0  2  0  0  0  0  0  0  0  0  0
    1.0030    3.6037   -2.3583 C   0  0  0  0  0  0  0  0  0  0  0  0
   -0.0121    3.0325   -1.9553 O   0  0  0  0  0  0  0  0  0  0  0  0
    2.4015    2.9027   -4.3577 C   0  0  0  0  0  0  0  0  0  0  0  0
    1.3890    0.8706   -3.0622 H   0  0  0  0  0  0  0  0  0  0  0  0
    3.1256    3.1939   -2.3582 H   0  0  0  0  0  0  0  0  0  0  0  0
    1.5141    2.5266   -4.8770 H   0  0  0  0  0  0  0  0  0  0  0  0
    2.5563    3.9466   -4.6482 H   0  0  0  0  0  0  0  0  0  0  0  0
    3.2707    2.3237   -4.6863 H   0  0  0  0  0  0  0  0  0  0  0  0
    1.0348    4.9849   -2.3669 N   0  0  0  0  0  0  0  0  0  0  0  0
   -0.0703    5.8191   -1.9081 C   0  0  0  0  0  0  0  0  0  0  0  0
    1.8984    5.4355   -2.6588 H   0  0  0  0  0  0  0  0  0  0  0  0
   -0.9843    5.5870   -2.4652 H   0  0  0  0  0  0  0  0  0  0  0  0
   -0.2562    5.6573   -0.8411 H   0  0  0  0  0  0  0  0  0  0  0  0
    0.1652    6.8770   -2.0609 H   0  0  0  0  0  0  0  0  0  0  0  0
  1  2  2  0  0  0  0
  1  3  1  0  0  0  0
  1  7  1  0  0  0  0
  3  4  1  0  0  0  0
  3  5  1  0  0  0  0
  3  6  1  0  0  0  0
  7  8  1  0  0  0  0
  7 12  1  0  0  0  0
  8  9  1  0  0  0  0
  8 11  1  0  0  0  0
  8 13  1  0  0  0  0
  9 10  2  0  0  0  0
  9 17  1  0  0  0  0
 11 14  1  0  0  0  0
 11 15  1  0  0  0  0
 11 16  1  0  0  0  0
 17 18  1  0  0  0  0
 17 27  1  0  0  0  0
 18 19  1  0  0  0  0
 18 21  1  0  0  0  0
 18 28  1  0  0  0  0
 19 20  2  0  0  0  0
 19 35  1  0  0  0  0
 21 22  1  0  0  0  0
 21 29  1  0  0  0  0
 21 30  1  0  0  0  0
 22 23  1  0  0  0  0
 22 24  2  0  0  0  0
 23 25  2  0  0  0  0
 23 31  1  0  0  0  0
 24 26  1  0  0  0  0
 24 32  1  0  0  0  0
 25 26  1  0  0  0  0
 25 33  1  0  0  0  0
 26 34  1  0  0  0  0
 35 36  1  0  0  0  0
 35 40  1  0  0  0  0
 36 37  1  0  0  0  0
 36 39  1  0  0  0  0
 36 41  1  0  0  0  0
 37 38  2  0  0  0  0
 37 45  1  0  0  0  0
 39 42  1  0  0  0  0
 39 43  1  0  0  0  0
 39 44  1  0  0  0  0
 45 46  1  0  0  0  0
 45 47  1  0  0  0  0
 46 48  1  0  0  0  0
 46 49  1  0  0  0  0
 46 50  1  0  0  0  0
M  CHG  1  23   1
M  END
$$$$

  -OEChem-05262216443D

 50 50  0     1  0  0  0  0  0999 V2000
   -2.2671    0.2194    3.5668 C   0  0  0  0  0  0  0  0  0  0  0  0
   -2.7577   -0.2929    2.5649 O   0  0  0  0  0  0  0  0  0  0  0  0
   -2.5868   -0.3530    4.9344 C   0  0  0  0  0  0  0  0  0  0  0  0
   -3.3085   -1.1696    4.8464 H   0  0  0  0  0  0  0  0  0  0  0  0
   -1.6759   -0.7361    5.4010 H   0  0  0  0  0  0  0  0  0  0  0  0
   -3.0147    0.4238    5.5731 H   0  0  0  0  0  0  0  0  0  0  0  0
   -1.4000    1.2904    3.4680 N   0  0  0  0  0  0  0  0  0  0  0  0
   -0.9082    1.8186    2.1870 C   0  0  2  0  0  0  0  0  0  0  0  0
    0.0253    0.8451    1.4338 C   0  0  0  0  0  0  0  0  0  0  0  0
    0.6171   -0.0510    2.0292 O   0  0  0  0  0  0  0  0  0  0  0  0
   -0.1755    3.1338    2.4564 C   0  0  0  0  0  0  0  0  0  0  0  0
   -0.8966    1.5462    4.3135 H   0  0  0  0  0  0  0  0  0  0  0  0
   -1.7678    2.0286    1.5414 H   0  0  0  0  0  0  0  0  0  0  0  0
    0.6976    2.9642    3.0953 H   0  0  0  0  0  0  0  0  0  0  0  0
    0.1663    3.5777    1.5156 H   0  0  0  0  0  0  0  0  0  0  0  0
   -0.8410    3.8470    2.9529 H   0  0  0  0  0  0  0  0  0  0  0  0
   -0.0133    0.8236    0.0515 N   0  0  0  0  0  0  0  0  0  0  0  0
    0.9094    0.0216   -0.7701 C   0  0  2  0  0  0  0  0  0  0  0  0
    1.9474    0.9608   -1.4076 C   0  0  0  0  0  0  0  0  0  0  0  0
    2.8289    1.4420   -0.7118 O   0  0  0  0  0  0  0  0  0  0  0  0
    0.0542   -0.8333   -1.7212 C   0  0  0  0  0  0  0  0  0  0  0  0
   -0.7480   -1.7646   -0.8404 C   0  0  0  0  0  0  0  0  0  0  0  0
   -0.2996   -2.8991   -0.1622 N   0  3  0  0  0  0  0  0  0  0  0  0
   -2.0153   -1.4907   -0.3924 C   0  0  0  0  0  0  0  0  0  0  0  0
   -1.1869   -3.2583    0.7348 C   0  0  0  0  0  0  0  0  0  0  0  0
   -2.2887   -2.4172    0.6000 N   0  0  0  0  0  0  0  0  0  0  0  0
   -0.3660    1.6874   -0.3762 H   0  0  0  0  0  0  0  0  0  0  0  0
    1.4979   -0.6613   -0.1478 H   0  0  0  0  0  0  0  0  0  0  0  0
    0.6837   -1.4043   -2.4121 H   0  0  0  0  0  0  0  0  0  0  0  0
   -0.6124   -0.1960   -2.3121 H   0  0  0  0  0  0  0  0  0  0  0  0
    0.6645   -3.2349   -0.2188 H   0  0  0  0  0  0  0  0  0  0  0  0
   -2.6203   -0.6219   -0.6483 H   0  0  0  0  0  0  0  0  0  0  0  0
   -1.0637   -4.0345    1.4909 H   0  0  0  0  0  0  0  0  0  0  0  0
   -3.0182   -2.2833    1.3107 H   0  0  0  0  0  0  0  0  0  0  0  0
    1.6765    1.5224   -2.6433 N   0  0  0  0  0  0  0  0  0  0  0  0
    1.8947    2.9668   -2.8159 C   0  0  2  0  0  0  0  0  0  0  0  0
    0.8401    3.7944   -2.0366 C   0  0  0  0  0  0  0  0  0  0  0  0
   -0.1680    3.2505   -1.5819 O   0  0  0  0  0  0  0  0  0  0  0  0
    1.8307    3.2752   -4.3137 C   0  0  0  0  0  0  0  0  0  0  0  0
    0.8291    1.1722   -3.0774 H   0  0  0  0  0  0  0  0  0  0  0  0
    2.8894    3.2449   -2.4485 H   0  0  0  0  0  0  0  0  0  0  0  0
    0.8412    3.0354   -4.7157 H   0  0  0  0  0  0  0  0  0  0  0  0
    2.0314    4.3356   -4.4966 H   0  0  0  0  0  0  0  0  0  0  0  0
    2.5795    2.6869   -4.8536 H   0  0  0  0  0  0  0  0  0  0  0  0
    1.0234    5.1480   -1.8296 N   0  0  0  0  0  0  0  0  0  0  0  0
    0.0896    5.9846   -1.0839 C   0  0  0  0  0  0  0  0  0  0  0  0
    1.8896    5.5627   -2.1643 H   0  0  0  0  0  0  0  0  0  0  0  0
   -0.9162    5.9155   -1.5119 H   0  0  0  0  0  0  0  0  0  0  0  0
    0.0491    5.6739   -0.0348 H   0  0  0  0  0  0  0  0  0  0  0  0
    0.4068    7.0314   -1.1218 H   0  0  0  0  0  0  0  0  0  0  0  0
  1  2  2  0  0  0  0
  1  3  1  0  0  0  0
  1  7  1  0  0  0  0
  3  4  1  0  0  0  0
  3  5  1  0  0  0  0
  3  6  1  0  0  0  0
  7  8  1  0  0  0  0
  7 12  1  0  0  0  0
  8  9  1  0  0  0  0
  8 11  1  0  0  0  0
  8 13  1  0  0  0  0
  9 10  2  0  0  0  0
  9 17  1  0  0  0  0
 11 14  1  0  0  0  0
 11 15  1  0  0  0  0
 11 16  1  0  0  0  0
 17 18  1  0  0  0  0
 17 27  1  0  0  0  0
 18 19  1  0  0  0  0
 18 21  1  0  0  0  0
 18 28  1  0  0  0  0
 19 20  2  0  0  0  0
 19 35  1  0  0  0  0
 21 22  1  0  0  0  0
 21 29  1  0  0  0  0
 21 30  1  0  0  0  0
 22 23  1  0  0  0  0
 22 24  2  0  0  0  0
 23 25  2  0  0  0  0
 23 31  1  0  0  0  0
 24 26  1  0  0  0  0
 24 32  1  0  0  0  0
 25 26  1  0  0  0  0
 25 33  1  0  0  0  0
 26 34  1  0  0  0  0
 35 36  1  0  0  0  0
 35 40  1  0  0  0  0
 36 37  1  0  0  0  0
 36 39  1  0  0  0  0
 36 41  1  0  0  0  0
 37 38  2  0  0  0  0
 37 45  1  0  0  0  0
 39 42  1  0  0  0  0
 39 43  1  0  0  0  0
 39 44  1  0  0  0  0
 45 46  1  0  0  0  0
 45 47  1  0  0  0  0
 46 48  1  0  0  0  0
 46 49  1  0  0  0  0
 46 50  1  0  0  0  0
M  CHG  1  23   1
M  END
$$$$

  -OEChem-05262216443D

 50 50  0     1  0  0  0  0  0999 V2000
   -2.1617    0.1958    3.6264 C   0  0  0  0  0  0  0  0  0  0  0  0
   -2.6832   -0.3168    2.6409 O   0  0  0  0  0  0  0  0  0  0  0  0
   -2.4259   -0.3836    5.0029 C   0  0  0  0  0  0  0  0  0  0  0  0
   -3.1485   -1.2017    4.9393 H   0  0  0  0  0  0  0  0  0  0  0  0
   -1.4960   -0.7654    5.4318 H   0  0  0  0  0  0  0  0  0  0  0  0
   -2.8303    0.3894    5.6615 H   0  0  0  0  0  0  0  0  0  0  0  0
   -1.3092    1.2750    3.5012 N   0  0  0  0  0  0  0  0  0  0  0  0
   -0.8790    1.8295    2.2090 C   0  0  2  0  0  0  0  0  0  0  0  0
    0.0216    0.8748    1.3928 C   0  0  0  0  0  0  0  0  0  0  0  0
    0.6783    0.0013    1.9522 O   0  0  0  0  0  0  0  0  0  0  0  0
   -0.1391    3.1390    2.4847 C   0  0  0  0  0  0  0  0  0  0  0  0
   -0.7864    1.5397    4.3319 H   0  0  0  0  0  0  0  0  0  0  0  0
   -1.7668    2.0527    1.6076 H   0  0  0  0  0  0  0  0  0  0  0  0
    0.7587    2.9551    3.0841 H   0  0  0  0  0  0  0  0  0  0  0  0
    0.1640    3.6099    1.5449 H   0  0  0  0  0  0  0  0  0  0  0  0
   -0.7863    3.8361    3.0263 H   0  0  0  0  0  0  0  0  0  0  0  0
   -0.1161    0.8363    0.0157 N   0  0  0  0  0  0  0  0  0  0  0  0
    0.7769    0.0491   -0.8566 C   0  0  2  0  0  0  0  0  0  0  0  0
    1.7503    0.9861   -1.5888 C   0  0  0  0  0  0  0  0  0  0  0  0
    2.8277    1.2608   -1.0847 O   0  0  0  0  0  0  0  0  0  0  0  0
   -0.0978   -0.8519   -1.7431 C   0  0  0  0  0  0  0  0  0  0  0  0
   -0.8094   -1.7995   -0.8052 C   0  0  0  0  0  0  0  0  0  0  0  0
   -0.2706   -2.9043   -0.1436 N   0  3  0  0  0  0  0  0  0  0  0  0
   -2.0633   -1.5833   -0.2931 C   0  0  0  0  0  0  0  0  0  0  0  0
   -1.0934   -3.3030    0.7970 C   0  0  0  0  0  0  0  0  0  0  0  0
   -2.2409   -2.5184    0.7133 N   0  0  0  0  0  0  0  0  0  0  0  0
   -0.4906    1.7060   -0.3796 H   0  0  0  0  0  0  0  0  0  0  0  0
    1.4225   -0.6061   -0.2607 H   0  0  0  0  0  0  0  0  0  0  0  0
    0.5141   -1.4081   -2.4612 H   0  0  0  0  0  0  0  0  0  0  0  0
   -0.8208   -0.2521   -2.3053 H   0  0  0  0  0  0  0  0  0  0  0  0
    0.7050   -3.1925   -0.2492 H   0  0  0  0  0  0  0  0  0  0  0  0
   -2.7254   -0.7497   -0.5229 H   0  0  0  0  0  0  0  0  0  0  0  0
   -0.8946   -4.0699    1.5465 H   0  0  0  0  0  0  0  0  0  0  0  0
   -2.9526   -2.4315    1.4478 H   0  0  0  0  0  0  0  0  0  0  0  0
    1.2676    1.7436   -2.6409 N   0  0  0  0  0  0  0  0  0  0  0  0
    1.6260    3.1662   -2.7266 C   0  0  2  0  0  0  0  0  0  0  0  0
    0.7828    4.0068   -1.7367 C   0  0  0  0  0  0  0  0  0  0  0  0
   -0.2073    3.5110   -1.1957 O   0  0  0  0  0  0  0  0  0  0  0  0
    1.3892    3.6223   -4.1685 C   0  0  0  0  0  0  0  0  0  0  0  0
    0.3011    1.5433   -2.8781 H   0  0  0  0  0  0  0  0  0  0  0  0
    2.6860    3.3103   -2.4874 H   0  0  0  0  0  0  0  0  0  0  0  0
    0.3326    3.5217   -4.4372 H   0  0  0  0  0  0  0  0  0  0  0  0
    1.6798    4.6702   -4.2925 H   0  0  0  0  0  0  0  0  0  0  0  0
    1.9844    3.0170   -4.8598 H   0  0  0  0  0  0  0  0  0  0  0  0
    1.1296    5.3133   -1.4507 N   0  0  0  0  0  0  0  0  0  0  0  0
    0.3907    6.1648   -0.5247 C   0  0  0  0  0  0  0  0  0  0  0  0
    1.9811    5.6768   -1.8718 H   0  0  0  0  0  0  0  0  0  0  0  0
   -0.6804    6.1500   -0.7541 H   0  0  0  0  0  0  0  0  0  0  0  0
    0.5360    5.8273    0.5064 H   0  0  0  0  0  0  0  0  0  0  0  0
    0.7405    7.1992   -0.6020 H   0  0  0  0  0  0  0  0  0  0  0  0
  1  2  2  0  0  0  0
  1  3  1  0  0  0  0
  1  7  1  0  0  0  0
  3  4  1  0  0  0  0
  3  5  1  0  0  0  0
  3  6  1  0  0  0  0
  7  8  1  0  0  0  0
  7 12  1  0  0  0  0
  8  9  1  0  0  0  0
  8 11  1  0  0  0  0
  8 13  1  0  0  0  0
  9 10  2  0  0  0  0
  9 17  1  0  0  0  0
 11 14  1  0  0  0  0
 11 15  1  0  0  0  0
 11 16  1  0  0  0  0
 17 18  1  0  0  0  0
 17 27  1  0  0  0  0
 18 19  1  0  0  0  0
 18 21  1  0  0  0  0
 18 28  1  0  0  0  0
 19 20  2  0  0  0  0
 19 35  1  0  0  0  0
 21 22  1  0  0  0  0
 21 29  1  0  0  0  0
 21 30  1  0  0  0  0
 22 23  1  0  0  0  0
 22 24  2  0  0  0  0
 23 25  2  0  0  0  0
 23 31  1  0  0  0  0
 24 26  1  0  0  0  0
 24 32  1  0  0  0  0
 25 26  1  0  0  0  0
 25 33  1  0  0  0  0
 26 34  1  0  0  0  0
 35 36  1  0  0  0  0
 35 40  1  0  0  0  0
 36 37  1  0  0  0  0
 36 39  1  0  0  0  0
 36 41  1  0  0  0  0
 37 38  2  0  0  0  0
 37 45  1  0  0  0  0
 39 42  1  0  0  0  0
 39 43  1  0  0  0  0
 39 44  1  0  0  0  0
 45 46  1  0  0  0  0
 45 47  1  0  0  0  0
 46 48  1  0  0  0  0
 46 49  1  0  0  0  0
 46 50  1  0  0  0  0
M  CHG  1  23   1
M  END
$$$$

  -OEChem-05262216443D

 50 50  0     1  0  0  0  0  0999 V2000
   -2.0344    0.2227    3.6296 C   0  0  0  0  0  0  0  0  0  0  0  0
   -2.5816   -0.1982    2.6163 O   0  0  0  0  0  0  0  0  0  0  0  0
   -2.3361   -0.4263    4.9668 C   0  0  0  0  0  0  0  0  0  0  0  0
   -3.1027   -1.1974    4.8509 H   0  0  0  0  0  0  0  0  0  0  0  0
   -1.4308   -0.8861    5.3710 H   0  0  0  0  0  0  0  0  0  0  0  0
   -2.7001    0.3251    5.6723 H   0  0  0  0  0  0  0  0  0  0  0  0
   -1.1177    1.2538    3.5686 N   0  0  0  0  0  0  0  0  0  0  0  0
   -0.6476    1.8575    2.3126 C   0  0  2  0  0  0  0  0  0  0  0  0
    0.1187    0.8678    1.4066 C   0  0  0  0  0  0  0  0  0  0  0  0
    0.8186   -0.0134    1.8967 O   0  0  0  0  0  0  0  0  0  0  0  0
    0.2569    3.0377    2.6730 C   0  0  0  0  0  0  0  0  0  0  0  0
   -0.5898    1.4442    4.4161 H   0  0  0  0  0  0  0  0  0  0  0  0
   -1.5105    2.2356    1.7537 H   0  0  0  0  0  0  0  0  0  0  0  0
    1.1259    2.6959    3.2452 H   0  0  0  0  0  0  0  0  0  0  0  0
    0.6162    3.5339    1.7668 H   0  0  0  0  0  0  0  0  0  0  0  0
   -0.2924    3.7708    3.2717 H   0  0  0  0  0  0  0  0  0  0  0  0
   -0.1506    0.8419    0.0486 N   0  0  0  0  0  0  0  0  0  0  0  0
    0.6624    0.0643   -0.9093 C   0  0  2  0  0  0  0  0  0  0  0  0
    1.5667    0.9962   -1.7301 C   0  0  0  0  0  0  0  0  0  0  0  0
    2.7665    1.0373   -1.5122 O   0  0  0  0  0  0  0  0  0  0  0  0
   -0.2833   -0.8139   -1.7405 C   0  0  0  0  0  0  0  0  0  0  0  0
   -0.9329   -1.7835   -0.7821 C   0  0  0  0  0  0  0  0  0  0  0  0
   -0.3502   -2.9083   -0.1961 N   0  3  0  0  0  0  0  0  0  0  0  0
   -2.1590   -1.6008   -0.1965 C   0  0  0  0  0  0  0  0  0  0  0  0
   -1.1254   -3.3663    0.7575 C   0  0  0  0  0  0  0  0  0  0  0  0
   -2.2813   -2.5894    0.7664 N   0  0  0  0  0  0  0  0  0  0  0  0
   -0.5573    1.7190   -0.2916 H   0  0  0  0  0  0  0  0  0  0  0  0
    1.3513   -0.6030   -0.3790 H   0  0  0  0  0  0  0  0  0  0  0  0
    0.2700   -1.3560   -2.5150 H   0  0  0  0  0  0  0  0  0  0  0  0
   -1.0405   -0.1977   -2.2361 H   0  0  0  0  0  0  0  0  0  0  0  0
    0.6180   -3.1873   -0.3726 H   0  0  0  0  0  0  0  0  0  0  0  0
   -2.8410   -0.7668   -0.3578 H   0  0  0  0  0  0  0  0  0  0  0  0
   -0.8879   -4.1745    1.4501 H   0  0  0  0  0  0  0  0  0  0  0  0
   -2.9878   -2.5801    1.5088 H   0  0  0  0  0  0  0  0  0  0  0  0
    0.9633    1.9701   -2.5034 N   0  0  0  0  0  0  0  0  0  0  0  0
    1.4612    3.3518   -2.4819 C   0  0  2  0  0  0  0  0  0  0  0  0
    0.7000    4.1724   -1.4136 C   0  0  0  0  0  0  0  0  0  0  0  0
   -0.2555    3.6671   -0.8215 O   0  0  0  0  0  0  0  0  0  0  0  0
    1.2656    3.9409   -3.8811 C   0  0  0  0  0  0  0  0  0  0  0  0
   -0.0506    1.9036   -2.5177 H   0  0  0  0  0  0  0  0  0  0  0  0
    2.5293    3.3826   -2.2389 H   0  0  0  0  0  0  0  0  0  0  0  0
    0.2042    3.9556   -4.1493 H   0  0  0  0  0  0  0  0  0  0  0  0
    1.6494    4.9647   -3.9255 H   0  0  0  0  0  0  0  0  0  0  0  0
    1.8042    3.3406   -4.6216 H   0  0  0  0  0  0  0  0  0  0  0  0
    1.0787    5.4664   -1.1121 N   0  0  0  0  0  0  0  0  0  0  0  0
    0.3801    6.3118   -0.1499 C   0  0  0  0  0  0  0  0  0  0  0  0
    1.8785    5.8516   -1.6087 H   0  0  0  0  0  0  0  0  0  0  0  0
   -0.6837    6.3846   -0.4012 H   0  0  0  0  0  0  0  0  0  0  0  0
    0.4770    5.9052    0.8617 H   0  0  0  0  0  0  0  0  0  0  0  0
    0.8026    7.3216   -0.1576 H   0  0  0  0  0  0  0  0  0  0  0  0
  1  2  2  0  0  0  0
  1  3  1  0  0  0  0
  1  7  1  0  0  0  0
  3  4  1  0  0  0  0
  3  5  1  0  0  0  0
  3  6  1  0  0  0  0
  7  8  1  0  0  0  0
  7 12  1  0  0  0  0
  8  9  1  0  0  0  0
  8 11  1  0  0  0  0
  8 13  1  0  0  0  0
  9 10  2  0  0  0  0
  9 17  1  0  0  0  0
 11 14  1  0  0  0  0
 11 15  1  0  0  0  0
 11 16  1  0  0  0  0
 17 18  1  0  0  0  0
 17 27  1  0  0  0  0
 18 19  1  0  0  0  0
 18 21  1  0  0  0  0
 18 28  1  0  0  0  0
 19 20  2  0  0  0  0
 19 35  1  0  0  0  0
 21 22  1  0  0  0  0
 21 29  1  0  0  0  0
 21 30  1  0  0  0  0
 22 23  1  0  0  0  0
 22 24  2  0  0  0  0
 23 25  2  0  0  0  0
 23 31  1  0  0  0  0
 24 26  1  0  0  0  0
 24 32  1  0  0  0  0
 25 26  1  0  0  0  0
 25 33  1  0  0  0  0
 26 34  1  0  0  0  0
 35 36  1  0  0  0  0
 35 40  1  0  0  0  0
 36 37  1  0  0  0  0
 36 39  1  0  0  0  0
 36 41  1  0  0  0  0
 37 38  2  0  0  0  0
 37 45  1  0  0  0  0
 39 42  1  0  0  0  0
 39 43  1  0  0  0  0
 39 44  1  0  0  0  0
 45 46  1  0  0  0  0
 45 47  1  0  0  0  0
 46 48  1  0  0  0  0
 46 49  1  0  0  0  0
 46 50  1  0  0  0  0
M  CHG  1  23   1
M  END
$$$$

  -OEChem-05262216443D

 50 50  0     1  0  0  0  0  0999 V2000
   -1.9873   -0.1438    3.8289 C   0  0  0  0  0  0  0  0  0  0  0  0
   -2.5839   -0.5843    2.8520 O   0  0  0  0  0  0  0  0  0  0  0  0
   -2.0257   -0.9039    5.1408 C   0  0  0  0  0  0  0  0  0  0  0  0
   -2.6931   -1.7661    5.0618 H   0  0  0  0  0  0  0  0  0  0  0  0
   -1.0231   -1.2553    5.3977 H   0  0  0  0  0  0  0  0  0  0  0  0
   -2.3898   -0.2521    5.9391 H   0  0  0  0  0  0  0  0  0  0  0  0
   -1.2387    1.0123    3.7385 N   0  0  0  0  0  0  0  0  0  0  0  0
   -0.9888    1.7211    2.4756 C   0  0  2  0  0  0  0  0  0  0  0  0
   -0.0838    0.9289    1.5040 C   0  0  0  0  0  0  0  0  0  0  0  0
    0.7738    0.1671    1.9373 O   0  0  0  0  0  0  0  0  0  0  0  0
   -0.3490    3.0669    2.8218 C   0  0  0  0  0  0  0  0  0  0  0  0
   -0.6319    1.2211    4.5273 H   0  0  0  0  0  0  0  0  0  0  0  0
   -1.9461    1.9081    1.9776 H   0  0  0  0  0  0  0  0  0  0  0  0
    0.6184    2.9183    3.3128 H   0  0  0  0  0  0  0  0  0  0  0  0
   -0.1881    3.6591    1.9168 H   0  0  0  0  0  0  0  0  0  0  0  0
   -0.9989    3.6376    3.4928 H   0  0  0  0  0  0  0  0  0  0  0  0
   -0.3773    0.9164    0.1491 N   0  0  0  0  0  0  0  0  0  0  0  0
    0.4452    0.2092   -0.8589 C   0  0  2  0  0  0  0  0  0  0  0  0
    1.3000    1.1620   -1.7093 C   0  0  0  0  0  0  0  0  0  0  0  0
    2.4838    0.9251   -1.8883 O   0  0  0  0  0  0  0  0  0  0  0  0
   -0.4671   -0.7018   -1.6914 C   0  0  0  0  0  0  0  0  0  0  0  0
   -1.0325   -1.7390   -0.7512 C   0  0  0  0  0  0  0  0  0  0  0  0
   -0.3557   -2.8397   -0.2238 N   0  3  0  0  0  0  0  0  0  0  0  0
   -2.2576   -1.6751   -0.1389 C   0  0  0  0  0  0  0  0  0  0  0  0
   -1.0751   -3.3967    0.7204 C   0  0  0  0  0  0  0  0  0  0  0  0
   -2.2850   -2.7100    0.7827 N   0  0  0  0  0  0  0  0  0  0  0  0
   -0.9939    1.6649   -0.1606 H   0  0  0  0  0  0  0  0  0  0  0  0
    1.1745   -0.4359   -0.3562 H   0  0  0  0  0  0  0  0  0  0  0  0
    0.1005   -1.1862   -2.4941 H   0  0  0  0  0  0  0  0  0  0  0  0
   -1.2687   -0.1175   -2.1547 H   0  0  0  0  0  0  0  0  0  0  0  0
    0.6230   -3.0457   -0.4403 H   0  0  0  0  0  0  0  0  0  0  0  0
   -3.0100   -0.8975   -0.2611 H   0  0  0  0  0  0  0  0  0  0  0  0
   -0.7666   -4.2170    1.3700 H   0  0  0  0  0  0  0  0  0  0  0  0
   -2.9710   -2.7828    1.5413 H   0  0  0  0  0  0  0  0  0  0  0  0
    0.7316    2.3123   -2.2185 N   0  0  0  0  0  0  0  0  0  0  0  0
    1.4988    3.5565   -2.3469 C   0  0  2  0  0  0  0  0  0  0  0  0
    1.0377    4.5483   -1.2565 C   0  0  0  0  0  0  0  0  0  0  0  0
    0.0168    4.3034   -0.6142 O   0  0  0  0  0  0  0  0  0  0  0  0
    1.2638    4.1219   -3.7492 C   0  0  0  0  0  0  0  0  0  0  0  0
   -0.2295    2.4640   -1.9240 H   0  0  0  0  0  0  0  0  0  0  0  0
    2.5714    3.3785   -2.2123 H   0  0  0  0  0  0  0  0  0  0  0  0
    0.2011    4.3318   -3.9074 H   0  0  0  0  0  0  0  0  0  0  0  0
    1.8259    5.0504   -3.8889 H   0  0  0  0  0  0  0  0  0  0  0  0
    1.5937    3.4025   -4.5056 H   0  0  0  0  0  0  0  0  0  0  0  0
    1.7641    5.6896   -0.9772 N   0  0  0  0  0  0  0  0  0  0  0  0
    1.3810    6.6549    0.0472 C   0  0  0  0  0  0  0  0  0  0  0  0
    2.6136    5.8539   -1.5117 H   0  0  0  0  0  0  0  0  0  0  0  0
    0.4061    7.0958   -0.1863 H   0  0  0  0  0  0  0  0  0  0  0  0
    1.3240    6.1725    1.0287 H   0  0  0  0  0  0  0  0  0  0  0  0
    2.1192    7.4611    0.1032 H   0  0  0  0  0  0  0  0  0  0  0  0
  1  2  2  0  0  0  0
  1  3  1  0  0  0  0
  1  7  1  0  0  0  0
  3  4  1  0  0  0  0
  3  5  1  0  0  0  0
  3  6  1  0  0  0  0
  7  8  1  0  0  0  0
  7 12  1  0  0  0  0
  8  9  1  0  0  0  0
  8 11  1  0  0  0  0
  8 13  1  0  0  0  0
  9 10  2  0  0  0  0
  9 17  1  0  0  0  0
 11 14  1  0  0  0  0
 11 15  1  0  0  0  0
 11 16  1  0  0  0  0
 17 18  1  0  0  0  0
 17 27  1  0  0  0  0
 18 19  1  0  0  0  0
 18 21  1  0  0  0  0
 18 28  1  0  0  0  0
 19 20  2  0  0  0  0
 19 35  1  0  0  0  0
 21 22  1  0  0  0  0
 21 29  1  0  0  0  0
 21 30  1  0  0  0  0
 22 23  1  0  0  0  0
 22 24  2  0  0  0  0
 23 25  2  0  0  0  0
 23 31  1  0  0  0  0
 24 26  1  0  0  0  0
 24 32  1  0  0  0  0
 25 26  1  0  0  0  0
 25 33  1  0  0  0  0
 26 34  1  0  0  0  0
 35 36  1  0  0  0  0
 35 40  1  0  0  0  0
 36 37  1  0  0  0  0
 36 39  1  0  0  0  0
 36 41  1  0  0  0  0
 37 38  2  0  0  0  0
 37 45  1  0  0  0  0
 39 42  1  0  0  0  0
 39 43  1  0  0  0  0
 39 44  1  0  0  0  0
 45 46  1  0  0  0  0
 45 47  1  0  0  0  0
 46 48  1  0  0  0  0
 46 49  1  0  0  0  0
 46 50  1  0  0  0  0
M  CHG  1  23   1
M  END
$$$$

  -OEChem-05262216443D

 50 50  0     1  0  0  0  0  0999 V2000
   -2.0125   -0.3756    3.9255 C   0  0  0  0  0  0  0  0  0  0  0  0
   -2.5637   -0.8691    2.9467 O   0  0  0  0  0  0  0  0  0  0  0  0
   -1.9723   -1.1382    5.2359 C   0  0  0  0  0  0  0  0  0  0  0  0
   -2.5462   -2.0652    5.1553 H   0  0  0  0  0  0  0  0  0  0  0  0
   -0.9386   -1.3833    5.4932 H   0  0  0  0  0  0  0  0  0  0  0  0
   -2.4030   -0.5296    6.0353 H   0  0  0  0  0  0  0  0  0  0  0  0
   -1.3942    0.8552    3.8372 N   0  0  0  0  0  0  0  0  0  0  0  0
   -1.2493    1.5991    2.5788 C   0  0  2  0  0  0  0  0  0  0  0  0
   -0.2444    0.9496    1.6004 C   0  0  0  0  0  0  0  0  0  0  0  0
    0.7189    0.3173    2.0168 O   0  0  0  0  0  0  0  0  0  0  0  0
   -0.8082    3.0242    2.9195 C   0  0  0  0  0  0  0  0  0  0  0  0
   -0.8072    1.1275    4.6221 H   0  0  0  0  0  0  0  0  0  0  0  0
   -2.2253    1.6491    2.0848 H   0  0  0  0  0  0  0  0  0  0  0  0
    0.1737    3.0184    3.4038 H   0  0  0  0  0  0  0  0  0  0  0  0
   -0.7399    3.6319    2.0117 H   0  0  0  0  0  0  0  0  0  0  0  0
   -1.5289    3.4964    3.5946 H   0  0  0  0  0  0  0  0  0  0  0  0
   -0.5162    0.9517    0.2415 N   0  0  0  0  0  0  0  0  0  0  0  0
    0.3419    0.3193   -0.7838 C   0  0  2  0  0  0  0  0  0  0  0  0
    1.1545    1.3314   -1.6062 C   0  0  0  0  0  0  0  0  0  0  0  0
    2.1851    0.9678   -2.1510 O   0  0  0  0  0  0  0  0  0  0  0  0
   -0.5085   -0.6206   -1.6498 C   0  0  0  0  0  0  0  0  0  0  0  0
   -1.0171   -1.7199   -0.7485 C   0  0  0  0  0  0  0  0  0  0  0  0
   -0.2726   -2.7921   -0.2536 N   0  3  0  0  0  0  0  0  0  0  0  0
   -2.2509   -1.7626   -0.1517 C   0  0  0  0  0  0  0  0  0  0  0  0
   -0.9618   -3.4320    0.6597 C   0  0  0  0  0  0  0  0  0  0  0  0
   -2.2146   -2.8286    0.7348 N   0  0  0  0  0  0  0  0  0  0  0  0
   -1.3283    1.4862   -0.0554 H   0  0  0  0  0  0  0  0  0  0  0  0
    1.1033   -0.2955   -0.2912 H   0  0  0  0  0  0  0  0  0  0  0  0
    0.0935   -1.0437   -2.4624 H   0  0  0  0  0  0  0  0  0  0  0  0
   -1.3390   -0.0706   -2.1043 H   0  0  0  0  0  0  0  0  0  0  0  0
    0.7167   -2.9321   -0.4762 H   0  0  0  0  0  0  0  0  0  0  0  0
   -3.0583   -1.0410   -0.2648 H   0  0  0  0  0  0  0  0  0  0  0  0
   -0.6069   -4.2573    1.2783 H   0  0  0  0  0  0  0  0  0  0  0  0
   -2.8982   -2.9747    1.4853 H   0  0  0  0  0  0  0  0  0  0  0  0
    0.6566    2.5997   -1.8267 N   0  0  0  0  0  0  0  0  0  0  0  0
    1.5258    3.7366   -2.1541 C   0  0  2  0  0  0  0  0  0  0  0  0
    1.4936    4.7543   -0.9932 C   0  0  0  0  0  0  0  0  0  0  0  0
    0.6137    4.6642   -0.1391 O   0  0  0  0  0  0  0  0  0  0  0  0
    1.0215    4.3680   -3.4533 C   0  0  0  0  0  0  0  0  0  0  0  0
   -0.1118    2.8507   -1.2081 H   0  0  0  0  0  0  0  0  0  0  0  0
    2.5644    3.4157   -2.2921 H   0  0  0  0  0  0  0  0  0  0  0  0
   -0.0084    4.7205   -3.3355 H   0  0  0  0  0  0  0  0  0  0  0  0
    1.6497    5.2182   -3.7366 H   0  0  0  0  0  0  0  0  0  0  0  0
    1.0489    3.6337   -4.2646 H   0  0  0  0  0  0  0  0  0  0  0  0
    2.4462    5.7495   -0.8912 N   0  0  0  0  0  0  0  0  0  0  0  0
    2.4837    6.7107    0.2054 C   0  0  0  0  0  0  0  0  0  0  0  0
    3.1795    5.7790   -1.5949 H   0  0  0  0  0  0  0  0  0  0  0  0
    1.5558    7.2916    0.2392 H   0  0  0  0  0  0  0  0  0  0  0  0
    2.6112    6.1950    1.1633 H   0  0  0  0  0  0  0  0  0  0  0  0
    3.3199    7.4043    0.0731 H   0  0  0  0  0  0  0  0  0  0  0  0
  1  2  2  0  0  0  0
  1  3  1  0  0  0  0
  1  7  1  0  0  0  0
  3  4  1  0  0  0  0
  3  5  1  0  0  0  0
  3  6  1  0  0  0  0
  7  8  1  0  0  0  0
  7 12  1  0  0  0  0
  8  9  1  0  0  0  0
  8 11  1  0  0  0  0
  8 13  1  0  0  0  0
  9 10  2  0  0  0  0
  9 17  1  0  0  0  0
 11 14  1  0  0  0  0
 11 15  1  0  0  0  0
 11 16  1  0  0  0  0
 17 18  1  0  0  0  0
 17 27  1  0  0  0  0
 18 19  1  0  0  0  0
 18 21  1  0  0  0  0
 18 28  1  0  0  0  0
 19 20  2  0  0  0  0
 19 35  1  0  0  0  0
 21 22  1  0  0  0  0
 21 29  1  0  0  0  0
 21 30  1  0  0  0  0
 22 23  1  0  0  0  0
 22 24  2  0  0  0  0
 23 25  2  0  0  0  0
 23 31  1  0  0  0  0
 24 26  1  0  0  0  0
 24 32  1  0  0  0  0
 25 26  1  0  0  0  0
 25 33  1  0  0  0  0
 26 34  1  0  0  0  0
 35 36  1  0  0  0  0
 35 40  1  0  0  0  0
 36 37  1  0  0  0  0
 36 39  1  0  0  0  0
 36 41  1  0  0  0  0
 37 38  2  0  0  0  0
 37 45  1  0  0  0  0
 39 42  1  0  0  0  0
 39 43  1  0  0  0  0
 39 44  1  0  0  0  0
 45 46  1  0  0  0  0
 45 47  1  0  0  0  0
 46 48  1  0  0  0  0
 46 49  1  0  0  0  0
 46 50  1  0  0  0  0
M  CHG  1  23   1
M  END
$$$$

  -OEChem-05262216443D

 50 50  0     1  0  0  0  0  0999 V2000
   -1.9526   -0.5071    3.9876 C   0  0  0  0  0  0  0  0  0  0  0  0
   -2.5435   -0.9611    3.0126 O   0  0  0  0  0  0  0  0  0  0  0  0
   -1.8747   -1.3144    5.2691 C   0  0  0  0  0  0  0  0  0  0  0  0
   -2.4485   -2.2400    5.1720 H   0  0  0  0  0  0  0  0  0  0  0  0
   -0.8341   -1.5656    5.4896 H   0  0  0  0  0  0  0  0  0  0  0  0
   -2.2842   -0.7345    6.1003 H   0  0  0  0  0  0  0  0  0  0  0  0
   -1.3262    0.7210    3.9194 N   0  0  0  0  0  0  0  0  0  0  0  0
   -1.2173    1.5038    2.6814 C   0  0  2  0  0  0  0  0  0  0  0  0
   -0.2474    0.8809    1.6526 C   0  0  0  0  0  0  0  0  0  0  0  0
    0.7191    0.2215    2.0153 O   0  0  0  0  0  0  0  0  0  0  0  0
   -0.7584    2.9173    3.0479 C   0  0  0  0  0  0  0  0  0  0  0  0
   -0.7118    0.9631    4.6932 H   0  0  0  0  0  0  0  0  0  0  0  0
   -2.2083    1.5717    2.2207 H   0  0  0  0  0  0  0  0  0  0  0  0
    0.2397    2.8944    3.4979 H   0  0  0  0  0  0  0  0  0  0  0  0
   -0.7181    3.5515    2.1562 H   0  0  0  0  0  0  0  0  0  0  0  0
   -1.4530    3.3726    3.7610 H   0  0  0  0  0  0  0  0  0  0  0  0
   -0.5469    0.9511    0.3016 N   0  0  0  0  0  0  0  0  0  0  0  0
    0.2746    0.3460   -0.7693 C   0  0  2  0  0  0  0  0  0  0  0  0
    1.0942    1.3773   -1.5617 C   0  0  0  0  0  0  0  0  0  0  0  0
    1.9380    0.9925   -2.3563 O   0  0  0  0  0  0  0  0  0  0  0  0
   -0.6281   -0.5250   -1.6560 C   0  0  0  0  0  0  0  0  0  0  0  0
   -1.1517   -1.6488   -0.7942 C   0  0  0  0  0  0  0  0  0  0  0  0
   -0.4323   -2.7667   -0.3692 N   0  3  0  0  0  0  0  0  0  0  0  0
   -2.3695   -1.6772   -0.1643 C   0  0  0  0  0  0  0  0  0  0  0  0
   -1.1187   -3.4249    0.5332 C   0  0  0  0  0  0  0  0  0  0  0  0
   -2.3464   -2.7828    0.6725 N   0  0  0  0  0  0  0  0  0  0  0  0
   -1.3580    1.5073    0.0422 H   0  0  0  0  0  0  0  0  0  0  0  0
    1.0301   -0.3122   -0.3267 H   0  0  0  0  0  0  0  0  0  0  0  0
   -0.0623   -0.9294   -2.5035 H   0  0  0  0  0  0  0  0  0  0  0  0
   -1.4499    0.0736   -2.0619 H   0  0  0  0  0  0  0  0  0  0  0  0
    0.5441   -2.9309   -0.6287 H   0  0  0  0  0  0  0  0  0  0  0  0
   -3.1536   -0.9239   -0.2216 H   0  0  0  0  0  0  0  0  0  0  0  0
   -0.7771   -4.2905    1.1021 H   0  0  0  0  0  0  0  0  0  0  0  0
   -3.0121   -2.9377    1.4372 H   0  0  0  0  0  0  0  0  0  0  0  0
    0.7924    2.7192   -1.4579 N   0  0  0  0  0  0  0  0  0  0  0  0
    1.7153    3.7895   -1.8501 C   0  0  2  0  0  0  0  0  0  0  0  0
    1.8286    4.8152   -0.7005 C   0  0  0  0  0  0  0  0  0  0  0  0
    1.0515    4.7411    0.2493 O   0  0  0  0  0  0  0  0  0  0  0  0
    1.1814    4.4438   -3.1265 C   0  0  0  0  0  0  0  0  0  0  0  0
    0.2073    2.9577   -0.6580 H   0  0  0  0  0  0  0  0  0  0  0  0
    2.7171    3.3880   -2.0394 H   0  0  0  0  0  0  0  0  0  0  0  0
    0.1896    4.8737   -2.9523 H   0  0  0  0  0  0  0  0  0  0  0  0
    1.8524    5.2411   -3.4605 H   0  0  0  0  0  0  0  0  0  0  0  0
    1.1043    3.7005   -3.9267 H   0  0  0  0  0  0  0  0  0  0  0  0
    2.8004    5.7976   -0.7120 N   0  0  0  0  0  0  0  0  0  0  0  0
    2.9617    6.7771    0.3575 C   0  0  0  0  0  0  0  0  0  0  0  0
    3.4379    5.8264   -1.5033 H   0  0  0  0  0  0  0  0  0  0  0  0
    2.0555    7.3831    0.4628 H   0  0  0  0  0  0  0  0  0  0  0  0
    3.1633    6.2768    1.3107 H   0  0  0  0  0  0  0  0  0  0  0  0
    3.7994    7.4460    0.1361 H   0  0  0  0  0  0  0  0  0  0  0  0
  1  2  2  0  0  0  0
  1  3  1  0  0  0  0
  1  7  1  0  0  0  0
  3  4  1  0  0  0  0
  3  5  1  0  0  0  0
  3  6  1  0  0  0  0
  7  8  1  0  0  0  0
  7 12  1  0  0  0  0
  8  9  1  0  0  0  0
  8 11  1  0  0  0  0
  8 13  1  0  0  0  0
  9 10  2  0  0  0  0
  9 17  1  0  0  0  0
 11 14  1  0  0  0  0
 11 15  1  0  0  0  0
 11 16  1  0  0  0  0
 17 18  1  0  0  0  0
 17 27  1  0  0  0  0
 18 19  1  0  0  0  0
 18 21  1  0  0  0  0
 18 28  1  0  0  0  0
 19 20  2  0  0  0  0
 19 35  1  0  0  0  0
 21 22  1  0  0  0  0
 21 29  1  0  0  0  0
 21 30  1  0  0  0  0
 22 23  1  0  0  0  0
 22 24  2  0  0  0  0
 23 25  2  0  0  0  0
 23 31  1  0  0  0  0
 24 26  1  0  0  0  0
 24 32  1  0  0  0  0
 25 26  1  0  0  0  0
 25 33  1  0  0  0  0
 26 34  1  0  0  0  0
 35 36  1  0  0  0  0
 35 40  1  0  0  0  0
 36 37  1  0  0  0  0
 36 39  1  0  0  0  0
 36 41  1  0  0  0  0
 37 38  2  0  0  0  0
 37 45  1  0  0  0  0
 39 42  1  0  0  0  0
 39 43  1  0  0  0  0
 39 44  1  0  0  0  0
 45 46  1  0  0  0  0
 45 47  1  0  0  0  0
 46 48  1  0  0  0  0
 46 49  1  0  0  0  0
 46 50  1  0  0  0  0
M  CHG  1  23   1
M  END
$$$$

  -OEChem-05262216443D

 50 50  0     1  0  0  0  0  0999 V2000
   -1.9574   -0.5633    3.9973 C   0  0  0  0  0  0  0  0  0  0  0  0
   -2.5601   -0.9662    3.0074 O   0  0  0  0  0  0  0  0  0  0  0  0
   -1.8962   -1.4219    5.2461 C   0  0  0  0  0  0  0  0  0  0  0  0
   -2.5037   -2.3219    5.1188 H   0  0  0  0  0  0  0  0  0  0  0  0
   -0.8632   -1.7184    5.4452 H   0  0  0  0  0  0  0  0  0  0  0  0
   -2.2772   -0.8617    6.1040 H   0  0  0  0  0  0  0  0  0  0  0  0
   -1.3011    0.6509    3.9715 N   0  0  0  0  0  0  0  0  0  0  0  0
   -1.1752    1.4730    2.7606 C   0  0  2  0  0  0  0  0  0  0  0  0
   -0.2469    0.8465    1.6960 C   0  0  0  0  0  0  0  0  0  0  0  0
    0.7137    0.1602    2.0224 O   0  0  0  0  0  0  0  0  0  0  0  0
   -0.6468    2.8496    3.1710 C   0  0  0  0  0  0  0  0  0  0  0  0
   -0.6795    0.8506    4.7517 H   0  0  0  0  0  0  0  0  0  0  0  0
   -2.1688    1.6016    2.3184 H   0  0  0  0  0  0  0  0  0  0  0  0
    0.3515    2.7629    3.6131 H   0  0  0  0  0  0  0  0  0  0  0  0
   -0.5801    3.5116    2.3012 H   0  0  0  0  0  0  0  0  0  0  0  0
   -1.3147    3.3127    3.9043 H   0  0  0  0  0  0  0  0  0  0  0  0
   -0.5681    0.9568    0.3526 N   0  0  0  0  0  0  0  0  0  0  0  0
    0.2310    0.3730   -0.7469 C   0  0  2  0  0  0  0  0  0  0  0  0
    1.0488    1.4189   -1.5252 C   0  0  0  0  0  0  0  0  0  0  0  0
    1.7024    1.0749   -2.4981 O   0  0  0  0  0  0  0  0  0  0  0  0
   -0.7029   -0.4610   -1.6393 C   0  0  0  0  0  0  0  0  0  0  0  0
   -1.2310   -1.6023   -0.8038 C   0  0  0  0  0  0  0  0  0  0  0  0
   -0.5239   -2.7443   -0.4257 N   0  3  0  0  0  0  0  0  0  0  0  0
   -2.4439   -1.6371   -0.1650 C   0  0  0  0  0  0  0  0  0  0  0  0
   -1.2129   -3.4282    0.4554 C   0  0  0  0  0  0  0  0  0  0  0  0
   -2.4303   -2.7745    0.6288 N   0  0  0  0  0  0  0  0  0  0  0  0
   -1.3560    1.5562    0.1180 H   0  0  0  0  0  0  0  0  0  0  0  0
    0.9861   -0.3059   -0.3368 H   0  0  0  0  0  0  0  0  0  0  0  0
   -0.1611   -0.8521   -2.5083 H   0  0  0  0  0  0  0  0  0  0  0  0
   -1.5208    0.1624   -2.0150 H   0  0  0  0  0  0  0  0  0  0  0  0
    0.4456   -2.9152   -0.7047 H   0  0  0  0  0  0  0  0  0  0  0  0
   -3.2188   -0.8730   -0.1912 H   0  0  0  0  0  0  0  0  0  0  0  0
   -0.8803   -4.3217    0.9855 H   0  0  0  0  0  0  0  0  0  0  0  0
   -3.0996   -2.9573    1.3839 H   0  0  0  0  0  0  0  0  0  0  0  0
    0.9845    2.7484   -1.1643 N   0  0  0  0  0  0  0  0  0  0  0  0
    1.9205    3.7793   -1.6236 C   0  0  2  0  0  0  0  0  0  0  0  0
    2.1979    4.7758   -0.4768 C   0  0  0  0  0  0  0  0  0  0  0  0
    1.5202    4.7201    0.5471 O   0  0  0  0  0  0  0  0  0  0  0  0
    1.3160    4.4906   -2.8374 C   0  0  0  0  0  0  0  0  0  0  0  0
    0.5644    2.9336   -0.2536 H   0  0  0  0  0  0  0  0  0  0  0  0
    2.8750    3.3229   -1.9075 H   0  0  0  0  0  0  0  0  0  0  0  0
    0.3693    4.9708   -2.5693 H   0  0  0  0  0  0  0  0  0  0  0  0
    2.0003    5.2569   -3.2147 H   0  0  0  0  0  0  0  0  0  0  0  0
    1.1279    3.7722   -3.6418 H   0  0  0  0  0  0  0  0  0  0  0  0
    3.2106    5.7108   -0.5757 N   0  0  0  0  0  0  0  0  0  0  0  0
    3.5231    6.6670    0.4809 C   0  0  0  0  0  0  0  0  0  0  0  0
    3.7587    5.7289   -1.4317 H   0  0  0  0  0  0  0  0  0  0  0  0
    2.6703    7.3297    0.6620 H   0  0  0  0  0  0  0  0  0  0  0  0
    3.7676    6.1447    1.4120 H   0  0  0  0  0  0  0  0  0  0  0  0
    4.3829    7.2808    0.1949 H   0  0  0  0  0  0  0  0  0  0  0  0
  1  2  2  0  0  0  0
  1  3  1  0  0  0  0
  1  7  1  0  0  0  0
  3  4  1  0  0  0  0
  3  5  1  0  0  0  0
  3  6  1  0  0  0  0
  7  8  1  0  0  0  0
  7 12  1  0  0  0  0
  8  9  1  0  0  0  0
  8 11  1  0  0  0  0
  8 13  1  0  0  0  0
  9 10  2  0  0  0  0
  9 17  1  0  0  0  0
 11 14  1  0  0  0  0
 11 15  1  0  0  0  0
 11 16  1  0  0  0  0
 17 18  1  0  0  0  0
 17 27  1  0  0  0  0
 18 19  1  0  0  0  0
 18 21  1  0  0  0  0
 18 28  1  0  0  0  0
 19 20  2  0  0  0  0
 19 35  1  0  0  0  0
 21 22  1  0  0  0  0
 21 29  1  0  0  0  0
 21 30  1  0  0  0  0
 22 23  1  0  0  0  0
 22 24  2  0  0  0  0
 23 25  2  0  0  0  0
 23 31  1  0  0  0  0
 24 26  1  0  0  0  0
 24 32  1  0  0  0  0
 25 26  1  0  0  0  0
 25 33  1  0  0  0  0
 26 34  1  0  0  0  0
 35 36  1  0  0  0  0
 35 40  1  0  0  0  0
 36 37  1  0  0  0  0
 36 39  1  0  0  0  0
 36 41  1  0  0  0  0
 37 38  2  0  0  0  0
 37 45  1  0  0  0  0
 39 42  1  0  0  0  0
 39 43  1  0  0  0  0
 39 44  1  0  0  0  0
 45 46  1  0  0  0  0
 45 47  1  0  0  0  0
 46 48  1  0  0  0  0
 46 49  1  0  0  0  0
 46 50  1  0  0  0  0
M  CHG  1  23   1
M  END
$$$$

  -OEChem-05262216443D

 50 50  0     1  0  0  0  0  0999 V2000
   -1.9509   -0.5230    4.0077 C   0  0  0  0  0  0  0  0  0  0  0  0
   -2.5836   -0.8923    3.0234 O   0  0  0  0  0  0  0  0  0  0  0  0
   -1.9131   -1.3888    5.2522 C   0  0  0  0  0  0  0  0  0  0  0  0
   -2.5294   -2.2812    5.1145 H   0  0  0  0  0  0  0  0  0  0  0  0
   -0.8859   -1.6985    5.4607 H   0  0  0  0  0  0  0  0  0  0  0  0
   -2.2960   -0.8278    6.1086 H   0  0  0  0  0  0  0  0  0  0  0  0
   -1.2386    0.6591    3.9811 N   0  0  0  0  0  0  0  0  0  0  0  0
   -1.0881    1.4843    2.7755 C   0  0  2  0  0  0  0  0  0  0  0  0
   -0.2183    0.8140    1.6889 C   0  0  0  0  0  0  0  0  0  0  0  0
    0.7213    0.0890    1.9921 O   0  0  0  0  0  0  0  0  0  0  0  0
   -0.4689    2.8218    3.1896 C   0  0  0  0  0  0  0  0  0  0  0  0
   -0.6001    0.8242    4.7558 H   0  0  0  0  0  0  0  0  0  0  0  0
   -2.0799    1.6770    2.3533 H   0  0  0  0  0  0  0  0  0  0  0  0
    0.5343    2.6710    3.6021 H   0  0  0  0  0  0  0  0  0  0  0  0
   -0.3873    3.4923    2.3278 H   0  0  0  0  0  0  0  0  0  0  0  0
   -1.0878    3.3117    3.9480 H   0  0  0  0  0  0  0  0  0  0  0  0
   -0.5572    0.9483    0.3522 N   0  0  0  0  0  0  0  0  0  0  0  0
    0.2102    0.3519   -0.7633 C   0  0  2  0  0  0  0  0  0  0  0  0
    1.0415    1.3961   -1.5312 C   0  0  0  0  0  0  0  0  0  0  0  0
    1.4901    1.1345   -2.6368 O   0  0  0  0  0  0  0  0  0  0  0  0
   -0.7682   -0.4382   -1.6503 C   0  0  0  0  0  0  0  0  0  0  0  0
   -1.3244   -1.5683   -0.8180 C   0  0  0  0  0  0  0  0  0  0  0  0
   -0.6603   -2.7418   -0.4588 N   0  3  0  0  0  0  0  0  0  0  0  0
   -2.5261   -1.5552   -0.1579 C   0  0  0  0  0  0  0  0  0  0  0  0
   -1.3617   -3.3992    0.4329 C   0  0  0  0  0  0  0  0  0  0  0  0
   -2.5466   -2.6948    0.6316 N   0  0  0  0  0  0  0  0  0  0  0  0
   -1.3046    1.6035    0.1331 H   0  0  0  0  0  0  0  0  0  0  0  0
    0.9511   -0.3560   -0.3763 H   0  0  0  0  0  0  0  0  0  0  0  0
   -0.2563   -0.8397   -2.5325 H   0  0  0  0  0  0  0  0  0  0  0  0
   -1.5691    0.2183   -2.0061 H   0  0  0  0  0  0  0  0  0  0  0  0
    0.2949   -2.9538   -0.7583 H   0  0  0  0  0  0  0  0  0  0  0  0
   -3.2674   -0.7579   -0.1664 H   0  0  0  0  0  0  0  0  0  0  0  0
   -1.0588   -4.3090    0.9531 H   0  0  0  0  0  0  0  0  0  0  0  0
   -3.2105   -2.8527    1.3969 H   0  0  0  0  0  0  0  0  0  0  0  0
    1.2534    2.6368   -0.9685 N   0  0  0  0  0  0  0  0  0  0  0  0
    2.1658    3.6672   -1.4715 C   0  0  2  0  0  0  0  0  0  0  0  0
    2.5733    4.6015   -0.3103 C   0  0  0  0  0  0  0  0  0  0  0  0
    1.9729    4.5313    0.7598 O   0  0  0  0  0  0  0  0  0  0  0  0
    1.4711    4.4559   -2.5868 C   0  0  0  0  0  0  0  0  0  0  0  0
    0.9755    2.7423    0.0074 H   0  0  0  0  0  0  0  0  0  0  0  0
    3.0736    3.1987   -1.8664 H   0  0  0  0  0  0  0  0  0  0  0  0
    0.5589    4.9290   -2.2097 H   0  0  0  0  0  0  0  0  0  0  0  0
    2.1323    5.2358   -2.9765 H   0  0  0  0  0  0  0  0  0  0  0  0
    1.2024    3.7911   -3.4138 H   0  0  0  0  0  0  0  0  0  0  0  0
    3.6164    5.4974   -0.4471 N   0  0  0  0  0  0  0  0  0  0  0  0
    4.0476    6.3926    0.6214 C   0  0  0  0  0  0  0  0  0  0  0  0
    4.1004    5.5307   -1.3401 H   0  0  0  0  0  0  0  0  0  0  0  0
    3.2396    7.0791    0.8961 H   0  0  0  0  0  0  0  0  0  0  0  0
    4.3400    5.8208    1.5087 H   0  0  0  0  0  0  0  0  0  0  0  0
    4.9082    6.9853    0.2960 H   0  0  0  0  0  0  0  0  0  0  0  0
  1  2  2  0  0  0  0
  1  3  1  0  0  0  0
  1  7  1  0  0  0  0
  3  4  1  0  0  0  0
  3  5  1  0  0  0  0
  3  6  1  0  0  0  0
  7  8  1  0  0  0  0
  7 12  1  0  0  0  0
  8  9  1  0  0  0  0
  8 11  1  0  0  0  0
  8 13  1  0  0  0  0
  9 10  2  0  0  0  0
  9 17  1  0  0  0  0
 11 14  1  0  0  0  0
 11 15  1  0  0  0  0
 11 16  1  0  0  0  0
 17 18  1  0  0  0  0
 17 27  1  0  0  0  0
 18 19  1  0  0  0  0
 18 21  1  0  0  0  0
 18 28  1  0  0  0  0
 19 20  2  0  0  0  0
 19 35  1  0  0  0  0
 21 22  1  0  0  0  0
 21 29  1  0  0  0  0
 21 30  1  0  0  0  0
 22 23  1  0  0  0  0
 22 24  2  0  0  0  0
 23 25  2  0  0  0  0
 23 31  1  0  0  0  0
 24 26  1  0  0  0  0
 24 32  1  0  0  0  0
 25 26  1  0  0  0  0
 25 33  1  0  0  0  0
 26 34  1  0  0  0  0
 35 36  1  0  0  0  0
 35 40  1  0  0  0  0
 36 37  1  0  0  0  0
 36 39  1  0  0  0  0
 36 41  1  0  0  0  0
 37 38  2  0  0  0  0
 37 45  1  0  0  0  0
 39 42  1  0  0  0  0
 39 43  1  0  0  0  0
 39 44  1  0  0  0  0
 45 46  1  0  0  0  0
 45 47  1  0  0  0  0
 46 48  1  0  0  0  0
 46 49  1  0  0  0  0
 46 50  1  0  0  0  0
M  CHG  1  23   1
M  END
$$$$

  -OEChem-05262216443D

 50 50  0     1  0  0  0  0  0999 V2000
   -2.3380   -0.7015    3.8726 C   0  0  0  0  0  0  0  0  0  0  0  0
   -2.6711   -1.2782    2.8427 O   0  0  0  0  0  0  0  0  0  0  0  0
   -2.2380   -1.4744    5.1737 C   0  0  0  0  0  0  0  0  0  0  0  0
   -2.5871   -2.5011    5.0340 H   0  0  0  0  0  0  0  0  0  0  0  0
   -1.2003   -1.4972    5.5160 H   0  0  0  0  0  0  0  0  0  0  0  0
   -2.8546   -0.9970    5.9395 H   0  0  0  0  0  0  0  0  0  0  0  0
   -2.0149    0.6403    3.8487 N   0  0  0  0  0  0  0  0  0  0  0  0
   -1.9322    1.4279    2.6110 C   0  0  2  0  0  0  0  0  0  0  0  0
   -0.6875    1.0899    1.7593 C   0  0  0  0  0  0  0  0  0  0  0  0
    0.3574    0.7340    2.2873 O   0  0  0  0  0  0  0  0  0  0  0  0
   -1.9240    2.9097    2.9914 C   0  0  0  0  0  0  0  0  0  0  0  0
   -1.5737    1.0158    4.6851 H   0  0  0  0  0  0  0  0  0  0  0  0
   -2.8250    1.2325    2.0076 H   0  0  0  0  0  0  0  0  0  0  0  0
   -1.0351    3.1501    3.5845 H   0  0  0  0  0  0  0  0  0  0  0  0
   -1.9209    3.5353    2.0932 H   0  0  0  0  0  0  0  0  0  0  0  0
   -2.8136    3.1575    3.5794 H   0  0  0  0  0  0  0  0  0  0  0  0
   -0.7790    1.0762    0.3777 N   0  0  0  0  0  0  0  0  0  0  0  0
    0.3130    0.6791   -0.5366 C   0  0  2  0  0  0  0  0  0  0  0  0
    0.9777    1.8758   -1.2459 C   0  0  0  0  0  0  0  0  0  0  0  0
    1.3887    1.7479   -2.3907 O   0  0  0  0  0  0  0  0  0  0  0  0
   -0.2232   -0.4085   -1.4873 C   0  0  0  0  0  0  0  0  0  0  0  0
   -0.5790   -1.6126   -0.6504 C   0  0  0  0  0  0  0  0  0  0  0  0
    0.3171   -2.5162   -0.0782 N   0  3  0  0  0  0  0  0  0  0  0  0
   -1.8343   -1.9370   -0.2057 C   0  0  0  0  0  0  0  0  0  0  0  0
   -0.3176   -3.3193    0.7406 C   0  0  0  0  0  0  0  0  0  0  0  0
   -1.6709   -2.9988    0.6712 N   0  0  0  0  0  0  0  0  0  0  0  0
   -1.6368    1.4429   -0.0282 H   0  0  0  0  0  0  0  0  0  0  0  0
    1.1304    0.2312    0.0387 H   0  0  0  0  0  0  0  0  0  0  0  0
    0.5336   -0.6851   -2.2303 H   0  0  0  0  0  0  0  0  0  0  0  0
   -1.0963   -0.0347   -2.0323 H   0  0  0  0  0  0  0  0  0  0  0  0
    1.3313   -2.4407   -0.1918 H   0  0  0  0  0  0  0  0  0  0  0  0
   -2.7601   -1.4037   -0.4151 H   0  0  0  0  0  0  0  0  0  0  0  0
    0.1335   -4.0721    1.3882 H   0  0  0  0  0  0  0  0  0  0  0  0
   -2.3881   -3.3104    1.3348 H   0  0  0  0  0  0  0  0  0  0  0  0
    1.0323    3.1101   -0.6264 N   0  0  0  0  0  0  0  0  0  0  0  0
    1.8689    4.2019   -1.1486 C   0  0  2  0  0  0  0  0  0  0  0  0
    3.3197    4.1038   -0.6307 C   0  0  0  0  0  0  0  0  0  0  0  0
    3.5438    3.5644    0.4466 O   0  0  0  0  0  0  0  0  0  0  0  0
    1.2373    5.5270   -0.7148 C   0  0  0  0  0  0  0  0  0  0  0  0
    0.9495    3.0638    0.3878 H   0  0  0  0  0  0  0  0  0  0  0  0
    1.8932    4.1738   -2.2433 H   0  0  0  0  0  0  0  0  0  0  0  0
    1.2113    5.6009    0.3773 H   0  0  0  0  0  0  0  0  0  0  0  0
    1.8152    6.3711   -1.1045 H   0  0  0  0  0  0  0  0  0  0  0  0
    0.2142    5.6046   -1.0958 H   0  0  0  0  0  0  0  0  0  0  0  0
    4.3679    4.6356   -1.3579 N   0  0  0  0  0  0  0  0  0  0  0  0
    5.7608    4.5388   -0.9354 C   0  0  0  0  0  0  0  0  0  0  0  0
    4.1598    5.0223   -2.2742 H   0  0  0  0  0  0  0  0  0  0  0  0
    5.8935    4.9834    0.0569 H   0  0  0  0  0  0  0  0  0  0  0  0
    6.0777    3.4911   -0.8967 H   0  0  0  0  0  0  0  0  0  0  0  0
    6.4087    5.0705   -1.6392 H   0  0  0  0  0  0  0  0  0  0  0  0
  1  2  2  0  0  0  0
  1  3  1  0  0  0  0
  1  7  1  0  0  0  0
  3  4  1  0  0  0  0
  3  5  1  0  0  0  0
  3  6  1  0  0  0  0
  7  8  1  0  0  0  0
  7 12  1  0  0  0  0
  8  9  1  0  0  0  0
  8 11  1  0  0  0  0
  8 13  1  0  0  0  0
  9 10  2  0  0  0  0
  9 17  1  0  0  0  0
 11 14  1  0  0  0  0
 11 15  1  0  0  0  0
 11 16  1  0  0  0  0
 17 18  1  0  0  0  0
 17 27  1  0  0  0  0
 18 19  1  0  0  0  0
 18 21  1  0  0  0  0
 18 28  1  0  0  0  0
 19 20  2  0  0  0  0
 19 35  1  0  0  0  0
 21 22  1  0  0  0  0
 21 29  1  0  0  0  0
 21 30  1  0  0  0  0
 22 23  1  0  0  0  0
 22 24  2  0  0  0  0
 23 25  2  0  0  0  0
 23 31  1  0  0  0  0
 24 26  1  0  0  0  0
 24 32  1  0  0  0  0
 25 26  1  0  0  0  0
 25 33  1  0  0  0  0
 26 34  1  0  0  0  0
 35 36  1  0  0  0  0
 35 40  1  0  0  0  0
 36 37  1  0  0  0  0
 36 39  1  0  0  0  0
 36 41  1  0  0  0  0
 37 38  2  0  0  0  0
 37 45  1  0  0  0  0
 39 42  1  0  0  0  0
 39 43  1  0  0  0  0
 39 44  1  0  0  0  0
 45 46  1  0  0  0  0
 45 47  1  0  0  0  0
 46 48  1  0  0  0  0
 46 49  1  0  0  0  0
 46 50  1  0  0  0  0
M  CHG  1  23   1
M  END
$$$$

  -OEChem-05262216443D

 50 50  0     1  0  0  0  0  0999 V2000
   -2.3827   -0.7313    3.8190 C   0  0  0  0  0  0  0  0  0  0  0  0
   -2.6515   -1.2943    2.7635 O   0  0  0  0  0  0  0  0  0  0  0  0
   -2.3256   -1.5277    5.1085 C   0  0  0  0  0  0  0  0  0  0  0  0
   -2.6196   -2.5652    4.9284 H   0  0  0  0  0  0  0  0  0  0  0  0
   -1.3102   -1.5135    5.5123 H   0  0  0  0  0  0  0  0  0  0  0  0
   -3.0078   -1.0945    5.8445 H   0  0  0  0  0  0  0  0  0  0  0  0
   -2.0987    0.6191    3.8371 N   0  0  0  0  0  0  0  0  0  0  0  0
   -2.0034    1.4421    2.6240 C   0  0  2  0  0  0  0  0  0  0  0  0
   -0.7299    1.1557    1.7969 C   0  0  0  0  0  0  0  0  0  0  0  0
    0.3325    0.8975    2.3467 O   0  0  0  0  0  0  0  0  0  0  0  0
   -2.0404    2.9128    3.0459 C   0  0  0  0  0  0  0  0  0  0  0  0
   -1.7200    0.9947    4.7035 H   0  0  0  0  0  0  0  0  0  0  0  0
   -2.8752    1.2430    1.9919 H   0  0  0  0  0  0  0  0  0  0  0  0
   -1.1825    3.1529    3.6831 H   0  0  0  0  0  0  0  0  0  0  0  0
   -2.0106    3.5640    2.1665 H   0  0  0  0  0  0  0  0  0  0  0  0
   -2.9590    3.1269    3.6017 H   0  0  0  0  0  0  0  0  0  0  0  0
   -0.7933    1.1252    0.4146 N   0  0  0  0  0  0  0  0  0  0  0  0
    0.3300    0.7650   -0.4743 C   0  0  2  0  0  0  0  0  0  0  0  0
    0.9438    1.9942   -1.1699 C   0  0  0  0  0  0  0  0  0  0  0  0
    1.1538    1.9796   -2.3753 O   0  0  0  0  0  0  0  0  0  0  0  0
   -0.1366   -0.3396   -1.4400 C   0  0  0  0  0  0  0  0  0  0  0  0
   -0.4709   -1.5653   -0.6261 C   0  0  0  0  0  0  0  0  0  0  0  0
    0.4437   -2.4391   -0.0364 N   0  3  0  0  0  0  0  0  0  0  0  0
   -1.7263   -1.9604   -0.2431 C   0  0  0  0  0  0  0  0  0  0  0  0
   -0.1849   -3.2993    0.7275 C   0  0  0  0  0  0  0  0  0  0  0  0
   -1.5480   -3.0403    0.6088 N   0  0  0  0  0  0  0  0  0  0  0  0
   -1.6670    1.4250   -0.0116 H   0  0  0  0  0  0  0  0  0  0  0  0
    1.1539    0.3503    0.1166 H   0  0  0  0  0  0  0  0  0  0  0  0
    0.6515   -0.5786   -2.1631 H   0  0  0  0  0  0  0  0  0  0  0  0
   -1.0070    0.0047   -2.0082 H   0  0  0  0  0  0  0  0  0  0  0  0
    1.4573   -2.3179   -0.1117 H   0  0  0  0  0  0  0  0  0  0  0  0
   -2.6680   -1.4697   -0.4840 H   0  0  0  0  0  0  0  0  0  0  0  0
    0.2744   -4.0560    1.3651 H   0  0  0  0  0  0  0  0  0  0  0  0
   -2.2818   -3.4282    1.2102 H   0  0  0  0  0  0  0  0  0  0  0  0
    1.2010    3.1355   -0.4349 N   0  0  0  0  0  0  0  0  0  0  0  0
    2.1129    4.1687   -0.9477 C   0  0  2  0  0  0  0  0  0  0  0  0
    3.5938    3.7440   -0.8233 C   0  0  0  0  0  0  0  0  0  0  0  0
    3.9165    2.8690   -0.0273 O   0  0  0  0  0  0  0  0  0  0  0  0
    1.8593    5.4534   -0.1557 C   0  0  0  0  0  0  0  0  0  0  0  0
    1.2271    2.9761    0.5711 H   0  0  0  0  0  0  0  0  0  0  0  0
    1.9006    4.3635   -2.0047 H   0  0  0  0  0  0  0  0  0  0  0  0
    2.0812    5.2994    0.9054 H   0  0  0  0  0  0  0  0  0  0  0  0
    2.4941    6.2637   -0.5279 H   0  0  0  0  0  0  0  0  0  0  0  0
    0.8137    5.7615   -0.2542 H   0  0  0  0  0  0  0  0  0  0  0  0
    4.5680    4.3518   -1.5926 N   0  0  0  0  0  0  0  0  0  0  0  0
    5.9765    3.9769   -1.5377 C   0  0  0  0  0  0  0  0  0  0  0  0
    4.2691    5.0360   -2.2814 H   0  0  0  0  0  0  0  0  0  0  0  0
    6.3786    4.1399   -0.5319 H   0  0  0  0  0  0  0  0  0  0  0  0
    6.1022    2.9209   -1.7997 H   0  0  0  0  0  0  0  0  0  0  0  0
    6.5578    4.5794   -2.2427 H   0  0  0  0  0  0  0  0  0  0  0  0
  1  2  2  0  0  0  0
  1  3  1  0  0  0  0
  1  7  1  0  0  0  0
  3  4  1  0  0  0  0
  3  5  1  0  0  0  0
  3  6  1  0  0  0  0
  7  8  1  0  0  0  0
  7 12  1  0  0  0  0
  8  9  1  0  0  0  0
  8 11  1  0  0  0  0
  8 13  1  0  0  0  0
  9 10  2  0  0  0  0
  9 17  1  0  0  0  0
 11 14  1  0  0  0  0
 11 15  1  0  0  0  0
 11 16  1  0  0  0  0
 17 18  1  0  0  0  0
 17 27  1  0  0  0  0
 18 19  1  0  0  0  0
 18 21  1  0  0  0  0
 18 28  1  0  0  0  0
 19 20  2  0  0  0  0
 19 35  1  0  0  0  0
 21 22  1  0  0  0  0
 21 29  1  0  0  0  0
 21 30  1  0  0  0  0
 22 23  1  0  0  0  0
 22 24  2  0  0  0  0
 23 25  2  0  0  0  0
 23 31  1  0  0  0  0
 24 26  1  0  0  0  0
 24 32  1  0  0  0  0
 25 26  1  0  0  0  0
 25 33  1  0  0  0  0
 26 34  1  0  0  0  0
 35 36  1  0  0  0  0
 35 40  1  0  0  0  0
 36 37  1  0  0  0  0
 36 39  1  0  0  0  0
 36 41  1  0  0  0  0
 37 38  2  0  0  0  0
 37 45  1  0  0  0  0
 39 42  1  0  0  0  0
 39 43  1  0  0  0  0
 39 44  1  0  0  0  0
 45 46  1  0  0  0  0
 45 47  1  0  0  0  0
 46 48  1  0  0  0  0
 46 49  1  0  0  0  0
 46 50  1  0  0  0  0
M  CHG  1  23   1
M  END
$$$$

  -OEChem-05262216443D

 50 50  0     1  0  0  0  0  0999 V2000
   -2.3513   -0.7827    3.8018 C   0  0  0  0  0  0  0  0  0  0  0  0
   -2.6116   -1.3268    2.7343 O   0  0  0  0  0  0  0  0  0  0  0  0
   -2.2694   -1.6085    5.0710 C   0  0  0  0  0  0  0  0  0  0  0  0
   -2.6569   -2.6156    4.8946 H   0  0  0  0  0  0  0  0  0  0  0  0
   -1.2306   -1.6808    5.4027 H   0  0  0  0  0  0  0  0  0  0  0  0
   -2.8633   -1.1408    5.8604 H   0  0  0  0  0  0  0  0  0  0  0  0
   -2.0964    0.5727    3.8503 N   0  0  0  0  0  0  0  0  0  0  0  0
   -2.0310    1.4274    2.6575 C   0  0  2  0  0  0  0  0  0  0  0  0
   -0.7492    1.2028    1.8247 C   0  0  0  0  0  0  0  0  0  0  0  0
    0.3255    0.9831    2.3691 O   0  0  0  0  0  0  0  0  0  0  0  0
   -2.1179    2.8853    3.1154 C   0  0  0  0  0  0  0  0  0  0  0  0
   -1.7237    0.9377    4.7236 H   0  0  0  0  0  0  0  0  0  0  0  0
   -2.8958    1.2144    2.0201 H   0  0  0  0  0  0  0  0  0  0  0  0
   -1.2584    3.1439    3.7428 H   0  0  0  0  0  0  0  0  0  0  0  0
   -2.1301    3.5573    2.2514 H   0  0  0  0  0  0  0  0  0  0  0  0
   -3.0335    3.0504    3.6926 H   0  0  0  0  0  0  0  0  0  0  0  0
   -0.8146    1.1889    0.4425 N   0  0  0  0  0  0  0  0  0  0  0  0
    0.3175    0.8651   -0.4465 C   0  0  2  0  0  0  0  0  0  0  0  0
    0.8950    2.1221   -1.1173 C   0  0  0  0  0  0  0  0  0  0  0  0
    0.9264    2.2184   -2.3369 O   0  0  0  0  0  0  0  0  0  0  0  0
   -0.1207   -0.2270   -1.4390 C   0  0  0  0  0  0  0  0  0  0  0  0
   -0.4385   -1.4772   -0.6572 C   0  0  0  0  0  0  0  0  0  0  0  0
    0.4878   -2.3471   -0.0805 N   0  3  0  0  0  0  0  0  0  0  0  0
   -1.6895   -1.9077   -0.2993 C   0  0  0  0  0  0  0  0  0  0  0  0
   -0.1305   -3.2406    0.6528 C   0  0  0  0  0  0  0  0  0  0  0  0
   -1.4973   -3.0055    0.5267 N   0  0  0  0  0  0  0  0  0  0  0  0
   -1.6970    1.4677    0.0200 H   0  0  0  0  0  0  0  0  0  0  0  0
    1.1497    0.4545    0.1357 H   0  0  0  0  0  0  0  0  0  0  0  0
    0.6775   -0.4312   -2.1619 H   0  0  0  0  0  0  0  0  0  0  0  0
   -0.9939    0.1130   -2.0060 H   0  0  0  0  0  0  0  0  0  0  0  0
    1.4994   -2.2047   -0.1445 H   0  0  0  0  0  0  0  0  0  0  0  0
   -2.6385   -1.4312   -0.5401 H   0  0  0  0  0  0  0  0  0  0  0  0
    0.3379   -4.0058    1.2734 H   0  0  0  0  0  0  0  0  0  0  0  0
   -2.2289   -3.4258    1.1085 H   0  0  0  0  0  0  0  0  0  0  0  0
    1.4021    3.1307   -0.3224 N   0  0  0  0  0  0  0  0  0  0  0  0
    2.3897    4.0763   -0.8606 C   0  0  2  0  0  0  0  0  0  0  0  0
    3.7883    3.4307   -0.9989 C   0  0  0  0  0  0  0  0  0  0  0  0
    4.0565    2.4016   -0.3865 O   0  0  0  0  0  0  0  0  0  0  0  0
    2.4446    5.2809    0.0817 C   0  0  0  0  0  0  0  0  0  0  0  0
    1.5183    2.8668    0.6553 H   0  0  0  0  0  0  0  0  0  0  0  0
    2.0735    4.4219   -1.8511 H   0  0  0  0  0  0  0  0  0  0  0  0
    2.7689    4.9718    1.0809 H   0  0  0  0  0  0  0  0  0  0  0  0
    3.1482    6.0303   -0.2942 H   0  0  0  0  0  0  0  0  0  0  0  0
    1.4570    5.7457    0.1627 H   0  0  0  0  0  0  0  0  0  0  0  0
    4.7487    4.0038   -1.8110 N   0  0  0  0  0  0  0  0  0  0  0  0
    6.0731    3.4267   -2.0128 C   0  0  0  0  0  0  0  0  0  0  0  0
    4.4837    4.8229   -2.3506 H   0  0  0  0  0  0  0  0  0  0  0  0
    6.5954    3.3195   -1.0560 H   0  0  0  0  0  0  0  0  0  0  0  0
    5.9942    2.4408   -2.4829 H   0  0  0  0  0  0  0  0  0  0  0  0
    6.6732    4.0720   -2.6617 H   0  0  0  0  0  0  0  0  0  0  0  0
  1  2  2  0  0  0  0
  1  3  1  0  0  0  0
  1  7  1  0  0  0  0
  3  4  1  0  0  0  0
  3  5  1  0  0  0  0
  3  6  1  0  0  0  0
  7  8  1  0  0  0  0
  7 12  1  0  0  0  0
  8  9  1  0  0  0  0
  8 11  1  0  0  0  0
  8 13  1  0  0  0  0
  9 10  2  0  0  0  0
  9 17  1  0  0  0  0
 11 14  1  0  0  0  0
 11 15  1  0  0  0  0
 11 16  1  0  0  0  0
 17 18  1  0  0  0  0
 17 27  1  0  0  0  0
 18 19  1  0  0  0  0
 18 21  1  0  0  0  0
 18 28  1  0  0  0  0
 19 20  2  0  0  0  0
 19 35  1  0  0  0  0
 21 22  1  0  0  0  0
 21 29  1  0  0  0  0
 21 30  1  0  0  0  0
 22 23  1  0  0  0  0
 22 24  2  0  0  0  0
 23 25  2  0  0  0  0
 23 31  1  0  0  0  0
 24 26  1  0  0  0  0
 24 32  1  0  0  0  0
 25 26  1  0  0  0  0
 25 33  1  0  0  0  0
 26 34  1  0  0  0  0
 35 36  1  0  0  0  0
 35 40  1  0  0  0  0
 36 37  1  0  0  0  0
 36 39  1  0  0  0  0
 36 41  1  0  0  0  0
 37 38  2  0  0  0  0
 37 45  1  0  0  0  0
 39 42  1  0  0  0  0
 39 43  1  0  0  0  0
 39 44  1  0  0  0  0
 45 46  1  0  0  0  0
 45 47  1  0  0  0  0
 46 48  1  0  0  0  0
 46 49  1  0  0  0  0
 46 50  1  0  0  0  0
M  CHG  1  23   1
M  END
$$$$

  -OEChem-05262216443D

 50 50  0     1  0  0  0  0  0999 V2000
   -2.2427   -0.8808    3.8135 C   0  0  0  0  0  0  0  0  0  0  0  0
   -2.4962   -1.4236    2.7435 O   0  0  0  0  0  0  0  0  0  0  0  0
   -2.0726   -1.7181    5.0665 C   0  0  0  0  0  0  0  0  0  0  0  0
   -2.3246   -2.7623    4.8630 H   0  0  0  0  0  0  0  0  0  0  0  0
   -1.0377   -1.6648    5.4137 H   0  0  0  0  0  0  0  0  0  0  0  0
   -2.7321   -1.3466    5.8550 H   0  0  0  0  0  0  0  0  0  0  0  0
   -2.0782    0.4877    3.8811 N   0  0  0  0  0  0  0  0  0  0  0  0
   -2.0884    1.3633    2.7016 C   0  0  2  0  0  0  0  0  0  0  0  0
   -0.8030    1.2486    1.8512 C   0  0  0  0  0  0  0  0  0  0  0  0
    0.2848    1.0399    2.3752 O   0  0  0  0  0  0  0  0  0  0  0  0
   -2.2774    2.8028    3.1848 C   0  0  0  0  0  0  0  0  0  0  0  0
   -1.7070    0.8601    4.7520 H   0  0  0  0  0  0  0  0  0  0  0  0
   -2.9426    1.0968    2.0701 H   0  0  0  0  0  0  0  0  0  0  0  0
   -1.4300    3.1154    3.8043 H   0  0  0  0  0  0  0  0  0  0  0  0
   -2.3532    3.4853    2.3325 H   0  0  0  0  0  0  0  0  0  0  0  0
   -3.1939    2.8903    3.7774 H   0  0  0  0  0  0  0  0  0  0  0  0
   -0.8802    1.3041    0.4705 N   0  0  0  0  0  0  0  0  0  0  0  0
    0.2531    1.0550   -0.4394 C   0  0  2  0  0  0  0  0  0  0  0  0
    0.8033    2.3500   -1.0547 C   0  0  0  0  0  0  0  0  0  0  0  0
    0.6705    2.5769   -2.2499 O   0  0  0  0  0  0  0  0  0  0  0  0
   -0.1588   -0.0010   -1.4798 C   0  0  0  0  0  0  0  0  0  0  0  0
   -0.4315   -1.2918   -0.7494 C   0  0  0  0  0  0  0  0  0  0  0  0
    0.5318   -2.1512   -0.2194 N   0  3  0  0  0  0  0  0  0  0  0  0
   -1.6623   -1.7718   -0.3849 C   0  0  0  0  0  0  0  0  0  0  0  0
   -0.0457   -3.0867    0.4945 C   0  0  0  0  0  0  0  0  0  0  0  0
   -1.4214   -2.8899    0.4004 N   0  0  0  0  0  0  0  0  0  0  0  0
   -1.7738    1.5751    0.0666 H   0  0  0  0  0  0  0  0  0  0  0  0
    1.0969    0.6339    0.1179 H   0  0  0  0  0  0  0  0  0  0  0  0
    0.6402   -0.1462   -2.2159 H   0  0  0  0  0  0  0  0  0  0  0  0
   -1.0475    0.3368   -2.0239 H   0  0  0  0  0  0  0  0  0  0  0  0
    1.5374   -1.9730   -0.2948 H   0  0  0  0  0  0  0  0  0  0  0  0
   -2.6287   -1.3140   -0.5903 H   0  0  0  0  0  0  0  0  0  0  0  0
    0.4565   -3.8561    1.0824 H   0  0  0  0  0  0  0  0  0  0  0  0
   -2.1261   -3.3405    0.9930 H   0  0  0  0  0  0  0  0  0  0  0  0
    1.5703    3.1804   -0.2620 N   0  0  0  0  0  0  0  0  0  0  0  0
    2.6640    3.9572   -0.8610 C   0  0  2  0  0  0  0  0  0  0  0  0
    3.8724    3.0608   -1.2256 C   0  0  0  0  0  0  0  0  0  0  0  0
    3.9465    1.9129   -0.7935 O   0  0  0  0  0  0  0  0  0  0  0  0
    3.0736    5.0359    0.1445 C   0  0  0  0  0  0  0  0  0  0  0  0
    1.7449    2.8112    0.6717 H   0  0  0  0  0  0  0  0  0  0  0  0
    2.3154    4.4482   -1.7763 H   0  0  0  0  0  0  0  0  0  0  0  0
    3.4479    4.5799    1.0669 H   0  0  0  0  0  0  0  0  0  0  0  0
    3.8616    5.6705   -0.2728 H   0  0  0  0  0  0  0  0  0  0  0  0
    2.2157    5.6694    0.3909 H   0  0  0  0  0  0  0  0  0  0  0  0
    4.8789    3.5405   -2.0429 N   0  0  0  0  0  0  0  0  0  0  0  0
    6.0351    2.7462   -2.4432 C   0  0  0  0  0  0  0  0  0  0  0  0
    4.7726    4.4765   -2.4241 H   0  0  0  0  0  0  0  0  0  0  0  0
    6.5875    2.4017   -1.5625 H   0  0  0  0  0  0  0  0  0  0  0  0
    5.7190    1.8734   -3.0245 H   0  0  0  0  0  0  0  0  0  0  0  0
    6.7118    3.3459   -3.0602 H   0  0  0  0  0  0  0  0  0  0  0  0
  1  2  2  0  0  0  0
  1  3  1  0  0  0  0
  1  7  1  0  0  0  0
  3  4  1  0  0  0  0
  3  5  1  0  0  0  0
  3  6  1  0  0  0  0
  7  8  1  0  0  0  0
  7 12  1  0  0  0  0
  8  9  1  0  0  0  0
  8 11  1  0  0  0  0
  8 13  1  0  0  0  0
  9 10  2  0  0  0  0
  9 17  1  0  0  0  0
 11 14  1  0  0  0  0
 11 15  1  0  0  0  0
 11 16  1  0  0  0  0
 17 18  1  0  0  0  0
 17 27  1  0  0  0  0
 18 19  1  0  0  0  0
 18 21  1  0  0  0  0
 18 28  1  0  0  0  0
 19 20  2  0  0  0  0
 19 35  1  0  0  0  0
 21 22  1  0  0  0  0
 21 29  1  0  0  0  0
 21 30  1  0  0  0  0
 22 23  1  0  0  0  0
 22 24  2  0  0  0  0
 23 25  2  0  0  0  0
 23 31  1  0  0  0  0
 24 26  1  0  0  0  0
 24 32  1  0  0  0  0
 25 26  1  0  0  0  0
 25 33  1  0  0  0  0
 26 34  1  0  0  0  0
 35 36  1  0  0  0  0
 35 40  1  0  0  0  0
 36 37  1  0  0  0  0
 36 39  1  0  0  0  0
 36 41  1  0  0  0  0
 37 38  2  0  0  0  0
 37 45  1  0  0  0  0
 39 42  1  0  0  0  0
 39 43  1  0  0  0  0
 39 44  1  0  0  0  0
 45 46  1  0  0  0  0
 45 47  1  0  0  0  0
 46 48  1  0  0  0  0
 46 49  1  0  0  0  0
 46 50  1  0  0  0  0
M  CHG  1  23   1
M  END
$$$$

  -OEChem-05262216443D

 50 50  0     1  0  0  0  0  0999 V2000
   -2.2108   -0.9872    3.7351 C   0  0  0  0  0  0  0  0  0  0  0  0
   -2.4469   -1.4636    2.6302 O   0  0  0  0  0  0  0  0  0  0  0  0
   -2.0173   -1.9039    4.9275 C   0  0  0  0  0  0  0  0  0  0  0  0
   -2.2357   -2.9390    4.6514 H   0  0  0  0  0  0  0  0  0  0  0  0
   -0.9853   -1.8434    5.2821 H   0  0  0  0  0  0  0  0  0  0  0  0
   -2.6894   -1.6096    5.7377 H   0  0  0  0  0  0  0  0  0  0  0  0
   -2.0824    0.3775    3.8964 N   0  0  0  0  0  0  0  0  0  0  0  0
   -2.1068    1.3307    2.7784 C   0  0  2  0  0  0  0  0  0  0  0  0
   -0.8198    1.2950    1.9237 C   0  0  0  0  0  0  0  0  0  0  0  0
    0.2690    1.0563    2.4337 O   0  0  0  0  0  0  0  0  0  0  0  0
   -2.3204    2.7312    3.3567 C   0  0  0  0  0  0  0  0  0  0  0  0
   -1.7202    0.6979    4.7913 H   0  0  0  0  0  0  0  0  0  0  0  0
   -2.9555    1.0931    2.1279 H   0  0  0  0  0  0  0  0  0  0  0  0
   -1.4881    3.0088    4.0122 H   0  0  0  0  0  0  0  0  0  0  0  0
   -2.3888    3.4708    2.5526 H   0  0  0  0  0  0  0  0  0  0  0  0
   -3.2486    2.7663    3.9360 H   0  0  0  0  0  0  0  0  0  0  0  0
   -0.8987    1.4425    0.5496 N   0  0  0  0  0  0  0  0  0  0  0  0
    0.2429    1.2878   -0.3698 C   0  0  2  0  0  0  0  0  0  0  0  0
    0.7693    2.6276   -0.9031 C   0  0  0  0  0  0  0  0  0  0  0  0
    0.4930    2.9905   -2.0389 O   0  0  0  0  0  0  0  0  0  0  0  0
   -0.1273    0.2936   -1.4830 C   0  0  0  0  0  0  0  0  0  0  0  0
   -0.3598   -1.0485   -0.8393 C   0  0  0  0  0  0  0  0  0  0  0  0
    0.6340   -1.9020   -0.3609 N   0  3  0  0  0  0  0  0  0  0  0  0
   -1.5729   -1.5875   -0.5010 C   0  0  0  0  0  0  0  0  0  0  0  0
    0.0900   -2.8902    0.3067 C   0  0  0  0  0  0  0  0  0  0  0  0
   -1.2923   -2.7363    0.2242 N   0  0  0  0  0  0  0  0  0  0  0  0
   -1.7927    1.7391    0.1643 H   0  0  0  0  0  0  0  0  0  0  0  0
    1.0930    0.8475    0.1626 H   0  0  0  0  0  0  0  0  0  0  0  0
    0.6820    0.2248   -2.2194 H   0  0  0  0  0  0  0  0  0  0  0  0
   -1.0232    0.6373   -2.0111 H   0  0  0  0  0  0  0  0  0  0  0  0
    1.6324   -1.6807   -0.4240 H   0  0  0  0  0  0  0  0  0  0  0  0
   -2.5538   -1.1487   -0.6761 H   0  0  0  0  0  0  0  0  0  0  0  0
    0.6196   -3.6678    0.8583 H   0  0  0  0  0  0  0  0  0  0  0  0
   -1.9785   -3.2322    0.8027 H   0  0  0  0  0  0  0  0  0  0  0  0
    1.7610    3.2660   -0.1857 N   0  0  0  0  0  0  0  0  0  0  0  0
    2.9094    3.8281   -0.9086 C   0  0  2  0  0  0  0  0  0  0  0  0
    3.8330    2.7139   -1.4624 C   0  0  0  0  0  0  0  0  0  0  0  0
    3.6811    1.5442   -1.1113 O   0  0  0  0  0  0  0  0  0  0  0  0
    3.6705    4.7358    0.0608 C   0  0  0  0  0  0  0  0  0  0  0  0
    1.9819    2.8075    0.6967 H   0  0  0  0  0  0  0  0  0  0  0  0
    2.5603    4.4337   -1.7525 H   0  0  0  0  0  0  0  0  0  0  0  0
    4.0554    4.1576    0.9072 H   0  0  0  0  0  0  0  0  0  0  0  0
    4.5146    5.2163   -0.4437 H   0  0  0  0  0  0  0  0  0  0  0  0
    3.0091    5.5192    0.4449 H   0  0  0  0  0  0  0  0  0  0  0  0
    4.8275    3.0189   -2.3721 N   0  0  0  0  0  0  0  0  0  0  0  0
    5.7102    2.0195   -2.9630 C   0  0  0  0  0  0  0  0  0  0  0  0
    4.9005    3.9830   -2.6860 H   0  0  0  0  0  0  0  0  0  0  0  0
    6.2600    1.4826   -2.1824 H   0  0  0  0  0  0  0  0  0  0  0  0
    5.1323    1.2966   -3.5484 H   0  0  0  0  0  0  0  0  0  0  0  0
    6.4366    2.4998   -3.6261 H   0  0  0  0  0  0  0  0  0  0  0  0
  1  2  2  0  0  0  0
  1  3  1  0  0  0  0
  1  7  1  0  0  0  0
  3  4  1  0  0  0  0
  3  5  1  0  0  0  0
  3  6  1  0  0  0  0
  7  8  1  0  0  0  0
  7 12  1  0  0  0  0
  8  9  1  0  0  0  0
  8 11  1  0  0  0  0
  8 13  1  0  0  0  0
  9 10  2  0  0  0  0
  9 17  1  0  0  0  0
 11 14  1  0  0  0  0
 11 15  1  0  0  0  0
 11 16  1  0  0  0  0
 17 18  1  0  0  0  0
 17 27  1  0  0  0  0
 18 19  1  0  0  0  0
 18 21  1  0  0  0  0
 18 28  1  0  0  0  0
 19 20  2  0  0  0  0
 19 35  1  0  0  0  0
 21 22  1  0  0  0  0
 21 29  1  0  0  0  0
 21 30  1  0  0  0  0
 22 23  1  0  0  0  0
 22 24  2  0  0  0  0
 23 25  2  0  0  0  0
 23 31  1  0  0  0  0
 24 26  1  0  0  0  0
 24 32  1  0  0  0  0
 25 26  1  0  0  0  0
 25 33  1  0  0  0  0
 26 34  1  0  0  0  0
 35 36  1  0  0  0  0
 35 40  1  0  0  0  0
 36 37  1  0  0  0  0
 36 39  1  0  0  0  0
 36 41  1  0  0  0  0
 37 38  2  0  0  0  0
 37 45  1  0  0  0  0
 39 42  1  0  0  0  0
 39 43  1  0  0  0  0
 39 44  1  0  0  0  0
 45 46  1  0  0  0  0
 45 47  1  0  0  0  0
 46 48  1  0  0  0  0
 46 49  1  0  0  0  0
 46 50  1  0  0  0  0
M  CHG  1  23   1
M  END
$$$$

  -OEChem-05262216443D

 50 50  0     1  0  0  0  0  0999 V2000
   -2.2255   -1.0836    3.6434 C   0  0  0  0  0  0  0  0  0  0  0  0
   -2.4305   -1.4783    2.5004 O   0  0  0  0  0  0  0  0  0  0  0  0
   -2.0790   -2.0831    4.7748 C   0  0  0  0  0  0  0  0  0  0  0  0
   -2.2373   -3.1006    4.4073 H   0  0  0  0  0  0  0  0  0  0  0  0
   -1.0766   -2.0150    5.2051 H   0  0  0  0  0  0  0  0  0  0  0  0
   -2.8159   -1.8745    5.5550 H   0  0  0  0  0  0  0  0  0  0  0  0
   -2.0959    0.2650    3.9075 N   0  0  0  0  0  0  0  0  0  0  0  0
   -2.0863    1.2981    2.8627 C   0  0  2  0  0  0  0  0  0  0  0  0
   -0.7909    1.3034    2.0199 C   0  0  0  0  0  0  0  0  0  0  0  0
    0.2828    0.9738    2.5117 O   0  0  0  0  0  0  0  0  0  0  0  0
   -2.2787    2.6560    3.5409 C   0  0  0  0  0  0  0  0  0  0  0  0
   -1.7654    0.5183    4.8356 H   0  0  0  0  0  0  0  0  0  0  0  0
   -2.9315    1.1255    2.1880 H   0  0  0  0  0  0  0  0  0  0  0  0
   -1.4461    2.8679    4.2199 H   0  0  0  0  0  0  0  0  0  0  0  0
   -2.3261    3.4540    2.7930 H   0  0  0  0  0  0  0  0  0  0  0  0
   -3.2103    2.6668    4.1159 H   0  0  0  0  0  0  0  0  0  0  0  0
   -0.8536    1.5811    0.6651 N   0  0  0  0  0  0  0  0  0  0  0  0
    0.2946    1.5005   -0.2545 C   0  0  2  0  0  0  0  0  0  0  0  0
    0.8622    2.8642   -0.6720 C   0  0  0  0  0  0  0  0  0  0  0  0
    0.4644    3.3976   -1.6990 O   0  0  0  0  0  0  0  0  0  0  0  0
   -0.0716    0.6156   -1.4574 C   0  0  0  0  0  0  0  0  0  0  0  0
   -0.3175   -0.7746   -0.9363 C   0  0  0  0  0  0  0  0  0  0  0  0
    0.6802   -1.6601   -0.5319 N   0  3  0  0  0  0  0  0  0  0  0  0
   -1.5285   -1.3349   -0.6275 C   0  0  0  0  0  0  0  0  0  0  0  0
    0.1416   -2.6960    0.0635 C   0  0  0  0  0  0  0  0  0  0  0  0
   -1.2417   -2.5354    0.0062 N   0  0  0  0  0  0  0  0  0  0  0  0
   -1.7309    1.9526    0.3071 H   0  0  0  0  0  0  0  0  0  0  0  0
    1.1263    0.9948    0.2473 H   0  0  0  0  0  0  0  0  0  0  0  0
    0.7434    0.6065   -2.1902 H   0  0  0  0  0  0  0  0  0  0  0  0
   -0.9610    1.0118   -1.9586 H   0  0  0  0  0  0  0  0  0  0  0  0
    1.6783   -1.4338   -0.5937 H   0  0  0  0  0  0  0  0  0  0  0  0
   -2.5093   -0.8792   -0.7528 H   0  0  0  0  0  0  0  0  0  0  0  0
    0.6766   -3.5133    0.5484 H   0  0  0  0  0  0  0  0  0  0  0  0
   -1.9222   -3.0707    0.5553 H   0  0  0  0  0  0  0  0  0  0  0  0
    2.0548    3.2612   -0.1002 N   0  0  0  0  0  0  0  0  0  0  0  0
    3.1622    3.6389   -0.9879 C   0  0  2  0  0  0  0  0  0  0  0  0
    3.7390    2.4096   -1.7367 C   0  0  0  0  0  0  0  0  0  0  0  0
    3.4141    1.2658   -1.4132 O   0  0  0  0  0  0  0  0  0  0  0  0
    4.2398    4.3059   -0.1295 C   0  0  0  0  0  0  0  0  0  0  0  0
    2.3226    2.6960    0.7030 H   0  0  0  0  0  0  0  0  0  0  0  0
    2.8132    4.3627   -1.7332 H   0  0  0  0  0  0  0  0  0  0  0  0
    4.6319    3.6029    0.6128 H   0  0  0  0  0  0  0  0  0  0  0  0
    5.0703    4.6504   -0.7535 H   0  0  0  0  0  0  0  0  0  0  0  0
    3.8233    5.1715    0.3957 H   0  0  0  0  0  0  0  0  0  0  0  0
    4.6136    2.5853   -2.7917 N   0  0  0  0  0  0  0  0  0  0  0  0
    5.1844    1.4841   -3.5589 C   0  0  0  0  0  0  0  0  0  0  0  0
    4.8346    3.5389   -3.0671 H   0  0  0  0  0  0  0  0  0  0  0  0
    5.7463    0.8102   -2.9035 H   0  0  0  0  0  0  0  0  0  0  0  0
    4.3941    0.9140   -4.0585 H   0  0  0  0  0  0  0  0  0  0  0  0
    5.8676    1.8689   -4.3226 H   0  0  0  0  0  0  0  0  0  0  0  0
  1  2  2  0  0  0  0
  1  3  1  0  0  0  0
  1  7  1  0  0  0  0
  3  4  1  0  0  0  0
  3  5  1  0  0  0  0
  3  6  1  0  0  0  0
  7  8  1  0  0  0  0
  7 12  1  0  0  0  0
  8  9  1  0  0  0  0
  8 11  1  0  0  0  0
  8 13  1  0  0  0  0
  9 10  2  0  0  0  0
  9 17  1  0  0  0  0
 11 14  1  0  0  0  0
 11 15  1  0  0  0  0
 11 16  1  0  0  0  0
 17 18  1  0  0  0  0
 17 27  1  0  0  0  0
 18 19  1  0  0  0  0
 18 21  1  0  0  0  0
 18 28  1  0  0  0  0
 19 20  2  0  0  0  0
 19 35  1  0  0  0  0
 21 22  1  0  0  0  0
 21 29  1  0  0  0  0
 21 30  1  0  0  0  0
 22 23  1  0  0  0  0
 22 24  2  0  0  0  0
 23 25  2  0  0  0  0
 23 31  1  0  0  0  0
 24 26  1  0  0  0  0
 24 32  1  0  0  0  0
 25 26  1  0  0  0  0
 25 33  1  0  0  0  0
 26 34  1  0  0  0  0
 35 36  1  0  0  0  0
 35 40  1  0  0  0  0
 36 37  1  0  0  0  0
 36 39  1  0  0  0  0
 36 41  1  0  0  0  0
 37 38  2  0  0  0  0
 37 45  1  0  0  0  0
 39 42  1  0  0  0  0
 39 43  1  0  0  0  0
 39 44  1  0  0  0  0
 45 46  1  0  0  0  0
 45 47  1  0  0  0  0
 46 48  1  0  0  0  0
 46 49  1  0  0  0  0
 46 50  1  0  0  0  0
M  CHG  1  23   1
M  END
$$$$

  -OEChem-05262216443D

 50 50  0     1  0  0  0  0  0999 V2000
   -2.5066   -0.9850    3.5874 C   0  0  0  0  0  0  0  0  0  0  0  0
   -2.7045   -1.2908    2.4163 O   0  0  0  0  0  0  0  0  0  0  0  0
   -2.5849   -2.0450    4.6692 C   0  0  0  0  0  0  0  0  0  0  0  0
   -2.9005   -3.0011    4.2431 H   0  0  0  0  0  0  0  0  0  0  0  0
   -1.6063   -2.1730    5.1384 H   0  0  0  0  0  0  0  0  0  0  0  0
   -3.3086   -1.7464    5.4320 H   0  0  0  0  0  0  0  0  0  0  0  0
   -2.1816    0.3119    3.9304 N   0  0  0  0  0  0  0  0  0  0  0  0
   -1.9575    1.3789    2.9460 C   0  0  2  0  0  0  0  0  0  0  0  0
   -0.6557    1.1932    2.1344 C   0  0  0  0  0  0  0  0  0  0  0  0
    0.3436    0.7009    2.6470 O   0  0  0  0  0  0  0  0  0  0  0  0
   -1.9273    2.7130    3.6950 C   0  0  0  0  0  0  0  0  0  0  0  0
   -1.8695    0.4672    4.8858 H   0  0  0  0  0  0  0  0  0  0  0  0
   -2.7984    1.3943    2.2445 H   0  0  0  0  0  0  0  0  0  0  0  0
   -1.0908    2.7385    4.4013 H   0  0  0  0  0  0  0  0  0  0  0  0
   -1.8115    3.5442    2.9921 H   0  0  0  0  0  0  0  0  0  0  0  0
   -2.8586    2.8605    4.2509 H   0  0  0  0  0  0  0  0  0  0  0  0
   -0.6508    1.4645    0.7778 N   0  0  0  0  0  0  0  0  0  0  0  0
    0.5189    1.2921   -0.0993 C   0  0  2  0  0  0  0  0  0  0  0  0
    1.1744    2.6262   -0.4839 C   0  0  0  0  0  0  0  0  0  0  0  0
    0.6109    3.3529   -1.2915 O   0  0  0  0  0  0  0  0  0  0  0  0
    0.0902    0.4848   -1.3364 C   0  0  0  0  0  0  0  0  0  0  0  0
   -0.3287   -0.8872   -0.8744 C   0  0  0  0  0  0  0  0  0  0  0  0
    0.5259   -1.9126   -0.4709 N   0  3  0  0  0  0  0  0  0  0  0  0
   -1.6138   -1.2957   -0.6295 C   0  0  0  0  0  0  0  0  0  0  0  0
   -0.1673   -2.8915    0.0584 C   0  0  0  0  0  0  0  0  0  0  0  0
   -1.5137   -2.5466   -0.0387 N   0  0  0  0  0  0  0  0  0  0  0  0
   -1.4400    1.9947    0.4138 H   0  0  0  0  0  0  0  0  0  0  0  0
    1.2922    0.7118    0.4136 H   0  0  0  0  0  0  0  0  0  0  0  0
    0.9183    0.4059   -2.0500 H   0  0  0  0  0  0  0  0  0  0  0  0
   -0.7347    0.9927   -1.8478 H   0  0  0  0  0  0  0  0  0  0  0  0
    1.5459   -1.8283   -0.4998 H   0  0  0  0  0  0  0  0  0  0  0  0
   -2.5216   -0.7105   -0.7684 H   0  0  0  0  0  0  0  0  0  0  0  0
    0.2355   -3.7934    0.5206 H   0  0  0  0  0  0  0  0  0  0  0  0
   -2.2846   -3.0177    0.4454 H   0  0  0  0  0  0  0  0  0  0  0  0
    2.4930    2.8546   -0.1418 N   0  0  0  0  0  0  0  0  0  0  0  0
    3.4038    3.4320   -1.1388 C   0  0  2  0  0  0  0  0  0  0  0  0
    3.7922    2.3851   -2.2108 C   0  0  0  0  0  0  0  0  0  0  0  0
    3.5462    1.1929   -2.0291 O   0  0  0  0  0  0  0  0  0  0  0  0
    4.6443    3.9433   -0.4033 C   0  0  0  0  0  0  0  0  0  0  0  0
    2.8985    2.1340    0.4503 H   0  0  0  0  0  0  0  0  0  0  0  0
    2.9248    4.2796   -1.6419 H   0  0  0  0  0  0  0  0  0  0  0  0
    5.1634    3.1194    0.0970 H   0  0  0  0  0  0  0  0  0  0  0  0
    5.3389    4.4156   -1.1049 H   0  0  0  0  0  0  0  0  0  0  0  0
    4.3585    4.6848    0.3496 H   0  0  0  0  0  0  0  0  0  0  0  0
    4.4001    2.7785   -3.3877 N   0  0  0  0  0  0  0  0  0  0  0  0
    4.7564    1.8524   -4.4564 C   0  0  0  0  0  0  0  0  0  0  0  0
    4.5547    3.7733   -3.5306 H   0  0  0  0  0  0  0  0  0  0  0  0
    5.4558    1.0939   -4.0892 H   0  0  0  0  0  0  0  0  0  0  0  0
    3.8629    1.3512   -4.8433 H   0  0  0  0  0  0  0  0  0  0  0  0
    5.2339    2.3906   -5.2811 H   0  0  0  0  0  0  0  0  0  0  0  0
  1  2  2  0  0  0  0
  1  3  1  0  0  0  0
  1  7  1  0  0  0  0
  3  4  1  0  0  0  0
  3  5  1  0  0  0  0
  3  6  1  0  0  0  0
  7  8  1  0  0  0  0
  7 12  1  0  0  0  0
  8  9  1  0  0  0  0
  8 11  1  0  0  0  0
  8 13  1  0  0  0  0
  9 10  2  0  0  0  0
  9 17  1  0  0  0  0
 11 14  1  0  0  0  0
 11 15  1  0  0  0  0
 11 16  1  0  0  0  0
 17 18  1  0  0  0  0
 17 27  1  0  0  0  0
 18 19  1  0  0  0  0
 18 21  1  0  0  0  0
 18 28  1  0  0  0  0
 19 20  2  0  0  0  0
 19 35  1  0  0  0  0
 21 22  1  0  0  0  0
 21 29  1  0  0  0  0
 21 30  1  0  0  0  0
 22 23  1  0  0  0  0
 22 24  2  0  0  0  0
 23 25  2  0  0  0  0
 23 31  1  0  0  0  0
 24 26  1  0  0  0  0
 24 32  1  0  0  0  0
 25 26  1  0  0  0  0
 25 33  1  0  0  0  0
 26 34  1  0  0  0  0
 35 36  1  0  0  0  0
 35 40  1  0  0  0  0
 36 37  1  0  0  0  0
 36 39  1  0  0  0  0
 36 41  1  0  0  0  0
 37 38  2  0  0  0  0
 37 45  1  0  0  0  0
 39 42  1  0  0  0  0
 39 43  1  0  0  0  0
 39 44  1  0  0  0  0
 45 46  1  0  0  0  0
 45 47  1  0  0  0  0
 46 48  1  0  0  0  0
 46 49  1  0  0  0  0
 46 50  1  0  0  0  0
M  CHG  1  23   1
M  END
$$$$

  -OEChem-05262216443D

 50 50  0     1  0  0  0  0  0999 V2000
   -2.6253   -0.8724    3.5658 C   0  0  0  0  0  0  0  0  0  0  0  0
   -2.8471   -1.1257    2.3867 O   0  0  0  0  0  0  0  0  0  0  0  0
   -2.7971   -1.9541    4.6146 C   0  0  0  0  0  0  0  0  0  0  0  0
   -3.1886   -2.8673    4.1585 H   0  0  0  0  0  0  0  0  0  0  0  0
   -1.8348   -2.1778    5.0823 H   0  0  0  0  0  0  0  0  0  0  0  0
   -3.4980   -1.6190    5.3835 H   0  0  0  0  0  0  0  0  0  0  0  0
   -2.1814    0.3782    3.9458 N   0  0  0  0  0  0  0  0  0  0  0  0
   -1.8354    1.4370    2.9878 C   0  0  2  0  0  0  0  0  0  0  0  0
   -0.5480    1.1307    2.1897 C   0  0  0  0  0  0  0  0  0  0  0  0
    0.3873    0.5308    2.7086 O   0  0  0  0  0  0  0  0  0  0  0  0
   -1.6796    2.7465    3.7640 C   0  0  0  0  0  0  0  0  0  0  0  0
   -1.8520    0.4730    4.9033 H   0  0  0  0  0  0  0  0  0  0  0  0
   -2.6593    1.5529    2.2754 H   0  0  0  0  0  0  0  0  0  0  0  0
   -0.8559    2.6725    4.4817 H   0  0  0  0  0  0  0  0  0  0  0  0
   -1.4682    3.5746    3.0796 H   0  0  0  0  0  0  0  0  0  0  0  0
   -2.5993    2.9781    4.3105 H   0  0  0  0  0  0  0  0  0  0  0  0
   -0.5048    1.3975    0.8331 N   0  0  0  0  0  0  0  0  0  0  0  0
    0.6641    1.1378   -0.0237 C   0  0  2  0  0  0  0  0  0  0  0  0
    1.4097    2.4292   -0.3924 C   0  0  0  0  0  0  0  0  0  0  0  0
    0.7919    3.3197   -0.9616 O   0  0  0  0  0  0  0  0  0  0  0  0
    0.1741    0.3939   -1.2770 C   0  0  0  0  0  0  0  0  0  0  0  0
   -0.3805   -0.9423   -0.8491 C   0  0  0  0  0  0  0  0  0  0  0  0
    0.3512   -2.0632   -0.4561 N   0  3  0  0  0  0  0  0  0  0  0  0
   -1.7056   -1.2171   -0.6307 C   0  0  0  0  0  0  0  0  0  0  0  0
   -0.4525   -2.9767    0.0331 C   0  0  0  0  0  0  0  0  0  0  0  0
   -1.7515   -2.4854   -0.0719 N   0  0  0  0  0  0  0  0  0  0  0  0
   -1.2100    2.0400    0.4759 H   0  0  0  0  0  0  0  0  0  0  0  0
    1.3842    0.4962    0.4935 H   0  0  0  0  0  0  0  0  0  0  0  0
    0.9967    0.2495   -1.9861 H   0  0  0  0  0  0  0  0  0  0  0  0
   -0.5931    0.9882   -1.7854 H   0  0  0  0  0  0  0  0  0  0  0  0
    1.3737   -2.0927   -0.4703 H   0  0  0  0  0  0  0  0  0  0  0  0
   -2.5429   -0.5344   -0.7673 H   0  0  0  0  0  0  0  0  0  0  0  0
   -0.1586   -3.9315    0.4712 H   0  0  0  0  0  0  0  0  0  0  0  0
   -2.5788   -2.8855    0.3820 H   0  0  0  0  0  0  0  0  0  0  0  0
    2.7888    2.4734   -0.3187 N   0  0  0  0  0  0  0  0  0  0  0  0
    3.5632    3.1920   -1.3399 C   0  0  2  0  0  0  0  0  0  0  0  0
    3.6866    2.3514   -2.6323 C   0  0  0  0  0  0  0  0  0  0  0  0
    3.4382    1.1472   -2.6062 O   0  0  0  0  0  0  0  0  0  0  0  0
    4.9453    3.4941   -0.7554 C   0  0  0  0  0  0  0  0  0  0  0  0
    3.2209    1.6254    0.0381 H   0  0  0  0  0  0  0  0  0  0  0  0
    3.0761    4.1415   -1.5892 H   0  0  0  0  0  0  0  0  0  0  0  0
    5.4716    2.5655   -0.5117 H   0  0  0  0  0  0  0  0  0  0  0  0
    5.5509    4.0575   -1.4722 H   0  0  0  0  0  0  0  0  0  0  0  0
    4.8496    4.0910    0.1572 H   0  0  0  0  0  0  0  0  0  0  0  0
    4.0644    2.9399   -3.8240 N   0  0  0  0  0  0  0  0  0  0  0  0
    4.1753    2.2073   -5.0805 C   0  0  0  0  0  0  0  0  0  0  0  0
    4.2189    3.9448   -3.8279 H   0  0  0  0  0  0  0  0  0  0  0  0
    4.9000    1.3914   -4.9869 H   0  0  0  0  0  0  0  0  0  0  0  0
    3.2057    1.7860   -5.3665 H   0  0  0  0  0  0  0  0  0  0  0  0
    4.5108    2.8750   -5.8801 H   0  0  0  0  0  0  0  0  0  0  0  0
  1  2  2  0  0  0  0
  1  3  1  0  0  0  0
  1  7  1  0  0  0  0
  3  4  1  0  0  0  0
  3  5  1  0  0  0  0
  3  6  1  0  0  0  0
  7  8  1  0  0  0  0
  7 12  1  0  0  0  0
  8  9  1  0  0  0  0
  8 11  1  0  0  0  0
  8 13  1  0  0  0  0
  9 10  2  0  0  0  0
  9 17  1  0  0  0  0
 11 14  1  0  0  0  0
 11 15  1  0  0  0  0
 11 16  1  0  0  0  0
 17 18  1  0  0  0  0
 17 27  1  0  0  0  0
 18 19  1  0  0  0  0
 18 21  1  0  0  0  0
 18 28  1  0  0  0  0
 19 20  2  0  0  0  0
 19 35  1  0  0  0  0
 21 22  1  0  0  0  0
 21 29  1  0  0  0  0
 21 30  1  0  0  0  0
 22 23  1  0  0  0  0
 22 24  2  0  0  0  0
 23 25  2  0  0  0  0
 23 31  1  0  0  0  0
 24 26  1  0  0  0  0
 24 32  1  0  0  0  0
 25 26  1  0  0  0  0
 25 33  1  0  0  0  0
 26 34  1  0  0  0  0
 35 36  1  0  0  0  0
 35 40  1  0  0  0  0
 36 37  1  0  0  0  0
 36 39  1  0  0  0  0
 36 41  1  0  0  0  0
 37 38  2  0  0  0  0
 37 45  1  0  0  0  0
 39 42  1  0  0  0  0
 39 43  1  0  0  0  0
 39 44  1  0  0  0  0
 45 46  1  0  0  0  0
 45 47  1  0  0  0  0
 46 48  1  0  0  0  0
 46 49  1  0  0  0  0
 46 50  1  0  0  0  0
M  CHG  1  23   1
M  END
$$$$

  -OEChem-05262216443D

 50 50  0     1  0  0  0  0  0999 V2000
   -2.6731   -0.7956    3.6015 C   0  0  0  0  0  0  0  0  0  0  0  0
   -2.9196   -1.0454    2.4260 O   0  0  0  0  0  0  0  0  0  0  0  0
   -2.9181   -1.8491    4.6645 C   0  0  0  0  0  0  0  0  0  0  0  0
   -3.3671   -2.7414    4.2202 H   0  0  0  0  0  0  0  0  0  0  0  0
   -1.9737   -2.1278    5.1389 H   0  0  0  0  0  0  0  0  0  0  0  0
   -3.5973   -1.4583    5.4265 H   0  0  0  0  0  0  0  0  0  0  0  0
   -2.1400    0.4243    3.9672 N   0  0  0  0  0  0  0  0  0  0  0  0
   -1.7226    1.4472    2.9985 C   0  0  2  0  0  0  0  0  0  0  0  0
   -0.4687    1.0410    2.1912 C   0  0  0  0  0  0  0  0  0  0  0  0
    0.4022    0.3368    2.6913 O   0  0  0  0  0  0  0  0  0  0  0  0
   -1.4623    2.7479    3.7609 C   0  0  0  0  0  0  0  0  0  0  0  0
   -1.8044    0.5061    4.9237 H   0  0  0  0  0  0  0  0  0  0  0  0
   -2.5421    1.6189    2.2925 H   0  0  0  0  0  0  0  0  0  0  0  0
   -0.6458    2.6169    4.4787 H   0  0  0  0  0  0  0  0  0  0  0  0
   -1.1868    3.5486    3.0669 H   0  0  0  0  0  0  0  0  0  0  0  0
   -2.3599    3.0581    4.3052 H   0  0  0  0  0  0  0  0  0  0  0  0
   -0.4100    1.3220    0.8380 N   0  0  0  0  0  0  0  0  0  0  0  0
    0.7428    0.9991   -0.0207 C   0  0  2  0  0  0  0  0  0  0  0  0
    1.5624    2.2529   -0.3686 C   0  0  0  0  0  0  0  0  0  0  0  0
    0.9636    3.2808   -0.6593 O   0  0  0  0  0  0  0  0  0  0  0  0
    0.1923    0.3120   -1.2824 C   0  0  0  0  0  0  0  0  0  0  0  0
   -0.4545   -0.9865   -0.8639 C   0  0  0  0  0  0  0  0  0  0  0  0
    0.1851   -2.1679   -0.4873 N   0  3  0  0  0  0  0  0  0  0  0  0
   -1.7949   -1.1502   -0.6266 C   0  0  0  0  0  0  0  0  0  0  0  0
   -0.6853   -3.0083    0.0187 C   0  0  0  0  0  0  0  0  0  0  0  0
   -1.9398   -2.4096   -0.0662 N   0  0  0  0  0  0  0  0  0  0  0  0
   -1.0263    2.0657    0.5130 H   0  0  0  0  0  0  0  0  0  0  0  0
    1.4234    0.3083    0.4868 H   0  0  0  0  0  0  0  0  0  0  0  0
    0.9946    0.1170   -2.0024 H   0  0  0  0  0  0  0  0  0  0  0  0
   -0.5346    0.9675   -1.7751 H   0  0  0  0  0  0  0  0  0  0  0  0
    1.2009   -2.2830   -0.5111 H   0  0  0  0  0  0  0  0  0  0  0  0
   -2.5724   -0.3969   -0.7453 H   0  0  0  0  0  0  0  0  0  0  0  0
   -0.4667   -3.9821    0.4584 H   0  0  0  0  0  0  0  0  0  0  0  0
   -2.7862   -2.7307    0.4150 H   0  0  0  0  0  0  0  0  0  0  0  0
    2.9217    2.1501   -0.5950 N   0  0  0  0  0  0  0  0  0  0  0  0
    3.5915    2.9940   -1.5949 C   0  0  2  0  0  0  0  0  0  0  0  0
    3.4788    2.3723   -3.0057 C   0  0  0  0  0  0  0  0  0  0  0  0
    3.1428    1.1966   -3.1294 O   0  0  0  0  0  0  0  0  0  0  0  0
    5.0582    3.1393   -1.1820 C   0  0  0  0  0  0  0  0  0  0  0  0
    3.3019    1.2133   -0.4931 H   0  0  0  0  0  0  0  0  0  0  0  0
    3.1395    3.9918   -1.6207 H   0  0  0  0  0  0  0  0  0  0  0  0
    5.5541    2.1632   -1.1709 H   0  0  0  0  0  0  0  0  0  0  0  0
    5.5915    3.7907   -1.8817 H   0  0  0  0  0  0  0  0  0  0  0  0
    5.1289    3.5786   -0.1817 H   0  0  0  0  0  0  0  0  0  0  0  0
    3.7477    3.1236   -4.1338 N   0  0  0  0  0  0  0  0  0  0  0  0
    3.6446    2.5992   -5.4913 C   0  0  0  0  0  0  0  0  0  0  0  0
    3.9966    4.1007   -4.0040 H   0  0  0  0  0  0  0  0  0  0  0  0
    4.3377    1.7632   -5.6336 H   0  0  0  0  0  0  0  0  0  0  0  0
    2.6262    2.2506   -5.6931 H   0  0  0  0  0  0  0  0  0  0  0  0
    3.8915    3.3791   -6.2184 H   0  0  0  0  0  0  0  0  0  0  0  0
  1  2  2  0  0  0  0
  1  3  1  0  0  0  0
  1  7  1  0  0  0  0
  3  4  1  0  0  0  0
  3  5  1  0  0  0  0
  3  6  1  0  0  0  0
  7  8  1  0  0  0  0
  7 12  1  0  0  0  0
  8  9  1  0  0  0  0
  8 11  1  0  0  0  0
  8 13  1  0  0  0  0
  9 10  2  0  0  0  0
  9 17  1  0  0  0  0
 11 14  1  0  0  0  0
 11 15  1  0  0  0  0
 11 16  1  0  0  0  0
 17 18  1  0  0  0  0
 17 27  1  0  0  0  0
 18 19  1  0  0  0  0
 18 21  1  0  0  0  0
 18 28  1  0  0  0  0
 19 20  2  0  0  0  0
 19 35  1  0  0  0  0
 21 22  1  0  0  0  0
 21 29  1  0  0  0  0
 21 30  1  0  0  0  0
 22 23  1  0  0  0  0
 22 24  2  0  0  0  0
 23 25  2  0  0  0  0
 23 31  1  0  0  0  0
 24 26  1  0  0  0  0
 24 32  1  0  0  0  0
 25 26  1  0  0  0  0
 25 33  1  0  0  0  0
 26 34  1  0  0  0  0
 35 36  1  0  0  0  0
 35 40  1  0  0  0  0
 36 37  1  0  0  0  0
 36 39  1  0  0  0  0
 36 41  1  0  0  0  0
 37 38  2  0  0  0  0
 37 45  1  0  0  0  0
 39 42  1  0  0  0  0
 39 43  1  0  0  0  0
 39 44  1  0  0  0  0
 45 46  1  0  0  0  0
 45 47  1  0  0  0  0
 46 48  1  0  0  0  0
 46 49  1  0  0  0  0
 46 50  1  0  0  0  0
M  CHG  1  23   1
M  END
$$$$

  -OEChem-05262216443D

 50 50  0     1  0  0  0  0  0999 V2000
   -2.7423   -0.6412    3.5626 C   0  0  0  0  0  0  0  0  0  0  0  0
   -2.9724   -0.8855    2.3829 O   0  0  0  0  0  0  0  0  0  0  0  0
   -3.1093   -1.6579    4.6265 C   0  0  0  0  0  0  0  0  0  0  0  0
   -3.6473   -2.4984    4.1801 H   0  0  0  0  0  0  0  0  0  0  0  0
   -2.2051   -2.0347    5.1107 H   0  0  0  0  0  0  0  0  0  0  0  0
   -3.7501   -1.1943    5.3807 H   0  0  0  0  0  0  0  0  0  0  0  0
   -2.1186    0.5344    3.9314 N   0  0  0  0  0  0  0  0  0  0  0  0
   -1.5902    1.5074    2.9652 C   0  0  2  0  0  0  0  0  0  0  0  0
   -0.3765    0.9764    2.1699 C   0  0  0  0  0  0  0  0  0  0  0  0
    0.4201    0.1958    2.6810 O   0  0  0  0  0  0  0  0  0  0  0  0
   -1.2032    2.7766    3.7276 C   0  0  0  0  0  0  0  0  0  0  0  0
   -1.8049    0.6008    4.8963 H   0  0  0  0  0  0  0  0  0  0  0  0
   -2.3816    1.7602    2.2516 H   0  0  0  0  0  0  0  0  0  0  0  0
   -0.4139    2.5629    4.4561 H   0  0  0  0  0  0  0  0  0  0  0  0
   -0.8352    3.5404    3.0347 H   0  0  0  0  0  0  0  0  0  0  0  0
   -2.0693    3.1832    4.2595 H   0  0  0  0  0  0  0  0  0  0  0  0
   -0.2879    1.2363    0.8144 N   0  0  0  0  0  0  0  0  0  0  0  0
    0.8614    0.8421   -0.0196 C   0  0  2  0  0  0  0  0  0  0  0  0
    1.7471    2.0521   -0.3701 C   0  0  0  0  0  0  0  0  0  0  0  0
    1.2380    3.1657   -0.4148 O   0  0  0  0  0  0  0  0  0  0  0  0
    0.2870    0.1613   -1.2743 C   0  0  0  0  0  0  0  0  0  0  0  0
   -0.4312   -1.0935   -0.8375 C   0  0  0  0  0  0  0  0  0  0  0  0
    0.1347   -2.3025   -0.4308 N   0  3  0  0  0  0  0  0  0  0  0  0
   -1.7811   -1.1753   -0.6126 C   0  0  0  0  0  0  0  0  0  0  0  0
   -0.7884   -3.0803    0.0821 C   0  0  0  0  0  0  0  0  0  0  0  0
   -2.0051   -2.4125   -0.0304 N   0  0  0  0  0  0  0  0  0  0  0  0
   -0.8165    2.0470    0.4942 H   0  0  0  0  0  0  0  0  0  0  0  0
    1.5027    0.1299    0.5090 H   0  0  0  0  0  0  0  0  0  0  0  0
    1.0825   -0.0910   -1.9833 H   0  0  0  0  0  0  0  0  0  0  0  0
   -0.3998    0.8449   -1.7862 H   0  0  0  0  0  0  0  0  0  0  0  0
    1.1424   -2.4742   -0.4307 H   0  0  0  0  0  0  0  0  0  0  0  0
   -2.5123   -0.3803   -0.7521 H   0  0  0  0  0  0  0  0  0  0  0  0
   -0.6314   -4.0547    0.5462 H   0  0  0  0  0  0  0  0  0  0  0  0
   -2.8751   -2.6746    0.4444 H   0  0  0  0  0  0  0  0  0  0  0  0
    3.0208    1.8560   -0.8707 N   0  0  0  0  0  0  0  0  0  0  0  0
    3.6060    2.7925   -1.8410 C   0  0  2  0  0  0  0  0  0  0  0  0
    3.1183    2.4838   -3.2748 C   0  0  0  0  0  0  0  0  0  0  0  0
    2.6262    1.3870   -3.5294 O   0  0  0  0  0  0  0  0  0  0  0  0
    5.1293    2.6755   -1.7495 C   0  0  0  0  0  0  0  0  0  0  0  0
    3.2973    0.8848   -0.9798 H   0  0  0  0  0  0  0  0  0  0  0  0
    3.3244    3.8225   -1.5959 H   0  0  0  0  0  0  0  0  0  0  0  0
    5.4552    1.6644   -2.0144 H   0  0  0  0  0  0  0  0  0  0  0  0
    5.6093    3.3837   -2.4323 H   0  0  0  0  0  0  0  0  0  0  0  0
    5.4666    2.8964   -0.7316 H   0  0  0  0  0  0  0  0  0  0  0  0
    3.2252    3.4304   -4.2753 N   0  0  0  0  0  0  0  0  0  0  0  0
    2.7538    3.2138   -5.6385 C   0  0  0  0  0  0  0  0  0  0  0  0
    3.5952    4.3434   -4.0246 H   0  0  0  0  0  0  0  0  0  0  0  0
    3.2738    2.3644   -6.0943 H   0  0  0  0  0  0  0  0  0  0  0  0
    1.6773    3.0125   -5.6449 H   0  0  0  0  0  0  0  0  0  0  0  0
    2.9423    4.1018   -6.2501 H   0  0  0  0  0  0  0  0  0  0  0  0
  1  2  2  0  0  0  0
  1  3  1  0  0  0  0
  1  7  1  0  0  0  0
  3  4  1  0  0  0  0
  3  5  1  0  0  0  0
  3  6  1  0  0  0  0
  7  8  1  0  0  0  0
  7 12  1  0  0  0  0
  8  9  1  0  0  0  0
  8 11  1  0  0  0  0
  8 13  1  0  0  0  0
  9 10  2  0  0  0  0
  9 17  1  0  0  0  0
 11 14  1  0  0  0  0
 11 15  1  0  0  0  0
 11 16  1  0  0  0  0
 17 18  1  0  0  0  0
 17 27  1  0  0  0  0
 18 19  1  0  0  0  0
 18 21  1  0  0  0  0
 18 28  1  0  0  0  0
 19 20  2  0  0  0  0
 19 35  1  0  0  0  0
 21 22  1  0  0  0  0
 21 29  1  0  0  0  0
 21 30  1  0  0  0  0
 22 23  1  0  0  0  0
 22 24  2  0  0  0  0
 23 25  2  0  0  0  0
 23 31  1  0  0  0  0
 24 26  1  0  0  0  0
 24 32  1  0  0  0  0
 25 26  1  0  0  0  0
 25 33  1  0  0  0  0
 26 34  1  0  0  0  0
 35 36  1  0  0  0  0
 35 40  1  0  0  0  0
 36 37  1  0  0  0  0
 36 39  1  0  0  0  0
 36 41  1  0  0  0  0
 37 38  2  0  0  0  0
 37 45  1  0  0  0  0
 39 42  1  0  0  0  0
 39 43  1  0  0  0  0
 39 44  1  0  0  0  0
 45 46  1  0  0  0  0
 45 47  1  0  0  0  0
 46 48  1  0  0  0  0
 46 49  1  0  0  0  0
 46 50  1  0  0  0  0
M  CHG  1  23   1
M  END
$$$$

  -OEChem-05262216443D

 50 50  0     1  0  0  0  0  0999 V2000
   -2.9449   -0.3500    3.2113 C   0  0  0  0  0  0  0  0  0  0  0  0
   -3.0659   -0.3010    1.9922 O   0  0  0  0  0  0  0  0  0  0  0  0
   -3.7001   -1.4010    4.0016 C   0  0  0  0  0  0  0  0  0  0  0  0
   -4.3725   -1.9597    3.3453 H   0  0  0  0  0  0  0  0  0  0  0  0
   -2.9964   -2.0979    4.4634 H   0  0  0  0  0  0  0  0  0  0  0  0
   -4.2939   -0.9235    4.7853 H   0  0  0  0  0  0  0  0  0  0  0  0
   -2.1026    0.5212    3.8723 N   0  0  0  0  0  0  0  0  0  0  0  0
   -1.2612    1.5143    3.1920 C   0  0  2  0  0  0  0  0  0  0  0  0
   -0.1547    0.8677    2.3310 C   0  0  0  0  0  0  0  0  0  0  0  0
    0.6109    0.0354    2.8051 O   0  0  0  0  0  0  0  0  0  0  0  0
   -0.6434    2.4269    4.2541 C   0  0  0  0  0  0  0  0  0  0  0  0
   -1.9340    0.3433    4.8591 H   0  0  0  0  0  0  0  0  0  0  0  0
   -1.8924    2.1261    2.5390 H   0  0  0  0  0  0  0  0  0  0  0  0
   -0.0052    1.8522    4.9336 H   0  0  0  0  0  0  0  0  0  0  0  0
   -0.0316    3.2013    3.7799 H   0  0  0  0  0  0  0  0  0  0  0  0
   -1.4270    2.9170    4.8402 H   0  0  0  0  0  0  0  0  0  0  0  0
   -0.1262    1.1113    0.9712 N   0  0  0  0  0  0  0  0  0  0  0  0
    0.9982    0.7099    0.1093 C   0  0  2  0  0  0  0  0  0  0  0  0
    2.0690    1.8181    0.0065 C   0  0  0  0  0  0  0  0  0  0  0  0
    1.7957    2.9533    0.3779 O   0  0  0  0  0  0  0  0  0  0  0  0
    0.3875    0.3596   -1.2594 C   0  0  0  0  0  0  0  0  0  0  0  0
   -0.5256   -0.8322   -1.0926 C   0  0  0  0  0  0  0  0  0  0  0  0
   -0.1602   -2.1679   -0.9172 N   0  3  0  0  0  0  0  0  0  0  0  0
   -1.8879   -0.7580   -0.9537 C   0  0  0  0  0  0  0  0  0  0  0  0
   -1.2184   -2.8935   -0.6447 C   0  0  0  0  0  0  0  0  0  0  0  0
   -2.3219   -2.0441   -0.6720 N   0  0  0  0  0  0  0  0  0  0  0  0
   -0.6411    1.9411    0.6850 H   0  0  0  0  0  0  0  0  0  0  0  0
    1.4970   -0.1764    0.5147 H   0  0  0  0  0  0  0  0  0  0  0  0
    1.1682    0.1223   -1.9888 H   0  0  0  0  0  0  0  0  0  0  0  0
   -0.1656    1.2214   -1.6495 H   0  0  0  0  0  0  0  0  0  0  0  0
    0.8117   -2.4852   -0.9164 H   0  0  0  0  0  0  0  0  0  0  0  0
   -2.4937    0.1477   -0.9641 H   0  0  0  0  0  0  0  0  0  0  0  0
   -1.2313   -3.9593   -0.4125 H   0  0  0  0  0  0  0  0  0  0  0  0
   -3.2748   -2.2871   -0.3863 H   0  0  0  0  0  0  0  0  0  0  0  0
    3.2005    1.6119   -0.7624 N   0  0  0  0  0  0  0  0  0  0  0  0
    3.8325    2.7109   -1.5083 C   0  0  2  0  0  0  0  0  0  0  0  0
    3.1721    2.8879   -2.8942 C   0  0  0  0  0  0  0  0  0  0  0  0
    2.4705    1.9899   -3.3542 O   0  0  0  0  0  0  0  0  0  0  0  0
    5.3211    2.3867   -1.6535 C   0  0  0  0  0  0  0  0  0  0  0  0
    3.2598    0.6997   -1.2044 H   0  0  0  0  0  0  0  0  0  0  0  0
    3.7388    3.6549   -0.9598 H   0  0  0  0  0  0  0  0  0  0  0  0
    5.4607    1.4597   -2.2191 H   0  0  0  0  0  0  0  0  0  0  0  0
    5.8400    3.1947   -2.1789 H   0  0  0  0  0  0  0  0  0  0  0  0
    5.7810    2.2673   -0.6672 H   0  0  0  0  0  0  0  0  0  0  0  0
    3.3612    4.0441   -3.6266 N   0  0  0  0  0  0  0  0  0  0  0  0
    2.7481    4.2764   -4.9299 C   0  0  0  0  0  0  0  0  0  0  0  0
    3.9176    4.7848   -3.2077 H   0  0  0  0  0  0  0  0  0  0  0  0
    3.0696    3.5136   -5.6472 H   0  0  0  0  0  0  0  0  0  0  0  0
    1.6561    4.2477   -4.8507 H   0  0  0  0  0  0  0  0  0  0  0  0
    3.0400    5.2578   -5.3169 H   0  0  0  0  0  0  0  0  0  0  0  0
  1  2  2  0  0  0  0
  1  3  1  0  0  0  0
  1  7  1  0  0  0  0
  3  4  1  0  0  0  0
  3  5  1  0  0  0  0
  3  6  1  0  0  0  0
  7  8  1  0  0  0  0
  7 12  1  0  0  0  0
  8  9  1  0  0  0  0
  8 11  1  0  0  0  0
  8 13  1  0  0  0  0
  9 10  2  0  0  0  0
  9 17  1  0  0  0  0
 11 14  1  0  0  0  0
 11 15  1  0  0  0  0
 11 16  1  0  0  0  0
 17 18  1  0  0  0  0
 17 27  1  0  0  0  0
 18 19  1  0  0  0  0
 18 21  1  0  0  0  0
 18 28  1  0  0  0  0
 19 20  2  0  0  0  0
 19 35  1  0  0  0  0
 21 22  1  0  0  0  0
 21 29  1  0  0  0  0
 21 30  1  0  0  0  0
 22 23  1  0  0  0  0
 22 24  2  0  0  0  0
 23 25  2  0  0  0  0
 23 31  1  0  0  0  0
 24 26  1  0  0  0  0
 24 32  1  0  0  0  0
 25 26  1  0  0  0  0
 25 33  1  0  0  0  0
 26 34  1  0  0  0  0
 35 36  1  0  0  0  0
 35 40  1  0  0  0  0
 36 37  1  0  0  0  0
 36 39  1  0  0  0  0
 36 41  1  0  0  0  0
 37 38  2  0  0  0  0
 37 45  1  0  0  0  0
 39 42  1  0  0  0  0
 39 43  1  0  0  0  0
 39 44  1  0  0  0  0
 45 46  1  0  0  0  0
 45 47  1  0  0  0  0
 46 48  1  0  0  0  0
 46 49  1  0  0  0  0
 46 50  1  0  0  0  0
M  CHG  1  23   1
M  END
$$$$

  -OEChem-05262216443D

 50 50  0     1  0  0  0  0  0999 V2000
   -2.9107   -0.2032    3.2029 C   0  0  0  0  0  0  0  0  0  0  0  0
   -3.0461   -0.1568    1.9852 O   0  0  0  0  0  0  0  0  0  0  0  0
   -3.7276   -1.1892    4.0153 C   0  0  0  0  0  0  0  0  0  0  0  0
   -4.4276   -1.7254    3.3692 H   0  0  0  0  0  0  0  0  0  0  0  0
   -3.0668   -1.9133    4.4984 H   0  0  0  0  0  0  0  0  0  0  0  0
   -4.2964   -0.6587    4.7833 H   0  0  0  0  0  0  0  0  0  0  0  0
   -1.9994    0.6120    3.8438 N   0  0  0  0  0  0  0  0  0  0  0  0
   -1.0971    1.5335    3.1417 C   0  0  2  0  0  0  0  0  0  0  0  0
   -0.0573    0.7999    2.2678 C   0  0  0  0  0  0  0  0  0  0  0  0
    0.6386   -0.0980    2.7307 O   0  0  0  0  0  0  0  0  0  0  0  0
   -0.3922    2.4027    4.1860 C   0  0  0  0  0  0  0  0  0  0  0  0
   -1.8246    0.4265    4.8281 H   0  0  0  0  0  0  0  0  0  0  0  0
   -1.6908    2.1872    2.4942 H   0  0  0  0  0  0  0  0  0  0  0  0
    0.2063    1.7835    4.8627 H   0  0  0  0  0  0  0  0  0  0  0  0
    0.2745    3.1204    3.6963 H   0  0  0  0  0  0  0  0  0  0  0  0
   -1.1252    2.9602    4.7773 H   0  0  0  0  0  0  0  0  0  0  0  0
   -0.0274    1.0444    0.9078 N   0  0  0  0  0  0  0  0  0  0  0  0
    1.0669    0.5782    0.0395 C   0  0  2  0  0  0  0  0  0  0  0  0
    2.2000    1.6272   -0.0681 C   0  0  0  0  0  0  0  0  0  0  0  0
    2.0967    2.6913    0.5306 O   0  0  0  0  0  0  0  0  0  0  0  0
    0.4116    0.2467   -1.3154 C   0  0  0  0  0  0  0  0  0  0  0  0
   -0.5591   -0.8947   -1.1154 C   0  0  0  0  0  0  0  0  0  0  0  0
   -0.2632   -2.2465   -0.9304 N   0  3  0  0  0  0  0  0  0  0  0  0
   -1.9135   -0.7465   -0.9569 C   0  0  0  0  0  0  0  0  0  0  0  0
   -1.3543   -2.9105   -0.6310 C   0  0  0  0  0  0  0  0  0  0  0  0
   -2.4111   -2.0037   -0.6529 N   0  0  0  0  0  0  0  0  0  0  0  0
   -0.4863    1.9094    0.6320 H   0  0  0  0  0  0  0  0  0  0  0  0
    1.5219   -0.3314    0.4443 H   0  0  0  0  0  0  0  0  0  0  0  0
    1.1606   -0.0385   -2.0605 H   0  0  0  0  0  0  0  0  0  0  0  0
   -0.1052    1.1321   -1.7036 H   0  0  0  0  0  0  0  0  0  0  0  0
    0.6909   -2.6138   -0.9282 H   0  0  0  0  0  0  0  0  0  0  0  0
   -2.4708    0.1896   -0.9700 H   0  0  0  0  0  0  0  0  0  0  0  0
   -1.4198   -3.9706   -0.3818 H   0  0  0  0  0  0  0  0  0  0  0  0
   -3.3707   -2.1915   -0.3485 H   0  0  0  0  0  0  0  0  0  0  0  0
    3.1556    1.5130   -1.0630 N   0  0  0  0  0  0  0  0  0  0  0  0
    3.6945    2.7006   -1.7430 C   0  0  2  0  0  0  0  0  0  0  0  0
    2.7718    3.1291   -2.9060 C   0  0  0  0  0  0  0  0  0  0  0  0
    1.9397    2.3383   -3.3457 O   0  0  0  0  0  0  0  0  0  0  0  0
    5.0921    2.3544   -2.2605 C   0  0  0  0  0  0  0  0  0  0  0  0
    3.0659    0.6894   -1.6494 H   0  0  0  0  0  0  0  0  0  0  0  0
    3.7842    3.5402   -1.0447 H   0  0  0  0  0  0  0  0  0  0  0  0
    5.0428    1.5337   -2.9833 H   0  0  0  0  0  0  0  0  0  0  0  0
    5.5445    3.2218   -2.7514 H   0  0  0  0  0  0  0  0  0  0  0  0
    5.7392    2.0520   -1.4309 H   0  0  0  0  0  0  0  0  0  0  0  0
    2.8728    4.3894   -3.4623 N   0  0  0  0  0  0  0  0  0  0  0  0
    2.0226    4.8549   -4.5522 C   0  0  0  0  0  0  0  0  0  0  0  0
    3.5446    5.0345   -3.0547 H   0  0  0  0  0  0  0  0  0  0  0  0
    2.1481    4.2197   -5.4357 H   0  0  0  0  0  0  0  0  0  0  0  0
    0.9696    4.8371   -4.2518 H   0  0  0  0  0  0  0  0  0  0  0  0
    2.2859    5.8814   -4.8256 H   0  0  0  0  0  0  0  0  0  0  0  0
  1  2  2  0  0  0  0
  1  3  1  0  0  0  0
  1  7  1  0  0  0  0
  3  4  1  0  0  0  0
  3  5  1  0  0  0  0
  3  6  1  0  0  0  0
  7  8  1  0  0  0  0
  7 12  1  0  0  0  0
  8  9  1  0  0  0  0
  8 11  1  0  0  0  0
  8 13  1  0  0  0  0
  9 10  2  0  0  0  0
  9 17  1  0  0  0  0
 11 14  1  0  0  0  0
 11 15  1  0  0  0  0
 11 16  1  0  0  0  0
 17 18  1  0  0  0  0
 17 27  1  0  0  0  0
 18 19  1  0  0  0  0
 18 21  1  0  0  0  0
 18 28  1  0  0  0  0
 19 20  2  0  0  0  0
 19 35  1  0  0  0  0
 21 22  1  0  0  0  0
 21 29  1  0  0  0  0
 21 30  1  0  0  0  0
 22 23  1  0  0  0  0
 22 24  2  0  0  0  0
 23 25  2  0  0  0  0
 23 31  1  0  0  0  0
 24 26  1  0  0  0  0
 24 32  1  0  0  0  0
 25 26  1  0  0  0  0
 25 33  1  0  0  0  0
 26 34  1  0  0  0  0
 35 36  1  0  0  0  0
 35 40  1  0  0  0  0
 36 37  1  0  0  0  0
 36 39  1  0  0  0  0
 36 41  1  0  0  0  0
 37 38  2  0  0  0  0
 37 45  1  0  0  0  0
 39 42  1  0  0  0  0
 39 43  1  0  0  0  0
 39 44  1  0  0  0  0
 45 46  1  0  0  0  0
 45 47  1  0  0  0  0
 46 48  1  0  0  0  0
 46 49  1  0  0  0  0
 46 50  1  0  0  0  0
M  CHG  1  23   1
M  END
$$$$

  -OEChem-05262216443D

 50 50  0     1  0  0  0  0  0999 V2000
   -2.8205   -0.1628    3.2538 C   0  0  0  0  0  0  0  0  0  0  0  0
   -3.0306   -0.1848    2.0457 O   0  0  0  0  0  0  0  0  0  0  0  0
   -3.5553   -1.1291    4.1628 C   0  0  0  0  0  0  0  0  0  0  0  0
   -4.2873   -1.7066    3.5921 H   0  0  0  0  0  0  0  0  0  0  0  0
   -2.8455   -1.8184    4.6266 H   0  0  0  0  0  0  0  0  0  0  0  0
   -4.0801   -0.5773    4.9469 H   0  0  0  0  0  0  0  0  0  0  0  0
   -1.8961    0.7083    3.7955 N   0  0  0  0  0  0  0  0  0  0  0  0
   -1.0401    1.5849    2.9854 C   0  0  2  0  0  0  0  0  0  0  0  0
   -0.0272    0.7991    2.1256 C   0  0  0  0  0  0  0  0  0  0  0  0
    0.6181   -0.1283    2.6038 O   0  0  0  0  0  0  0  0  0  0  0  0
   -0.3045    2.5420    3.9256 C   0  0  0  0  0  0  0  0  0  0  0  0
   -1.6414    0.5598    4.7687 H   0  0  0  0  0  0  0  0  0  0  0  0
   -1.6725    2.1777    2.3166 H   0  0  0  0  0  0  0  0  0  0  0  0
    0.3331    1.9853    4.6203 H   0  0  0  0  0  0  0  0  0  0  0  0
    0.3280    3.2276    3.3520 H   0  0  0  0  0  0  0  0  0  0  0  0
   -1.0197    3.1350    4.5041 H   0  0  0  0  0  0  0  0  0  0  0  0
    0.0013    1.0070    0.7588 N   0  0  0  0  0  0  0  0  0  0  0  0
    1.0593    0.4570   -0.1063 C   0  0  2  0  0  0  0  0  0  0  0  0
    2.2484    1.4393   -0.2513 C   0  0  0  0  0  0  0  0  0  0  0  0
    2.3541    2.3808    0.5252 O   0  0  0  0  0  0  0  0  0  0  0  0
    0.3609    0.0848   -1.4295 C   0  0  0  0  0  0  0  0  0  0  0  0
   -0.6440   -1.0070   -1.1380 C   0  0  0  0  0  0  0  0  0  0  0  0
   -0.3920   -2.3567   -0.8836 N   0  3  0  0  0  0  0  0  0  0  0  0
   -1.9856   -0.7972   -0.9442 C   0  0  0  0  0  0  0  0  0  0  0  0
   -1.4940   -2.9555   -0.4988 C   0  0  0  0  0  0  0  0  0  0  0  0
   -2.5172   -2.0120   -0.5416 N   0  0  0  0  0  0  0  0  0  0  0  0
   -0.4174    1.8853    0.4620 H   0  0  0  0  0  0  0  0  0  0  0  0
    1.4793   -0.4552    0.3295 H   0  0  0  0  0  0  0  0  0  0  0  0
    1.0775   -0.2712   -2.1750 H   0  0  0  0  0  0  0  0  0  0  0  0
   -0.1355    0.9675   -1.8499 H   0  0  0  0  0  0  0  0  0  0  0  0
    0.5486   -2.7576   -0.8784 H   0  0  0  0  0  0  0  0  0  0  0  0
   -2.5077    0.1579   -0.9946 H   0  0  0  0  0  0  0  0  0  0  0  0
   -1.5883   -3.9920   -0.1725 H   0  0  0  0  0  0  0  0  0  0  0  0
   -3.4646   -2.1373   -0.1730 H   0  0  0  0  0  0  0  0  0  0  0  0
    3.0087    1.4497   -1.4087 N   0  0  0  0  0  0  0  0  0  0  0  0
    3.5233    2.7115   -1.9611 C   0  0  2  0  0  0  0  0  0  0  0  0
    2.4298    3.4356   -2.7789 C   0  0  0  0  0  0  0  0  0  0  0  0
    1.4420    2.8115   -3.1611 O   0  0  0  0  0  0  0  0  0  0  0  0
    4.7309    2.3834   -2.8424 C   0  0  0  0  0  0  0  0  0  0  0  0
    2.7372    0.7619   -2.1031 H   0  0  0  0  0  0  0  0  0  0  0  0
    3.8540    3.3785   -1.1571 H   0  0  0  0  0  0  0  0  0  0  0  0
    4.4363    1.7378   -3.6760 H   0  0  0  0  0  0  0  0  0  0  0  0
    5.1662    3.3003   -3.2516 H   0  0  0  0  0  0  0  0  0  0  0  0
    5.4997    1.8691   -2.2570 H   0  0  0  0  0  0  0  0  0  0  0  0
    2.5520    4.7758   -3.0911 N   0  0  0  0  0  0  0  0  0  0  0  0
    1.5493    5.5183   -3.8465 C   0  0  0  0  0  0  0  0  0  0  0  0
    3.3579    5.2752   -2.7242 H   0  0  0  0  0  0  0  0  0  0  0  0
    1.3829    5.0544   -4.8247 H   0  0  0  0  0  0  0  0  0  0  0  0
    0.5995    5.5434   -3.3020 H   0  0  0  0  0  0  0  0  0  0  0  0
    1.8821    6.5485   -4.0074 H   0  0  0  0  0  0  0  0  0  0  0  0
  1  2  2  0  0  0  0
  1  3  1  0  0  0  0
  1  7  1  0  0  0  0
  3  4  1  0  0  0  0
  3  5  1  0  0  0  0
  3  6  1  0  0  0  0
  7  8  1  0  0  0  0
  7 12  1  0  0  0  0
  8  9  1  0  0  0  0
  8 11  1  0  0  0  0
  8 13  1  0  0  0  0
  9 10  2  0  0  0  0
  9 17  1  0  0  0  0
 11 14  1  0  0  0  0
 11 15  1  0  0  0  0
 11 16  1  0  0  0  0
 17 18  1  0  0  0  0
 17 27  1  0  0  0  0
 18 19  1  0  0  0  0
 18 21  1  0  0  0  0
 18 28  1  0  0  0  0
 19 20  2  0  0  0  0
 19 35  1  0  0  0  0
 21 22  1  0  0  0  0
 21 29  1  0  0  0  0
 21 30  1  0  0  0  0
 22 23  1  0  0  0  0
 22 24  2  0  0  0  0
 23 25  2  0  0  0  0
 23 31  1  0  0  0  0
 24 26  1  0  0  0  0
 24 32  1  0  0  0  0
 25 26  1  0  0  0  0
 25 33  1  0  0  0  0
 26 34  1  0  0  0  0
 35 36  1  0  0  0  0
 35 40  1  0  0  0  0
 36 37  1  0  0  0  0
 36 39  1  0  0  0  0
 36 41  1  0  0  0  0
 37 38  2  0  0  0  0
 37 45  1  0  0  0  0
 39 42  1  0  0  0  0
 39 43  1  0  0  0  0
 39 44  1  0  0  0  0
 45 46  1  0  0  0  0
 45 47  1  0  0  0  0
 46 48  1  0  0  0  0
 46 49  1  0  0  0  0
 46 50  1  0  0  0  0
M  CHG  1  23   1
M  END
$$$$

  -OEChem-05262216443D

 50 50  0     1  0  0  0  0  0999 V2000
   -2.7332   -0.0377    3.2593 C   0  0  0  0  0  0  0  0  0  0  0  0
   -2.9820   -0.1651    2.0647 O   0  0  0  0  0  0  0  0  0  0  0  0
   -3.4453   -0.9108    4.2743 C   0  0  0  0  0  0  0  0  0  0  0  0
   -4.2001   -1.5291    3.7811 H   0  0  0  0  0  0  0  0  0  0  0  0
   -2.7254   -1.5627    4.7755 H   0  0  0  0  0  0  0  0  0  0  0  0
   -3.9398   -0.2855    5.0221 H   0  0  0  0  0  0  0  0  0  0  0  0
   -1.7906    0.8727    3.6941 N   0  0  0  0  0  0  0  0  0  0  0  0
   -0.9521    1.6652    2.7850 C   0  0  2  0  0  0  0  0  0  0  0  0
    0.0165    0.7984    1.9527 C   0  0  0  0  0  0  0  0  0  0  0  0
    0.6196   -0.1397    2.4640 O   0  0  0  0  0  0  0  0  0  0  0  0
   -0.1620    2.6772    3.6166 C   0  0  0  0  0  0  0  0  0  0  0  0
   -1.5097    0.8098    4.6693 H   0  0  0  0  0  0  0  0  0  0  0  0
   -1.6015    2.2152    2.0961 H   0  0  0  0  0  0  0  0  0  0  0  0
    0.4970    2.1631    4.3243 H   0  0  0  0  0  0  0  0  0  0  0  0
    0.4562    3.3040    2.9653 H   0  0  0  0  0  0  0  0  0  0  0  0
   -0.8419    3.3260    4.1777 H   0  0  0  0  0  0  0  0  0  0  0  0
    0.0366    0.9442    0.5779 N   0  0  0  0  0  0  0  0  0  0  0  0
    1.0631    0.3207   -0.2744 C   0  0  2  0  0  0  0  0  0  0  0  0
    2.2751    1.2652   -0.4668 C   0  0  0  0  0  0  0  0  0  0  0  0
    2.5745    2.0517    0.4224 O   0  0  0  0  0  0  0  0  0  0  0  0
    0.3363   -0.1157   -1.5609 C   0  0  0  0  0  0  0  0  0  0  0  0
   -0.6813   -1.1658   -1.1746 C   0  0  0  0  0  0  0  0  0  0  0  0
   -0.4486   -2.5001   -0.8354 N   0  3  0  0  0  0  0  0  0  0  0  0
   -2.0093   -0.9096   -0.9458 C   0  0  0  0  0  0  0  0  0  0  0  0
   -1.5449   -3.0389   -0.3570 C   0  0  0  0  0  0  0  0  0  0  0  0
   -2.5495   -2.0773   -0.4311 N   0  0  0  0  0  0  0  0  0  0  0  0
   -0.3620    1.8185    0.2428 H   0  0  0  0  0  0  0  0  0  0  0  0
    1.4691   -0.5761    0.2052 H   0  0  0  0  0  0  0  0  0  0  0  0
    1.0357   -0.5367   -2.2894 H   0  0  0  0  0  0  0  0  0  0  0  0
   -0.1526    0.7486   -2.0267 H   0  0  0  0  0  0  0  0  0  0  0  0
    0.4845   -2.9179   -0.8235 H   0  0  0  0  0  0  0  0  0  0  0  0
   -2.5099    0.0536   -1.0386 H   0  0  0  0  0  0  0  0  0  0  0  0
   -1.6449   -4.0418    0.0602 H   0  0  0  0  0  0  0  0  0  0  0  0
   -3.4743   -2.1432    0.0052 H   0  0  0  0  0  0  0  0  0  0  0  0
    2.8360    1.4437   -1.7209 N   0  0  0  0  0  0  0  0  0  0  0  0
    3.2895    2.7807   -2.1337 C   0  0  2  0  0  0  0  0  0  0  0  0
    2.0833    3.6780   -2.4980 C   0  0  0  0  0  0  0  0  0  0  0  0
    0.9908    3.1657   -2.7359 O   0  0  0  0  0  0  0  0  0  0  0  0
    4.2251    2.6158   -3.3337 C   0  0  0  0  0  0  0  0  0  0  0  0
    2.3966    0.9031   -2.4580 H   0  0  0  0  0  0  0  0  0  0  0  0
    3.8491    3.2625   -1.3239 H   0  0  0  0  0  0  0  0  0  0  0  0
    3.6961    2.1570   -4.1752 H   0  0  0  0  0  0  0  0  0  0  0  0
    4.6103    3.5885   -3.6559 H   0  0  0  0  0  0  0  0  0  0  0  0
    5.0762    1.9808   -3.0671 H   0  0  0  0  0  0  0  0  0  0  0  0
    2.2153    5.0522   -2.5515 N   0  0  0  0  0  0  0  0  0  0  0  0
    1.1050    5.9535   -2.8388 C   0  0  0  0  0  0  0  0  0  0  0  0
    3.1146    5.4505   -2.2945 H   0  0  0  0  0  0  0  0  0  0  0  0
    0.6644    5.7225   -3.8145 H   0  0  0  0  0  0  0  0  0  0  0  0
    0.3293    5.8628   -2.0712 H   0  0  0  0  0  0  0  0  0  0  0  0
    1.4536    6.9909   -2.8567 H   0  0  0  0  0  0  0  0  0  0  0  0
  1  2  2  0  0  0  0
  1  3  1  0  0  0  0
  1  7  1  0  0  0  0
  3  4  1  0  0  0  0
  3  5  1  0  0  0  0
  3  6  1  0  0  0  0
  7  8  1  0  0  0  0
  7 12  1  0  0  0  0
  8  9  1  0  0  0  0
  8 11  1  0  0  0  0
  8 13  1  0  0  0  0
  9 10  2  0  0  0  0
  9 17  1  0  0  0  0
 11 14  1  0  0  0  0
 11 15  1  0  0  0  0
 11 16  1  0  0  0  0
 17 18  1  0  0  0  0
 17 27  1  0  0  0  0
 18 19  1  0  0  0  0
 18 21  1  0  0  0  0
 18 28  1  0  0  0  0
 19 20  2  0  0  0  0
 19 35  1  0  0  0  0
 21 22  1  0  0  0  0
 21 29  1  0  0  0  0
 21 30  1  0  0  0  0
 22 23  1  0  0  0  0
 22 24  2  0  0  0  0
 23 25  2  0  0  0  0
 23 31  1  0  0  0  0
 24 26  1  0  0  0  0
 24 32  1  0  0  0  0
 25 26  1  0  0  0  0
 25 33  1  0  0  0  0
 26 34  1  0  0  0  0
 35 36  1  0  0  0  0
 35 40  1  0  0  0  0
 36 37  1  0  0  0  0
 36 39  1  0  0  0  0
 36 41  1  0  0  0  0
 37 38  2  0  0  0  0
 37 45  1  0  0  0  0
 39 42  1  0  0  0  0
 39 43  1  0  0  0  0
 39 44  1  0  0  0  0
 45 46  1  0  0  0  0
 45 47  1  0  0  0  0
 46 48  1  0  0  0  0
 46 49  1  0  0  0  0
 46 50  1  0  0  0  0
M  CHG  1  23   1
M  END
$$$$

  -OEChem-05262216443D

 50 50  0     1  0  0  0  0  0999 V2000
   -2.5804    0.0312    3.2905 C   0  0  0  0  0  0  0  0  0  0  0  0
   -2.9158   -0.1501    2.1240 O   0  0  0  0  0  0  0  0  0  0  0  0
   -3.1797   -0.8277    4.3875 C   0  0  0  0  0  0  0  0  0  0  0  0
   -3.9408   -1.4954    3.9752 H   0  0  0  0  0  0  0  0  0  0  0  0
   -2.3985   -1.4301    4.8580 H   0  0  0  0  0  0  0  0  0  0  0  0
   -3.6449   -0.1928    5.1459 H   0  0  0  0  0  0  0  0  0  0  0  0
   -1.6353    0.9835    3.6191 N   0  0  0  0  0  0  0  0  0  0  0  0
   -0.8647    1.7299    2.6155 C   0  0  2  0  0  0  0  0  0  0  0  0
    0.0797    0.8258    1.7951 C   0  0  0  0  0  0  0  0  0  0  0  0
    0.6606   -0.1174    2.3229 O   0  0  0  0  0  0  0  0  0  0  0  0
   -0.0563    2.8137    3.3308 C   0  0  0  0  0  0  0  0  0  0  0  0
   -1.2694    0.9493    4.5671 H   0  0  0  0  0  0  0  0  0  0  0  0
   -1.5621    2.2163    1.9255 H   0  0  0  0  0  0  0  0  0  0  0  0
    0.6543    2.3630    4.0316 H   0  0  0  0  0  0  0  0  0  0  0  0
    0.5074    3.4092    2.6051 H   0  0  0  0  0  0  0  0  0  0  0  0
   -0.7201    3.4836    3.8861 H   0  0  0  0  0  0  0  0  0  0  0  0
    0.0698    0.9259    0.4163 N   0  0  0  0  0  0  0  0  0  0  0  0
    1.0420    0.2335   -0.4445 C   0  0  2  0  0  0  0  0  0  0  0  0
    2.2775    1.1281   -0.6912 C   0  0  0  0  0  0  0  0  0  0  0  0
    2.7893    1.7279    0.2444 O   0  0  0  0  0  0  0  0  0  0  0  0
    0.2626   -0.2310   -1.6882 C   0  0  0  0  0  0  0  0  0  0  0  0
   -0.7717   -1.2299   -1.2192 C   0  0  0  0  0  0  0  0  0  0  0  0
   -0.5652   -2.5540   -0.8276 N   0  3  0  0  0  0  0  0  0  0  0  0
   -2.0772   -0.9169   -0.9368 C   0  0  0  0  0  0  0  0  0  0  0  0
   -1.6513   -3.0295   -0.2661 C   0  0  0  0  0  0  0  0  0  0  0  0
   -2.6275   -2.0389   -0.3380 N   0  0  0  0  0  0  0  0  0  0  0  0
   -0.3028    1.8052    0.0589 H   0  0  0  0  0  0  0  0  0  0  0  0
    1.4327   -0.6577    0.0578 H   0  0  0  0  0  0  0  0  0  0  0  0
    0.9281   -0.7025   -2.4184 H   0  0  0  0  0  0  0  0  0  0  0  0
   -0.2190    0.6277   -2.1716 H   0  0  0  0  0  0  0  0  0  0  0  0
    0.3547   -3.0004   -0.8362 H   0  0  0  0  0  0  0  0  0  0  0  0
   -2.5483    0.0595   -1.0447 H   0  0  0  0  0  0  0  0  0  0  0  0
   -1.7598   -4.0048    0.2103 H   0  0  0  0  0  0  0  0  0  0  0  0
   -3.5213   -2.0448    0.1637 H   0  0  0  0  0  0  0  0  0  0  0  0
    2.6163    1.5007   -1.9815 N   0  0  0  0  0  0  0  0  0  0  0  0
    2.9959    2.8996   -2.2307 C   0  0  2  0  0  0  0  0  0  0  0  0
    1.7747    3.8415   -2.0857 C   0  0  0  0  0  0  0  0  0  0  0  0
    0.6343    3.3776   -2.0770 O   0  0  0  0  0  0  0  0  0  0  0  0
    3.5846    2.9872   -3.6410 C   0  0  0  0  0  0  0  0  0  0  0  0
    2.0292    1.0910   -2.6995 H   0  0  0  0  0  0  0  0  0  0  0  0
    3.7629    3.2157   -1.5145 H   0  0  0  0  0  0  0  0  0  0  0  0
    2.8380    2.7041   -4.3899 H   0  0  0  0  0  0  0  0  0  0  0  0
    3.9188    4.0076   -3.8539 H   0  0  0  0  0  0  0  0  0  0  0  0
    4.4458    2.3179   -3.7348 H   0  0  0  0  0  0  0  0  0  0  0  0
    1.9523    5.2057   -1.9598 N   0  0  0  0  0  0  0  0  0  0  0  0
    0.8517    6.1482   -1.7949 C   0  0  0  0  0  0  0  0  0  0  0  0
    2.9061    5.5546   -1.9116 H   0  0  0  0  0  0  0  0  0  0  0  0
    0.1555    6.0768   -2.6373 H   0  0  0  0  0  0  0  0  0  0  0  0
    0.3064    5.9431   -0.8677 H   0  0  0  0  0  0  0  0  0  0  0  0
    1.2338    7.1730   -1.7514 H   0  0  0  0  0  0  0  0  0  0  0  0
  1  2  2  0  0  0  0
  1  3  1  0  0  0  0
  1  7  1  0  0  0  0
  3  4  1  0  0  0  0
  3  5  1  0  0  0  0
  3  6  1  0  0  0  0
  7  8  1  0  0  0  0
  7 12  1  0  0  0  0
  8  9  1  0  0  0  0
  8 11  1  0  0  0  0
  8 13  1  0  0  0  0
  9 10  2  0  0  0  0
  9 17  1  0  0  0  0
 11 14  1  0  0  0  0
 11 15  1  0  0  0  0
 11 16  1  0  0  0  0
 17 18  1  0  0  0  0
 17 27  1  0  0  0  0
 18 19  1  0  0  0  0
 18 21  1  0  0  0  0
 18 28  1  0  0  0  0
 19 20  2  0  0  0  0
 19 35  1  0  0  0  0
 21 22  1  0  0  0  0
 21 29  1  0  0  0  0
 21 30  1  0  0  0  0
 22 23  1  0  0  0  0
 22 24  2  0  0  0  0
 23 25  2  0  0  0  0
 23 31  1  0  0  0  0
 24 26  1  0  0  0  0
 24 32  1  0  0  0  0
 25 26  1  0  0  0  0
 25 33  1  0  0  0  0
 26 34  1  0  0  0  0
 35 36  1  0  0  0  0
 35 40  1  0  0  0  0
 36 37  1  0  0  0  0
 36 39  1  0  0  0  0
 36 41  1  0  0  0  0
 37 38  2  0  0  0  0
 37 45  1  0  0  0  0
 39 42  1  0  0  0  0
 39 43  1  0  0  0  0
 39 44  1  0  0  0  0
 45 46  1  0  0  0  0
 45 47  1  0  0  0  0
 46 48  1  0  0  0  0
 46 49  1  0  0  0  0
 46 50  1  0  0  0  0
M  CHG  1  23   1
M  END
$$$$

  -OEChem-05262216443D

 50 50  0     1  0  0  0  0  0999 V2000
   -2.4220    0.1777    3.3003 C   0  0  0  0  0  0  0  0  0  0  0  0
   -2.8235   -0.0531    2.1636 O   0  0  0  0  0  0  0  0  0  0  0  0
   -2.9695   -0.6224    4.4666 C   0  0  0  0  0  0  0  0  0  0  0  0
   -3.7696   -1.2868    4.1301 H   0  0  0  0  0  0  0  0  0  0  0  0
   -2.1735   -1.2248    4.9115 H   0  0  0  0  0  0  0  0  0  0  0  0
   -3.3718    0.0528    5.2261 H   0  0  0  0  0  0  0  0  0  0  0  0
   -1.4493    1.1305    3.5336 N   0  0  0  0  0  0  0  0  0  0  0  0
   -0.7187    1.8090    2.4546 C   0  0  2  0  0  0  0  0  0  0  0  0
    0.1702    0.8466    1.6391 C   0  0  0  0  0  0  0  0  0  0  0  0
    0.7294   -0.1028    2.1789 O   0  0  0  0  0  0  0  0  0  0  0  0
    0.1397    2.9165    3.0672 C   0  0  0  0  0  0  0  0  0  0  0  0
   -1.0290    1.1280    4.4594 H   0  0  0  0  0  0  0  0  0  0  0  0
   -1.4426    2.2688    1.7733 H   0  0  0  0  0  0  0  0  0  0  0  0
    0.8860    2.4921    3.7470 H   0  0  0  0  0  0  0  0  0  0  0  0
    0.6644    3.4687    2.2807 H   0  0  0  0  0  0  0  0  0  0  0  0
   -0.4853    3.6197    3.6261 H   0  0  0  0  0  0  0  0  0  0  0  0
    0.1120    0.9000    0.2601 N   0  0  0  0  0  0  0  0  0  0  0  0
    1.0312    0.1559   -0.6132 C   0  0  2  0  0  0  0  0  0  0  0  0
    2.2630    1.0324   -0.9179 C   0  0  0  0  0  0  0  0  0  0  0  0
    2.9508    1.4564   -0.0001 O   0  0  0  0  0  0  0  0  0  0  0  0
    0.1969   -0.3341   -1.8088 C   0  0  0  0  0  0  0  0  0  0  0  0
   -0.8367   -1.2917   -1.2580 C   0  0  0  0  0  0  0  0  0  0  0  0
   -0.6420   -2.6039   -0.8226 N   0  3  0  0  0  0  0  0  0  0  0  0
   -2.1157   -0.9309   -0.9160 C   0  0  0  0  0  0  0  0  0  0  0  0
   -1.7056   -3.0243   -0.1799 C   0  0  0  0  0  0  0  0  0  0  0  0
   -2.6592   -2.0109   -0.2392 N   0  0  0  0  0  0  0  0  0  0  0  0
   -0.2138    1.7979   -0.1081 H   0  0  0  0  0  0  0  0  0  0  0  0
    1.4265   -0.7254   -0.0966 H   0  0  0  0  0  0  0  0  0  0  0  0
    0.8271   -0.8417   -2.5466 H   0  0  0  0  0  0  0  0  0  0  0  0
   -0.2914    0.5149   -2.3009 H   0  0  0  0  0  0  0  0  0  0  0  0
    0.2657   -3.0735   -0.8576 H   0  0  0  0  0  0  0  0  0  0  0  0
   -2.5642    0.0554   -1.0314 H   0  0  0  0  0  0  0  0  0  0  0  0
   -1.8111   -3.9741    0.3461 H   0  0  0  0  0  0  0  0  0  0  0  0
   -3.5156   -1.9651    0.3227 H   0  0  0  0  0  0  0  0  0  0  0  0
    2.3794    1.6225   -2.1649 N   0  0  0  0  0  0  0  0  0  0  0  0
    2.6660    3.0650   -2.2115 C   0  0  2  0  0  0  0  0  0  0  0  0
    1.4791    3.8989   -1.6596 C   0  0  0  0  0  0  0  0  0  0  0  0
    0.3772    3.3763   -1.4798 O   0  0  0  0  0  0  0  0  0  0  0  0
    2.9624    3.4398   -3.6657 C   0  0  0  0  0  0  0  0  0  0  0  0
    1.6804    1.3143   -2.8316 H   0  0  0  0  0  0  0  0  0  0  0  0
    3.5529    3.2894   -1.6076 H   0  0  0  0  0  0  0  0  0  0  0  0
    2.0884    3.2549   -4.2983 H   0  0  0  0  0  0  0  0  0  0  0  0
    3.2274    4.4990   -3.7423 H   0  0  0  0  0  0  0  0  0  0  0  0
    3.8014    2.8482   -4.0463 H   0  0  0  0  0  0  0  0  0  0  0  0
    1.6468    5.2348   -1.3492 N   0  0  0  0  0  0  0  0  0  0  0  0
    0.5898    6.0725   -0.7930 C   0  0  0  0  0  0  0  0  0  0  0  0
    2.5791    5.6283   -1.4501 H   0  0  0  0  0  0  0  0  0  0  0  0
   -0.2859    6.0753   -1.4507 H   0  0  0  0  0  0  0  0  0  0  0  0
    0.2893    5.7054    0.1939 H   0  0  0  0  0  0  0  0  0  0  0  0
    0.9407    7.1038   -0.6863 H   0  0  0  0  0  0  0  0  0  0  0  0
  1  2  2  0  0  0  0
  1  3  1  0  0  0  0
  1  7  1  0  0  0  0
  3  4  1  0  0  0  0
  3  5  1  0  0  0  0
  3  6  1  0  0  0  0
  7  8  1  0  0  0  0
  7 12  1  0  0  0  0
  8  9  1  0  0  0  0
  8 11  1  0  0  0  0
  8 13  1  0  0  0  0
  9 10  2  0  0  0  0
  9 17  1  0  0  0  0
 11 14  1  0  0  0  0
 11 15  1  0  0  0  0
 11 16  1  0  0  0  0
 17 18  1  0  0  0  0
 17 27  1  0  0  0  0
 18 19  1  0  0  0  0
 18 21  1  0  0  0  0
 18 28  1  0  0  0  0
 19 20  2  0  0  0  0
 19 35  1  0  0  0  0
 21 22  1  0  0  0  0
 21 29  1  0  0  0  0
 21 30  1  0  0  0  0
 22 23  1  0  0  0  0
 22 24  2  0  0  0  0
 23 25  2  0  0  0  0
 23 31  1  0  0  0  0
 24 26  1  0  0  0  0
 24 32  1  0  0  0  0
 25 26  1  0  0  0  0
 25 33  1  0  0  0  0
 26 34  1  0  0  0  0
 35 36  1  0  0  0  0
 35 40  1  0  0  0  0
 36 37  1  0  0  0  0
 36 39  1  0  0  0  0
 36 41  1  0  0  0  0
 37 38  2  0  0  0  0
 37 45  1  0  0  0  0
 39 42  1  0  0  0  0
 39 43  1  0  0  0  0
 39 44  1  0  0  0  0
 45 46  1  0  0  0  0
 45 47  1  0  0  0  0
 46 48  1  0  0  0  0
 46 49  1  0  0  0  0
 46 50  1  0  0  0  0
M  CHG  1  23   1
M  END
$$$$

  -OEChem-05262216443D

 50 50  0     1  0  0  0  0  0999 V2000
   -2.2929    0.1803    3.3566 C   0  0  0  0  0  0  0  0  0  0  0  0
   -2.7426   -0.0752    2.2436 O   0  0  0  0  0  0  0  0  0  0  0  0
   -2.7883   -0.5959    4.5623 C   0  0  0  0  0  0  0  0  0  0  0  0
   -3.5943   -1.2754    4.2730 H   0  0  0  0  0  0  0  0  0  0  0  0
   -1.9708   -1.1805    4.9916 H   0  0  0  0  0  0  0  0  0  0  0  0
   -3.1684    0.0942    5.3199 H   0  0  0  0  0  0  0  0  0  0  0  0
   -1.3170    1.1433    3.5281 N   0  0  0  0  0  0  0  0  0  0  0  0
   -0.6502    1.8233    2.4085 C   0  0  2  0  0  0  0  0  0  0  0  0
    0.2007    0.8662    1.5468 C   0  0  0  0  0  0  0  0  0  0  0  0
    0.8163   -0.0619    2.0608 O   0  0  0  0  0  0  0  0  0  0  0  0
    0.2311    2.9387    2.9727 C   0  0  0  0  0  0  0  0  0  0  0  0
   -0.8600    1.1668    4.4361 H   0  0  0  0  0  0  0  0  0  0  0  0
   -1.4118    2.2772    1.7654 H   0  0  0  0  0  0  0  0  0  0  0  0
    1.0094    2.5232    3.6215 H   0  0  0  0  0  0  0  0  0  0  0  0
    0.7167    3.4865    2.1586 H   0  0  0  0  0  0  0  0  0  0  0  0
   -0.3705    3.6443    3.5538 H   0  0  0  0  0  0  0  0  0  0  0  0
    0.0452    0.8965    0.1744 N   0  0  0  0  0  0  0  0  0  0  0  0
    0.9244    0.1627   -0.7495 C   0  0  2  0  0  0  0  0  0  0  0  0
    2.1074    1.0610   -1.1548 C   0  0  0  0  0  0  0  0  0  0  0  0
    3.0013    1.2902   -0.3547 O   0  0  0  0  0  0  0  0  0  0  0  0
    0.0369   -0.3834   -1.8797 C   0  0  0  0  0  0  0  0  0  0  0  0
   -0.9208   -1.3644   -1.2410 C   0  0  0  0  0  0  0  0  0  0  0  0
   -0.6423   -2.6569   -0.7921 N   0  3  0  0  0  0  0  0  0  0  0  0
   -2.1861   -1.0457   -0.8166 C   0  0  0  0  0  0  0  0  0  0  0  0
   -1.6409   -3.1042   -0.0684 C   0  0  0  0  0  0  0  0  0  0  0  0
   -2.6371   -2.1311   -0.0829 N   0  0  0  0  0  0  0  0  0  0  0  0
   -0.3028    1.7977   -0.1677 H   0  0  0  0  0  0  0  0  0  0  0  0
    1.3808   -0.6953   -0.2436 H   0  0  0  0  0  0  0  0  0  0  0  0
    0.6405   -0.8823   -2.6454 H   0  0  0  0  0  0  0  0  0  0  0  0
   -0.5158    0.4323   -2.3582 H   0  0  0  0  0  0  0  0  0  0  0  0
    0.2803   -3.0897   -0.8792 H   0  0  0  0  0  0  0  0  0  0  0  0
   -2.6810   -0.0799   -0.9162 H   0  0  0  0  0  0  0  0  0  0  0  0
   -1.6695   -4.0444    0.4841 H   0  0  0  0  0  0  0  0  0  0  0  0
   -3.4552   -2.1069    0.5340 H   0  0  0  0  0  0  0  0  0  0  0  0
    1.9760    1.8688   -2.2710 N   0  0  0  0  0  0  0  0  0  0  0  0
    2.3514    3.2860   -2.1560 C   0  0  2  0  0  0  0  0  0  0  0  0
    1.3160    4.0737   -1.3129 C   0  0  0  0  0  0  0  0  0  0  0  0
    0.2268    3.5696   -1.0323 O   0  0  0  0  0  0  0  0  0  0  0  0
    2.4528    3.8619   -3.5708 C   0  0  0  0  0  0  0  0  0  0  0  0
    1.1225    1.7066   -2.7944 H   0  0  0  0  0  0  0  0  0  0  0  0
    3.3312    3.3804   -1.6737 H   0  0  0  0  0  0  0  0  0  0  0  0
    1.4850    3.8106   -4.0799 H   0  0  0  0  0  0  0  0  0  0  0  0
    2.7715    4.9084   -3.5373 H   0  0  0  0  0  0  0  0  0  0  0  0
    3.1864    3.2993   -4.1571 H   0  0  0  0  0  0  0  0  0  0  0  0
    1.6016    5.3492   -0.8656 N   0  0  0  0  0  0  0  0  0  0  0  0
    0.6783    6.1535   -0.0733 C   0  0  0  0  0  0  0  0  0  0  0  0
    2.5215    5.7280   -1.0765 H   0  0  0  0  0  0  0  0  0  0  0  0
   -0.2774    6.2694   -0.5958 H   0  0  0  0  0  0  0  0  0  0  0  0
    0.4948    5.6836    0.8982 H   0  0  0  0  0  0  0  0  0  0  0  0
    1.0975    7.1497    0.0992 H   0  0  0  0  0  0  0  0  0  0  0  0
  1  2  2  0  0  0  0
  1  3  1  0  0  0  0
  1  7  1  0  0  0  0
  3  4  1  0  0  0  0
  3  5  1  0  0  0  0
  3  6  1  0  0  0  0
  7  8  1  0  0  0  0
  7 12  1  0  0  0  0
  8  9  1  0  0  0  0
  8 11  1  0  0  0  0
  8 13  1  0  0  0  0
  9 10  2  0  0  0  0
  9 17  1  0  0  0  0
 11 14  1  0  0  0  0
 11 15  1  0  0  0  0
 11 16  1  0  0  0  0
 17 18  1  0  0  0  0
 17 27  1  0  0  0  0
 18 19  1  0  0  0  0
 18 21  1  0  0  0  0
 18 28  1  0  0  0  0
 19 20  2  0  0  0  0
 19 35  1  0  0  0  0
 21 22  1  0  0  0  0
 21 29  1  0  0  0  0
 21 30  1  0  0  0  0
 22 23  1  0  0  0  0
 22 24  2  0  0  0  0
 23 25  2  0  0  0  0
 23 31  1  0  0  0  0
 24 26  1  0  0  0  0
 24 32  1  0  0  0  0
 25 26  1  0  0  0  0
 25 33  1  0  0  0  0
 26 34  1  0  0  0  0
 35 36  1  0  0  0  0
 35 40  1  0  0  0  0
 36 37  1  0  0  0  0
 36 39  1  0  0  0  0
 36 41  1  0  0  0  0
 37 38  2  0  0  0  0
 37 45  1  0  0  0  0
 39 42  1  0  0  0  0
 39 43  1  0  0  0  0
 39 44  1  0  0  0  0
 45 46  1  0  0  0  0
 45 47  1  0  0  0  0
 46 48  1  0  0  0  0
 46 49  1  0  0  0  0
 46 50  1  0  0  0  0
M  CHG  1  23   1
M  END
$$$$

  -OEChem-05262216443D

 50 50  0     1  0  0  0  0  0999 V2000
   -2.1837    0.1616    3.3917 C   0  0  0  0  0  0  0  0  0  0  0  0
   -2.6560   -0.0769    2.2848 O   0  0  0  0  0  0  0  0  0  0  0  0
   -2.6527   -0.6352    4.5938 C   0  0  0  0  0  0  0  0  0  0  0  0
   -3.4579   -1.3171    4.3080 H   0  0  0  0  0  0  0  0  0  0  0  0
   -1.8232   -1.2189    5.0012 H   0  0  0  0  0  0  0  0  0  0  0  0
   -3.0256    0.0414    5.3669 H   0  0  0  0  0  0  0  0  0  0  0  0
   -1.2039    1.1209    3.5579 N   0  0  0  0  0  0  0  0  0  0  0  0
   -0.5635    1.8251    2.4380 C   0  0  2  0  0  0  0  0  0  0  0  0
    0.2343    0.8789    1.5154 C   0  0  0  0  0  0  0  0  0  0  0  0
    0.9228   -0.0202    1.9854 O   0  0  0  0  0  0  0  0  0  0  0  0
    0.3641    2.8977    3.0117 C   0  0  0  0  0  0  0  0  0  0  0  0
   -0.7365    1.1404    4.4606 H   0  0  0  0  0  0  0  0  0  0  0  0
   -1.3359    2.3192    1.8387 H   0  0  0  0  0  0  0  0  0  0  0  0
    1.1405    2.4426    3.6355 H   0  0  0  0  0  0  0  0  0  0  0  0
    0.8528    3.4472    2.2013 H   0  0  0  0  0  0  0  0  0  0  0  0
   -0.2034    3.6090    3.6198 H   0  0  0  0  0  0  0  0  0  0  0  0
   -0.0208    0.8997    0.1572 N   0  0  0  0  0  0  0  0  0  0  0  0
    0.8186    0.1922   -0.8251 C   0  0  2  0  0  0  0  0  0  0  0  0
    1.9410    1.1191   -1.3208 C   0  0  0  0  0  0  0  0  0  0  0  0
    3.0179    1.1433   -0.7471 O   0  0  0  0  0  0  0  0  0  0  0  0
   -0.1096   -0.3881   -1.9027 C   0  0  0  0  0  0  0  0  0  0  0  0
   -0.9937   -1.4038   -1.2156 C   0  0  0  0  0  0  0  0  0  0  0  0
   -0.6359   -2.6842   -0.7889 N   0  3  0  0  0  0  0  0  0  0  0  0
   -2.2491   -1.1441   -0.7265 C   0  0  0  0  0  0  0  0  0  0  0  0
   -1.5799   -3.1841   -0.0277 C   0  0  0  0  0  0  0  0  0  0  0  0
   -2.6165   -2.2552    0.0159 N   0  0  0  0  0  0  0  0  0  0  0  0
   -0.4244    1.7894   -0.1492 H   0  0  0  0  0  0  0  0  0  0  0  0
    1.3332   -0.6494   -0.3476 H   0  0  0  0  0  0  0  0  0  0  0  0
    0.4707   -0.8643   -2.7003 H   0  0  0  0  0  0  0  0  0  0  0  0
   -0.7163    0.4042   -2.3530 H   0  0  0  0  0  0  0  0  0  0  0  0
    0.2985   -3.0766   -0.9288 H   0  0  0  0  0  0  0  0  0  0  0  0
   -2.7924   -0.2022   -0.7948 H   0  0  0  0  0  0  0  0  0  0  0  0
   -1.5436   -4.1328    0.5097 H   0  0  0  0  0  0  0  0  0  0  0  0
   -3.4134   -2.2799    0.6595 H   0  0  0  0  0  0  0  0  0  0  0  0
    1.6116    2.1233   -2.2129 N   0  0  0  0  0  0  0  0  0  0  0  0
    2.1092    3.4864   -1.9806 C   0  0  2  0  0  0  0  0  0  0  0  0
    1.1996    4.2330   -0.9739 C   0  0  0  0  0  0  0  0  0  0  0  0
    0.1255    3.7379   -0.6276 O   0  0  0  0  0  0  0  0  0  0  0  0
    2.1442    4.2070   -3.3305 C   0  0  0  0  0  0  0  0  0  0  0  0
    0.6445    2.0889   -2.5196 H   0  0  0  0  0  0  0  0  0  0  0  0
    3.1269    3.4656   -1.5740 H   0  0  0  0  0  0  0  0  0  0  0  0
    1.1385    4.2776   -3.7570 H   0  0  0  0  0  0  0  0  0  0  0  0
    2.5444    5.2193   -3.2161 H   0  0  0  0  0  0  0  0  0  0  0  0
    2.7840    3.6629   -4.0328 H   0  0  0  0  0  0  0  0  0  0  0  0
    1.5757    5.4590   -0.4600 N   0  0  0  0  0  0  0  0  0  0  0  0
    0.7476    6.2461    0.4473 C   0  0  0  0  0  0  0  0  0  0  0  0
    2.4786    5.8319   -0.7434 H   0  0  0  0  0  0  0  0  0  0  0  0
   -0.2473    6.4086    0.0189 H   0  0  0  0  0  0  0  0  0  0  0  0
    0.6378    5.7366    1.4097 H   0  0  0  0  0  0  0  0  0  0  0  0
    1.2065    7.2238    0.6255 H   0  0  0  0  0  0  0  0  0  0  0  0
  1  2  2  0  0  0  0
  1  3  1  0  0  0  0
  1  7  1  0  0  0  0
  3  4  1  0  0  0  0
  3  5  1  0  0  0  0
  3  6  1  0  0  0  0
  7  8  1  0  0  0  0
  7 12  1  0  0  0  0
  8  9  1  0  0  0  0
  8 11  1  0  0  0  0
  8 13  1  0  0  0  0
  9 10  2  0  0  0  0
  9 17  1  0  0  0  0
 11 14  1  0  0  0  0
 11 15  1  0  0  0  0
 11 16  1  0  0  0  0
 17 18  1  0  0  0  0
 17 27  1  0  0  0  0
 18 19  1  0  0  0  0
 18 21  1  0  0  0  0
 18 28  1  0  0  0  0
 19 20  2  0  0  0  0
 19 35  1  0  0  0  0
 21 22  1  0  0  0  0
 21 29  1  0  0  0  0
 21 30  1  0  0  0  0
 22 23  1  0  0  0  0
 22 24  2  0  0  0  0
 23 25  2  0  0  0  0
 23 31  1  0  0  0  0
 24 26  1  0  0  0  0
 24 32  1  0  0  0  0
 25 26  1  0  0  0  0
 25 33  1  0  0  0  0
 26 34  1  0  0  0  0
 35 36  1  0  0  0  0
 35 40  1  0  0  0  0
 36 37  1  0  0  0  0
 36 39  1  0  0  0  0
 36 41  1  0  0  0  0
 37 38  2  0  0  0  0
 37 45  1  0  0  0  0
 39 42  1  0  0  0  0
 39 43  1  0  0  0  0
 39 44  1  0  0  0  0
 45 46  1  0  0  0  0
 45 47  1  0  0  0  0
 46 48  1  0  0  0  0
 46 49  1  0  0  0  0
 46 50  1  0  0  0  0
M  CHG  1  23   1
M  END
$$$$

  -OEChem-05262216443D

 50 50  0     1  0  0  0  0  0999 V2000
   -2.1320    0.1831    3.3875 C   0  0  0  0  0  0  0  0  0  0  0  0
   -2.5989    0.0011    2.2686 O   0  0  0  0  0  0  0  0  0  0  0  0
   -2.6834   -0.5936    4.5678 C   0  0  0  0  0  0  0  0  0  0  0  0
   -3.5489   -1.1877    4.2625 H   0  0  0  0  0  0  0  0  0  0  0  0
   -1.9164   -1.2630    4.9650 H   0  0  0  0  0  0  0  0  0  0  0  0
   -2.9951    0.0976    5.3551 H   0  0  0  0  0  0  0  0  0  0  0  0
   -1.0885    1.0643    3.5881 N   0  0  0  0  0  0  0  0  0  0  0  0
   -0.4154    1.7990    2.5079 C   0  0  2  0  0  0  0  0  0  0  0  0
    0.3089    0.8690    1.5106 C   0  0  0  0  0  0  0  0  0  0  0  0
    1.0821    0.0053    1.9083 O   0  0  0  0  0  0  0  0  0  0  0  0
    0.5853    2.7631    3.1494 C   0  0  0  0  0  0  0  0  0  0  0  0
   -0.6542    1.0609    4.5071 H   0  0  0  0  0  0  0  0  0  0  0  0
   -1.1567    2.3861    1.9551 H   0  0  0  0  0  0  0  0  0  0  0  0
    1.3278    2.2136    3.7374 H   0  0  0  0  0  0  0  0  0  0  0  0
    1.1123    3.3314    2.3772 H   0  0  0  0  0  0  0  0  0  0  0  0
    0.0686    3.4691    3.8067 H   0  0  0  0  0  0  0  0  0  0  0  0
   -0.0601    0.8895    0.1778 N   0  0  0  0  0  0  0  0  0  0  0  0
    0.7273    0.2285   -0.8805 C   0  0  2  0  0  0  0  0  0  0  0  0
    1.7692    1.1931   -1.4696 C   0  0  0  0  0  0  0  0  0  0  0  0
    2.9575    1.0395   -1.2405 O   0  0  0  0  0  0  0  0  0  0  0  0
   -0.2497   -0.3653   -1.9039 C   0  0  0  0  0  0  0  0  0  0  0  0
   -1.0528   -1.4279   -1.1919 C   0  0  0  0  0  0  0  0  0  0  0  0
   -0.6167   -2.7025   -0.8266 N   0  3  0  0  0  0  0  0  0  0  0  0
   -2.2976   -1.2455   -0.6452 C   0  0  0  0  0  0  0  0  0  0  0  0
   -1.5065   -3.2772   -0.0534 C   0  0  0  0  0  0  0  0  0  0  0  0
   -2.5837   -2.4019    0.0633 N   0  0  0  0  0  0  0  0  0  0  0  0
   -0.5515    1.7491   -0.0749 H   0  0  0  0  0  0  0  0  0  0  0  0
    1.3048   -0.6007   -0.4561 H   0  0  0  0  0  0  0  0  0  0  0  0
    0.2944   -0.8024   -2.7481 H   0  0  0  0  0  0  0  0  0  0  0  0
   -0.9097    0.4145   -2.2979 H   0  0  0  0  0  0  0  0  0  0  0  0
    0.3262   -3.0462   -1.0262 H   0  0  0  0  0  0  0  0  0  0  0  0
   -2.8917   -0.3320   -0.6645 H   0  0  0  0  0  0  0  0  0  0  0  0
   -1.4062   -4.2456    0.4386 H   0  0  0  0  0  0  0  0  0  0  0  0
   -3.3770   -2.5096    0.7019 H   0  0  0  0  0  0  0  0  0  0  0  0
    1.3164    2.3571   -2.0612 N   0  0  0  0  0  0  0  0  0  0  0  0
    1.9479    3.6439   -1.7426 C   0  0  2  0  0  0  0  0  0  0  0  0
    1.1488    4.3521   -0.6226 C   0  0  0  0  0  0  0  0  0  0  0  0
    0.0943    3.8586   -0.2187 O   0  0  0  0  0  0  0  0  0  0  0  0
    1.9824    4.4827   -3.0225 C   0  0  0  0  0  0  0  0  0  0  0  0
    0.3028    2.4126   -2.1078 H   0  0  0  0  0  0  0  0  0  0  0  0
    2.9763    3.5045   -1.3907 H   0  0  0  0  0  0  0  0  0  0  0  0
    0.9682    4.6677   -3.3906 H   0  0  0  0  0  0  0  0  0  0  0  0
    2.4670    5.4465   -2.8387 H   0  0  0  0  0  0  0  0  0  0  0  0
    2.5458    3.9591   -3.8018 H   0  0  0  0  0  0  0  0  0  0  0  0
    1.5987    5.5341   -0.0668 N   0  0  0  0  0  0  0  0  0  0  0  0
    0.8609    6.2830    0.9449 C   0  0  0  0  0  0  0  0  0  0  0  0
    2.4724    5.9187   -0.4179 H   0  0  0  0  0  0  0  0  0  0  0  0
   -0.1544    6.5023    0.5975 H   0  0  0  0  0  0  0  0  0  0  0  0
    0.7993    5.7135    1.8776 H   0  0  0  0  0  0  0  0  0  0  0  0
    1.3637    7.2324    1.1537 H   0  0  0  0  0  0  0  0  0  0  0  0
  1  2  2  0  0  0  0
  1  3  1  0  0  0  0
  1  7  1  0  0  0  0
  3  4  1  0  0  0  0
  3  5  1  0  0  0  0
  3  6  1  0  0  0  0
  7  8  1  0  0  0  0
  7 12  1  0  0  0  0
  8  9  1  0  0  0  0
  8 11  1  0  0  0  0
  8 13  1  0  0  0  0
  9 10  2  0  0  0  0
  9 17  1  0  0  0  0
 11 14  1  0  0  0  0
 11 15  1  0  0  0  0
 11 16  1  0  0  0  0
 17 18  1  0  0  0  0
 17 27  1  0  0  0  0
 18 19  1  0  0  0  0
 18 21  1  0  0  0  0
 18 28  1  0  0  0  0
 19 20  2  0  0  0  0
 19 35  1  0  0  0  0
 21 22  1  0  0  0  0
 21 29  1  0  0  0  0
 21 30  1  0  0  0  0
 22 23  1  0  0  0  0
 22 24  2  0  0  0  0
 23 25  2  0  0  0  0
 23 31  1  0  0  0  0
 24 26  1  0  0  0  0
 24 32  1  0  0  0  0
 25 26  1  0  0  0  0
 25 33  1  0  0  0  0
 26 34  1  0  0  0  0
 35 36  1  0  0  0  0
 35 40  1  0  0  0  0
 36 37  1  0  0  0  0
 36 39  1  0  0  0  0
 36 41  1  0  0  0  0
 37 38  2  0  0  0  0
 37 45  1  0  0  0  0
 39 42  1  0  0  0  0
 39 43  1  0  0  0  0
 39 44  1  0  0  0  0
 45 46  1  0  0  0  0
 45 47  1  0  0  0  0
 46 48  1  0  0  0  0
 46 49  1  0  0  0  0
 46 50  1  0  0  0  0
M  CHG  1  23   1
M  END
$$$$

  -OEChem-05262216443D

 50 50  0     1  0  0  0  0  0999 V2000
   -2.2213   -0.4452    3.5401 C   0  0  0  0  0  0  0  0  0  0  0  0
   -2.6931   -0.6516    2.4268 O   0  0  0  0  0  0  0  0  0  0  0  0
   -2.4578   -1.4409    4.6592 C   0  0  0  0  0  0  0  0  0  0  0  0
   -3.1633   -2.2122    4.3393 H   0  0  0  0  0  0  0  0  0  0  0  0
   -1.5153   -1.9176    4.9400 H   0  0  0  0  0  0  0  0  0  0  0  0
   -2.8715   -0.9294    5.5322 H   0  0  0  0  0  0  0  0  0  0  0  0
   -1.4437    0.6701    3.7758 N   0  0  0  0  0  0  0  0  0  0  0  0
   -1.0485    1.6156    2.7249 C   0  0  2  0  0  0  0  0  0  0  0  0
   -0.0446    1.0000    1.7260 C   0  0  0  0  0  0  0  0  0  0  0  0
    0.9500    0.4047    2.1195 O   0  0  0  0  0  0  0  0  0  0  0  0
   -0.4466    2.8518    3.3969 C   0  0  0  0  0  0  0  0  0  0  0  0
   -0.9417    0.7024    4.6599 H   0  0  0  0  0  0  0  0  0  0  0  0
   -1.9408    1.9278    2.1724 H   0  0  0  0  0  0  0  0  0  0  0  0
    0.4582    2.5864    3.9531 H   0  0  0  0  0  0  0  0  0  0  0  0
   -0.1812    3.6027    2.6458 H   0  0  0  0  0  0  0  0  0  0  0  0
   -1.1657    3.2985    4.0906 H   0  0  0  0  0  0  0  0  0  0  0  0
   -0.3406    1.0032    0.3744 N   0  0  0  0  0  0  0  0  0  0  0  0
    0.5284    0.4297   -0.6712 C   0  0  2  0  0  0  0  0  0  0  0  0
    1.5291    1.4507   -1.2327 C   0  0  0  0  0  0  0  0  0  0  0  0
    2.6575    1.0922   -1.5311 O   0  0  0  0  0  0  0  0  0  0  0  0
   -0.3361   -0.2184   -1.7603 C   0  0  0  0  0  0  0  0  0  0  0  0
   -1.0864   -1.3691   -1.1349 C   0  0  0  0  0  0  0  0  0  0  0  0
   -0.5457   -2.6086   -0.7895 N   0  3  0  0  0  0  0  0  0  0  0  0
   -2.3890   -1.3522   -0.7057 C   0  0  0  0  0  0  0  0  0  0  0  0
   -1.4305   -3.3196   -0.1337 C   0  0  0  0  0  0  0  0  0  0  0  0
   -2.6027   -2.5696   -0.0754 N   0  0  0  0  0  0  0  0  0  0  0  0
   -1.1730    1.5179    0.1015 H   0  0  0  0  0  0  0  0  0  0  0  0
    1.1442   -0.3610   -0.2271 H   0  0  0  0  0  0  0  0  0  0  0  0
    0.2945   -0.5812   -2.5803 H   0  0  0  0  0  0  0  0  0  0  0  0
   -1.0307    0.5175   -2.1791 H   0  0  0  0  0  0  0  0  0  0  0  0
    0.4385   -2.8471   -0.9400 H   0  0  0  0  0  0  0  0  0  0  0  0
   -3.0889   -0.5203   -0.7669 H   0  0  0  0  0  0  0  0  0  0  0  0
   -1.2701   -4.3030    0.3104 H   0  0  0  0  0  0  0  0  0  0  0  0
   -3.4323   -2.8004    0.4794 H   0  0  0  0  0  0  0  0  0  0  0  0
    1.0942    2.7221   -1.5475 N   0  0  0  0  0  0  0  0  0  0  0  0
    2.0158    3.8632   -1.6087 C   0  0  2  0  0  0  0  0  0  0  0  0
    1.7287    4.8208   -0.4316 C   0  0  0  0  0  0  0  0  0  0  0  0
    0.6983    4.6799    0.2249 O   0  0  0  0  0  0  0  0  0  0  0  0
    1.8194    4.5647   -2.9543 C   0  0  0  0  0  0  0  0  0  0  0  0
    0.1948    2.9564   -1.1322 H   0  0  0  0  0  0  0  0  0  0  0  0
    3.0583    3.5359   -1.5284 H   0  0  0  0  0  0  0  0  0  0  0  0
    0.7910    4.9264   -3.0541 H   0  0  0  0  0  0  0  0  0  0  0  0
    2.4981    5.4183   -3.0455 H   0  0  0  0  0  0  0  0  0  0  0  0
    2.0266    3.8703   -3.7749 H   0  0  0  0  0  0  0  0  0  0  0  0
    2.6191    5.8234   -0.0996 N   0  0  0  0  0  0  0  0  0  0  0  0
    2.4161    6.7386    1.0177 C   0  0  0  0  0  0  0  0  0  0  0  0
    3.4773    5.8932   -0.6402 H   0  0  0  0  0  0  0  0  0  0  0  0
    1.4829    7.2980    0.8919 H   0  0  0  0  0  0  0  0  0  0  0  0
    2.3720    6.1867    1.9626 H   0  0  0  0  0  0  0  0  0  0  0  0
    3.2410    7.4557    1.0750 H   0  0  0  0  0  0  0  0  0  0  0  0
  1  2  2  0  0  0  0
  1  3  1  0  0  0  0
  1  7  1  0  0  0  0
  3  4  1  0  0  0  0
  3  5  1  0  0  0  0
  3  6  1  0  0  0  0
  7  8  1  0  0  0  0
  7 12  1  0  0  0  0
  8  9  1  0  0  0  0
  8 11  1  0  0  0  0
  8 13  1  0  0  0  0
  9 10  2  0  0  0  0
  9 17  1  0  0  0  0
 11 14  1  0  0  0  0
 11 15  1  0  0  0  0
 11 16  1  0  0  0  0
 17 18  1  0  0  0  0
 17 27  1  0  0  0  0
 18 19  1  0  0  0  0
 18 21  1  0  0  0  0
 18 28  1  0  0  0  0
 19 20  2  0  0  0  0
 19 35  1  0  0  0  0
 21 22  1  0  0  0  0
 21 29  1  0  0  0  0
 21 30  1  0  0  0  0
 22 23  1  0  0  0  0
 22 24  2  0  0  0  0
 23 25  2  0  0  0  0
 23 31  1  0  0  0  0
 24 26  1  0  0  0  0
 24 32  1  0  0  0  0
 25 26  1  0  0  0  0
 25 33  1  0  0  0  0
 26 34  1  0  0  0  0
 35 36  1  0  0  0  0
 35 40  1  0  0  0  0
 36 37  1  0  0  0  0
 36 39  1  0  0  0  0
 36 41  1  0  0  0  0
 37 38  2  0  0  0  0
 37 45  1  0  0  0  0
 39 42  1  0  0  0  0
 39 43  1  0  0  0  0
 39 44  1  0  0  0  0
 45 46  1  0  0  0  0
 45 47  1  0  0  0  0
 46 48  1  0  0  0  0
 46 49  1  0  0  0  0
 46 50  1  0  0  0  0
M  CHG  1  23   1
M  END
$$$$

  -OEChem-05262216443D

 50 50  0     1  0  0  0  0  0999 V2000
   -2.1589   -0.6187    3.5820 C   0  0  0  0  0  0  0  0  0  0  0  0
   -2.6497   -0.8147    2.4748 O   0  0  0  0  0  0  0  0  0  0  0  0
   -2.2993   -1.6664    4.6691 C   0  0  0  0  0  0  0  0  0  0  0  0
   -2.8131   -2.5499    4.2816 H   0  0  0  0  0  0  0  0  0  0  0  0
   -1.3120   -1.9641    5.0315 H   0  0  0  0  0  0  0  0  0  0  0  0
   -2.8772   -1.2614    5.5037 H   0  0  0  0  0  0  0  0  0  0  0  0
   -1.4483    0.5363    3.8380 N   0  0  0  0  0  0  0  0  0  0  0  0
   -1.1266    1.5279    2.8044 C   0  0  2  0  0  0  0  0  0  0  0  0
   -0.1165    0.9898    1.7679 C   0  0  0  0  0  0  0  0  0  0  0  0
    0.9144    0.4338    2.1232 O   0  0  0  0  0  0  0  0  0  0  0  0
   -0.5706    2.7768    3.4926 C   0  0  0  0  0  0  0  0  0  0  0  0
   -0.9255    0.5698    4.7102 H   0  0  0  0  0  0  0  0  0  0  0  0
   -2.0459    1.8077    2.2798 H   0  0  0  0  0  0  0  0  0  0  0  0
    0.3565    2.5433    4.0267 H   0  0  0  0  0  0  0  0  0  0  0  0
   -0.3552    3.5553    2.7535 H   0  0  0  0  0  0  0  0  0  0  0  0
   -1.2964    3.1747    4.2087 H   0  0  0  0  0  0  0  0  0  0  0  0
   -0.4302    1.0304    0.4206 N   0  0  0  0  0  0  0  0  0  0  0  0
    0.4305    0.4882   -0.6496 C   0  0  2  0  0  0  0  0  0  0  0  0
    1.4276    1.5174   -1.2028 C   0  0  0  0  0  0  0  0  0  0  0  0
    2.4322    1.1304   -1.7798 O   0  0  0  0  0  0  0  0  0  0  0  0
   -0.4433   -0.1305   -1.7486 C   0  0  0  0  0  0  0  0  0  0  0  0
   -1.1867   -1.3005   -1.1516 C   0  0  0  0  0  0  0  0  0  0  0  0
   -0.6382   -2.5476   -0.8489 N   0  3  0  0  0  0  0  0  0  0  0  0
   -2.4891   -1.3062   -0.7211 C   0  0  0  0  0  0  0  0  0  0  0  0
   -1.5168   -3.2846   -0.2141 C   0  0  0  0  0  0  0  0  0  0  0  0
   -2.6935   -2.5449   -0.1293 N   0  0  0  0  0  0  0  0  0  0  0  0
   -1.3078    1.4791    0.1732 H   0  0  0  0  0  0  0  0  0  0  0  0
    1.0522   -0.3126   -0.2333 H   0  0  0  0  0  0  0  0  0  0  0  0
    0.1796   -0.4678   -2.5854 H   0  0  0  0  0  0  0  0  0  0  0  0
   -1.1418    0.6171   -2.1390 H   0  0  0  0  0  0  0  0  0  0  0  0
    0.3455   -2.7775   -1.0154 H   0  0  0  0  0  0  0  0  0  0  0  0
   -3.1956   -0.4784   -0.7604 H   0  0  0  0  0  0  0  0  0  0  0  0
   -1.3502   -4.2811    0.1972 H   0  0  0  0  0  0  0  0  0  0  0  0
   -3.5183   -2.7988    0.4224 H   0  0  0  0  0  0  0  0  0  0  0  0
    1.0984    2.8566   -1.1972 N   0  0  0  0  0  0  0  0  0  0  0  0
    2.1005    3.9214   -1.3146 C   0  0  2  0  0  0  0  0  0  0  0  0
    1.9904    4.8665   -0.0981 C   0  0  0  0  0  0  0  0  0  0  0  0
    1.0105    4.7880    0.6402 O   0  0  0  0  0  0  0  0  0  0  0  0
    1.8539    4.6712   -2.6257 C   0  0  0  0  0  0  0  0  0  0  0  0
    0.3269    3.0910   -0.5738 H   0  0  0  0  0  0  0  0  0  0  0  0
    3.1139    3.5048   -1.3223 H   0  0  0  0  0  0  0  0  0  0  0  0
    0.8516    5.1112   -2.6346 H   0  0  0  0  0  0  0  0  0  0  0  0
    2.5869    5.4733   -2.7542 H   0  0  0  0  0  0  0  0  0  0  0  0
    1.9415    3.9850   -3.4741 H   0  0  0  0  0  0  0  0  0  0  0  0
    2.9861    5.7817    0.1844 N   0  0  0  0  0  0  0  0  0  0  0  0
    2.9480    6.6765    1.3359 C   0  0  0  0  0  0  0  0  0  0  0  0
    3.7986    5.8024   -0.4261 H   0  0  0  0  0  0  0  0  0  0  0  0
    2.0835    7.3459    1.2737 H   0  0  0  0  0  0  0  0  0  0  0  0
    2.8830    6.1027    2.2665 H   0  0  0  0  0  0  0  0  0  0  0  0
    3.8549    7.2882    1.3714 H   0  0  0  0  0  0  0  0  0  0  0  0
  1  2  2  0  0  0  0
  1  3  1  0  0  0  0
  1  7  1  0  0  0  0
  3  4  1  0  0  0  0
  3  5  1  0  0  0  0
  3  6  1  0  0  0  0
  7  8  1  0  0  0  0
  7 12  1  0  0  0  0
  8  9  1  0  0  0  0
  8 11  1  0  0  0  0
  8 13  1  0  0  0  0
  9 10  2  0  0  0  0
  9 17  1  0  0  0  0
 11 14  1  0  0  0  0
 11 15  1  0  0  0  0
 11 16  1  0  0  0  0
 17 18  1  0  0  0  0
 17 27  1  0  0  0  0
 18 19  1  0  0  0  0
 18 21  1  0  0  0  0
 18 28  1  0  0  0  0
 19 20  2  0  0  0  0
 19 35  1  0  0  0  0
 21 22  1  0  0  0  0
 21 29  1  0  0  0  0
 21 30  1  0  0  0  0
 22 23  1  0  0  0  0
 22 24  2  0  0  0  0
 23 25  2  0  0  0  0
 23 31  1  0  0  0  0
 24 26  1  0  0  0  0
 24 32  1  0  0  0  0
 25 26  1  0  0  0  0
 25 33  1  0  0  0  0
 26 34  1  0  0  0  0
 35 36  1  0  0  0  0
 35 40  1  0  0  0  0
 36 37  1  0  0  0  0
 36 39  1  0  0  0  0
 36 41  1  0  0  0  0
 37 38  2  0  0  0  0
 37 45  1  0  0  0  0
 39 42  1  0  0  0  0
 39 43  1  0  0  0  0
 39 44  1  0  0  0  0
 45 46  1  0  0  0  0
 45 47  1  0  0  0  0
 46 48  1  0  0  0  0
 46 49  1  0  0  0  0
 46 50  1  0  0  0  0
M  CHG  1  23   1
M  END
$$$$

  -OEChem-05262216443D

 50 50  0     1  0  0  0  0  0999 V2000
   -2.1451   -0.6942    3.5903 C   0  0  0  0  0  0  0  0  0  0  0  0
   -2.6647   -0.8646    2.4924 O   0  0  0  0  0  0  0  0  0  0  0  0
   -2.2559   -1.7672    4.6559 C   0  0  0  0  0  0  0  0  0  0  0  0
   -2.8555   -2.6056    4.2917 H   0  0  0  0  0  0  0  0  0  0  0  0
   -1.2610   -2.1333    4.9220 H   0  0  0  0  0  0  0  0  0  0  0  0
   -2.7341   -1.3563    5.5487 H   0  0  0  0  0  0  0  0  0  0  0  0
   -1.4242    0.4528    3.8527 N   0  0  0  0  0  0  0  0  0  0  0  0
   -1.1355    1.4731    2.8377 C   0  0  2  0  0  0  0  0  0  0  0  0
   -0.1428    0.9699    1.7667 C   0  0  0  0  0  0  0  0  0  0  0  0
    0.9016    0.4177    2.0864 O   0  0  0  0  0  0  0  0  0  0  0  0
   -0.5778    2.7096    3.5471 C   0  0  0  0  0  0  0  0  0  0  0  0
   -0.8797    0.4669    4.7120 H   0  0  0  0  0  0  0  0  0  0  0  0
   -2.0695    1.7563    2.3417 H   0  0  0  0  0  0  0  0  0  0  0  0
    0.3688    2.4756    4.0456 H   0  0  0  0  0  0  0  0  0  0  0  0
   -0.3965    3.5138    2.8269 H   0  0  0  0  0  0  0  0  0  0  0  0
   -1.2871    3.0738    4.2968 H   0  0  0  0  0  0  0  0  0  0  0  0
   -0.4827    1.0355    0.4262 N   0  0  0  0  0  0  0  0  0  0  0  0
    0.3655    0.5270   -0.6716 C   0  0  2  0  0  0  0  0  0  0  0  0
    1.3426    1.5766   -1.2261 C   0  0  0  0  0  0  0  0  0  0  0  0
    2.2155    1.2315   -2.0082 O   0  0  0  0  0  0  0  0  0  0  0  0
   -0.5309   -0.0797   -1.7614 C   0  0  0  0  0  0  0  0  0  0  0  0
   -1.2473   -1.2692   -1.1704 C   0  0  0  0  0  0  0  0  0  0  0  0
   -0.6803   -2.5169   -0.9073 N   0  3  0  0  0  0  0  0  0  0  0  0
   -2.5352   -1.2928   -0.6992 C   0  0  0  0  0  0  0  0  0  0  0  0
   -1.5332   -3.2726   -0.2591 C   0  0  0  0  0  0  0  0  0  0  0  0
   -2.7116   -2.5428   -0.1228 N   0  0  0  0  0  0  0  0  0  0  0  0
   -1.3614    1.4937    0.2006 H   0  0  0  0  0  0  0  0  0  0  0  0
    1.0055   -0.2749   -0.2867 H   0  0  0  0  0  0  0  0  0  0  0  0
    0.0718   -0.3946   -2.6212 H   0  0  0  0  0  0  0  0  0  0  0  0
   -1.2459    0.6686   -2.1187 H   0  0  0  0  0  0  0  0  0  0  0  0
    0.2989   -2.7364   -1.1099 H   0  0  0  0  0  0  0  0  0  0  0  0
   -3.2481   -0.4697   -0.6984 H   0  0  0  0  0  0  0  0  0  0  0  0
   -1.3467   -4.2758    0.1275 H   0  0  0  0  0  0  0  0  0  0  0  0
   -3.5142   -2.8094    0.4553 H   0  0  0  0  0  0  0  0  0  0  0  0
    1.1618    2.9094   -0.9237 N   0  0  0  0  0  0  0  0  0  0  0  0
    2.2143    3.9210   -1.0577 C   0  0  2  0  0  0  0  0  0  0  0  0
    2.2662    4.7790    0.2251 C   0  0  0  0  0  0  0  0  0  0  0  0
    1.3569    4.6907    1.0474 O   0  0  0  0  0  0  0  0  0  0  0  0
    1.9110    4.7806   -2.2874 C   0  0  0  0  0  0  0  0  0  0  0  0
    0.5150    3.0847   -0.1551 H   0  0  0  0  0  0  0  0  0  0  0  0
    3.1932    3.4442   -1.1803 H   0  0  0  0  0  0  0  0  0  0  0  0
    0.9456    5.2846   -2.1751 H   0  0  0  0  0  0  0  0  0  0  0  0
    2.6858    5.5407   -2.4264 H   0  0  0  0  0  0  0  0  0  0  0  0
    1.8761    4.1554   -3.1853 H   0  0  0  0  0  0  0  0  0  0  0  0
    3.3290    5.6260    0.4735 N   0  0  0  0  0  0  0  0  0  0  0  0
    3.4399    6.4363    1.6815 C   0  0  0  0  0  0  0  0  0  0  0  0
    4.0774    5.6634   -0.2134 H   0  0  0  0  0  0  0  0  0  0  0  0
    2.6050    7.1420    1.7481 H   0  0  0  0  0  0  0  0  0  0  0  0
    3.4354    5.8000    2.5731 H   0  0  0  0  0  0  0  0  0  0  0  0
    4.3737    7.0070    1.6703 H   0  0  0  0  0  0  0  0  0  0  0  0
  1  2  2  0  0  0  0
  1  3  1  0  0  0  0
  1  7  1  0  0  0  0
  3  4  1  0  0  0  0
  3  5  1  0  0  0  0
  3  6  1  0  0  0  0
  7  8  1  0  0  0  0
  7 12  1  0  0  0  0
  8  9  1  0  0  0  0
  8 11  1  0  0  0  0
  8 13  1  0  0  0  0
  9 10  2  0  0  0  0
  9 17  1  0  0  0  0
 11 14  1  0  0  0  0
 11 15  1  0  0  0  0
 11 16  1  0  0  0  0
 17 18  1  0  0  0  0
 17 27  1  0  0  0  0
 18 19  1  0  0  0  0
 18 21  1  0  0  0  0
 18 28  1  0  0  0  0
 19 20  2  0  0  0  0
 19 35  1  0  0  0  0
 21 22  1  0  0  0  0
 21 29  1  0  0  0  0
 21 30  1  0  0  0  0
 22 23  1  0  0  0  0
 22 24  2  0  0  0  0
 23 25  2  0  0  0  0
 23 31  1  0  0  0  0
 24 26  1  0  0  0  0
 24 32  1  0  0  0  0
 25 26  1  0  0  0  0
 25 33  1  0  0  0  0
 26 34  1  0  0  0  0
 35 36  1  0  0  0  0
 35 40  1  0  0  0  0
 36 37  1  0  0  0  0
 36 39  1  0  0  0  0
 36 41  1  0  0  0  0
 37 38  2  0  0  0  0
 37 45  1  0  0  0  0
 39 42  1  0  0  0  0
 39 43  1  0  0  0  0
 39 44  1  0  0  0  0
 45 46  1  0  0  0  0
 45 47  1  0  0  0  0
 46 48  1  0  0  0  0
 46 49  1  0  0  0  0
 46 50  1  0  0  0  0
M  CHG  1  23   1
M  END
$$$$

  -OEChem-05262216443D

 50 50  0     1  0  0  0  0  0999 V2000
   -2.1804   -0.7664    3.6133 C   0  0  0  0  0  0  0  0  0  0  0  0
   -2.7127   -0.8912    2.5152 O   0  0  0  0  0  0  0  0  0  0  0  0
   -2.3241   -1.8593    4.6547 C   0  0  0  0  0  0  0  0  0  0  0  0
   -2.9900   -2.6469    4.2921 H   0  0  0  0  0  0  0  0  0  0  0  0
   -1.3464   -2.2962    4.8731 H   0  0  0  0  0  0  0  0  0  0  0  0
   -2.7420   -1.4441    5.5756 H   0  0  0  0  0  0  0  0  0  0  0  0
   -1.4163    0.3470    3.8983 N   0  0  0  0  0  0  0  0  0  0  0  0
   -1.1007    1.3844    2.9090 C   0  0  2  0  0  0  0  0  0  0  0  0
   -0.1474    0.8742    1.8066 C   0  0  0  0  0  0  0  0  0  0  0  0
    0.8821    0.2762    2.0896 O   0  0  0  0  0  0  0  0  0  0  0  0
   -0.4770    2.5737    3.6445 C   0  0  0  0  0  0  0  0  0  0  0  0
   -0.8690    0.3220    4.7556 H   0  0  0  0  0  0  0  0  0  0  0  0
   -2.0294    1.7220    2.4375 H   0  0  0  0  0  0  0  0  0  0  0  0
    0.4659    2.2827    4.1194 H   0  0  0  0  0  0  0  0  0  0  0  0
   -0.2707    3.3911    2.9457 H   0  0  0  0  0  0  0  0  0  0  0  0
   -1.1572    2.9460    4.4170 H   0  0  0  0  0  0  0  0  0  0  0  0
   -0.4977    1.0060    0.4739 N   0  0  0  0  0  0  0  0  0  0  0  0
    0.3331    0.5333   -0.6529 C   0  0  2  0  0  0  0  0  0  0  0  0
    1.3250    1.5911   -1.1708 C   0  0  0  0  0  0  0  0  0  0  0  0
    2.0212    1.3422   -2.1439 O   0  0  0  0  0  0  0  0  0  0  0  0
   -0.5956   -0.0066   -1.7528 C   0  0  0  0  0  0  0  0  0  0  0  0
   -1.3278   -1.2063   -1.2023 C   0  0  0  0  0  0  0  0  0  0  0  0
   -0.7872   -2.4774   -1.0035 N   0  3  0  0  0  0  0  0  0  0  0  0
   -2.6052   -1.2179   -0.7028 C   0  0  0  0  0  0  0  0  0  0  0  0
   -1.6459   -3.2388   -0.3697 C   0  0  0  0  0  0  0  0  0  0  0  0
   -2.8018   -2.4863   -0.1761 N   0  0  0  0  0  0  0  0  0  0  0  0
   -1.3464    1.5289    0.2741 H   0  0  0  0  0  0  0  0  0  0  0  0
    0.9620   -0.2974   -0.3136 H   0  0  0  0  0  0  0  0  0  0  0  0
   -0.0161   -0.2975   -2.6367 H   0  0  0  0  0  0  0  0  0  0  0  0
   -1.2994    0.7720   -2.0648 H   0  0  0  0  0  0  0  0  0  0  0  0
    0.1810   -2.7128   -1.2384 H   0  0  0  0  0  0  0  0  0  0  0  0
   -3.2952   -0.3774   -0.6491 H   0  0  0  0  0  0  0  0  0  0  0  0
   -1.4777   -4.2620   -0.0305 H   0  0  0  0  0  0  0  0  0  0  0  0
   -3.5996   -2.7574    0.4063 H   0  0  0  0  0  0  0  0  0  0  0  0
    1.3715    2.8376   -0.5836 N   0  0  0  0  0  0  0  0  0  0  0  0
    2.4237    3.8328   -0.8081 C   0  0  2  0  0  0  0  0  0  0  0  0
    2.6278    4.6703    0.4736 C   0  0  0  0  0  0  0  0  0  0  0  0
    1.8261    4.5652    1.3990 O   0  0  0  0  0  0  0  0  0  0  0  0
    2.0224    4.7235   -1.9881 C   0  0  0  0  0  0  0  0  0  0  0  0
    0.8809    2.9250    0.3063 H   0  0  0  0  0  0  0  0  0  0  0  0
    3.3704    3.3302   -1.0351 H   0  0  0  0  0  0  0  0  0  0  0  0
    1.0796    5.2383   -1.7765 H   0  0  0  0  0  0  0  0  0  0  0  0
    2.7936    5.4748   -2.1827 H   0  0  0  0  0  0  0  0  0  0  0  0
    1.8951    4.1204   -2.8929 H   0  0  0  0  0  0  0  0  0  0  0  0
    3.7108    5.5186    0.6043 N   0  0  0  0  0  0  0  0  0  0  0  0
    3.9660    6.3106    1.8027 C   0  0  0  0  0  0  0  0  0  0  0  0
    4.3705    5.5694   -0.1674 H   0  0  0  0  0  0  0  0  0  0  0  0
    3.1310    6.9921    1.9974 H   0  0  0  0  0  0  0  0  0  0  0  0
    4.0983    5.6588    2.6729 H   0  0  0  0  0  0  0  0  0  0  0  0
    4.8753    6.9068    1.6774 H   0  0  0  0  0  0  0  0  0  0  0  0
  1  2  2  0  0  0  0
  1  3  1  0  0  0  0
  1  7  1  0  0  0  0
  3  4  1  0  0  0  0
  3  5  1  0  0  0  0
  3  6  1  0  0  0  0
  7  8  1  0  0  0  0
  7 12  1  0  0  0  0
  8  9  1  0  0  0  0
  8 11  1  0  0  0  0
  8 13  1  0  0  0  0
  9 10  2  0  0  0  0
  9 17  1  0  0  0  0
 11 14  1  0  0  0  0
 11 15  1  0  0  0  0
 11 16  1  0  0  0  0
 17 18  1  0  0  0  0
 17 27  1  0  0  0  0
 18 19  1  0  0  0  0
 18 21  1  0  0  0  0
 18 28  1  0  0  0  0
 19 20  2  0  0  0  0
 19 35  1  0  0  0  0
 21 22  1  0  0  0  0
 21 29  1  0  0  0  0
 21 30  1  0  0  0  0
 22 23  1  0  0  0  0
 22 24  2  0  0  0  0
 23 25  2  0  0  0  0
 23 31  1  0  0  0  0
 24 26  1  0  0  0  0
 24 32  1  0  0  0  0
 25 26  1  0  0  0  0
 25 33  1  0  0  0  0
 26 34  1  0  0  0  0
 35 36  1  0  0  0  0
 35 40  1  0  0  0  0
 36 37  1  0  0  0  0
 36 39  1  0  0  0  0
 36 41  1  0  0  0  0
 37 38  2  0  0  0  0
 37 45  1  0  0  0  0
 39 42  1  0  0  0  0
 39 43  1  0  0  0  0
 39 44  1  0  0  0  0
 45 46  1  0  0  0  0
 45 47  1  0  0  0  0
 46 48  1  0  0  0  0
 46 49  1  0  0  0  0
 46 50  1  0  0  0  0
M  CHG  1  23   1
M  END
$$$$

  -OEChem-05262216443D

 50 50  0     1  0  0  0  0  0999 V2000
   -2.2436   -0.6612    3.6330 C   0  0  0  0  0  0  0  0  0  0  0  0
   -2.7670   -0.7823    2.5302 O   0  0  0  0  0  0  0  0  0  0  0  0
   -2.4656   -1.7171    4.6990 C   0  0  0  0  0  0  0  0  0  0  0  0
   -3.1369   -2.4966    4.3290 H   0  0  0  0  0  0  0  0  0  0  0  0
   -1.5125   -2.1747    4.9762 H   0  0  0  0  0  0  0  0  0  0  0  0
   -2.9129   -1.2619    5.5865 H   0  0  0  0  0  0  0  0  0  0  0  0
   -1.4233    0.4153    3.9031 N   0  0  0  0  0  0  0  0  0  0  0  0
   -1.0524    1.4219    2.9014 C   0  0  2  0  0  0  0  0  0  0  0  0
   -0.1402    0.8474    1.7963 C   0  0  0  0  0  0  0  0  0  0  0  0
    0.8737    0.2207    2.0733 O   0  0  0  0  0  0  0  0  0  0  0  0
   -0.3503    2.5777    3.6202 C   0  0  0  0  0  0  0  0  0  0  0  0
   -0.8944    0.3858    4.7717 H   0  0  0  0  0  0  0  0  0  0  0  0
   -1.9629    1.8102    2.4332 H   0  0  0  0  0  0  0  0  0  0  0  0
    0.5725    2.2320    4.0982 H   0  0  0  0  0  0  0  0  0  0  0  0
   -0.0910    3.3700    2.9102 H   0  0  0  0  0  0  0  0  0  0  0  0
   -1.0031    3.0045    4.3880 H   0  0  0  0  0  0  0  0  0  0  0  0
   -0.4955    0.9813    0.4656 N   0  0  0  0  0  0  0  0  0  0  0  0
    0.3222    0.4954   -0.6649 C   0  0  2  0  0  0  0  0  0  0  0  0
    1.3227    1.5476   -1.1827 C   0  0  0  0  0  0  0  0  0  0  0  0
    1.8381    1.4124   -2.2826 O   0  0  0  0  0  0  0  0  0  0  0  0
   -0.6300   -0.0338   -1.7515 C   0  0  0  0  0  0  0  0  0  0  0  0
   -1.3742   -1.2207   -1.1888 C   0  0  0  0  0  0  0  0  0  0  0  0
   -0.8544   -2.5009   -0.9924 N   0  3  0  0  0  0  0  0  0  0  0  0
   -2.6447   -1.2074   -0.6724 C   0  0  0  0  0  0  0  0  0  0  0  0
   -1.7182   -3.2444   -0.3445 C   0  0  0  0  0  0  0  0  0  0  0  0
   -2.8578   -2.4704   -0.1390 N   0  0  0  0  0  0  0  0  0  0  0  0
   -1.3085    1.5592    0.2685 H   0  0  0  0  0  0  0  0  0  0  0  0
    0.9434   -0.3426   -0.3313 H   0  0  0  0  0  0  0  0  0  0  0  0
   -0.0695   -0.3363   -2.6434 H   0  0  0  0  0  0  0  0  0  0  0  0
   -1.3257    0.7554   -2.0550 H   0  0  0  0  0  0  0  0  0  0  0  0
    0.1050   -2.7561   -1.2420 H   0  0  0  0  0  0  0  0  0  0  0  0
   -3.3172   -0.3530   -0.6127 H   0  0  0  0  0  0  0  0  0  0  0  0
   -1.5641   -4.2693   -0.0043 H   0  0  0  0  0  0  0  0  0  0  0  0
   -3.6565   -2.7272    0.4488 H   0  0  0  0  0  0  0  0  0  0  0  0
    1.6029    2.6590   -0.4163 N   0  0  0  0  0  0  0  0  0  0  0  0
    2.6403    3.6573   -0.6912 C   0  0  2  0  0  0  0  0  0  0  0  0
    3.0146    4.3867    0.6182 C   0  0  0  0  0  0  0  0  0  0  0  0
    2.3137    4.2384    1.6163 O   0  0  0  0  0  0  0  0  0  0  0  0
    2.1232    4.6561   -1.7329 C   0  0  0  0  0  0  0  0  0  0  0  0
    1.2612    2.6392    0.5451 H   0  0  0  0  0  0  0  0  0  0  0  0
    3.5384    3.1608   -1.0740 H   0  0  0  0  0  0  0  0  0  0  0  0
    1.2262    5.1638   -1.3635 H   0  0  0  0  0  0  0  0  0  0  0  0
    2.8846    5.4105   -1.9530 H   0  0  0  0  0  0  0  0  0  0  0  0
    1.8735    4.1418   -2.6661 H   0  0  0  0  0  0  0  0  0  0  0  0
    4.1333    5.1947    0.6887 N   0  0  0  0  0  0  0  0  0  0  0  0
    4.5370    5.8968    1.9026 C   0  0  0  0  0  0  0  0  0  0  0  0
    4.7023    5.2924   -0.1477 H   0  0  0  0  0  0  0  0  0  0  0  0
    3.7496    6.5853    2.2277 H   0  0  0  0  0  0  0  0  0  0  0  0
    4.7373    5.1846    2.7105 H   0  0  0  0  0  0  0  0  0  0  0  0
    5.4472    6.4767    1.7209 H   0  0  0  0  0  0  0  0  0  0  0  0
  1  2  2  0  0  0  0
  1  3  1  0  0  0  0
  1  7  1  0  0  0  0
  3  4  1  0  0  0  0
  3  5  1  0  0  0  0
  3  6  1  0  0  0  0
  7  8  1  0  0  0  0
  7 12  1  0  0  0  0
  8  9  1  0  0  0  0
  8 11  1  0  0  0  0
  8 13  1  0  0  0  0
  9 10  2  0  0  0  0
  9 17  1  0  0  0  0
 11 14  1  0  0  0  0
 11 15  1  0  0  0  0
 11 16  1  0  0  0  0
 17 18  1  0  0  0  0
 17 27  1  0  0  0  0
 18 19  1  0  0  0  0
 18 21  1  0  0  0  0
 18 28  1  0  0  0  0
 19 20  2  0  0  0  0
 19 35  1  0  0  0  0
 21 22  1  0  0  0  0
 21 29  1  0  0  0  0
 21 30  1  0  0  0  0
 22 23  1  0  0  0  0
 22 24  2  0  0  0  0
 23 25  2  0  0  0  0
 23 31  1  0  0  0  0
 24 26  1  0  0  0  0
 24 32  1  0  0  0  0
 25 26  1  0  0  0  0
 25 33  1  0  0  0  0
 26 34  1  0  0  0  0
 35 36  1  0  0  0  0
 35 40  1  0  0  0  0
 36 37  1  0  0  0  0
 36 39  1  0  0  0  0
 36 41  1  0  0  0  0
 37 38  2  0  0  0  0
 37 45  1  0  0  0  0
 39 42  1  0  0  0  0
 39 43  1  0  0  0  0
 39 44  1  0  0  0  0
 45 46  1  0  0  0  0
 45 47  1  0  0  0  0
 46 48  1  0  0  0  0
 46 49  1  0  0  0  0
 46 50  1  0  0  0  0
M  CHG  1  23   1
M  END
$$$$

  -OEChem-05262216443D

 50 50  0     1  0  0  0  0  0999 V2000
   -2.5496   -0.7806    3.4753 C   0  0  0  0  0  0  0  0  0  0  0  0
   -2.8168   -1.1642    2.3416 O   0  0  0  0  0  0  0  0  0  0  0  0
   -2.5633   -1.7614    4.6319 C   0  0  0  0  0  0  0  0  0  0  0  0
   -2.9183   -2.7397    4.2975 H   0  0  0  0  0  0  0  0  0  0  0  0
   -1.5554   -1.8717    5.0396 H   0  0  0  0  0  0  0  0  0  0  0  0
   -3.2279   -1.3994    5.4207 H   0  0  0  0  0  0  0  0  0  0  0  0
   -2.1970    0.5343    3.6997 N   0  0  0  0  0  0  0  0  0  0  0  0
   -2.0215    1.5176    2.6240 C   0  0  2  0  0  0  0  0  0  0  0  0
   -0.7143    1.2935    1.8337 C   0  0  0  0  0  0  0  0  0  0  0  0
    0.3555    1.1593    2.4094 O   0  0  0  0  0  0  0  0  0  0  0  0
   -2.0396    2.9144    3.2491 C   0  0  0  0  0  0  0  0  0  0  0  0
   -1.8170    0.7566    4.6174 H   0  0  0  0  0  0  0  0  0  0  0  0
   -2.8641    1.4433    1.9284 H   0  0  0  0  0  0  0  0  0  0  0  0
   -1.2109    3.0318    3.9555 H   0  0  0  0  0  0  0  0  0  0  0  0
   -1.9440    3.6809    2.4736 H   0  0  0  0  0  0  0  0  0  0  0  0
   -2.9803    3.0806    3.7836 H   0  0  0  0  0  0  0  0  0  0  0  0
   -0.7402    1.1969    0.4553 N   0  0  0  0  0  0  0  0  0  0  0  0
    0.4096    0.7938   -0.3796 C   0  0  2  0  0  0  0  0  0  0  0  0
    1.2886    1.9784   -0.8324 C   0  0  0  0  0  0  0  0  0  0  0  0
    1.8139    1.9578   -1.9378 O   0  0  0  0  0  0  0  0  0  0  0  0
   -0.1049   -0.0822   -1.5377 C   0  0  0  0  0  0  0  0  0  0  0  0
   -0.6943   -1.3443   -0.9577 C   0  0  0  0  0  0  0  0  0  0  0  0
    0.0300   -2.4187   -0.4398 N   0  3  0  0  0  0  0  0  0  0  0  0
   -2.0260   -1.6140   -0.7705 C   0  0  0  0  0  0  0  0  0  0  0  0
   -0.7838   -3.2929    0.0999 C   0  0  0  0  0  0  0  0  0  0  0  0
   -2.0814   -2.8290   -0.1014 N   0  0  0  0  0  0  0  0  0  0  0  0
   -1.6324    1.3723    0.0017 H   0  0  0  0  0  0  0  0  0  0  0  0
    1.0824    0.1731    0.2224 H   0  0  0  0  0  0  0  0  0  0  0  0
    0.7129   -0.3412   -2.2202 H   0  0  0  0  0  0  0  0  0  0  0  0
   -0.8514    0.4695   -2.1188 H   0  0  0  0  0  0  0  0  0  0  0  0
    1.0532   -2.4387   -0.4133 H   0  0  0  0  0  0  0  0  0  0  0  0
   -2.8670   -0.9713   -1.0262 H   0  0  0  0  0  0  0  0  0  0  0  0
   -0.4986   -4.2014    0.6324 H   0  0  0  0  0  0  0  0  0  0  0  0
   -2.9258   -3.2214    0.3261 H   0  0  0  0  0  0  0  0  0  0  0  0
    1.3990    3.1026   -0.0370 N   0  0  0  0  0  0  0  0  0  0  0  0
    2.4094    4.1365   -0.3081 C   0  0  2  0  0  0  0  0  0  0  0  0
    3.8019    3.7484    0.2359 C   0  0  0  0  0  0  0  0  0  0  0  0
    3.9006    2.9545    1.1638 O   0  0  0  0  0  0  0  0  0  0  0  0
    1.9305    5.4381    0.3382 C   0  0  0  0  0  0  0  0  0  0  0  0
    1.1960    2.9215    0.9469 H   0  0  0  0  0  0  0  0  0  0  0  0
    2.4999    4.2995   -1.3875 H   0  0  0  0  0  0  0  0  0  0  0  0
    1.8498    5.3198    1.4237 H   0  0  0  0  0  0  0  0  0  0  0  0
    2.6349    6.2497    0.1308 H   0  0  0  0  0  0  0  0  0  0  0  0
    0.9503    5.7214   -0.0577 H   0  0  0  0  0  0  0  0  0  0  0  0
    4.9464    4.3122   -0.2964 N   0  0  0  0  0  0  0  0  0  0  0  0
    6.2892    3.9767    0.1642 C   0  0  0  0  0  0  0  0  0  0  0  0
    4.8424    4.9269   -1.0985 H   0  0  0  0  0  0  0  0  0  0  0  0
    6.4028    4.2219    1.2256 H   0  0  0  0  0  0  0  0  0  0  0  0
    6.4862    2.9081    0.0265 H   0  0  0  0  0  0  0  0  0  0  0  0
    7.0368    4.5417   -0.4009 H   0  0  0  0  0  0  0  0  0  0  0  0
  1  2  2  0  0  0  0
  1  3  1  0  0  0  0
  1  7  1  0  0  0  0
  3  4  1  0  0  0  0
  3  5  1  0  0  0  0
  3  6  1  0  0  0  0
  7  8  1  0  0  0  0
  7 12  1  0  0  0  0
  8  9  1  0  0  0  0
  8 11  1  0  0  0  0
  8 13  1  0  0  0  0
  9 10  2  0  0  0  0
  9 17  1  0  0  0  0
 11 14  1  0  0  0  0
 11 15  1  0  0  0  0
 11 16  1  0  0  0  0
 17 18  1  0  0  0  0
 17 27  1  0  0  0  0
 18 19  1  0  0  0  0
 18 21  1  0  0  0  0
 18 28  1  0  0  0  0
 19 20  2  0  0  0  0
 19 35  1  0  0  0  0
 21 22  1  0  0  0  0
 21 29  1  0  0  0  0
 21 30  1  0  0  0  0
 22 23  1  0  0  0  0
 22 24  2  0  0  0  0
 23 25  2  0  0  0  0
 23 31  1  0  0  0  0
 24 26  1  0  0  0  0
 24 32  1  0  0  0  0
 25 26  1  0  0  0  0
 25 33  1  0  0  0  0
 26 34  1  0  0  0  0
 35 36  1  0  0  0  0
 35 40  1  0  0  0  0
 36 37  1  0  0  0  0
 36 39  1  0  0  0  0
 36 41  1  0  0  0  0
 37 38  2  0  0  0  0
 37 45  1  0  0  0  0
 39 42  1  0  0  0  0
 39 43  1  0  0  0  0
 39 44  1  0  0  0  0
 45 46  1  0  0  0  0
 45 47  1  0  0  0  0
 46 48  1  0  0  0  0
 46 49  1  0  0  0  0
 46 50  1  0  0  0  0
M  CHG  1  23   1
M  END
$$$$

  -OEChem-05262216443D

 50 50  0     1  0  0  0  0  0999 V2000
   -2.4892   -0.7897    3.4557 C   0  0  0  0  0  0  0  0  0  0  0  0
   -2.7143   -1.1741    2.3135 O   0  0  0  0  0  0  0  0  0  0  0  0
   -2.4992   -1.7778    4.6063 C   0  0  0  0  0  0  0  0  0  0  0  0
   -2.8015   -2.7681    4.2551 H   0  0  0  0  0  0  0  0  0  0  0  0
   -1.5019   -1.8483    5.0479 H   0  0  0  0  0  0  0  0  0  0  0  0
   -3.2050   -1.4487    5.3734 H   0  0  0  0  0  0  0  0  0  0  0  0
   -2.1958    0.5367    3.6966 N   0  0  0  0  0  0  0  0  0  0  0  0
   -2.0622    1.5425    2.6360 C   0  0  2  0  0  0  0  0  0  0  0  0
   -0.7507    1.3825    1.8370 C   0  0  0  0  0  0  0  0  0  0  0  0
    0.3348    1.3558    2.4012 O   0  0  0  0  0  0  0  0  0  0  0  0
   -2.1317    2.9270    3.2855 C   0  0  0  0  0  0  0  0  0  0  0  0
   -1.8631    0.7740    4.6287 H   0  0  0  0  0  0  0  0  0  0  0  0
   -2.9044    1.4481    1.9425 H   0  0  0  0  0  0  0  0  0  0  0  0
   -1.3080    3.0625    3.9946 H   0  0  0  0  0  0  0  0  0  0  0  0
   -2.0633    3.7098    2.5234 H   0  0  0  0  0  0  0  0  0  0  0  0
   -3.0777    3.0505    3.8223 H   0  0  0  0  0  0  0  0  0  0  0  0
   -0.7808    1.2628    0.4604 N   0  0  0  0  0  0  0  0  0  0  0  0
    0.3843    0.8989   -0.3693 C   0  0  2  0  0  0  0  0  0  0  0  0
    1.1929    2.1262   -0.8312 C   0  0  0  0  0  0  0  0  0  0  0  0
    1.5532    2.2321   -1.9965 O   0  0  0  0  0  0  0  0  0  0  0  0
   -0.0761   -0.0085   -1.5246 C   0  0  0  0  0  0  0  0  0  0  0  0
   -0.6131   -1.2960   -0.9508 C   0  0  0  0  0  0  0  0  0  0  0  0
    0.1550   -2.3342   -0.4220 N   0  3  0  0  0  0  0  0  0  0  0  0
   -1.9324   -1.6389   -0.8010 C   0  0  0  0  0  0  0  0  0  0  0  0
   -0.6234   -3.2593    0.0841 C   0  0  0  0  0  0  0  0  0  0  0  0
   -1.9385   -2.8627   -0.1456 N   0  0  0  0  0  0  0  0  0  0  0  0
   -1.6898    1.3441    0.0140 H   0  0  0  0  0  0  0  0  0  0  0  0
    1.0867    0.3178    0.2386 H   0  0  0  0  0  0  0  0  0  0  0  0
    0.7621   -0.2285   -2.1959 H   0  0  0  0  0  0  0  0  0  0  0  0
   -0.8400    0.5054   -2.1176 H   0  0  0  0  0  0  0  0  0  0  0  0
    1.1770   -2.3002   -0.3718 H   0  0  0  0  0  0  0  0  0  0  0  0
   -2.7995   -1.0427   -1.0812 H   0  0  0  0  0  0  0  0  0  0  0  0
   -0.3025   -4.1605    0.6085 H   0  0  0  0  0  0  0  0  0  0  0  0
   -2.7727   -3.3153    0.2392 H   0  0  0  0  0  0  0  0  0  0  0  0
    1.4881    3.1181    0.0829 N   0  0  0  0  0  0  0  0  0  0  0  0
    2.6015    4.0470   -0.1569 C   0  0  2  0  0  0  0  0  0  0  0  0
    3.9792    3.3733    0.0477 C   0  0  0  0  0  0  0  0  0  0  0  0
    4.0692    2.3130    0.6579 O   0  0  0  0  0  0  0  0  0  0  0  0
    2.4329    5.2295    0.7999 C   0  0  0  0  0  0  0  0  0  0  0  0
    1.3449    2.8253    1.0517 H   0  0  0  0  0  0  0  0  0  0  0  0
    2.5570    4.4215   -1.1853 H   0  0  0  0  0  0  0  0  0  0  0  0
    2.4872    4.8918    1.8401 H   0  0  0  0  0  0  0  0  0  0  0  0
    3.2197    5.9720    0.6352 H   0  0  0  0  0  0  0  0  0  0  0  0
    1.4641    5.7127    0.6391 H   0  0  0  0  0  0  0  0  0  0  0  0
    5.1269    3.9595   -0.4527 N   0  0  0  0  0  0  0  0  0  0  0  0
    6.4510    3.3621   -0.3189 C   0  0  0  0  0  0  0  0  0  0  0  0
    5.0240    4.8071   -1.0031 H   0  0  0  0  0  0  0  0  0  0  0  0
    6.6917    3.1963    0.7367 H   0  0  0  0  0  0  0  0  0  0  0  0
    6.4925    2.4021   -0.8442 H   0  0  0  0  0  0  0  0  0  0  0  0
    7.2120    4.0233   -0.7449 H   0  0  0  0  0  0  0  0  0  0  0  0
  1  2  2  0  0  0  0
  1  3  1  0  0  0  0
  1  7  1  0  0  0  0
  3  4  1  0  0  0  0
  3  5  1  0  0  0  0
  3  6  1  0  0  0  0
  7  8  1  0  0  0  0
  7 12  1  0  0  0  0
  8  9  1  0  0  0  0
  8 11  1  0  0  0  0
  8 13  1  0  0  0  0
  9 10  2  0  0  0  0
  9 17  1  0  0  0  0
 11 14  1  0  0  0  0
 11 15  1  0  0  0  0
 11 16  1  0  0  0  0
 17 18  1  0  0  0  0
 17 27  1  0  0  0  0
 18 19  1  0  0  0  0
 18 21  1  0  0  0  0
 18 28  1  0  0  0  0
 19 20  2  0  0  0  0
 19 35  1  0  0  0  0
 21 22  1  0  0  0  0
 21 29  1  0  0  0  0
 21 30  1  0  0  0  0
 22 23  1  0  0  0  0
 22 24  2  0  0  0  0
 23 25  2  0  0  0  0
 23 31  1  0  0  0  0
 24 26  1  0  0  0  0
 24 32  1  0  0  0  0
 25 26  1  0  0  0  0
 25 33  1  0  0  0  0
 26 34  1  0  0  0  0
 35 36  1  0  0  0  0
 35 40  1  0  0  0  0
 36 37  1  0  0  0  0
 36 39  1  0  0  0  0
 36 41  1  0  0  0  0
 37 38  2  0  0  0  0
 37 45  1  0  0  0  0
 39 42  1  0  0  0  0
 39 43  1  0  0  0  0
 39 44  1  0  0  0  0
 45 46  1  0  0  0  0
 45 47  1  0  0  0  0
 46 48  1  0  0  0  0
 46 49  1  0  0  0  0
 46 50  1  0  0  0  0
M  CHG  1  23   1
M  END
$$$$

  -OEChem-05262216443D

 50 50  0     1  0  0  0  0  0999 V2000
   -2.4739   -0.8127    3.4313 C   0  0  0  0  0  0  0  0  0  0  0  0
   -2.6857   -1.1622    2.2757 O   0  0  0  0  0  0  0  0  0  0  0  0
   -2.4827   -1.8374    4.5491 C   0  0  0  0  0  0  0  0  0  0  0  0
   -2.8198   -2.8072    4.1736 H   0  0  0  0  0  0  0  0  0  0  0  0
   -1.4767   -1.9478    4.9614 H   0  0  0  0  0  0  0  0  0  0  0  0
   -3.1603   -1.5164    5.3446 H   0  0  0  0  0  0  0  0  0  0  0  0
   -2.1891    0.5065    3.7173 N   0  0  0  0  0  0  0  0  0  0  0  0
   -2.0601    1.5489    2.6922 C   0  0  2  0  0  0  0  0  0  0  0  0
   -0.7575    1.4122    1.8744 C   0  0  0  0  0  0  0  0  0  0  0  0
    0.3369    1.3858    2.4244 O   0  0  0  0  0  0  0  0  0  0  0  0
   -2.1179    2.9100    3.3905 C   0  0  0  0  0  0  0  0  0  0  0  0
   -1.8732    0.7172    4.6613 H   0  0  0  0  0  0  0  0  0  0  0  0
   -2.9094    1.4833    2.0039 H   0  0  0  0  0  0  0  0  0  0  0  0
   -1.2882    3.0176    4.0972 H   0  0  0  0  0  0  0  0  0  0  0  0
   -2.0513    3.7182    2.6552 H   0  0  0  0  0  0  0  0  0  0  0  0
   -3.0594    3.0190    3.9385 H   0  0  0  0  0  0  0  0  0  0  0  0
   -0.8069    1.3162    0.4960 N   0  0  0  0  0  0  0  0  0  0  0  0
    0.3596    1.0123   -0.3523 C   0  0  2  0  0  0  0  0  0  0  0  0
    1.1030    2.2843   -0.7931 C   0  0  0  0  0  0  0  0  0  0  0  0
    1.3002    2.5215   -1.9780 O   0  0  0  0  0  0  0  0  0  0  0  0
   -0.0761    0.1155   -1.5244 C   0  0  0  0  0  0  0  0  0  0  0  0
   -0.5595   -1.2027   -0.9744 C   0  0  0  0  0  0  0  0  0  0  0  0
    0.2537   -2.2209   -0.4751 N   0  3  0  0  0  0  0  0  0  0  0  0
   -1.8630   -1.5994   -0.8196 C   0  0  0  0  0  0  0  0  0  0  0  0
   -0.4832   -3.1862    0.0177 C   0  0  0  0  0  0  0  0  0  0  0  0
   -1.8150   -2.8362   -0.1909 N   0  0  0  0  0  0  0  0  0  0  0  0
   -1.7223    1.3905    0.0611 H   0  0  0  0  0  0  0  0  0  0  0  0
    1.0936    0.4444    0.2304 H   0  0  0  0  0  0  0  0  0  0  0  0
    0.7644   -0.0549   -2.2066 H   0  0  0  0  0  0  0  0  0  0  0  0
   -0.8649    0.6126   -2.0989 H   0  0  0  0  0  0  0  0  0  0  0  0
    1.2744   -2.1479   -0.4353 H   0  0  0  0  0  0  0  0  0  0  0  0
   -2.7550   -1.0305   -1.0776 H   0  0  0  0  0  0  0  0  0  0  0  0
   -0.1217   -4.0856    0.5183 H   0  0  0  0  0  0  0  0  0  0  0  0
   -2.6278   -3.3322    0.1858 H   0  0  0  0  0  0  0  0  0  0  0  0
    1.6276    3.1032    0.1864 N   0  0  0  0  0  0  0  0  0  0  0  0
    2.8204    3.9146   -0.0878 C   0  0  2  0  0  0  0  0  0  0  0  0
    4.1021    3.0528   -0.1984 C   0  0  0  0  0  0  0  0  0  0  0  0
    4.1029    1.8823    0.1727 O   0  0  0  0  0  0  0  0  0  0  0  0
    2.9535    4.9359    1.0444 C   0  0  0  0  0  0  0  0  0  0  0  0
    1.5494    2.7115    1.1276 H   0  0  0  0  0  0  0  0  0  0  0  0
    2.6903    4.4534   -1.0328 H   0  0  0  0  0  0  0  0  0  0  0  0
    3.1047    4.4285    2.0032 H   0  0  0  0  0  0  0  0  0  0  0  0
    3.8042    5.6003    0.8647 H   0  0  0  0  0  0  0  0  0  0  0  0
    2.0487    5.5478    1.1121 H   0  0  0  0  0  0  0  0  0  0  0  0
    5.2631    3.5917   -0.7209 N   0  0  0  0  0  0  0  0  0  0  0  0
    6.4962    2.8302   -0.8853 C   0  0  0  0  0  0  0  0  0  0  0  0
    5.2272    4.5469   -1.0652 H   0  0  0  0  0  0  0  0  0  0  0  0
    6.8382    2.4395    0.0791 H   0  0  0  0  0  0  0  0  0  0  0  0
    6.3391    1.9900   -1.5698 H   0  0  0  0  0  0  0  0  0  0  0  0
    7.2844    3.4682   -1.2970 H   0  0  0  0  0  0  0  0  0  0  0  0
  1  2  2  0  0  0  0
  1  3  1  0  0  0  0
  1  7  1  0  0  0  0
  3  4  1  0  0  0  0
  3  5  1  0  0  0  0
  3  6  1  0  0  0  0
  7  8  1  0  0  0  0
  7 12  1  0  0  0  0
  8  9  1  0  0  0  0
  8 11  1  0  0  0  0
  8 13  1  0  0  0  0
  9 10  2  0  0  0  0
  9 17  1  0  0  0  0
 11 14  1  0  0  0  0
 11 15  1  0  0  0  0
 11 16  1  0  0  0  0
 17 18  1  0  0  0  0
 17 27  1  0  0  0  0
 18 19  1  0  0  0  0
 18 21  1  0  0  0  0
 18 28  1  0  0  0  0
 19 20  2  0  0  0  0
 19 35  1  0  0  0  0
 21 22  1  0  0  0  0
 21 29  1  0  0  0  0
 21 30  1  0  0  0  0
 22 23  1  0  0  0  0
 22 24  2  0  0  0  0
 23 25  2  0  0  0  0
 23 31  1  0  0  0  0
 24 26  1  0  0  0  0
 24 32  1  0  0  0  0
 25 26  1  0  0  0  0
 25 33  1  0  0  0  0
 26 34  1  0  0  0  0
 35 36  1  0  0  0  0
 35 40  1  0  0  0  0
 36 37  1  0  0  0  0
 36 39  1  0  0  0  0
 36 41  1  0  0  0  0
 37 38  2  0  0  0  0
 37 45  1  0  0  0  0
 39 42  1  0  0  0  0
 39 43  1  0  0  0  0
 39 44  1  0  0  0  0
 45 46  1  0  0  0  0
 45 47  1  0  0  0  0
 46 48  1  0  0  0  0
 46 49  1  0  0  0  0
 46 50  1  0  0  0  0
M  CHG  1  23   1
M  END
$$$$

  -OEChem-05262216443D

 50 50  0     1  0  0  0  0  0999 V2000
   -2.4381   -0.8865    3.4171 C   0  0  0  0  0  0  0  0  0  0  0  0
   -2.6267   -1.1997    2.2470 O   0  0  0  0  0  0  0  0  0  0  0  0
   -2.4400   -1.9509    4.4974 C   0  0  0  0  0  0  0  0  0  0  0  0
   -2.6837   -2.9272    4.0696 H   0  0  0  0  0  0  0  0  0  0  0  0
   -1.4551   -2.0076    4.9684 H   0  0  0  0  0  0  0  0  0  0  0  0
   -3.1856   -1.7069    5.2589 H   0  0  0  0  0  0  0  0  0  0  0  0
   -2.1926    0.4286    3.7553 N   0  0  0  0  0  0  0  0  0  0  0  0
   -2.0801    1.5115    2.7709 C   0  0  2  0  0  0  0  0  0  0  0  0
   -0.7744    1.4322    1.9509 C   0  0  0  0  0  0  0  0  0  0  0  0
    0.3203    1.3706    2.4991 O   0  0  0  0  0  0  0  0  0  0  0  0
   -2.1645    2.8448    3.5182 C   0  0  0  0  0  0  0  0  0  0  0  0
   -1.9002    0.6141    4.7120 H   0  0  0  0  0  0  0  0  0  0  0  0
   -2.9264    1.4531    2.0780 H   0  0  0  0  0  0  0  0  0  0  0  0
   -1.3346    2.9441    4.2258 H   0  0  0  0  0  0  0  0  0  0  0  0
   -2.1174    3.6808    2.8130 H   0  0  0  0  0  0  0  0  0  0  0  0
   -3.1060    2.9136    4.0724 H   0  0  0  0  0  0  0  0  0  0  0  0
   -0.8282    1.4079    0.5701 N   0  0  0  0  0  0  0  0  0  0  0  0
    0.3443    1.1994   -0.2945 C   0  0  2  0  0  0  0  0  0  0  0  0
    1.0335    2.5187   -0.6710 C   0  0  0  0  0  0  0  0  0  0  0  0
    1.0736    2.8997   -1.8340 O   0  0  0  0  0  0  0  0  0  0  0  0
   -0.0560    0.3460   -1.5094 C   0  0  0  0  0  0  0  0  0  0  0  0
   -0.4757   -1.0163   -1.0200 C   0  0  0  0  0  0  0  0  0  0  0  0
    0.3896   -2.0154   -0.5736 N   0  3  0  0  0  0  0  0  0  0  0  0
   -1.7581   -1.4716   -0.8554 C   0  0  0  0  0  0  0  0  0  0  0  0
   -0.2969   -3.0294   -0.1063 C   0  0  0  0  0  0  0  0  0  0  0  0
   -1.6464   -2.7285   -0.2769 N   0  0  0  0  0  0  0  0  0  0  0  0
   -1.7397    1.5368    0.1393 H   0  0  0  0  0  0  0  0  0  0  0  0
    1.1032    0.6289    0.2528 H   0  0  0  0  0  0  0  0  0  0  0  0
    0.7876    0.2502   -2.2029 H   0  0  0  0  0  0  0  0  0  0  0  0
   -0.8716    0.8335   -2.0542 H   0  0  0  0  0  0  0  0  0  0  0  0
    1.4069   -1.8979   -0.5458 H   0  0  0  0  0  0  0  0  0  0  0  0
   -2.6771   -0.9275   -1.0673 H   0  0  0  0  0  0  0  0  0  0  0  0
    0.1113   -3.9304    0.3535 H   0  0  0  0  0  0  0  0  0  0  0  0
   -2.4300   -3.2685    0.1015 H   0  0  0  0  0  0  0  0  0  0  0  0
    1.7944    3.1370    0.3001 N   0  0  0  0  0  0  0  0  0  0  0  0
    3.0614    3.7778   -0.0723 C   0  0  2  0  0  0  0  0  0  0  0  0
    4.1352    2.7418   -0.4895 C   0  0  0  0  0  0  0  0  0  0  0  0
    3.9759    1.5445   -0.2591 O   0  0  0  0  0  0  0  0  0  0  0  0
    3.5378    4.5959    1.1303 C   0  0  0  0  0  0  0  0  0  0  0  0
    1.7799    2.6511    1.1986 H   0  0  0  0  0  0  0  0  0  0  0  0
    2.8961    4.4575   -0.9156 H   0  0  0  0  0  0  0  0  0  0  0  0
    3.7424    3.9406    1.9834 H   0  0  0  0  0  0  0  0  0  0  0  0
    4.4538    5.1421    0.8849 H   0  0  0  0  0  0  0  0  0  0  0  0
    2.7725    5.3217    1.4238 H   0  0  0  0  0  0  0  0  0  0  0  0
    5.2824    3.1532   -1.1415 N   0  0  0  0  0  0  0  0  0  0  0  0
    6.3194    2.2354   -1.5992 C   0  0  0  0  0  0  0  0  0  0  0  0
    5.3684    4.1405   -1.3660 H   0  0  0  0  0  0  0  0  0  0  0  0
    6.7444    1.6841   -0.7538 H   0  0  0  0  0  0  0  0  0  0  0  0
    5.9074    1.5178   -2.3167 H   0  0  0  0  0  0  0  0  0  0  0  0
    7.1261    2.7890   -2.0898 H   0  0  0  0  0  0  0  0  0  0  0  0
  1  2  2  0  0  0  0
  1  3  1  0  0  0  0
  1  7  1  0  0  0  0
  3  4  1  0  0  0  0
  3  5  1  0  0  0  0
  3  6  1  0  0  0  0
  7  8  1  0  0  0  0
  7 12  1  0  0  0  0
  8  9  1  0  0  0  0
  8 11  1  0  0  0  0
  8 13  1  0  0  0  0
  9 10  2  0  0  0  0
  9 17  1  0  0  0  0
 11 14  1  0  0  0  0
 11 15  1  0  0  0  0
 11 16  1  0  0  0  0
 17 18  1  0  0  0  0
 17 27  1  0  0  0  0
 18 19  1  0  0  0  0
 18 21  1  0  0  0  0
 18 28  1  0  0  0  0
 19 20  2  0  0  0  0
 19 35  1  0  0  0  0
 21 22  1  0  0  0  0
 21 29  1  0  0  0  0
 21 30  1  0  0  0  0
 22 23  1  0  0  0  0
 22 24  2  0  0  0  0
 23 25  2  0  0  0  0
 23 31  1  0  0  0  0
 24 26  1  0  0  0  0
 24 32  1  0  0  0  0
 25 26  1  0  0  0  0
 25 33  1  0  0  0  0
 26 34  1  0  0  0  0
 35 36  1  0  0  0  0
 35 40  1  0  0  0  0
 36 37  1  0  0  0  0
 36 39  1  0  0  0  0
 36 41  1  0  0  0  0
 37 38  2  0  0  0  0
 37 45  1  0  0  0  0
 39 42  1  0  0  0  0
 39 43  1  0  0  0  0
 39 44  1  0  0  0  0
 45 46  1  0  0  0  0
 45 47  1  0  0  0  0
 46 48  1  0  0  0  0
 46 49  1  0  0  0  0
 46 50  1  0  0  0  0
M  CHG  1  23   1
M  END
$$$$

  -OEChem-05262216443D

 50 50  0     1  0  0  0  0  0999 V2000
   -2.3921   -0.9670    3.3327 C   0  0  0  0  0  0  0  0  0  0  0  0
   -2.5342   -1.2110    2.1398 O   0  0  0  0  0  0  0  0  0  0  0  0
   -2.3752   -2.0986    4.3422 C   0  0  0  0  0  0  0  0  0  0  0  0
   -2.5522   -3.0554    3.8440 H   0  0  0  0  0  0  0  0  0  0  0  0
   -1.4058   -2.1366    4.8455 H   0  0  0  0  0  0  0  0  0  0  0  0
   -3.1584   -1.9431    5.0888 H   0  0  0  0  0  0  0  0  0  0  0  0
   -2.2182    0.3324    3.7631 N   0  0  0  0  0  0  0  0  0  0  0  0
   -2.1270    1.4818    2.8550 C   0  0  2  0  0  0  0  0  0  0  0  0
   -0.8109    1.4941    2.0474 C   0  0  0  0  0  0  0  0  0  0  0  0
    0.2782    1.4094    2.6051 O   0  0  0  0  0  0  0  0  0  0  0  0
   -2.2585    2.7581    3.6906 C   0  0  0  0  0  0  0  0  0  0  0  0
   -1.9613    0.4666    4.7382 H   0  0  0  0  0  0  0  0  0  0  0  0
   -2.9636    1.4461    2.1493 H   0  0  0  0  0  0  0  0  0  0  0  0
   -1.4399    2.8317    4.4143 H   0  0  0  0  0  0  0  0  0  0  0  0
   -2.2283    3.6419    3.0452 H   0  0  0  0  0  0  0  0  0  0  0  0
   -3.2079    2.7618    4.2355 H   0  0  0  0  0  0  0  0  0  0  0  0
   -0.8477    1.5658    0.6670 N   0  0  0  0  0  0  0  0  0  0  0  0
    0.3446    1.4624   -0.1875 C   0  0  2  0  0  0  0  0  0  0  0  0
    1.0089    2.8160   -0.4747 C   0  0  0  0  0  0  0  0  0  0  0  0
    0.9303    3.3252   -1.5855 O   0  0  0  0  0  0  0  0  0  0  0  0
    0.0264    0.6642   -1.4613 C   0  0  0  0  0  0  0  0  0  0  0  0
   -0.3255   -0.7431   -1.0607 C   0  0  0  0  0  0  0  0  0  0  0  0
    0.6021   -1.6990   -0.6492 N   0  3  0  0  0  0  0  0  0  0  0  0
   -1.5747   -1.2954   -0.9530 C   0  0  0  0  0  0  0  0  0  0  0  0
   -0.0176   -2.7836   -0.2532 C   0  0  0  0  0  0  0  0  0  0  0  0
   -1.3823   -2.5718   -0.4419 N   0  0  0  0  0  0  0  0  0  0  0  0
   -1.7558    1.6998    0.2304 H   0  0  0  0  0  0  0  0  0  0  0  0
    1.1068    0.8811    0.3431 H   0  0  0  0  0  0  0  0  0  0  0  0
    0.8948    0.6564   -2.1305 H   0  0  0  0  0  0  0  0  0  0  0  0
   -0.8001    1.1367   -2.0026 H   0  0  0  0  0  0  0  0  0  0  0  0
    1.6067   -1.5035   -0.5866 H   0  0  0  0  0  0  0  0  0  0  0  0
   -2.5256   -0.8059   -1.1564 H   0  0  0  0  0  0  0  0  0  0  0  0
    0.4466   -3.6756    0.1695 H   0  0  0  0  0  0  0  0  0  0  0  0
   -2.1319   -3.1898   -0.1186 H   0  0  0  0  0  0  0  0  0  0  0  0
    1.9834    3.2260    0.4126 N   0  0  0  0  0  0  0  0  0  0  0  0
    3.2949    3.6154   -0.1211 C   0  0  2  0  0  0  0  0  0  0  0  0
    4.0325    2.4252   -0.7893 C   0  0  0  0  0  0  0  0  0  0  0  0
    3.6486    1.2664   -0.6235 O   0  0  0  0  0  0  0  0  0  0  0  0
    4.1207    4.1751    1.0400 C   0  0  0  0  0  0  0  0  0  0  0  0
    2.0011    2.6736    1.2705 H   0  0  0  0  0  0  0  0  0  0  0  0
    3.1653    4.4031   -0.8718 H   0  0  0  0  0  0  0  0  0  0  0  0
    4.2775    3.4077    1.8052 H   0  0  0  0  0  0  0  0  0  0  0  0
    5.0983    4.5178    0.6869 H   0  0  0  0  0  0  0  0  0  0  0  0
    3.6039    5.0243    1.4987 H   0  0  0  0  0  0  0  0  0  0  0  0
    5.1278    2.6578   -1.5992 N   0  0  0  0  0  0  0  0  0  0  0  0
    5.8522    1.6024   -2.2979 C   0  0  0  0  0  0  0  0  0  0  0  0
    5.3910    3.6252   -1.7678 H   0  0  0  0  0  0  0  0  0  0  0  0
    6.2531    0.8742   -1.5847 H   0  0  0  0  0  0  0  0  0  0  0  0
    5.1911    1.0826   -2.9993 H   0  0  0  0  0  0  0  0  0  0  0  0
    6.6885    2.0273   -2.8620 H   0  0  0  0  0  0  0  0  0  0  0  0
  1  2  2  0  0  0  0
  1  3  1  0  0  0  0
  1  7  1  0  0  0  0
  3  4  1  0  0  0  0
  3  5  1  0  0  0  0
  3  6  1  0  0  0  0
  7  8  1  0  0  0  0
  7 12  1  0  0  0  0
  8  9  1  0  0  0  0
  8 11  1  0  0  0  0
  8 13  1  0  0  0  0
  9 10  2  0  0  0  0
  9 17  1  0  0  0  0
 11 14  1  0  0  0  0
 11 15  1  0  0  0  0
 11 16  1  0  0  0  0
 17 18  1  0  0  0  0
 17 27  1  0  0  0  0
 18 19  1  0  0  0  0
 18 21  1  0  0  0  0
 18 28  1  0  0  0  0
 19 20  2  0  0  0  0
 19 35  1  0  0  0  0
 21 22  1  0  0  0  0
 21 29  1  0  0  0  0
 21 30  1  0  0  0  0
 22 23  1  0  0  0  0
 22 24  2  0  0  0  0
 23 25  2  0  0  0  0
 23 31  1  0  0  0  0
 24 26  1  0  0  0  0
 24 32  1  0  0  0  0
 25 26  1  0  0  0  0
 25 33  1  0  0  0  0
 26 34  1  0  0  0  0
 35 36  1  0  0  0  0
 35 40  1  0  0  0  0
 36 37  1  0  0  0  0
 36 39  1  0  0  0  0
 36 41  1  0  0  0  0
 37 38  2  0  0  0  0
 37 45  1  0  0  0  0
 39 42  1  0  0  0  0
 39 43  1  0  0  0  0
 39 44  1  0  0  0  0
 45 46  1  0  0  0  0
 45 47  1  0  0  0  0
 46 48  1  0  0  0  0
 46 49  1  0  0  0  0
 46 50  1  0  0  0  0
M  CHG  1  23   1
M  END
$$$$

  -OEChem-05262216443D

 50 50  0     1  0  0  0  0  0999 V2000
   -2.3964   -1.0640    3.2284 C   0  0  0  0  0  0  0  0  0  0  0  0
   -2.5335   -1.2096    2.0190 O   0  0  0  0  0  0  0  0  0  0  0  0
   -2.3765   -2.2766    4.1389 C   0  0  0  0  0  0  0  0  0  0  0  0
   -2.5530   -3.1881    3.5617 H   0  0  0  0  0  0  0  0  0  0  0  0
   -1.4062   -2.3554    4.6360 H   0  0  0  0  0  0  0  0  0  0  0  0
   -3.1588   -2.1860    4.8968 H   0  0  0  0  0  0  0  0  0  0  0  0
   -2.2272    0.1957    3.7662 N   0  0  0  0  0  0  0  0  0  0  0  0
   -2.1140    1.4140    2.9547 C   0  0  2  0  0  0  0  0  0  0  0  0
   -0.7832    1.4859    2.1738 C   0  0  0  0  0  0  0  0  0  0  0  0
    0.2905    1.2809    2.7297 O   0  0  0  0  0  0  0  0  0  0  0  0
   -2.2554    2.6191    3.8876 C   0  0  0  0  0  0  0  0  0  0  0  0
   -1.9684    0.2469    4.7486 H   0  0  0  0  0  0  0  0  0  0  0  0
   -2.9380    1.4391    2.2340 H   0  0  0  0  0  0  0  0  0  0  0  0
   -1.4442    2.6348    4.6229 H   0  0  0  0  0  0  0  0  0  0  0  0
   -2.2200    3.5512    3.3148 H   0  0  0  0  0  0  0  0  0  0  0  0
   -3.2101    2.5792    4.4217 H   0  0  0  0  0  0  0  0  0  0  0  0
   -0.7973    1.7072    0.8088 N   0  0  0  0  0  0  0  0  0  0  0  0
    0.4029    1.6761   -0.0409 C   0  0  2  0  0  0  0  0  0  0  0  0
    1.1283    3.0192   -0.2052 C   0  0  0  0  0  0  0  0  0  0  0  0
    0.9256    3.6999   -1.2022 O   0  0  0  0  0  0  0  0  0  0  0  0
    0.0828    1.0081   -1.3880 C   0  0  0  0  0  0  0  0  0  0  0  0
   -0.2830   -0.4246   -1.1185 C   0  0  0  0  0  0  0  0  0  0  0  0
    0.6518   -1.4066   -0.7960 N   0  3  0  0  0  0  0  0  0  0  0  0
   -1.5309   -0.9824   -1.0355 C   0  0  0  0  0  0  0  0  0  0  0  0
    0.0380   -2.5187   -0.4743 C   0  0  0  0  0  0  0  0  0  0  0  0
   -1.3299   -2.2942   -0.6263 N   0  0  0  0  0  0  0  0  0  0  0  0
   -1.6876    1.9598    0.3878 H   0  0  0  0  0  0  0  0  0  0  0  0
    1.1369    1.0216    0.4404 H   0  0  0  0  0  0  0  0  0  0  0  0
    0.9492    1.0550   -2.0579 H   0  0  0  0  0  0  0  0  0  0  0  0
   -0.7405    1.5369   -1.8799 H   0  0  0  0  0  0  0  0  0  0  0  0
    1.6580   -1.2112   -0.7377 H   0  0  0  0  0  0  0  0  0  0  0  0
   -2.4847   -0.4769   -1.1770 H   0  0  0  0  0  0  0  0  0  0  0  0
    0.5083   -3.4392   -0.1266 H   0  0  0  0  0  0  0  0  0  0  0  0
   -2.0747   -2.9299   -0.3264 H   0  0  0  0  0  0  0  0  0  0  0  0
    2.3067    3.1669    0.4996 N   0  0  0  0  0  0  0  0  0  0  0  0
    3.5466    3.4025   -0.2517 C   0  0  2  0  0  0  0  0  0  0  0  0
    3.9683    2.1668   -1.0914 C   0  0  0  0  0  0  0  0  0  0  0  0
    3.4514    1.0623   -0.9067 O   0  0  0  0  0  0  0  0  0  0  0  0
    4.6378    3.7653    0.7590 C   0  0  0  0  0  0  0  0  0  0  0  0
    2.3892    2.5144    1.2781 H   0  0  0  0  0  0  0  0  0  0  0  0
    3.4079    4.2492   -0.9334 H   0  0  0  0  0  0  0  0  0  0  0  0
    4.8158    2.9349    1.4504 H   0  0  0  0  0  0  0  0  0  0  0  0
    5.5763    3.9965    0.2457 H   0  0  0  0  0  0  0  0  0  0  0  0
    4.3389    4.6437    1.3402 H   0  0  0  0  0  0  0  0  0  0  0  0
    4.9183    2.2987   -2.0860 N   0  0  0  0  0  0  0  0  0  0  0  0
    5.3398    1.2042   -2.9530 C   0  0  0  0  0  0  0  0  0  0  0  0
    5.2929    3.2285   -2.2577 H   0  0  0  0  0  0  0  0  0  0  0  0
    5.7524    0.3805   -2.3608 H   0  0  0  0  0  0  0  0  0  0  0  0
    4.4925    0.8299   -3.5371 H   0  0  0  0  0  0  0  0  0  0  0  0
    6.1125    1.5482   -3.6480 H   0  0  0  0  0  0  0  0  0  0  0  0
  1  2  2  0  0  0  0
  1  3  1  0  0  0  0
  1  7  1  0  0  0  0
  3  4  1  0  0  0  0
  3  5  1  0  0  0  0
  3  6  1  0  0  0  0
  7  8  1  0  0  0  0
  7 12  1  0  0  0  0
  8  9  1  0  0  0  0
  8 11  1  0  0  0  0
  8 13  1  0  0  0  0
  9 10  2  0  0  0  0
  9 17  1  0  0  0  0
 11 14  1  0  0  0  0
 11 15  1  0  0  0  0
 11 16  1  0  0  0  0
 17 18  1  0  0  0  0
 17 27  1  0  0  0  0
 18 19  1  0  0  0  0
 18 21  1  0  0  0  0
 18 28  1  0  0  0  0
 19 20  2  0  0  0  0
 19 35  1  0  0  0  0
 21 22  1  0  0  0  0
 21 29  1  0  0  0  0
 21 30  1  0  0  0  0
 22 23  1  0  0  0  0
 22 24  2  0  0  0  0
 23 25  2  0  0  0  0
 23 31  1  0  0  0  0
 24 26  1  0  0  0  0
 24 32  1  0  0  0  0
 25 26  1  0  0  0  0
 25 33  1  0  0  0  0
 26 34  1  0  0  0  0
 35 36  1  0  0  0  0
 35 40  1  0  0  0  0
 36 37  1  0  0  0  0
 36 39  1  0  0  0  0
 36 41  1  0  0  0  0
 37 38  2  0  0  0  0
 37 45  1  0  0  0  0
 39 42  1  0  0  0  0
 39 43  1  0  0  0  0
 39 44  1  0  0  0  0
 45 46  1  0  0  0  0
 45 47  1  0  0  0  0
 46 48  1  0  0  0  0
 46 49  1  0  0  0  0
 46 50  1  0  0  0  0
M  CHG  1  23   1
M  END
$$$$

  -OEChem-05262216443D

 50 50  0     1  0  0  0  0  0999 V2000
   -2.6136   -1.0041    3.2305 C   0  0  0  0  0  0  0  0  0  0  0  0
   -2.7701   -1.0664    2.0161 O   0  0  0  0  0  0  0  0  0  0  0  0
   -2.7793   -2.2497    4.0798 C   0  0  0  0  0  0  0  0  0  0  0  0
   -3.0259   -3.1094    3.4510 H   0  0  0  0  0  0  0  0  0  0  0  0
   -1.8522   -2.4619    4.6183 H   0  0  0  0  0  0  0  0  0  0  0  0
   -3.5852   -2.1020    4.8033 H   0  0  0  0  0  0  0  0  0  0  0  0
   -2.2568    0.1862    3.8312 N   0  0  0  0  0  0  0  0  0  0  0  0
   -1.9558    1.4130    3.0828 C   0  0  2  0  0  0  0  0  0  0  0  0
   -0.6300    1.3160    2.2963 C   0  0  0  0  0  0  0  0  0  0  0  0
    0.3994    0.9246    2.8347 O   0  0  0  0  0  0  0  0  0  0  0  0
   -1.9088    2.5765    4.0762 C   0  0  0  0  0  0  0  0  0  0  0  0
   -1.9927    0.1458    4.8126 H   0  0  0  0  0  0  0  0  0  0  0  0
   -2.7659    1.6028    2.3707 H   0  0  0  0  0  0  0  0  0  0  0  0
   -1.1051    2.4294    4.8054 H   0  0  0  0  0  0  0  0  0  0  0  0
   -1.7296    3.5200    3.5506 H   0  0  0  0  0  0  0  0  0  0  0  0
   -2.8587    2.6571    4.6142 H   0  0  0  0  0  0  0  0  0  0  0  0
   -0.6215    1.5600    0.9358 N   0  0  0  0  0  0  0  0  0  0  0  0
    0.5765    1.4514    0.0908 C   0  0  2  0  0  0  0  0  0  0  0  0
    1.3725    2.7606   -0.0226 C   0  0  0  0  0  0  0  0  0  0  0  0
    0.9784    3.6301   -0.7888 O   0  0  0  0  0  0  0  0  0  0  0  0
    0.1537    0.9197   -1.2895 C   0  0  0  0  0  0  0  0  0  0  0  0
   -0.3927   -0.4736   -1.1206 C   0  0  0  0  0  0  0  0  0  0  0  0
    0.3736   -1.6151   -0.8907 N   0  3  0  0  0  0  0  0  0  0  0  0
   -1.7129   -0.8310   -1.0332 C   0  0  0  0  0  0  0  0  0  0  0  0
   -0.4076   -2.6354   -0.6309 C   0  0  0  0  0  0  0  0  0  0  0  0
   -1.7227   -2.1829   -0.7203 N   0  0  0  0  0  0  0  0  0  0  0  0
   -1.4451    2.0119    0.5470 H   0  0  0  0  0  0  0  0  0  0  0  0
    1.2594    0.7127    0.5233 H   0  0  0  0  0  0  0  0  0  0  0  0
    1.0090    0.9060   -1.9740 H   0  0  0  0  0  0  0  0  0  0  0  0
   -0.6011    1.5817   -1.7274 H   0  0  0  0  0  0  0  0  0  0  0  0
    1.3979   -1.5989   -0.8677 H   0  0  0  0  0  0  0  0  0  0  0  0
   -2.5741   -0.1683   -1.1027 H   0  0  0  0  0  0  0  0  0  0  0  0
   -0.0883   -3.6448   -0.3691 H   0  0  0  0  0  0  0  0  0  0  0  0
   -2.5554   -2.7086   -0.4393 H   0  0  0  0  0  0  0  0  0  0  0  0
    2.6832    2.7648    0.4119 N   0  0  0  0  0  0  0  0  0  0  0  0
    3.7430    3.2514   -0.4797 C   0  0  2  0  0  0  0  0  0  0  0  0
    4.0794    2.2074   -1.5731 C   0  0  0  0  0  0  0  0  0  0  0  0
    3.6447    1.0578   -1.4931 O   0  0  0  0  0  0  0  0  0  0  0  0
    4.9707    3.5575    0.3817 C   0  0  0  0  0  0  0  0  0  0  0  0
    2.9295    1.9555    0.9772 H   0  0  0  0  0  0  0  0  0  0  0  0
    3.4260    4.1772   -0.9732 H   0  0  0  0  0  0  0  0  0  0  0  0
    5.3298    2.6498    0.8778 H   0  0  0  0  0  0  0  0  0  0  0  0
    5.7813    3.9614   -0.2326 H   0  0  0  0  0  0  0  0  0  0  0  0
    4.7195    4.2976    1.1484 H   0  0  0  0  0  0  0  0  0  0  0  0
    4.8541    2.5597   -2.6617 N   0  0  0  0  0  0  0  0  0  0  0  0
    5.2093    1.6360   -3.7334 C   0  0  0  0  0  0  0  0  0  0  0  0
    5.1752    3.5226   -2.7206 H   0  0  0  0  0  0  0  0  0  0  0  0
    5.7888    0.7949   -3.3383 H   0  0  0  0  0  0  0  0  0  0  0  0
    4.3090    1.2468   -4.2205 H   0  0  0  0  0  0  0  0  0  0  0  0
    5.8151    2.1470   -4.4886 H   0  0  0  0  0  0  0  0  0  0  0  0
  1  2  2  0  0  0  0
  1  3  1  0  0  0  0
  1  7  1  0  0  0  0
  3  4  1  0  0  0  0
  3  5  1  0  0  0  0
  3  6  1  0  0  0  0
  7  8  1  0  0  0  0
  7 12  1  0  0  0  0
  8  9  1  0  0  0  0
  8 11  1  0  0  0  0
  8 13  1  0  0  0  0
  9 10  2  0  0  0  0
  9 17  1  0  0  0  0
 11 14  1  0  0  0  0
 11 15  1  0  0  0  0
 11 16  1  0  0  0  0
 17 18  1  0  0  0  0
 17 27  1  0  0  0  0
 18 19  1  0  0  0  0
 18 21  1  0  0  0  0
 18 28  1  0  0  0  0
 19 20  2  0  0  0  0
 19 35  1  0  0  0  0
 21 22  1  0  0  0  0
 21 29  1  0  0  0  0
 21 30  1  0  0  0  0
 22 23  1  0  0  0  0
 22 24  2  0  0  0  0
 23 25  2  0  0  0  0
 23 31  1  0  0  0  0
 24 26  1  0  0  0  0
 24 32  1  0  0  0  0
 25 26  1  0  0  0  0
 25 33  1  0  0  0  0
 26 34  1  0  0  0  0
 35 36  1  0  0  0  0
 35 40  1  0  0  0  0
 36 37  1  0  0  0  0
 36 39  1  0  0  0  0
 36 41  1  0  0  0  0
 37 38  2  0  0  0  0
 37 45  1  0  0  0  0
 39 42  1  0  0  0  0
 39 43  1  0  0  0  0
 39 44  1  0  0  0  0
 45 46  1  0  0  0  0
 45 47  1  0  0  0  0
 46 48  1  0  0  0  0
 46 49  1  0  0  0  0
 46 50  1  0  0  0  0
M  CHG  1  23   1
M  END
$$$$

  -OEChem-05262216443D

 50 50  0     1  0  0  0  0  0999 V2000
   -2.7811   -0.8472    3.2622 C   0  0  0  0  0  0  0  0  0  0  0  0
   -2.9390   -0.8668    2.0464 O   0  0  0  0  0  0  0  0  0  0  0  0
   -3.1401   -2.0653    4.0913 C   0  0  0  0  0  0  0  0  0  0  0  0
   -3.5718   -2.8435    3.4567 H   0  0  0  0  0  0  0  0  0  0  0  0
   -2.2465   -2.4625    4.5787 H   0  0  0  0  0  0  0  0  0  0  0  0
   -3.8713   -1.7928    4.8565 H   0  0  0  0  0  0  0  0  0  0  0  0
   -2.2484    0.2643    3.8838 N   0  0  0  0  0  0  0  0  0  0  0  0
   -1.7608    1.4433    3.1566 C   0  0  2  0  0  0  0  0  0  0  0  0
   -0.4710    1.1532    2.3587 C   0  0  0  0  0  0  0  0  0  0  0  0
    0.4843    0.5915    2.8822 O   0  0  0  0  0  0  0  0  0  0  0  0
   -1.5256    2.5658    4.1699 C   0  0  0  0  0  0  0  0  0  0  0  0
   -1.9909    0.1645    4.8627 H   0  0  0  0  0  0  0  0  0  0  0  0
   -2.5336    1.7725    2.4541 H   0  0  0  0  0  0  0  0  0  0  0  0
   -0.7580    2.2762    4.8954 H   0  0  0  0  0  0  0  0  0  0  0  0
   -1.1931    3.4759    3.6604 H   0  0  0  0  0  0  0  0  0  0  0  0
   -2.4503    2.7919    4.7103 H   0  0  0  0  0  0  0  0  0  0  0  0
   -0.4439    1.3937    0.9984 N   0  0  0  0  0  0  0  0  0  0  0  0
    0.7378    1.1719    0.1520 C   0  0  2  0  0  0  0  0  0  0  0  0
    1.6342    2.4166    0.0517 C   0  0  0  0  0  0  0  0  0  0  0  0
    1.1567    3.4439   -0.4128 O   0  0  0  0  0  0  0  0  0  0  0  0
    0.2448    0.7239   -1.2344 C   0  0  0  0  0  0  0  0  0  0  0  0
   -0.4613   -0.6009   -1.0920 C   0  0  0  0  0  0  0  0  0  0  0  0
    0.1411   -1.8431   -0.8952 N   0  3  0  0  0  0  0  0  0  0  0  0
   -1.8174   -0.7774   -0.9953 C   0  0  0  0  0  0  0  0  0  0  0  0
   -0.7709   -2.7511   -0.6442 C   0  0  0  0  0  0  0  0  0  0  0  0
   -2.0117   -2.1205   -0.7089 N   0  0  0  0  0  0  0  0  0  0  0  0
   -1.1681    2.0126    0.6415 H   0  0  0  0  0  0  0  0  0  0  0  0
    1.3505    0.3678    0.5725 H   0  0  0  0  0  0  0  0  0  0  0  0
    1.0872    0.6249   -1.9279 H   0  0  0  0  0  0  0  0  0  0  0  0
   -0.4307    1.4797   -1.6500 H   0  0  0  0  0  0  0  0  0  0  0  0
    1.1560   -1.9735   -0.8872 H   0  0  0  0  0  0  0  0  0  0  0  0
   -2.5798   -0.0011   -1.0400 H   0  0  0  0  0  0  0  0  0  0  0  0
   -0.5919   -3.8005   -0.4057 H   0  0  0  0  0  0  0  0  0  0  0  0
   -2.9075   -2.5324   -0.4314 H   0  0  0  0  0  0  0  0  0  0  0  0
    3.0033    2.2839    0.1809 N   0  0  0  0  0  0  0  0  0  0  0  0
    3.9125    3.0305   -0.6989 C   0  0  2  0  0  0  0  0  0  0  0  0
    4.0448    2.3355   -2.0740 C   0  0  0  0  0  0  0  0  0  0  0  0
    3.6669    1.1736   -2.2151 O   0  0  0  0  0  0  0  0  0  0  0  0
    5.2720    3.1241   -0.0019 C   0  0  0  0  0  0  0  0  0  0  0  0
    3.3145    1.3520    0.4411 H   0  0  0  0  0  0  0  0  0  0  0  0
    3.5372    4.0470   -0.8613 H   0  0  0  0  0  0  0  0  0  0  0  0
    5.6897    2.1259    0.1643 H   0  0  0  0  0  0  0  0  0  0  0  0
    5.9775    3.6980   -0.6108 H   0  0  0  0  0  0  0  0  0  0  0  0
    5.1677    3.6243    0.9662 H   0  0  0  0  0  0  0  0  0  0  0  0
    4.5697    3.0123   -3.1582 N   0  0  0  0  0  0  0  0  0  0  0  0
    4.6980    2.4244   -4.4868 C   0  0  0  0  0  0  0  0  0  0  0  0
    4.8365    3.9843   -3.0251 H   0  0  0  0  0  0  0  0  0  0  0  0
    5.3461    1.5422   -4.4553 H   0  0  0  0  0  0  0  0  0  0  0  0
    3.7169    2.1273   -4.8719 H   0  0  0  0  0  0  0  0  0  0  0  0
    5.1359    3.1482   -5.1811 H   0  0  0  0  0  0  0  0  0  0  0  0
  1  2  2  0  0  0  0
  1  3  1  0  0  0  0
  1  7  1  0  0  0  0
  3  4  1  0  0  0  0
  3  5  1  0  0  0  0
  3  6  1  0  0  0  0
  7  8  1  0  0  0  0
  7 12  1  0  0  0  0
  8  9  1  0  0  0  0
  8 11  1  0  0  0  0
  8 13  1  0  0  0  0
  9 10  2  0  0  0  0
  9 17  1  0  0  0  0
 11 14  1  0  0  0  0
 11 15  1  0  0  0  0
 11 16  1  0  0  0  0
 17 18  1  0  0  0  0
 17 27  1  0  0  0  0
 18 19  1  0  0  0  0
 18 21  1  0  0  0  0
 18 28  1  0  0  0  0
 19 20  2  0  0  0  0
 19 35  1  0  0  0  0
 21 22  1  0  0  0  0
 21 29  1  0  0  0  0
 21 30  1  0  0  0  0
 22 23  1  0  0  0  0
 22 24  2  0  0  0  0
 23 25  2  0  0  0  0
 23 31  1  0  0  0  0
 24 26  1  0  0  0  0
 24 32  1  0  0  0  0
 25 26  1  0  0  0  0
 25 33  1  0  0  0  0
 26 34  1  0  0  0  0
 35 36  1  0  0  0  0
 35 40  1  0  0  0  0
 36 37  1  0  0  0  0
 36 39  1  0  0  0  0
 36 41  1  0  0  0  0
 37 38  2  0  0  0  0
 37 45  1  0  0  0  0
 39 42  1  0  0  0  0
 39 43  1  0  0  0  0
 39 44  1  0  0  0  0
 45 46  1  0  0  0  0
 45 47  1  0  0  0  0
 46 48  1  0  0  0  0
 46 49  1  0  0  0  0
 46 50  1  0  0  0  0
M  CHG  1  23   1
M  END
$$$$

  -OEChem-05262216443D

 50 50  0     1  0  0  0  0  0999 V2000
   -2.9665   -0.5602    3.1942 C   0  0  0  0  0  0  0  0  0  0  0  0
   -3.0723   -0.4667    1.9769 O   0  0  0  0  0  0  0  0  0  0  0  0
   -3.6353   -1.7092    3.9233 C   0  0  0  0  0  0  0  0  0  0  0  0
   -4.2433   -2.2968    3.2301 H   0  0  0  0  0  0  0  0  0  0  0  0
   -2.8791   -2.3594    4.3699 H   0  0  0  0  0  0  0  0  0  0  0  0
   -4.2835   -1.3214    4.7134 H   0  0  0  0  0  0  0  0  0  0  0  0
   -2.2179    0.3545    3.9069 N   0  0  0  0  0  0  0  0  0  0  0  0
   -1.4878    1.4697    3.2909 C   0  0  2  0  0  0  0  0  0  0  0  0
   -0.3002    0.9958    2.4245 C   0  0  0  0  0  0  0  0  0  0  0  0
    0.6140    0.3351    2.9043 O   0  0  0  0  0  0  0  0  0  0  0  0
   -1.0041    2.3969    4.4094 C   0  0  0  0  0  0  0  0  0  0  0  0
   -2.0617    0.1613    4.8930 H   0  0  0  0  0  0  0  0  0  0  0  0
   -2.1744    2.0356    2.6524 H   0  0  0  0  0  0  0  0  0  0  0  0
   -0.3140    1.8698    5.0764 H   0  0  0  0  0  0  0  0  0  0  0  0
   -0.4823    3.2617    3.9869 H   0  0  0  0  0  0  0  0  0  0  0  0
   -1.8516    2.7603    4.9988 H   0  0  0  0  0  0  0  0  0  0  0  0
   -0.3170    1.2277    1.0627 N   0  0  0  0  0  0  0  0  0  0  0  0
    0.8317    0.9736    0.1808 C   0  0  2  0  0  0  0  0  0  0  0  0
    1.7437    2.2063    0.0519 C   0  0  0  0  0  0  0  0  0  0  0  0
    1.2261    3.3040   -0.1121 O   0  0  0  0  0  0  0  0  0  0  0  0
    0.2708    0.5636   -1.1904 C   0  0  0  0  0  0  0  0  0  0  0  0
   -0.4870   -0.7350   -1.0559 C   0  0  0  0  0  0  0  0  0  0  0  0
    0.0589   -2.0101   -0.9060 N   0  3  0  0  0  0  0  0  0  0  0  0
   -1.8481   -0.8542   -0.9392 C   0  0  0  0  0  0  0  0  0  0  0  0
   -0.8913   -2.8872   -0.6886 C   0  0  0  0  0  0  0  0  0  0  0  0
   -2.1017   -2.1982   -0.7092 N   0  0  0  0  0  0  0  0  0  0  0  0
   -0.9963    1.9173    0.7486 H   0  0  0  0  0  0  0  0  0  0  0  0
    1.4397    0.1532    0.5756 H   0  0  0  0  0  0  0  0  0  0  0  0
    1.0824    0.4448   -1.9166 H   0  0  0  0  0  0  0  0  0  0  0  0
   -0.3869    1.3542   -1.5687 H   0  0  0  0  0  0  0  0  0  0  0  0
    1.0657   -2.1896   -0.9230 H   0  0  0  0  0  0  0  0  0  0  0  0
   -2.5749   -0.0422   -0.9398 H   0  0  0  0  0  0  0  0  0  0  0  0
   -0.7589   -3.9547   -0.5076 H   0  0  0  0  0  0  0  0  0  0  0  0
   -3.0199   -2.5890   -0.4794 H   0  0  0  0  0  0  0  0  0  0  0  0
    3.0968    2.0364   -0.1701 N   0  0  0  0  0  0  0  0  0  0  0  0
    3.8618    2.9553   -1.0249 C   0  0  2  0  0  0  0  0  0  0  0  0
    3.8403    2.4824   -2.4964 C   0  0  0  0  0  0  0  0  0  0  0  0
    3.4392    1.3529   -2.7698 O   0  0  0  0  0  0  0  0  0  0  0  0
    5.2941    3.0096   -0.4876 C   0  0  0  0  0  0  0  0  0  0  0  0
    3.4090    1.0694   -0.1848 H   0  0  0  0  0  0  0  0  0  0  0  0
    3.4391    3.9652   -0.9841 H   0  0  0  0  0  0  0  0  0  0  0  0
    5.7616    2.0207   -0.5364 H   0  0  0  0  0  0  0  0  0  0  0  0
    5.8990    3.7085   -1.0736 H   0  0  0  0  0  0  0  0  0  0  0  0
    5.2951    3.3448    0.5548 H   0  0  0  0  0  0  0  0  0  0  0  0
    4.2635    3.3155   -3.5145 N   0  0  0  0  0  0  0  0  0  0  0  0
    4.2690    2.9258   -4.9205 C   0  0  0  0  0  0  0  0  0  0  0  0
    4.5689    4.2526   -3.2650 H   0  0  0  0  0  0  0  0  0  0  0  0
    4.9111    2.0519   -5.0740 H   0  0  0  0  0  0  0  0  0  0  0  0
    3.2555    2.6813   -5.2558 H   0  0  0  0  0  0  0  0  0  0  0  0
    4.6484    3.7446   -5.5400 H   0  0  0  0  0  0  0  0  0  0  0  0
  1  2  2  0  0  0  0
  1  3  1  0  0  0  0
  1  7  1  0  0  0  0
  3  4  1  0  0  0  0
  3  5  1  0  0  0  0
  3  6  1  0  0  0  0
  7  8  1  0  0  0  0
  7 12  1  0  0  0  0
  8  9  1  0  0  0  0
  8 11  1  0  0  0  0
  8 13  1  0  0  0  0
  9 10  2  0  0  0  0
  9 17  1  0  0  0  0
 11 14  1  0  0  0  0
 11 15  1  0  0  0  0
 11 16  1  0  0  0  0
 17 18  1  0  0  0  0
 17 27  1  0  0  0  0
 18 19  1  0  0  0  0
 18 21  1  0  0  0  0
 18 28  1  0  0  0  0
 19 20  2  0  0  0  0
 19 35  1  0  0  0  0
 21 22  1  0  0  0  0
 21 29  1  0  0  0  0
 21 30  1  0  0  0  0
 22 23  1  0  0  0  0
 22 24  2  0  0  0  0
 23 25  2  0  0  0  0
 23 31  1  0  0  0  0
 24 26  1  0  0  0  0
 24 32  1  0  0  0  0
 25 26  1  0  0  0  0
 25 33  1  0  0  0  0
 26 34  1  0  0  0  0
 35 36  1  0  0  0  0
 35 40  1  0  0  0  0
 36 37  1  0  0  0  0
 36 39  1  0  0  0  0
 36 41  1  0  0  0  0
 37 38  2  0  0  0  0
 37 45  1  0  0  0  0
 39 42  1  0  0  0  0
 39 43  1  0  0  0  0
 39 44  1  0  0  0  0
 45 46  1  0  0  0  0
 45 47  1  0  0  0  0
 46 48  1  0  0  0  0
 46 49  1  0  0  0  0
 46 50  1  0  0  0  0
M  CHG  1  23   1
M  END
$$$$

  -OEChem-05262216443D

 50 50  0     1  0  0  0  0  0999 V2000
   -2.8913   -0.5746    3.2758 C   0  0  0  0  0  0  0  0  0  0  0  0
   -3.0493   -0.5541    2.0599 O   0  0  0  0  0  0  0  0  0  0  0  0
   -3.4813   -1.7069    4.0941 C   0  0  0  0  0  0  0  0  0  0  0  0
   -4.0280   -2.3985    3.4475 H   0  0  0  0  0  0  0  0  0  0  0  0
   -2.6844   -2.2545    4.6035 H   0  0  0  0  0  0  0  0  0  0  0  0
   -4.1715   -1.3058    4.8406 H   0  0  0  0  0  0  0  0  0  0  0  0
   -2.1562    0.4081    3.9085 N   0  0  0  0  0  0  0  0  0  0  0  0
   -1.4512    1.4806    3.1942 C   0  0  2  0  0  0  0  0  0  0  0  0
   -0.2723    0.9528    2.3482 C   0  0  0  0  0  0  0  0  0  0  0  0
    0.5631    0.1953    2.8295 O   0  0  0  0  0  0  0  0  0  0  0  0
   -0.9541    2.4982    4.2238 C   0  0  0  0  0  0  0  0  0  0  0  0
   -1.9294    0.2551    4.8880 H   0  0  0  0  0  0  0  0  0  0  0  0
   -2.1567    1.9847    2.5251 H   0  0  0  0  0  0  0  0  0  0  0  0
   -0.2494    2.0307    4.9195 H   0  0  0  0  0  0  0  0  0  0  0  0
   -0.4445    3.3280    3.7232 H   0  0  0  0  0  0  0  0  0  0  0  0
   -1.7936    2.9046    4.7963 H   0  0  0  0  0  0  0  0  0  0  0  0
   -0.2475    1.2066    0.9903 N   0  0  0  0  0  0  0  0  0  0  0  0
    0.8919    0.8593    0.1261 C   0  0  2  0  0  0  0  0  0  0  0  0
    1.9141    2.0083    0.0339 C   0  0  0  0  0  0  0  0  0  0  0  0
    1.5209    3.1622    0.1546 O   0  0  0  0  0  0  0  0  0  0  0  0
    0.3071    0.5054   -1.2517 C   0  0  0  0  0  0  0  0  0  0  0  0
   -0.5597   -0.7233   -1.1070 C   0  0  0  0  0  0  0  0  0  0  0  0
   -0.1372   -2.0438   -0.9463 N   0  3  0  0  0  0  0  0  0  0  0  0
   -1.9238   -0.7082   -0.9638 C   0  0  0  0  0  0  0  0  0  0  0  0
   -1.1623   -2.8160   -0.6762 C   0  0  0  0  0  0  0  0  0  0  0  0
   -2.3007   -2.0139   -0.6900 N   0  0  0  0  0  0  0  0  0  0  0  0
   -0.8160    1.9980    0.6962 H   0  0  0  0  0  0  0  0  0  0  0  0
    1.4218   -0.0124    0.5237 H   0  0  0  0  0  0  0  0  0  0  0  0
    1.1051    0.3126   -1.9765 H   0  0  0  0  0  0  0  0  0  0  0  0
   -0.2780    1.3501   -1.6323 H   0  0  0  0  0  0  0  0  0  0  0  0
    0.8475   -2.3195   -0.9590 H   0  0  0  0  0  0  0  0  0  0  0  0
   -2.5679    0.1704   -0.9633 H   0  0  0  0  0  0  0  0  0  0  0  0
   -1.1290   -3.8835   -0.4544 H   0  0  0  0  0  0  0  0  0  0  0  0
   -3.2371   -2.2974   -0.3873 H   0  0  0  0  0  0  0  0  0  0  0  0
    3.1790    1.7611   -0.4656 N   0  0  0  0  0  0  0  0  0  0  0  0
    3.9135    2.7681   -1.2454 C   0  0  2  0  0  0  0  0  0  0  0  0
    3.5845    2.6448   -2.7501 C   0  0  0  0  0  0  0  0  0  0  0  0
    3.0472    1.6244   -3.1747 O   0  0  0  0  0  0  0  0  0  0  0  0
    5.4081    2.5583   -0.9921 C   0  0  0  0  0  0  0  0  0  0  0  0
    3.3574    0.7958   -0.7269 H   0  0  0  0  0  0  0  0  0  0  0  0
    3.6487    3.7799   -0.9194 H   0  0  0  0  0  0  0  0  0  0  0  0
    5.7201    1.5624   -1.3226 H   0  0  0  0  0  0  0  0  0  0  0  0
    5.9973    3.3042   -1.5345 H   0  0  0  0  0  0  0  0  0  0  0  0
    5.6277    2.6566    0.0758 H   0  0  0  0  0  0  0  0  0  0  0  0
    3.8795    3.6721   -3.6258 N   0  0  0  0  0  0  0  0  0  0  0  0
    3.5725    3.6244   -5.0512 C   0  0  0  0  0  0  0  0  0  0  0  0
    4.2846    4.5211   -3.2400 H   0  0  0  0  0  0  0  0  0  0  0  0
    4.0597    2.7635   -5.5215 H   0  0  0  0  0  0  0  0  0  0  0  0
    2.4917    3.5468   -5.2084 H   0  0  0  0  0  0  0  0  0  0  0  0
    3.9289    4.5332   -5.5460 H   0  0  0  0  0  0  0  0  0  0  0  0
  1  2  2  0  0  0  0
  1  3  1  0  0  0  0
  1  7  1  0  0  0  0
  3  4  1  0  0  0  0
  3  5  1  0  0  0  0
  3  6  1  0  0  0  0
  7  8  1  0  0  0  0
  7 12  1  0  0  0  0
  8  9  1  0  0  0  0
  8 11  1  0  0  0  0
  8 13  1  0  0  0  0
  9 10  2  0  0  0  0
  9 17  1  0  0  0  0
 11 14  1  0  0  0  0
 11 15  1  0  0  0  0
 11 16  1  0  0  0  0
 17 18  1  0  0  0  0
 17 27  1  0  0  0  0
 18 19  1  0  0  0  0
 18 21  1  0  0  0  0
 18 28  1  0  0  0  0
 19 20  2  0  0  0  0
 19 35  1  0  0  0  0
 21 22  1  0  0  0  0
 21 29  1  0  0  0  0
 21 30  1  0  0  0  0
 22 23  1  0  0  0  0
 22 24  2  0  0  0  0
 23 25  2  0  0  0  0
 23 31  1  0  0  0  0
 24 26  1  0  0  0  0
 24 32  1  0  0  0  0
 25 26  1  0  0  0  0
 25 33  1  0  0  0  0
 26 34  1  0  0  0  0
 35 36  1  0  0  0  0
 35 40  1  0  0  0  0
 36 37  1  0  0  0  0
 36 39  1  0  0  0  0
 36 41  1  0  0  0  0
 37 38  2  0  0  0  0
 37 45  1  0  0  0  0
 39 42  1  0  0  0  0
 39 43  1  0  0  0  0
 39 44  1  0  0  0  0
 45 46  1  0  0  0  0
 45 47  1  0  0  0  0
 46 48  1  0  0  0  0
 46 49  1  0  0  0  0
 46 50  1  0  0  0  0
M  CHG  1  23   1
M  END
$$$$

  -OEChem-05262216443D

 50 50  0     1  0  0  0  0  0999 V2000
   -3.0938   -0.1545    2.9297 C   0  0  0  0  0  0  0  0  0  0  0  0
   -3.1054    0.1130    1.7334 O   0  0  0  0  0  0  0  0  0  0  0  0
   -4.0159   -1.2287    3.4730 C   0  0  0  0  0  0  0  0  0  0  0  0
   -4.6682   -1.6056    2.6807 H   0  0  0  0  0  0  0  0  0  0  0  0
   -3.4277   -2.0587    3.8726 H   0  0  0  0  0  0  0  0  0  0  0  0
   -4.6374   -0.8162    4.2718 H   0  0  0  0  0  0  0  0  0  0  0  0
   -2.2206    0.4855    3.7860 N   0  0  0  0  0  0  0  0  0  0  0  0
   -1.2195    1.4659    3.3476 C   0  0  2  0  0  0  0  0  0  0  0  0
   -0.1015    0.8171    2.5028 C   0  0  0  0  0  0  0  0  0  0  0  0
    0.7040    0.0348    2.9946 O   0  0  0  0  0  0  0  0  0  0  0  0
   -0.6438    2.1509    4.5902 C   0  0  0  0  0  0  0  0  0  0  0  0
   -2.1593    0.1312    4.7374 H   0  0  0  0  0  0  0  0  0  0  0  0
   -1.7086    2.2324    2.7371 H   0  0  0  0  0  0  0  0  0  0  0  0
   -0.1423    1.4235    5.2369 H   0  0  0  0  0  0  0  0  0  0  0  0
    0.0860    2.9128    4.2976 H   0  0  0  0  0  0  0  0  0  0  0  0
   -1.4399    2.6373    5.1621 H   0  0  0  0  0  0  0  0  0  0  0  0
   -0.0991    1.0050    1.1348 N   0  0  0  0  0  0  0  0  0  0  0  0
    1.0432    0.6371    0.2853 C   0  0  2  0  0  0  0  0  0  0  0  0
    2.2161    1.6370    0.4159 C   0  0  0  0  0  0  0  0  0  0  0  0
    2.0176    2.7386    0.9146 O   0  0  0  0  0  0  0  0  0  0  0  0
    0.5032    0.5940   -1.1566 C   0  0  0  0  0  0  0  0  0  0  0  0
   -0.5352   -0.4963   -1.2824 C   0  0  0  0  0  0  0  0  0  0  0  0
   -0.3176   -1.8738   -1.3431 N   0  3  0  0  0  0  0  0  0  0  0  0
   -1.8925   -0.2963   -1.2642 C   0  0  0  0  0  0  0  0  0  0  0  0
   -1.4627   -2.5138   -1.3477 C   0  0  0  0  0  0  0  0  0  0  0  0
   -2.4723   -1.5552   -1.3060 N   0  0  0  0  0  0  0  0  0  0  0  0
   -0.6956    1.7628    0.8150 H   0  0  0  0  0  0  0  0  0  0  0  0
    1.4194   -0.3512    0.5696 H   0  0  0  0  0  0  0  0  0  0  0  0
    1.3119    0.4025   -1.8689 H   0  0  0  0  0  0  0  0  0  0  0  0
    0.0745    1.5685   -1.4173 H   0  0  0  0  0  0  0  0  0  0  0  0
    0.6155   -2.2924   -1.3335 H   0  0  0  0  0  0  0  0  0  0  0  0
   -2.4086    0.6585   -1.1645 H   0  0  0  0  0  0  0  0  0  0  0  0
   -1.6010   -3.5960   -1.3654 H   0  0  0  0  0  0  0  0  0  0  0  0
   -3.4761   -1.7415   -1.2280 H   0  0  0  0  0  0  0  0  0  0  0  0
    3.3717    1.4322   -0.3168 N   0  0  0  0  0  0  0  0  0  0  0  0
    4.1660    2.5498   -0.8490 C   0  0  2  0  0  0  0  0  0  0  0  0
    3.6591    2.9721   -2.2463 C   0  0  0  0  0  0  0  0  0  0  0  0
    2.9281    2.2173   -2.8837 O   0  0  0  0  0  0  0  0  0  0  0  0
    5.6262    2.0956   -0.9131 C   0  0  0  0  0  0  0  0  0  0  0  0
    3.3853    0.5849   -0.8756 H   0  0  0  0  0  0  0  0  0  0  0  0
    4.1060    3.4194   -0.1853 H   0  0  0  0  0  0  0  0  0  0  0  0
    5.7356    1.2410   -1.5887 H   0  0  0  0  0  0  0  0  0  0  0  0
    6.2649    2.9076   -1.2747 H   0  0  0  0  0  0  0  0  0  0  0  0
    5.9753    1.8009    0.0818 H   0  0  0  0  0  0  0  0  0  0  0  0
    4.0239    4.1865   -2.7954 N   0  0  0  0  0  0  0  0  0  0  0  0
    3.5720    4.6424   -4.1056 C   0  0  0  0  0  0  0  0  0  0  0  0
    4.5950    4.8091   -2.2298 H   0  0  0  0  0  0  0  0  0  0  0  0
    3.8540    3.9224   -4.8812 H   0  0  0  0  0  0  0  0  0  0  0  0
    2.4836    4.7624   -4.1156 H   0  0  0  0  0  0  0  0  0  0  0  0
    4.0287    5.6065   -4.3506 H   0  0  0  0  0  0  0  0  0  0  0  0
  1  2  2  0  0  0  0
  1  3  1  0  0  0  0
  1  7  1  0  0  0  0
  3  4  1  0  0  0  0
  3  5  1  0  0  0  0
  3  6  1  0  0  0  0
  7  8  1  0  0  0  0
  7 12  1  0  0  0  0
  8  9  1  0  0  0  0
  8 11  1  0  0  0  0
  8 13  1  0  0  0  0
  9 10  2  0  0  0  0
  9 17  1  0  0  0  0
 11 14  1  0  0  0  0
 11 15  1  0  0  0  0
 11 16  1  0  0  0  0
 17 18  1  0  0  0  0
 17 27  1  0  0  0  0
 18 19  1  0  0  0  0
 18 21  1  0  0  0  0
 18 28  1  0  0  0  0
 19 20  2  0  0  0  0
 19 35  1  0  0  0  0
 21 22  1  0  0  0  0
 21 29  1  0  0  0  0
 21 30  1  0  0  0  0
 22 23  1  0  0  0  0
 22 24  2  0  0  0  0
 23 25  2  0  0  0  0
 23 31  1  0  0  0  0
 24 26  1  0  0  0  0
 24 32  1  0  0  0  0
 25 26  1  0  0  0  0
 25 33  1  0  0  0  0
 26 34  1  0  0  0  0
 35 36  1  0  0  0  0
 35 40  1  0  0  0  0
 36 37  1  0  0  0  0
 36 39  1  0  0  0  0
 36 41  1  0  0  0  0
 37 38  2  0  0  0  0
 37 45  1  0  0  0  0
 39 42  1  0  0  0  0
 39 43  1  0  0  0  0
 39 44  1  0  0  0  0
 45 46  1  0  0  0  0
 45 47  1  0  0  0  0
 46 48  1  0  0  0  0
 46 49  1  0  0  0  0
 46 50  1  0  0  0  0
M  CHG  1  23   1
M  END
$$$$

  -OEChem-05262216443D

 50 50  0     1  0  0  0  0  0999 V2000
   -3.0216   -0.0294    2.9578 C   0  0  0  0  0  0  0  0  0  0  0  0
   -3.0444    0.2509    1.7644 O   0  0  0  0  0  0  0  0  0  0  0  0
   -4.0066   -1.0392    3.5146 C   0  0  0  0  0  0  0  0  0  0  0  0
   -4.7105   -1.3510    2.7383 H   0  0  0  0  0  0  0  0  0  0  0  0
   -3.4720   -1.9191    3.8818 H   0  0  0  0  0  0  0  0  0  0  0  0
   -4.5692   -0.5944    4.3392 H   0  0  0  0  0  0  0  0  0  0  0  0
   -2.0816    0.5345    3.7968 N   0  0  0  0  0  0  0  0  0  0  0  0
   -1.0181    1.4389    3.3415 C   0  0  2  0  0  0  0  0  0  0  0  0
    0.0133    0.7211    2.4439 C   0  0  0  0  0  0  0  0  0  0  0  0
    0.7519   -0.1506    2.8882 O   0  0  0  0  0  0  0  0  0  0  0  0
   -0.3423    2.0437    4.5755 C   0  0  0  0  0  0  0  0  0  0  0  0
   -2.0291    0.1722    4.7457 H   0  0  0  0  0  0  0  0  0  0  0  0
   -1.4636    2.2569    2.7657 H   0  0  0  0  0  0  0  0  0  0  0  0
    0.1199    1.2615    5.1867 H   0  0  0  0  0  0  0  0  0  0  0  0
    0.4383    2.7485    4.2708 H   0  0  0  0  0  0  0  0  0  0  0  0
   -1.0726    2.5809    5.1885 H   0  0  0  0  0  0  0  0  0  0  0  0
   -0.0094    0.9437    1.0806 N   0  0  0  0  0  0  0  0  0  0  0  0
    1.0898    0.5306    0.1938 C   0  0  2  0  0  0  0  0  0  0  0  0
    2.3281    1.4563    0.3123 C   0  0  0  0  0  0  0  0  0  0  0  0
    2.2946    2.4271    1.0590 O   0  0  0  0  0  0  0  0  0  0  0  0
    0.4909    0.5229   -1.2274 C   0  0  0  0  0  0  0  0  0  0  0  0
   -0.5985   -0.5218   -1.3087 C   0  0  0  0  0  0  0  0  0  0  0  0
   -0.4408   -1.9068   -1.3803 N   0  3  0  0  0  0  0  0  0  0  0  0
   -1.9443   -0.2663   -1.2291 C   0  0  0  0  0  0  0  0  0  0  0  0
   -1.6094   -2.4994   -1.3235 C   0  0  0  0  0  0  0  0  0  0  0  0
   -2.5762   -1.5007   -1.2397 N   0  0  0  0  0  0  0  0  0  0  0  0
   -0.5620    1.7481    0.7976 H   0  0  0  0  0  0  0  0  0  0  0  0
    1.4213   -0.4805    0.4529 H   0  0  0  0  0  0  0  0  0  0  0  0
    1.2559    0.3021   -1.9781 H   0  0  0  0  0  0  0  0  0  0  0  0
    0.0921    1.5166   -1.4633 H   0  0  0  0  0  0  0  0  0  0  0  0
    0.4735   -2.3639   -1.3956 H   0  0  0  0  0  0  0  0  0  0  0  0
   -2.4156    0.7088   -1.1038 H   0  0  0  0  0  0  0  0  0  0  0  0
   -1.7914   -3.5751   -1.3213 H   0  0  0  0  0  0  0  0  0  0  0  0
   -3.5809   -1.6457   -1.1060 H   0  0  0  0  0  0  0  0  0  0  0  0
    3.3181    1.4026   -0.6539 N   0  0  0  0  0  0  0  0  0  0  0  0
    4.0307    2.6076   -1.1039 C   0  0  2  0  0  0  0  0  0  0  0  0
    3.2713    3.2916   -2.2627 C   0  0  0  0  0  0  0  0  0  0  0  0
    2.3881    2.6783   -2.8587 O   0  0  0  0  0  0  0  0  0  0  0  0
    5.4328    2.1825   -1.5459 C   0  0  0  0  0  0  0  0  0  0  0  0
    3.1838    0.6937   -1.3673 H   0  0  0  0  0  0  0  0  0  0  0  0
    4.1323    3.3289   -0.2855 H   0  0  0  0  0  0  0  0  0  0  0  0
    5.3775    1.4800   -2.3838 H   0  0  0  0  0  0  0  0  0  0  0  0
    6.0163    3.0530   -1.8615 H   0  0  0  0  0  0  0  0  0  0  0  0
    5.9591    1.6976   -0.7174 H   0  0  0  0  0  0  0  0  0  0  0  0
    3.5798    4.5827   -2.6459 N   0  0  0  0  0  0  0  0  0  0  0  0
    2.8965    5.2848   -3.7264 C   0  0  0  0  0  0  0  0  0  0  0  0
    4.2909    5.0771   -2.1135 H   0  0  0  0  0  0  0  0  0  0  0  0
    3.0075    4.7403   -4.6702 H   0  0  0  0  0  0  0  0  0  0  0  0
    1.8296    5.3888   -3.5025 H   0  0  0  0  0  0  0  0  0  0  0  0
    3.3207    6.2855   -3.8552 H   0  0  0  0  0  0  0  0  0  0  0  0
  1  2  2  0  0  0  0
  1  3  1  0  0  0  0
  1  7  1  0  0  0  0
  3  4  1  0  0  0  0
  3  5  1  0  0  0  0
  3  6  1  0  0  0  0
  7  8  1  0  0  0  0
  7 12  1  0  0  0  0
  8  9  1  0  0  0  0
  8 11  1  0  0  0  0
  8 13  1  0  0  0  0
  9 10  2  0  0  0  0
  9 17  1  0  0  0  0
 11 14  1  0  0  0  0
 11 15  1  0  0  0  0
 11 16  1  0  0  0  0
 17 18  1  0  0  0  0
 17 27  1  0  0  0  0
 18 19  1  0  0  0  0
 18 21  1  0  0  0  0
 18 28  1  0  0  0  0
 19 20  2  0  0  0  0
 19 35  1  0  0  0  0
 21 22  1  0  0  0  0
 21 29  1  0  0  0  0
 21 30  1  0  0  0  0
 22 23  1  0  0  0  0
 22 24  2  0  0  0  0
 23 25  2  0  0  0  0
 23 31  1  0  0  0  0
 24 26  1  0  0  0  0
 24 32  1  0  0  0  0
 25 26  1  0  0  0  0
 25 33  1  0  0  0  0
 26 34  1  0  0  0  0
 35 36  1  0  0  0  0
 35 40  1  0  0  0  0
 36 37  1  0  0  0  0
 36 39  1  0  0  0  0
 36 41  1  0  0  0  0
 37 38  2  0  0  0  0
 37 45  1  0  0  0  0
 39 42  1  0  0  0  0
 39 43  1  0  0  0  0
 39 44  1  0  0  0  0
 45 46  1  0  0  0  0
 45 47  1  0  0  0  0
 46 48  1  0  0  0  0
 46 49  1  0  0  0  0
 46 50  1  0  0  0  0
M  CHG  1  23   1
M  END
$$$$

  -OEChem-05262216443D

 50 50  0     1  0  0  0  0  0999 V2000
   -2.9026    0.0340    3.0411 C   0  0  0  0  0  0  0  0  0  0  0  0
   -2.9906    0.3088    1.8495 O   0  0  0  0  0  0  0  0  0  0  0  0
   -3.9002   -0.9184    3.6720 C   0  0  0  0  0  0  0  0  0  0  0  0
   -4.6252   -1.2582    2.9277 H   0  0  0  0  0  0  0  0  0  0  0  0
   -3.3797   -1.7881    4.0810 H   0  0  0  0  0  0  0  0  0  0  0  0
   -4.4374   -0.4130    4.4787 H   0  0  0  0  0  0  0  0  0  0  0  0
   -1.8821    0.5545    3.8110 N   0  0  0  0  0  0  0  0  0  0  0  0
   -0.8090    1.4025    3.2765 C   0  0  2  0  0  0  0  0  0  0  0  0
    0.1241    0.6318    2.3180 C   0  0  0  0  0  0  0  0  0  0  0  0
    0.8067   -0.3077    2.7110 O   0  0  0  0  0  0  0  0  0  0  0  0
   -0.0194    1.9792    4.4547 C   0  0  0  0  0  0  0  0  0  0  0  0
   -1.7738    0.1813    4.7508 H   0  0  0  0  0  0  0  0  0  0  0  0
   -1.2531    2.2379    2.7254 H   0  0  0  0  0  0  0  0  0  0  0  0
    0.4327    1.1775    5.0477 H   0  0  0  0  0  0  0  0  0  0  0  0
    0.7820    2.6300    4.0897 H   0  0  0  0  0  0  0  0  0  0  0  0
   -0.6749    2.5679    5.1035 H   0  0  0  0  0  0  0  0  0  0  0  0
    0.0461    0.8773    0.9600 N   0  0  0  0  0  0  0  0  0  0  0  0
    1.0791    0.4258    0.0136 C   0  0  2  0  0  0  0  0  0  0  0  0
    2.3684    1.2891    0.0805 C   0  0  0  0  0  0  0  0  0  0  0  0
    2.5456    2.0544    1.0198 O   0  0  0  0  0  0  0  0  0  0  0  0
    0.3936    0.4245   -1.3687 C   0  0  0  0  0  0  0  0  0  0  0  0
   -0.7262   -0.5919   -1.3630 C   0  0  0  0  0  0  0  0  0  0  0  0
   -0.6113   -1.9823   -1.4251 N   0  3  0  0  0  0  0  0  0  0  0  0
   -2.0559   -0.2980   -1.1932 C   0  0  0  0  0  0  0  0  0  0  0  0
   -1.7882   -2.5409   -1.2725 C   0  0  0  0  0  0  0  0  0  0  0  0
   -2.7198   -1.5143   -1.1386 N   0  0  0  0  0  0  0  0  0  0  0  0
   -0.4699    1.7189    0.7190 H   0  0  0  0  0  0  0  0  0  0  0  0
    1.3848   -0.5973    0.2569 H   0  0  0  0  0  0  0  0  0  0  0  0
    1.1004    0.1707   -2.1636 H   0  0  0  0  0  0  0  0  0  0  0  0
    0.0062    1.4265   -1.5896 H   0  0  0  0  0  0  0  0  0  0  0  0
    0.2877   -2.4659   -1.4869 H   0  0  0  0  0  0  0  0  0  0  0  0
   -2.4909    0.6913   -1.0476 H   0  0  0  0  0  0  0  0  0  0  0  0
   -1.9978   -3.6110   -1.2336 H   0  0  0  0  0  0  0  0  0  0  0  0
   -3.7151   -1.6292   -0.9271 H   0  0  0  0  0  0  0  0  0  0  0  0
    3.1537    1.4522   -1.0488 N   0  0  0  0  0  0  0  0  0  0  0  0
    3.8365    2.7216   -1.3402 C   0  0  2  0  0  0  0  0  0  0  0  0
    2.9073    3.6662   -2.1342 C   0  0  0  0  0  0  0  0  0  0  0  0
    1.9047    3.2126   -2.6826 O   0  0  0  0  0  0  0  0  0  0  0  0
    5.1001    2.4011   -2.1422 C   0  0  0  0  0  0  0  0  0  0  0  0
    2.8315    0.9497   -1.8689 H   0  0  0  0  0  0  0  0  0  0  0  0
    4.1351    3.2277   -0.4155 H   0  0  0  0  0  0  0  0  0  0  0  0
    4.8433    1.9200   -3.0917 H   0  0  0  0  0  0  0  0  0  0  0  0
    5.6594    3.3168   -2.3582 H   0  0  0  0  0  0  0  0  0  0  0  0
    5.7494    1.7276   -1.5732 H   0  0  0  0  0  0  0  0  0  0  0  0
    3.1973    5.0123   -2.2465 N   0  0  0  0  0  0  0  0  0  0  0  0
    2.3691    5.9525   -2.9929 C   0  0  0  0  0  0  0  0  0  0  0  0
    4.0162    5.3629   -1.7565 H   0  0  0  0  0  0  0  0  0  0  0  0
    2.3065    5.6569   -4.0456 H   0  0  0  0  0  0  0  0  0  0  0  0
    1.3571    5.9883   -2.5757 H   0  0  0  0  0  0  0  0  0  0  0  0
    2.7984    6.9581   -2.9431 H   0  0  0  0  0  0  0  0  0  0  0  0
  1  2  2  0  0  0  0
  1  3  1  0  0  0  0
  1  7  1  0  0  0  0
  3  4  1  0  0  0  0
  3  5  1  0  0  0  0
  3  6  1  0  0  0  0
  7  8  1  0  0  0  0
  7 12  1  0  0  0  0
  8  9  1  0  0  0  0
  8 11  1  0  0  0  0
  8 13  1  0  0  0  0
  9 10  2  0  0  0  0
  9 17  1  0  0  0  0
 11 14  1  0  0  0  0
 11 15  1  0  0  0  0
 11 16  1  0  0  0  0
 17 18  1  0  0  0  0
 17 27  1  0  0  0  0
 18 19  1  0  0  0  0
 18 21  1  0  0  0  0
 18 28  1  0  0  0  0
 19 20  2  0  0  0  0
 19 35  1  0  0  0  0
 21 22  1  0  0  0  0
 21 29  1  0  0  0  0
 21 30  1  0  0  0  0
 22 23  1  0  0  0  0
 22 24  2  0  0  0  0
 23 25  2  0  0  0  0
 23 31  1  0  0  0  0
 24 26  1  0  0  0  0
 24 32  1  0  0  0  0
 25 26  1  0  0  0  0
 25 33  1  0  0  0  0
 26 34  1  0  0  0  0
 35 36  1  0  0  0  0
 35 40  1  0  0  0  0
 36 37  1  0  0  0  0
 36 39  1  0  0  0  0
 36 41  1  0  0  0  0
 37 38  2  0  0  0  0
 37 45  1  0  0  0  0
 39 42  1  0  0  0  0
 39 43  1  0  0  0  0
 39 44  1  0  0  0  0
 45 46  1  0  0  0  0
 45 47  1  0  0  0  0
 46 48  1  0  0  0  0
 46 49  1  0  0  0  0
 46 50  1  0  0  0  0
M  CHG  1  23   1
M  END
$$$$

  -OEChem-05262216443D

 50 50  0     1  0  0  0  0  0999 V2000
   -2.7759    0.1654    3.0360 C   0  0  0  0  0  0  0  0  0  0  0  0
   -2.9056    0.3907    1.8378 O   0  0  0  0  0  0  0  0  0  0  0  0
   -3.7816   -0.7162    3.7519 C   0  0  0  0  0  0  0  0  0  0  0  0
   -4.5469   -1.0647    3.0533 H   0  0  0  0  0  0  0  0  0  0  0  0
   -3.2777   -1.5840    4.1853 H   0  0  0  0  0  0  0  0  0  0  0  0
   -4.2679   -0.1515    4.5516 H   0  0  0  0  0  0  0  0  0  0  0  0
   -1.7047    0.6799    3.7384 N   0  0  0  0  0  0  0  0  0  0  0  0
   -0.6250    1.4609    3.1217 C   0  0  2  0  0  0  0  0  0  0  0  0
    0.2314    0.6159    2.1551 C   0  0  0  0  0  0  0  0  0  0  0  0
    0.8678   -0.3542    2.5510 O   0  0  0  0  0  0  0  0  0  0  0  0
    0.2414    2.0479    4.2388 C   0  0  0  0  0  0  0  0  0  0  0  0
   -1.5682    0.3419    4.6878 H   0  0  0  0  0  0  0  0  0  0  0  0
   -1.0609    2.2920    2.5576 H   0  0  0  0  0  0  0  0  0  0  0  0
    0.6905    1.2505    4.8402 H   0  0  0  0  0  0  0  0  0  0  0  0
    1.0487    2.6526    3.8129 H   0  0  0  0  0  0  0  0  0  0  0  0
   -0.3594    2.6854    4.8946 H   0  0  0  0  0  0  0  0  0  0  0  0
    0.1082    0.8226    0.7940 N   0  0  0  0  0  0  0  0  0  0  0  0
    1.0862    0.3166   -0.1827 C   0  0  2  0  0  0  0  0  0  0  0  0
    2.3961    1.1513   -0.1888 C   0  0  0  0  0  0  0  0  0  0  0  0
    2.7771    1.7060    0.8333 O   0  0  0  0  0  0  0  0  0  0  0  0
    0.3396    0.2687   -1.5301 C   0  0  0  0  0  0  0  0  0  0  0  0
   -0.7912   -0.7298   -1.4252 C   0  0  0  0  0  0  0  0  0  0  0  0
   -0.7020   -2.1233   -1.4295 N   0  3  0  0  0  0  0  0  0  0  0  0
   -2.1040   -0.4047   -1.1930 C   0  0  0  0  0  0  0  0  0  0  0  0
   -1.8769   -2.6529   -1.1844 C   0  0  0  0  0  0  0  0  0  0  0  0
   -2.7828   -1.6044   -1.0449 N   0  0  0  0  0  0  0  0  0  0  0  0
   -0.3926    1.6725    0.5484 H   0  0  0  0  0  0  0  0  0  0  0  0
    1.3835   -0.7027    0.0862 H   0  0  0  0  0  0  0  0  0  0  0  0
    1.0093   -0.0370   -2.3395 H   0  0  0  0  0  0  0  0  0  0  0  0
   -0.0455    1.2655   -1.7769 H   0  0  0  0  0  0  0  0  0  0  0  0
    0.1847   -2.6259   -1.5122 H   0  0  0  0  0  0  0  0  0  0  0  0
   -2.5136    0.5975   -1.0638 H   0  0  0  0  0  0  0  0  0  0  0  0
   -2.1011   -3.7159   -1.0824 H   0  0  0  0  0  0  0  0  0  0  0  0
   -3.7648   -1.6901   -0.7673 H   0  0  0  0  0  0  0  0  0  0  0  0
    2.9755    1.5340   -1.3881 N   0  0  0  0  0  0  0  0  0  0  0  0
    3.6078    2.8542   -1.5299 C   0  0  2  0  0  0  0  0  0  0  0  0
    2.5412    3.9403   -1.7971 C   0  0  0  0  0  0  0  0  0  0  0  0
    1.4195    3.6108   -2.1787 O   0  0  0  0  0  0  0  0  0  0  0  0
    4.6046    2.7752   -2.6884 C   0  0  0  0  0  0  0  0  0  0  0  0
    2.4824    1.2161   -2.2153 H   0  0  0  0  0  0  0  0  0  0  0  0
    4.1563    3.1224   -0.6198 H   0  0  0  0  0  0  0  0  0  0  0  0
    4.0899    2.5350   -3.6243 H   0  0  0  0  0  0  0  0  0  0  0  0
    5.1232    3.7309   -2.8137 H   0  0  0  0  0  0  0  0  0  0  0  0
    5.3534    2.0011   -2.4921 H   0  0  0  0  0  0  0  0  0  0  0  0
    2.8353    5.2786   -1.6207 N   0  0  0  0  0  0  0  0  0  0  0  0
    1.8667    6.3478   -1.8350 C   0  0  0  0  0  0  0  0  0  0  0  0
    3.7537    5.5162   -1.2554 H   0  0  0  0  0  0  0  0  0  0  0  0
    1.4737    6.3116   -2.8567 H   0  0  0  0  0  0  0  0  0  0  0  0
    1.0318    6.2552   -1.1325 H   0  0  0  0  0  0  0  0  0  0  0  0
    2.3392    7.3235   -1.6840 H   0  0  0  0  0  0  0  0  0  0  0  0
  1  2  2  0  0  0  0
  1  3  1  0  0  0  0
  1  7  1  0  0  0  0
  3  4  1  0  0  0  0
  3  5  1  0  0  0  0
  3  6  1  0  0  0  0
  7  8  1  0  0  0  0
  7 12  1  0  0  0  0
  8  9  1  0  0  0  0
  8 11  1  0  0  0  0
  8 13  1  0  0  0  0
  9 10  2  0  0  0  0
  9 17  1  0  0  0  0
 11 14  1  0  0  0  0
 11 15  1  0  0  0  0
 11 16  1  0  0  0  0
 17 18  1  0  0  0  0
 17 27  1  0  0  0  0
 18 19  1  0  0  0  0
 18 21  1  0  0  0  0
 18 28  1  0  0  0  0
 19 20  2  0  0  0  0
 19 35  1  0  0  0  0
 21 22  1  0  0  0  0
 21 29  1  0  0  0  0
 21 30  1  0  0  0  0
 22 23  1  0  0  0  0
 22 24  2  0  0  0  0
 23 25  2  0  0  0  0
 23 31  1  0  0  0  0
 24 26  1  0  0  0  0
 24 32  1  0  0  0  0
 25 26  1  0  0  0  0
 25 33  1  0  0  0  0
 26 34  1  0  0  0  0
 35 36  1  0  0  0  0
 35 40  1  0  0  0  0
 36 37  1  0  0  0  0
 36 39  1  0  0  0  0
 36 41  1  0  0  0  0
 37 38  2  0  0  0  0
 37 45  1  0  0  0  0
 39 42  1  0  0  0  0
 39 43  1  0  0  0  0
 39 44  1  0  0  0  0
 45 46  1  0  0  0  0
 45 47  1  0  0  0  0
 46 48  1  0  0  0  0
 46 49  1  0  0  0  0
 46 50  1  0  0  0  0
M  CHG  1  23   1
M  END
$$$$

  -OEChem-05262216443D

 50 50  0     1  0  0  0  0  0999 V2000
   -2.6264    0.3179    3.0210 C   0  0  0  0  0  0  0  0  0  0  0  0
   -2.8112    0.4585    1.8171 O   0  0  0  0  0  0  0  0  0  0  0  0
   -3.5814   -0.5335    3.8354 C   0  0  0  0  0  0  0  0  0  0  0  0
   -4.4050   -0.8864    3.2091 H   0  0  0  0  0  0  0  0  0  0  0  0
   -3.0529   -1.3981    4.2450 H   0  0  0  0  0  0  0  0  0  0  0  0
   -3.9952    0.0542    4.6590 H   0  0  0  0  0  0  0  0  0  0  0  0
   -1.5342    0.8910    3.6413 N   0  0  0  0  0  0  0  0  0  0  0  0
   -0.4760    1.6118    2.9217 C   0  0  2  0  0  0  0  0  0  0  0  0
    0.3259    0.6886    1.9794 C   0  0  0  0  0  0  0  0  0  0  0  0
    0.9179   -0.2945    2.4104 O   0  0  0  0  0  0  0  0  0  0  0  0
    0.4495    2.2594    3.9551 C   0  0  0  0  0  0  0  0  0  0  0  0
   -1.3484    0.6061    4.5996 H   0  0  0  0  0  0  0  0  0  0  0  0
   -0.9275    2.4085    2.3213 H   0  0  0  0  0  0  0  0  0  0  0  0
    0.9187    1.4970    4.5859 H   0  0  0  0  0  0  0  0  0  0  0  0
    1.2416    2.8241    3.4526 H   0  0  0  0  0  0  0  0  0  0  0  0
   -0.1129    2.9461    4.5951 H   0  0  0  0  0  0  0  0  0  0  0  0
    0.1753    0.8305    0.6129 N   0  0  0  0  0  0  0  0  0  0  0  0
    1.1079    0.2450   -0.3626 C   0  0  2  0  0  0  0  0  0  0  0  0
    2.4346    1.0438   -0.4328 C   0  0  0  0  0  0  0  0  0  0  0  0
    2.9876    1.4162    0.5925 O   0  0  0  0  0  0  0  0  0  0  0  0
    0.3271    0.1351   -1.6854 C   0  0  0  0  0  0  0  0  0  0  0  0
   -0.8200   -0.8289   -1.4869 C   0  0  0  0  0  0  0  0  0  0  0  0
   -0.7614   -2.2216   -1.4061 N   0  3  0  0  0  0  0  0  0  0  0  0
   -2.1149   -0.4566   -1.2283 C   0  0  0  0  0  0  0  0  0  0  0  0
   -1.9372   -2.7043   -1.0809 C   0  0  0  0  0  0  0  0  0  0  0  0
   -2.8142   -1.6271   -0.9784 N   0  0  0  0  0  0  0  0  0  0  0  0
   -0.2769    1.7005    0.3390 H   0  0  0  0  0  0  0  0  0  0  0  0
    1.3889   -0.7648   -0.0441 H   0  0  0  0  0  0  0  0  0  0  0  0
    0.9722   -0.2307   -2.4902 H   0  0  0  0  0  0  0  0  0  0  0  0
   -0.0495    1.1225   -1.9787 H   0  0  0  0  0  0  0  0  0  0  0  0
    0.1120   -2.7485   -1.4810 H   0  0  0  0  0  0  0  0  0  0  0  0
   -2.4932    0.5627   -1.1438 H   0  0  0  0  0  0  0  0  0  0  0  0
   -2.1792   -3.7521   -0.8953 H   0  0  0  0  0  0  0  0  0  0  0  0
   -3.7829   -1.6697   -0.6494 H   0  0  0  0  0  0  0  0  0  0  0  0
    2.8272    1.6218   -1.6296 N   0  0  0  0  0  0  0  0  0  0  0  0
    3.3297    3.0038   -1.6188 C   0  0  2  0  0  0  0  0  0  0  0  0
    2.1796    4.0041   -1.3467 C   0  0  0  0  0  0  0  0  0  0  0  0
    1.0094    3.6489   -1.4872 O   0  0  0  0  0  0  0  0  0  0  0  0
    3.9797    3.2812   -2.9762 C   0  0  0  0  0  0  0  0  0  0  0  0
    2.2195    1.4070   -2.4120 H   0  0  0  0  0  0  0  0  0  0  0  0
    4.0899    3.1267   -0.8388 H   0  0  0  0  0  0  0  0  0  0  0  0
    3.2451    3.1879   -3.7824 H   0  0  0  0  0  0  0  0  0  0  0  0
    4.3954    4.2934   -3.0018 H   0  0  0  0  0  0  0  0  0  0  0  0
    4.7926    2.5712   -3.1595 H   0  0  0  0  0  0  0  0  0  0  0  0
    2.4505    5.2970   -0.9426 N   0  0  0  0  0  0  0  0  0  0  0  0
    1.4135    6.2746   -0.6324 C   0  0  0  0  0  0  0  0  0  0  0  0
    3.4225    5.5471   -0.7806 H   0  0  0  0  0  0  0  0  0  0  0  0
    0.7737    6.4460   -1.5047 H   0  0  0  0  0  0  0  0  0  0  0  0
    0.7912    5.9238    0.1976 H   0  0  0  0  0  0  0  0  0  0  0  0
    1.8660    7.2289   -0.3448 H   0  0  0  0  0  0  0  0  0  0  0  0
  1  2  2  0  0  0  0
  1  3  1  0  0  0  0
  1  7  1  0  0  0  0
  3  4  1  0  0  0  0
  3  5  1  0  0  0  0
  3  6  1  0  0  0  0
  7  8  1  0  0  0  0
  7 12  1  0  0  0  0
  8  9  1  0  0  0  0
  8 11  1  0  0  0  0
  8 13  1  0  0  0  0
  9 10  2  0  0  0  0
  9 17  1  0  0  0  0
 11 14  1  0  0  0  0
 11 15  1  0  0  0  0
 11 16  1  0  0  0  0
 17 18  1  0  0  0  0
 17 27  1  0  0  0  0
 18 19  1  0  0  0  0
 18 21  1  0  0  0  0
 18 28  1  0  0  0  0
 19 20  2  0  0  0  0
 19 35  1  0  0  0  0
 21 22  1  0  0  0  0
 21 29  1  0  0  0  0
 21 30  1  0  0  0  0
 22 23  1  0  0  0  0
 22 24  2  0  0  0  0
 23 25  2  0  0  0  0
 23 31  1  0  0  0  0
 24 26  1  0  0  0  0
 24 32  1  0  0  0  0
 25 26  1  0  0  0  0
 25 33  1  0  0  0  0
 26 34  1  0  0  0  0
 35 36  1  0  0  0  0
 35 40  1  0  0  0  0
 36 37  1  0  0  0  0
 36 39  1  0  0  0  0
 36 41  1  0  0  0  0
 37 38  2  0  0  0  0
 37 45  1  0  0  0  0
 39 42  1  0  0  0  0
 39 43  1  0  0  0  0
 39 44  1  0  0  0  0
 45 46  1  0  0  0  0
 45 47  1  0  0  0  0
 46 48  1  0  0  0  0
 46 49  1  0  0  0  0
 46 50  1  0  0  0  0
M  CHG  1  23   1
M  END
$$$$

  -OEChem-05262216443D

 50 50  0     1  0  0  0  0  0999 V2000
   -2.4550    0.4011    3.0675 C   0  0  0  0  0  0  0  0  0  0  0  0
   -2.7382    0.4542    1.8754 O   0  0  0  0  0  0  0  0  0  0  0  0
   -3.3008   -0.4400    4.0040 C   0  0  0  0  0  0  0  0  0  0  0  0
   -4.1522   -0.8668    3.4671 H   0  0  0  0  0  0  0  0  0  0  0  0
   -2.7003   -1.2535    4.4188 H   0  0  0  0  0  0  0  0  0  0  0  0
   -3.6771    0.1787    4.8228 H   0  0  0  0  0  0  0  0  0  0  0  0
   -1.3512    1.0652    3.5657 N   0  0  0  0  0  0  0  0  0  0  0  0
   -0.3713    1.7472    2.7106 C   0  0  2  0  0  0  0  0  0  0  0  0
    0.3917    0.7617    1.8017 C   0  0  0  0  0  0  0  0  0  0  0  0
    0.9503   -0.2252    2.2673 O   0  0  0  0  0  0  0  0  0  0  0  0
    0.6069    2.5127    3.6040 C   0  0  0  0  0  0  0  0  0  0  0  0
   -1.0699    0.8317    4.5145 H   0  0  0  0  0  0  0  0  0  0  0  0
   -0.8931    2.4707    2.0751 H   0  0  0  0  0  0  0  0  0  0  0  0
    1.1552    1.8233    4.2547 H   0  0  0  0  0  0  0  0  0  0  0  0
    1.3324    3.0570    2.9906 H   0  0  0  0  0  0  0  0  0  0  0  0
    0.0709    3.2337    4.2288 H   0  0  0  0  0  0  0  0  0  0  0  0
    0.2139    0.8508    0.4358 N   0  0  0  0  0  0  0  0  0  0  0  0
    1.1069    0.2059   -0.5365 C   0  0  2  0  0  0  0  0  0  0  0  0
    2.4348    0.9904   -0.6475 C   0  0  0  0  0  0  0  0  0  0  0  0
    3.1290    1.1799    0.3404 O   0  0  0  0  0  0  0  0  0  0  0  0
    0.2915    0.0536   -1.8319 C   0  0  0  0  0  0  0  0  0  0  0  0
   -0.8623   -0.8803   -1.5462 C   0  0  0  0  0  0  0  0  0  0  0  0
   -0.8215   -2.2678   -1.3970 N   0  3  0  0  0  0  0  0  0  0  0  0
   -2.1322   -0.4698   -1.2262 C   0  0  0  0  0  0  0  0  0  0  0  0
   -1.9815   -2.7091   -0.9717 C   0  0  0  0  0  0  0  0  0  0  0  0
   -2.8337   -1.6118   -0.8727 N   0  0  0  0  0  0  0  0  0  0  0  0
   -0.1639    1.7542    0.1444 H   0  0  0  0  0  0  0  0  0  0  0  0
    1.3815   -0.7938   -0.1822 H   0  0  0  0  0  0  0  0  0  0  0  0
    0.9109   -0.3558   -2.6367 H   0  0  0  0  0  0  0  0  0  0  0  0
   -0.0836    1.0314   -2.1556 H   0  0  0  0  0  0  0  0  0  0  0  0
    0.0389   -2.8136   -1.4883 H   0  0  0  0  0  0  0  0  0  0  0  0
   -2.4844    0.5600   -1.1590 H   0  0  0  0  0  0  0  0  0  0  0  0
   -2.2256   -3.7397   -0.7099 H   0  0  0  0  0  0  0  0  0  0  0  0
   -3.7726   -1.6155   -0.4636 H   0  0  0  0  0  0  0  0  0  0  0  0
    2.6538    1.7812   -1.7632 N   0  0  0  0  0  0  0  0  0  0  0  0
    3.0272    3.1861   -1.5363 C   0  0  2  0  0  0  0  0  0  0  0  0
    1.8517    3.9851   -0.9154 C   0  0  0  0  0  0  0  0  0  0  0  0
    0.7069    3.5292   -0.9388 O   0  0  0  0  0  0  0  0  0  0  0  0
    3.4438    3.7900   -2.8795 C   0  0  0  0  0  0  0  0  0  0  0  0
    1.9659    1.6509   -2.4964 H   0  0  0  0  0  0  0  0  0  0  0  0
    3.8822    3.2421   -0.8526 H   0  0  0  0  0  0  0  0  0  0  0  0
    2.6086    3.7738   -3.5871 H   0  0  0  0  0  0  0  0  0  0  0  0
    3.7670    4.8277   -2.7487 H   0  0  0  0  0  0  0  0  0  0  0  0
    4.2767    3.2229   -3.3079 H   0  0  0  0  0  0  0  0  0  0  0  0
    2.0736    5.2086   -0.3138 N   0  0  0  0  0  0  0  0  0  0  0  0
    1.0206    6.0013    0.3111 C   0  0  0  0  0  0  0  0  0  0  0  0
    3.0329    5.5430   -0.2635 H   0  0  0  0  0  0  0  0  0  0  0  0
    0.2431    6.2508   -0.4188 H   0  0  0  0  0  0  0  0  0  0  0  0
    0.5634    5.4488    1.1386 H   0  0  0  0  0  0  0  0  0  0  0  0
    1.4335    6.9346    0.7062 H   0  0  0  0  0  0  0  0  0  0  0  0
  1  2  2  0  0  0  0
  1  3  1  0  0  0  0
  1  7  1  0  0  0  0
  3  4  1  0  0  0  0
  3  5  1  0  0  0  0
  3  6  1  0  0  0  0
  7  8  1  0  0  0  0
  7 12  1  0  0  0  0
  8  9  1  0  0  0  0
  8 11  1  0  0  0  0
  8 13  1  0  0  0  0
  9 10  2  0  0  0  0
  9 17  1  0  0  0  0
 11 14  1  0  0  0  0
 11 15  1  0  0  0  0
 11 16  1  0  0  0  0
 17 18  1  0  0  0  0
 17 27  1  0  0  0  0
 18 19  1  0  0  0  0
 18 21  1  0  0  0  0
 18 28  1  0  0  0  0
 19 20  2  0  0  0  0
 19 35  1  0  0  0  0
 21 22  1  0  0  0  0
 21 29  1  0  0  0  0
 21 30  1  0  0  0  0
 22 23  1  0  0  0  0
 22 24  2  0  0  0  0
 23 25  2  0  0  0  0
 23 31  1  0  0  0  0
 24 26  1  0  0  0  0
 24 32  1  0  0  0  0
 25 26  1  0  0  0  0
 25 33  1  0  0  0  0
 26 34  1  0  0  0  0
 35 36  1  0  0  0  0
 35 40  1  0  0  0  0
 36 37  1  0  0  0  0
 36 39  1  0  0  0  0
 36 41  1  0  0  0  0
 37 38  2  0  0  0  0
 37 45  1  0  0  0  0
 39 42  1  0  0  0  0
 39 43  1  0  0  0  0
 39 44  1  0  0  0  0
 45 46  1  0  0  0  0
 45 47  1  0  0  0  0
 46 48  1  0  0  0  0
 46 49  1  0  0  0  0
 46 50  1  0  0  0  0
M  CHG  1  23   1
M  END
$$$$

  -OEChem-05262216443D

 50 50  0     1  0  0  0  0  0999 V2000
   -2.3573    0.3957    3.1295 C   0  0  0  0  0  0  0  0  0  0  0  0
   -2.6932    0.4070    1.9500 O   0  0  0  0  0  0  0  0  0  0  0  0
   -3.1571   -0.4131    4.1327 C   0  0  0  0  0  0  0  0  0  0  0  0
   -4.0629   -0.8085    3.6657 H   0  0  0  0  0  0  0  0  0  0  0  0
   -2.5559   -1.2469    4.5037 H   0  0  0  0  0  0  0  0  0  0  0  0
   -3.4467    0.2194    4.9756 H   0  0  0  0  0  0  0  0  0  0  0  0
   -1.2370    1.0820    3.5556 N   0  0  0  0  0  0  0  0  0  0  0  0
   -0.3133    1.7642    2.6400 C   0  0  2  0  0  0  0  0  0  0  0  0
    0.4072    0.7791    1.6970 C   0  0  0  0  0  0  0  0  0  0  0  0
    1.0382   -0.1744    2.1373 O   0  0  0  0  0  0  0  0  0  0  0  0
    0.7055    2.5475    3.4702 C   0  0  0  0  0  0  0  0  0  0  0  0
   -0.9133    0.8863    4.4994 H   0  0  0  0  0  0  0  0  0  0  0  0
   -0.8760    2.4774    2.0280 H   0  0  0  0  0  0  0  0  0  0  0  0
    1.2865    1.8716    4.1065 H   0  0  0  0  0  0  0  0  0  0  0  0
    1.3992    3.0805    2.8120 H   0  0  0  0  0  0  0  0  0  0  0  0
    0.1981    3.2793    4.1063 H   0  0  0  0  0  0  0  0  0  0  0  0
    0.1419    0.8472    0.3443 N   0  0  0  0  0  0  0  0  0  0  0  0
    1.0097    0.2364   -0.6723 C   0  0  2  0  0  0  0  0  0  0  0  0
    2.2837    1.0853   -0.8622 C   0  0  0  0  0  0  0  0  0  0  0  0
    3.1717    1.0667   -0.0246 O   0  0  0  0  0  0  0  0  0  0  0  0
    0.1458    0.0141   -1.9237 C   0  0  0  0  0  0  0  0  0  0  0  0
   -0.9354   -0.9808   -1.5667 C   0  0  0  0  0  0  0  0  0  0  0  0
   -0.7912   -2.3596   -1.4006 N   0  3  0  0  0  0  0  0  0  0  0  0
   -2.2168   -0.6544   -1.1970 C   0  0  0  0  0  0  0  0  0  0  0  0
   -1.8988   -2.8751   -0.9235 C   0  0  0  0  0  0  0  0  0  0  0  0
   -2.8212   -1.8384   -0.8022 N   0  0  0  0  0  0  0  0  0  0  0  0
   -0.2733    1.7447    0.0838 H   0  0  0  0  0  0  0  0  0  0  0  0
    1.3575   -0.7419   -0.3214 H   0  0  0  0  0  0  0  0  0  0  0  0
    0.7534   -0.3687   -2.7508 H   0  0  0  0  0  0  0  0  0  0  0  0
   -0.3048    0.9598   -2.2441 H   0  0  0  0  0  0  0  0  0  0  0  0
    0.1007   -2.8456   -1.5236 H   0  0  0  0  0  0  0  0  0  0  0  0
   -2.6396    0.3483   -1.1284 H   0  0  0  0  0  0  0  0  0  0  0  0
   -2.0596   -3.9172   -0.6426 H   0  0  0  0  0  0  0  0  0  0  0  0
   -3.7448   -1.9057   -0.3646 H   0  0  0  0  0  0  0  0  0  0  0  0
    2.2724    2.0971   -1.8067 N   0  0  0  0  0  0  0  0  0  0  0  0
    2.7348    3.4326   -1.4006 C   0  0  2  0  0  0  0  0  0  0  0  0
    1.6748    4.1353   -0.5147 C   0  0  0  0  0  0  0  0  0  0  0  0
    0.5317    3.6818   -0.4353 O   0  0  0  0  0  0  0  0  0  0  0  0
    3.0111    4.2425   -2.6699 C   0  0  0  0  0  0  0  0  0  0  0  0
    1.4305    2.1118   -2.3722 H   0  0  0  0  0  0  0  0  0  0  0  0
    3.6676    3.3590   -0.8294 H   0  0  0  0  0  0  0  0  0  0  0  0
    2.0976    4.3579   -3.2619 H   0  0  0  0  0  0  0  0  0  0  0  0
    3.3872    5.2386   -2.4159 H   0  0  0  0  0  0  0  0  0  0  0  0
    3.7644    3.7381   -3.2839 H   0  0  0  0  0  0  0  0  0  0  0  0
    1.9968    5.2708    0.2028 N   0  0  0  0  0  0  0  0  0  0  0  0
    1.0458    5.9881    1.0450 C   0  0  0  0  0  0  0  0  0  0  0  0
    2.9561    5.6054    0.1525 H   0  0  0  0  0  0  0  0  0  0  0  0
    0.1672    6.2883    0.4639 H   0  0  0  0  0  0  0  0  0  0  0  0
    0.7188    5.3570    1.8777 H   0  0  0  0  0  0  0  0  0  0  0  0
    1.5089    6.8906    1.4562 H   0  0  0  0  0  0  0  0  0  0  0  0
  1  2  2  0  0  0  0
  1  3  1  0  0  0  0
  1  7  1  0  0  0  0
  3  4  1  0  0  0  0
  3  5  1  0  0  0  0
  3  6  1  0  0  0  0
  7  8  1  0  0  0  0
  7 12  1  0  0  0  0
  8  9  1  0  0  0  0
  8 11  1  0  0  0  0
  8 13  1  0  0  0  0
  9 10  2  0  0  0  0
  9 17  1  0  0  0  0
 11 14  1  0  0  0  0
 11 15  1  0  0  0  0
 11 16  1  0  0  0  0
 17 18  1  0  0  0  0
 17 27  1  0  0  0  0
 18 19  1  0  0  0  0
 18 21  1  0  0  0  0
 18 28  1  0  0  0  0
 19 20  2  0  0  0  0
 19 35  1  0  0  0  0
 21 22  1  0  0  0  0
 21 29  1  0  0  0  0
 21 30  1  0  0  0  0
 22 23  1  0  0  0  0
 22 24  2  0  0  0  0
 23 25  2  0  0  0  0
 23 31  1  0  0  0  0
 24 26  1  0  0  0  0
 24 32  1  0  0  0  0
 25 26  1  0  0  0  0
 25 33  1  0  0  0  0
 26 34  1  0  0  0  0
 35 36  1  0  0  0  0
 35 40  1  0  0  0  0
 36 37  1  0  0  0  0
 36 39  1  0  0  0  0
 36 41  1  0  0  0  0
 37 38  2  0  0  0  0
 37 45  1  0  0  0  0
 39 42  1  0  0  0  0
 39 43  1  0  0  0  0
 39 44  1  0  0  0  0
 45 46  1  0  0  0  0
 45 47  1  0  0  0  0
 46 48  1  0  0  0  0
 46 49  1  0  0  0  0
 46 50  1  0  0  0  0
M  CHG  1  23   1
M  END
$$$$

  -OEChem-05262216443D

 50 50  0     1  0  0  0  0  0999 V2000
   -2.4547    0.4608    2.9754 C   0  0  0  0  0  0  0  0  0  0  0  0
   -2.6833    0.5128    1.7723 O   0  0  0  0  0  0  0  0  0  0  0  0
   -3.4185   -0.2653    3.8944 C   0  0  0  0  0  0  0  0  0  0  0  0
   -4.3018   -0.5900    3.3380 H   0  0  0  0  0  0  0  0  0  0  0  0
   -2.9319   -1.1416    4.3297 H   0  0  0  0  0  0  0  0  0  0  0  0
   -3.7391    0.4004    4.7000 H   0  0  0  0  0  0  0  0  0  0  0  0
   -1.3103    1.0249    3.5025 N   0  0  0  0  0  0  0  0  0  0  0  0
   -0.3007    1.7389    2.7093 C   0  0  2  0  0  0  0  0  0  0  0  0
    0.4566    0.8108    1.7341 C   0  0  0  0  0  0  0  0  0  0  0  0
    1.2932    0.0072    2.1254 O   0  0  0  0  0  0  0  0  0  0  0  0
    0.6695    2.4240    3.6760 C   0  0  0  0  0  0  0  0  0  0  0  0
   -1.1217    0.8643    4.4886 H   0  0  0  0  0  0  0  0  0  0  0  0
   -0.7928    2.5199    2.1195 H   0  0  0  0  0  0  0  0  0  0  0  0
    1.1726    1.6855    4.3089 H   0  0  0  0  0  0  0  0  0  0  0  0
    1.4327    2.9737    3.1160 H   0  0  0  0  0  0  0  0  0  0  0  0
    0.1349    3.1308    4.3178 H   0  0  0  0  0  0  0  0  0  0  0  0
    0.0834    0.8048    0.4049 N   0  0  0  0  0  0  0  0  0  0  0  0
    0.9341    0.2871   -0.6772 C   0  0  2  0  0  0  0  0  0  0  0  0
    2.0690    1.2781   -0.9940 C   0  0  0  0  0  0  0  0  0  0  0  0
    3.1904    1.1040   -0.5455 O   0  0  0  0  0  0  0  0  0  0  0  0
    0.0358   -0.0616   -1.8721 C   0  0  0  0  0  0  0  0  0  0  0  0
   -0.8943   -1.1785   -1.4620 C   0  0  0  0  0  0  0  0  0  0  0  0
   -0.5574   -2.5241   -1.3072 N   0  3  0  0  0  0  0  0  0  0  0  0
   -2.2004   -1.0323   -1.0661 C   0  0  0  0  0  0  0  0  0  0  0  0
   -1.5772   -3.1936   -0.8265 C   0  0  0  0  0  0  0  0  0  0  0  0
   -2.6307   -2.2938   -0.6797 N   0  0  0  0  0  0  0  0  0  0  0  0
   -0.5597    1.5611    0.1759 H   0  0  0  0  0  0  0  0  0  0  0  0
    1.4249   -0.6337   -0.3418 H   0  0  0  0  0  0  0  0  0  0  0  0
    0.6445   -0.3756   -2.7272 H   0  0  0  0  0  0  0  0  0  0  0  0
   -0.5425    0.8159   -2.1793 H   0  0  0  0  0  0  0  0  0  0  0  0
    0.3886   -2.8826   -1.4632 H   0  0  0  0  0  0  0  0  0  0  0  0
   -2.7593   -0.0983   -0.9931 H   0  0  0  0  0  0  0  0  0  0  0  0
   -1.5903   -4.2533   -0.5661 H   0  0  0  0  0  0  0  0  0  0  0  0
   -3.5446   -2.5015   -0.2673 H   0  0  0  0  0  0  0  0  0  0  0  0
    1.7779    2.4338   -1.6956 N   0  0  0  0  0  0  0  0  0  0  0  0
    2.4351    3.6899   -1.3076 C   0  0  2  0  0  0  0  0  0  0  0  0
    1.6852    4.3465   -0.1237 C   0  0  0  0  0  0  0  0  0  0  0  0
    0.5687    3.9395    0.1975 O   0  0  0  0  0  0  0  0  0  0  0  0
    2.4455    4.6123   -2.5289 C   0  0  0  0  0  0  0  0  0  0  0  0
    0.7894    2.5401   -1.9014 H   0  0  0  0  0  0  0  0  0  0  0  0
    3.4722    3.5102   -1.0008 H   0  0  0  0  0  0  0  0  0  0  0  0
    1.4239    4.8436   -2.8471 H   0  0  0  0  0  0  0  0  0  0  0  0
    2.9573    5.5516   -2.2969 H   0  0  0  0  0  0  0  0  0  0  0  0
    2.9703    4.1319   -3.3610 H   0  0  0  0  0  0  0  0  0  0  0  0
    2.2464    5.3997    0.5722 N   0  0  0  0  0  0  0  0  0  0  0  0
    1.5751    6.0912    1.6670 C   0  0  0  0  0  0  0  0  0  0  0  0
    3.1802    5.6995    0.3038 H   0  0  0  0  0  0  0  0  0  0  0  0
    0.6140    6.4966    1.3332 H   0  0  0  0  0  0  0  0  0  0  0  0
    1.3980    5.4072    2.5030 H   0  0  0  0  0  0  0  0  0  0  0  0
    2.1915    6.9217    2.0252 H   0  0  0  0  0  0  0  0  0  0  0  0
  1  2  2  0  0  0  0
  1  3  1  0  0  0  0
  1  7  1  0  0  0  0
  3  4  1  0  0  0  0
  3  5  1  0  0  0  0
  3  6  1  0  0  0  0
  7  8  1  0  0  0  0
  7 12  1  0  0  0  0
  8  9  1  0  0  0  0
  8 11  1  0  0  0  0
  8 13  1  0  0  0  0
  9 10  2  0  0  0  0
  9 17  1  0  0  0  0
 11 14  1  0  0  0  0
 11 15  1  0  0  0  0
 11 16  1  0  0  0  0
 17 18  1  0  0  0  0
 17 27  1  0  0  0  0
 18 19  1  0  0  0  0
 18 21  1  0  0  0  0
 18 28  1  0  0  0  0
 19 20  2  0  0  0  0
 19 35  1  0  0  0  0
 21 22  1  0  0  0  0
 21 29  1  0  0  0  0
 21 30  1  0  0  0  0
 22 23  1  0  0  0  0
 22 24  2  0  0  0  0
 23 25  2  0  0  0  0
 23 31  1  0  0  0  0
 24 26  1  0  0  0  0
 24 32  1  0  0  0  0
 25 26  1  0  0  0  0
 25 33  1  0  0  0  0
 26 34  1  0  0  0  0
 35 36  1  0  0  0  0
 35 40  1  0  0  0  0
 36 37  1  0  0  0  0
 36 39  1  0  0  0  0
 36 41  1  0  0  0  0
 37 38  2  0  0  0  0
 37 45  1  0  0  0  0
 39 42  1  0  0  0  0
 39 43  1  0  0  0  0
 39 44  1  0  0  0  0
 45 46  1  0  0  0  0
 45 47  1  0  0  0  0
 46 48  1  0  0  0  0
 46 49  1  0  0  0  0
 46 50  1  0  0  0  0
M  CHG  1  23   1
M  END
$$$$

  -OEChem-05262216443D

 50 50  0     1  0  0  0  0  0999 V2000
   -2.5761    0.6221    2.6935 C   0  0  0  0  0  0  0  0  0  0  0  0
   -2.6084    0.7972    1.4807 O   0  0  0  0  0  0  0  0  0  0  0  0
   -3.7845    0.0404    3.4010 C   0  0  0  0  0  0  0  0  0  0  0  0
   -4.5939   -0.1367    2.6873 H   0  0  0  0  0  0  0  0  0  0  0  0
   -3.5199   -0.9063    3.8783 H   0  0  0  0  0  0  0  0  0  0  0  0
   -4.1394    0.7372    4.1648 H   0  0  0  0  0  0  0  0  0  0  0  0
   -1.4360    0.9061    3.4186 N   0  0  0  0  0  0  0  0  0  0  0  0
   -0.2797    1.6514    2.8963 C   0  0  2  0  0  0  0  0  0  0  0  0
    0.5624    0.8544    1.8713 C   0  0  0  0  0  0  0  0  0  0  0  0
    1.6395    0.3444    2.1489 O   0  0  0  0  0  0  0  0  0  0  0  0
    0.5600    2.1106    4.0940 C   0  0  0  0  0  0  0  0  0  0  0  0
   -1.4764    0.7415    4.4213 H   0  0  0  0  0  0  0  0  0  0  0  0
   -0.6383    2.5520    2.3853 H   0  0  0  0  0  0  0  0  0  0  0  0
    0.9380    1.2508    4.6568 H   0  0  0  0  0  0  0  0  0  0  0  0
    1.4158    2.6996    3.7479 H   0  0  0  0  0  0  0  0  0  0  0  0
   -0.0374    2.7355    4.7648 H   0  0  0  0  0  0  0  0  0  0  0  0
    0.0902    0.7551    0.5781 N   0  0  0  0  0  0  0  0  0  0  0  0
    0.8972    0.3606   -0.5856 C   0  0  2  0  0  0  0  0  0  0  0  0
    1.8233    1.5086   -1.0186 C   0  0  0  0  0  0  0  0  0  0  0  0
    3.0242    1.3165   -1.1294 O   0  0  0  0  0  0  0  0  0  0  0  0
   -0.0210   -0.1004   -1.7237 C   0  0  0  0  0  0  0  0  0  0  0  0
   -0.7705   -1.3393   -1.3021 C   0  0  0  0  0  0  0  0  0  0  0  0
   -0.2385   -2.6260   -1.2107 N   0  3  0  0  0  0  0  0  0  0  0  0
   -2.0846   -1.4040   -0.9134 C   0  0  0  0  0  0  0  0  0  0  0  0
   -1.1510   -3.4638   -0.7823 C   0  0  0  0  0  0  0  0  0  0  0  0
   -2.3243   -2.7351   -0.5952 N   0  0  0  0  0  0  0  0  0  0  0  0
   -0.8481    1.1356    0.4399 H   0  0  0  0  0  0  0  0  0  0  0  0
    1.5468   -0.4755   -0.3023 H   0  0  0  0  0  0  0  0  0  0  0  0
    0.5726   -0.3126   -2.6202 H   0  0  0  0  0  0  0  0  0  0  0  0
   -0.7259    0.6978   -1.9791 H   0  0  0  0  0  0  0  0  0  0  0  0
    0.7444   -2.8372   -1.4063 H   0  0  0  0  0  0  0  0  0  0  0  0
   -2.7807   -0.5669   -0.8357 H   0  0  0  0  0  0  0  0  0  0  0  0
   -1.0126   -4.5305   -0.5970 H   0  0  0  0  0  0  0  0  0  0  0  0
   -3.2128   -3.1097   -0.2509 H   0  0  0  0  0  0  0  0  0  0  0  0
    1.2754    2.7196   -1.3966 N   0  0  0  0  0  0  0  0  0  0  0  0
    2.0440    3.9557   -1.1991 C   0  0  2  0  0  0  0  0  0  0  0  0
    1.7649    4.5330    0.2071 C   0  0  0  0  0  0  0  0  0  0  0  0
    0.7477    4.1995    0.8121 O   0  0  0  0  0  0  0  0  0  0  0  0
    1.6340    4.9488   -2.2882 C   0  0  0  0  0  0  0  0  0  0  0  0
    0.2965    2.8077   -1.1344 H   0  0  0  0  0  0  0  0  0  0  0  0
    3.1202    3.7688   -1.2866 H   0  0  0  0  0  0  0  0  0  0  0  0
    0.5656    5.1774   -2.2184 H   0  0  0  0  0  0  0  0  0  0  0  0
    2.1957    5.8827   -2.1868 H   0  0  0  0  0  0  0  0  0  0  0  0
    1.8382    4.5301   -3.2787 H   0  0  0  0  0  0  0  0  0  0  0  0
    2.6459    5.4185    0.7971 N   0  0  0  0  0  0  0  0  0  0  0  0
    2.4566    5.9623    2.1371 C   0  0  0  0  0  0  0  0  0  0  0  0
    3.5095    5.6261    0.3024 H   0  0  0  0  0  0  0  0  0  0  0  0
    1.5209    6.5290    2.1927 H   0  0  0  0  0  0  0  0  0  0  0  0
    2.4253    5.1561    2.8774 H   0  0  0  0  0  0  0  0  0  0  0  0
    3.2816    6.6345    2.3934 H   0  0  0  0  0  0  0  0  0  0  0  0
  1  2  2  0  0  0  0
  1  3  1  0  0  0  0
  1  7  1  0  0  0  0
  3  4  1  0  0  0  0
  3  5  1  0  0  0  0
  3  6  1  0  0  0  0
  7  8  1  0  0  0  0
  7 12  1  0  0  0  0
  8  9  1  0  0  0  0
  8 11  1  0  0  0  0
  8 13  1  0  0  0  0
  9 10  2  0  0  0  0
  9 17  1  0  0  0  0
 11 14  1  0  0  0  0
 11 15  1  0  0  0  0
 11 16  1  0  0  0  0
 17 18  1  0  0  0  0
 17 27  1  0  0  0  0
 18 19  1  0  0  0  0
 18 21  1  0  0  0  0
 18 28  1  0  0  0  0
 19 20  2  0  0  0  0
 19 35  1  0  0  0  0
 21 22  1  0  0  0  0
 21 29  1  0  0  0  0
 21 30  1  0  0  0  0
 22 23  1  0  0  0  0
 22 24  2  0  0  0  0
 23 25  2  0  0  0  0
 23 31  1  0  0  0  0
 24 26  1  0  0  0  0
 24 32  1  0  0  0  0
 25 26  1  0  0  0  0
 25 33  1  0  0  0  0
 26 34  1  0  0  0  0
 35 36  1  0  0  0  0
 35 40  1  0  0  0  0
 36 37  1  0  0  0  0
 36 39  1  0  0  0  0
 36 41  1  0  0  0  0
 37 38  2  0  0  0  0
 37 45  1  0  0  0  0
 39 42  1  0  0  0  0
 39 43  1  0  0  0  0
 39 44  1  0  0  0  0
 45 46  1  0  0  0  0
 45 47  1  0  0  0  0
 46 48  1  0  0  0  0
 46 49  1  0  0  0  0
 46 50  1  0  0  0  0
M  CHG  1  23   1
M  END
$$$$

  -OEChem-05262216443D

 50 50  0     1  0  0  0  0  0999 V2000
   -2.5547    0.4284    2.7818 C   0  0  0  0  0  0  0  0  0  0  0  0
   -2.6258    0.6422    1.5767 O   0  0  0  0  0  0  0  0  0  0  0  0
   -3.7214   -0.2169    3.5043 C   0  0  0  0  0  0  0  0  0  0  0  0
   -4.5670   -0.3444    2.8229 H   0  0  0  0  0  0  0  0  0  0  0  0
   -3.4275   -1.1952    3.8926 H   0  0  0  0  0  0  0  0  0  0  0  0
   -4.0380    0.4159    4.3377 H   0  0  0  0  0  0  0  0  0  0  0  0
   -1.4068    0.7314    3.4859 N   0  0  0  0  0  0  0  0  0  0  0  0
   -0.3043    1.5567    2.9686 C   0  0  2  0  0  0  0  0  0  0  0  0
    0.5512    0.8506    1.8890 C   0  0  0  0  0  0  0  0  0  0  0  0
    1.6798    0.4302    2.1056 O   0  0  0  0  0  0  0  0  0  0  0  0
    0.5380    2.0043    4.1687 C   0  0  0  0  0  0  0  0  0  0  0  0
   -1.4203    0.5413    4.4848 H   0  0  0  0  0  0  0  0  0  0  0  0
   -0.7195    2.4599    2.5072 H   0  0  0  0  0  0  0  0  0  0  0  0
    0.9799    1.1409    4.6764 H   0  0  0  0  0  0  0  0  0  0  0  0
    1.3483    2.6607    3.8344 H   0  0  0  0  0  0  0  0  0  0  0  0
   -0.0771    2.5573    4.8848 H   0  0  0  0  0  0  0  0  0  0  0  0
    0.0462    0.7589    0.6068 N   0  0  0  0  0  0  0  0  0  0  0  0
    0.8336    0.3932   -0.5815 C   0  0  2  0  0  0  0  0  0  0  0  0
    1.7308    1.5573   -1.0276 C   0  0  0  0  0  0  0  0  0  0  0  0
    2.8512    1.3318   -1.4585 O   0  0  0  0  0  0  0  0  0  0  0  0
   -0.0987   -0.0450   -1.7164 C   0  0  0  0  0  0  0  0  0  0  0  0
   -0.8398   -1.2962   -1.3195 C   0  0  0  0  0  0  0  0  0  0  0  0
   -0.2974   -2.5805   -1.2709 N   0  3  0  0  0  0  0  0  0  0  0  0
   -2.1520   -1.3834   -0.9290 C   0  0  0  0  0  0  0  0  0  0  0  0
   -1.2019   -3.4389   -0.8674 C   0  0  0  0  0  0  0  0  0  0  0  0
   -2.3790   -2.7253   -0.6496 N   0  0  0  0  0  0  0  0  0  0  0  0
   -0.9376    1.0195    0.5104 H   0  0  0  0  0  0  0  0  0  0  0  0
    1.4986   -0.4408   -0.3290 H   0  0  0  0  0  0  0  0  0  0  0  0
    0.4843   -0.2316   -2.6258 H   0  0  0  0  0  0  0  0  0  0  0  0
   -0.8070    0.7600   -1.9416 H   0  0  0  0  0  0  0  0  0  0  0  0
    0.6842   -2.7781   -1.4866 H   0  0  0  0  0  0  0  0  0  0  0  0
   -2.8572   -0.5564   -0.8282 H   0  0  0  0  0  0  0  0  0  0  0  0
   -1.0565   -4.5108   -0.7223 H   0  0  0  0  0  0  0  0  0  0  0  0
   -3.2650   -3.1188   -0.3200 H   0  0  0  0  0  0  0  0  0  0  0  0
    1.2024    2.8314   -1.0791 N   0  0  0  0  0  0  0  0  0  0  0  0
    2.0600    4.0057   -0.8779 C   0  0  2  0  0  0  0  0  0  0  0  0
    1.8456    4.5685    0.5453 C   0  0  0  0  0  0  0  0  0  0  0  0
    0.8616    4.2206    1.1955 O   0  0  0  0  0  0  0  0  0  0  0  0
    1.7029    5.0447   -1.9427 C   0  0  0  0  0  0  0  0  0  0  0  0
    0.3090    2.9033   -0.5949 H   0  0  0  0  0  0  0  0  0  0  0  0
    3.1192    3.7445   -0.9814 H   0  0  0  0  0  0  0  0  0  0  0  0
    0.6542    5.3450   -1.8511 H   0  0  0  0  0  0  0  0  0  0  0  0
    2.3303    5.9350   -1.8360 H   0  0  0  0  0  0  0  0  0  0  0  0
    1.8612    4.6295   -2.9432 H   0  0  0  0  0  0  0  0  0  0  0  0
    2.7475    5.4548    1.1017 N   0  0  0  0  0  0  0  0  0  0  0  0
    2.6150    5.9906    2.4521 C   0  0  0  0  0  0  0  0  0  0  0  0
    3.5780    5.6848    0.5625 H   0  0  0  0  0  0  0  0  0  0  0  0
    1.6573    6.5095    2.5674 H   0  0  0  0  0  0  0  0  0  0  0  0
    2.6707    5.1849    3.1917 H   0  0  0  0  0  0  0  0  0  0  0  0
    3.4189    6.7044    2.6580 H   0  0  0  0  0  0  0  0  0  0  0  0
  1  2  2  0  0  0  0
  1  3  1  0  0  0  0
  1  7  1  0  0  0  0
  3  4  1  0  0  0  0
  3  5  1  0  0  0  0
  3  6  1  0  0  0  0
  7  8  1  0  0  0  0
  7 12  1  0  0  0  0
  8  9  1  0  0  0  0
  8 11  1  0  0  0  0
  8 13  1  0  0  0  0
  9 10  2  0  0  0  0
  9 17  1  0  0  0  0
 11 14  1  0  0  0  0
 11 15  1  0  0  0  0
 11 16  1  0  0  0  0
 17 18  1  0  0  0  0
 17 27  1  0  0  0  0
 18 19  1  0  0  0  0
 18 21  1  0  0  0  0
 18 28  1  0  0  0  0
 19 20  2  0  0  0  0
 19 35  1  0  0  0  0
 21 22  1  0  0  0  0
 21 29  1  0  0  0  0
 21 30  1  0  0  0  0
 22 23  1  0  0  0  0
 22 24  2  0  0  0  0
 23 25  2  0  0  0  0
 23 31  1  0  0  0  0
 24 26  1  0  0  0  0
 24 32  1  0  0  0  0
 25 26  1  0  0  0  0
 25 33  1  0  0  0  0
 26 34  1  0  0  0  0
 35 36  1  0  0  0  0
 35 40  1  0  0  0  0
 36 37  1  0  0  0  0
 36 39  1  0  0  0  0
 36 41  1  0  0  0  0
 37 38  2  0  0  0  0
 37 45  1  0  0  0  0
 39 42  1  0  0  0  0
 39 43  1  0  0  0  0
 39 44  1  0  0  0  0
 45 46  1  0  0  0  0
 45 47  1  0  0  0  0
 46 48  1  0  0  0  0
 46 49  1  0  0  0  0
 46 50  1  0  0  0  0
M  CHG  1  23   1
M  END
$$$$

  -OEChem-05262216443D

 50 50  0     1  0  0  0  0  0999 V2000
   -2.5503    0.2866    2.8407 C   0  0  0  0  0  0  0  0  0  0  0  0
   -2.6564    0.5605    1.6508 O   0  0  0  0  0  0  0  0  0  0  0  0
   -3.6794   -0.4342    3.5518 C   0  0  0  0  0  0  0  0  0  0  0  0
   -4.5531   -0.5098    2.8985 H   0  0  0  0  0  0  0  0  0  0  0  0
   -3.3604   -1.4396    3.8373 H   0  0  0  0  0  0  0  0  0  0  0  0
   -3.9654    0.1169    4.4516 H   0  0  0  0  0  0  0  0  0  0  0  0
   -1.3922    0.5819    3.5316 N   0  0  0  0  0  0  0  0  0  0  0  0
   -0.3211    1.4606    3.0346 C   0  0  2  0  0  0  0  0  0  0  0  0
    0.5228    0.8380    1.8954 C   0  0  0  0  0  0  0  0  0  0  0  0
    1.6796    0.4704    2.0509 O   0  0  0  0  0  0  0  0  0  0  0  0
    0.5419    1.8554    4.2392 C   0  0  0  0  0  0  0  0  0  0  0  0
   -1.3744    0.3353    4.5182 H   0  0  0  0  0  0  0  0  0  0  0  0
   -0.7660    2.3801    2.6370 H   0  0  0  0  0  0  0  0  0  0  0  0
    1.0145    0.9737    4.6840 H   0  0  0  0  0  0  0  0  0  0  0  0
    1.3300    2.5484    3.9260 H   0  0  0  0  0  0  0  0  0  0  0  0
   -0.0664    2.3516    5.0011 H   0  0  0  0  0  0  0  0  0  0  0  0
   -0.0238    0.7652    0.6281 N   0  0  0  0  0  0  0  0  0  0  0  0
    0.7388    0.4491   -0.5917 C   0  0  2  0  0  0  0  0  0  0  0  0
    1.5981    1.6386   -1.0486 C   0  0  0  0  0  0  0  0  0  0  0  0
    2.5991    1.4422   -1.7209 O   0  0  0  0  0  0  0  0  0  0  0  0
   -0.2213    0.0264   -1.7096 C   0  0  0  0  0  0  0  0  0  0  0  0
   -0.9318   -1.2485   -1.3343 C   0  0  0  0  0  0  0  0  0  0  0  0
   -0.3690   -2.5247   -1.3437 N   0  3  0  0  0  0  0  0  0  0  0  0
   -2.2340   -1.3701   -0.9206 C   0  0  0  0  0  0  0  0  0  0  0  0
   -1.2529   -3.4115   -0.9558 C   0  0  0  0  0  0  0  0  0  0  0  0
   -2.4358   -2.7247   -0.6871 N   0  0  0  0  0  0  0  0  0  0  0  0
   -1.0237    0.9720    0.5709 H   0  0  0  0  0  0  0  0  0  0  0  0
    1.4272   -0.3777   -0.3827 H   0  0  0  0  0  0  0  0  0  0  0  0
    0.3356   -0.1221   -2.6420 H   0  0  0  0  0  0  0  0  0  0  0  0
   -0.9487    0.8259   -1.8891 H   0  0  0  0  0  0  0  0  0  0  0  0
    0.6087   -2.6994   -1.5941 H   0  0  0  0  0  0  0  0  0  0  0  0
   -2.9498   -0.5581   -0.7793 H   0  0  0  0  0  0  0  0  0  0  0  0
   -1.0896   -4.4863   -0.8576 H   0  0  0  0  0  0  0  0  0  0  0  0
   -3.3101   -3.1446   -0.3588 H   0  0  0  0  0  0  0  0  0  0  0  0
    1.1709    2.9223   -0.7785 N   0  0  0  0  0  0  0  0  0  0  0  0
    2.1165    4.0263   -0.5880 C   0  0  2  0  0  0  0  0  0  0  0  0
    2.0238    4.5342    0.8681 C   0  0  0  0  0  0  0  0  0  0  0  0
    1.0665    4.2054    1.5670 O   0  0  0  0  0  0  0  0  0  0  0  0
    1.7681    5.1341   -1.5839 C   0  0  0  0  0  0  0  0  0  0  0  0
    0.3860    2.9515   -0.1286 H   0  0  0  0  0  0  0  0  0  0  0  0
    3.1463    3.6959   -0.7640 H   0  0  0  0  0  0  0  0  0  0  0  0
    0.7458    5.4905   -1.4206 H   0  0  0  0  0  0  0  0  0  0  0  0
    2.4532    5.9802   -1.4736 H   0  0  0  0  0  0  0  0  0  0  0  0
    1.8470    4.7573   -2.6085 H   0  0  0  0  0  0  0  0  0  0  0  0
    3.0080    5.3438    1.4010 N   0  0  0  0  0  0  0  0  0  0  0  0
    2.9916    5.8211    2.7789 C   0  0  0  0  0  0  0  0  0  0  0  0
    3.8088    5.5641    0.8150 H   0  0  0  0  0  0  0  0  0  0  0  0
    2.0800    6.3954    2.9754 H   0  0  0  0  0  0  0  0  0  0  0  0
    3.0349    4.9785    3.4770 H   0  0  0  0  0  0  0  0  0  0  0  0
    3.8533    6.4696    2.9655 H   0  0  0  0  0  0  0  0  0  0  0  0
  1  2  2  0  0  0  0
  1  3  1  0  0  0  0
  1  7  1  0  0  0  0
  3  4  1  0  0  0  0
  3  5  1  0  0  0  0
  3  6  1  0  0  0  0
  7  8  1  0  0  0  0
  7 12  1  0  0  0  0
  8  9  1  0  0  0  0
  8 11  1  0  0  0  0
  8 13  1  0  0  0  0
  9 10  2  0  0  0  0
  9 17  1  0  0  0  0
 11 14  1  0  0  0  0
 11 15  1  0  0  0  0
 11 16  1  0  0  0  0
 17 18  1  0  0  0  0
 17 27  1  0  0  0  0
 18 19  1  0  0  0  0
 18 21  1  0  0  0  0
 18 28  1  0  0  0  0
 19 20  2  0  0  0  0
 19 35  1  0  0  0  0
 21 22  1  0  0  0  0
 21 29  1  0  0  0  0
 21 30  1  0  0  0  0
 22 23  1  0  0  0  0
 22 24  2  0  0  0  0
 23 25  2  0  0  0  0
 23 31  1  0  0  0  0
 24 26  1  0  0  0  0
 24 32  1  0  0  0  0
 25 26  1  0  0  0  0
 25 33  1  0  0  0  0
 26 34  1  0  0  0  0
 35 36  1  0  0  0  0
 35 40  1  0  0  0  0
 36 37  1  0  0  0  0
 36 39  1  0  0  0  0
 36 41  1  0  0  0  0
 37 38  2  0  0  0  0
 37 45  1  0  0  0  0
 39 42  1  0  0  0  0
 39 43  1  0  0  0  0
 39 44  1  0  0  0  0
 45 46  1  0  0  0  0
 45 47  1  0  0  0  0
 46 48  1  0  0  0  0
 46 49  1  0  0  0  0
 46 50  1  0  0  0  0
M  CHG  1  23   1
M  END
$$$$

  -OEChem-05262216443D

 50 50  0     1  0  0  0  0  0999 V2000
   -2.5585    0.1247    2.9180 C   0  0  0  0  0  0  0  0  0  0  0  0
   -2.6931    0.4736    1.7510 O   0  0  0  0  0  0  0  0  0  0  0  0
   -3.6710   -0.6400    3.6088 C   0  0  0  0  0  0  0  0  0  0  0  0
   -4.5214   -0.7661    2.9333 H   0  0  0  0  0  0  0  0  0  0  0  0
   -3.3144   -1.6258    3.9172 H   0  0  0  0  0  0  0  0  0  0  0  0
   -4.0061   -0.0904    4.4923 H   0  0  0  0  0  0  0  0  0  0  0  0
   -1.3842    0.3801    3.5973 N   0  0  0  0  0  0  0  0  0  0  0  0
   -0.3201    1.2797    3.1235 C   0  0  2  0  0  0  0  0  0  0  0  0
    0.4891    0.7178    1.9285 C   0  0  0  0  0  0  0  0  0  0  0  0
    1.6508    0.3469    2.0303 O   0  0  0  0  0  0  0  0  0  0  0  0
    0.5772    1.5981    4.3262 C   0  0  0  0  0  0  0  0  0  0  0  0
   -1.3435    0.0778    4.5676 H   0  0  0  0  0  0  0  0  0  0  0  0
   -0.7677    2.2234    2.7917 H   0  0  0  0  0  0  0  0  0  0  0  0
    1.0498    0.6881    4.7096 H   0  0  0  0  0  0  0  0  0  0  0  0
    1.3666    2.2986    4.0331 H   0  0  0  0  0  0  0  0  0  0  0  0
   -0.0056    2.0584    5.1297 H   0  0  0  0  0  0  0  0  0  0  0  0
   -0.0875    0.7162    0.6715 N   0  0  0  0  0  0  0  0  0  0  0  0
    0.6529    0.4722   -0.5800 C   0  0  2  0  0  0  0  0  0  0  0  0
    1.5060    1.6834   -0.9989 C   0  0  0  0  0  0  0  0  0  0  0  0
    2.3538    1.5585   -1.8702 O   0  0  0  0  0  0  0  0  0  0  0  0
   -0.3394    0.1226   -1.6967 C   0  0  0  0  0  0  0  0  0  0  0  0
   -1.0532   -1.1680   -1.3861 C   0  0  0  0  0  0  0  0  0  0  0  0
   -0.5092   -2.4485   -1.4874 N   0  3  0  0  0  0  0  0  0  0  0  0
   -2.3471   -1.2981   -0.9501 C   0  0  0  0  0  0  0  0  0  0  0  0
   -1.3970   -3.3460   -1.1338 C   0  0  0  0  0  0  0  0  0  0  0  0
   -2.5631   -2.6615   -0.7951 N   0  0  0  0  0  0  0  0  0  0  0  0
   -1.0865    0.9344    0.6443 H   0  0  0  0  0  0  0  0  0  0  0  0
    1.3421   -0.3671   -0.4359 H   0  0  0  0  0  0  0  0  0  0  0  0
    0.1923    0.0267   -2.6508 H   0  0  0  0  0  0  0  0  0  0  0  0
   -1.0628    0.9376   -1.8100 H   0  0  0  0  0  0  0  0  0  0  0  0
    0.4587   -2.6206   -1.7749 H   0  0  0  0  0  0  0  0  0  0  0  0
   -3.0465   -0.4861   -0.7426 H   0  0  0  0  0  0  0  0  0  0  0  0
   -1.2478   -4.4269   -1.1055 H   0  0  0  0  0  0  0  0  0  0  0  0
   -3.4356   -3.0884   -0.4712 H   0  0  0  0  0  0  0  0  0  0  0  0
    1.2760    2.9096   -0.4124 N   0  0  0  0  0  0  0  0  0  0  0  0
    2.3022    3.9452   -0.2794 C   0  0  2  0  0  0  0  0  0  0  0  0
    2.2961    4.4794    1.1708 C   0  0  0  0  0  0  0  0  0  0  0  0
    1.3902    4.1517    1.9360 O   0  0  0  0  0  0  0  0  0  0  0  0
    2.0062    5.0575   -1.2880 C   0  0  0  0  0  0  0  0  0  0  0  0
    0.6244    2.8766    0.3715 H   0  0  0  0  0  0  0  0  0  0  0  0
    3.2955    3.5277   -0.4783 H   0  0  0  0  0  0  0  0  0  0  0  0
    1.0228    5.4983   -1.0955 H   0  0  0  0  0  0  0  0  0  0  0  0
    2.7608    5.8474   -1.2244 H   0  0  0  0  0  0  0  0  0  0  0  0
    2.0149    4.6542   -2.3057 H   0  0  0  0  0  0  0  0  0  0  0  0
    3.3040    5.3063    1.6280 N   0  0  0  0  0  0  0  0  0  0  0  0
    3.3638    5.8167    2.9932 C   0  0  0  0  0  0  0  0  0  0  0  0
    4.0555    5.5377    0.9839 H   0  0  0  0  0  0  0  0  0  0  0  0
    2.4588    6.3862    3.2304 H   0  0  0  0  0  0  0  0  0  0  0  0
    3.4582    4.9918    3.7074 H   0  0  0  0  0  0  0  0  0  0  0  0
    4.2274    6.4782    3.1132 H   0  0  0  0  0  0  0  0  0  0  0  0
  1  2  2  0  0  0  0
  1  3  1  0  0  0  0
  1  7  1  0  0  0  0
  3  4  1  0  0  0  0
  3  5  1  0  0  0  0
  3  6  1  0  0  0  0
  7  8  1  0  0  0  0
  7 12  1  0  0  0  0
  8  9  1  0  0  0  0
  8 11  1  0  0  0  0
  8 13  1  0  0  0  0
  9 10  2  0  0  0  0
  9 17  1  0  0  0  0
 11 14  1  0  0  0  0
 11 15  1  0  0  0  0
 11 16  1  0  0  0  0
 17 18  1  0  0  0  0
 17 27  1  0  0  0  0
 18 19  1  0  0  0  0
 18 21  1  0  0  0  0
 18 28  1  0  0  0  0
 19 20  2  0  0  0  0
 19 35  1  0  0  0  0
 21 22  1  0  0  0  0
 21 29  1  0  0  0  0
 21 30  1  0  0  0  0
 22 23  1  0  0  0  0
 22 24  2  0  0  0  0
 23 25  2  0  0  0  0
 23 31  1  0  0  0  0
 24 26  1  0  0  0  0
 24 32  1  0  0  0  0
 25 26  1  0  0  0  0
 25 33  1  0  0  0  0
 26 34  1  0  0  0  0
 35 36  1  0  0  0  0
 35 40  1  0  0  0  0
 36 37  1  0  0  0  0
 36 39  1  0  0  0  0
 36 41  1  0  0  0  0
 37 38  2  0  0  0  0
 37 45  1  0  0  0  0
 39 42  1  0  0  0  0
 39 43  1  0  0  0  0
 39 44  1  0  0  0  0
 45 46  1  0  0  0  0
 45 47  1  0  0  0  0
 46 48  1  0  0  0  0
 46 49  1  0  0  0  0
 46 50  1  0  0  0  0
M  CHG  1  23   1
M  END
$$$$

  -OEChem-05262216443D

 50 50  0     1  0  0  0  0  0999 V2000
   -2.7984    0.1691    2.8807 C   0  0  0  0  0  0  0  0  0  0  0  0
   -2.8357    0.5168    1.7060 O   0  0  0  0  0  0  0  0  0  0  0  0
   -3.9987   -0.5156    3.5055 C   0  0  0  0  0  0  0  0  0  0  0  0
   -4.8257   -0.5582    2.7914 H   0  0  0  0  0  0  0  0  0  0  0  0
   -3.7363   -1.5331    3.8051 H   0  0  0  0  0  0  0  0  0  0  0  0
   -4.3278    0.0409    4.3871 H   0  0  0  0  0  0  0  0  0  0  0  0
   -1.6547    0.3570    3.6304 N   0  0  0  0  0  0  0  0  0  0  0  0
   -0.5138    1.1872    3.2149 C   0  0  2  0  0  0  0  0  0  0  0  0
    0.3331    0.5616    2.0796 C   0  0  0  0  0  0  0  0  0  0  0  0
    1.4563    0.1130    2.2604 O   0  0  0  0  0  0  0  0  0  0  0  0
    0.3242    1.4782    4.4662 C   0  0  0  0  0  0  0  0  0  0  0  0
   -1.6908    0.0601    4.6028 H   0  0  0  0  0  0  0  0  0  0  0  0
   -0.8877    2.1478    2.8435 H   0  0  0  0  0  0  0  0  0  0  0  0
    0.7229    0.5511    4.8909 H   0  0  0  0  0  0  0  0  0  0  0  0
    1.1662    2.1319    4.2133 H   0  0  0  0  0  0  0  0  0  0  0  0
   -0.2812    1.9811    5.2262 H   0  0  0  0  0  0  0  0  0  0  0  0
   -0.1396    0.6235    0.7823 N   0  0  0  0  0  0  0  0  0  0  0  0
    0.6718    0.3498   -0.4191 C   0  0  2  0  0  0  0  0  0  0  0  0
    1.6471    1.4947   -0.7654 C   0  0  0  0  0  0  0  0  0  0  0  0
    2.3446    1.4151   -1.7665 O   0  0  0  0  0  0  0  0  0  0  0  0
   -0.2778    0.0813   -1.5978 C   0  0  0  0  0  0  0  0  0  0  0  0
   -1.0934   -1.1631   -1.3533 C   0  0  0  0  0  0  0  0  0  0  0  0
   -0.6273   -2.4743   -1.4489 N   0  3  0  0  0  0  0  0  0  0  0  0
   -2.4166   -1.2171   -0.9958 C   0  0  0  0  0  0  0  0  0  0  0  0
   -1.5897   -3.3188   -1.1685 C   0  0  0  0  0  0  0  0  0  0  0  0
   -2.7277   -2.5664   -0.8824 N   0  0  0  0  0  0  0  0  0  0  0  0
   -1.1090    0.9334    0.6822 H   0  0  0  0  0  0  0  0  0  0  0  0
    1.2858   -0.5404   -0.2444 H   0  0  0  0  0  0  0  0  0  0  0  0
    0.2948   -0.0387   -2.5250 H   0  0  0  0  0  0  0  0  0  0  0  0
   -0.9366    0.9455   -1.7362 H   0  0  0  0  0  0  0  0  0  0  0  0
    0.3408   -2.7039   -1.6915 H   0  0  0  0  0  0  0  0  0  0  0  0
   -3.0746   -0.3654   -0.8133 H   0  0  0  0  0  0  0  0  0  0  0  0
   -1.5119   -4.4074   -1.1588 H   0  0  0  0  0  0  0  0  0  0  0  0
   -3.6442   -2.9419   -0.6227 H   0  0  0  0  0  0  0  0  0  0  0  0
    1.6913    2.6258    0.0218 N   0  0  0  0  0  0  0  0  0  0  0  0
    2.7213    3.6654   -0.0323 C   0  0  2  0  0  0  0  0  0  0  0  0
    2.8447    4.3408    1.3523 C   0  0  0  0  0  0  0  0  0  0  0  0
    2.0172    4.0919    2.2268 O   0  0  0  0  0  0  0  0  0  0  0  0
    2.3447    4.6901   -1.1079 C   0  0  0  0  0  0  0  0  0  0  0  0
    1.1912    2.5634    0.9081 H   0  0  0  0  0  0  0  0  0  0  0  0
    3.6896    3.2155   -0.2766 H   0  0  0  0  0  0  0  0  0  0  0  0
    1.3806    5.1532   -0.8742 H   0  0  0  0  0  0  0  0  0  0  0  0
    3.1023    5.4766   -1.1726 H   0  0  0  0  0  0  0  0  0  0  0  0
    2.2708    4.2058   -2.0866 H   0  0  0  0  0  0  0  0  0  0  0  0
    3.8779    5.2172    1.6255 N   0  0  0  0  0  0  0  0  0  0  0  0
    4.0437    5.8824    2.9133 C   0  0  0  0  0  0  0  0  0  0  0  0
    4.5559    5.3950    0.8897 H   0  0  0  0  0  0  0  0  0  0  0  0
    3.1711    6.5045    3.1395 H   0  0  0  0  0  0  0  0  0  0  0  0
    4.1666    5.1446    3.7134 H   0  0  0  0  0  0  0  0  0  0  0  0
    4.9296    6.5249    2.8978 H   0  0  0  0  0  0  0  0  0  0  0  0
  1  2  2  0  0  0  0
  1  3  1  0  0  0  0
  1  7  1  0  0  0  0
  3  4  1  0  0  0  0
  3  5  1  0  0  0  0
  3  6  1  0  0  0  0
  7  8  1  0  0  0  0
  7 12  1  0  0  0  0
  8  9  1  0  0  0  0
  8 11  1  0  0  0  0
  8 13  1  0  0  0  0
  9 10  2  0  0  0  0
  9 17  1  0  0  0  0
 11 14  1  0  0  0  0
 11 15  1  0  0  0  0
 11 16  1  0  0  0  0
 17 18  1  0  0  0  0
 17 27  1  0  0  0  0
 18 19  1  0  0  0  0
 18 21  1  0  0  0  0
 18 28  1  0  0  0  0
 19 20  2  0  0  0  0
 19 35  1  0  0  0  0
 21 22  1  0  0  0  0
 21 29  1  0  0  0  0
 21 30  1  0  0  0  0
 22 23  1  0  0  0  0
 22 24  2  0  0  0  0
 23 25  2  0  0  0  0
 23 31  1  0  0  0  0
 24 26  1  0  0  0  0
 24 32  1  0  0  0  0
 25 26  1  0  0  0  0
 25 33  1  0  0  0  0
 26 34  1  0  0  0  0
 35 36  1  0  0  0  0
 35 40  1  0  0  0  0
 36 37  1  0  0  0  0
 36 39  1  0  0  0  0
 36 41  1  0  0  0  0
 37 38  2  0  0  0  0
 37 45  1  0  0  0  0
 39 42  1  0  0  0  0
 39 43  1  0  0  0  0
 39 44  1  0  0  0  0
 45 46  1  0  0  0  0
 45 47  1  0  0  0  0
 46 48  1  0  0  0  0
 46 49  1  0  0  0  0
 46 50  1  0  0  0  0
M  CHG  1  23   1
M  END
$$$$

  -OEChem-05262216443D

 50 50  0     1  0  0  0  0  0999 V2000
   -3.3200    0.0364    2.4551 C   0  0  0  0  0  0  0  0  0  0  0  0
   -3.1717    0.3398    1.2779 O   0  0  0  0  0  0  0  0  0  0  0  0
   -4.4629   -0.8726    2.8642 C   0  0  0  0  0  0  0  0  0  0  0  0
   -5.0875   -1.1100    1.9987 H   0  0  0  0  0  0  0  0  0  0  0  0
   -4.0715   -1.8022    3.2852 H   0  0  0  0  0  0  0  0  0  0  0  0
   -5.0830   -0.3760    3.6149 H   0  0  0  0  0  0  0  0  0  0  0  0
   -2.4213    0.4767    3.4049 N   0  0  0  0  0  0  0  0  0  0  0  0
   -1.4078    1.5165    3.1697 C   0  0  2  0  0  0  0  0  0  0  0  0
   -0.2084    1.0392    2.3137 C   0  0  0  0  0  0  0  0  0  0  0  0
    0.9184    0.9177    2.7689 O   0  0  0  0  0  0  0  0  0  0  0  0
   -0.9673    2.0384    4.5435 C   0  0  0  0  0  0  0  0  0  0  0  0
   -2.6044    0.2062    4.3686 H   0  0  0  0  0  0  0  0  0  0  0  0
   -1.8710    2.3515    2.6325 H   0  0  0  0  0  0  0  0  0  0  0  0
   -0.5004    1.2394    5.1293 H   0  0  0  0  0  0  0  0  0  0  0  0
   -0.2391    2.8483    4.4272 H   0  0  0  0  0  0  0  0  0  0  0  0
   -1.8252    2.4271    5.1007 H   0  0  0  0  0  0  0  0  0  0  0  0
   -0.3731    0.8617    0.9548 N   0  0  0  0  0  0  0  0  0  0  0  0
    0.7044    0.5344    0.0005 C   0  0  2  0  0  0  0  0  0  0  0  0
    1.6345    1.7268   -0.3361 C   0  0  0  0  0  0  0  0  0  0  0  0
    2.2740    1.7056   -1.3802 O   0  0  0  0  0  0  0  0  0  0  0  0
    0.0661   -0.0580   -1.2715 C   0  0  0  0  0  0  0  0  0  0  0  0
   -0.6311   -1.3611   -0.9743 C   0  0  0  0  0  0  0  0  0  0  0  0
   -0.0025   -2.5847   -0.7434 N   0  3  0  0  0  0  0  0  0  0  0  0
   -1.9845   -1.5715   -0.9114 C   0  0  0  0  0  0  0  0  0  0  0  0
   -0.8956   -3.5219   -0.5371 C   0  0  0  0  0  0  0  0  0  0  0  0
   -2.1504   -2.9229   -0.6344 N   0  0  0  0  0  0  0  0  0  0  0  0
   -1.3381    0.9213    0.6218 H   0  0  0  0  0  0  0  0  0  0  0  0
    1.3504   -0.2260    0.4516 H   0  0  0  0  0  0  0  0  0  0  0  0
    0.8320   -0.2380   -2.0346 H   0  0  0  0  0  0  0  0  0  0  0  0
   -0.6401    0.6663   -1.6915 H   0  0  0  0  0  0  0  0  0  0  0  0
    1.0157   -2.6938   -0.7379 H   0  0  0  0  0  0  0  0  0  0  0  0
   -2.7641   -0.8179   -1.0362 H   0  0  0  0  0  0  0  0  0  0  0  0
   -0.6923   -4.5741   -0.3297 H   0  0  0  0  0  0  0  0  0  0  0  0
   -3.0509   -3.3982   -0.5263 H   0  0  0  0  0  0  0  0  0  0  0  0
    1.6426    2.8701    0.4407 N   0  0  0  0  0  0  0  0  0  0  0  0
    2.5464    4.0039    0.1920 C   0  0  2  0  0  0  0  0  0  0  0  0
    3.8168    3.9313    1.0629 C   0  0  0  0  0  0  0  0  0  0  0  0
    3.7481    3.4947    2.2044 O   0  0  0  0  0  0  0  0  0  0  0  0
    1.7714    5.2896    0.4900 C   0  0  0  0  0  0  0  0  0  0  0  0
    1.4052    2.6977    1.4193 H   0  0  0  0  0  0  0  0  0  0  0  0
    2.8563    4.0266   -0.8577 H   0  0  0  0  0  0  0  0  0  0  0  0
    1.4556    5.3138    1.5383 H   0  0  0  0  0  0  0  0  0  0  0  0
    2.3981    6.1660    0.2968 H   0  0  0  0  0  0  0  0  0  0  0  0
    0.8824    5.3529   -0.1450 H   0  0  0  0  0  0  0  0  0  0  0  0
    5.0264    4.4008    0.5859 N   0  0  0  0  0  0  0  0  0  0  0  0
    6.2616    4.3543    1.3604 C   0  0  0  0  0  0  0  0  0  0  0  0
    5.0634    4.7175   -0.3785 H   0  0  0  0  0  0  0  0  0  0  0  0
    6.1533    4.9215    2.2912 H   0  0  0  0  0  0  0  0  0  0  0  0
    6.5200    3.3191    1.6075 H   0  0  0  0  0  0  0  0  0  0  0  0
    7.0862    4.7888    0.7867 H   0  0  0  0  0  0  0  0  0  0  0  0
  1  2  2  0  0  0  0
  1  3  1  0  0  0  0
  1  7  1  0  0  0  0
  3  4  1  0  0  0  0
  3  5  1  0  0  0  0
  3  6  1  0  0  0  0
  7  8  1  0  0  0  0
  7 12  1  0  0  0  0
  8  9  1  0  0  0  0
  8 11  1  0  0  0  0
  8 13  1  0  0  0  0
  9 10  2  0  0  0  0
  9 17  1  0  0  0  0
 11 14  1  0  0  0  0
 11 15  1  0  0  0  0
 11 16  1  0  0  0  0
 17 18  1  0  0  0  0
 17 27  1  0  0  0  0
 18 19  1  0  0  0  0
 18 21  1  0  0  0  0
 18 28  1  0  0  0  0
 19 20  2  0  0  0  0
 19 35  1  0  0  0  0
 21 22  1  0  0  0  0
 21 29  1  0  0  0  0
 21 30  1  0  0  0  0
 22 23  1  0  0  0  0
 22 24  2  0  0  0  0
 23 25  2  0  0  0  0
 23 31  1  0  0  0  0
 24 26  1  0  0  0  0
 24 32  1  0  0  0  0
 25 26  1  0  0  0  0
 25 33  1  0  0  0  0
 26 34  1  0  0  0  0
 35 36  1  0  0  0  0
 35 40  1  0  0  0  0
 36 37  1  0  0  0  0
 36 39  1  0  0  0  0
 36 41  1  0  0  0  0
 37 38  2  0  0  0  0
 37 45  1  0  0  0  0
 39 42  1  0  0  0  0
 39 43  1  0  0  0  0
 39 44  1  0  0  0  0
 45 46  1  0  0  0  0
 45 47  1  0  0  0  0
 46 48  1  0  0  0  0
 46 49  1  0  0  0  0
 46 50  1  0  0  0  0
M  CHG  1  23   1
M  END
$$$$

  -OEChem-05262216443D

 50 50  0     1  0  0  0  0  0999 V2000
   -2.8237   -0.6955    2.9922 C   0  0  0  0  0  0  0  0  0  0  0  0
   -2.9627   -0.8151    1.7802 O   0  0  0  0  0  0  0  0  0  0  0  0
   -3.0371   -1.8874    3.9051 C   0  0  0  0  0  0  0  0  0  0  0  0
   -3.3798   -2.7506    3.3288 H   0  0  0  0  0  0  0  0  0  0  0  0
   -2.1007   -2.1455    4.4061 H   0  0  0  0  0  0  0  0  0  0  0  0
   -3.7903   -1.6495    4.6605 H   0  0  0  0  0  0  0  0  0  0  0  0
   -2.4212    0.5112    3.5250 N   0  0  0  0  0  0  0  0  0  0  0  0
   -2.0725    1.6803    2.7104 C   0  0  2  0  0  0  0  0  0  0  0  0
   -0.7226    1.4930    1.9844 C   0  0  0  0  0  0  0  0  0  0  0  0
    0.3348    1.5169    2.5975 O   0  0  0  0  0  0  0  0  0  0  0  0
   -2.0470    2.9057    3.6290 C   0  0  0  0  0  0  0  0  0  0  0  0
   -2.1866    0.5275    4.5153 H   0  0  0  0  0  0  0  0  0  0  0  0
   -2.8488    1.8431    1.9553 H   0  0  0  0  0  0  0  0  0  0  0  0
   -1.2950    2.7852    4.4159 H   0  0  0  0  0  0  0  0  0  0  0  0
   -1.8044    3.8061    3.0556 H   0  0  0  0  0  0  0  0  0  0  0  0
   -3.0246    3.0494    4.1002 H   0  0  0  0  0  0  0  0  0  0  0  0
   -0.6999    1.2692    0.6204 N   0  0  0  0  0  0  0  0  0  0  0  0
    0.4928    0.8614   -0.1519 C   0  0  2  0  0  0  0  0  0  0  0  0
    1.5263    1.9887   -0.3967 C   0  0  0  0  0  0  0  0  0  0  0  0
    2.1638    2.0131   -1.4425 O   0  0  0  0  0  0  0  0  0  0  0  0
    0.0277    0.1988   -1.4652 C   0  0  0  0  0  0  0  0  0  0  0  0
   -0.7353   -1.0660   -1.1639 C   0  0  0  0  0  0  0  0  0  0  0  0
   -0.1740   -2.2759   -0.7546 N   0  3  0  0  0  0  0  0  0  0  0  0
   -2.0932   -1.2438   -1.2405 C   0  0  0  0  0  0  0  0  0  0  0  0
   -1.1161   -3.1606   -0.5363 C   0  0  0  0  0  0  0  0  0  0  0  0
   -2.3319   -2.5502   -0.8348 N   0  0  0  0  0  0  0  0  0  0  0  0
   -1.6117    1.1442    0.1895 H   0  0  0  0  0  0  0  0  0  0  0  0
    1.0348    0.1105    0.4332 H   0  0  0  0  0  0  0  0  0  0  0  0
    0.8888   -0.0505   -2.0963 H   0  0  0  0  0  0  0  0  0  0  0  0
   -0.5925    0.9027   -2.0305 H   0  0  0  0  0  0  0  0  0  0  0  0
    0.8312   -2.4002   -0.6040 H   0  0  0  0  0  0  0  0  0  0  0  0
   -2.8368   -0.4989   -1.5218 H   0  0  0  0  0  0  0  0  0  0  0  0
   -0.9761   -4.1810   -0.1763 H   0  0  0  0  0  0  0  0  0  0  0  0
   -3.2585   -2.9623   -0.6933 H   0  0  0  0  0  0  0  0  0  0  0  0
    1.6811    3.0146    0.5144 N   0  0  0  0  0  0  0  0  0  0  0  0
    2.8603    3.8908    0.4742 C   0  0  2  0  0  0  0  0  0  0  0  0
    4.1427    3.1859    0.9761 C   0  0  0  0  0  0  0  0  0  0  0  0
    4.0733    2.1562    1.6377 O   0  0  0  0  0  0  0  0  0  0  0  0
    2.5518    5.1147    1.3396 C   0  0  0  0  0  0  0  0  0  0  0  0
    1.3394    2.7660    1.4464 H   0  0  0  0  0  0  0  0  0  0  0  0
    3.0372    4.2247   -0.5538 H   0  0  0  0  0  0  0  0  0  0  0  0
    2.3876    4.8153    2.3801 H   0  0  0  0  0  0  0  0  0  0  0  0
    3.3836    5.8252    1.3104 H   0  0  0  0  0  0  0  0  0  0  0  0
    1.6526    5.6214    0.9754 H   0  0  0  0  0  0  0  0  0  0  0  0
    5.3872    3.7202    0.6974 N   0  0  0  0  0  0  0  0  0  0  0  0
    6.6363    3.1007    1.1253 C   0  0  0  0  0  0  0  0  0  0  0  0
    5.4255    4.5453    0.1065 H   0  0  0  0  0  0  0  0  0  0  0  0
    6.6642    3.0073    2.2162 H   0  0  0  0  0  0  0  0  0  0  0  0
    6.7401    2.1038    0.6840 H   0  0  0  0  0  0  0  0  0  0  0  0
    7.4896    3.7093    0.8105 H   0  0  0  0  0  0  0  0  0  0  0  0
  1  2  2  0  0  0  0
  1  3  1  0  0  0  0
  1  7  1  0  0  0  0
  3  4  1  0  0  0  0
  3  5  1  0  0  0  0
  3  6  1  0  0  0  0
  7  8  1  0  0  0  0
  7 12  1  0  0  0  0
  8  9  1  0  0  0  0
  8 11  1  0  0  0  0
  8 13  1  0  0  0  0
  9 10  2  0  0  0  0
  9 17  1  0  0  0  0
 11 14  1  0  0  0  0
 11 15  1  0  0  0  0
 11 16  1  0  0  0  0
 17 18  1  0  0  0  0
 17 27  1  0  0  0  0
 18 19  1  0  0  0  0
 18 21  1  0  0  0  0
 18 28  1  0  0  0  0
 19 20  2  0  0  0  0
 19 35  1  0  0  0  0
 21 22  1  0  0  0  0
 21 29  1  0  0  0  0
 21 30  1  0  0  0  0
 22 23  1  0  0  0  0
 22 24  2  0  0  0  0
 23 25  2  0  0  0  0
 23 31  1  0  0  0  0
 24 26  1  0  0  0  0
 24 32  1  0  0  0  0
 25 26  1  0  0  0  0
 25 33  1  0  0  0  0
 26 34  1  0  0  0  0
 35 36  1  0  0  0  0
 35 40  1  0  0  0  0
 36 37  1  0  0  0  0
 36 39  1  0  0  0  0
 36 41  1  0  0  0  0
 37 38  2  0  0  0  0
 37 45  1  0  0  0  0
 39 42  1  0  0  0  0
 39 43  1  0  0  0  0
 39 44  1  0  0  0  0
 45 46  1  0  0  0  0
 45 47  1  0  0  0  0
 46 48  1  0  0  0  0
 46 49  1  0  0  0  0
 46 50  1  0  0  0  0
M  CHG  1  23   1
M  END
$$$$

  -OEChem-05262216443D

 50 50  0     1  0  0  0  0  0999 V2000
   -2.8068   -0.6979    2.9886 C   0  0  0  0  0  0  0  0  0  0  0  0
   -2.9439   -0.7928    1.7744 O   0  0  0  0  0  0  0  0  0  0  0  0
   -3.0196   -1.9096    3.8755 C   0  0  0  0  0  0  0  0  0  0  0  0
   -3.3743   -2.7569    3.2829 H   0  0  0  0  0  0  0  0  0  0  0  0
   -2.0803   -2.1861    4.3609 H   0  0  0  0  0  0  0  0  0  0  0  0
   -3.7636   -1.6844    4.6439 H   0  0  0  0  0  0  0  0  0  0  0  0
   -2.4076    0.4982    3.5473 N   0  0  0  0  0  0  0  0  0  0  0  0
   -2.0696    1.6896    2.7600 C   0  0  2  0  0  0  0  0  0  0  0  0
   -0.7265    1.5263    2.0138 C   0  0  0  0  0  0  0  0  0  0  0  0
    0.3391    1.5453    2.6155 O   0  0  0  0  0  0  0  0  0  0  0  0
   -2.0400    2.8906    3.7109 C   0  0  0  0  0  0  0  0  0  0  0  0
   -2.1838    0.4972    4.5402 H   0  0  0  0  0  0  0  0  0  0  0  0
   -2.8544    1.8700    2.0175 H   0  0  0  0  0  0  0  0  0  0  0  0
   -1.2789    2.7539    4.4865 H   0  0  0  0  0  0  0  0  0  0  0  0
   -1.8087    3.8073    3.1590 H   0  0  0  0  0  0  0  0  0  0  0  0
   -3.0131    3.0168    4.1958 H   0  0  0  0  0  0  0  0  0  0  0  0
   -0.7242    1.3130    0.6472 N   0  0  0  0  0  0  0  0  0  0  0  0
    0.4650    0.9738   -0.1605 C   0  0  2  0  0  0  0  0  0  0  0  0
    1.4268    2.1575   -0.4206 C   0  0  0  0  0  0  0  0  0  0  0  0
    1.9011    2.3359   -1.5361 O   0  0  0  0  0  0  0  0  0  0  0  0
    0.0070    0.2934   -1.4660 C   0  0  0  0  0  0  0  0  0  0  0  0
   -0.6766   -1.0147   -1.1593 C   0  0  0  0  0  0  0  0  0  0  0  0
   -0.0379   -2.1937   -0.7735 N   0  3  0  0  0  0  0  0  0  0  0  0
   -2.0234   -1.2689   -1.2061 C   0  0  0  0  0  0  0  0  0  0  0  0
   -0.9225   -3.1340   -0.5463 C   0  0  0  0  0  0  0  0  0  0  0  0
   -2.1778   -2.5910   -0.8110 N   0  0  0  0  0  0  0  0  0  0  0  0
   -1.6406    1.1940    0.2242 H   0  0  0  0  0  0  0  0  0  0  0  0
    1.0622    0.2488    0.4034 H   0  0  0  0  0  0  0  0  0  0  0  0
    0.8666    0.1004   -2.1184 H   0  0  0  0  0  0  0  0  0  0  0  0
   -0.6652    0.9647   -2.0109 H   0  0  0  0  0  0  0  0  0  0  0  0
    0.9762   -2.2620   -0.6488 H   0  0  0  0  0  0  0  0  0  0  0  0
   -2.8140   -0.5637   -1.4600 H   0  0  0  0  0  0  0  0  0  0  0  0
   -0.7154   -4.1491   -0.2039 H   0  0  0  0  0  0  0  0  0  0  0  0
   -3.0761   -3.0586   -0.6607 H   0  0  0  0  0  0  0  0  0  0  0  0
    1.7772    3.0051    0.6106 N   0  0  0  0  0  0  0  0  0  0  0  0
    3.0365    3.7598    0.5656 C   0  0  2  0  0  0  0  0  0  0  0  0
    4.2770    2.8535    0.7568 C   0  0  0  0  0  0  0  0  0  0  0  0
    4.1574    1.6978    1.1520 O   0  0  0  0  0  0  0  0  0  0  0  0
    2.9709    4.8206    1.6673 C   0  0  0  0  0  0  0  0  0  0  0  0
    1.4953    2.6536    1.5299 H   0  0  0  0  0  0  0  0  0  0  0  0
    3.1310    4.2636   -0.4024 H   0  0  0  0  0  0  0  0  0  0  0  0
    2.8983    4.3460    2.6516 H   0  0  0  0  0  0  0  0  0  0  0  0
    3.8662    5.4494    1.6506 H   0  0  0  0  0  0  0  0  0  0  0  0
    2.0961    5.4628    1.5243 H   0  0  0  0  0  0  0  0  0  0  0  0
    5.5423    3.3394    0.4834 N   0  0  0  0  0  0  0  0  0  0  0  0
    6.7546    2.5406    0.6229 C   0  0  0  0  0  0  0  0  0  0  0  0
    5.6168    4.2849    0.1198 H   0  0  0  0  0  0  0  0  0  0  0  0
    6.8617    2.1824    1.6523 H   0  0  0  0  0  0  0  0  0  0  0  0
    6.7234    1.6767   -0.0494 H   0  0  0  0  0  0  0  0  0  0  0  0
    7.6353    3.1408    0.3741 H   0  0  0  0  0  0  0  0  0  0  0  0
  1  2  2  0  0  0  0
  1  3  1  0  0  0  0
  1  7  1  0  0  0  0
  3  4  1  0  0  0  0
  3  5  1  0  0  0  0
  3  6  1  0  0  0  0
  7  8  1  0  0  0  0
  7 12  1  0  0  0  0
  8  9  1  0  0  0  0
  8 11  1  0  0  0  0
  8 13  1  0  0  0  0
  9 10  2  0  0  0  0
  9 17  1  0  0  0  0
 11 14  1  0  0  0  0
 11 15  1  0  0  0  0
 11 16  1  0  0  0  0
 17 18  1  0  0  0  0
 17 27  1  0  0  0  0
 18 19  1  0  0  0  0
 18 21  1  0  0  0  0
 18 28  1  0  0  0  0
 19 20  2  0  0  0  0
 19 35  1  0  0  0  0
 21 22  1  0  0  0  0
 21 29  1  0  0  0  0
 21 30  1  0  0  0  0
 22 23  1  0  0  0  0
 22 24  2  0  0  0  0
 23 25  2  0  0  0  0
 23 31  1  0  0  0  0
 24 26  1  0  0  0  0
 24 32  1  0  0  0  0
 25 26  1  0  0  0  0
 25 33  1  0  0  0  0
 26 34  1  0  0  0  0
 35 36  1  0  0  0  0
 35 40  1  0  0  0  0
 36 37  1  0  0  0  0
 36 39  1  0  0  0  0
 36 41  1  0  0  0  0
 37 38  2  0  0  0  0
 37 45  1  0  0  0  0
 39 42  1  0  0  0  0
 39 43  1  0  0  0  0
 39 44  1  0  0  0  0
 45 46  1  0  0  0  0
 45 47  1  0  0  0  0
 46 48  1  0  0  0  0
 46 49  1  0  0  0  0
 46 50  1  0  0  0  0
M  CHG  1  23   1
M  END
$$$$

  -OEChem-05262216443D

 50 50  0     1  0  0  0  0  0999 V2000
   -2.8000   -0.7039    2.9455 C   0  0  0  0  0  0  0  0  0  0  0  0
   -2.9324   -0.7271    1.7276 O   0  0  0  0  0  0  0  0  0  0  0  0
   -3.0560   -1.9556    3.7628 C   0  0  0  0  0  0  0  0  0  0  0  0
   -3.4181   -2.7620    3.1196 H   0  0  0  0  0  0  0  0  0  0  0  0
   -2.1333   -2.2796    4.2510 H   0  0  0  0  0  0  0  0  0  0  0  0
   -3.8101   -1.7527    4.5276 H   0  0  0  0  0  0  0  0  0  0  0  0
   -2.3741    0.4485    3.5721 N   0  0  0  0  0  0  0  0  0  0  0  0
   -2.0404    1.6890    2.8620 C   0  0  2  0  0  0  0  0  0  0  0  0
   -0.7129    1.5738    2.0800 C   0  0  0  0  0  0  0  0  0  0  0  0
    0.3694    1.6192    2.6517 O   0  0  0  0  0  0  0  0  0  0  0  0
   -1.9881    2.8227    3.8917 C   0  0  0  0  0  0  0  0  0  0  0  0
   -2.1746    0.3932    4.5684 H   0  0  0  0  0  0  0  0  0  0  0  0
   -2.8368    1.9243    2.1477 H   0  0  0  0  0  0  0  0  0  0  0  0
   -1.2186    2.6280    4.6463 H   0  0  0  0  0  0  0  0  0  0  0  0
   -1.7551    3.7720    3.3987 H   0  0  0  0  0  0  0  0  0  0  0  0
   -2.9539    2.9256    4.3967 H   0  0  0  0  0  0  0  0  0  0  0  0
   -0.7432    1.3807    0.7109 N   0  0  0  0  0  0  0  0  0  0  0  0
    0.4414    1.1350   -0.1338 C   0  0  2  0  0  0  0  0  0  0  0  0
    1.3054    2.3886   -0.3965 C   0  0  0  0  0  0  0  0  0  0  0  0
    1.6184    2.7050   -1.5382 O   0  0  0  0  0  0  0  0  0  0  0  0
    0.0067    0.4435   -1.4399 C   0  0  0  0  0  0  0  0  0  0  0  0
   -0.5732   -0.9138   -1.1380 C   0  0  0  0  0  0  0  0  0  0  0  0
    0.1611   -2.0456   -0.7831 N   0  3  0  0  0  0  0  0  0  0  0  0
   -1.8977   -1.2672   -1.1607 C   0  0  0  0  0  0  0  0  0  0  0  0
   -0.6456   -3.0529   -0.5523 C   0  0  0  0  0  0  0  0  0  0  0  0
   -1.9439   -2.6024   -0.7832 N   0  0  0  0  0  0  0  0  0  0  0  0
   -1.6650    1.2228    0.3114 H   0  0  0  0  0  0  0  0  0  0  0  0
    1.1047    0.4451    0.3997 H   0  0  0  0  0  0  0  0  0  0  0  0
    0.8655    0.3253   -2.1111 H   0  0  0  0  0  0  0  0  0  0  0  0
   -0.7246    1.0717   -1.9600 H   0  0  0  0  0  0  0  0  0  0  0  0
    1.1800   -2.0362   -0.6767 H   0  0  0  0  0  0  0  0  0  0  0  0
   -2.7444   -0.6191   -1.3850 H   0  0  0  0  0  0  0  0  0  0  0  0
   -0.3550   -4.0540   -0.2298 H   0  0  0  0  0  0  0  0  0  0  0  0
   -2.8018   -3.1402   -0.6313 H   0  0  0  0  0  0  0  0  0  0  0  0
    1.8675    3.0515    0.6750 N   0  0  0  0  0  0  0  0  0  0  0  0
    3.2084    3.6373    0.5530 C   0  0  2  0  0  0  0  0  0  0  0  0
    4.3130    2.5551    0.4506 C   0  0  0  0  0  0  0  0  0  0  0  0
    4.0581    1.3708    0.6582 O   0  0  0  0  0  0  0  0  0  0  0  0
    3.4341    4.5238    1.7802 C   0  0  0  0  0  0  0  0  0  0  0  0
    1.6463    2.6169    1.5754 H   0  0  0  0  0  0  0  0  0  0  0  0
    3.2584    4.2620   -0.3456 H   0  0  0  0  0  0  0  0  0  0  0  0
    3.4176    3.9226    2.6954 H   0  0  0  0  0  0  0  0  0  0  0  0
    4.4011    5.0320    1.7158 H   0  0  0  0  0  0  0  0  0  0  0  0
    2.6497    5.2842    1.8485 H   0  0  0  0  0  0  0  0  0  0  0  0
    5.6072    2.9098    0.1178 N   0  0  0  0  0  0  0  0  0  0  0  0
    6.6992    1.9493    0.0040 C   0  0  0  0  0  0  0  0  0  0  0  0
    5.7894    3.8870   -0.0925 H   0  0  0  0  0  0  0  0  0  0  0  0
    6.8301    1.4040    0.9450 H   0  0  0  0  0  0  0  0  0  0  0  0
    6.4954    1.2294   -0.7957 H   0  0  0  0  0  0  0  0  0  0  0  0
    7.6360    2.4659   -0.2267 H   0  0  0  0  0  0  0  0  0  0  0  0
  1  2  2  0  0  0  0
  1  3  1  0  0  0  0
  1  7  1  0  0  0  0
  3  4  1  0  0  0  0
  3  5  1  0  0  0  0
  3  6  1  0  0  0  0
  7  8  1  0  0  0  0
  7 12  1  0  0  0  0
  8  9  1  0  0  0  0
  8 11  1  0  0  0  0
  8 13  1  0  0  0  0
  9 10  2  0  0  0  0
  9 17  1  0  0  0  0
 11 14  1  0  0  0  0
 11 15  1  0  0  0  0
 11 16  1  0  0  0  0
 17 18  1  0  0  0  0
 17 27  1  0  0  0  0
 18 19  1  0  0  0  0
 18 21  1  0  0  0  0
 18 28  1  0  0  0  0
 19 20  2  0  0  0  0
 19 35  1  0  0  0  0
 21 22  1  0  0  0  0
 21 29  1  0  0  0  0
 21 30  1  0  0  0  0
 22 23  1  0  0  0  0
 22 24  2  0  0  0  0
 23 25  2  0  0  0  0
 23 31  1  0  0  0  0
 24 26  1  0  0  0  0
 24 32  1  0  0  0  0
 25 26  1  0  0  0  0
 25 33  1  0  0  0  0
 26 34  1  0  0  0  0
 35 36  1  0  0  0  0
 35 40  1  0  0  0  0
 36 37  1  0  0  0  0
 36 39  1  0  0  0  0
 36 41  1  0  0  0  0
 37 38  2  0  0  0  0
 37 45  1  0  0  0  0
 39 42  1  0  0  0  0
 39 43  1  0  0  0  0
 39 44  1  0  0  0  0
 45 46  1  0  0  0  0
 45 47  1  0  0  0  0
 46 48  1  0  0  0  0
 46 49  1  0  0  0  0
 46 50  1  0  0  0  0
M  CHG  1  23   1
M  END
$$$$

  -OEChem-05262216443D

 50 50  0     1  0  0  0  0  0999 V2000
   -2.8360   -0.6772    2.8613 C   0  0  0  0  0  0  0  0  0  0  0  0
   -2.9425   -0.5833    1.6445 O   0  0  0  0  0  0  0  0  0  0  0  0
   -3.1941   -1.9745    3.5603 C   0  0  0  0  0  0  0  0  0  0  0  0
   -3.5928   -2.6957    2.8422 H   0  0  0  0  0  0  0  0  0  0  0  0
   -2.3068   -2.4007    4.0353 H   0  0  0  0  0  0  0  0  0  0  0  0
   -3.9521   -1.7877    4.3254 H   0  0  0  0  0  0  0  0  0  0  0  0
   -2.3445    0.3815    3.5954 N   0  0  0  0  0  0  0  0  0  0  0  0
   -1.9734    1.6790    3.0182 C   0  0  2  0  0  0  0  0  0  0  0  0
   -0.6661    1.6061    2.1963 C   0  0  0  0  0  0  0  0  0  0  0  0
    0.4350    1.6848    2.7298 O   0  0  0  0  0  0  0  0  0  0  0  0
   -1.8672    2.6872    4.1678 C   0  0  0  0  0  0  0  0  0  0  0  0
   -2.2034    0.2370    4.5926 H   0  0  0  0  0  0  0  0  0  0  0  0
   -2.7710    2.0206    2.3495 H   0  0  0  0  0  0  0  0  0  0  0  0
   -1.0893    2.3872    4.8778 H   0  0  0  0  0  0  0  0  0  0  0  0
   -1.6151    3.6793    3.7797 H   0  0  0  0  0  0  0  0  0  0  0  0
   -2.8193    2.7589    4.7028 H   0  0  0  0  0  0  0  0  0  0  0  0
   -0.7326    1.4380    0.8250 N   0  0  0  0  0  0  0  0  0  0  0  0
    0.4451    1.2857   -0.0471 C   0  0  2  0  0  0  0  0  0  0  0  0
    1.2103    2.6027   -0.2920 C   0  0  0  0  0  0  0  0  0  0  0  0
    1.3540    3.0468   -1.4249 O   0  0  0  0  0  0  0  0  0  0  0  0
    0.0446    0.6043   -1.3672 C   0  0  0  0  0  0  0  0  0  0  0  0
   -0.4417   -0.7958   -1.1069 C   0  0  0  0  0  0  0  0  0  0  0  0
    0.3780   -1.8798   -0.7951 N   0  3  0  0  0  0  0  0  0  0  0  0
   -1.7361   -1.2451   -1.1395 C   0  0  0  0  0  0  0  0  0  0  0  0
   -0.3480   -2.9555   -0.6110 C   0  0  0  0  0  0  0  0  0  0  0  0
   -1.6782   -2.5953   -0.8210 N   0  0  0  0  0  0  0  0  0  0  0  0
   -1.6545    1.2215    0.4511 H   0  0  0  0  0  0  0  0  0  0  0  0
    1.1607    0.6234    0.4532 H   0  0  0  0  0  0  0  0  0  0  0  0
    0.9045    0.5665   -2.0460 H   0  0  0  0  0  0  0  0  0  0  0  0
   -0.7319    1.1973   -1.8626 H   0  0  0  0  0  0  0  0  0  0  0  0
    1.3944   -1.7953   -0.6932 H   0  0  0  0  0  0  0  0  0  0  0  0
   -2.6288   -0.6511   -1.3358 H   0  0  0  0  0  0  0  0  0  0  0  0
    0.0213   -3.9453   -0.3375 H   0  0  0  0  0  0  0  0  0  0  0  0
   -2.4901   -3.2095   -0.7153 H   0  0  0  0  0  0  0  0  0  0  0  0
    1.9922    3.0851    0.7366 N   0  0  0  0  0  0  0  0  0  0  0  0
    3.3705    3.5083    0.4616 C   0  0  2  0  0  0  0  0  0  0  0  0
    4.2910    2.3145    0.0955 C   0  0  0  0  0  0  0  0  0  0  0  0
    3.8910    1.1536    0.1770 O   0  0  0  0  0  0  0  0  0  0  0  0
    3.8833    4.2284    1.7115 C   0  0  0  0  0  0  0  0  0  0  0  0
    1.8407    2.5877    1.6184 H   0  0  0  0  0  0  0  0  0  0  0  0
    3.3792    4.2135   -0.3769 H   0  0  0  0  0  0  0  0  0  0  0  0
    3.8974    3.5472    2.5688 H   0  0  0  0  0  0  0  0  0  0  0  0
    4.8974    4.6065    1.5508 H   0  0  0  0  0  0  0  0  0  0  0  0
    3.2348    5.0770    1.9515 H   0  0  0  0  0  0  0  0  0  0  0  0
    5.5801    2.5427   -0.3492 N   0  0  0  0  0  0  0  0  0  0  0  0
    6.5030    1.4786   -0.7281 C   0  0  0  0  0  0  0  0  0  0  0  0
    5.8797    3.5087   -0.4474 H   0  0  0  0  0  0  0  0  0  0  0  0
    6.6580    0.7890    0.1086 H   0  0  0  0  0  0  0  0  0  0  0  0
    6.1101    0.9159   -1.5813 H   0  0  0  0  0  0  0  0  0  0  0  0
    7.4729    1.9007   -1.0096 H   0  0  0  0  0  0  0  0  0  0  0  0
  1  2  2  0  0  0  0
  1  3  1  0  0  0  0
  1  7  1  0  0  0  0
  3  4  1  0  0  0  0
  3  5  1  0  0  0  0
  3  6  1  0  0  0  0
  7  8  1  0  0  0  0
  7 12  1  0  0  0  0
  8  9  1  0  0  0  0
  8 11  1  0  0  0  0
  8 13  1  0  0  0  0
  9 10  2  0  0  0  0
  9 17  1  0  0  0  0
 11 14  1  0  0  0  0
 11 15  1  0  0  0  0
 11 16  1  0  0  0  0
 17 18  1  0  0  0  0
 17 27  1  0  0  0  0
 18 19  1  0  0  0  0
 18 21  1  0  0  0  0
 18 28  1  0  0  0  0
 19 20  2  0  0  0  0
 19 35  1  0  0  0  0
 21 22  1  0  0  0  0
 21 29  1  0  0  0  0
 21 30  1  0  0  0  0
 22 23  1  0  0  0  0
 22 24  2  0  0  0  0
 23 25  2  0  0  0  0
 23 31  1  0  0  0  0
 24 26  1  0  0  0  0
 24 32  1  0  0  0  0
 25 26  1  0  0  0  0
 25 33  1  0  0  0  0
 26 34  1  0  0  0  0
 35 36  1  0  0  0  0
 35 40  1  0  0  0  0
 36 37  1  0  0  0  0
 36 39  1  0  0  0  0
 36 41  1  0  0  0  0
 37 38  2  0  0  0  0
 37 45  1  0  0  0  0
 39 42  1  0  0  0  0
 39 43  1  0  0  0  0
 39 44  1  0  0  0  0
 45 46  1  0  0  0  0
 45 47  1  0  0  0  0
 46 48  1  0  0  0  0
 46 49  1  0  0  0  0
 46 50  1  0  0  0  0
M  CHG  1  23   1
M  END
$$$$

  -OEChem-05262216443D

 50 50  0     1  0  0  0  0  0999 V2000
   -3.0431   -0.5024    2.6558 C   0  0  0  0  0  0  0  0  0  0  0  0
   -3.0415   -0.2080    1.4668 O   0  0  0  0  0  0  0  0  0  0  0  0
   -3.6949   -1.7913    3.1181 C   0  0  0  0  0  0  0  0  0  0  0  0
   -4.1646   -2.3031    2.2740 H   0  0  0  0  0  0  0  0  0  0  0  0
   -2.9460   -2.4521    3.5618 H   0  0  0  0  0  0  0  0  0  0  0  0
   -4.4630   -1.5732    3.8646 H   0  0  0  0  0  0  0  0  0  0  0  0
   -2.4109    0.3106    3.5736 N   0  0  0  0  0  0  0  0  0  0  0  0
   -1.8522    1.6334    3.2612 C   0  0  2  0  0  0  0  0  0  0  0  0
   -0.5522    1.5609    2.4246 C   0  0  0  0  0  0  0  0  0  0  0  0
    0.5613    1.6543    2.9315 O   0  0  0  0  0  0  0  0  0  0  0  0
   -1.6424    2.3694    4.5905 C   0  0  0  0  0  0  0  0  0  0  0  0
   -2.4331    0.0180    4.5478 H   0  0  0  0  0  0  0  0  0  0  0  0
   -2.5828    2.2050    2.6779 H   0  0  0  0  0  0  0  0  0  0  0  0
   -0.9312    1.8300    5.2248 H   0  0  0  0  0  0  0  0  0  0  0  0
   -1.2479    3.3746    4.4088 H   0  0  0  0  0  0  0  0  0  0  0  0
   -2.5900    2.4648    5.1298 H   0  0  0  0  0  0  0  0  0  0  0  0
   -0.6409    1.4252    1.0520 N   0  0  0  0  0  0  0  0  0  0  0  0
    0.5283    1.3635    0.1632 C   0  0  2  0  0  0  0  0  0  0  0  0
    1.2109    2.7273   -0.0523 C   0  0  0  0  0  0  0  0  0  0  0  0
    1.1592    3.2914   -1.1390 O   0  0  0  0  0  0  0  0  0  0  0  0
    0.1695    0.6986   -1.1752 C   0  0  0  0  0  0  0  0  0  0  0  0
   -0.2258   -0.7355   -0.9602 C   0  0  0  0  0  0  0  0  0  0  0  0
    0.6765   -1.7611   -0.6844 N   0  3  0  0  0  0  0  0  0  0  0  0
   -1.4815   -1.2803   -1.0133 C   0  0  0  0  0  0  0  0  0  0  0  0
    0.0383   -2.8987   -0.5562 C   0  0  0  0  0  0  0  0  0  0  0  0
   -1.3168   -2.6359   -0.7573 N   0  0  0  0  0  0  0  0  0  0  0  0
   -1.5680    1.2082    0.6837 H   0  0  0  0  0  0  0  0  0  0  0  0
    1.2810    0.7238    0.6371 H   0  0  0  0  0  0  0  0  0  0  0  0
    1.0298    0.7396   -1.8542 H   0  0  0  0  0  0  0  0  0  0  0  0
   -0.6457    1.2544   -1.6518 H   0  0  0  0  0  0  0  0  0  0  0  0
    1.6847   -1.5979   -0.5861 H   0  0  0  0  0  0  0  0  0  0  0  0
   -2.4154   -0.7456   -1.1915 H   0  0  0  0  0  0  0  0  0  0  0  0
    0.4865   -3.8681   -0.3327 H   0  0  0  0  0  0  0  0  0  0  0  0
   -2.0737   -3.3240   -0.7161 H   0  0  0  0  0  0  0  0  0  0  0  0
    2.2113    3.0560    0.8385 N   0  0  0  0  0  0  0  0  0  0  0  0
    3.5439    3.3929    0.3234 C   0  0  2  0  0  0  0  0  0  0  0  0
    4.2353    2.1914   -0.3747 C   0  0  0  0  0  0  0  0  0  0  0  0
    3.7760    1.0507   -0.2944 O   0  0  0  0  0  0  0  0  0  0  0  0
    4.3819    3.8830    1.5070 C   0  0  0  0  0  0  0  0  0  0  0  0
    2.1839    2.4959    1.6929 H   0  0  0  0  0  0  0  0  0  0  0  0
    3.4571    4.2066   -0.4054 H   0  0  0  0  0  0  0  0  0  0  0  0
    4.5041    3.0865    2.2484 H   0  0  0  0  0  0  0  0  0  0  0  0
    5.3739    4.2007    1.1719 H   0  0  0  0  0  0  0  0  0  0  0  0
    3.8930    4.7356    1.9893 H   0  0  0  0  0  0  0  0  0  0  0  0
    5.3825    2.3947   -1.1183 N   0  0  0  0  0  0  0  0  0  0  0  0
    6.0878    1.3309   -1.8236 C   0  0  0  0  0  0  0  0  0  0  0  0
    5.7246    3.3484   -1.2026 H   0  0  0  0  0  0  0  0  0  0  0  0
    6.4443    0.5734   -1.1175 H   0  0  0  0  0  0  0  0  0  0  0  0
    5.4283    0.8508   -2.5544 H   0  0  0  0  0  0  0  0  0  0  0  0
    6.9523    1.7392   -2.3565 H   0  0  0  0  0  0  0  0  0  0  0  0
  1  2  2  0  0  0  0
  1  3  1  0  0  0  0
  1  7  1  0  0  0  0
  3  4  1  0  0  0  0
  3  5  1  0  0  0  0
  3  6  1  0  0  0  0
  7  8  1  0  0  0  0
  7 12  1  0  0  0  0
  8  9  1  0  0  0  0
  8 11  1  0  0  0  0
  8 13  1  0  0  0  0
  9 10  2  0  0  0  0
  9 17  1  0  0  0  0
 11 14  1  0  0  0  0
 11 15  1  0  0  0  0
 11 16  1  0  0  0  0
 17 18  1  0  0  0  0
 17 27  1  0  0  0  0
 18 19  1  0  0  0  0
 18 21  1  0  0  0  0
 18 28  1  0  0  0  0
 19 20  2  0  0  0  0
 19 35  1  0  0  0  0
 21 22  1  0  0  0  0
 21 29  1  0  0  0  0
 21 30  1  0  0  0  0
 22 23  1  0  0  0  0
 22 24  2  0  0  0  0
 23 25  2  0  0  0  0
 23 31  1  0  0  0  0
 24 26  1  0  0  0  0
 24 32  1  0  0  0  0
 25 26  1  0  0  0  0
 25 33  1  0  0  0  0
 26 34  1  0  0  0  0
 35 36  1  0  0  0  0
 35 40  1  0  0  0  0
 36 37  1  0  0  0  0
 36 39  1  0  0  0  0
 36 41  1  0  0  0  0
 37 38  2  0  0  0  0
 37 45  1  0  0  0  0
 39 42  1  0  0  0  0
 39 43  1  0  0  0  0
 39 44  1  0  0  0  0
 45 46  1  0  0  0  0
 45 47  1  0  0  0  0
 46 48  1  0  0  0  0
 46 49  1  0  0  0  0
 46 50  1  0  0  0  0
M  CHG  1  23   1
M  END
$$$$

  -OEChem-05262216443D

 50 50  0     1  0  0  0  0  0999 V2000
   -3.0716   -0.4946    2.5678 C   0  0  0  0  0  0  0  0  0  0  0  0
   -3.0184   -0.1070    1.4073 O   0  0  0  0  0  0  0  0  0  0  0  0
   -3.8142   -1.7727    2.9074 C   0  0  0  0  0  0  0  0  0  0  0  0
   -4.3007   -2.1773    2.0157 H   0  0  0  0  0  0  0  0  0  0  0  0
   -3.1186   -2.5177    3.3014 H   0  0  0  0  0  0  0  0  0  0  0  0
   -4.5806   -1.5689    3.6599 H   0  0  0  0  0  0  0  0  0  0  0  0
   -2.4266    0.2062    3.5662 N   0  0  0  0  0  0  0  0  0  0  0  0
   -1.8184    1.5322    3.3864 C   0  0  2  0  0  0  0  0  0  0  0  0
   -0.5077    1.4990    2.5645 C   0  0  0  0  0  0  0  0  0  0  0  0
    0.6010    1.5299    3.0886 O   0  0  0  0  0  0  0  0  0  0  0  0
   -1.6070    2.1341    4.7808 C   0  0  0  0  0  0  0  0  0  0  0  0
   -2.5032   -0.1594    4.5124 H   0  0  0  0  0  0  0  0  0  0  0  0
   -2.5207    2.1799    2.8499 H   0  0  0  0  0  0  0  0  0  0  0  0
   -0.9221    1.5161    5.3705 H   0  0  0  0  0  0  0  0  0  0  0  0
   -1.1794    3.1388    4.6986 H   0  0  0  0  0  0  0  0  0  0  0  0
   -2.5593    2.2093    5.3147 H   0  0  0  0  0  0  0  0  0  0  0  0
   -0.5787    1.4832    1.1854 N   0  0  0  0  0  0  0  0  0  0  0  0
    0.6017    1.5128    0.3133 C   0  0  2  0  0  0  0  0  0  0  0  0
    1.2953    2.8819    0.2045 C   0  0  0  0  0  0  0  0  0  0  0  0
    1.0983    3.5960   -0.7711 O   0  0  0  0  0  0  0  0  0  0  0  0
    0.2713    0.9511   -1.0781 C   0  0  0  0  0  0  0  0  0  0  0  0
   -0.0957   -0.4999   -0.9744 C   0  0  0  0  0  0  0  0  0  0  0  0
    0.8471   -1.5036   -0.7655 N   0  3  0  0  0  0  0  0  0  0  0  0
   -1.3311   -1.0840   -1.0595 C   0  0  0  0  0  0  0  0  0  0  0  0
    0.2539   -2.6710   -0.7148 C   0  0  0  0  0  0  0  0  0  0  0  0
   -1.1119   -2.4468   -0.8962 N   0  0  0  0  0  0  0  0  0  0  0  0
   -1.5060    1.3406    0.7825 H   0  0  0  0  0  0  0  0  0  0  0  0
    1.3437    0.8349    0.7481 H   0  0  0  0  0  0  0  0  0  0  0  0
    1.1326    1.0639   -1.7465 H   0  0  0  0  0  0  0  0  0  0  0  0
   -0.5542    1.5243   -1.5144 H   0  0  0  0  0  0  0  0  0  0  0  0
    1.8497   -1.3039   -0.6628 H   0  0  0  0  0  0  0  0  0  0  0  0
   -2.2844   -0.5710   -1.1948 H   0  0  0  0  0  0  0  0  0  0  0  0
    0.7407   -3.6350   -0.5592 H   0  0  0  0  0  0  0  0  0  0  0  0
   -1.8411   -3.1651   -0.9017 H   0  0  0  0  0  0  0  0  0  0  0  0
    2.4805    3.0034    0.9011 N   0  0  0  0  0  0  0  0  0  0  0  0
    3.7232    3.2408    0.1555 C   0  0  2  0  0  0  0  0  0  0  0  0
    4.1480    2.0231   -0.7093 C   0  0  0  0  0  0  0  0  0  0  0  0
    3.6080    0.9209   -0.5840 O   0  0  0  0  0  0  0  0  0  0  0  0
    4.8110    3.5817    1.1772 C   0  0  0  0  0  0  0  0  0  0  0  0
    2.5497    2.3513    1.6823 H   0  0  0  0  0  0  0  0  0  0  0  0
    3.5901    4.1008   -0.5104 H   0  0  0  0  0  0  0  0  0  0  0  0
    4.9845    2.7369    1.8515 H   0  0  0  0  0  0  0  0  0  0  0  0
    5.7519    3.8224    0.6732 H   0  0  0  0  0  0  0  0  0  0  0  0
    4.5105    4.4484    1.7751 H   0  0  0  0  0  0  0  0  0  0  0  0
    5.1399    2.1692   -1.6605 N   0  0  0  0  0  0  0  0  0  0  0  0
    5.5924    1.0916   -2.5330 C   0  0  0  0  0  0  0  0  0  0  0  0
    5.5442    3.0949   -1.7785 H   0  0  0  0  0  0  0  0  0  0  0  0
    5.9503    0.2423   -1.9413 H   0  0  0  0  0  0  0  0  0  0  0  0
    4.7764    0.7533   -3.1802 H   0  0  0  0  0  0  0  0  0  0  0  0
    6.4147    1.4383   -3.1669 H   0  0  0  0  0  0  0  0  0  0  0  0
  1  2  2  0  0  0  0
  1  3  1  0  0  0  0
  1  7  1  0  0  0  0
  3  4  1  0  0  0  0
  3  5  1  0  0  0  0
  3  6  1  0  0  0  0
  7  8  1  0  0  0  0
  7 12  1  0  0  0  0
  8  9  1  0  0  0  0
  8 11  1  0  0  0  0
  8 13  1  0  0  0  0
  9 10  2  0  0  0  0
  9 17  1  0  0  0  0
 11 14  1  0  0  0  0
 11 15  1  0  0  0  0
 11 16  1  0  0  0  0
 17 18  1  0  0  0  0
 17 27  1  0  0  0  0
 18 19  1  0  0  0  0
 18 21  1  0  0  0  0
 18 28  1  0  0  0  0
 19 20  2  0  0  0  0
 19 35  1  0  0  0  0
 21 22  1  0  0  0  0
 21 29  1  0  0  0  0
 21 30  1  0  0  0  0
 22 23  1  0  0  0  0
 22 24  2  0  0  0  0
 23 25  2  0  0  0  0
 23 31  1  0  0  0  0
 24 26  1  0  0  0  0
 24 32  1  0  0  0  0
 25 26  1  0  0  0  0
 25 33  1  0  0  0  0
 26 34  1  0  0  0  0
 35 36  1  0  0  0  0
 35 40  1  0  0  0  0
 36 37  1  0  0  0  0
 36 39  1  0  0  0  0
 36 41  1  0  0  0  0
 37 38  2  0  0  0  0
 37 45  1  0  0  0  0
 39 42  1  0  0  0  0
 39 43  1  0  0  0  0
 39 44  1  0  0  0  0
 45 46  1  0  0  0  0
 45 47  1  0  0  0  0
 46 48  1  0  0  0  0
 46 49  1  0  0  0  0
 46 50  1  0  0  0  0
M  CHG  1  23   1
M  END
$$$$

  -OEChem-05262216443D

 50 50  0     1  0  0  0  0  0999 V2000
   -3.1634   -0.3779    2.4397 C   0  0  0  0  0  0  0  0  0  0  0  0
   -3.0535    0.1294    1.3305 O   0  0  0  0  0  0  0  0  0  0  0  0
   -4.0202   -1.6159    2.6241 C   0  0  0  0  0  0  0  0  0  0  0  0
   -4.4703   -1.9116    1.6725 H   0  0  0  0  0  0  0  0  0  0  0  0
   -3.4113   -2.4421    2.9990 H   0  0  0  0  0  0  0  0  0  0  0  0
   -4.8207   -1.4106    3.3398 H   0  0  0  0  0  0  0  0  0  0  0  0
   -2.4791    0.1454    3.5177 N   0  0  0  0  0  0  0  0  0  0  0  0
   -1.7497    1.4218    3.4974 C   0  0  2  0  0  0  0  0  0  0  0  0
   -0.4298    1.3637    2.6913 C   0  0  0  0  0  0  0  0  0  0  0  0
    0.6676    1.2542    3.2270 O   0  0  0  0  0  0  0  0  0  0  0  0
   -1.5162    1.8391    4.9544 C   0  0  0  0  0  0  0  0  0  0  0  0
   -2.6099   -0.3140    4.4158 H   0  0  0  0  0  0  0  0  0  0  0  0
   -2.3788    2.1883    3.0314 H   0  0  0  0  0  0  0  0  0  0  0  0
   -0.9066    1.0953    5.4781 H   0  0  0  0  0  0  0  0  0  0  0  0
   -0.9946    2.8010    4.9939 H   0  0  0  0  0  0  0  0  0  0  0  0
   -2.4701    1.9442    5.4807 H   0  0  0  0  0  0  0  0  0  0  0  0
   -0.4766    1.4889    1.3175 N   0  0  0  0  0  0  0  0  0  0  0  0
    0.7139    1.5788    0.4638 C   0  0  2  0  0  0  0  0  0  0  0  0
    1.4609    2.9228    0.4782 C   0  0  0  0  0  0  0  0  0  0  0  0
    1.1272    3.8036   -0.3040 O   0  0  0  0  0  0  0  0  0  0  0  0
    0.3521    1.1846   -0.9784 C   0  0  0  0  0  0  0  0  0  0  0  0
   -0.0657   -0.2540   -1.0301 C   0  0  0  0  0  0  0  0  0  0  0  0
    0.8565   -1.2933   -0.9425 N   0  3  0  0  0  0  0  0  0  0  0  0
   -1.3164   -0.7964   -1.1546 C   0  0  0  0  0  0  0  0  0  0  0  0
    0.2369   -2.4460   -1.0067 C   0  0  0  0  0  0  0  0  0  0  0  0
   -1.1260   -2.1736   -1.1405 N   0  0  0  0  0  0  0  0  0  0  0  0
   -1.4066    1.5058    0.8966 H   0  0  0  0  0  0  0  0  0  0  0  0
    1.4275    0.8309    0.8250 H   0  0  0  0  0  0  0  0  0  0  0  0
    1.2005    1.3471   -1.6507 H   0  0  0  0  0  0  0  0  0  0  0  0
   -0.4616    1.8269   -1.3332 H   0  0  0  0  0  0  0  0  0  0  0  0
    1.8660   -1.1240   -0.8412 H   0  0  0  0  0  0  0  0  0  0  0  0
   -2.2588   -0.2500   -1.2180 H   0  0  0  0  0  0  0  0  0  0  0  0
    0.7031   -3.4315   -0.9618 H   0  0  0  0  0  0  0  0  0  0  0  0
   -1.8712   -2.8715   -1.2109 H   0  0  0  0  0  0  0  0  0  0  0  0
    2.7754    2.8592    0.8983 N   0  0  0  0  0  0  0  0  0  0  0  0
    3.8600    3.1001   -0.0623 C   0  0  2  0  0  0  0  0  0  0  0  0
    4.1290    1.8697   -0.9696 C   0  0  0  0  0  0  0  0  0  0  0  0
    3.5667    0.7882   -0.7748 O   0  0  0  0  0  0  0  0  0  0  0  0
    5.1089    3.4685    0.7427 C   0  0  0  0  0  0  0  0  0  0  0  0
    2.9429    2.0935    1.5489 H   0  0  0  0  0  0  0  0  0  0  0  0
    3.6054    3.9480   -0.7082 H   0  0  0  0  0  0  0  0  0  0  0  0
    5.4145    2.6350    1.3837 H   0  0  0  0  0  0  0  0  0  0  0  0
    5.9396    3.7169    0.0751 H   0  0  0  0  0  0  0  0  0  0  0  0
    4.9067    4.3385    1.3761 H   0  0  0  0  0  0  0  0  0  0  0  0
    4.9824    1.9844   -2.0502 N   0  0  0  0  0  0  0  0  0  0  0  0
    5.2923    0.8884   -2.9611 C   0  0  0  0  0  0  0  0  0  0  0  0
    5.4269    2.8865   -2.2038 H   0  0  0  0  0  0  0  0  0  0  0  0
    5.7612    0.0602   -2.4192 H   0  0  0  0  0  0  0  0  0  0  0  0
    4.3815    0.5233   -3.4471 H   0  0  0  0  0  0  0  0  0  0  0  0
    5.9844    1.2269   -3.7386 H   0  0  0  0  0  0  0  0  0  0  0  0
  1  2  2  0  0  0  0
  1  3  1  0  0  0  0
  1  7  1  0  0  0  0
  3  4  1  0  0  0  0
  3  5  1  0  0  0  0
  3  6  1  0  0  0  0
  7  8  1  0  0  0  0
  7 12  1  0  0  0  0
  8  9  1  0  0  0  0
  8 11  1  0  0  0  0
  8 13  1  0  0  0  0
  9 10  2  0  0  0  0
  9 17  1  0  0  0  0
 11 14  1  0  0  0  0
 11 15  1  0  0  0  0
 11 16  1  0  0  0  0
 17 18  1  0  0  0  0
 17 27  1  0  0  0  0
 18 19  1  0  0  0  0
 18 21  1  0  0  0  0
 18 28  1  0  0  0  0
 19 20  2  0  0  0  0
 19 35  1  0  0  0  0
 21 22  1  0  0  0  0
 21 29  1  0  0  0  0
 21 30  1  0  0  0  0
 22 23  1  0  0  0  0
 22 24  2  0  0  0  0
 23 25  2  0  0  0  0
 23 31  1  0  0  0  0
 24 26  1  0  0  0  0
 24 32  1  0  0  0  0
 25 26  1  0  0  0  0
 25 33  1  0  0  0  0
 26 34  1  0  0  0  0
 35 36  1  0  0  0  0
 35 40  1  0  0  0  0
 36 37  1  0  0  0  0
 36 39  1  0  0  0  0
 36 41  1  0  0  0  0
 37 38  2  0  0  0  0
 37 45  1  0  0  0  0
 39 42  1  0  0  0  0
 39 43  1  0  0  0  0
 39 44  1  0  0  0  0
 45 46  1  0  0  0  0
 45 47  1  0  0  0  0
 46 48  1  0  0  0  0
 46 49  1  0  0  0  0
 46 50  1  0  0  0  0
M  CHG  1  23   1
M  END
$$$$

  -OEChem-05262216443D

 50 50  0     1  0  0  0  0  0999 V2000
   -3.0898   -0.5587    2.7961 C   0  0  0  0  0  0  0  0  0  0  0  0
   -3.1037   -0.2475    1.6110 O   0  0  0  0  0  0  0  0  0  0  0  0
   -3.7543   -1.8444    3.2493 C   0  0  0  0  0  0  0  0  0  0  0  0
   -4.2964   -2.3050    2.4191 H   0  0  0  0  0  0  0  0  0  0  0  0
   -3.0001   -2.5465    3.6134 H   0  0  0  0  0  0  0  0  0  0  0  0
   -4.4626   -1.6339    4.0546 H   0  0  0  0  0  0  0  0  0  0  0  0
   -2.4371    0.2327    3.7191 N   0  0  0  0  0  0  0  0  0  0  0  0
   -1.7192    1.4670    3.3785 C   0  0  2  0  0  0  0  0  0  0  0  0
   -0.4173    1.1854    2.5964 C   0  0  0  0  0  0  0  0  0  0  0  0
    0.5865    0.7497    3.1478 O   0  0  0  0  0  0  0  0  0  0  0  0
   -1.4384    2.2272    4.6789 C   0  0  0  0  0  0  0  0  0  0  0  0
   -2.3627   -0.1213    4.6698 H   0  0  0  0  0  0  0  0  0  0  0  0
   -2.3606    2.0979    2.7538 H   0  0  0  0  0  0  0  0  0  0  0  0
   -0.8040    1.6346    5.3463 H   0  0  0  0  0  0  0  0  0  0  0  0
   -0.9250    3.1699    4.4632 H   0  0  0  0  0  0  0  0  0  0  0  0
   -2.3739    2.4558    5.1989 H   0  0  0  0  0  0  0  0  0  0  0  0
   -0.4035    1.3393    1.2245 N   0  0  0  0  0  0  0  0  0  0  0  0
    0.8075    1.2024    0.4054 C   0  0  2  0  0  0  0  0  0  0  0  0
    1.7580    2.4078    0.5153 C   0  0  0  0  0  0  0  0  0  0  0  0
    1.3779    3.4969    0.1051 O   0  0  0  0  0  0  0  0  0  0  0  0
    0.3708    1.0012   -1.0566 C   0  0  0  0  0  0  0  0  0  0  0  0
   -0.3903   -0.2912   -1.1983 C   0  0  0  0  0  0  0  0  0  0  0  0
    0.1731   -1.5665   -1.1959 N   0  3  0  0  0  0  0  0  0  0  0  0
   -1.7514   -0.4374   -1.2738 C   0  0  0  0  0  0  0  0  0  0  0  0
   -0.7687   -2.4766   -1.2564 C   0  0  0  0  0  0  0  0  0  0  0  0
   -1.9888   -1.8045   -1.3069 N   0  0  0  0  0  0  0  0  0  0  0  0
   -1.2275    1.7694    0.8126 H   0  0  0  0  0  0  0  0  0  0  0  0
    1.3615    0.3154    0.7291 H   0  0  0  0  0  0  0  0  0  0  0  0
    1.2440    0.9875   -1.7174 H   0  0  0  0  0  0  0  0  0  0  0  0
   -0.2539    1.8452   -1.3697 H   0  0  0  0  0  0  0  0  0  0  0  0
    1.1835   -1.7257   -1.1433 H   0  0  0  0  0  0  0  0  0  0  0  0
   -2.4956    0.3585   -1.2471 H   0  0  0  0  0  0  0  0  0  0  0  0
   -0.6239   -3.5580   -1.2582 H   0  0  0  0  0  0  0  0  0  0  0  0
   -2.9155   -2.2395   -1.3004 H   0  0  0  0  0  0  0  0  0  0  0  0
    3.1082    2.1642    0.6744 N   0  0  0  0  0  0  0  0  0  0  0  0
    4.1116    2.8543   -0.1458 C   0  0  2  0  0  0  0  0  0  0  0  0
    4.3556    2.0933   -1.4705 C   0  0  0  0  0  0  0  0  0  0  0  0
    3.8593    0.9807   -1.6460 O   0  0  0  0  0  0  0  0  0  0  0  0
    5.3969    2.9537    0.6798 C   0  0  0  0  0  0  0  0  0  0  0  0
    3.3314    1.2006    0.9095 H   0  0  0  0  0  0  0  0  0  0  0  0
    3.7788    3.8691   -0.3907 H   0  0  0  0  0  0  0  0  0  0  0  0
    5.7767    1.9564    0.9244 H   0  0  0  0  0  0  0  0  0  0  0  0
    6.1704    3.4941    0.1255 H   0  0  0  0  0  0  0  0  0  0  0  0
    5.2048    3.4918    1.6138 H   0  0  0  0  0  0  0  0  0  0  0  0
    5.1176    2.6563   -2.4762 N   0  0  0  0  0  0  0  0  0  0  0  0
    5.3925    1.9915   -3.7453 C   0  0  0  0  0  0  0  0  0  0  0  0
    5.5031    3.5833   -2.3149 H   0  0  0  0  0  0  0  0  0  0  0  0
    5.9052    1.0383   -3.5768 H   0  0  0  0  0  0  0  0  0  0  0  0
    4.4606    1.7995   -4.2877 H   0  0  0  0  0  0  0  0  0  0  0  0
    6.0330    2.6203   -4.3718 H   0  0  0  0  0  0  0  0  0  0  0  0
  1  2  2  0  0  0  0
  1  3  1  0  0  0  0
  1  7  1  0  0  0  0
  3  4  1  0  0  0  0
  3  5  1  0  0  0  0
  3  6  1  0  0  0  0
  7  8  1  0  0  0  0
  7 12  1  0  0  0  0
  8  9  1  0  0  0  0
  8 11  1  0  0  0  0
  8 13  1  0  0  0  0
  9 10  2  0  0  0  0
  9 17  1  0  0  0  0
 11 14  1  0  0  0  0
 11 15  1  0  0  0  0
 11 16  1  0  0  0  0
 17 18  1  0  0  0  0
 17 27  1  0  0  0  0
 18 19  1  0  0  0  0
 18 21  1  0  0  0  0
 18 28  1  0  0  0  0
 19 20  2  0  0  0  0
 19 35  1  0  0  0  0
 21 22  1  0  0  0  0
 21 29  1  0  0  0  0
 21 30  1  0  0  0  0
 22 23  1  0  0  0  0
 22 24  2  0  0  0  0
 23 25  2  0  0  0  0
 23 31  1  0  0  0  0
 24 26  1  0  0  0  0
 24 32  1  0  0  0  0
 25 26  1  0  0  0  0
 25 33  1  0  0  0  0
 26 34  1  0  0  0  0
 35 36  1  0  0  0  0
 35 40  1  0  0  0  0
 36 37  1  0  0  0  0
 36 39  1  0  0  0  0
 36 41  1  0  0  0  0
 37 38  2  0  0  0  0
 37 45  1  0  0  0  0
 39 42  1  0  0  0  0
 39 43  1  0  0  0  0
 39 44  1  0  0  0  0
 45 46  1  0  0  0  0
 45 47  1  0  0  0  0
 46 48  1  0  0  0  0
 46 49  1  0  0  0  0
 46 50  1  0  0  0  0
M  CHG  1  23   1
M  END
$$$$

  -OEChem-05262216443D

 50 50  0     1  0  0  0  0  0999 V2000
   -3.2905    0.2657    2.5133 C   0  0  0  0  0  0  0  0  0  0  0  0
   -3.0035    0.6785    1.3965 O   0  0  0  0  0  0  0  0  0  0  0  0
   -4.5608   -0.5373    2.7158 C   0  0  0  0  0  0  0  0  0  0  0  0
   -5.0952   -0.6472    1.7683 H   0  0  0  0  0  0  0  0  0  0  0  0
   -4.3196   -1.5299    3.1037 H   0  0  0  0  0  0  0  0  0  0  0  0
   -5.2147   -0.0263    3.4273 H   0  0  0  0  0  0  0  0  0  0  0  0
   -2.4497    0.4893    3.5851 N   0  0  0  0  0  0  0  0  0  0  0  0
   -1.2825    1.3845    3.5601 C   0  0  2  0  0  0  0  0  0  0  0  0
   -0.0891    0.8206    2.7512 C   0  0  0  0  0  0  0  0  0  0  0  0
    0.9065    0.3434    3.2826 O   0  0  0  0  0  0  0  0  0  0  0  0
   -0.9017    1.6808    5.0161 C   0  0  0  0  0  0  0  0  0  0  0  0
   -2.7419    0.1155    4.4846 H   0  0  0  0  0  0  0  0  0  0  0  0
   -1.5678    2.3341    3.0932 H   0  0  0  0  0  0  0  0  0  0  0  0
   -0.6141    0.7616    5.5369 H   0  0  0  0  0  0  0  0  0  0  0  0
   -0.0557    2.3751    5.0508 H   0  0  0  0  0  0  0  0  0  0  0  0
   -1.7419    2.1372    5.5486 H   0  0  0  0  0  0  0  0  0  0  0  0
   -0.1308    0.8846    1.3740 N   0  0  0  0  0  0  0  0  0  0  0  0
    1.0484    0.7156    0.5153 C   0  0  2  0  0  0  0  0  0  0  0  0
    1.9625    1.9568    0.5281 C   0  0  0  0  0  0  0  0  0  0  0  0
    1.4599    3.0682    0.4166 O   0  0  0  0  0  0  0  0  0  0  0  0
    0.5467    0.4900   -0.9209 C   0  0  0  0  0  0  0  0  0  0  0  0
   -0.2428   -0.7894   -1.0281 C   0  0  0  0  0  0  0  0  0  0  0  0
    0.2711   -2.0858   -1.0380 N   0  3  0  0  0  0  0  0  0  0  0  0
   -1.6089   -0.8827   -1.1050 C   0  0  0  0  0  0  0  0  0  0  0  0
   -0.7045   -2.9579   -1.1211 C   0  0  0  0  0  0  0  0  0  0  0  0
   -1.8982   -2.2394   -1.1662 N   0  0  0  0  0  0  0  0  0  0  0  0
   -0.9622    1.3334    0.9875 H   0  0  0  0  0  0  0  0  0  0  0  0
    1.6315   -0.1491    0.8480 H   0  0  0  0  0  0  0  0  0  0  0  0
    1.3938    0.4504   -1.6139 H   0  0  0  0  0  0  0  0  0  0  0  0
   -0.0731    1.3415   -1.2241 H   0  0  0  0  0  0  0  0  0  0  0  0
    1.2734   -2.2874   -0.9943 H   0  0  0  0  0  0  0  0  0  0  0  0
   -2.3159   -0.0510   -1.0850 H   0  0  0  0  0  0  0  0  0  0  0  0
   -0.6004   -4.0439   -1.1491 H   0  0  0  0  0  0  0  0  0  0  0  0
   -2.8383   -2.6405   -1.2262 H   0  0  0  0  0  0  0  0  0  0  0  0
    3.3223    1.7981    0.3378 N   0  0  0  0  0  0  0  0  0  0  0  0
    4.1245    2.7859   -0.3972 C   0  0  2  0  0  0  0  0  0  0  0  0
    4.1168    2.4903   -1.9139 C   0  0  0  0  0  0  0  0  0  0  0  0
    3.7484    1.3914   -2.3240 O   0  0  0  0  0  0  0  0  0  0  0  0
    5.5494    2.7382    0.1594 C   0  0  0  0  0  0  0  0  0  0  0  0
    3.6402    0.8356    0.2720 H   0  0  0  0  0  0  0  0  0  0  0  0
    3.7275    3.7953   -0.2432 H   0  0  0  0  0  0  0  0  0  0  0  0
    5.9914    1.7488    0.0036 H   0  0  0  0  0  0  0  0  0  0  0  0
    6.1806    3.4819   -0.3365 H   0  0  0  0  0  0  0  0  0  0  0  0
    5.5435    2.9523    1.2329 H   0  0  0  0  0  0  0  0  0  0  0  0
    4.5223    3.4515   -2.8198 N   0  0  0  0  0  0  0  0  0  0  0  0
    4.5514    3.2365   -4.2621 C   0  0  0  0  0  0  0  0  0  0  0  0
    4.7994    4.3586   -2.4539 H   0  0  0  0  0  0  0  0  0  0  0  0
    5.2677    2.4484   -4.5177 H   0  0  0  0  0  0  0  0  0  0  0  0
    3.5611    2.9450   -4.6280 H   0  0  0  0  0  0  0  0  0  0  0  0
    4.8513    4.1550   -4.7765 H   0  0  0  0  0  0  0  0  0  0  0  0
  1  2  2  0  0  0  0
  1  3  1  0  0  0  0
  1  7  1  0  0  0  0
  3  4  1  0  0  0  0
  3  5  1  0  0  0  0
  3  6  1  0  0  0  0
  7  8  1  0  0  0  0
  7 12  1  0  0  0  0
  8  9  1  0  0  0  0
  8 11  1  0  0  0  0
  8 13  1  0  0  0  0
  9 10  2  0  0  0  0
  9 17  1  0  0  0  0
 11 14  1  0  0  0  0
 11 15  1  0  0  0  0
 11 16  1  0  0  0  0
 17 18  1  0  0  0  0
 17 27  1  0  0  0  0
 18 19  1  0  0  0  0
 18 21  1  0  0  0  0
 18 28  1  0  0  0  0
 19 20  2  0  0  0  0
 19 35  1  0  0  0  0
 21 22  1  0  0  0  0
 21 29  1  0  0  0  0
 21 30  1  0  0  0  0
 22 23  1  0  0  0  0
 22 24  2  0  0  0  0
 23 25  2  0  0  0  0
 23 31  1  0  0  0  0
 24 26  1  0  0  0  0
 24 32  1  0  0  0  0
 25 26  1  0  0  0  0
 25 33  1  0  0  0  0
 26 34  1  0  0  0  0
 35 36  1  0  0  0  0
 35 40  1  0  0  0  0
 36 37  1  0  0  0  0
 36 39  1  0  0  0  0
 36 41  1  0  0  0  0
 37 38  2  0  0  0  0
 37 45  1  0  0  0  0
 39 42  1  0  0  0  0
 39 43  1  0  0  0  0
 39 44  1  0  0  0  0
 45 46  1  0  0  0  0
 45 47  1  0  0  0  0
 46 48  1  0  0  0  0
 46 49  1  0  0  0  0
 46 50  1  0  0  0  0
M  CHG  1  23   1
M  END
$$$$

  -OEChem-05262216443D

 50 50  0     1  0  0  0  0  0999 V2000
   -3.2187    0.3773    2.6144 C   0  0  0  0  0  0  0  0  0  0  0  0
   -2.9459    0.8126    1.5025 O   0  0  0  0  0  0  0  0  0  0  0  0
   -4.5345   -0.3423    2.8405 C   0  0  0  0  0  0  0  0  0  0  0  0
   -5.1407   -0.3193    1.9307 H   0  0  0  0  0  0  0  0  0  0  0  0
   -4.3496   -1.3829    3.1173 H   0  0  0  0  0  0  0  0  0  0  0  0
   -5.0927    0.1451    3.6440 H   0  0  0  0  0  0  0  0  0  0  0  0
   -2.3214    0.4957    3.6565 N   0  0  0  0  0  0  0  0  0  0  0  0
   -1.0859    1.2923    3.6092 C   0  0  2  0  0  0  0  0  0  0  0  0
    0.0207    0.6627    2.7295 C   0  0  0  0  0  0  0  0  0  0  0  0
    0.9775    0.0585    3.1999 O   0  0  0  0  0  0  0  0  0  0  0  0
   -0.6230    1.5004    5.0561 C   0  0  0  0  0  0  0  0  0  0  0  0
   -2.6030    0.1096    4.5543 H   0  0  0  0  0  0  0  0  0  0  0  0
   -1.3088    2.2786    3.1875 H   0  0  0  0  0  0  0  0  0  0  0  0
   -0.4006    0.5407    5.5338 H   0  0  0  0  0  0  0  0  0  0  0  0
    0.2840    2.1133    5.0785 H   0  0  0  0  0  0  0  0  0  0  0  0
   -1.3973    2.0109    5.6371 H   0  0  0  0  0  0  0  0  0  0  0  0
   -0.0611    0.8017    1.3595 N   0  0  0  0  0  0  0  0  0  0  0  0
    1.0875    0.6167    0.4626 C   0  0  2  0  0  0  0  0  0  0  0  0
    2.0671    1.8089    0.5124 C   0  0  0  0  0  0  0  0  0  0  0  0
    1.6380    2.9321    0.7458 O   0  0  0  0  0  0  0  0  0  0  0  0
    0.5223    0.4929   -0.9626 C   0  0  0  0  0  0  0  0  0  0  0  0
   -0.3399   -0.7369   -1.0992 C   0  0  0  0  0  0  0  0  0  0  0  0
    0.0933   -2.0597   -1.1924 N   0  3  0  0  0  0  0  0  0  0  0  0
   -1.7112   -0.7470   -1.1214 C   0  0  0  0  0  0  0  0  0  0  0  0
   -0.9362   -2.8678   -1.2742 C   0  0  0  0  0  0  0  0  0  0  0  0
   -2.0847   -2.0792   -1.2361 N   0  0  0  0  0  0  0  0  0  0  0  0
   -0.8478    1.3656    1.0359 H   0  0  0  0  0  0  0  0  0  0  0  0
    1.6352   -0.2916    0.7335 H   0  0  0  0  0  0  0  0  0  0  0  0
    1.3368    0.4423   -1.6926 H   0  0  0  0  0  0  0  0  0  0  0  0
   -0.0609    1.3909   -1.1979 H   0  0  0  0  0  0  0  0  0  0  0  0
    1.0815   -2.3243   -1.1903 H   0  0  0  0  0  0  0  0  0  0  0  0
   -2.3653    0.1222   -1.0286 H   0  0  0  0  0  0  0  0  0  0  0  0
   -0.9002   -3.9556   -1.3543 H   0  0  0  0  0  0  0  0  0  0  0  0
   -3.0493   -2.4210   -1.2697 H   0  0  0  0  0  0  0  0  0  0  0  0
    3.3357    1.6612   -0.0173 N   0  0  0  0  0  0  0  0  0  0  0  0
    4.0574    2.7634   -0.6699 C   0  0  2  0  0  0  0  0  0  0  0  0
    3.8588    2.7206   -2.2013 C   0  0  0  0  0  0  0  0  0  0  0  0
    3.3920    1.7132   -2.7285 O   0  0  0  0  0  0  0  0  0  0  0  0
    5.5380    2.6289   -0.3062 C   0  0  0  0  0  0  0  0  0  0  0  0
    3.5537    0.7326   -0.3668 H   0  0  0  0  0  0  0  0  0  0  0  0
    3.6997    3.7336   -0.3084 H   0  0  0  0  0  0  0  0  0  0  0  0
    5.9408    1.6797   -0.6741 H   0  0  0  0  0  0  0  0  0  0  0  0
    6.1181    3.4463   -0.7457 H   0  0  0  0  0  0  0  0  0  0  0  0
    5.6649    2.6636    0.7806 H   0  0  0  0  0  0  0  0  0  0  0  0
    4.2020    3.8020   -2.9901 N   0  0  0  0  0  0  0  0  0  0  0  0
    4.0495    3.8199   -4.4409 C   0  0  0  0  0  0  0  0  0  0  0  0
    4.5666    4.6296   -2.5259 H   0  0  0  0  0  0  0  0  0  0  0  0
    4.6575    3.0333   -4.9002 H   0  0  0  0  0  0  0  0  0  0  0  0
    3.0022    3.6635   -4.7197 H   0  0  0  0  0  0  0  0  0  0  0  0
    4.3725    4.7848   -4.8446 H   0  0  0  0  0  0  0  0  0  0  0  0
  1  2  2  0  0  0  0
  1  3  1  0  0  0  0
  1  7  1  0  0  0  0
  3  4  1  0  0  0  0
  3  5  1  0  0  0  0
  3  6  1  0  0  0  0
  7  8  1  0  0  0  0
  7 12  1  0  0  0  0
  8  9  1  0  0  0  0
  8 11  1  0  0  0  0
  8 13  1  0  0  0  0
  9 10  2  0  0  0  0
  9 17  1  0  0  0  0
 11 14  1  0  0  0  0
 11 15  1  0  0  0  0
 11 16  1  0  0  0  0
 17 18  1  0  0  0  0
 17 27  1  0  0  0  0
 18 19  1  0  0  0  0
 18 21  1  0  0  0  0
 18 28  1  0  0  0  0
 19 20  2  0  0  0  0
 19 35  1  0  0  0  0
 21 22  1  0  0  0  0
 21 29  1  0  0  0  0
 21 30  1  0  0  0  0
 22 23  1  0  0  0  0
 22 24  2  0  0  0  0
 23 25  2  0  0  0  0
 23 31  1  0  0  0  0
 24 26  1  0  0  0  0
 24 32  1  0  0  0  0
 25 26  1  0  0  0  0
 25 33  1  0  0  0  0
 26 34  1  0  0  0  0
 35 36  1  0  0  0  0
 35 40  1  0  0  0  0
 36 37  1  0  0  0  0
 36 39  1  0  0  0  0
 36 41  1  0  0  0  0
 37 38  2  0  0  0  0
 37 45  1  0  0  0  0
 39 42  1  0  0  0  0
 39 43  1  0  0  0  0
 39 44  1  0  0  0  0
 45 46  1  0  0  0  0
 45 47  1  0  0  0  0
 46 48  1  0  0  0  0
 46 49  1  0  0  0  0
 46 50  1  0  0  0  0
M  CHG  1  23   1
M  END
$$$$

  -OEChem-05262216443D

 50 50  0     1  0  0  0  0  0999 V2000
   -3.1693    0.7038    2.5265 C   0  0  0  0  0  0  0  0  0  0  0  0
   -2.7764    1.1858    1.4704 O   0  0  0  0  0  0  0  0  0  0  0  0
   -4.6038    0.2277    2.6505 C   0  0  0  0  0  0  0  0  0  0  0  0
   -5.1552    0.4376    1.7299 H   0  0  0  0  0  0  0  0  0  0  0  0
   -4.6262   -0.8486    2.8389 H   0  0  0  0  0  0  0  0  0  0  0  0
   -5.0973    0.7438    3.4781 H   0  0  0  0  0  0  0  0  0  0  0  0
   -2.3074    0.5426    3.5931 N   0  0  0  0  0  0  0  0  0  0  0  0
   -0.9391    1.0807    3.6584 C   0  0  2  0  0  0  0  0  0  0  0  0
    0.0661    0.3232    2.7580 C   0  0  0  0  0  0  0  0  0  0  0  0
    0.9424   -0.4091    3.2024 O   0  0  0  0  0  0  0  0  0  0  0  0
   -0.5139    1.0758    5.1320 C   0  0  0  0  0  0  0  0  0  0  0  0
   -2.6934    0.1289    4.4381 H   0  0  0  0  0  0  0  0  0  0  0  0
   -0.9450    2.1229    3.3197 H   0  0  0  0  0  0  0  0  0  0  0  0
   -0.4878    0.0540    5.5243 H   0  0  0  0  0  0  0  0  0  0  0  0
    0.4856    1.5108    5.2372 H   0  0  0  0  0  0  0  0  0  0  0  0
   -1.2101    1.6663    5.7354 H   0  0  0  0  0  0  0  0  0  0  0  0
   -0.0163    0.4929    1.3909 N   0  0  0  0  0  0  0  0  0  0  0  0
    1.1444    0.3207    0.5049 C   0  0  2  0  0  0  0  0  0  0  0  0
    2.3062    1.2932    0.8348 C   0  0  0  0  0  0  0  0  0  0  0  0
    2.0873    2.2970    1.5025 O   0  0  0  0  0  0  0  0  0  0  0  0
    0.6320    0.6128   -0.9186 C   0  0  0  0  0  0  0  0  0  0  0  0
   -0.4079   -0.3956   -1.3404 C   0  0  0  0  0  0  0  0  0  0  0  0
   -0.1928   -1.7179   -1.7291 N   0  3  0  0  0  0  0  0  0  0  0  0
   -1.7595   -0.1645   -1.3870 C   0  0  0  0  0  0  0  0  0  0  0  0
   -1.3352   -2.2995   -2.0054 C   0  0  0  0  0  0  0  0  0  0  0  0
   -2.3395   -1.3541   -1.8061 N   0  0  0  0  0  0  0  0  0  0  0  0
   -0.7508    1.1424    1.1052 H   0  0  0  0  0  0  0  0  0  0  0  0
    1.5235   -0.7036    0.5801 H   0  0  0  0  0  0  0  0  0  0  0  0
    1.4561    0.5905   -1.6384 H   0  0  0  0  0  0  0  0  0  0  0  0
    0.2127    1.6254   -0.9498 H   0  0  0  0  0  0  0  0  0  0  0  0
    0.7362   -2.1445   -1.7658 H   0  0  0  0  0  0  0  0  0  0  0  0
   -2.2668    0.7636   -1.1156 H   0  0  0  0  0  0  0  0  0  0  0  0
   -1.4744   -3.3330   -2.3271 H   0  0  0  0  0  0  0  0  0  0  0  0
   -3.3439   -1.5095   -1.9307 H   0  0  0  0  0  0  0  0  0  0  0  0
    3.4669    1.2399    0.0830 N   0  0  0  0  0  0  0  0  0  0  0  0
    4.2804    2.4265   -0.2249 C   0  0  2  0  0  0  0  0  0  0  0  0
    3.9621    2.9581   -1.6396 C   0  0  0  0  0  0  0  0  0  0  0  0
    3.3143    2.2652   -2.4210 O   0  0  0  0  0  0  0  0  0  0  0  0
    5.7526    2.0252   -0.1092 C   0  0  0  0  0  0  0  0  0  0  0  0
    3.5025    0.4994   -0.6112 H   0  0  0  0  0  0  0  0  0  0  0  0
    4.0875    3.2334    0.4904 H   0  0  0  0  0  0  0  0  0  0  0  0
    5.9961    1.2385   -0.8305 H   0  0  0  0  0  0  0  0  0  0  0  0
    6.4014    2.8854   -0.3007 H   0  0  0  0  0  0  0  0  0  0  0  0
    5.9645    1.6531    0.8984 H   0  0  0  0  0  0  0  0  0  0  0  0
    4.4035    4.2037   -2.0422 N   0  0  0  0  0  0  0  0  0  0  0  0
    4.1449    4.7593   -3.3659 C   0  0  0  0  0  0  0  0  0  0  0  0
    4.9176    4.7640   -1.3674 H   0  0  0  0  0  0  0  0  0  0  0  0
    4.5533    4.1054   -4.1439 H   0  0  0  0  0  0  0  0  0  0  0  0
    3.0683    4.8734   -3.5313 H   0  0  0  0  0  0  0  0  0  0  0  0
    4.6154    5.7430   -3.4619 H   0  0  0  0  0  0  0  0  0  0  0  0
  1  2  2  0  0  0  0
  1  3  1  0  0  0  0
  1  7  1  0  0  0  0
  3  4  1  0  0  0  0
  3  5  1  0  0  0  0
  3  6  1  0  0  0  0
  7  8  1  0  0  0  0
  7 12  1  0  0  0  0
  8  9  1  0  0  0  0
  8 11  1  0  0  0  0
  8 13  1  0  0  0  0
  9 10  2  0  0  0  0
  9 17  1  0  0  0  0
 11 14  1  0  0  0  0
 11 15  1  0  0  0  0
 11 16  1  0  0  0  0
 17 18  1  0  0  0  0
 17 27  1  0  0  0  0
 18 19  1  0  0  0  0
 18 21  1  0  0  0  0
 18 28  1  0  0  0  0
 19 20  2  0  0  0  0
 19 35  1  0  0  0  0
 21 22  1  0  0  0  0
 21 29  1  0  0  0  0
 21 30  1  0  0  0  0
 22 23  1  0  0  0  0
 22 24  2  0  0  0  0
 23 25  2  0  0  0  0
 23 31  1  0  0  0  0
 24 26  1  0  0  0  0
 24 32  1  0  0  0  0
 25 26  1  0  0  0  0
 25 33  1  0  0  0  0
 26 34  1  0  0  0  0
 35 36  1  0  0  0  0
 35 40  1  0  0  0  0
 36 37  1  0  0  0  0
 36 39  1  0  0  0  0
 36 41  1  0  0  0  0
 37 38  2  0  0  0  0
 37 45  1  0  0  0  0
 39 42  1  0  0  0  0
 39 43  1  0  0  0  0
 39 44  1  0  0  0  0
 45 46  1  0  0  0  0
 45 47  1  0  0  0  0
 46 48  1  0  0  0  0
 46 49  1  0  0  0  0
 46 50  1  0  0  0  0
M  CHG  1  23   1
M  END
$$$$

  -OEChem-05262216443D

 50 50  0     1  0  0  0  0  0999 V2000
   -2.9679    0.9001    2.6125 C   0  0  0  0  0  0  0  0  0  0  0  0
   -2.5571    1.3805    1.5627 O   0  0  0  0  0  0  0  0  0  0  0  0
   -4.4460    0.6023    2.7752 C   0  0  0  0  0  0  0  0  0  0  0  0
   -5.0014    0.9486    1.8990 H   0  0  0  0  0  0  0  0  0  0  0  0
   -4.6013   -0.4734    2.8909 H   0  0  0  0  0  0  0  0  0  0  0  0
   -4.8346    1.1148    3.6591 H   0  0  0  0  0  0  0  0  0  0  0  0
   -2.0949    0.5777    3.6328 N   0  0  0  0  0  0  0  0  0  0  0  0
   -0.6692    0.9424    3.6715 C   0  0  2  0  0  0  0  0  0  0  0  0
    0.2077    0.1348    2.6842 C   0  0  0  0  0  0  0  0  0  0  0  0
    1.0126   -0.7162    3.0450 O   0  0  0  0  0  0  0  0  0  0  0  0
   -0.1991    0.7840    5.1226 C   0  0  0  0  0  0  0  0  0  0  0  0
   -2.5010    0.1763    4.4744 H   0  0  0  0  0  0  0  0  0  0  0  0
   -0.5586    1.9984    3.4008 H   0  0  0  0  0  0  0  0  0  0  0  0
   -0.3013   -0.2556    5.4508 H   0  0  0  0  0  0  0  0  0  0  0  0
    0.8540    1.0713    5.2120 H   0  0  0  0  0  0  0  0  0  0  0  0
   -0.7867    1.4228    5.7891 H   0  0  0  0  0  0  0  0  0  0  0  0
    0.0813    0.3834    1.3319 N   0  0  0  0  0  0  0  0  0  0  0  0
    1.1991    0.2032    0.3916 C   0  0  2  0  0  0  0  0  0  0  0  0
    2.4288    1.0998    0.7183 C   0  0  0  0  0  0  0  0  0  0  0  0
    2.3718    1.9143    1.6318 O   0  0  0  0  0  0  0  0  0  0  0  0
    0.6213    0.5645   -0.9932 C   0  0  0  0  0  0  0  0  0  0  0  0
   -0.4731   -0.3961   -1.3911 C   0  0  0  0  0  0  0  0  0  0  0  0
   -0.3293   -1.7108   -1.8359 N   0  3  0  0  0  0  0  0  0  0  0  0
   -1.8154   -0.1131   -1.3621 C   0  0  0  0  0  0  0  0  0  0  0  0
   -1.5062   -2.2407   -2.0686 C   0  0  0  0  0  0  0  0  0  0  0  0
   -2.4618   -1.2654   -1.7892 N   0  0  0  0  0  0  0  0  0  0  0  0
   -0.6047    1.1115    1.1240 H   0  0  0  0  0  0  0  0  0  0  0  0
    1.5335   -0.8387    0.4071 H   0  0  0  0  0  0  0  0  0  0  0  0
    1.3999    0.5376   -1.7614 H   0  0  0  0  0  0  0  0  0  0  0  0
    0.2372    1.5914   -0.9683 H   0  0  0  0  0  0  0  0  0  0  0  0
    0.5781   -2.1746   -1.9244 H   0  0  0  0  0  0  0  0  0  0  0  0
   -2.2706    0.8247   -1.0369 H   0  0  0  0  0  0  0  0  0  0  0  0
   -1.7018   -3.2586   -2.4105 H   0  0  0  0  0  0  0  0  0  0  0  0
   -3.4766   -1.3801   -1.8653 H   0  0  0  0  0  0  0  0  0  0  0  0
    3.4206    1.2690   -0.2337 N   0  0  0  0  0  0  0  0  0  0  0  0
    4.1365    2.5396   -0.4314 C   0  0  2  0  0  0  0  0  0  0  0  0
    3.5406    3.3159   -1.6260 C   0  0  0  0  0  0  0  0  0  0  0  0
    2.7661    2.7501   -2.3948 O   0  0  0  0  0  0  0  0  0  0  0  0
    5.6130    2.2158   -0.6712 C   0  0  0  0  0  0  0  0  0  0  0  0
    3.3108    0.7100   -1.0740 H   0  0  0  0  0  0  0  0  0  0  0  0
    4.0649    3.1789    0.4552 H   0  0  0  0  0  0  0  0  0  0  0  0
    5.7331    1.6043   -1.5712 H   0  0  0  0  0  0  0  0  0  0  0  0
    6.1929    3.1355   -0.7963 H   0  0  0  0  0  0  0  0  0  0  0  0
    6.0220    1.6659    0.1824 H   0  0  0  0  0  0  0  0  0  0  0  0
    3.8727    4.6386   -1.8463 N   0  0  0  0  0  0  0  0  0  0  0  0
    3.3542    5.4209   -2.9625 C   0  0  0  0  0  0  0  0  0  0  0  0
    4.5021    5.0852   -1.1844 H   0  0  0  0  0  0  0  0  0  0  0  0
    3.6467    4.9689   -3.9162 H   0  0  0  0  0  0  0  0  0  0  0  0
    2.2613    5.4754   -2.9186 H   0  0  0  0  0  0  0  0  0  0  0  0
    3.7517    6.4399   -2.9281 H   0  0  0  0  0  0  0  0  0  0  0  0
  1  2  2  0  0  0  0
  1  3  1  0  0  0  0
  1  7  1  0  0  0  0
  3  4  1  0  0  0  0
  3  5  1  0  0  0  0
  3  6  1  0  0  0  0
  7  8  1  0  0  0  0
  7 12  1  0  0  0  0
  8  9  1  0  0  0  0
  8 11  1  0  0  0  0
  8 13  1  0  0  0  0
  9 10  2  0  0  0  0
  9 17  1  0  0  0  0
 11 14  1  0  0  0  0
 11 15  1  0  0  0  0
 11 16  1  0  0  0  0
 17 18  1  0  0  0  0
 17 27  1  0  0  0  0
 18 19  1  0  0  0  0
 18 21  1  0  0  0  0
 18 28  1  0  0  0  0
 19 20  2  0  0  0  0
 19 35  1  0  0  0  0
 21 22  1  0  0  0  0
 21 29  1  0  0  0  0
 21 30  1  0  0  0  0
 22 23  1  0  0  0  0
 22 24  2  0  0  0  0
 23 25  2  0  0  0  0
 23 31  1  0  0  0  0
 24 26  1  0  0  0  0
 24 32  1  0  0  0  0
 25 26  1  0  0  0  0
 25 33  1  0  0  0  0
 26 34  1  0  0  0  0
 35 36  1  0  0  0  0
 35 40  1  0  0  0  0
 36 37  1  0  0  0  0
 36 39  1  0  0  0  0
 36 41  1  0  0  0  0
 37 38  2  0  0  0  0
 37 45  1  0  0  0  0
 39 42  1  0  0  0  0
 39 43  1  0  0  0  0
 39 44  1  0  0  0  0
 45 46  1  0  0  0  0
 45 47  1  0  0  0  0
 46 48  1  0  0  0  0
 46 49  1  0  0  0  0
 46 50  1  0  0  0  0
M  CHG  1  23   1
M  END
$$$$

  -OEChem-05262216443D

 50 50  0     1  0  0  0  0  0999 V2000
   -2.7986    0.9056    2.7200 C   0  0  0  0  0  0  0  0  0  0  0  0
   -2.4388    1.4193    1.6670 O   0  0  0  0  0  0  0  0  0  0  0  0
   -4.2709    0.6314    2.9608 C   0  0  0  0  0  0  0  0  0  0  0  0
   -4.8706    1.0285    2.1371 H   0  0  0  0  0  0  0  0  0  0  0  0
   -4.4439   -0.4448    3.0386 H   0  0  0  0  0  0  0  0  0  0  0  0
   -4.5930    1.1116    3.8885 H   0  0  0  0  0  0  0  0  0  0  0  0
   -1.8729    0.5295    3.6729 N   0  0  0  0  0  0  0  0  0  0  0  0
   -0.4376    0.8523    3.6265 C   0  0  2  0  0  0  0  0  0  0  0  0
    0.3426    0.0448    2.5625 C   0  0  0  0  0  0  0  0  0  0  0  0
    1.0765   -0.8955    2.8433 O   0  0  0  0  0  0  0  0  0  0  0  0
    0.1254    0.6401    5.0366 C   0  0  0  0  0  0  0  0  0  0  0  0
   -2.2321    0.0922    4.5178 H   0  0  0  0  0  0  0  0  0  0  0  0
   -0.3131    1.9119    3.3770 H   0  0  0  0  0  0  0  0  0  0  0  0
    0.0269   -0.4073    5.3401 H   0  0  0  0  0  0  0  0  0  0  0  0
    1.1871    0.9075    5.0619 H   0  0  0  0  0  0  0  0  0  0  0  0
   -0.4043    1.2672    5.7601 H   0  0  0  0  0  0  0  0  0  0  0  0
    0.1644    0.3597    1.2298 N   0  0  0  0  0  0  0  0  0  0  0  0
    1.2151    0.1553    0.2182 C   0  0  2  0  0  0  0  0  0  0  0  0
    2.5241    0.9571    0.4958 C   0  0  0  0  0  0  0  0  0  0  0  0
    2.6930    1.5224    1.5682 O   0  0  0  0  0  0  0  0  0  0  0  0
    0.5605    0.5729   -1.1175 C   0  0  0  0  0  0  0  0  0  0  0  0
   -0.5958   -0.3366   -1.4569 C   0  0  0  0  0  0  0  0  0  0  0  0
   -0.5327   -1.6457   -1.9361 N   0  3  0  0  0  0  0  0  0  0  0  0
   -1.9213   -0.0048   -1.3313 C   0  0  0  0  0  0  0  0  0  0  0  0
   -1.7419   -2.1264   -2.0985 C   0  0  0  0  0  0  0  0  0  0  0  0
   -2.6382   -1.1229   -1.7358 N   0  0  0  0  0  0  0  0  0  0  0  0
   -0.4905    1.1306    1.0876 H   0  0  0  0  0  0  0  0  0  0  0  0
    1.4903   -0.9039    0.1855 H   0  0  0  0  0  0  0  0  0  0  0  0
    1.2794    0.5317   -1.9407 H   0  0  0  0  0  0  0  0  0  0  0  0
    0.2195    1.6130   -1.0445 H   0  0  0  0  0  0  0  0  0  0  0  0
    0.3480   -2.1430   -2.0893 H   0  0  0  0  0  0  0  0  0  0  0  0
   -2.3181    0.9415   -0.9576 H   0  0  0  0  0  0  0  0  0  0  0  0
   -1.9993   -3.1287   -2.4459 H   0  0  0  0  0  0  0  0  0  0  0  0
   -3.6593   -1.1989   -1.7448 H   0  0  0  0  0  0  0  0  0  0  0  0
    3.3125    1.3714   -0.5657 N   0  0  0  0  0  0  0  0  0  0  0  0
    3.9849    2.6791   -0.6061 C   0  0  2  0  0  0  0  0  0  0  0  0
    3.1660    3.6685   -1.4640 C   0  0  0  0  0  0  0  0  0  0  0  0
    2.2592    3.2451   -2.1787 O   0  0  0  0  0  0  0  0  0  0  0  0
    5.3820    2.4683   -1.1942 C   0  0  0  0  0  0  0  0  0  0  0  0
    3.0131    1.0344   -1.4750 H   0  0  0  0  0  0  0  0  0  0  0  0
    4.0927    3.1060    0.3969 H   0  0  0  0  0  0  0  0  0  0  0  0
    5.3173    2.0649   -2.2100 H   0  0  0  0  0  0  0  0  0  0  0  0
    5.9307    3.4144   -1.2306 H   0  0  0  0  0  0  0  0  0  0  0  0
    5.9493    1.7658   -0.5752 H   0  0  0  0  0  0  0  0  0  0  0  0
    3.4410    5.0221   -1.4455 N   0  0  0  0  0  0  0  0  0  0  0  0
    2.7138    5.9987   -2.2487 C   0  0  0  0  0  0  0  0  0  0  0  0
    4.1840    5.3468   -0.8320 H   0  0  0  0  0  0  0  0  0  0  0  0
    2.8220    5.7747   -3.3154 H   0  0  0  0  0  0  0  0  0  0  0  0
    1.6490    5.9895   -1.9933 H   0  0  0  0  0  0  0  0  0  0  0  0
    3.1032    7.0053   -2.0666 H   0  0  0  0  0  0  0  0  0  0  0  0
  1  2  2  0  0  0  0
  1  3  1  0  0  0  0
  1  7  1  0  0  0  0
  3  4  1  0  0  0  0
  3  5  1  0  0  0  0
  3  6  1  0  0  0  0
  7  8  1  0  0  0  0
  7 12  1  0  0  0  0
  8  9  1  0  0  0  0
  8 11  1  0  0  0  0
  8 13  1  0  0  0  0
  9 10  2  0  0  0  0
  9 17  1  0  0  0  0
 11 14  1  0  0  0  0
 11 15  1  0  0  0  0
 11 16  1  0  0  0  0
 17 18  1  0  0  0  0
 17 27  1  0  0  0  0
 18 19  1  0  0  0  0
 18 21  1  0  0  0  0
 18 28  1  0  0  0  0
 19 20  2  0  0  0  0
 19 35  1  0  0  0  0
 21 22  1  0  0  0  0
 21 29  1  0  0  0  0
 21 30  1  0  0  0  0
 22 23  1  0  0  0  0
 22 24  2  0  0  0  0
 23 25  2  0  0  0  0
 23 31  1  0  0  0  0
 24 26  1  0  0  0  0
 24 32  1  0  0  0  0
 25 26  1  0  0  0  0
 25 33  1  0  0  0  0
 26 34  1  0  0  0  0
 35 36  1  0  0  0  0
 35 40  1  0  0  0  0
 36 37  1  0  0  0  0
 36 39  1  0  0  0  0
 36 41  1  0  0  0  0
 37 38  2  0  0  0  0
 37 45  1  0  0  0  0
 39 42  1  0  0  0  0
 39 43  1  0  0  0  0
 39 44  1  0  0  0  0
 45 46  1  0  0  0  0
 45 47  1  0  0  0  0
 46 48  1  0  0  0  0
 46 49  1  0  0  0  0
 46 50  1  0  0  0  0
M  CHG  1  23   1
M  END
$$$$

  -OEChem-05262216443D

 50 50  0     1  0  0  0  0  0999 V2000
   -2.5616    1.0101    2.7875 C   0  0  0  0  0  0  0  0  0  0  0  0
   -2.2615    1.4894    1.7006 O   0  0  0  0  0  0  0  0  0  0  0  0
   -4.0225    0.8519    3.1624 C   0  0  0  0  0  0  0  0  0  0  0  0
   -4.6615    1.2995    2.3961 H   0  0  0  0  0  0  0  0  0  0  0  0
   -4.2722   -0.2077    3.2574 H   0  0  0  0  0  0  0  0  0  0  0  0
   -4.2190    1.3511    4.1148 H   0  0  0  0  0  0  0  0  0  0  0  0
   -1.5843    0.5663    3.6564 N   0  0  0  0  0  0  0  0  0  0  0  0
   -0.1391    0.7911    3.4863 C   0  0  2  0  0  0  0  0  0  0  0  0
    0.4925   -0.0469    2.3490 C   0  0  0  0  0  0  0  0  0  0  0  0
    1.1793   -1.0403    2.5545 O   0  0  0  0  0  0  0  0  0  0  0  0
    0.5305    0.5166    4.8382 C   0  0  0  0  0  0  0  0  0  0  0  0
   -1.8993    0.1661    4.5368 H   0  0  0  0  0  0  0  0  0  0  0  0
    0.0346    1.8442    3.2394 H   0  0  0  0  0  0  0  0  0  0  0  0
    0.3802   -0.5249    5.1405 H   0  0  0  0  0  0  0  0  0  0  0  0
    1.6077    0.7027    4.7704 H   0  0  0  0  0  0  0  0  0  0  0  0
    0.1175    1.1704    5.6121 H   0  0  0  0  0  0  0  0  0  0  0  0
    0.2088    0.2883    1.0398 N   0  0  0  0  0  0  0  0  0  0  0  0
    1.1704    0.1044   -0.0609 C   0  0  2  0  0  0  0  0  0  0  0  0
    2.4963    0.9066    0.1193 C   0  0  0  0  0  0  0  0  0  0  0  0
    2.9359    1.1559    1.2325 O   0  0  0  0  0  0  0  0  0  0  0  0
    0.4016    0.4938   -1.3409 C   0  0  0  0  0  0  0  0  0  0  0  0
   -0.7516   -0.4536   -1.5671 C   0  0  0  0  0  0  0  0  0  0  0  0
   -0.6892   -1.7676   -2.0332 N   0  3  0  0  0  0  0  0  0  0  0  0
   -2.0693   -0.1633   -1.3175 C   0  0  0  0  0  0  0  0  0  0  0  0
   -1.8911   -2.2911   -2.0695 C   0  0  0  0  0  0  0  0  0  0  0  0
   -2.7828   -1.3114   -1.6363 N   0  0  0  0  0  0  0  0  0  0  0  0
   -0.4352    1.0793    0.9711 H   0  0  0  0  0  0  0  0  0  0  0  0
    1.4560   -0.9512   -0.1159 H   0  0  0  0  0  0  0  0  0  0  0  0
    1.0547    0.4509   -2.2176 H   0  0  0  0  0  0  0  0  0  0  0  0
    0.0386    1.5256   -1.2518 H   0  0  0  0  0  0  0  0  0  0  0  0
    0.1904   -2.2415   -2.2537 H   0  0  0  0  0  0  0  0  0  0  0  0
   -2.4581    0.7747   -0.9149 H   0  0  0  0  0  0  0  0  0  0  0  0
   -2.1452   -3.3087   -2.3720 H   0  0  0  0  0  0  0  0  0  0  0  0
   -3.7961   -1.4237   -1.5397 H   0  0  0  0  0  0  0  0  0  0  0  0
    3.0332    1.6111   -0.9469 N   0  0  0  0  0  0  0  0  0  0  0  0
    3.7293    2.8964   -0.7813 C   0  0  2  0  0  0  0  0  0  0  0  0
    2.7634    4.0600   -1.0932 C   0  0  0  0  0  0  0  0  0  0  0  0
    1.7082    3.8283   -1.6804 O   0  0  0  0  0  0  0  0  0  0  0  0
    4.9276    2.9083   -1.7335 C   0  0  0  0  0  0  0  0  0  0  0  0
    2.4962    1.5496   -1.8061 H   0  0  0  0  0  0  0  0  0  0  0  0
    4.0988    3.0252    0.2417 H   0  0  0  0  0  0  0  0  0  0  0  0
    4.5966    2.8079   -2.7723 H   0  0  0  0  0  0  0  0  0  0  0  0
    5.4861    3.8447   -1.6372 H   0  0  0  0  0  0  0  0  0  0  0  0
    5.6033    2.0790   -1.5008 H   0  0  0  0  0  0  0  0  0  0  0  0
    3.0705    5.3556   -0.7243 N   0  0  0  0  0  0  0  0  0  0  0  0
    2.1927    6.4922   -0.9798 C   0  0  0  0  0  0  0  0  0  0  0  0
    3.9349    5.5095   -0.2116 H   0  0  0  0  0  0  0  0  0  0  0  0
    2.0020    6.5972   -2.0532 H   0  0  0  0  0  0  0  0  0  0  0  0
    1.2359    6.3614   -0.4637 H   0  0  0  0  0  0  0  0  0  0  0  0
    2.6550    7.4166   -0.6198 H   0  0  0  0  0  0  0  0  0  0  0  0
  1  2  2  0  0  0  0
  1  3  1  0  0  0  0
  1  7  1  0  0  0  0
  3  4  1  0  0  0  0
  3  5  1  0  0  0  0
  3  6  1  0  0  0  0
  7  8  1  0  0  0  0
  7 12  1  0  0  0  0
  8  9  1  0  0  0  0
  8 11  1  0  0  0  0
  8 13  1  0  0  0  0
  9 10  2  0  0  0  0
  9 17  1  0  0  0  0
 11 14  1  0  0  0  0
 11 15  1  0  0  0  0
 11 16  1  0  0  0  0
 17 18  1  0  0  0  0
 17 27  1  0  0  0  0
 18 19  1  0  0  0  0
 18 21  1  0  0  0  0
 18 28  1  0  0  0  0
 19 20  2  0  0  0  0
 19 35  1  0  0  0  0
 21 22  1  0  0  0  0
 21 29  1  0  0  0  0
 21 30  1  0  0  0  0
 22 23  1  0  0  0  0
 22 24  2  0  0  0  0
 23 25  2  0  0  0  0
 23 31  1  0  0  0  0
 24 26  1  0  0  0  0
 24 32  1  0  0  0  0
 25 26  1  0  0  0  0
 25 33  1  0  0  0  0
 26 34  1  0  0  0  0
 35 36  1  0  0  0  0
 35 40  1  0  0  0  0
 36 37  1  0  0  0  0
 36 39  1  0  0  0  0
 36 41  1  0  0  0  0
 37 38  2  0  0  0  0
 37 45  1  0  0  0  0
 39 42  1  0  0  0  0
 39 43  1  0  0  0  0
 39 44  1  0  0  0  0
 45 46  1  0  0  0  0
 45 47  1  0  0  0  0
 46 48  1  0  0  0  0
 46 49  1  0  0  0  0
 46 50  1  0  0  0  0
M  CHG  1  23   1
M  END
$$$$

  -OEChem-05262216443D

 50 50  0     1  0  0  0  0  0999 V2000
   -2.4673    0.9407    2.7717 C   0  0  0  0  0  0  0  0  0  0  0  0
   -2.3085    1.3534    1.6287 O   0  0  0  0  0  0  0  0  0  0  0  0
   -3.8658    0.6511    3.2814 C   0  0  0  0  0  0  0  0  0  0  0  0
   -4.6112    0.9828    2.5534 H   0  0  0  0  0  0  0  0  0  0  0  0
   -3.9876   -0.4216    3.4507 H   0  0  0  0  0  0  0  0  0  0  0  0
   -4.0372    1.1815    4.2216 H   0  0  0  0  0  0  0  0  0  0  0  0
   -1.3825    0.6925    3.5891 N   0  0  0  0  0  0  0  0  0  0  0  0
    0.0116    1.0274    3.2609 C   0  0  2  0  0  0  0  0  0  0  0  0
    0.6112    0.1342    2.1501 C   0  0  0  0  0  0  0  0  0  0  0  0
    1.3088   -0.8432    2.3886 O   0  0  0  0  0  0  0  0  0  0  0  0
    0.8263    0.9487    4.5575 C   0  0  0  0  0  0  0  0  0  0  0  0
   -1.5752    0.3167    4.5142 H   0  0  0  0  0  0  0  0  0  0  0  0
    0.0586    2.0616    2.9026 H   0  0  0  0  0  0  0  0  0  0  0  0
    0.8026   -0.0654    4.9695 H   0  0  0  0  0  0  0  0  0  0  0  0
    1.8705    1.2158    4.3632 H   0  0  0  0  0  0  0  0  0  0  0  0
    0.4271    1.6410    5.3050 H   0  0  0  0  0  0  0  0  0  0  0  0
    0.2522    0.3818    0.8405 N   0  0  0  0  0  0  0  0  0  0  0  0
    1.1406    0.1364   -0.3068 C   0  0  2  0  0  0  0  0  0  0  0  0
    2.4602    0.9589   -0.2517 C   0  0  0  0  0  0  0  0  0  0  0  0
    3.1415    0.9899    0.7615 O   0  0  0  0  0  0  0  0  0  0  0  0
    0.2966    0.4199   -1.5637 C   0  0  0  0  0  0  0  0  0  0  0  0
   -0.8480   -0.5606   -1.6523 C   0  0  0  0  0  0  0  0  0  0  0  0
   -0.7817   -1.9044   -2.0240 N   0  3  0  0  0  0  0  0  0  0  0  0
   -2.1552   -0.2798   -1.3427 C   0  0  0  0  0  0  0  0  0  0  0  0
   -1.9701   -2.4535   -1.9470 C   0  0  0  0  0  0  0  0  0  0  0  0
   -2.8583   -1.4618   -1.5348 N   0  0  0  0  0  0  0  0  0  0  0  0
   -0.4208    1.1461    0.7569 H   0  0  0  0  0  0  0  0  0  0  0  0
    1.4411   -0.9166   -0.3056 H   0  0  0  0  0  0  0  0  0  0  0  0
    0.9094    0.3270   -2.4664 H   0  0  0  0  0  0  0  0  0  0  0  0
   -0.0866    1.4473   -1.5240 H   0  0  0  0  0  0  0  0  0  0  0  0
    0.0958   -2.3780   -2.2540 H   0  0  0  0  0  0  0  0  0  0  0  0
   -2.5440    0.6748   -0.9809 H   0  0  0  0  0  0  0  0  0  0  0  0
   -2.2158   -3.4966   -2.1542 H   0  0  0  0  0  0  0  0  0  0  0  0
   -3.8604   -1.5873   -1.3647 H   0  0  0  0  0  0  0  0  0  0  0  0
    2.7706    1.8533   -1.2641 N   0  0  0  0  0  0  0  0  0  0  0  0
    3.4764    3.1093   -0.9698 C   0  0  2  0  0  0  0  0  0  0  0  0
    2.4675    4.1962   -0.5376 C   0  0  0  0  0  0  0  0  0  0  0  0
    1.2759    4.0563   -0.8052 O   0  0  0  0  0  0  0  0  0  0  0  0
    4.2306    3.5352   -2.2309 C   0  0  0  0  0  0  0  0  0  0  0  0
    2.0494    1.9457   -1.9719 H   0  0  0  0  0  0  0  0  0  0  0  0
    4.2056    2.9723   -0.1636 H   0  0  0  0  0  0  0  0  0  0  0  0
    3.5342    3.7082   -3.0576 H   0  0  0  0  0  0  0  0  0  0  0  0
    4.7887    4.4590   -2.0497 H   0  0  0  0  0  0  0  0  0  0  0  0
    4.9404    2.7568   -2.5284 H   0  0  0  0  0  0  0  0  0  0  0  0
    2.8873    5.3237    0.1413 N   0  0  0  0  0  0  0  0  0  0  0  0
    1.9783    6.3669    0.6026 C   0  0  0  0  0  0  0  0  0  0  0  0
    3.8705    5.3849    0.3924 H   0  0  0  0  0  0  0  0  0  0  0  0
    1.3969    6.7691   -0.2340 H   0  0  0  0  0  0  0  0  0  0  0  0
    1.2869    5.9685    1.3524 H   0  0  0  0  0  0  0  0  0  0  0  0
    2.5429    7.1884    1.0545 H   0  0  0  0  0  0  0  0  0  0  0  0
  1  2  2  0  0  0  0
  1  3  1  0  0  0  0
  1  7  1  0  0  0  0
  3  4  1  0  0  0  0
  3  5  1  0  0  0  0
  3  6  1  0  0  0  0
  7  8  1  0  0  0  0
  7 12  1  0  0  0  0
  8  9  1  0  0  0  0
  8 11  1  0  0  0  0
  8 13  1  0  0  0  0
  9 10  2  0  0  0  0
  9 17  1  0  0  0  0
 11 14  1  0  0  0  0
 11 15  1  0  0  0  0
 11 16  1  0  0  0  0
 17 18  1  0  0  0  0
 17 27  1  0  0  0  0
 18 19  1  0  0  0  0
 18 21  1  0  0  0  0
 18 28  1  0  0  0  0
 19 20  2  0  0  0  0
 19 35  1  0  0  0  0
 21 22  1  0  0  0  0
 21 29  1  0  0  0  0
 21 30  1  0  0  0  0
 22 23  1  0  0  0  0
 22 24  2  0  0  0  0
 23 25  2  0  0  0  0
 23 31  1  0  0  0  0
 24 26  1  0  0  0  0
 24 32  1  0  0  0  0
 25 26  1  0  0  0  0
 25 33  1  0  0  0  0
 26 34  1  0  0  0  0
 35 36  1  0  0  0  0
 35 40  1  0  0  0  0
 36 37  1  0  0  0  0
 36 39  1  0  0  0  0
 36 41  1  0  0  0  0
 37 38  2  0  0  0  0
 37 45  1  0  0  0  0
 39 42  1  0  0  0  0
 39 43  1  0  0  0  0
 39 44  1  0  0  0  0
 45 46  1  0  0  0  0
 45 47  1  0  0  0  0
 46 48  1  0  0  0  0
 46 49  1  0  0  0  0
 46 50  1  0  0  0  0
M  CHG  1  23   1
M  END
$$$$

  -OEChem-05262216443D

 50 50  0     1  0  0  0  0  0999 V2000
   -2.3998    1.0877    2.6634 C   0  0  0  0  0  0  0  0  0  0  0  0
   -2.3279    1.3591    1.4704 O   0  0  0  0  0  0  0  0  0  0  0  0
   -3.7480    0.7768    3.2852 C   0  0  0  0  0  0  0  0  0  0  0  0
   -4.5453    0.9138    2.5495 H   0  0  0  0  0  0  0  0  0  0  0  0
   -3.7671   -0.2566    3.6402 H   0  0  0  0  0  0  0  0  0  0  0  0
   -3.9328    1.4464    4.1292 H   0  0  0  0  0  0  0  0  0  0  0  0
   -1.2619    1.0173    3.4427 N   0  0  0  0  0  0  0  0  0  0  0  0
    0.0918    1.3656    2.9849 C   0  0  2  0  0  0  0  0  0  0  0  0
    0.6693    0.3570    1.9658 C   0  0  0  0  0  0  0  0  0  0  0  0
    1.3741   -0.5887    2.2924 O   0  0  0  0  0  0  0  0  0  0  0  0
    0.9865    1.4950    4.2224 C   0  0  0  0  0  0  0  0  0  0  0  0
   -1.3799    0.7367    4.4128 H   0  0  0  0  0  0  0  0  0  0  0  0
    0.0658    2.3436    2.4909 H   0  0  0  0  0  0  0  0  0  0  0  0
    1.0288    0.5484    4.7709 H   0  0  0  0  0  0  0  0  0  0  0  0
    2.0052    1.7642    3.9242 H   0  0  0  0  0  0  0  0  0  0  0  0
    0.6066    2.2724    4.8921 H   0  0  0  0  0  0  0  0  0  0  0  0
    0.2886    0.4805    0.6461 N   0  0  0  0  0  0  0  0  0  0  0  0
    1.1632    0.1502   -0.4889 C   0  0  2  0  0  0  0  0  0  0  0  0
    2.4515    1.0122   -0.4941 C   0  0  0  0  0  0  0  0  0  0  0  0
    3.2857    0.9057    0.3914 O   0  0  0  0  0  0  0  0  0  0  0  0
    0.3066    0.2994   -1.7576 C   0  0  0  0  0  0  0  0  0  0  0  0
   -0.8134   -0.7122   -1.7347 C   0  0  0  0  0  0  0  0  0  0  0  0
   -0.7177   -2.0836   -1.9760 N   0  3  0  0  0  0  0  0  0  0  0  0
   -2.1157   -0.4393   -1.3982 C   0  0  0  0  0  0  0  0  0  0  0  0
   -1.8838   -2.6555   -1.7948 C   0  0  0  0  0  0  0  0  0  0  0  0
   -2.7875   -1.6532   -1.4464 N   0  0  0  0  0  0  0  0  0  0  0  0
   -0.3610    1.2581    0.5113 H   0  0  0  0  0  0  0  0  0  0  0  0
    1.4931   -0.8902   -0.3975 H   0  0  0  0  0  0  0  0  0  0  0  0
    0.9185    0.1441   -2.6526 H   0  0  0  0  0  0  0  0  0  0  0  0
   -0.1081    1.3132   -1.8053 H   0  0  0  0  0  0  0  0  0  0  0  0
    0.1667   -2.5539   -2.1864 H   0  0  0  0  0  0  0  0  0  0  0  0
   -2.5173    0.5313   -1.0988 H   0  0  0  0  0  0  0  0  0  0  0  0
   -2.1021   -3.7215   -1.8826 H   0  0  0  0  0  0  0  0  0  0  0  0
   -3.7739   -1.7916   -1.2090 H   0  0  0  0  0  0  0  0  0  0  0  0
    2.5873    2.0538   -1.3975 N   0  0  0  0  0  0  0  0  0  0  0  0
    3.1638    3.3175   -0.9146 C   0  0  2  0  0  0  0  0  0  0  0  0
    2.1746    4.0391    0.0331 C   0  0  0  0  0  0  0  0  0  0  0  0
    0.9808    3.7420    0.0148 O   0  0  0  0  0  0  0  0  0  0  0  0
    3.4844    4.1879   -2.1315 C   0  0  0  0  0  0  0  0  0  0  0  0
    1.7845    2.1742   -2.0052 H   0  0  0  0  0  0  0  0  0  0  0  0
    4.0951    3.1287   -0.3682 H   0  0  0  0  0  0  0  0  0  0  0  0
    2.5740    4.4147   -2.6953 H   0  0  0  0  0  0  0  0  0  0  0  0
    3.9416    5.1314   -1.8174 H   0  0  0  0  0  0  0  0  0  0  0  0
    4.1857    3.6693   -2.7930 H   0  0  0  0  0  0  0  0  0  0  0  0
    2.6160    5.0071    0.9144 N   0  0  0  0  0  0  0  0  0  0  0  0
    1.7386    5.6897    1.8587 C   0  0  0  0  0  0  0  0  0  0  0  0
    3.6162    5.1855    0.9580 H   0  0  0  0  0  0  0  0  0  0  0  0
    0.9310    6.2058    1.3285 H   0  0  0  0  0  0  0  0  0  0  0  0
    1.2986    4.9731    2.5601 H   0  0  0  0  0  0  0  0  0  0  0  0
    2.3026    6.4325    2.4313 H   0  0  0  0  0  0  0  0  0  0  0  0
  1  2  2  0  0  0  0
  1  3  1  0  0  0  0
  1  7  1  0  0  0  0
  3  4  1  0  0  0  0
  3  5  1  0  0  0  0
  3  6  1  0  0  0  0
  7  8  1  0  0  0  0
  7 12  1  0  0  0  0
  8  9  1  0  0  0  0
  8 11  1  0  0  0  0
  8 13  1  0  0  0  0
  9 10  2  0  0  0  0
  9 17  1  0  0  0  0
 11 14  1  0  0  0  0
 11 15  1  0  0  0  0
 11 16  1  0  0  0  0
 17 18  1  0  0  0  0
 17 27  1  0  0  0  0
 18 19  1  0  0  0  0
 18 21  1  0  0  0  0
 18 28  1  0  0  0  0
 19 20  2  0  0  0  0
 19 35  1  0  0  0  0
 21 22  1  0  0  0  0
 21 29  1  0  0  0  0
 21 30  1  0  0  0  0
 22 23  1  0  0  0  0
 22 24  2  0  0  0  0
 23 25  2  0  0  0  0
 23 31  1  0  0  0  0
 24 26  1  0  0  0  0
 24 32  1  0  0  0  0
 25 26  1  0  0  0  0
 25 33  1  0  0  0  0
 26 34  1  0  0  0  0
 35 36  1  0  0  0  0
 35 40  1  0  0  0  0
 36 37  1  0  0  0  0
 36 39  1  0  0  0  0
 36 41  1  0  0  0  0
 37 38  2  0  0  0  0
 37 45  1  0  0  0  0
 39 42  1  0  0  0  0
 39 43  1  0  0  0  0
 39 44  1  0  0  0  0
 45 46  1  0  0  0  0
 45 47  1  0  0  0  0
 46 48  1  0  0  0  0
 46 49  1  0  0  0  0
 46 50  1  0  0  0  0
M  CHG  1  23   1
M  END
$$$$

  -OEChem-05262216443D

 50 50  0     1  0  0  0  0  0999 V2000
   -2.6073    0.9656    2.5113 C   0  0  0  0  0  0  0  0  0  0  0  0
   -2.5011    1.1896    1.3106 O   0  0  0  0  0  0  0  0  0  0  0  0
   -3.9574    0.5888    3.0906 C   0  0  0  0  0  0  0  0  0  0  0  0
   -4.7294    0.6380    2.3177 H   0  0  0  0  0  0  0  0  0  0  0  0
   -3.9223   -0.4267    3.4929 H   0  0  0  0  0  0  0  0  0  0  0  0
   -4.2241    1.2809    3.8937 H   0  0  0  0  0  0  0  0  0  0  0  0
   -1.5038    1.0086    3.3405 N   0  0  0  0  0  0  0  0  0  0  0  0
   -0.1826    1.5307    2.9556 C   0  0  2  0  0  0  0  0  0  0  0  0
    0.5928    0.6068    1.9860 C   0  0  0  0  0  0  0  0  0  0  0  0
    1.5320   -0.0911    2.3404 O   0  0  0  0  0  0  0  0  0  0  0  0
    0.6040    1.7965    4.2443 C   0  0  0  0  0  0  0  0  0  0  0  0
   -1.6597    0.7996    4.3234 H   0  0  0  0  0  0  0  0  0  0  0  0
   -0.3124    2.4923    2.4460 H   0  0  0  0  0  0  0  0  0  0  0  0
    0.7466    0.8695    4.8093 H   0  0  0  0  0  0  0  0  0  0  0  0
    1.5899    2.2088    4.0048 H   0  0  0  0  0  0  0  0  0  0  0  0
    0.0743    2.5160    4.8758 H   0  0  0  0  0  0  0  0  0  0  0  0
    0.1905    0.5736    0.6671 N   0  0  0  0  0  0  0  0  0  0  0  0
    1.0779    0.2770   -0.4665 C   0  0  2  0  0  0  0  0  0  0  0  0
    2.2323    1.2985   -0.5614 C   0  0  0  0  0  0  0  0  0  0  0  0
    3.3075    1.0691   -0.0304 O   0  0  0  0  0  0  0  0  0  0  0  0
    0.2237    0.1970   -1.7401 C   0  0  0  0  0  0  0  0  0  0  0  0
   -0.7395   -0.9589   -1.6273 C   0  0  0  0  0  0  0  0  0  0  0  0
   -0.4295   -2.3137   -1.7536 N   0  3  0  0  0  0  0  0  0  0  0  0
   -2.0765   -0.8640   -1.3319 C   0  0  0  0  0  0  0  0  0  0  0  0
   -1.4985   -3.0431   -1.5441 C   0  0  0  0  0  0  0  0  0  0  0  0
   -2.5529   -2.1681   -1.2892 N   0  0  0  0  0  0  0  0  0  0  0  0
   -0.6337    1.1529    0.4939 H   0  0  0  0  0  0  0  0  0  0  0  0
    1.5488   -0.6977   -0.2974 H   0  0  0  0  0  0  0  0  0  0  0  0
    0.8654    0.0606   -2.6177 H   0  0  0  0  0  0  0  0  0  0  0  0
   -0.3314    1.1311   -1.8762 H   0  0  0  0  0  0  0  0  0  0  0  0
    0.5210   -2.6558   -1.9197 H   0  0  0  0  0  0  0  0  0  0  0  0
   -2.6325    0.0536   -1.1277 H   0  0  0  0  0  0  0  0  0  0  0  0
   -1.5493   -4.1335   -1.5529 H   0  0  0  0  0  0  0  0  0  0  0  0
   -3.5145   -2.4392   -1.0643 H   0  0  0  0  0  0  0  0  0  0  0  0
    2.0881    2.4578   -1.3040 N   0  0  0  0  0  0  0  0  0  0  0  0
    2.8462    3.6478   -0.8901 C   0  0  2  0  0  0  0  0  0  0  0  0
    2.2503    4.2489    0.4052 C   0  0  0  0  0  0  0  0  0  0  0  0
    1.0784    4.0232    0.7010 O   0  0  0  0  0  0  0  0  0  0  0  0
    2.7974    4.6654   -2.0318 C   0  0  0  0  0  0  0  0  0  0  0  0
    1.1272    2.6510   -1.5681 H   0  0  0  0  0  0  0  0  0  0  0  0
    3.8941    3.3874   -0.7029 H   0  0  0  0  0  0  0  0  0  0  0  0
    1.7654    4.9700   -2.2340 H   0  0  0  0  0  0  0  0  0  0  0  0
    3.3768    5.5574   -1.7736 H   0  0  0  0  0  0  0  0  0  0  0  0
    3.2199    4.2328   -2.9443 H   0  0  0  0  0  0  0  0  0  0  0  0
    3.0204    5.0334    1.2417 N   0  0  0  0  0  0  0  0  0  0  0  0
    2.5360    5.5567    2.5139 C   0  0  0  0  0  0  0  0  0  0  0  0
    4.0093    5.1215    1.0228 H   0  0  0  0  0  0  0  0  0  0  0  0
    1.6279    6.1507    2.3650 H   0  0  0  0  0  0  0  0  0  0  0  0
    2.3117    4.7371    3.2046 H   0  0  0  0  0  0  0  0  0  0  0  0
    3.2940    6.1991    2.9729 H   0  0  0  0  0  0  0  0  0  0  0  0
  1  2  2  0  0  0  0
  1  3  1  0  0  0  0
  1  7  1  0  0  0  0
  3  4  1  0  0  0  0
  3  5  1  0  0  0  0
  3  6  1  0  0  0  0
  7  8  1  0  0  0  0
  7 12  1  0  0  0  0
  8  9  1  0  0  0  0
  8 11  1  0  0  0  0
  8 13  1  0  0  0  0
  9 10  2  0  0  0  0
  9 17  1  0  0  0  0
 11 14  1  0  0  0  0
 11 15  1  0  0  0  0
 11 16  1  0  0  0  0
 17 18  1  0  0  0  0
 17 27  1  0  0  0  0
 18 19  1  0  0  0  0
 18 21  1  0  0  0  0
 18 28  1  0  0  0  0
 19 20  2  0  0  0  0
 19 35  1  0  0  0  0
 21 22  1  0  0  0  0
 21 29  1  0  0  0  0
 21 30  1  0  0  0  0
 22 23  1  0  0  0  0
 22 24  2  0  0  0  0
 23 25  2  0  0  0  0
 23 31  1  0  0  0  0
 24 26  1  0  0  0  0
 24 32  1  0  0  0  0
 25 26  1  0  0  0  0
 25 33  1  0  0  0  0
 26 34  1  0  0  0  0
 35 36  1  0  0  0  0
 35 40  1  0  0  0  0
 36 37  1  0  0  0  0
 36 39  1  0  0  0  0
 36 41  1  0  0  0  0
 37 38  2  0  0  0  0
 37 45  1  0  0  0  0
 39 42  1  0  0  0  0
 39 43  1  0  0  0  0
 39 44  1  0  0  0  0
 45 46  1  0  0  0  0
 45 47  1  0  0  0  0
 46 48  1  0  0  0  0
 46 49  1  0  0  0  0
 46 50  1  0  0  0  0
M  CHG  1  23   1
M  END
$$$$

  -OEChem-05262216443D

 50 50  0     1  0  0  0  0  0999 V2000
   -2.7065    0.8022    2.4699 C   0  0  0  0  0  0  0  0  0  0  0  0
   -2.5856    1.0364    1.2724 O   0  0  0  0  0  0  0  0  0  0  0  0
   -4.0411    0.3273    3.0118 C   0  0  0  0  0  0  0  0  0  0  0  0
   -4.7822    0.2809    2.2090 H   0  0  0  0  0  0  0  0  0  0  0  0
   -3.9352   -0.6664    3.4539 H   0  0  0  0  0  0  0  0  0  0  0  0
   -4.3992    1.0204    3.7776 H   0  0  0  0  0  0  0  0  0  0  0  0
   -1.6323    0.9288    3.3287 N   0  0  0  0  0  0  0  0  0  0  0  0
   -0.3588    1.5862    2.9901 C   0  0  2  0  0  0  0  0  0  0  0  0
    0.5400    0.7612    2.0366 C   0  0  0  0  0  0  0  0  0  0  0  0
    1.5878    0.2426    2.3943 O   0  0  0  0  0  0  0  0  0  0  0  0
    0.3522    1.9181    4.3074 C   0  0  0  0  0  0  0  0  0  0  0  0
   -1.8058    0.7218    4.3092 H   0  0  0  0  0  0  0  0  0  0  0  0
   -0.5704    2.5352    2.4849 H   0  0  0  0  0  0  0  0  0  0  0  0
    0.5818    1.0041    4.8645 H   0  0  0  0  0  0  0  0  0  0  0  0
    1.2914    2.4435    4.1054 H   0  0  0  0  0  0  0  0  0  0  0  0
   -0.2742    2.5631    4.9308 H   0  0  0  0  0  0  0  0  0  0  0  0
    0.1546    0.6482    0.7160 N   0  0  0  0  0  0  0  0  0  0  0  0
    1.0591    0.3375   -0.4003 C   0  0  2  0  0  0  0  0  0  0  0  0
    2.1684    1.3984   -0.5375 C   0  0  0  0  0  0  0  0  0  0  0  0
    3.3322    1.1021   -0.3156 O   0  0  0  0  0  0  0  0  0  0  0  0
    0.2409    0.1765   -1.6890 C   0  0  0  0  0  0  0  0  0  0  0  0
   -0.6866   -1.0063   -1.5614 C   0  0  0  0  0  0  0  0  0  0  0  0
   -0.3197   -2.3509   -1.6315 N   0  3  0  0  0  0  0  0  0  0  0  0
   -2.0387   -0.9559   -1.3318 C   0  0  0  0  0  0  0  0  0  0  0  0
   -1.3684   -3.1163   -1.4496 C   0  0  0  0  0  0  0  0  0  0  0  0
   -2.4660   -2.2764   -1.2689 N   0  0  0  0  0  0  0  0  0  0  0  0
   -0.7503    1.0793    0.5156 H   0  0  0  0  0  0  0  0  0  0  0  0
    1.5638   -0.6109   -0.1836 H   0  0  0  0  0  0  0  0  0  0  0  0
    0.9125    0.0309   -2.5425 H   0  0  0  0  0  0  0  0  0  0  0  0
   -0.3387    1.0863   -1.8782 H   0  0  0  0  0  0  0  0  0  0  0  0
    0.6494   -2.6585   -1.7536 H   0  0  0  0  0  0  0  0  0  0  0  0
   -2.6410   -0.0561   -1.1916 H   0  0  0  0  0  0  0  0  0  0  0  0
   -1.3769   -4.2078   -1.4318 H   0  0  0  0  0  0  0  0  0  0  0  0
   -3.4277   -2.5788   -1.0892 H   0  0  0  0  0  0  0  0  0  0  0  0
    1.8717    2.6413   -1.0667 N   0  0  0  0  0  0  0  0  0  0  0  0
    2.6920    3.7941   -0.6704 C   0  0  2  0  0  0  0  0  0  0  0  0
    2.2429    4.3148    0.7140 C   0  0  0  0  0  0  0  0  0  0  0  0
    1.0965    4.0990    1.1023 O   0  0  0  0  0  0  0  0  0  0  0  0
    2.5364    4.8808   -1.7370 C   0  0  0  0  0  0  0  0  0  0  0  0
    0.8747    2.8379   -1.0803 H   0  0  0  0  0  0  0  0  0  0  0  0
    3.7503    3.5166   -0.6103 H   0  0  0  0  0  0  0  0  0  0  0  0
    1.4920    5.2001   -1.8133 H   0  0  0  0  0  0  0  0  0  0  0  0
    3.1471    5.7539   -1.4859 H   0  0  0  0  0  0  0  0  0  0  0  0
    2.8589    4.5033   -2.7126 H   0  0  0  0  0  0  0  0  0  0  0  0
    3.1131    5.0176    1.5244 N   0  0  0  0  0  0  0  0  0  0  0  0
    2.7620    5.4712    2.8650 C   0  0  0  0  0  0  0  0  0  0  0  0
    4.0781    5.1033    1.2159 H   0  0  0  0  0  0  0  0  0  0  0  0
    1.8926    6.1362    2.8287 H   0  0  0  0  0  0  0  0  0  0  0  0
    2.5264    4.6179    3.5095 H   0  0  0  0  0  0  0  0  0  0  0  0
    3.5971    6.0205    3.3106 H   0  0  0  0  0  0  0  0  0  0  0  0
  1  2  2  0  0  0  0
  1  3  1  0  0  0  0
  1  7  1  0  0  0  0
  3  4  1  0  0  0  0
  3  5  1  0  0  0  0
  3  6  1  0  0  0  0
  7  8  1  0  0  0  0
  7 12  1  0  0  0  0
  8  9  1  0  0  0  0
  8 11  1  0  0  0  0
  8 13  1  0  0  0  0
  9 10  2  0  0  0  0
  9 17  1  0  0  0  0
 11 14  1  0  0  0  0
 11 15  1  0  0  0  0
 11 16  1  0  0  0  0
 17 18  1  0  0  0  0
 17 27  1  0  0  0  0
 18 19  1  0  0  0  0
 18 21  1  0  0  0  0
 18 28  1  0  0  0  0
 19 20  2  0  0  0  0
 19 35  1  0  0  0  0
 21 22  1  0  0  0  0
 21 29  1  0  0  0  0
 21 30  1  0  0  0  0
 22 23  1  0  0  0  0
 22 24  2  0  0  0  0
 23 25  2  0  0  0  0
 23 31  1  0  0  0  0
 24 26  1  0  0  0  0
 24 32  1  0  0  0  0
 25 26  1  0  0  0  0
 25 33  1  0  0  0  0
 26 34  1  0  0  0  0
 35 36  1  0  0  0  0
 35 40  1  0  0  0  0
 36 37  1  0  0  0  0
 36 39  1  0  0  0  0
 36 41  1  0  0  0  0
 37 38  2  0  0  0  0
 37 45  1  0  0  0  0
 39 42  1  0  0  0  0
 39 43  1  0  0  0  0
 39 44  1  0  0  0  0
 45 46  1  0  0  0  0
 45 47  1  0  0  0  0
 46 48  1  0  0  0  0
 46 49  1  0  0  0  0
 46 50  1  0  0  0  0
M  CHG  1  23   1
M  END
$$$$

  -OEChem-05262216443D

 50 50  0     1  0  0  0  0  0999 V2000
   -2.7074    0.4711    2.5734 C   0  0  0  0  0  0  0  0  0  0  0  0
   -2.6587    0.7780    1.3872 O   0  0  0  0  0  0  0  0  0  0  0  0
   -3.9426   -0.2172    3.1226 C   0  0  0  0  0  0  0  0  0  0  0  0
   -4.7145   -0.2857    2.3512 H   0  0  0  0  0  0  0  0  0  0  0  0
   -3.6908   -1.2252    3.4608 H   0  0  0  0  0  0  0  0  0  0  0  0
   -4.3425    0.3512    3.9666 H   0  0  0  0  0  0  0  0  0  0  0  0
   -1.6300    0.6993    3.4065 N   0  0  0  0  0  0  0  0  0  0  0  0
   -0.4513    1.5080    3.0544 C   0  0  2  0  0  0  0  0  0  0  0  0
    0.5019    0.8136    2.0515 C   0  0  0  0  0  0  0  0  0  0  0  0
    1.6126    0.4080    2.3636 O   0  0  0  0  0  0  0  0  0  0  0  0
    0.2573    1.8830    4.3615 C   0  0  0  0  0  0  0  0  0  0  0  0
   -1.7350    0.4209    4.3792 H   0  0  0  0  0  0  0  0  0  0  0  0
   -0.7828    2.4411    2.5848 H   0  0  0  0  0  0  0  0  0  0  0  0
    0.6151    0.9877    4.8803 H   0  0  0  0  0  0  0  0  0  0  0  0
    1.1177    2.5268    4.1508 H   0  0  0  0  0  0  0  0  0  0  0  0
   -0.4226    2.4266    5.0243 H   0  0  0  0  0  0  0  0  0  0  0  0
    0.1011    0.7072    0.7338 N   0  0  0  0  0  0  0  0  0  0  0  0
    0.9881    0.3955   -0.3975 C   0  0  2  0  0  0  0  0  0  0  0  0
    2.1019    1.4460   -0.5481 C   0  0  0  0  0  0  0  0  0  0  0  0
    3.2631    1.0874   -0.6709 O   0  0  0  0  0  0  0  0  0  0  0  0
    0.1680    0.2710   -1.6880 C   0  0  0  0  0  0  0  0  0  0  0  0
   -0.7856   -0.8926   -1.5895 C   0  0  0  0  0  0  0  0  0  0  0  0
   -0.4402   -2.2408   -1.6875 N   0  3  0  0  0  0  0  0  0  0  0  0
   -2.1400   -0.8248   -1.3794 C   0  0  0  0  0  0  0  0  0  0  0  0
   -1.5047   -2.9925   -1.5445 C   0  0  0  0  0  0  0  0  0  0  0  0
   -2.5901   -2.1389   -1.3554 N   0  0  0  0  0  0  0  0  0  0  0  0
   -0.8634    0.9962    0.5576 H   0  0  0  0  0  0  0  0  0  0  0  0
    1.4848   -0.5604   -0.1960 H   0  0  0  0  0  0  0  0  0  0  0  0
    0.8392    0.1271   -2.5424 H   0  0  0  0  0  0  0  0  0  0  0  0
   -0.3882    1.1982   -1.8630 H   0  0  0  0  0  0  0  0  0  0  0  0
    0.5243   -2.5604   -1.8167 H   0  0  0  0  0  0  0  0  0  0  0  0
   -2.7316    0.0804   -1.2303 H   0  0  0  0  0  0  0  0  0  0  0  0
   -1.5332   -4.0837   -1.5631 H   0  0  0  0  0  0  0  0  0  0  0  0
   -3.5606   -2.4287   -1.2038 H   0  0  0  0  0  0  0  0  0  0  0  0
    1.7612    2.7667   -0.7669 N   0  0  0  0  0  0  0  0  0  0  0  0
    2.6743    3.8351   -0.3404 C   0  0  2  0  0  0  0  0  0  0  0  0
    2.2561    4.3543    1.0539 C   0  0  0  0  0  0  0  0  0  0  0  0
    1.1222    4.1281    1.4727 O   0  0  0  0  0  0  0  0  0  0  0  0
    2.6221    4.9536   -1.3832 C   0  0  0  0  0  0  0  0  0  0  0  0
    0.7882    2.9618   -0.5397 H   0  0  0  0  0  0  0  0  0  0  0  0
    3.7053    3.4704   -0.2724 H   0  0  0  0  0  0  0  0  0  0  0  0
    1.6079    5.3576   -1.4648 H   0  0  0  0  0  0  0  0  0  0  0  0
    3.2989    5.7678   -1.1056 H   0  0  0  0  0  0  0  0  0  0  0  0
    2.9265    4.5711   -2.3628 H   0  0  0  0  0  0  0  0  0  0  0  0
    3.1410    5.0674    1.8395 N   0  0  0  0  0  0  0  0  0  0  0  0
    2.8221    5.5284    3.1860 C   0  0  0  0  0  0  0  0  0  0  0  0
    4.0913    5.1797    1.4961 H   0  0  0  0  0  0  0  0  0  0  0  0
    1.9371    6.1737    3.1727 H   0  0  0  0  0  0  0  0  0  0  0  0
    2.6278    4.6768    3.8460 H   0  0  0  0  0  0  0  0  0  0  0  0
    3.6582    6.1015    3.5983 H   0  0  0  0  0  0  0  0  0  0  0  0
  1  2  2  0  0  0  0
  1  3  1  0  0  0  0
  1  7  1  0  0  0  0
  3  4  1  0  0  0  0
  3  5  1  0  0  0  0
  3  6  1  0  0  0  0
  7  8  1  0  0  0  0
  7 12  1  0  0  0  0
  8  9  1  0  0  0  0
  8 11  1  0  0  0  0
  8 13  1  0  0  0  0
  9 10  2  0  0  0  0
  9 17  1  0  0  0  0
 11 14  1  0  0  0  0
 11 15  1  0  0  0  0
 11 16  1  0  0  0  0
 17 18  1  0  0  0  0
 17 27  1  0  0  0  0
 18 19  1  0  0  0  0
 18 21  1  0  0  0  0
 18 28  1  0  0  0  0
 19 20  2  0  0  0  0
 19 35  1  0  0  0  0
 21 22  1  0  0  0  0
 21 29  1  0  0  0  0
 21 30  1  0  0  0  0
 22 23  1  0  0  0  0
 22 24  2  0  0  0  0
 23 25  2  0  0  0  0
 23 31  1  0  0  0  0
 24 26  1  0  0  0  0
 24 32  1  0  0  0  0
 25 26  1  0  0  0  0
 25 33  1  0  0  0  0
 26 34  1  0  0  0  0
 35 36  1  0  0  0  0
 35 40  1  0  0  0  0
 36 37  1  0  0  0  0
 36 39  1  0  0  0  0
 36 41  1  0  0  0  0
 37 38  2  0  0  0  0
 37 45  1  0  0  0  0
 39 42  1  0  0  0  0
 39 43  1  0  0  0  0
 39 44  1  0  0  0  0
 45 46  1  0  0  0  0
 45 47  1  0  0  0  0
 46 48  1  0  0  0  0
 46 49  1  0  0  0  0
 46 50  1  0  0  0  0
M  CHG  1  23   1
M  END
$$$$

  -OEChem-05262216443D

 50 50  0     1  0  0  0  0  0999 V2000
   -2.6534    0.2636    2.6463 C   0  0  0  0  0  0  0  0  0  0  0  0
   -2.6592    0.6595    1.4859 O   0  0  0  0  0  0  0  0  0  0  0  0
   -3.8487   -0.4982    3.1867 C   0  0  0  0  0  0  0  0  0  0  0  0
   -4.6524   -0.5175    2.4456 H   0  0  0  0  0  0  0  0  0  0  0  0
   -3.5620   -1.5251    3.4262 H   0  0  0  0  0  0  0  0  0  0  0  0
   -4.2221   -0.0128    4.0922 H   0  0  0  0  0  0  0  0  0  0  0  0
   -1.5489    0.4579    3.4518 N   0  0  0  0  0  0  0  0  0  0  0  0
   -0.4122    1.3334    3.1222 C   0  0  2  0  0  0  0  0  0  0  0  0
    0.5270    0.7508    2.0378 C   0  0  0  0  0  0  0  0  0  0  0  0
    1.6749    0.3991    2.2729 O   0  0  0  0  0  0  0  0  0  0  0  0
    0.3296    1.6339    4.4304 C   0  0  0  0  0  0  0  0  0  0  0  0
   -1.6093    0.1061    4.4042 H   0  0  0  0  0  0  0  0  0  0  0  0
   -0.7918    2.2865    2.7366 H   0  0  0  0  0  0  0  0  0  0  0  0
    0.7434    0.7164    4.8613 H   0  0  0  0  0  0  0  0  0  0  0  0
    1.1541    2.3303    4.2440 H   0  0  0  0  0  0  0  0  0  0  0  0
   -0.3461    2.0920    5.1589 H   0  0  0  0  0  0  0  0  0  0  0  0
    0.0715    0.6852    0.7343 N   0  0  0  0  0  0  0  0  0  0  0  0
    0.9207    0.4359   -0.4424 C   0  0  2  0  0  0  0  0  0  0  0  0
    2.0068    1.5129   -0.6016 C   0  0  0  0  0  0  0  0  0  0  0  0
    3.1118    1.2071   -1.0234 O   0  0  0  0  0  0  0  0  0  0  0  0
    0.0538    0.3685   -1.7061 C   0  0  0  0  0  0  0  0  0  0  0  0
   -0.8901   -0.8047   -1.6334 C   0  0  0  0  0  0  0  0  0  0  0  0
   -0.5443   -2.1445   -1.8120 N   0  3  0  0  0  0  0  0  0  0  0  0
   -2.2361   -0.7541   -1.3724 C   0  0  0  0  0  0  0  0  0  0  0  0
   -1.6005   -2.9079   -1.6680 C   0  0  0  0  0  0  0  0  0  0  0  0
   -2.6807   -2.0700   -1.3960 N   0  0  0  0  0  0  0  0  0  0  0  0
   -0.9165    0.9178    0.6107 H   0  0  0  0  0  0  0  0  0  0  0  0
    1.4391   -0.5197   -0.3063 H   0  0  0  0  0  0  0  0  0  0  0  0
    0.6938    0.2731   -2.5907 H   0  0  0  0  0  0  0  0  0  0  0  0
   -0.5113    1.3009   -1.8131 H   0  0  0  0  0  0  0  0  0  0  0  0
    0.4146   -2.4516   -1.9994 H   0  0  0  0  0  0  0  0  0  0  0  0
   -2.8247    0.1401   -1.1586 H   0  0  0  0  0  0  0  0  0  0  0  0
   -1.6269   -3.9967   -1.7421 H   0  0  0  0  0  0  0  0  0  0  0  0
   -3.6441   -2.3716   -1.2231 H   0  0  0  0  0  0  0  0  0  0  0  0
    1.6592    2.8395   -0.4483 N   0  0  0  0  0  0  0  0  0  0  0  0
    2.6409    3.8308    0.0041 C   0  0  2  0  0  0  0  0  0  0  0  0
    2.2594    4.3269    1.4168 C   0  0  0  0  0  0  0  0  0  0  0  0
    1.1420    4.0790    1.8672 O   0  0  0  0  0  0  0  0  0  0  0  0
    2.6557    4.9831   -1.0016 C   0  0  0  0  0  0  0  0  0  0  0  0
    0.7445    2.9616   -0.0153 H   0  0  0  0  0  0  0  0  0  0  0  0
    3.6440    3.3930    0.0616 H   0  0  0  0  0  0  0  0  0  0  0  0
    1.6692    5.4541   -1.0610 H   0  0  0  0  0  0  0  0  0  0  0  0
    3.3865    5.7420   -0.7059 H   0  0  0  0  0  0  0  0  0  0  0  0
    2.9265    4.6119   -1.9951 H   0  0  0  0  0  0  0  0  0  0  0  0
    3.1552    5.0470    2.1834 N   0  0  0  0  0  0  0  0  0  0  0  0
    2.8534    5.5267    3.5274 C   0  0  0  0  0  0  0  0  0  0  0  0
    4.0843    5.2055    1.8023 H   0  0  0  0  0  0  0  0  0  0  0  0
    1.9786    6.1855    3.5124 H   0  0  0  0  0  0  0  0  0  0  0  0
    2.6488    4.6856    4.1982 H   0  0  0  0  0  0  0  0  0  0  0  0
    3.7015    6.0905    3.9285 H   0  0  0  0  0  0  0  0  0  0  0  0
  1  2  2  0  0  0  0
  1  3  1  0  0  0  0
  1  7  1  0  0  0  0
  3  4  1  0  0  0  0
  3  5  1  0  0  0  0
  3  6  1  0  0  0  0
  7  8  1  0  0  0  0
  7 12  1  0  0  0  0
  8  9  1  0  0  0  0
  8 11  1  0  0  0  0
  8 13  1  0  0  0  0
  9 10  2  0  0  0  0
  9 17  1  0  0  0  0
 11 14  1  0  0  0  0
 11 15  1  0  0  0  0
 11 16  1  0  0  0  0
 17 18  1  0  0  0  0
 17 27  1  0  0  0  0
 18 19  1  0  0  0  0
 18 21  1  0  0  0  0
 18 28  1  0  0  0  0
 19 20  2  0  0  0  0
 19 35  1  0  0  0  0
 21 22  1  0  0  0  0
 21 29  1  0  0  0  0
 21 30  1  0  0  0  0
 22 23  1  0  0  0  0
 22 24  2  0  0  0  0
 23 25  2  0  0  0  0
 23 31  1  0  0  0  0
 24 26  1  0  0  0  0
 24 32  1  0  0  0  0
 25 26  1  0  0  0  0
 25 33  1  0  0  0  0
 26 34  1  0  0  0  0
 35 36  1  0  0  0  0
 35 40  1  0  0  0  0
 36 37  1  0  0  0  0
 36 39  1  0  0  0  0
 36 41  1  0  0  0  0
 37 38  2  0  0  0  0
 37 45  1  0  0  0  0
 39 42  1  0  0  0  0
 39 43  1  0  0  0  0
 39 44  1  0  0  0  0
 45 46  1  0  0  0  0
 45 47  1  0  0  0  0
 46 48  1  0  0  0  0
 46 49  1  0  0  0  0
 46 50  1  0  0  0  0
M  CHG  1  23   1
M  END
$$$$

  -OEChem-05262216443D

 50 50  0     1  0  0  0  0  0999 V2000
   -2.6735    0.1276    2.6794 C   0  0  0  0  0  0  0  0  0  0  0  0
   -2.7081    0.5890    1.5443 O   0  0  0  0  0  0  0  0  0  0  0  0
   -3.8437   -0.6871    3.1961 C   0  0  0  0  0  0  0  0  0  0  0  0
   -4.6817   -0.6350    2.4954 H   0  0  0  0  0  0  0  0  0  0  0  0
   -3.5474   -1.7318    3.3189 H   0  0  0  0  0  0  0  0  0  0  0  0
   -4.1736   -0.2954    4.1618 H   0  0  0  0  0  0  0  0  0  0  0  0
   -1.5550    0.2890    3.4725 N   0  0  0  0  0  0  0  0  0  0  0  0
   -0.4350    1.1982    3.1773 C   0  0  2  0  0  0  0  0  0  0  0  0
    0.4902    0.7004    2.0395 C   0  0  0  0  0  0  0  0  0  0  0  0
    1.6583    0.3865    2.2239 O   0  0  0  0  0  0  0  0  0  0  0  0
    0.3279    1.4138    4.4902 C   0  0  0  0  0  0  0  0  0  0  0  0
   -1.5970   -0.1125    4.4062 H   0  0  0  0  0  0  0  0  0  0  0  0
   -0.8298    2.1713    2.8643 H   0  0  0  0  0  0  0  0  0  0  0  0
    0.7541    0.4717    4.8496 H   0  0  0  0  0  0  0  0  0  0  0  0
    1.1461    2.1257    4.3396 H   0  0  0  0  0  0  0  0  0  0  0  0
   -0.3369    1.8169    5.2600 H   0  0  0  0  0  0  0  0  0  0  0  0
    0.0021    0.6690    0.7455 N   0  0  0  0  0  0  0  0  0  0  0  0
    0.8333    0.4906   -0.4587 C   0  0  2  0  0  0  0  0  0  0  0  0
    1.8893    1.5984   -0.6216 C   0  0  0  0  0  0  0  0  0  0  0  0
    2.9037    1.3829   -1.2680 O   0  0  0  0  0  0  0  0  0  0  0  0
   -0.0681    0.4573   -1.6996 C   0  0  0  0  0  0  0  0  0  0  0  0
   -0.9857   -0.7379   -1.6579 C   0  0  0  0  0  0  0  0  0  0  0  0
   -0.6157   -2.0595   -1.9080 N   0  3  0  0  0  0  0  0  0  0  0  0
   -2.3271   -0.7285   -1.3700 C   0  0  0  0  0  0  0  0  0  0  0  0
   -1.6537   -2.8509   -1.7850 C   0  0  0  0  0  0  0  0  0  0  0  0
   -2.7454   -2.0506   -1.4518 N   0  0  0  0  0  0  0  0  0  0  0  0
   -0.9954    0.8751    0.6516 H   0  0  0  0  0  0  0  0  0  0  0  0
    1.3777   -0.4563   -0.3754 H   0  0  0  0  0  0  0  0  0  0  0  0
    0.5482    0.4148   -2.6052 H   0  0  0  0  0  0  0  0  0  0  0  0
   -0.6533    1.3821   -1.7493 H   0  0  0  0  0  0  0  0  0  0  0  0
    0.3450   -2.3353   -2.1322 H   0  0  0  0  0  0  0  0  0  0  0  0
   -2.9298    0.1421   -1.1049 H   0  0  0  0  0  0  0  0  0  0  0  0
   -1.6592   -3.9347   -1.9159 H   0  0  0  0  0  0  0  0  0  0  0  0
   -3.7006   -2.3796   -1.2839 H   0  0  0  0  0  0  0  0  0  0  0  0
    1.6211    2.8598   -0.1335 N   0  0  0  0  0  0  0  0  0  0  0  0
    2.6793    3.7775    0.2950 C   0  0  2  0  0  0  0  0  0  0  0  0
    2.4017    4.2302    1.7462 C   0  0  0  0  0  0  0  0  0  0  0  0
    1.3057    4.0008    2.2555 O   0  0  0  0  0  0  0  0  0  0  0  0
    2.7043    4.9691   -0.6645 C   0  0  0  0  0  0  0  0  0  0  0  0
    0.7919    2.8989    0.4586 H   0  0  0  0  0  0  0  0  0  0  0  0
    3.6546    3.2779    0.2798 H   0  0  0  0  0  0  0  0  0  0  0  0
    1.7417    5.4903   -0.6538 H   0  0  0  0  0  0  0  0  0  0  0  0
    3.4878    5.6776   -0.3788 H   0  0  0  0  0  0  0  0  0  0  0  0
    2.9043    4.6268   -1.6849 H   0  0  0  0  0  0  0  0  0  0  0  0
    3.3690    4.8821    2.4864 N   0  0  0  0  0  0  0  0  0  0  0  0
    3.1682    5.3049    3.8678 C   0  0  0  0  0  0  0  0  0  0  0  0
    4.2784    5.0255    2.0557 H   0  0  0  0  0  0  0  0  0  0  0  0
    2.3160    5.9892    3.9404 H   0  0  0  0  0  0  0  0  0  0  0  0
    2.9802    4.4382    4.5103 H   0  0  0  0  0  0  0  0  0  0  0  0
    4.0575    5.8238    4.2386 H   0  0  0  0  0  0  0  0  0  0  0  0
  1  2  2  0  0  0  0
  1  3  1  0  0  0  0
  1  7  1  0  0  0  0
  3  4  1  0  0  0  0
  3  5  1  0  0  0  0
  3  6  1  0  0  0  0
  7  8  1  0  0  0  0
  7 12  1  0  0  0  0
  8  9  1  0  0  0  0
  8 11  1  0  0  0  0
  8 13  1  0  0  0  0
  9 10  2  0  0  0  0
  9 17  1  0  0  0  0
 11 14  1  0  0  0  0
 11 15  1  0  0  0  0
 11 16  1  0  0  0  0
 17 18  1  0  0  0  0
 17 27  1  0  0  0  0
 18 19  1  0  0  0  0
 18 21  1  0  0  0  0
 18 28  1  0  0  0  0
 19 20  2  0  0  0  0
 19 35  1  0  0  0  0
 21 22  1  0  0  0  0
 21 29  1  0  0  0  0
 21 30  1  0  0  0  0
 22 23  1  0  0  0  0
 22 24  2  0  0  0  0
 23 25  2  0  0  0  0
 23 31  1  0  0  0  0
 24 26  1  0  0  0  0
 24 32  1  0  0  0  0
 25 26  1  0  0  0  0
 25 33  1  0  0  0  0
 26 34  1  0  0  0  0
 35 36  1  0  0  0  0
 35 40  1  0  0  0  0
 36 37  1  0  0  0  0
 36 39  1  0  0  0  0
 36 41  1  0  0  0  0
 37 38  2  0  0  0  0
 37 45  1  0  0  0  0
 39 42  1  0  0  0  0
 39 43  1  0  0  0  0
 39 44  1  0  0  0  0
 45 46  1  0  0  0  0
 45 47  1  0  0  0  0
 46 48  1  0  0  0  0
 46 49  1  0  0  0  0
 46 50  1  0  0  0  0
M  CHG  1  23   1
M  END
$$$$

  -OEChem-05262216443D

 50 50  0     1  0  0  0  0  0999 V2000
   -3.0915   -0.2309    2.4832 C   0  0  0  0  0  0  0  0  0  0  0  0
   -3.0094    0.0404    1.2908 O   0  0  0  0  0  0  0  0  0  0  0  0
   -3.9610   -1.3848    2.9441 C   0  0  0  0  0  0  0  0  0  0  0  0
   -4.5047   -1.8128    2.0976 H   0  0  0  0  0  0  0  0  0  0  0  0
   -3.3421   -2.1630    3.3979 H   0  0  0  0  0  0  0  0  0  0  0  0
   -4.6865   -1.0332    3.6826 H   0  0  0  0  0  0  0  0  0  0  0  0
   -2.3565    0.4836    3.4061 N   0  0  0  0  0  0  0  0  0  0  0  0
   -1.6071    1.7112    3.1020 C   0  0  2  0  0  0  0  0  0  0  0  0
   -0.2972    1.4511    2.3182 C   0  0  0  0  0  0  0  0  0  0  0  0
    0.8052    1.5801    2.8281 O   0  0  0  0  0  0  0  0  0  0  0  0
   -1.3559    2.4328    4.4326 C   0  0  0  0  0  0  0  0  0  0  0  0
   -2.4554    0.2164    4.3833 H   0  0  0  0  0  0  0  0  0  0  0  0
   -2.2283    2.3680    2.4834 H   0  0  0  0  0  0  0  0  0  0  0  0
   -0.7532    1.8115    5.1035 H   0  0  0  0  0  0  0  0  0  0  0  0
   -0.8194    3.3720    4.2608 H   0  0  0  0  0  0  0  0  0  0  0  0
   -2.3036    2.6656    4.9280 H   0  0  0  0  0  0  0  0  0  0  0  0
   -0.3607    1.1330    0.9733 N   0  0  0  0  0  0  0  0  0  0  0  0
    0.8112    0.8141    0.1313 C   0  0  2  0  0  0  0  0  0  0  0  0
    1.8786    1.9259    0.0131 C   0  0  0  0  0  0  0  0  0  0  0  0
    2.9473    1.6548   -0.5202 O   0  0  0  0  0  0  0  0  0  0  0  0
    0.3245    0.4576   -1.2848 C   0  0  0  0  0  0  0  0  0  0  0  0
   -0.5204   -0.7913   -1.2859 C   0  0  0  0  0  0  0  0  0  0  0  0
   -0.0445   -2.0965   -1.1518 N   0  3  0  0  0  0  0  0  0  0  0  0
   -1.8807   -0.8619   -1.4467 C   0  0  0  0  0  0  0  0  0  0  0  0
   -1.0376   -2.9505   -1.2159 C   0  0  0  0  0  0  0  0  0  0  0  0
   -2.2052   -2.2113   -1.3944 N   0  0  0  0  0  0  0  0  0  0  0  0
   -1.2917    0.8594    0.6498 H   0  0  0  0  0  0  0  0  0  0  0  0
    1.3208   -0.0508    0.5684 H   0  0  0  0  0  0  0  0  0  0  0  0
    1.1832    0.3057   -1.9492 H   0  0  0  0  0  0  0  0  0  0  0  0
   -0.2479    1.2996   -1.6898 H   0  0  0  0  0  0  0  0  0  0  0  0
    0.9486   -2.3177   -1.0326 H   0  0  0  0  0  0  0  0  0  0  0  0
   -2.5684   -0.0238   -1.5657 H   0  0  0  0  0  0  0  0  0  0  0  0
   -0.9626   -4.0374   -1.1456 H   0  0  0  0  0  0  0  0  0  0  0  0
   -3.1523   -2.5940   -1.4685 H   0  0  0  0  0  0  0  0  0  0  0  0
    1.6176    3.2289    0.3909 N   0  0  0  0  0  0  0  0  0  0  0  0
    2.6267    4.2978    0.3531 C   0  0  2  0  0  0  0  0  0  0  0  0
    3.5944    4.2098    1.5553 C   0  0  0  0  0  0  0  0  0  0  0  0
    3.5858    5.0493    2.4460 O   0  0  0  0  0  0  0  0  0  0  0  0
    1.8825    5.6372    0.2833 C   0  0  0  0  0  0  0  0  0  0  0  0
    0.8601    3.3321    1.0616 H   0  0  0  0  0  0  0  0  0  0  0  0
    3.2331    4.2092   -0.5547 H   0  0  0  0  0  0  0  0  0  0  0  0
    1.2534    5.7770    1.1683 H   0  0  0  0  0  0  0  0  0  0  0  0
    2.5979    6.4648    0.2357 H   0  0  0  0  0  0  0  0  0  0  0  0
    1.2492    5.6770   -0.6079 H   0  0  0  0  0  0  0  0  0  0  0  0
    4.4623    3.1393    1.6395 N   0  0  0  0  0  0  0  0  0  0  0  0
    5.3297    2.8967    2.7853 C   0  0  0  0  0  0  0  0  0  0  0  0
    4.3604    2.4166    0.9260 H   0  0  0  0  0  0  0  0  0  0  0  0
    5.9808    3.7593    2.9632 H   0  0  0  0  0  0  0  0  0  0  0  0
    4.7327    2.7151    3.6853 H   0  0  0  0  0  0  0  0  0  0  0  0
    5.9607    2.0216    2.6038 H   0  0  0  0  0  0  0  0  0  0  0  0
  1  2  2  0  0  0  0
  1  3  1  0  0  0  0
  1  7  1  0  0  0  0
  3  4  1  0  0  0  0
  3  5  1  0  0  0  0
  3  6  1  0  0  0  0
  7  8  1  0  0  0  0
  7 12  1  0  0  0  0
  8  9  1  0  0  0  0
  8 11  1  0  0  0  0
  8 13  1  0  0  0  0
  9 10  2  0  0  0  0
  9 17  1  0  0  0  0
 11 14  1  0  0  0  0
 11 15  1  0  0  0  0
 11 16  1  0  0  0  0
 17 18  1  0  0  0  0
 17 27  1  0  0  0  0
 18 19  1  0  0  0  0
 18 21  1  0  0  0  0
 18 28  1  0  0  0  0
 19 20  2  0  0  0  0
 19 35  1  0  0  0  0
 21 22  1  0  0  0  0
 21 29  1  0  0  0  0
 21 30  1  0  0  0  0
 22 23  1  0  0  0  0
 22 24  2  0  0  0  0
 23 25  2  0  0  0  0
 23 31  1  0  0  0  0
 24 26  1  0  0  0  0
 24 32  1  0  0  0  0
 25 26  1  0  0  0  0
 25 33  1  0  0  0  0
 26 34  1  0  0  0  0
 35 36  1  0  0  0  0
 35 40  1  0  0  0  0
 36 37  1  0  0  0  0
 36 39  1  0  0  0  0
 36 41  1  0  0  0  0
 37 38  2  0  0  0  0
 37 45  1  0  0  0  0
 39 42  1  0  0  0  0
 39 43  1  0  0  0  0
 39 44  1  0  0  0  0
 45 46  1  0  0  0  0
 45 47  1  0  0  0  0
 46 48  1  0  0  0  0
 46 49  1  0  0  0  0
 46 50  1  0  0  0  0
M  CHG  1  23   1
M  END
$$$$

  -OEChem-05262216443D

 50 50  0     1  0  0  0  0  0999 V2000
   -3.2521   -0.2538    2.3760 C   0  0  0  0  0  0  0  0  0  0  0  0
   -3.0865   -0.0189    1.1847 O   0  0  0  0  0  0  0  0  0  0  0  0
   -4.1253   -1.4152    2.8104 C   0  0  0  0  0  0  0  0  0  0  0  0
   -4.5701   -1.9039    1.9395 H   0  0  0  0  0  0  0  0  0  0  0  0
   -3.5287   -2.1472    3.3605 H   0  0  0  0  0  0  0  0  0  0  0  0
   -4.9298   -1.0549    3.4570 H   0  0  0  0  0  0  0  0  0  0  0  0
   -2.6035    0.5092    3.3242 N   0  0  0  0  0  0  0  0  0  0  0  0
   -1.8358    1.7267    3.0277 C   0  0  2  0  0  0  0  0  0  0  0  0
   -0.4635    1.4339    2.3731 C   0  0  0  0  0  0  0  0  0  0  0  0
    0.5879    1.5632    2.9819 O   0  0  0  0  0  0  0  0  0  0  0  0
   -1.7011    2.5125    4.3385 C   0  0  0  0  0  0  0  0  0  0  0  0
   -2.7615    0.2700    4.3009 H   0  0  0  0  0  0  0  0  0  0  0  0
   -2.4028    2.3499    2.3274 H   0  0  0  0  0  0  0  0  0  0  0  0
   -1.1473    1.9317    5.0837 H   0  0  0  0  0  0  0  0  0  0  0  0
   -1.1640    3.4510    4.1661 H   0  0  0  0  0  0  0  0  0  0  0  0
   -2.6886    2.7527    4.7451 H   0  0  0  0  0  0  0  0  0  0  0  0
   -0.4079    1.1014    1.0316 N   0  0  0  0  0  0  0  0  0  0  0  0
    0.8194    0.7581    0.2787 C   0  0  2  0  0  0  0  0  0  0  0  0
    1.9215    1.8489    0.2211 C   0  0  0  0  0  0  0  0  0  0  0  0
    2.9109    1.6498   -0.4745 O   0  0  0  0  0  0  0  0  0  0  0  0
    0.4060    0.3938   -1.1632 C   0  0  0  0  0  0  0  0  0  0  0  0
   -0.4597   -0.8401   -1.2072 C   0  0  0  0  0  0  0  0  0  0  0  0
   -0.0223   -2.1547   -1.0384 N   0  3  0  0  0  0  0  0  0  0  0  0
   -1.8076   -0.8827   -1.4562 C   0  0  0  0  0  0  0  0  0  0  0  0
   -1.0281   -2.9874   -1.1588 C   0  0  0  0  0  0  0  0  0  0  0  0
   -2.1653   -2.2237   -1.4136 N   0  0  0  0  0  0  0  0  0  0  0  0
   -1.3133    0.8474    0.6301 H   0  0  0  0  0  0  0  0  0  0  0  0
    1.2816   -0.1122    0.7559 H   0  0  0  0  0  0  0  0  0  0  0  0
    1.2936    0.2169   -1.7816 H   0  0  0  0  0  0  0  0  0  0  0  0
   -0.1258    1.2432   -1.6064 H   0  0  0  0  0  0  0  0  0  0  0  0
    0.9566   -2.3974   -0.8614 H   0  0  0  0  0  0  0  0  0  0  0  0
   -2.4677   -0.0310   -1.6256 H   0  0  0  0  0  0  0  0  0  0  0  0
   -0.9824   -4.0754   -1.0792 H   0  0  0  0  0  0  0  0  0  0  0  0
   -3.1151   -2.5852   -1.5403 H   0  0  0  0  0  0  0  0  0  0  0  0
    1.7753    3.0764    0.8370 N   0  0  0  0  0  0  0  0  0  0  0  0
    2.7744    4.1538    0.7698 C   0  0  2  0  0  0  0  0  0  0  0  0
    3.9782    3.9048    1.7090 C   0  0  0  0  0  0  0  0  0  0  0  0
    4.2157    4.6408    2.6573 O   0  0  0  0  0  0  0  0  0  0  0  0
    2.0432    5.4671    1.0760 C   0  0  0  0  0  0  0  0  0  0  0  0
    1.1627    3.0616    1.6529 H   0  0  0  0  0  0  0  0  0  0  0  0
    3.1728    4.2254   -0.2477 H   0  0  0  0  0  0  0  0  0  0  0  0
    1.6306    5.4519    2.0898 H   0  0  0  0  0  0  0  0  0  0  0  0
    2.7340    6.3128    0.9987 H   0  0  0  0  0  0  0  0  0  0  0  0
    1.2255    5.6240    0.3665 H   0  0  0  0  0  0  0  0  0  0  0  0
    4.8088    2.8286    1.4681 N   0  0  0  0  0  0  0  0  0  0  0  0
    5.9626    2.4960    2.2940 C   0  0  0  0  0  0  0  0  0  0  0  0
    4.5500    2.2191    0.6906 H   0  0  0  0  0  0  0  0  0  0  0  0
    6.6752    3.3277    2.3089 H   0  0  0  0  0  0  0  0  0  0  0  0
    5.6496    2.2829    3.3216 H   0  0  0  0  0  0  0  0  0  0  0  0
    6.4712    1.6126    1.8964 H   0  0  0  0  0  0  0  0  0  0  0  0
  1  2  2  0  0  0  0
  1  3  1  0  0  0  0
  1  7  1  0  0  0  0
  3  4  1  0  0  0  0
  3  5  1  0  0  0  0
  3  6  1  0  0  0  0
  7  8  1  0  0  0  0
  7 12  1  0  0  0  0
  8  9  1  0  0  0  0
  8 11  1  0  0  0  0
  8 13  1  0  0  0  0
  9 10  2  0  0  0  0
  9 17  1  0  0  0  0
 11 14  1  0  0  0  0
 11 15  1  0  0  0  0
 11 16  1  0  0  0  0
 17 18  1  0  0  0  0
 17 27  1  0  0  0  0
 18 19  1  0  0  0  0
 18 21  1  0  0  0  0
 18 28  1  0  0  0  0
 19 20  2  0  0  0  0
 19 35  1  0  0  0  0
 21 22  1  0  0  0  0
 21 29  1  0  0  0  0
 21 30  1  0  0  0  0
 22 23  1  0  0  0  0
 22 24  2  0  0  0  0
 23 25  2  0  0  0  0
 23 31  1  0  0  0  0
 24 26  1  0  0  0  0
 24 32  1  0  0  0  0
 25 26  1  0  0  0  0
 25 33  1  0  0  0  0
 26 34  1  0  0  0  0
 35 36  1  0  0  0  0
 35 40  1  0  0  0  0
 36 37  1  0  0  0  0
 36 39  1  0  0  0  0
 36 41  1  0  0  0  0
 37 38  2  0  0  0  0
 37 45  1  0  0  0  0
 39 42  1  0  0  0  0
 39 43  1  0  0  0  0
 39 44  1  0  0  0  0
 45 46  1  0  0  0  0
 45 47  1  0  0  0  0
 46 48  1  0  0  0  0
 46 49  1  0  0  0  0
 46 50  1  0  0  0  0
M  CHG  1  23   1
M  END
$$$$

  -OEChem-05262216443D

 50 50  0     1  0  0  0  0  0999 V2000
   -3.5662    0.0201    2.1632 C   0  0  0  0  0  0  0  0  0  0  0  0
   -3.3175    0.3299    1.0042 O   0  0  0  0  0  0  0  0  0  0  0  0
   -4.6585   -0.9879    2.4647 C   0  0  0  0  0  0  0  0  0  0  0  0
   -5.1483   -1.3061    1.5404 H   0  0  0  0  0  0  0  0  0  0  0  0
   -4.2340   -1.8643    2.9611 H   0  0  0  0  0  0  0  0  0  0  0  0
   -5.4091   -0.5374    3.1193 H   0  0  0  0  0  0  0  0  0  0  0  0
   -2.8230    0.5533    3.1954 N   0  0  0  0  0  0  0  0  0  0  0  0
   -1.8628    1.6565    3.0443 C   0  0  2  0  0  0  0  0  0  0  0  0
   -0.5250    1.2260    2.3925 C   0  0  0  0  0  0  0  0  0  0  0  0
    0.5214    1.1968    3.0213 O   0  0  0  0  0  0  0  0  0  0  0  0
   -1.6638    2.2734    4.4349 C   0  0  0  0  0  0  0  0  0  0  0  0
   -3.0669    0.2616    4.1395 H   0  0  0  0  0  0  0  0  0  0  0  0
   -2.2998    2.4279    2.4007 H   0  0  0  0  0  0  0  0  0  0  0  0
   -1.2352    1.5398    5.1259 H   0  0  0  0  0  0  0  0  0  0  0  0
   -0.9833    3.1294    4.3778 H   0  0  0  0  0  0  0  0  0  0  0  0
   -2.6188    2.6212    4.8411 H   0  0  0  0  0  0  0  0  0  0  0  0
   -0.4911    0.9511    1.0382 N   0  0  0  0  0  0  0  0  0  0  0  0
    0.7039    0.6298    0.2256 C   0  0  2  0  0  0  0  0  0  0  0  0
    1.8245    1.7054    0.1692 C   0  0  0  0  0  0  0  0  0  0  0  0
    2.6079    1.6938   -0.7735 O   0  0  0  0  0  0  0  0  0  0  0  0
    0.2303    0.2532   -1.1952 C   0  0  0  0  0  0  0  0  0  0  0  0
   -0.6095   -0.9987   -1.1825 C   0  0  0  0  0  0  0  0  0  0  0  0
   -0.1232   -2.2965   -1.0236 N   0  3  0  0  0  0  0  0  0  0  0  0
   -1.9656   -1.0841   -1.3662 C   0  0  0  0  0  0  0  0  0  0  0  0
   -1.1069   -3.1606   -1.0873 C   0  0  0  0  0  0  0  0  0  0  0  0
   -2.2781   -2.4358   -1.2998 N   0  0  0  0  0  0  0  0  0  0  0  0
   -1.4106    0.9112    0.5933 H   0  0  0  0  0  0  0  0  0  0  0  0
    1.1821   -0.2455    0.6770 H   0  0  0  0  0  0  0  0  0  0  0  0
    1.0879    0.0828   -1.8558 H   0  0  0  0  0  0  0  0  0  0  0  0
   -0.3369    1.0899   -1.6174 H   0  0  0  0  0  0  0  0  0  0  0  0
    0.8690   -2.5037   -0.8762 H   0  0  0  0  0  0  0  0  0  0  0  0
   -2.6561   -0.2517   -1.5122 H   0  0  0  0  0  0  0  0  0  0  0  0
   -1.0222   -4.2447   -0.9929 H   0  0  0  0  0  0  0  0  0  0  0  0
   -3.2184   -2.8300   -1.3953 H   0  0  0  0  0  0  0  0  0  0  0  0
    1.8802    2.7591    1.0606 N   0  0  0  0  0  0  0  0  0  0  0  0
    3.0335    3.6705    1.0991 C   0  0  2  0  0  0  0  0  0  0  0  0
    4.2858    3.0239    1.7343 C   0  0  0  0  0  0  0  0  0  0  0  0
    4.1721    2.1225    2.5553 O   0  0  0  0  0  0  0  0  0  0  0  0
    2.6161    4.9068    1.8987 C   0  0  0  0  0  0  0  0  0  0  0  0
    1.4709    2.5221    1.9678 H   0  0  0  0  0  0  0  0  0  0  0  0
    3.2902    3.9831    0.0813 H   0  0  0  0  0  0  0  0  0  0  0  0
    2.3670    4.6297    2.9285 H   0  0  0  0  0  0  0  0  0  0  0  0
    3.4294    5.6385    1.9242 H   0  0  0  0  0  0  0  0  0  0  0  0
    1.7406    5.3782    1.4418 H   0  0  0  0  0  0  0  0  0  0  0  0
    5.5502    3.4770    1.4058 N   0  0  0  0  0  0  0  0  0  0  0  0
    6.7718    2.8938    1.9493 C   0  0  0  0  0  0  0  0  0  0  0  0
    5.6242    4.1853    0.6819 H   0  0  0  0  0  0  0  0  0  0  0  0
    6.7924    2.9935    3.0398 H   0  0  0  0  0  0  0  0  0  0  0  0
    6.8364    1.8312    1.6923 H   0  0  0  0  0  0  0  0  0  0  0  0
    7.6501    3.4025    1.5400 H   0  0  0  0  0  0  0  0  0  0  0  0
  1  2  2  0  0  0  0
  1  3  1  0  0  0  0
  1  7  1  0  0  0  0
  3  4  1  0  0  0  0
  3  5  1  0  0  0  0
  3  6  1  0  0  0  0
  7  8  1  0  0  0  0
  7 12  1  0  0  0  0
  8  9  1  0  0  0  0
  8 11  1  0  0  0  0
  8 13  1  0  0  0  0
  9 10  2  0  0  0  0
  9 17  1  0  0  0  0
 11 14  1  0  0  0  0
 11 15  1  0  0  0  0
 11 16  1  0  0  0  0
 17 18  1  0  0  0  0
 17 27  1  0  0  0  0
 18 19  1  0  0  0  0
 18 21  1  0  0  0  0
 18 28  1  0  0  0  0
 19 20  2  0  0  0  0
 19 35  1  0  0  0  0
 21 22  1  0  0  0  0
 21 29  1  0  0  0  0
 21 30  1  0  0  0  0
 22 23  1  0  0  0  0
 22 24  2  0  0  0  0
 23 25  2  0  0  0  0
 23 31  1  0  0  0  0
 24 26  1  0  0  0  0
 24 32  1  0  0  0  0
 25 26  1  0  0  0  0
 25 33  1  0  0  0  0
 26 34  1  0  0  0  0
 35 36  1  0  0  0  0
 35 40  1  0  0  0  0
 36 37  1  0  0  0  0
 36 39  1  0  0  0  0
 36 41  1  0  0  0  0
 37 38  2  0  0  0  0
 37 45  1  0  0  0  0
 39 42  1  0  0  0  0
 39 43  1  0  0  0  0
 39 44  1  0  0  0  0
 45 46  1  0  0  0  0
 45 47  1  0  0  0  0
 46 48  1  0  0  0  0
 46 49  1  0  0  0  0
 46 50  1  0  0  0  0
M  CHG  1  23   1
M  END
$$$$

  -OEChem-05262216443D

 50 50  0     1  0  0  0  0  0999 V2000
   -3.5733    0.0780    2.2411 C   0  0  0  0  0  0  0  0  0  0  0  0
   -3.3315    0.3982    1.0835 O   0  0  0  0  0  0  0  0  0  0  0  0
   -4.7083   -0.8807    2.5444 C   0  0  0  0  0  0  0  0  0  0  0  0
   -5.2361   -1.1479    1.6250 H   0  0  0  0  0  0  0  0  0  0  0  0
   -4.3176   -1.7907    3.0065 H   0  0  0  0  0  0  0  0  0  0  0  0
   -5.4185   -0.4112    3.2302 H   0  0  0  0  0  0  0  0  0  0  0  0
   -2.7890    0.5559    3.2704 N   0  0  0  0  0  0  0  0  0  0  0  0
   -1.7869    1.6225    3.1257 C   0  0  2  0  0  0  0  0  0  0  0  0
   -0.4837    1.1580    2.4292 C   0  0  0  0  0  0  0  0  0  0  0  0
    0.5752    1.0601    3.0323 O   0  0  0  0  0  0  0  0  0  0  0  0
   -1.5294    2.1953    4.5258 C   0  0  0  0  0  0  0  0  0  0  0  0
   -3.0343    0.2594    4.2125 H   0  0  0  0  0  0  0  0  0  0  0  0
   -2.2065    2.4278    2.5127 H   0  0  0  0  0  0  0  0  0  0  0  0
   -1.1141    1.4287    5.1885 H   0  0  0  0  0  0  0  0  0  0  0  0
   -0.8169    3.0249    4.4713 H   0  0  0  0  0  0  0  0  0  0  0  0
   -2.4594    2.5706    4.9641 H   0  0  0  0  0  0  0  0  0  0  0  0
   -0.5014    0.9187    1.0679 N   0  0  0  0  0  0  0  0  0  0  0  0
    0.6614    0.6767    0.1857 C   0  0  2  0  0  0  0  0  0  0  0  0
    1.7197    1.8118    0.1050 C   0  0  0  0  0  0  0  0  0  0  0  0
    2.3162    2.0062   -0.9479 O   0  0  0  0  0  0  0  0  0  0  0  0
    0.1309    0.2984   -1.2140 C   0  0  0  0  0  0  0  0  0  0  0  0
   -0.6376   -0.9976   -1.1762 C   0  0  0  0  0  0  0  0  0  0  0  0
   -0.0724   -2.2682   -1.0675 N   0  3  0  0  0  0  0  0  0  0  0  0
   -1.9960   -1.1542   -1.2764 C   0  0  0  0  0  0  0  0  0  0  0  0
   -1.0095   -3.1845   -1.0893 C   0  0  0  0  0  0  0  0  0  0  0  0
   -2.2294   -2.5224   -1.2177 N   0  0  0  0  0  0  0  0  0  0  0  0
   -1.4329    0.9528    0.6481 H   0  0  0  0  0  0  0  0  0  0  0  0
    1.2074   -0.1813    0.5910 H   0  0  0  0  0  0  0  0  0  0  0  0
    0.9601    0.1843   -1.9216 H   0  0  0  0  0  0  0  0  0  0  0  0
   -0.5016    1.1100   -1.5903 H   0  0  0  0  0  0  0  0  0  0  0  0
    0.9366   -2.4216   -0.9805 H   0  0  0  0  0  0  0  0  0  0  0  0
   -2.7372   -0.3579   -1.3652 H   0  0  0  0  0  0  0  0  0  0  0  0
   -0.8598   -4.2636   -1.0216 H   0  0  0  0  0  0  0  0  0  0  0  0
   -3.1504   -2.9674   -1.2665 H   0  0  0  0  0  0  0  0  0  0  0  0
    1.9644    2.6597    1.1670 N   0  0  0  0  0  0  0  0  0  0  0  0
    3.1751    3.4921    1.2124 C   0  0  2  0  0  0  0  0  0  0  0  0
    4.4565    2.6670    1.4793 C   0  0  0  0  0  0  0  0  0  0  0  0
    4.3886    1.5385    1.9536 O   0  0  0  0  0  0  0  0  0  0  0  0
    2.9748    4.5336    2.3156 C   0  0  0  0  0  0  0  0  0  0  0  0
    1.6522    2.2739    2.0621 H   0  0  0  0  0  0  0  0  0  0  0  0
    3.2996    4.0132    0.2572 H   0  0  0  0  0  0  0  0  0  0  0  0
    2.8619    4.0436    3.2885 H   0  0  0  0  0  0  0  0  0  0  0  0
    3.8342    5.2091    2.3660 H   0  0  0  0  0  0  0  0  0  0  0  0
    2.0783    5.1294    2.1178 H   0  0  0  0  0  0  0  0  0  0  0  0
    5.7001    3.2006    1.1959 N   0  0  0  0  0  0  0  0  0  0  0  0
    6.9468    2.4700    1.3937 C   0  0  0  0  0  0  0  0  0  0  0  0
    5.7316    4.1136    0.7523 H   0  0  0  0  0  0  0  0  0  0  0  0
    7.0496    2.1628    2.4399 H   0  0  0  0  0  0  0  0  0  0  0  0
    6.9725    1.5768    0.7606 H   0  0  0  0  0  0  0  0  0  0  0  0
    7.8021    3.1022    1.1356 H   0  0  0  0  0  0  0  0  0  0  0  0
  1  2  2  0  0  0  0
  1  3  1  0  0  0  0
  1  7  1  0  0  0  0
  3  4  1  0  0  0  0
  3  5  1  0  0  0  0
  3  6  1  0  0  0  0
  7  8  1  0  0  0  0
  7 12  1  0  0  0  0
  8  9  1  0  0  0  0
  8 11  1  0  0  0  0
  8 13  1  0  0  0  0
  9 10  2  0  0  0  0
  9 17  1  0  0  0  0
 11 14  1  0  0  0  0
 11 15  1  0  0  0  0
 11 16  1  0  0  0  0
 17 18  1  0  0  0  0
 17 27  1  0  0  0  0
 18 19  1  0  0  0  0
 18 21  1  0  0  0  0
 18 28  1  0  0  0  0
 19 20  2  0  0  0  0
 19 35  1  0  0  0  0
 21 22  1  0  0  0  0
 21 29  1  0  0  0  0
 21 30  1  0  0  0  0
 22 23  1  0  0  0  0
 22 24  2  0  0  0  0
 23 25  2  0  0  0  0
 23 31  1  0  0  0  0
 24 26  1  0  0  0  0
 24 32  1  0  0  0  0
 25 26  1  0  0  0  0
 25 33  1  0  0  0  0
 26 34  1  0  0  0  0
 35 36  1  0  0  0  0
 35 40  1  0  0  0  0
 36 37  1  0  0  0  0
 36 39  1  0  0  0  0
 36 41  1  0  0  0  0
 37 38  2  0  0  0  0
 37 45  1  0  0  0  0
 39 42  1  0  0  0  0
 39 43  1  0  0  0  0
 39 44  1  0  0  0  0
 45 46  1  0  0  0  0
 45 47  1  0  0  0  0
 46 48  1  0  0  0  0
 46 49  1  0  0  0  0
 46 50  1  0  0  0  0
M  CHG  1  23   1
M  END
$$$$

  -OEChem-05262216443D

 50 50  0     1  0  0  0  0  0999 V2000
   -3.5262   -0.0043    2.3266 C   0  0  0  0  0  0  0  0  0  0  0  0
   -3.3287    0.3189    1.1615 O   0  0  0  0  0  0  0  0  0  0  0  0
   -4.6014   -1.0197    2.6621 C   0  0  0  0  0  0  0  0  0  0  0  0
   -5.1643   -1.2880    1.7640 H   0  0  0  0  0  0  0  0  0  0  0  0
   -4.1476   -1.9221    3.0791 H   0  0  0  0  0  0  0  0  0  0  0  0
   -5.2945   -0.5998    3.3959 H   0  0  0  0  0  0  0  0  0  0  0  0
   -2.7415    0.5181    3.3340 N   0  0  0  0  0  0  0  0  0  0  0  0
   -1.7761    1.6126    3.1549 C   0  0  2  0  0  0  0  0  0  0  0  0
   -0.4770    1.1746    2.4346 C   0  0  0  0  0  0  0  0  0  0  0  0
    0.5870    1.0563    3.0274 O   0  0  0  0  0  0  0  0  0  0  0  0
   -1.5024    2.2074    4.5422 C   0  0  0  0  0  0  0  0  0  0  0  0
   -2.9443    0.2126    4.2832 H   0  0  0  0  0  0  0  0  0  0  0  0
   -2.2327    2.3987    2.5434 H   0  0  0  0  0  0  0  0  0  0  0  0
   -1.0547    1.4582    5.2038 H   0  0  0  0  0  0  0  0  0  0  0  0
   -0.8116    3.0530    4.4629 H   0  0  0  0  0  0  0  0  0  0  0  0
   -2.4316    2.5657    4.9962 H   0  0  0  0  0  0  0  0  0  0  0  0
   -0.5167    0.9381    1.0732 N   0  0  0  0  0  0  0  0  0  0  0  0
    0.6351    0.7447    0.1672 C   0  0  2  0  0  0  0  0  0  0  0  0
    1.6357    1.9293    0.0785 C   0  0  0  0  0  0  0  0  0  0  0  0
    2.0597    2.2927   -1.0124 O   0  0  0  0  0  0  0  0  0  0  0  0
    0.0937    0.3525   -1.2232 C   0  0  0  0  0  0  0  0  0  0  0  0
   -0.6237   -0.9722   -1.1748 C   0  0  0  0  0  0  0  0  0  0  0  0
   -0.0147   -2.2237   -1.0811 N   0  3  0  0  0  0  0  0  0  0  0  0
   -1.9782   -1.1730   -1.2467 C   0  0  0  0  0  0  0  0  0  0  0  0
   -0.9223   -3.1697   -1.0803 C   0  0  0  0  0  0  0  0  0  0  0  0
   -2.1658   -2.5479   -1.1837 N   0  0  0  0  0  0  0  0  0  0  0  0
   -1.4541    0.9738    0.6672 H   0  0  0  0  0  0  0  0  0  0  0  0
    1.2264   -0.0918    0.5543 H   0  0  0  0  0  0  0  0  0  0  0  0
    0.9156    0.2749   -1.9444 H   0  0  0  0  0  0  0  0  0  0  0  0
   -0.5768    1.1400   -1.5850 H   0  0  0  0  0  0  0  0  0  0  0  0
    1.0002   -2.3443   -1.0135 H   0  0  0  0  0  0  0  0  0  0  0  0
   -2.7462   -0.4007   -1.3183 H   0  0  0  0  0  0  0  0  0  0  0  0
   -0.7369   -4.2432   -1.0117 H   0  0  0  0  0  0  0  0  0  0  0  0
   -3.0728   -3.0223   -1.2123 H   0  0  0  0  0  0  0  0  0  0  0  0
    2.0792    2.5808    1.2116 N   0  0  0  0  0  0  0  0  0  0  0  0
    3.3417    3.3316    1.2176 C   0  0  2  0  0  0  0  0  0  0  0  0
    4.5823    2.4059    1.1952 C   0  0  0  0  0  0  0  0  0  0  0  0
    4.4707    1.2003    1.3947 O   0  0  0  0  0  0  0  0  0  0  0  0
    3.3428    4.2040    2.4754 C   0  0  0  0  0  0  0  0  0  0  0  0
    1.8351    2.0969    2.0801 H   0  0  0  0  0  0  0  0  0  0  0  0
    3.3893    3.9835    0.3387 H   0  0  0  0  0  0  0  0  0  0  0  0
    3.3146    3.5792    3.3746 H   0  0  0  0  0  0  0  0  0  0  0  0
    4.2426    4.8255    2.5131 H   0  0  0  0  0  0  0  0  0  0  0  0
    2.4691    4.8634    2.4807 H   0  0  0  0  0  0  0  0  0  0  0  0
    5.8394    2.9294    0.9538 N   0  0  0  0  0  0  0  0  0  0  0  0
    7.0488    2.1153    0.9073 C   0  0  0  0  0  0  0  0  0  0  0  0
    5.9072    3.9223    0.7507 H   0  0  0  0  0  0  0  0  0  0  0  0
    7.1828    1.5730    1.8496 H   0  0  0  0  0  0  0  0  0  0  0  0
    6.9907    1.3896    0.0892 H   0  0  0  0  0  0  0  0  0  0  0  0
    7.9269    2.7482    0.7468 H   0  0  0  0  0  0  0  0  0  0  0  0
  1  2  2  0  0  0  0
  1  3  1  0  0  0  0
  1  7  1  0  0  0  0
  3  4  1  0  0  0  0
  3  5  1  0  0  0  0
  3  6  1  0  0  0  0
  7  8  1  0  0  0  0
  7 12  1  0  0  0  0
  8  9  1  0  0  0  0
  8 11  1  0  0  0  0
  8 13  1  0  0  0  0
  9 10  2  0  0  0  0
  9 17  1  0  0  0  0
 11 14  1  0  0  0  0
 11 15  1  0  0  0  0
 11 16  1  0  0  0  0
 17 18  1  0  0  0  0
 17 27  1  0  0  0  0
 18 19  1  0  0  0  0
 18 21  1  0  0  0  0
 18 28  1  0  0  0  0
 19 20  2  0  0  0  0
 19 35  1  0  0  0  0
 21 22  1  0  0  0  0
 21 29  1  0  0  0  0
 21 30  1  0  0  0  0
 22 23  1  0  0  0  0
 22 24  2  0  0  0  0
 23 25  2  0  0  0  0
 23 31  1  0  0  0  0
 24 26  1  0  0  0  0
 24 32  1  0  0  0  0
 25 26  1  0  0  0  0
 25 33  1  0  0  0  0
 26 34  1  0  0  0  0
 35 36  1  0  0  0  0
 35 40  1  0  0  0  0
 36 37  1  0  0  0  0
 36 39  1  0  0  0  0
 36 41  1  0  0  0  0
 37 38  2  0  0  0  0
 37 45  1  0  0  0  0
 39 42  1  0  0  0  0
 39 43  1  0  0  0  0
 39 44  1  0  0  0  0
 45 46  1  0  0  0  0
 45 47  1  0  0  0  0
 46 48  1  0  0  0  0
 46 49  1  0  0  0  0
 46 50  1  0  0  0  0
M  CHG  1  23   1
M  END
$$$$

  -OEChem-05262216443D

 50 50  0     1  0  0  0  0  0999 V2000
   -3.5143   -0.0078    2.3471 C   0  0  0  0  0  0  0  0  0  0  0  0
   -3.3161    0.3169    1.1823 O   0  0  0  0  0  0  0  0  0  0  0  0
   -4.5722   -1.0431    2.6778 C   0  0  0  0  0  0  0  0  0  0  0  0
   -5.0737   -1.3783    1.7661 H   0  0  0  0  0  0  0  0  0  0  0  0
   -4.1132   -1.9058    3.1670 H   0  0  0  0  0  0  0  0  0  0  0  0
   -5.3196   -0.6107    3.3483 H   0  0  0  0  0  0  0  0  0  0  0  0
   -2.7460    0.5301    3.3593 N   0  0  0  0  0  0  0  0  0  0  0  0
   -1.7986    1.6413    3.1856 C   0  0  2  0  0  0  0  0  0  0  0  0
   -0.4918    1.2293    2.4638 C   0  0  0  0  0  0  0  0  0  0  0  0
    0.5728    1.1127    3.0579 O   0  0  0  0  0  0  0  0  0  0  0  0
   -1.5317    2.2356    4.5742 C   0  0  0  0  0  0  0  0  0  0  0  0
   -2.9479    0.2201    4.3072 H   0  0  0  0  0  0  0  0  0  0  0  0
   -2.2691    2.4224    2.5782 H   0  0  0  0  0  0  0  0  0  0  0  0
   -1.0723    1.4911    5.2328 H   0  0  0  0  0  0  0  0  0  0  0  0
   -0.8526    3.0911    4.4957 H   0  0  0  0  0  0  0  0  0  0  0  0
   -2.4653    2.5789    5.0308 H   0  0  0  0  0  0  0  0  0  0  0  0
   -0.5256    1.0029    1.1007 N   0  0  0  0  0  0  0  0  0  0  0  0
    0.6386    0.8614    0.2042 C   0  0  2  0  0  0  0  0  0  0  0  0
    1.5825    2.0896    0.1443 C   0  0  0  0  0  0  0  0  0  0  0  0
    1.8789    2.5935   -0.9329 O   0  0  0  0  0  0  0  0  0  0  0  0
    0.1315    0.4675   -1.1968 C   0  0  0  0  0  0  0  0  0  0  0  0
   -0.5364   -0.8833   -1.1728 C   0  0  0  0  0  0  0  0  0  0  0  0
    0.1180   -2.1121   -1.0851 N   0  3  0  0  0  0  0  0  0  0  0  0
   -1.8822   -1.1328   -1.2536 C   0  0  0  0  0  0  0  0  0  0  0  0
   -0.7540   -3.0909   -1.1021 C   0  0  0  0  0  0  0  0  0  0  0  0
   -2.0188   -2.5142   -1.2078 N   0  0  0  0  0  0  0  0  0  0  0  0
   -1.4602    1.0349    0.6882 H   0  0  0  0  0  0  0  0  0  0  0  0
    1.2604    0.0439    0.5845 H   0  0  0  0  0  0  0  0  0  0  0  0
    0.9674    0.4347   -1.9052 H   0  0  0  0  0  0  0  0  0  0  0  0
   -0.5644    1.2333   -1.5570 H   0  0  0  0  0  0  0  0  0  0  0  0
    1.1362   -2.1956   -1.0089 H   0  0  0  0  0  0  0  0  0  0  0  0
   -2.6773   -0.3879   -1.3188 H   0  0  0  0  0  0  0  0  0  0  0  0
   -0.5298   -4.1578   -1.0436 H   0  0  0  0  0  0  0  0  0  0  0  0
   -2.9075   -3.0213   -1.2459 H   0  0  0  0  0  0  0  0  0  0  0  0
    2.2114    2.5372    1.2873 N   0  0  0  0  0  0  0  0  0  0  0  0
    3.5476    3.1419    1.2294 C   0  0  2  0  0  0  0  0  0  0  0  0
    4.6500    2.1042    0.9045 C   0  0  0  0  0  0  0  0  0  0  0  0
    4.4102    0.8996    0.9282 O   0  0  0  0  0  0  0  0  0  0  0  0
    3.8086    3.7987    2.5873 C   0  0  0  0  0  0  0  0  0  0  0  0
    1.9955    1.9808    2.1191 H   0  0  0  0  0  0  0  0  0  0  0  0
    3.5699    3.9158    0.4545 H   0  0  0  0  0  0  0  0  0  0  0  0
    3.8066    3.0465    3.3831 H   0  0  0  0  0  0  0  0  0  0  0  0
    4.7785    4.3053    2.5909 H   0  0  0  0  0  0  0  0  0  0  0  0
    3.0329    4.5392    2.8060 H   0  0  0  0  0  0  0  0  0  0  0  0
    5.9256    2.5258    0.5783 N   0  0  0  0  0  0  0  0  0  0  0  0
    7.0122    1.6113    0.2476 C   0  0  0  0  0  0  0  0  0  0  0  0
    6.0930    3.5265    0.5257 H   0  0  0  0  0  0  0  0  0  0  0  0
    7.2059    0.9283    1.0817 H   0  0  0  0  0  0  0  0  0  0  0  0
    6.7598    1.0211   -0.6398 H   0  0  0  0  0  0  0  0  0  0  0  0
    7.9293    2.1716    0.0412 H   0  0  0  0  0  0  0  0  0  0  0  0
  1  2  2  0  0  0  0
  1  3  1  0  0  0  0
  1  7  1  0  0  0  0
  3  4  1  0  0  0  0
  3  5  1  0  0  0  0
  3  6  1  0  0  0  0
  7  8  1  0  0  0  0
  7 12  1  0  0  0  0
  8  9  1  0  0  0  0
  8 11  1  0  0  0  0
  8 13  1  0  0  0  0
  9 10  2  0  0  0  0
  9 17  1  0  0  0  0
 11 14  1  0  0  0  0
 11 15  1  0  0  0  0
 11 16  1  0  0  0  0
 17 18  1  0  0  0  0
 17 27  1  0  0  0  0
 18 19  1  0  0  0  0
 18 21  1  0  0  0  0
 18 28  1  0  0  0  0
 19 20  2  0  0  0  0
 19 35  1  0  0  0  0
 21 22  1  0  0  0  0
 21 29  1  0  0  0  0
 21 30  1  0  0  0  0
 22 23  1  0  0  0  0
 22 24  2  0  0  0  0
 23 25  2  0  0  0  0
 23 31  1  0  0  0  0
 24 26  1  0  0  0  0
 24 32  1  0  0  0  0
 25 26  1  0  0  0  0
 25 33  1  0  0  0  0
 26 34  1  0  0  0  0
 35 36  1  0  0  0  0
 35 40  1  0  0  0  0
 36 37  1  0  0  0  0
 36 39  1  0  0  0  0
 36 41  1  0  0  0  0
 37 38  2  0  0  0  0
 37 45  1  0  0  0  0
 39 42  1  0  0  0  0
 39 43  1  0  0  0  0
 39 44  1  0  0  0  0
 45 46  1  0  0  0  0
 45 47  1  0  0  0  0
 46 48  1  0  0  0  0
 46 49  1  0  0  0  0
 46 50  1  0  0  0  0
M  CHG  1  23   1
M  END
$$$$

  -OEChem-05262216443D

 50 50  0     1  0  0  0  0  0999 V2000
   -3.4665   -0.0810    2.2804 C   0  0  0  0  0  0  0  0  0  0  0  0
   -3.2590    0.2896    1.1315 O   0  0  0  0  0  0  0  0  0  0  0  0
   -4.4868   -1.1698    2.5510 C   0  0  0  0  0  0  0  0  0  0  0  0
   -5.0008   -1.4460    1.6262 H   0  0  0  0  0  0  0  0  0  0  0  0
   -3.9930   -2.0547    2.9602 H   0  0  0  0  0  0  0  0  0  0  0  0
   -5.2298   -0.8136    3.2691 H   0  0  0  0  0  0  0  0  0  0  0  0
   -2.7481    0.4596    3.3277 N   0  0  0  0  0  0  0  0  0  0  0  0
   -1.8770    1.6404    3.2200 C   0  0  2  0  0  0  0  0  0  0  0  0
   -0.5320    1.3565    2.5060 C   0  0  0  0  0  0  0  0  0  0  0  0
    0.5373    1.3259    3.1040 O   0  0  0  0  0  0  0  0  0  0  0  0
   -1.6785    2.1868    4.6393 C   0  0  0  0  0  0  0  0  0  0  0  0
   -2.9674    0.1167    4.2602 H   0  0  0  0  0  0  0  0  0  0  0  0
   -2.3909    2.4130    2.6373 H   0  0  0  0  0  0  0  0  0  0  0  0
   -1.1777    1.4471    5.2729 H   0  0  0  0  0  0  0  0  0  0  0  0
   -1.0634    3.0924    4.6147 H   0  0  0  0  0  0  0  0  0  0  0  0
   -2.6428    2.4398    5.0910 H   0  0  0  0  0  0  0  0  0  0  0  0
   -0.5358    1.1481    1.1404 N   0  0  0  0  0  0  0  0  0  0  0  0
    0.6523    1.1022    0.2710 C   0  0  2  0  0  0  0  0  0  0  0  0
    1.5055    2.3915    0.2516 C   0  0  0  0  0  0  0  0  0  0  0  0
    1.6885    3.0028   -0.7947 O   0  0  0  0  0  0  0  0  0  0  0  0
    0.2279    0.6779   -1.1456 C   0  0  0  0  0  0  0  0  0  0  0  0
   -0.3233   -0.7230   -1.1318 C   0  0  0  0  0  0  0  0  0  0  0  0
    0.4469   -1.8793   -1.0157 N   0  3  0  0  0  0  0  0  0  0  0  0
   -1.6360   -1.1021   -1.2430 C   0  0  0  0  0  0  0  0  0  0  0  0
   -0.3238   -2.9391   -1.0426 C   0  0  0  0  0  0  0  0  0  0  0  0
   -1.6364   -2.4904   -1.1872 N   0  0  0  0  0  0  0  0  0  0  0  0
   -1.4635    1.1165    0.7119 H   0  0  0  0  0  0  0  0  0  0  0  0
    1.3203    0.3269    0.6617 H   0  0  0  0  0  0  0  0  0  0  0  0
    1.0876    0.7180   -1.8246 H   0  0  0  0  0  0  0  0  0  0  0  0
   -0.5184    1.3829   -1.5281 H   0  0  0  0  0  0  0  0  0  0  0  0
    1.4657   -1.8574   -0.9027 H   0  0  0  0  0  0  0  0  0  0  0  0
   -2.4974   -0.4380   -1.3332 H   0  0  0  0  0  0  0  0  0  0  0  0
    0.0037   -3.9773   -0.9641 H   0  0  0  0  0  0  0  0  0  0  0  0
   -2.4696   -3.0828   -1.2405 H   0  0  0  0  0  0  0  0  0  0  0  0
    2.3080    2.6643    1.3392 N   0  0  0  0  0  0  0  0  0  0  0  0
    3.7140    3.0308    1.1315 C   0  0  2  0  0  0  0  0  0  0  0  0
    4.5561    1.8535    0.5736 C   0  0  0  0  0  0  0  0  0  0  0  0
    4.0795    0.7242    0.4633 O   0  0  0  0  0  0  0  0  0  0  0  0
    4.2630    3.5050    2.4795 C   0  0  0  0  0  0  0  0  0  0  0  0
    2.1067    2.0692    2.1472 H   0  0  0  0  0  0  0  0  0  0  0  0
    3.7762    3.8593    0.4173 H   0  0  0  0  0  0  0  0  0  0  0  0
    4.2351    2.6923    3.2127 H   0  0  0  0  0  0  0  0  0  0  0  0
    5.2977    3.8460    2.3768 H   0  0  0  0  0  0  0  0  0  0  0  0
    3.6630    4.3380    2.8599 H   0  0  0  0  0  0  0  0  0  0  0  0
    5.8616    2.0656    0.1705 N   0  0  0  0  0  0  0  0  0  0  0  0
    6.7122    1.0220   -0.3909 C   0  0  0  0  0  0  0  0  0  0  0  0
    6.2260    3.0122    0.2345 H   0  0  0  0  0  0  0  0  0  0  0  0
    6.7847    0.1735    0.2979 H   0  0  0  0  0  0  0  0  0  0  0  0
    6.3065    0.6687   -1.3448 H   0  0  0  0  0  0  0  0  0  0  0  0
    7.7211    1.4088   -0.5659 H   0  0  0  0  0  0  0  0  0  0  0  0
  1  2  2  0  0  0  0
  1  3  1  0  0  0  0
  1  7  1  0  0  0  0
  3  4  1  0  0  0  0
  3  5  1  0  0  0  0
  3  6  1  0  0  0  0
  7  8  1  0  0  0  0
  7 12  1  0  0  0  0
  8  9  1  0  0  0  0
  8 11  1  0  0  0  0
  8 13  1  0  0  0  0
  9 10  2  0  0  0  0
  9 17  1  0  0  0  0
 11 14  1  0  0  0  0
 11 15  1  0  0  0  0
 11 16  1  0  0  0  0
 17 18  1  0  0  0  0
 17 27  1  0  0  0  0
 18 19  1  0  0  0  0
 18 21  1  0  0  0  0
 18 28  1  0  0  0  0
 19 20  2  0  0  0  0
 19 35  1  0  0  0  0
 21 22  1  0  0  0  0
 21 29  1  0  0  0  0
 21 30  1  0  0  0  0
 22 23  1  0  0  0  0
 22 24  2  0  0  0  0
 23 25  2  0  0  0  0
 23 31  1  0  0  0  0
 24 26  1  0  0  0  0
 24 32  1  0  0  0  0
 25 26  1  0  0  0  0
 25 33  1  0  0  0  0
 26 34  1  0  0  0  0
 35 36  1  0  0  0  0
 35 40  1  0  0  0  0
 36 37  1  0  0  0  0
 36 39  1  0  0  0  0
 36 41  1  0  0  0  0
 37 38  2  0  0  0  0
 37 45  1  0  0  0  0
 39 42  1  0  0  0  0
 39 43  1  0  0  0  0
 39 44  1  0  0  0  0
 45 46  1  0  0  0  0
 45 47  1  0  0  0  0
 46 48  1  0  0  0  0
 46 49  1  0  0  0  0
 46 50  1  0  0  0  0
M  CHG  1  23   1
M  END
$$$$

  -OEChem-05262216443D

 50 50  0     1  0  0  0  0  0999 V2000
   -3.3561   -0.2175    2.3082 C   0  0  0  0  0  0  0  0  0  0  0  0
   -3.1781    0.1711    1.1600 O   0  0  0  0  0  0  0  0  0  0  0  0
   -4.2330   -1.4269    2.5707 C   0  0  0  0  0  0  0  0  0  0  0  0
   -4.6694   -1.7894    1.6361 H   0  0  0  0  0  0  0  0  0  0  0  0
   -3.6410   -2.2283    3.0196 H   0  0  0  0  0  0  0  0  0  0  0  0
   -5.0439   -1.1585    3.2531 H   0  0  0  0  0  0  0  0  0  0  0  0
   -2.7236    0.4092    3.3632 N   0  0  0  0  0  0  0  0  0  0  0  0
   -1.9561    1.6593    3.2541 C   0  0  2  0  0  0  0  0  0  0  0  0
   -0.5820    1.4750    2.5651 C   0  0  0  0  0  0  0  0  0  0  0  0
    0.4750    1.4750    3.1870 O   0  0  0  0  0  0  0  0  0  0  0  0
   -1.8224    2.2407    4.6669 C   0  0  0  0  0  0  0  0  0  0  0  0
   -2.9012    0.0393    4.2940 H   0  0  0  0  0  0  0  0  0  0  0  0
   -2.5240    2.3783    2.6533 H   0  0  0  0  0  0  0  0  0  0  0  0
   -1.2736    1.5534    5.3191 H   0  0  0  0  0  0  0  0  0  0  0  0
   -1.2808    3.1918    4.6355 H   0  0  0  0  0  0  0  0  0  0  0  0
   -2.8100    2.4228    5.1018 H   0  0  0  0  0  0  0  0  0  0  0  0
   -0.5417    1.3046    1.1950 N   0  0  0  0  0  0  0  0  0  0  0  0
    0.6866    1.2858    0.3877 C   0  0  2  0  0  0  0  0  0  0  0  0
    1.5343    2.5741    0.4503 C   0  0  0  0  0  0  0  0  0  0  0  0
    1.6364    3.2995   -0.5322 O   0  0  0  0  0  0  0  0  0  0  0  0
    0.3650    0.8961   -1.0638 C   0  0  0  0  0  0  0  0  0  0  0  0
   -0.1669   -0.5085   -1.1198 C   0  0  0  0  0  0  0  0  0  0  0  0
    0.6254   -1.6461   -0.9778 N   0  3  0  0  0  0  0  0  0  0  0  0
   -1.4610   -0.9144   -1.3140 C   0  0  0  0  0  0  0  0  0  0  0  0
   -0.1151   -2.7234   -1.0713 C   0  0  0  0  0  0  0  0  0  0  0  0
   -1.4286   -2.3034   -1.2832 N   0  0  0  0  0  0  0  0  0  0  0  0
   -1.4494    1.2148    0.7340 H   0  0  0  0  0  0  0  0  0  0  0  0
    1.3272    0.4969    0.7952 H   0  0  0  0  0  0  0  0  0  0  0  0
    1.2691    0.9655   -1.6802 H   0  0  0  0  0  0  0  0  0  0  0  0
   -0.3642    1.6011   -1.4775 H   0  0  0  0  0  0  0  0  0  0  0  0
    1.6368   -1.5973   -0.8098 H   0  0  0  0  0  0  0  0  0  0  0  0
   -2.3326   -0.2698   -1.4383 H   0  0  0  0  0  0  0  0  0  0  0  0
    0.2343   -3.7544   -0.9952 H   0  0  0  0  0  0  0  0  0  0  0  0
   -2.2426   -2.9145   -1.3919 H   0  0  0  0  0  0  0  0  0  0  0  0
    2.4984    2.6370    1.4342 N   0  0  0  0  0  0  0  0  0  0  0  0
    3.9003    2.8458    1.0529 C   0  0  2  0  0  0  0  0  0  0  0  0
    4.4763    1.6784    0.2065 C   0  0  0  0  0  0  0  0  0  0  0  0
    3.8641    0.6176    0.0677 O   0  0  0  0  0  0  0  0  0  0  0  0
    4.7031    3.0236    2.3445 C   0  0  0  0  0  0  0  0  0  0  0  0
    2.3246    1.9917    2.2073 H   0  0  0  0  0  0  0  0  0  0  0  0
    3.9804    3.7644    0.4614 H   0  0  0  0  0  0  0  0  0  0  0  0
    4.6609    2.1138    2.9522 H   0  0  0  0  0  0  0  0  0  0  0  0
    5.7515    3.2434    2.1206 H   0  0  0  0  0  0  0  0  0  0  0  0
    4.2968    3.8535    2.9319 H   0  0  0  0  0  0  0  0  0  0  0  0
    5.6950    1.8278   -0.4284 N   0  0  0  0  0  0  0  0  0  0  0  0
    6.2964    0.8043   -1.2754 C   0  0  0  0  0  0  0  0  0  0  0  0
    6.1610    2.7275   -0.3438 H   0  0  0  0  0  0  0  0  0  0  0  0
    6.4285   -0.1284   -0.7168 H   0  0  0  0  0  0  0  0  0  0  0  0
    5.6633    0.6083   -2.1471 H   0  0  0  0  0  0  0  0  0  0  0  0
    7.2783    1.1341   -1.6287 H   0  0  0  0  0  0  0  0  0  0  0  0
  1  2  2  0  0  0  0
  1  3  1  0  0  0  0
  1  7  1  0  0  0  0
  3  4  1  0  0  0  0
  3  5  1  0  0  0  0
  3  6  1  0  0  0  0
  7  8  1  0  0  0  0
  7 12  1  0  0  0  0
  8  9  1  0  0  0  0
  8 11  1  0  0  0  0
  8 13  1  0  0  0  0
  9 10  2  0  0  0  0
  9 17  1  0  0  0  0
 11 14  1  0  0  0  0
 11 15  1  0  0  0  0
 11 16  1  0  0  0  0
 17 18  1  0  0  0  0
 17 27  1  0  0  0  0
 18 19  1  0  0  0  0
 18 21  1  0  0  0  0
 18 28  1  0  0  0  0
 19 20  2  0  0  0  0
 19 35  1  0  0  0  0
 21 22  1  0  0  0  0
 21 29  1  0  0  0  0
 21 30  1  0  0  0  0
 22 23  1  0  0  0  0
 22 24  2  0  0  0  0
 23 25  2  0  0  0  0
 23 31  1  0  0  0  0
 24 26  1  0  0  0  0
 24 32  1  0  0  0  0
 25 26  1  0  0  0  0
 25 33  1  0  0  0  0
 26 34  1  0  0  0  0
 35 36  1  0  0  0  0
 35 40  1  0  0  0  0
 36 37  1  0  0  0  0
 36 39  1  0  0  0  0
 36 41  1  0  0  0  0
 37 38  2  0  0  0  0
 37 45  1  0  0  0  0
 39 42  1  0  0  0  0
 39 43  1  0  0  0  0
 39 44  1  0  0  0  0
 45 46  1  0  0  0  0
 45 47  1  0  0  0  0
 46 48  1  0  0  0  0
 46 49  1  0  0  0  0
 46 50  1  0  0  0  0
M  CHG  1  23   1
M  END
$$$$

  -OEChem-05262216443D

 50 50  0     1  0  0  0  0  0999 V2000
   -3.2904   -0.2570    2.3049 C   0  0  0  0  0  0  0  0  0  0  0  0
   -3.1024    0.2341    1.1985 O   0  0  0  0  0  0  0  0  0  0  0  0
   -4.1876   -1.4709    2.4510 C   0  0  0  0  0  0  0  0  0  0  0  0
   -4.5438   -1.8007    1.4713 H   0  0  0  0  0  0  0  0  0  0  0  0
   -3.6378   -2.2901    2.9207 H   0  0  0  0  0  0  0  0  0  0  0  0
   -5.0523   -1.2209    3.0713 H   0  0  0  0  0  0  0  0  0  0  0  0
   -2.6623    0.2633    3.4188 N   0  0  0  0  0  0  0  0  0  0  0  0
   -1.9113    1.5283    3.4407 C   0  0  2  0  0  0  0  0  0  0  0  0
   -0.5391    1.4450    2.7280 C   0  0  0  0  0  0  0  0  0  0  0  0
    0.5257    1.4140    3.3358 O   0  0  0  0  0  0  0  0  0  0  0  0
   -1.7748    1.9538    4.9080 C   0  0  0  0  0  0  0  0  0  0  0  0
   -2.8624   -0.1848    4.3098 H   0  0  0  0  0  0  0  0  0  0  0  0
   -2.4946    2.2997    2.9256 H   0  0  0  0  0  0  0  0  0  0  0  0
   -1.1999    1.2141    5.4750 H   0  0  0  0  0  0  0  0  0  0  0  0
   -1.2584    2.9168    4.9770 H   0  0  0  0  0  0  0  0  0  0  0  0
   -2.7610    2.0602    5.3698 H   0  0  0  0  0  0  0  0  0  0  0  0
   -0.5038    1.4224    1.3485 N   0  0  0  0  0  0  0  0  0  0  0  0
    0.7283    1.4953    0.5546 C   0  0  2  0  0  0  0  0  0  0  0  0
    1.6003    2.7532    0.7304 C   0  0  0  0  0  0  0  0  0  0  0  0
    1.5780    3.6336   -0.1211 O   0  0  0  0  0  0  0  0  0  0  0  0
    0.4417    1.2264   -0.9304 C   0  0  0  0  0  0  0  0  0  0  0  0
   -0.0504   -0.1786   -1.1052 C   0  0  0  0  0  0  0  0  0  0  0  0
    0.8095   -1.2712   -1.0319 N   0  3  0  0  0  0  0  0  0  0  0  0
   -1.3157   -0.6402   -1.3513 C   0  0  0  0  0  0  0  0  0  0  0  0
    0.1377   -2.3802   -1.2195 C   0  0  0  0  0  0  0  0  0  0  0  0
   -1.1967   -2.0237   -1.4251 N   0  0  0  0  0  0  0  0  0  0  0  0
   -1.4088    1.3519    0.8788 H   0  0  0  0  0  0  0  0  0  0  0  0
    1.3514    0.6659    0.9030 H   0  0  0  0  0  0  0  0  0  0  0  0
    1.3482    1.3732   -1.5286 H   0  0  0  0  0  0  0  0  0  0  0  0
   -0.3034    1.9437   -1.2915 H   0  0  0  0  0  0  0  0  0  0  0  0
    1.8151   -1.1662   -0.8404 H   0  0  0  0  0  0  0  0  0  0  0  0
   -2.2218   -0.0394   -1.4427 H   0  0  0  0  0  0  0  0  0  0  0  0
    0.5488   -3.3909   -1.2138 H   0  0  0  0  0  0  0  0  0  0  0  0
   -1.9689   -2.6728   -1.5987 H   0  0  0  0  0  0  0  0  0  0  0  0
    2.7497    2.5736    1.4731 N   0  0  0  0  0  0  0  0  0  0  0  0
    4.0559    2.6812    0.8091 C   0  0  2  0  0  0  0  0  0  0  0  0
    4.3293    1.5367   -0.2068 C   0  0  0  0  0  0  0  0  0  0  0  0
    3.6125    0.5336   -0.2736 O   0  0  0  0  0  0  0  0  0  0  0  0
    5.1228    2.6909    1.9073 C   0  0  0  0  0  0  0  0  0  0  0  0
    2.6606    1.8323    2.1677 H   0  0  0  0  0  0  0  0  0  0  0  0
    4.1079    3.6323    0.2672 H   0  0  0  0  0  0  0  0  0  0  0  0
    5.1139    1.7470    2.4620 H   0  0  0  0  0  0  0  0  0  0  0  0
    6.1189    2.8318    1.4766 H   0  0  0  0  0  0  0  0  0  0  0  0
    4.9350    3.5090    2.6104 H   0  0  0  0  0  0  0  0  0  0  0  0
    5.3930    1.6426   -1.0830 N   0  0  0  0  0  0  0  0  0  0  0  0
    5.7330    0.6314   -2.0776 C   0  0  0  0  0  0  0  0  0  0  0  0
    5.9569    2.4879   -1.0353 H   0  0  0  0  0  0  0  0  0  0  0  0
    5.9590   -0.3239   -1.5922 H   0  0  0  0  0  0  0  0  0  0  0  0
    4.9035    0.4857   -2.7773 H   0  0  0  0  0  0  0  0  0  0  0  0
    6.6134    0.9435   -2.6484 H   0  0  0  0  0  0  0  0  0  0  0  0
  1  2  2  0  0  0  0
  1  3  1  0  0  0  0
  1  7  1  0  0  0  0
  3  4  1  0  0  0  0
  3  5  1  0  0  0  0
  3  6  1  0  0  0  0
  7  8  1  0  0  0  0
  7 12  1  0  0  0  0
  8  9  1  0  0  0  0
  8 11  1  0  0  0  0
  8 13  1  0  0  0  0
  9 10  2  0  0  0  0
  9 17  1  0  0  0  0
 11 14  1  0  0  0  0
 11 15  1  0  0  0  0
 11 16  1  0  0  0  0
 17 18  1  0  0  0  0
 17 27  1  0  0  0  0
 18 19  1  0  0  0  0
 18 21  1  0  0  0  0
 18 28  1  0  0  0  0
 19 20  2  0  0  0  0
 19 35  1  0  0  0  0
 21 22  1  0  0  0  0
 21 29  1  0  0  0  0
 21 30  1  0  0  0  0
 22 23  1  0  0  0  0
 22 24  2  0  0  0  0
 23 25  2  0  0  0  0
 23 31  1  0  0  0  0
 24 26  1  0  0  0  0
 24 32  1  0  0  0  0
 25 26  1  0  0  0  0
 25 33  1  0  0  0  0
 26 34  1  0  0  0  0
 35 36  1  0  0  0  0
 35 40  1  0  0  0  0
 36 37  1  0  0  0  0
 36 39  1  0  0  0  0
 36 41  1  0  0  0  0
 37 38  2  0  0  0  0
 37 45  1  0  0  0  0
 39 42  1  0  0  0  0
 39 43  1  0  0  0  0
 39 44  1  0  0  0  0
 45 46  1  0  0  0  0
 45 47  1  0  0  0  0
 46 48  1  0  0  0  0
 46 49  1  0  0  0  0
 46 50  1  0  0  0  0
M  CHG  1  23   1
M  END
$$$$

  -OEChem-05262216443D

 50 50  0     1  0  0  0  0  0999 V2000
   -3.3429   -0.1353    2.2409 C   0  0  0  0  0  0  0  0  0  0  0  0
   -3.1144    0.4537    1.1914 O   0  0  0  0  0  0  0  0  0  0  0  0
   -4.3345   -1.2825    2.2636 C   0  0  0  0  0  0  0  0  0  0  0  0
   -4.8560   -1.3523    1.3049 H   0  0  0  0  0  0  0  0  0  0  0  0
   -3.8137   -2.2240    2.4551 H   0  0  0  0  0  0  0  0  0  0  0  0
   -5.0751   -1.1196    3.0508 H   0  0  0  0  0  0  0  0  0  0  0  0
   -2.6709    0.2067    3.3972 N   0  0  0  0  0  0  0  0  0  0  0  0
   -1.8148    1.3939    3.5467 C   0  0  2  0  0  0  0  0  0  0  0  0
   -0.4465    1.2590    2.8356 C   0  0  0  0  0  0  0  0  0  0  0  0
    0.6071    1.1028    3.4425 O   0  0  0  0  0  0  0  0  0  0  0  0
   -1.6640    1.6605    5.0493 C   0  0  0  0  0  0  0  0  0  0  0  0
   -2.9017   -0.3199    4.2364 H   0  0  0  0  0  0  0  0  0  0  0  0
   -2.3204    2.2601    3.1058 H   0  0  0  0  0  0  0  0  0  0  0  0
   -1.1655    0.8207    5.5447 H   0  0  0  0  0  0  0  0  0  0  0  0
   -1.0658    2.5622    5.2155 H   0  0  0  0  0  0  0  0  0  0  0  0
   -2.6442    1.8089    5.5122 H   0  0  0  0  0  0  0  0  0  0  0  0
   -0.4006    1.3370    1.4589 N   0  0  0  0  0  0  0  0  0  0  0  0
    0.8431    1.4254    0.6861 C   0  0  2  0  0  0  0  0  0  0  0  0
    1.7464    2.6399    0.9729 C   0  0  0  0  0  0  0  0  0  0  0  0
    1.5730    3.6767    0.3445 O   0  0  0  0  0  0  0  0  0  0  0  0
    0.5172    1.3499   -0.8154 C   0  0  0  0  0  0  0  0  0  0  0  0
   -0.0707    0.0112   -1.1489 C   0  0  0  0  0  0  0  0  0  0  0  0
    0.7060   -1.1414   -1.2287 N   0  3  0  0  0  0  0  0  0  0  0  0
   -1.3719   -0.3268   -1.4101 C   0  0  0  0  0  0  0  0  0  0  0  0
   -0.0502   -2.1686   -1.5294 C   0  0  0  0  0  0  0  0  0  0  0  0
   -1.3584   -1.6961   -1.6504 N   0  0  0  0  0  0  0  0  0  0  0  0
   -1.3021    1.4207    0.9854 H   0  0  0  0  0  0  0  0  0  0  0  0
    1.4356    0.5394    0.9365 H   0  0  0  0  0  0  0  0  0  0  0  0
    1.4177    1.5172   -1.4152 H   0  0  0  0  0  0  0  0  0  0  0  0
   -0.1887    2.1479   -1.0716 H   0  0  0  0  0  0  0  0  0  0  0  0
    1.7222   -1.1306   -1.0702 H   0  0  0  0  0  0  0  0  0  0  0  0
   -2.2331    0.3436   -1.3998 H   0  0  0  0  0  0  0  0  0  0  0  0
    0.2846   -3.1986   -1.6602 H   0  0  0  0  0  0  0  0  0  0  0  0
   -2.1807   -2.2626   -1.8756 H   0  0  0  0  0  0  0  0  0  0  0  0
    3.0155    2.3371    1.4253 N   0  0  0  0  0  0  0  0  0  0  0  0
    4.1848    2.6011    0.5774 C   0  0  2  0  0  0  0  0  0  0  0  0
    4.3854    1.5130   -0.5112 C   0  0  0  0  0  0  0  0  0  0  0  0
    3.6636    0.5132   -0.5665 O   0  0  0  0  0  0  0  0  0  0  0  0
    5.4013    2.6848    1.5035 C   0  0  0  0  0  0  0  0  0  0  0  0
    3.0495    1.4648    1.9495 H   0  0  0  0  0  0  0  0  0  0  0  0
    4.0707    3.5667    0.0719 H   0  0  0  0  0  0  0  0  0  0  0  0
    5.5668    1.7288    2.0107 H   0  0  0  0  0  0  0  0  0  0  0  0
    6.3027    2.9394    0.9379 H   0  0  0  0  0  0  0  0  0  0  0  0
    5.2441    3.4583    2.2628 H   0  0  0  0  0  0  0  0  0  0  0  0
    5.3696    1.6721   -1.4679 N   0  0  0  0  0  0  0  0  0  0  0  0
    5.6436    0.7041   -2.5237 C   0  0  0  0  0  0  0  0  0  0  0  0
    5.9436    2.5102   -1.4147 H   0  0  0  0  0  0  0  0  0  0  0  0
    5.8889   -0.2732   -2.0949 H   0  0  0  0  0  0  0  0  0  0  0  0
    4.7742    0.5948   -3.1803 H   0  0  0  0  0  0  0  0  0  0  0  0
    6.4931    1.0360   -3.1291 H   0  0  0  0  0  0  0  0  0  0  0  0
  1  2  2  0  0  0  0
  1  3  1  0  0  0  0
  1  7  1  0  0  0  0
  3  4  1  0  0  0  0
  3  5  1  0  0  0  0
  3  6  1  0  0  0  0
  7  8  1  0  0  0  0
  7 12  1  0  0  0  0
  8  9  1  0  0  0  0
  8 11  1  0  0  0  0
  8 13  1  0  0  0  0
  9 10  2  0  0  0  0
  9 17  1  0  0  0  0
 11 14  1  0  0  0  0
 11 15  1  0  0  0  0
 11 16  1  0  0  0  0
 17 18  1  0  0  0  0
 17 27  1  0  0  0  0
 18 19  1  0  0  0  0
 18 21  1  0  0  0  0
 18 28  1  0  0  0  0
 19 20  2  0  0  0  0
 19 35  1  0  0  0  0
 21 22  1  0  0  0  0
 21 29  1  0  0  0  0
 21 30  1  0  0  0  0
 22 23  1  0  0  0  0
 22 24  2  0  0  0  0
 23 25  2  0  0  0  0
 23 31  1  0  0  0  0
 24 26  1  0  0  0  0
 24 32  1  0  0  0  0
 25 26  1  0  0  0  0
 25 33  1  0  0  0  0
 26 34  1  0  0  0  0
 35 36  1  0  0  0  0
 35 40  1  0  0  0  0
 36 37  1  0  0  0  0
 36 39  1  0  0  0  0
 36 41  1  0  0  0  0
 37 38  2  0  0  0  0
 37 45  1  0  0  0  0
 39 42  1  0  0  0  0
 39 43  1  0  0  0  0
 39 44  1  0  0  0  0
 45 46  1  0  0  0  0
 45 47  1  0  0  0  0
 46 48  1  0  0  0  0
 46 49  1  0  0  0  0
 46 50  1  0  0  0  0
M  CHG  1  23   1
M  END
$$$$

  -OEChem-05262216443D

 50 50  0     1  0  0  0  0  0999 V2000
   -3.4511    0.2095    2.2676 C   0  0  0  0  0  0  0  0  0  0  0  0
   -3.1059    0.7161    1.2067 O   0  0  0  0  0  0  0  0  0  0  0  0
   -4.6556   -0.7114    2.3080 C   0  0  0  0  0  0  0  0  0  0  0  0
   -5.1244   -0.7670    1.3219 H   0  0  0  0  0  0  0  0  0  0  0  0
   -4.3498   -1.7157    2.6117 H   0  0  0  0  0  0  0  0  0  0  0  0
   -5.3910   -0.3323    3.0225 H   0  0  0  0  0  0  0  0  0  0  0  0
   -2.7237    0.4287    3.4203 N   0  0  0  0  0  0  0  0  0  0  0  0
   -1.6280    1.4025    3.5498 C   0  0  2  0  0  0  0  0  0  0  0  0
   -0.3205    0.9581    2.8492 C   0  0  0  0  0  0  0  0  0  0  0  0
    0.6833    0.6217    3.4658 O   0  0  0  0  0  0  0  0  0  0  0  0
   -1.4242    1.6592    5.0481 C   0  0  0  0  0  0  0  0  0  0  0  0
   -3.0568   -0.0253    4.2673 H   0  0  0  0  0  0  0  0  0  0  0  0
   -1.9316    2.3493    3.0892 H   0  0  0  0  0  0  0  0  0  0  0  0
   -1.1242    0.7396    5.5613 H   0  0  0  0  0  0  0  0  0  0  0  0
   -0.6411    2.4091    5.2005 H   0  0  0  0  0  0  0  0  0  0  0  0
   -2.3474    2.0308    5.5032 H   0  0  0  0  0  0  0  0  0  0  0  0
   -0.2693    0.9617    1.4706 N   0  0  0  0  0  0  0  0  0  0  0  0
    0.9788    0.8858    0.7013 C   0  0  2  0  0  0  0  0  0  0  0  0
    1.9544    2.0478    0.9804 C   0  0  0  0  0  0  0  0  0  0  0  0
    1.6321    3.1845    0.6576 O   0  0  0  0  0  0  0  0  0  0  0  0
    0.6133    0.8956   -0.7938 C   0  0  0  0  0  0  0  0  0  0  0  0
   -0.1819   -0.3251   -1.1725 C   0  0  0  0  0  0  0  0  0  0  0  0
    0.3361   -1.6095   -1.3301 N   0  3  0  0  0  0  0  0  0  0  0  0
   -1.5324   -0.3860   -1.4018 C   0  0  0  0  0  0  0  0  0  0  0  0
   -0.6215   -2.4453   -1.6519 C   0  0  0  0  0  0  0  0  0  0  0  0
   -1.8077   -1.7138   -1.7026 N   0  0  0  0  0  0  0  0  0  0  0  0
   -1.1263    1.2657    1.0053 H   0  0  0  0  0  0  0  0  0  0  0  0
    1.4907   -0.0505    0.9448 H   0  0  0  0  0  0  0  0  0  0  0  0
    1.5217    0.9394   -1.4032 H   0  0  0  0  0  0  0  0  0  0  0  0
    0.0372    1.8008   -1.0178 H   0  0  0  0  0  0  0  0  0  0  0  0
    1.3334   -1.8209   -1.2290 H   0  0  0  0  0  0  0  0  0  0  0  0
   -2.2407    0.4416   -1.3293 H   0  0  0  0  0  0  0  0  0  0  0  0
   -0.5091   -3.5135   -1.8459 H   0  0  0  0  0  0  0  0  0  0  0  0
   -2.7351   -2.0895   -1.9197 H   0  0  0  0  0  0  0  0  0  0  0  0
    3.2889    1.7457    1.1720 N   0  0  0  0  0  0  0  0  0  0  0  0
    4.3503    2.4795    0.4714 C   0  0  2  0  0  0  0  0  0  0  0  0
    4.6225    1.8629   -0.9211 C   0  0  0  0  0  0  0  0  0  0  0  0
    4.1127    0.7874   -1.2350 O   0  0  0  0  0  0  0  0  0  0  0  0
    5.6036    2.4341    1.3493 C   0  0  0  0  0  0  0  0  0  0  0  0
    3.4749    0.7598    1.3344 H   0  0  0  0  0  0  0  0  0  0  0  0
    4.0656    3.5282    0.3318 H   0  0  0  0  0  0  0  0  0  0  0  0
    5.9351    1.4011    1.4967 H   0  0  0  0  0  0  0  0  0  0  0  0
    6.4193    2.9980    0.8866 H   0  0  0  0  0  0  0  0  0  0  0  0
    5.3937    2.8753    2.3291 H   0  0  0  0  0  0  0  0  0  0  0  0
    5.4266    2.5183   -1.8338 N   0  0  0  0  0  0  0  0  0  0  0  0
    5.7286    1.9985   -3.1628 C   0  0  0  0  0  0  0  0  0  0  0  0
    5.8209    3.4137   -1.5573 H   0  0  0  0  0  0  0  0  0  0  0  0
    6.2316    1.0282   -3.0907 H   0  0  0  0  0  0  0  0  0  0  0  0
    4.8099    1.8772   -3.7463 H   0  0  0  0  0  0  0  0  0  0  0  0
    6.3880    2.6889   -3.6982 H   0  0  0  0  0  0  0  0  0  0  0  0
  1  2  2  0  0  0  0
  1  3  1  0  0  0  0
  1  7  1  0  0  0  0
  3  4  1  0  0  0  0
  3  5  1  0  0  0  0
  3  6  1  0  0  0  0
  7  8  1  0  0  0  0
  7 12  1  0  0  0  0
  8  9  1  0  0  0  0
  8 11  1  0  0  0  0
  8 13  1  0  0  0  0
  9 10  2  0  0  0  0
  9 17  1  0  0  0  0
 11 14  1  0  0  0  0
 11 15  1  0  0  0  0
 11 16  1  0  0  0  0
 17 18  1  0  0  0  0
 17 27  1  0  0  0  0
 18 19  1  0  0  0  0
 18 21  1  0  0  0  0
 18 28  1  0  0  0  0
 19 20  2  0  0  0  0
 19 35  1  0  0  0  0
 21 22  1  0  0  0  0
 21 29  1  0  0  0  0
 21 30  1  0  0  0  0
 22 23  1  0  0  0  0
 22 24  2  0  0  0  0
 23 25  2  0  0  0  0
 23 31  1  0  0  0  0
 24 26  1  0  0  0  0
 24 32  1  0  0  0  0
 25 26  1  0  0  0  0
 25 33  1  0  0  0  0
 26 34  1  0  0  0  0
 35 36  1  0  0  0  0
 35 40  1  0  0  0  0
 36 37  1  0  0  0  0
 36 39  1  0  0  0  0
 36 41  1  0  0  0  0
 37 38  2  0  0  0  0
 37 45  1  0  0  0  0
 39 42  1  0  0  0  0
 39 43  1  0  0  0  0
 39 44  1  0  0  0  0
 45 46  1  0  0  0  0
 45 47  1  0  0  0  0
 46 48  1  0  0  0  0
 46 49  1  0  0  0  0
 46 50  1  0  0  0  0
M  CHG  1  23   1
M  END
$$$$

  -OEChem-05262216443D

 50 50  0     1  0  0  0  0  0999 V2000
   -3.4088    0.4782    2.3047 C   0  0  0  0  0  0  0  0  0  0  0  0
   -3.0005    0.9646    1.2569 O   0  0  0  0  0  0  0  0  0  0  0  0
   -4.7583   -0.2130    2.3392 C   0  0  0  0  0  0  0  0  0  0  0  0
   -5.2455   -0.1452    1.3627 H   0  0  0  0  0  0  0  0  0  0  0  0
   -4.6331   -1.2667    2.6000 H   0  0  0  0  0  0  0  0  0  0  0  0
   -5.4013    0.2637    3.0836 H   0  0  0  0  0  0  0  0  0  0  0  0
   -2.6333    0.5107    3.4467 N   0  0  0  0  0  0  0  0  0  0  0  0
   -1.3967    1.2943    3.6009 C   0  0  2  0  0  0  0  0  0  0  0  0
   -0.1818    0.6934    2.8519 C   0  0  0  0  0  0  0  0  0  0  0  0
    0.7908    0.2217    3.4287 O   0  0  0  0  0  0  0  0  0  0  0  0
   -1.1370    1.4398    5.1056 C   0  0  0  0  0  0  0  0  0  0  0  0
   -3.0304    0.0873    4.2819 H   0  0  0  0  0  0  0  0  0  0  0  0
   -1.5554    2.2992    3.1938 H   0  0  0  0  0  0  0  0  0  0  0  0
   -0.9724    0.4605    5.5670 H   0  0  0  0  0  0  0  0  0  0  0  0
   -0.2478    2.0552    5.2786 H   0  0  0  0  0  0  0  0  0  0  0  0
   -1.9877    1.9213    5.5975 H   0  0  0  0  0  0  0  0  0  0  0  0
   -0.1735    0.7215    1.4728 N   0  0  0  0  0  0  0  0  0  0  0  0
    1.0537    0.6055    0.6745 C   0  0  2  0  0  0  0  0  0  0  0  0
    2.0734    1.7274    0.9653 C   0  0  0  0  0  0  0  0  0  0  0  0
    1.6860    2.8893    0.9839 O   0  0  0  0  0  0  0  0  0  0  0  0
    0.6424    0.7035   -0.8051 C   0  0  0  0  0  0  0  0  0  0  0  0
   -0.2392   -0.4492   -1.2104 C   0  0  0  0  0  0  0  0  0  0  0  0
    0.1719   -1.7605   -1.4462 N   0  3  0  0  0  0  0  0  0  0  0  0
   -1.5986   -0.4002   -1.3853 C   0  0  0  0  0  0  0  0  0  0  0  0
   -0.8582   -2.5060   -1.7656 C   0  0  0  0  0  0  0  0  0  0  0  0
   -1.9861   -1.6874   -1.7341 N   0  0  0  0  0  0  0  0  0  0  0  0
   -0.9876    1.1781    1.0569 H   0  0  0  0  0  0  0  0  0  0  0  0
    1.5316   -0.3583    0.8756 H   0  0  0  0  0  0  0  0  0  0  0  0
    1.5319    0.7167   -1.4434 H   0  0  0  0  0  0  0  0  0  0  0  0
    0.1183    1.6521   -0.9700 H   0  0  0  0  0  0  0  0  0  0  0  0
    1.1514   -2.0535   -1.3952 H   0  0  0  0  0  0  0  0  0  0  0  0
   -2.2381    0.4737   -1.2452 H   0  0  0  0  0  0  0  0  0  0  0  0
   -0.8351   -3.5688   -2.0129 H   0  0  0  0  0  0  0  0  0  0  0  0
   -2.9471   -1.9825   -1.9286 H   0  0  0  0  0  0  0  0  0  0  0  0
    3.4218    1.4580    0.8238 N   0  0  0  0  0  0  0  0  0  0  0  0
    4.3628    2.4315    0.2525 C   0  0  2  0  0  0  0  0  0  0  0  0
    4.5245    2.2098   -1.2688 C   0  0  0  0  0  0  0  0  0  0  0  0
    4.0794    1.1893   -1.7914 O   0  0  0  0  0  0  0  0  0  0  0  0
    5.7008    2.2677    0.9781 C   0  0  0  0  0  0  0  0  0  0  0  0
    3.6479    0.4825    0.6519 H   0  0  0  0  0  0  0  0  0  0  0  0
    4.0080    3.4557    0.4114 H   0  0  0  0  0  0  0  0  0  0  0  0
    6.1052    1.2627    0.8196 H   0  0  0  0  0  0  0  0  0  0  0  0
    6.4296    2.9973    0.6117 H   0  0  0  0  0  0  0  0  0  0  0  0
    5.5692    2.4245    2.0537 H   0  0  0  0  0  0  0  0  0  0  0  0
    5.1613    3.1492   -2.0571 N   0  0  0  0  0  0  0  0  0  0  0  0
    5.3653    2.9880   -3.4926 C   0  0  0  0  0  0  0  0  0  0  0  0
    5.5069    3.9913   -1.6041 H   0  0  0  0  0  0  0  0  0  0  0  0
    5.9662    2.0956   -3.6970 H   0  0  0  0  0  0  0  0  0  0  0  0
    4.4045    2.8914   -4.0089 H   0  0  0  0  0  0  0  0  0  0  0  0
    5.8902    3.8571   -3.9009 H   0  0  0  0  0  0  0  0  0  0  0  0
  1  2  2  0  0  0  0
  1  3  1  0  0  0  0
  1  7  1  0  0  0  0
  3  4  1  0  0  0  0
  3  5  1  0  0  0  0
  3  6  1  0  0  0  0
  7  8  1  0  0  0  0
  7 12  1  0  0  0  0
  8  9  1  0  0  0  0
  8 11  1  0  0  0  0
  8 13  1  0  0  0  0
  9 10  2  0  0  0  0
  9 17  1  0  0  0  0
 11 14  1  0  0  0  0
 11 15  1  0  0  0  0
 11 16  1  0  0  0  0
 17 18  1  0  0  0  0
 17 27  1  0  0  0  0
 18 19  1  0  0  0  0
 18 21  1  0  0  0  0
 18 28  1  0  0  0  0
 19 20  2  0  0  0  0
 19 35  1  0  0  0  0
 21 22  1  0  0  0  0
 21 29  1  0  0  0  0
 21 30  1  0  0  0  0
 22 23  1  0  0  0  0
 22 24  2  0  0  0  0
 23 25  2  0  0  0  0
 23 31  1  0  0  0  0
 24 26  1  0  0  0  0
 24 32  1  0  0  0  0
 25 26  1  0  0  0  0
 25 33  1  0  0  0  0
 26 34  1  0  0  0  0
 35 36  1  0  0  0  0
 35 40  1  0  0  0  0
 36 37  1  0  0  0  0
 36 39  1  0  0  0  0
 36 41  1  0  0  0  0
 37 38  2  0  0  0  0
 37 45  1  0  0  0  0
 39 42  1  0  0  0  0
 39 43  1  0  0  0  0
 39 44  1  0  0  0  0
 45 46  1  0  0  0  0
 45 47  1  0  0  0  0
 46 48  1  0  0  0  0
 46 49  1  0  0  0  0
 46 50  1  0  0  0  0
M  CHG  1  23   1
M  END
$$$$

  -OEChem-05262216443D

 50 50  0     1  0  0  0  0  0999 V2000
   -3.3166    0.6305    2.4042 C   0  0  0  0  0  0  0  0  0  0  0  0
   -2.8952    1.1056    1.3563 O   0  0  0  0  0  0  0  0  0  0  0  0
   -4.7386    0.1086    2.4773 C   0  0  0  0  0  0  0  0  0  0  0  0
   -5.2561    0.2822    1.5299 H   0  0  0  0  0  0  0  0  0  0  0  0
   -4.7345   -0.9639    2.6864 H   0  0  0  0  0  0  0  0  0  0  0  0
   -5.2835    0.6247    3.2722 H   0  0  0  0  0  0  0  0  0  0  0  0
   -2.4987    0.5282    3.5121 N   0  0  0  0  0  0  0  0  0  0  0  0
   -1.1761    1.1615    3.6424 C   0  0  2  0  0  0  0  0  0  0  0  0
   -0.0683    0.4676    2.8130 C   0  0  0  0  0  0  0  0  0  0  0  0
    0.8642   -0.1427    3.3224 O   0  0  0  0  0  0  0  0  0  0  0  0
   -0.8382    1.2047    5.1379 C   0  0  0  0  0  0  0  0  0  0  0  0
   -2.9115    0.1239    4.3490 H   0  0  0  0  0  0  0  0  0  0  0  0
   -1.2365    2.1965    3.2870 H   0  0  0  0  0  0  0  0  0  0  0  0
   -0.7644    0.1919    5.5472 H   0  0  0  0  0  0  0  0  0  0  0  0
    0.1210    1.7098    5.2943 H   0  0  0  0  0  0  0  0  0  0  0  0
   -1.6082    1.7520    5.6905 H   0  0  0  0  0  0  0  0  0  0  0  0
   -0.1084    0.5722    1.4379 N   0  0  0  0  0  0  0  0  0  0  0  0
    1.0934    0.4489    0.6014 C   0  0  2  0  0  0  0  0  0  0  0  0
    2.1643    1.5149    0.9283 C   0  0  0  0  0  0  0  0  0  0  0  0
    1.8093    2.6287    1.2947 O   0  0  0  0  0  0  0  0  0  0  0  0
    0.6368    0.6514   -0.8545 C   0  0  0  0  0  0  0  0  0  0  0  0
   -0.3100   -0.4393   -1.2871 C   0  0  0  0  0  0  0  0  0  0  0  0
    0.0192   -1.7554   -1.6114 N   0  3  0  0  0  0  0  0  0  0  0  0
   -1.6713   -0.3111   -1.3982 C   0  0  0  0  0  0  0  0  0  0  0  0
   -1.0635   -2.4293   -1.9167 C   0  0  0  0  0  0  0  0  0  0  0  0
   -2.1427   -1.5557   -1.7943 N   0  0  0  0  0  0  0  0  0  0  0  0
   -0.8833    1.1416    1.0925 H   0  0  0  0  0  0  0  0  0  0  0  0
    1.5379   -0.5423    0.7349 H   0  0  0  0  0  0  0  0  0  0  0  0
    1.5010    0.6608   -1.5268 H   0  0  0  0  0  0  0  0  0  0  0  0
    0.1519    1.6304   -0.9473 H   0  0  0  0  0  0  0  0  0  0  0  0
    0.9799   -2.1076   -1.6038 H   0  0  0  0  0  0  0  0  0  0  0  0
   -2.2564    0.5854   -1.1821 H   0  0  0  0  0  0  0  0  0  0  0  0
   -1.1105   -3.4797   -2.2095 H   0  0  0  0  0  0  0  0  0  0  0  0
   -3.1265   -1.7919   -1.9512 H   0  0  0  0  0  0  0  0  0  0  0  0
    3.4518    1.3351    0.4578 N   0  0  0  0  0  0  0  0  0  0  0  0
    4.3081    2.4462    0.0177 C   0  0  2  0  0  0  0  0  0  0  0  0
    4.3154    2.5500   -1.5235 C   0  0  0  0  0  0  0  0  0  0  0  0
    3.8322    1.6438   -2.1993 O   0  0  0  0  0  0  0  0  0  0  0  0
    5.7168    2.1930    0.5593 C   0  0  0  0  0  0  0  0  0  0  0  0
    3.6220    0.4482   -0.0080 H   0  0  0  0  0  0  0  0  0  0  0  0
    3.9509    3.4011    0.4181 H   0  0  0  0  0  0  0  0  0  0  0  0
    6.1226    1.2586    0.1583 H   0  0  0  0  0  0  0  0  0  0  0  0
    6.3879    3.0117    0.2820 H   0  0  0  0  0  0  0  0  0  0  0  0
    5.6940    2.1229    1.6517 H   0  0  0  0  0  0  0  0  0  0  0  0
    4.8541    3.6541   -2.1557 N   0  0  0  0  0  0  0  0  0  0  0  0
    4.8903    3.8120   -3.6053 C   0  0  0  0  0  0  0  0  0  0  0  0
    5.2308    4.3965   -1.5723 H   0  0  0  0  0  0  0  0  0  0  0  0
    5.4448    2.9889   -4.0685 H   0  0  0  0  0  0  0  0  0  0  0  0
    3.8750    3.8269   -4.0151 H   0  0  0  0  0  0  0  0  0  0  0  0
    5.3836    4.7519   -3.8720 H   0  0  0  0  0  0  0  0  0  0  0  0
  1  2  2  0  0  0  0
  1  3  1  0  0  0  0
  1  7  1  0  0  0  0
  3  4  1  0  0  0  0
  3  5  1  0  0  0  0
  3  6  1  0  0  0  0
  7  8  1  0  0  0  0
  7 12  1  0  0  0  0
  8  9  1  0  0  0  0
  8 11  1  0  0  0  0
  8 13  1  0  0  0  0
  9 10  2  0  0  0  0
  9 17  1  0  0  0  0
 11 14  1  0  0  0  0
 11 15  1  0  0  0  0
 11 16  1  0  0  0  0
 17 18  1  0  0  0  0
 17 27  1  0  0  0  0
 18 19  1  0  0  0  0
 18 21  1  0  0  0  0
 18 28  1  0  0  0  0
 19 20  2  0  0  0  0
 19 35  1  0  0  0  0
 21 22  1  0  0  0  0
 21 29  1  0  0  0  0
 21 30  1  0  0  0  0
 22 23  1  0  0  0  0
 22 24  2  0  0  0  0
 23 25  2  0  0  0  0
 23 31  1  0  0  0  0
 24 26  1  0  0  0  0
 24 32  1  0  0  0  0
 25 26  1  0  0  0  0
 25 33  1  0  0  0  0
 26 34  1  0  0  0  0
 35 36  1  0  0  0  0
 35 40  1  0  0  0  0
 36 37  1  0  0  0  0
 36 39  1  0  0  0  0
 36 41  1  0  0  0  0
 37 38  2  0  0  0  0
 37 45  1  0  0  0  0
 39 42  1  0  0  0  0
 39 43  1  0  0  0  0
 39 44  1  0  0  0  0
 45 46  1  0  0  0  0
 45 47  1  0  0  0  0
 46 48  1  0  0  0  0
 46 49  1  0  0  0  0
 46 50  1  0  0  0  0
M  CHG  1  23   1
M  END
$$$$

  -OEChem-05262216443D

 50 50  0     1  0  0  0  0  0999 V2000
   -3.1832    0.9334    2.4457 C   0  0  0  0  0  0  0  0  0  0  0  0
   -2.6678    1.4537    1.4628 O   0  0  0  0  0  0  0  0  0  0  0  0
   -4.6695    0.6314    2.4461 C   0  0  0  0  0  0  0  0  0  0  0  0
   -5.1342    1.0104    1.5317 H   0  0  0  0  0  0  0  0  0  0  0  0
   -4.8329   -0.4476    2.5053 H   0  0  0  0  0  0  0  0  0  0  0  0
   -5.1464    1.1112    3.3047 H   0  0  0  0  0  0  0  0  0  0  0  0
   -2.4133    0.5689    3.5324 N   0  0  0  0  0  0  0  0  0  0  0  0
   -0.9931    0.9131    3.7137 C   0  0  2  0  0  0  0  0  0  0  0  0
   -0.0386    0.0844    2.8205 C   0  0  0  0  0  0  0  0  0  0  0  0
    0.7599   -0.7292    3.2697 O   0  0  0  0  0  0  0  0  0  0  0  0
   -0.6706    0.7630    5.2058 C   0  0  0  0  0  0  0  0  0  0  0  0
   -2.8954    0.1255    4.3105 H   0  0  0  0  0  0  0  0  0  0  0  0
   -0.8398    1.9653    3.4486 H   0  0  0  0  0  0  0  0  0  0  0  0
   -0.8046   -0.2743    5.5289 H   0  0  0  0  0  0  0  0  0  0  0  0
    0.3681    1.0517    5.3985 H   0  0  0  0  0  0  0  0  0  0  0  0
   -1.3216    1.4058    5.8062 H   0  0  0  0  0  0  0  0  0  0  0  0
   -0.0871    0.2637    1.4516 N   0  0  0  0  0  0  0  0  0  0  0  0
    1.1050    0.1329    0.5952 C   0  0  2  0  0  0  0  0  0  0  0  0
    2.3736    0.8452    1.1421 C   0  0  0  0  0  0  0  0  0  0  0  0
    2.2524    1.7653    1.9424 O   0  0  0  0  0  0  0  0  0  0  0  0
    0.7204    0.7807   -0.7505 C   0  0  0  0  0  0  0  0  0  0  0  0
   -0.4004    0.0313   -1.4280 C   0  0  0  0  0  0  0  0  0  0  0  0
   -0.3162   -1.1932   -2.0915 N   0  3  0  0  0  0  0  0  0  0  0  0
   -1.7041    0.4531   -1.5006 C   0  0  0  0  0  0  0  0  0  0  0  0
   -1.4928   -1.5373   -2.5571 C   0  0  0  0  0  0  0  0  0  0  0  0
   -2.3875   -0.5280   -2.2064 N   0  0  0  0  0  0  0  0  0  0  0  0
   -0.7864    0.9559    1.1767 H   0  0  0  0  0  0  0  0  0  0  0  0
    1.3447   -0.9269    0.4656 H   0  0  0  0  0  0  0  0  0  0  0  0
    1.5800    0.8039   -1.4272 H   0  0  0  0  0  0  0  0  0  0  0  0
    0.4277    1.8227   -0.5756 H   0  0  0  0  0  0  0  0  0  0  0  0
    0.5553   -1.7213   -2.1798 H   0  0  0  0  0  0  0  0  0  0  0  0
   -2.1139    1.3680   -1.0671 H   0  0  0  0  0  0  0  0  0  0  0  0
   -1.7278   -2.4454   -3.1152 H   0  0  0  0  0  0  0  0  0  0  0  0
   -3.3875   -0.5091   -2.4264 H   0  0  0  0  0  0  0  0  0  0  0  0
    3.5485    0.7751    0.4121 N   0  0  0  0  0  0  0  0  0  0  0  0
    4.5310    1.8686    0.3423 C   0  0  2  0  0  0  0  0  0  0  0  0
    4.3714    2.6692   -0.9684 C   0  0  0  0  0  0  0  0  0  0  0  0
    3.7193    2.1963   -1.8967 O   0  0  0  0  0  0  0  0  0  0  0  0
    5.9264    1.2475    0.4347 C   0  0  0  0  0  0  0  0  0  0  0  0
    3.5248    0.1631   -0.3979 H   0  0  0  0  0  0  0  0  0  0  0  0
    4.4084    2.5632    1.1803 H   0  0  0  0  0  0  0  0  0  0  0  0
    6.1007    0.5637   -0.4020 H   0  0  0  0  0  0  0  0  0  0  0  0
    6.6953    2.0259    0.4130 H   0  0  0  0  0  0  0  0  0  0  0  0
    6.0297    0.6883    1.3703 H   0  0  0  0  0  0  0  0  0  0  0  0
    4.9601    3.9105   -1.1149 N   0  0  0  0  0  0  0  0  0  0  0  0
    4.8612    4.7079   -2.3324 C   0  0  0  0  0  0  0  0  0  0  0  0
    5.4780    4.2853   -0.3243 H   0  0  0  0  0  0  0  0  0  0  0  0
    5.3014    4.1715   -3.1798 H   0  0  0  0  0  0  0  0  0  0  0  0
    3.8140    4.9308   -2.5624 H   0  0  0  0  0  0  0  0  0  0  0  0
    5.3954    5.6553   -2.2093 H   0  0  0  0  0  0  0  0  0  0  0  0
  1  2  2  0  0  0  0
  1  3  1  0  0  0  0
  1  7  1  0  0  0  0
  3  4  1  0  0  0  0
  3  5  1  0  0  0  0
  3  6  1  0  0  0  0
  7  8  1  0  0  0  0
  7 12  1  0  0  0  0
  8  9  1  0  0  0  0
  8 11  1  0  0  0  0
  8 13  1  0  0  0  0
  9 10  2  0  0  0  0
  9 17  1  0  0  0  0
 11 14  1  0  0  0  0
 11 15  1  0  0  0  0
 11 16  1  0  0  0  0
 17 18  1  0  0  0  0
 17 27  1  0  0  0  0
 18 19  1  0  0  0  0
 18 21  1  0  0  0  0
 18 28  1  0  0  0  0
 19 20  2  0  0  0  0
 19 35  1  0  0  0  0
 21 22  1  0  0  0  0
 21 29  1  0  0  0  0
 21 30  1  0  0  0  0
 22 23  1  0  0  0  0
 22 24  2  0  0  0  0
 23 25  2  0  0  0  0
 23 31  1  0  0  0  0
 24 26  1  0  0  0  0
 24 32  1  0  0  0  0
 25 26  1  0  0  0  0
 25 33  1  0  0  0  0
 26 34  1  0  0  0  0
 35 36  1  0  0  0  0
 35 40  1  0  0  0  0
 36 37  1  0  0  0  0
 36 39  1  0  0  0  0
 36 41  1  0  0  0  0
 37 38  2  0  0  0  0
 37 45  1  0  0  0  0
 39 42  1  0  0  0  0
 39 43  1  0  0  0  0
 39 44  1  0  0  0  0
 45 46  1  0  0  0  0
 45 47  1  0  0  0  0
 46 48  1  0  0  0  0
 46 49  1  0  0  0  0
 46 50  1  0  0  0  0
M  CHG  1  23   1
M  END
$$$$

  -OEChem-05262216443D

 50 50  0     1  0  0  0  0  0999 V2000
   -2.9907    1.0346    2.5811 C   0  0  0  0  0  0  0  0  0  0  0  0
   -2.4871    1.5300    1.5791 O   0  0  0  0  0  0  0  0  0  0  0  0
   -4.4985    0.9047    2.6817 C   0  0  0  0  0  0  0  0  0  0  0  0
   -4.9744    1.2753    1.7699 H   0  0  0  0  0  0  0  0  0  0  0  0
   -4.7767   -0.1425    2.8240 H   0  0  0  0  0  0  0  0  0  0  0  0
   -4.8655    1.4882    3.5300 H   0  0  0  0  0  0  0  0  0  0  0  0
   -2.1976    0.5487    3.6016 N   0  0  0  0  0  0  0  0  0  0  0  0
   -0.7412    0.7390    3.7015 C   0  0  2  0  0  0  0  0  0  0  0  0
    0.0678   -0.1282    2.7077 C   0  0  0  0  0  0  0  0  0  0  0  0
    0.7858   -1.0570    3.0590 O   0  0  0  0  0  0  0  0  0  0  0  0
   -0.3427    0.4732    5.1581 C   0  0  0  0  0  0  0  0  0  0  0  0
   -2.6756    0.1369    4.3993 H   0  0  0  0  0  0  0  0  0  0  0  0
   -0.4970    1.7836    3.4791 H   0  0  0  0  0  0  0  0  0  0  0  0
   -0.5629   -0.5623    5.4381 H   0  0  0  0  0  0  0  0  0  0  0  0
    0.7306    0.6453    5.2916 H   0  0  0  0  0  0  0  0  0  0  0  0
   -0.8838    1.1434    5.8329 H   0  0  0  0  0  0  0  0  0  0  0  0
   -0.0231    0.1444    1.3562 N   0  0  0  0  0  0  0  0  0  0  0  0
    1.1355    0.0327    0.4498 C   0  0  2  0  0  0  0  0  0  0  0  0
    2.4586    0.6653    0.9832 C   0  0  0  0  0  0  0  0  0  0  0  0
    2.4520    1.3428    2.0038 O   0  0  0  0  0  0  0  0  0  0  0  0
    0.6958    0.7515   -0.8456 C   0  0  0  0  0  0  0  0  0  0  0  0
   -0.4669    0.0456   -1.4991 C   0  0  0  0  0  0  0  0  0  0  0  0
   -0.4349   -1.1480   -2.2214 N   0  3  0  0  0  0  0  0  0  0  0  0
   -1.7654    0.4880   -1.4872 C   0  0  0  0  0  0  0  0  0  0  0  0
   -1.6392   -1.4563   -2.6388 C   0  0  0  0  0  0  0  0  0  0  0  0
   -2.4991   -0.4518   -2.1987 N   0  0  0  0  0  0  0  0  0  0  0  0
   -0.6815    0.9026    1.1675 H   0  0  0  0  0  0  0  0  0  0  0  0
    1.3375   -1.0250    0.2552 H   0  0  0  0  0  0  0  0  0  0  0  0
    1.5149    0.7931   -1.5692 H   0  0  0  0  0  0  0  0  0  0  0  0
    0.4294    1.7892   -0.6107 H   0  0  0  0  0  0  0  0  0  0  0  0
    0.4207   -1.6886   -2.3700 H   0  0  0  0  0  0  0  0  0  0  0  0
   -2.1372    1.3888   -0.9945 H   0  0  0  0  0  0  0  0  0  0  0  0
   -1.9174   -2.3371   -3.2203 H   0  0  0  0  0  0  0  0  0  0  0  0
   -3.5092   -0.4121   -2.3631 H   0  0  0  0  0  0  0  0  0  0  0  0
    3.5040    0.8834    0.0998 N   0  0  0  0  0  0  0  0  0  0  0  0
    4.3988    2.0510    0.1613 C   0  0  2  0  0  0  0  0  0  0  0  0
    3.9942    3.1050   -0.8920 C   0  0  0  0  0  0  0  0  0  0  0  0
    3.2125    2.8004   -1.7904 O   0  0  0  0  0  0  0  0  0  0  0  0
    5.8266    1.5569   -0.0809 C   0  0  0  0  0  0  0  0  0  0  0  0
    3.3756    0.4949   -0.8292 H   0  0  0  0  0  0  0  0  0  0  0  0
    4.3639    2.5290    1.1461 H   0  0  0  0  0  0  0  0  0  0  0  0
    5.9138    1.0972   -1.0704 H   0  0  0  0  0  0  0  0  0  0  0  0
    6.5361    2.3878   -0.0206 H   0  0  0  0  0  0  0  0  0  0  0  0
    6.1019    0.8139    0.6745 H   0  0  0  0  0  0  0  0  0  0  0  0
    4.5102    4.3857   -0.8445 N   0  0  0  0  0  0  0  0  0  0  0  0
    4.1829    5.4198   -1.8196 C   0  0  0  0  0  0  0  0  0  0  0  0
    5.1388    4.6147   -0.0788 H   0  0  0  0  0  0  0  0  0  0  0  0
    4.4714    5.1020   -2.8272 H   0  0  0  0  0  0  0  0  0  0  0  0
    3.1083    5.6304   -1.8101 H   0  0  0  0  0  0  0  0  0  0  0  0
    4.7177    6.3454   -1.5848 H   0  0  0  0  0  0  0  0  0  0  0  0
  1  2  2  0  0  0  0
  1  3  1  0  0  0  0
  1  7  1  0  0  0  0
  3  4  1  0  0  0  0
  3  5  1  0  0  0  0
  3  6  1  0  0  0  0
  7  8  1  0  0  0  0
  7 12  1  0  0  0  0
  8  9  1  0  0  0  0
  8 11  1  0  0  0  0
  8 13  1  0  0  0  0
  9 10  2  0  0  0  0
  9 17  1  0  0  0  0
 11 14  1  0  0  0  0
 11 15  1  0  0  0  0
 11 16  1  0  0  0  0
 17 18  1  0  0  0  0
 17 27  1  0  0  0  0
 18 19  1  0  0  0  0
 18 21  1  0  0  0  0
 18 28  1  0  0  0  0
 19 20  2  0  0  0  0
 19 35  1  0  0  0  0
 21 22  1  0  0  0  0
 21 29  1  0  0  0  0
 21 30  1  0  0  0  0
 22 23  1  0  0  0  0
 22 24  2  0  0  0  0
 23 25  2  0  0  0  0
 23 31  1  0  0  0  0
 24 26  1  0  0  0  0
 24 32  1  0  0  0  0
 25 26  1  0  0  0  0
 25 33  1  0  0  0  0
 26 34  1  0  0  0  0
 35 36  1  0  0  0  0
 35 40  1  0  0  0  0
 36 37  1  0  0  0  0
 36 39  1  0  0  0  0
 36 41  1  0  0  0  0
 37 38  2  0  0  0  0
 37 45  1  0  0  0  0
 39 42  1  0  0  0  0
 39 43  1  0  0  0  0
 39 44  1  0  0  0  0
 45 46  1  0  0  0  0
 45 47  1  0  0  0  0
 46 48  1  0  0  0  0
 46 49  1  0  0  0  0
 46 50  1  0  0  0  0
M  CHG  1  23   1
M  END
$$$$

  -OEChem-05262216443D

 50 50  0     1  0  0  0  0  0999 V2000
   -2.8259    1.0050    2.6683 C   0  0  0  0  0  0  0  0  0  0  0  0
   -2.3759    1.5403    1.6611 O   0  0  0  0  0  0  0  0  0  0  0  0
   -4.3252    0.8564    2.8402 C   0  0  0  0  0  0  0  0  0  0  0  0
   -4.8537    1.4028    2.0543 H   0  0  0  0  0  0  0  0  0  0  0  0
   -4.6044   -0.1990    2.7886 H   0  0  0  0  0  0  0  0  0  0  0  0
   -4.6313    1.2582    3.8096 H   0  0  0  0  0  0  0  0  0  0  0  0
   -1.9779    0.4870    3.6262 N   0  0  0  0  0  0  0  0  0  0  0  0
   -0.5152    0.6469    3.6312 C   0  0  2  0  0  0  0  0  0  0  0  0
    0.1981   -0.2119    2.5611 C   0  0  0  0  0  0  0  0  0  0  0  0
    0.8196   -1.2334    2.8278 O   0  0  0  0  0  0  0  0  0  0  0  0
   -0.0193    0.3317    5.0472 C   0  0  0  0  0  0  0  0  0  0  0  0
   -2.4069    0.0212    4.4221 H   0  0  0  0  0  0  0  0  0  0  0  0
   -0.2640    1.6920    3.4192 H   0  0  0  0  0  0  0  0  0  0  0  0
   -0.2466   -0.7053    5.3157 H   0  0  0  0  0  0  0  0  0  0  0  0
    1.0655    0.4722    5.1057 H   0  0  0  0  0  0  0  0  0  0  0  0
   -0.4925    0.9960    5.7768 H   0  0  0  0  0  0  0  0  0  0  0  0
    0.0649    0.1350    1.2307 N   0  0  0  0  0  0  0  0  0  0  0  0
    1.1619    0.0078    0.2511 C   0  0  2  0  0  0  0  0  0  0  0  0
    2.5607    0.5315    0.7195 C   0  0  0  0  0  0  0  0  0  0  0  0
    2.7492    0.8882    1.8746 O   0  0  0  0  0  0  0  0  0  0  0  0
    0.6573    0.7843   -0.9887 C   0  0  0  0  0  0  0  0  0  0  0  0
   -0.5726    0.1342   -1.5752 C   0  0  0  0  0  0  0  0  0  0  0  0
   -0.6351   -1.0371   -2.3316 N   0  3  0  0  0  0  0  0  0  0  0  0
   -1.8505    0.6195   -1.4577 C   0  0  0  0  0  0  0  0  0  0  0  0
   -1.8772   -1.2943   -2.6650 C   0  0  0  0  0  0  0  0  0  0  0  0
   -2.6666   -0.2739   -2.1383 N   0  0  0  0  0  0  0  0  0  0  0  0
   -0.5638    0.9313    1.1113 H   0  0  0  0  0  0  0  0  0  0  0  0
    1.2940   -1.0503    0.0051 H   0  0  0  0  0  0  0  0  0  0  0  0
    1.4194    0.8229   -1.7718 H   0  0  0  0  0  0  0  0  0  0  0  0
    0.4424    1.8218   -0.7043 H   0  0  0  0  0  0  0  0  0  0  0  0
    0.1859   -1.6083   -2.5468 H   0  0  0  0  0  0  0  0  0  0  0  0
   -2.1542    1.5170   -0.9143 H   0  0  0  0  0  0  0  0  0  0  0  0
   -2.2286   -2.1513   -3.2422 H   0  0  0  0  0  0  0  0  0  0  0  0
   -3.6844   -0.1979   -2.2224 H   0  0  0  0  0  0  0  0  0  0  0  0
    3.4493    1.0289   -0.2214 N   0  0  0  0  0  0  0  0  0  0  0  0
    4.2959    2.2112    0.0047 C   0  0  2  0  0  0  0  0  0  0  0  0
    3.6506    3.4600   -0.6347 C   0  0  0  0  0  0  0  0  0  0  0  0
    2.7300    3.3239   -1.4384 O   0  0  0  0  0  0  0  0  0  0  0  0
    5.6676    1.9241   -0.6103 C   0  0  0  0  0  0  0  0  0  0  0  0
    3.1668    0.9000   -1.1872 H   0  0  0  0  0  0  0  0  0  0  0  0
    4.4325    2.4092    1.0731 H   0  0  0  0  0  0  0  0  0  0  0  0
    5.5785    1.7429   -1.6864 H   0  0  0  0  0  0  0  0  0  0  0  0
    6.3436    2.7708   -0.4557 H   0  0  0  0  0  0  0  0  0  0  0  0
    6.1125    1.0396   -0.1430 H   0  0  0  0  0  0  0  0  0  0  0  0
    4.0945    4.7290   -0.3170 N   0  0  0  0  0  0  0  0  0  0  0  0
    3.5195    5.9446   -0.8818 C   0  0  0  0  0  0  0  0  0  0  0  0
    4.8401    4.8118    0.3691 H   0  0  0  0  0  0  0  0  0  0  0  0
    3.6016    5.9373   -1.9738 H   0  0  0  0  0  0  0  0  0  0  0  0
    2.4627    6.0321   -0.6084 H   0  0  0  0  0  0  0  0  0  0  0  0
    4.0480    6.8252   -0.5041 H   0  0  0  0  0  0  0  0  0  0  0  0
  1  2  2  0  0  0  0
  1  3  1  0  0  0  0
  1  7  1  0  0  0  0
  3  4  1  0  0  0  0
  3  5  1  0  0  0  0
  3  6  1  0  0  0  0
  7  8  1  0  0  0  0
  7 12  1  0  0  0  0
  8  9  1  0  0  0  0
  8 11  1  0  0  0  0
  8 13  1  0  0  0  0
  9 10  2  0  0  0  0
  9 17  1  0  0  0  0
 11 14  1  0  0  0  0
 11 15  1  0  0  0  0
 11 16  1  0  0  0  0
 17 18  1  0  0  0  0
 17 27  1  0  0  0  0
 18 19  1  0  0  0  0
 18 21  1  0  0  0  0
 18 28  1  0  0  0  0
 19 20  2  0  0  0  0
 19 35  1  0  0  0  0
 21 22  1  0  0  0  0
 21 29  1  0  0  0  0
 21 30  1  0  0  0  0
 22 23  1  0  0  0  0
 22 24  2  0  0  0  0
 23 25  2  0  0  0  0
 23 31  1  0  0  0  0
 24 26  1  0  0  0  0
 24 32  1  0  0  0  0
 25 26  1  0  0  0  0
 25 33  1  0  0  0  0
 26 34  1  0  0  0  0
 35 36  1  0  0  0  0
 35 40  1  0  0  0  0
 36 37  1  0  0  0  0
 36 39  1  0  0  0  0
 36 41  1  0  0  0  0
 37 38  2  0  0  0  0
 37 45  1  0  0  0  0
 39 42  1  0  0  0  0
 39 43  1  0  0  0  0
 39 44  1  0  0  0  0
 45 46  1  0  0  0  0
 45 47  1  0  0  0  0
 46 48  1  0  0  0  0
 46 49  1  0  0  0  0
 46 50  1  0  0  0  0
M  CHG  1  23   1
M  END
$$$$

  -OEChem-05262216443D

 50 50  0     1  0  0  0  0  0999 V2000
   -2.6427    0.9561    2.7059 C   0  0  0  0  0  0  0  0  0  0  0  0
   -2.2931    1.4869    1.6573 O   0  0  0  0  0  0  0  0  0  0  0  0
   -4.1180    0.7557    2.9961 C   0  0  0  0  0  0  0  0  0  0  0  0
   -4.7255    1.2357    2.2242 H   0  0  0  0  0  0  0  0  0  0  0  0
   -4.3523   -0.3115    3.0190 H   0  0  0  0  0  0  0  0  0  0  0  0
   -4.3720    1.1969    3.9633 H   0  0  0  0  0  0  0  0  0  0  0  0
   -1.7026    0.4847    3.6002 N   0  0  0  0  0  0  0  0  0  0  0  0
   -0.2488    0.6756    3.4741 C   0  0  2  0  0  0  0  0  0  0  0  0
    0.3861   -0.1838    2.3555 C   0  0  0  0  0  0  0  0  0  0  0  0
    0.9823   -1.2292    2.5791 O   0  0  0  0  0  0  0  0  0  0  0  0
    0.3777    0.3877    4.8439 C   0  0  0  0  0  0  0  0  0  0  0  0
   -2.0493    0.0126    4.4317 H   0  0  0  0  0  0  0  0  0  0  0  0
   -0.0417    1.7230    3.2301 H   0  0  0  0  0  0  0  0  0  0  0  0
    0.1933   -0.6488    5.1452 H   0  0  0  0  0  0  0  0  0  0  0  0
    1.4608    0.5454    4.8037 H   0  0  0  0  0  0  0  0  0  0  0  0
   -0.0387    1.0539    5.6056 H   0  0  0  0  0  0  0  0  0  0  0  0
    0.1456    0.1547    1.0382 N   0  0  0  0  0  0  0  0  0  0  0  0
    1.1487    0.0476   -0.0401 C   0  0  2  0  0  0  0  0  0  0  0  0
    2.5751    0.5967    0.2959 C   0  0  0  0  0  0  0  0  0  0  0  0
    3.0241    0.5802    1.4316 O   0  0  0  0  0  0  0  0  0  0  0  0
    0.5118    0.7662   -1.2506 C   0  0  0  0  0  0  0  0  0  0  0  0
   -0.7365    0.0473   -1.7046 C   0  0  0  0  0  0  0  0  0  0  0  0
   -0.8133   -1.1513   -2.4163 N   0  3  0  0  0  0  0  0  0  0  0  0
   -2.0200    0.4796   -1.4830 C   0  0  0  0  0  0  0  0  0  0  0  0
   -2.0674   -1.4760   -2.6212 C   0  0  0  0  0  0  0  0  0  0  0  0
   -2.8522   -0.4724   -2.0569 N   0  0  0  0  0  0  0  0  0  0  0  0
   -0.5071    0.9379    0.9700 H   0  0  0  0  0  0  0  0  0  0  0  0
    1.2880   -1.0121   -0.2762 H   0  0  0  0  0  0  0  0  0  0  0  0
    1.2050    0.7960   -2.0963 H   0  0  0  0  0  0  0  0  0  0  0  0
    0.2810    1.8044   -0.9794 H   0  0  0  0  0  0  0  0  0  0  0  0
    0.0099   -1.6992   -2.6795 H   0  0  0  0  0  0  0  0  0  0  0  0
   -2.3149    1.3793   -0.9384 H   0  0  0  0  0  0  0  0  0  0  0  0
   -2.4303   -2.3707   -3.1306 H   0  0  0  0  0  0  0  0  0  0  0  0
   -3.8760   -0.4475   -2.0441 H   0  0  0  0  0  0  0  0  0  0  0  0
    3.2479    1.3901   -0.6218 N   0  0  0  0  0  0  0  0  0  0  0  0
    4.1164    2.5039   -0.2091 C   0  0  2  0  0  0  0  0  0  0  0  0
    3.2981    3.8112   -0.1324 C   0  0  0  0  0  0  0  0  0  0  0  0
    2.2189    3.8834   -0.7171 O   0  0  0  0  0  0  0  0  0  0  0  0
    5.2444    2.6281   -1.2358 C   0  0  0  0  0  0  0  0  0  0  0  0
    2.7367    1.5694   -1.4791 H   0  0  0  0  0  0  0  0  0  0  0  0
    4.5653    2.3174    0.7726 H   0  0  0  0  0  0  0  0  0  0  0  0
    4.8398    2.8421   -2.2304 H   0  0  0  0  0  0  0  0  0  0  0  0
    5.9276    3.4369   -0.9581 H   0  0  0  0  0  0  0  0  0  0  0  0
    5.8164    1.6960   -1.2837 H   0  0  0  0  0  0  0  0  0  0  0  0
    3.7679    4.9020    0.5735 N   0  0  0  0  0  0  0  0  0  0  0  0
    3.0405    6.1619    0.6817 C   0  0  0  0  0  0  0  0  0  0  0  0
    4.6474    4.7993    1.0732 H   0  0  0  0  0  0  0  0  0  0  0  0
    2.8723    6.5950   -0.3102 H   0  0  0  0  0  0  0  0  0  0  0  0
    2.0712    6.0061    1.1672 H   0  0  0  0  0  0  0  0  0  0  0  0
    3.6131    6.8799    1.2773 H   0  0  0  0  0  0  0  0  0  0  0  0
  1  2  2  0  0  0  0
  1  3  1  0  0  0  0
  1  7  1  0  0  0  0
  3  4  1  0  0  0  0
  3  5  1  0  0  0  0
  3  6  1  0  0  0  0
  7  8  1  0  0  0  0
  7 12  1  0  0  0  0
  8  9  1  0  0  0  0
  8 11  1  0  0  0  0
  8 13  1  0  0  0  0
  9 10  2  0  0  0  0
  9 17  1  0  0  0  0
 11 14  1  0  0  0  0
 11 15  1  0  0  0  0
 11 16  1  0  0  0  0
 17 18  1  0  0  0  0
 17 27  1  0  0  0  0
 18 19  1  0  0  0  0
 18 21  1  0  0  0  0
 18 28  1  0  0  0  0
 19 20  2  0  0  0  0
 19 35  1  0  0  0  0
 21 22  1  0  0  0  0
 21 29  1  0  0  0  0
 21 30  1  0  0  0  0
 22 23  1  0  0  0  0
 22 24  2  0  0  0  0
 23 25  2  0  0  0  0
 23 31  1  0  0  0  0
 24 26  1  0  0  0  0
 24 32  1  0  0  0  0
 25 26  1  0  0  0  0
 25 33  1  0  0  0  0
 26 34  1  0  0  0  0
 35 36  1  0  0  0  0
 35 40  1  0  0  0  0
 36 37  1  0  0  0  0
 36 39  1  0  0  0  0
 36 41  1  0  0  0  0
 37 38  2  0  0  0  0
 37 45  1  0  0  0  0
 39 42  1  0  0  0  0
 39 43  1  0  0  0  0
 39 44  1  0  0  0  0
 45 46  1  0  0  0  0
 45 47  1  0  0  0  0
 46 48  1  0  0  0  0
 46 49  1  0  0  0  0
 46 50  1  0  0  0  0
M  CHG  1  23   1
M  END
$$$$

  -OEChem-05262216443D

 50 50  0     1  0  0  0  0  0999 V2000
   -2.5631    0.9531    2.6403 C   0  0  0  0  0  0  0  0  0  0  0  0
   -2.2810    1.4370    1.5497 O   0  0  0  0  0  0  0  0  0  0  0  0
   -4.0162    0.7394    3.0186 C   0  0  0  0  0  0  0  0  0  0  0  0
   -4.6733    1.1120    2.2282 H   0  0  0  0  0  0  0  0  0  0  0  0
   -4.2119   -0.3252    3.1685 H   0  0  0  0  0  0  0  0  0  0  0  0
   -4.2427    1.2768    3.9430 H   0  0  0  0  0  0  0  0  0  0  0  0
   -1.5675    0.5564    3.5106 N   0  0  0  0  0  0  0  0  0  0  0  0
   -0.1296    0.8011    3.3150 C   0  0  2  0  0  0  0  0  0  0  0  0
    0.5000   -0.0775    2.2077 C   0  0  0  0  0  0  0  0  0  0  0  0
    1.1547   -1.0808    2.4527 O   0  0  0  0  0  0  0  0  0  0  0  0
    0.5595    0.5995    4.6698 C   0  0  0  0  0  0  0  0  0  0  0  0
   -1.8606    0.1261    4.3845 H   0  0  0  0  0  0  0  0  0  0  0  0
    0.0207    1.8452    3.0190 H   0  0  0  0  0  0  0  0  0  0  0  0
    0.4352   -0.4309    5.0188 H   0  0  0  0  0  0  0  0  0  0  0  0
    1.6317    0.8047    4.5814 H   0  0  0  0  0  0  0  0  0  0  0  0
    0.1399    1.2769    5.4196 H   0  0  0  0  0  0  0  0  0  0  0  0
    0.1886    0.1993    0.8915 N   0  0  0  0  0  0  0  0  0  0  0  0
    1.1414    0.1066   -0.2310 C   0  0  2  0  0  0  0  0  0  0  0  0
    2.5398    0.7419    0.0354 C   0  0  0  0  0  0  0  0  0  0  0  0
    3.2168    0.4310    1.0010 O   0  0  0  0  0  0  0  0  0  0  0  0
    0.4274    0.7333   -1.4450 C   0  0  0  0  0  0  0  0  0  0  0  0
   -0.7924   -0.0752   -1.8153 C   0  0  0  0  0  0  0  0  0  0  0  0
   -0.8226   -1.3091   -2.4670 N   0  3  0  0  0  0  0  0  0  0  0  0
   -2.0899    0.2886   -1.5557 C   0  0  0  0  0  0  0  0  0  0  0  0
   -2.0612   -1.7189   -2.6006 C   0  0  0  0  0  0  0  0  0  0  0  0
   -2.8837   -0.7380   -2.0498 N   0  0  0  0  0  0  0  0  0  0  0  0
   -0.5105    0.9423    0.8267 H   0  0  0  0  0  0  0  0  0  0  0  0
    1.3340   -0.9523   -0.4316 H   0  0  0  0  0  0  0  0  0  0  0  0
    1.0983    0.7637   -2.3100 H   0  0  0  0  0  0  0  0  0  0  0  0
    0.1406    1.7657   -1.2089 H   0  0  0  0  0  0  0  0  0  0  0  0
    0.0224   -1.8212   -2.7340 H   0  0  0  0  0  0  0  0  0  0  0  0
   -2.4175    1.1916   -1.0357 H   0  0  0  0  0  0  0  0  0  0  0  0
   -2.3871   -2.6590   -3.0499 H   0  0  0  0  0  0  0  0  0  0  0  0
   -3.9053   -0.7767   -1.9893 H   0  0  0  0  0  0  0  0  0  0  0  0
    3.0016    1.7790   -0.7601 N   0  0  0  0  0  0  0  0  0  0  0  0
    3.8661    2.8309   -0.2040 C   0  0  2  0  0  0  0  0  0  0  0  0
    2.9973    3.9638    0.3850 C   0  0  0  0  0  0  0  0  0  0  0  0
    1.8181    4.0567    0.0498 O   0  0  0  0  0  0  0  0  0  0  0  0
    4.7600    3.3561   -1.3292 C   0  0  0  0  0  0  0  0  0  0  0  0
    2.3155    2.1293   -1.4210 H   0  0  0  0  0  0  0  0  0  0  0  0
    4.5099    2.4386    0.5912 H   0  0  0  0  0  0  0  0  0  0  0  0
    4.1555    3.7802   -2.1373 H   0  0  0  0  0  0  0  0  0  0  0  0
    5.4307    4.1347   -0.9528 H   0  0  0  0  0  0  0  0  0  0  0  0
    5.3699    2.5441   -1.7374 H   0  0  0  0  0  0  0  0  0  0  0  0
    3.5252    4.8730    1.2810 N   0  0  0  0  0  0  0  0  0  0  0  0
    2.7477    5.9544    1.8755 C   0  0  0  0  0  0  0  0  0  0  0  0
    4.4913    4.7455    1.5711 H   0  0  0  0  0  0  0  0  0  0  0  0
    2.3762    6.6317    1.0991 H   0  0  0  0  0  0  0  0  0  0  0  0
    1.8933    5.5531    2.4307 H   0  0  0  0  0  0  0  0  0  0  0  0
    3.3684    6.5312    2.5682 H   0  0  0  0  0  0  0  0  0  0  0  0
  1  2  2  0  0  0  0
  1  3  1  0  0  0  0
  1  7  1  0  0  0  0
  3  4  1  0  0  0  0
  3  5  1  0  0  0  0
  3  6  1  0  0  0  0
  7  8  1  0  0  0  0
  7 12  1  0  0  0  0
  8  9  1  0  0  0  0
  8 11  1  0  0  0  0
  8 13  1  0  0  0  0
  9 10  2  0  0  0  0
  9 17  1  0  0  0  0
 11 14  1  0  0  0  0
 11 15  1  0  0  0  0
 11 16  1  0  0  0  0
 17 18  1  0  0  0  0
 17 27  1  0  0  0  0
 18 19  1  0  0  0  0
 18 21  1  0  0  0  0
 18 28  1  0  0  0  0
 19 20  2  0  0  0  0
 19 35  1  0  0  0  0
 21 22  1  0  0  0  0
 21 29  1  0  0  0  0
 21 30  1  0  0  0  0
 22 23  1  0  0  0  0
 22 24  2  0  0  0  0
 23 25  2  0  0  0  0
 23 31  1  0  0  0  0
 24 26  1  0  0  0  0
 24 32  1  0  0  0  0
 25 26  1  0  0  0  0
 25 33  1  0  0  0  0
 26 34  1  0  0  0  0
 35 36  1  0  0  0  0
 35 40  1  0  0  0  0
 36 37  1  0  0  0  0
 36 39  1  0  0  0  0
 36 41  1  0  0  0  0
 37 38  2  0  0  0  0
 37 45  1  0  0  0  0
 39 42  1  0  0  0  0
 39 43  1  0  0  0  0
 39 44  1  0  0  0  0
 45 46  1  0  0  0  0
 45 47  1  0  0  0  0
 46 48  1  0  0  0  0
 46 49  1  0  0  0  0
 46 50  1  0  0  0  0
M  CHG  1  23   1
M  END
$$$$

  -OEChem-05262216443D

 50 50  0     1  0  0  0  0  0999 V2000
   -2.8054    0.6944    2.5094 C   0  0  0  0  0  0  0  0  0  0  0  0
   -2.5765    1.1580    1.3975 O   0  0  0  0  0  0  0  0  0  0  0  0
   -4.1999    0.2085    2.8537 C   0  0  0  0  0  0  0  0  0  0  0  0
   -4.8835    0.3942    2.0210 H   0  0  0  0  0  0  0  0  0  0  0  0
   -4.1815   -0.8636    3.0639 H   0  0  0  0  0  0  0  0  0  0  0  0
   -4.5712    0.7373    3.7356 H   0  0  0  0  0  0  0  0  0  0  0  0
   -1.7915    0.5603    3.4363 N   0  0  0  0  0  0  0  0  0  0  0  0
   -0.4312    1.1000    3.2822 C   0  0  2  0  0  0  0  0  0  0  0  0
    0.4364    0.3094    2.2724 C   0  0  0  0  0  0  0  0  0  0  0  0
    1.3572   -0.4096    2.6259 O   0  0  0  0  0  0  0  0  0  0  0  0
    0.2032    1.1472    4.6781 C   0  0  0  0  0  0  0  0  0  0  0  0
   -2.0364    0.1437    4.3314 H   0  0  0  0  0  0  0  0  0  0  0  0
   -0.4915    2.1301    2.9130 H   0  0  0  0  0  0  0  0  0  0  0  0
    0.2822    0.1404    5.1017 H   0  0  0  0  0  0  0  0  0  0  0  0
    1.2092    1.5760    4.6211 H   0  0  0  0  0  0  0  0  0  0  0  0
   -0.3960    1.7664    5.3525 H   0  0  0  0  0  0  0  0  0  0  0  0
    0.1254    0.4088    0.9299 N   0  0  0  0  0  0  0  0  0  0  0  0
    1.0755    0.2699   -0.1889 C   0  0  2  0  0  0  0  0  0  0  0  0
    2.4085    1.0394    0.0044 C   0  0  0  0  0  0  0  0  0  0  0  0
    3.3396    0.5224    0.5991 O   0  0  0  0  0  0  0  0  0  0  0  0
    0.3446    0.6693   -1.4831 C   0  0  0  0  0  0  0  0  0  0  0  0
   -0.7905   -0.2855   -1.7630 C   0  0  0  0  0  0  0  0  0  0  0  0
   -0.6758   -1.5890   -2.2492 N   0  3  0  0  0  0  0  0  0  0  0  0
   -2.1264   -0.0269   -1.5831 C   0  0  0  0  0  0  0  0  0  0  0  0
   -1.8619   -2.1374   -2.3590 C   0  0  0  0  0  0  0  0  0  0  0  0
   -2.7963   -1.1845   -1.9577 N   0  0  0  0  0  0  0  0  0  0  0  0
   -0.7219    0.9562    0.7648 H   0  0  0  0  0  0  0  0  0  0  0  0
    1.3587   -0.7861   -0.2577 H   0  0  0  0  0  0  0  0  0  0  0  0
    1.0421    0.6583   -2.3282 H   0  0  0  0  0  0  0  0  0  0  0  0
   -0.0435    1.6893   -1.3861 H   0  0  0  0  0  0  0  0  0  0  0  0
    0.2255   -2.0387   -2.4332 H   0  0  0  0  0  0  0  0  0  0  0  0
   -2.5635    0.8946   -1.1927 H   0  0  0  0  0  0  0  0  0  0  0  0
   -2.0769   -3.1543   -2.6927 H   0  0  0  0  0  0  0  0  0  0  0  0
   -3.8108   -1.3198   -1.9177 H   0  0  0  0  0  0  0  0  0  0  0  0
    2.6516    2.2168   -0.6833 N   0  0  0  0  0  0  0  0  0  0  0  0
    3.6793    3.1588   -0.2135 C   0  0  2  0  0  0  0  0  0  0  0  0
    3.0586    4.1729    0.7717 C   0  0  0  0  0  0  0  0  0  0  0  0
    1.8423    4.3464    0.7730 O   0  0  0  0  0  0  0  0  0  0  0  0
    4.2618    3.8724   -1.4351 C   0  0  0  0  0  0  0  0  0  0  0  0
    1.8079    2.6733   -1.0185 H   0  0  0  0  0  0  0  0  0  0  0  0
    4.4936    2.6360    0.3006 H   0  0  0  0  0  0  0  0  0  0  0  0
    3.4821    4.4294   -1.9645 H   0  0  0  0  0  0  0  0  0  0  0  0
    5.0439    4.5749   -1.1304 H   0  0  0  0  0  0  0  0  0  0  0  0
    4.7021    3.1450   -2.1246 H   0  0  0  0  0  0  0  0  0  0  0  0
    3.8509    4.8911    1.6464 N   0  0  0  0  0  0  0  0  0  0  0  0
    3.3151    5.8441    2.6118 C   0  0  0  0  0  0  0  0  0  0  0  0
    4.8462    4.6846    1.6615 H   0  0  0  0  0  0  0  0  0  0  0  0
    2.8063    6.6664    2.0976 H   0  0  0  0  0  0  0  0  0  0  0  0
    2.6015    5.3523    3.2813 H   0  0  0  0  0  0  0  0  0  0  0  0
    4.1233    6.2646    3.2182 H   0  0  0  0  0  0  0  0  0  0  0  0
  1  2  2  0  0  0  0
  1  3  1  0  0  0  0
  1  7  1  0  0  0  0
  3  4  1  0  0  0  0
  3  5  1  0  0  0  0
  3  6  1  0  0  0  0
  7  8  1  0  0  0  0
  7 12  1  0  0  0  0
  8  9  1  0  0  0  0
  8 11  1  0  0  0  0
  8 13  1  0  0  0  0
  9 10  2  0  0  0  0
  9 17  1  0  0  0  0
 11 14  1  0  0  0  0
 11 15  1  0  0  0  0
 11 16  1  0  0  0  0
 17 18  1  0  0  0  0
 17 27  1  0  0  0  0
 18 19  1  0  0  0  0
 18 21  1  0  0  0  0
 18 28  1  0  0  0  0
 19 20  2  0  0  0  0
 19 35  1  0  0  0  0
 21 22  1  0  0  0  0
 21 29  1  0  0  0  0
 21 30  1  0  0  0  0
 22 23  1  0  0  0  0
 22 24  2  0  0  0  0
 23 25  2  0  0  0  0
 23 31  1  0  0  0  0
 24 26  1  0  0  0  0
 24 32  1  0  0  0  0
 25 26  1  0  0  0  0
 25 33  1  0  0  0  0
 26 34  1  0  0  0  0
 35 36  1  0  0  0  0
 35 40  1  0  0  0  0
 36 37  1  0  0  0  0
 36 39  1  0  0  0  0
 36 41  1  0  0  0  0
 37 38  2  0  0  0  0
 37 45  1  0  0  0  0
 39 42  1  0  0  0  0
 39 43  1  0  0  0  0
 39 44  1  0  0  0  0
 45 46  1  0  0  0  0
 45 47  1  0  0  0  0
 46 48  1  0  0  0  0
 46 49  1  0  0  0  0
 46 50  1  0  0  0  0
M  CHG  1  23   1
M  END
$$$$

  -OEChem-05262216443D

 50 50  0     1  0  0  0  0  0999 V2000
   -2.7712    0.9577    2.3602 C   0  0  0  0  0  0  0  0  0  0  0  0
   -2.5367    1.2659    1.1965 O   0  0  0  0  0  0  0  0  0  0  0  0
   -4.1747    0.5494    2.7638 C   0  0  0  0  0  0  0  0  0  0  0  0
   -4.8659    0.6904    1.9285 H   0  0  0  0  0  0  0  0  0  0  0  0
   -4.1880   -0.5019    3.0617 H   0  0  0  0  0  0  0  0  0  0  0  0
   -4.5130    1.1610    3.6045 H   0  0  0  0  0  0  0  0  0  0  0  0
   -1.7608    0.9300    3.3006 N   0  0  0  0  0  0  0  0  0  0  0  0
   -0.4016    1.4540    3.0908 C   0  0  2  0  0  0  0  0  0  0  0  0
    0.4771    0.5524    2.1900 C   0  0  0  0  0  0  0  0  0  0  0  0
    1.4395   -0.0655    2.6185 O   0  0  0  0  0  0  0  0  0  0  0  0
    0.2231    1.6795    4.4731 C   0  0  0  0  0  0  0  0  0  0  0  0
   -2.0174    0.6500    4.2441 H   0  0  0  0  0  0  0  0  0  0  0  0
   -0.4651    2.4307    2.5975 H   0  0  0  0  0  0  0  0  0  0  0  0
    0.3164    0.7331    5.0158 H   0  0  0  0  0  0  0  0  0  0  0  0
    1.2221    2.1150    4.3674 H   0  0  0  0  0  0  0  0  0  0  0  0
   -0.3900    2.3662    5.0648 H   0  0  0  0  0  0  0  0  0  0  0  0
    0.1660    0.4795    0.8456 N   0  0  0  0  0  0  0  0  0  0  0  0
    1.1318    0.2271   -0.2374 C   0  0  2  0  0  0  0  0  0  0  0  0
    2.4240    1.0626   -0.0882 C   0  0  0  0  0  0  0  0  0  0  0  0
    3.4413    0.5482    0.3490 O   0  0  0  0  0  0  0  0  0  0  0  0
    0.4330    0.4623   -1.5865 C   0  0  0  0  0  0  0  0  0  0  0  0
   -0.6827   -0.5358   -1.7751 C   0  0  0  0  0  0  0  0  0  0  0  0
   -0.5390   -1.8859   -2.0984 N   0  3  0  0  0  0  0  0  0  0  0  0
   -2.0250   -0.2816   -1.6429 C   0  0  0  0  0  0  0  0  0  0  0  0
   -1.7142   -2.4644   -2.1591 C   0  0  0  0  0  0  0  0  0  0  0  0
   -2.6701   -1.4871   -1.8876 N   0  0  0  0  0  0  0  0  0  0  0  0
   -0.6872    0.9920    0.6131 H   0  0  0  0  0  0  0  0  0  0  0  0
    1.4430   -0.8215   -0.1776 H   0  0  0  0  0  0  0  0  0  0  0  0
    1.1559    0.3645   -2.4042 H   0  0  0  0  0  0  0  0  0  0  0  0
    0.0289    1.4796   -1.6230 H   0  0  0  0  0  0  0  0  0  0  0  0
    0.3726   -2.3375   -2.2148 H   0  0  0  0  0  0  0  0  0  0  0  0
   -2.4822    0.6707   -1.3663 H   0  0  0  0  0  0  0  0  0  0  0  0
   -1.9067   -3.5176   -2.3728 H   0  0  0  0  0  0  0  0  0  0  0  0
   -3.6829   -1.6344   -1.8465 H   0  0  0  0  0  0  0  0  0  0  0  0
    2.5140    2.3206   -0.6573 N   0  0  0  0  0  0  0  0  0  0  0  0
    3.4193    3.2999   -0.0387 C   0  0  2  0  0  0  0  0  0  0  0  0
    2.7708    3.9055    1.2287 C   0  0  0  0  0  0  0  0  0  0  0  0
    1.5516    3.8463    1.3784 O   0  0  0  0  0  0  0  0  0  0  0  0
    3.7197    4.3883   -1.0713 C   0  0  0  0  0  0  0  0  0  0  0  0
    1.6086    2.7084   -0.9044 H   0  0  0  0  0  0  0  0  0  0  0  0
    4.3652    2.8271    0.2490 H   0  0  0  0  0  0  0  0  0  0  0  0
    2.8006    4.9033   -1.3686 H   0  0  0  0  0  0  0  0  0  0  0  0
    4.4124    5.1271   -0.6566 H   0  0  0  0  0  0  0  0  0  0  0  0
    4.1785    3.9485   -1.9625 H   0  0  0  0  0  0  0  0  0  0  0  0
    3.5437    4.5182    2.1960 N   0  0  0  0  0  0  0  0  0  0  0  0
    2.9957    5.0558    3.4361 C   0  0  0  0  0  0  0  0  0  0  0  0
    4.5535    4.4717    2.0890 H   0  0  0  0  0  0  0  0  0  0  0  0
    2.2129    5.7919    3.2240 H   0  0  0  0  0  0  0  0  0  0  0  0
    2.5689    4.2532    4.0461 H   0  0  0  0  0  0  0  0  0  0  0  0
    3.7823    5.5495    4.0155 H   0  0  0  0  0  0  0  0  0  0  0  0
  1  2  2  0  0  0  0
  1  3  1  0  0  0  0
  1  7  1  0  0  0  0
  3  4  1  0  0  0  0
  3  5  1  0  0  0  0
  3  6  1  0  0  0  0
  7  8  1  0  0  0  0
  7 12  1  0  0  0  0
  8  9  1  0  0  0  0
  8 11  1  0  0  0  0
  8 13  1  0  0  0  0
  9 10  2  0  0  0  0
  9 17  1  0  0  0  0
 11 14  1  0  0  0  0
 11 15  1  0  0  0  0
 11 16  1  0  0  0  0
 17 18  1  0  0  0  0
 17 27  1  0  0  0  0
 18 19  1  0  0  0  0
 18 21  1  0  0  0  0
 18 28  1  0  0  0  0
 19 20  2  0  0  0  0
 19 35  1  0  0  0  0
 21 22  1  0  0  0  0
 21 29  1  0  0  0  0
 21 30  1  0  0  0  0
 22 23  1  0  0  0  0
 22 24  2  0  0  0  0
 23 25  2  0  0  0  0
 23 31  1  0  0  0  0
 24 26  1  0  0  0  0
 24 32  1  0  0  0  0
 25 26  1  0  0  0  0
 25 33  1  0  0  0  0
 26 34  1  0  0  0  0
 35 36  1  0  0  0  0
 35 40  1  0  0  0  0
 36 37  1  0  0  0  0
 36 39  1  0  0  0  0
 36 41  1  0  0  0  0
 37 38  2  0  0  0  0
 37 45  1  0  0  0  0
 39 42  1  0  0  0  0
 39 43  1  0  0  0  0
 39 44  1  0  0  0  0
 45 46  1  0  0  0  0
 45 47  1  0  0  0  0
 46 48  1  0  0  0  0
 46 49  1  0  0  0  0
 46 50  1  0  0  0  0
M  CHG  1  23   1
M  END
$$$$

  -OEChem-05262216443D

 50 50  0     1  0  0  0  0  0999 V2000
   -2.7898    0.7353    2.3563 C   0  0  0  0  0  0  0  0  0  0  0  0
   -2.5744    1.1344    1.2171 O   0  0  0  0  0  0  0  0  0  0  0  0
   -4.1630    0.2042    2.7200 C   0  0  0  0  0  0  0  0  0  0  0  0
   -4.8588    0.3486    1.8890 H   0  0  0  0  0  0  0  0  0  0  0  0
   -4.1028   -0.8622    2.9511 H   0  0  0  0  0  0  0  0  0  0  0  0
   -4.5491    0.7360    3.5934 H   0  0  0  0  0  0  0  0  0  0  0  0
   -1.7808    0.7095    3.2984 N   0  0  0  0  0  0  0  0  0  0  0  0
   -0.4692    1.3627    3.1492 C   0  0  2  0  0  0  0  0  0  0  0  0
    0.4986    0.6131    2.1999 C   0  0  0  0  0  0  0  0  0  0  0  0
    1.5623    0.1469    2.5798 O   0  0  0  0  0  0  0  0  0  0  0  0
    0.1143    1.5345    4.5574 C   0  0  0  0  0  0  0  0  0  0  0  0
   -2.0280    0.3619    4.2218 H   0  0  0  0  0  0  0  0  0  0  0  0
   -0.6122    2.3647    2.7291 H   0  0  0  0  0  0  0  0  0  0  0  0
    0.2892    0.5601    5.0256 H   0  0  0  0  0  0  0  0  0  0  0  0
    1.0689    2.0686    4.5070 H   0  0  0  0  0  0  0  0  0  0  0  0
   -0.5678    2.1120    5.1888 H   0  0  0  0  0  0  0  0  0  0  0  0
    0.1635    0.5268    0.8615 N   0  0  0  0  0  0  0  0  0  0  0  0
    1.1114    0.3133   -0.2449 C   0  0  2  0  0  0  0  0  0  0  0  0
    2.3698    1.1971   -0.1269 C   0  0  0  0  0  0  0  0  0  0  0  0
    3.4700    0.6779   -0.0166 O   0  0  0  0  0  0  0  0  0  0  0  0
    0.3927    0.5356   -1.5842 C   0  0  0  0  0  0  0  0  0  0  0  0
   -0.6951   -0.4918   -1.7717 C   0  0  0  0  0  0  0  0  0  0  0  0
   -0.5093   -1.8336   -2.1075 N   0  3  0  0  0  0  0  0  0  0  0  0
   -2.0443   -0.2793   -1.6402 C   0  0  0  0  0  0  0  0  0  0  0  0
   -1.6663   -2.4464   -2.1791 C   0  0  0  0  0  0  0  0  0  0  0  0
   -2.6519   -1.5018   -1.8973 N   0  0  0  0  0  0  0  0  0  0  0  0
   -0.7515    0.9294    0.6474 H   0  0  0  0  0  0  0  0  0  0  0  0
    1.4612   -0.7237   -0.1955 H   0  0  0  0  0  0  0  0  0  0  0  0
    1.1116    0.4651   -2.4084 H   0  0  0  0  0  0  0  0  0  0  0  0
   -0.0384    1.5422   -1.6107 H   0  0  0  0  0  0  0  0  0  0  0  0
    0.4162   -2.2534   -2.2359 H   0  0  0  0  0  0  0  0  0  0  0  0
   -2.5312    0.6573   -1.3610 H   0  0  0  0  0  0  0  0  0  0  0  0
   -1.8265   -3.5013   -2.4101 H   0  0  0  0  0  0  0  0  0  0  0  0
   -3.6602   -1.6790   -1.8653 H   0  0  0  0  0  0  0  0  0  0  0  0
    2.2848    2.5457   -0.4171 N   0  0  0  0  0  0  0  0  0  0  0  0
    3.2320    3.4737    0.2144 C   0  0  2  0  0  0  0  0  0  0  0  0
    2.6573    3.9740    1.5593 C   0  0  0  0  0  0  0  0  0  0  0  0
    1.4490    3.8897    1.7729 O   0  0  0  0  0  0  0  0  0  0  0  0
    3.4687    4.6382   -0.7491 C   0  0  0  0  0  0  0  0  0  0  0  0
    1.3270    2.8880   -0.4007 H   0  0  0  0  0  0  0  0  0  0  0  0
    4.1926    2.9848    0.4119 H   0  0  0  0  0  0  0  0  0  0  0  0
    2.5316    5.1664   -0.9529 H   0  0  0  0  0  0  0  0  0  0  0  0
    4.1824    5.3492   -0.3216 H   0  0  0  0  0  0  0  0  0  0  0  0
    3.8751    4.2684   -1.6959 H   0  0  0  0  0  0  0  0  0  0  0  0
    3.4816    4.5181    2.5251 N   0  0  0  0  0  0  0  0  0  0  0  0
    3.0011    4.9593    3.8296 C   0  0  0  0  0  0  0  0  0  0  0  0
    4.4829    4.5088    2.3494 H   0  0  0  0  0  0  0  0  0  0  0  0
    2.2501    5.7481    3.7151 H   0  0  0  0  0  0  0  0  0  0  0  0
    2.5535    4.1235    4.3773 H   0  0  0  0  0  0  0  0  0  0  0  0
    3.8295    5.3565    4.4242 H   0  0  0  0  0  0  0  0  0  0  0  0
  1  2  2  0  0  0  0
  1  3  1  0  0  0  0
  1  7  1  0  0  0  0
  3  4  1  0  0  0  0
  3  5  1  0  0  0  0
  3  6  1  0  0  0  0
  7  8  1  0  0  0  0
  7 12  1  0  0  0  0
  8  9  1  0  0  0  0
  8 11  1  0  0  0  0
  8 13  1  0  0  0  0
  9 10  2  0  0  0  0
  9 17  1  0  0  0  0
 11 14  1  0  0  0  0
 11 15  1  0  0  0  0
 11 16  1  0  0  0  0
 17 18  1  0  0  0  0
 17 27  1  0  0  0  0
 18 19  1  0  0  0  0
 18 21  1  0  0  0  0
 18 28  1  0  0  0  0
 19 20  2  0  0  0  0
 19 35  1  0  0  0  0
 21 22  1  0  0  0  0
 21 29  1  0  0  0  0
 21 30  1  0  0  0  0
 22 23  1  0  0  0  0
 22 24  2  0  0  0  0
 23 25  2  0  0  0  0
 23 31  1  0  0  0  0
 24 26  1  0  0  0  0
 24 32  1  0  0  0  0
 25 26  1  0  0  0  0
 25 33  1  0  0  0  0
 26 34  1  0  0  0  0
 35 36  1  0  0  0  0
 35 40  1  0  0  0  0
 36 37  1  0  0  0  0
 36 39  1  0  0  0  0
 36 41  1  0  0  0  0
 37 38  2  0  0  0  0
 37 45  1  0  0  0  0
 39 42  1  0  0  0  0
 39 43  1  0  0  0  0
 39 44  1  0  0  0  0
 45 46  1  0  0  0  0
 45 47  1  0  0  0  0
 46 48  1  0  0  0  0
 46 49  1  0  0  0  0
 46 50  1  0  0  0  0
M  CHG  1  23   1
M  END
$$$$

  -OEChem-05262216443D

 50 50  0     1  0  0  0  0  0999 V2000
   -2.8096    0.4051    2.4238 C   0  0  0  0  0  0  0  0  0  0  0  0
   -2.6672    0.8630    1.2951 O   0  0  0  0  0  0  0  0  0  0  0  0
   -4.1074   -0.2833    2.8003 C   0  0  0  0  0  0  0  0  0  0  0  0
   -4.8348   -0.1926    1.9893 H   0  0  0  0  0  0  0  0  0  0  0  0
   -3.9262   -1.3429    2.9973 H   0  0  0  0  0  0  0  0  0  0  0  0
   -4.5276    0.1780    3.6979 H   0  0  0  0  0  0  0  0  0  0  0  0
   -1.7794    0.4619    3.3409 N   0  0  0  0  0  0  0  0  0  0  0  0
   -0.5445    1.2458    3.1728 C   0  0  2  0  0  0  0  0  0  0  0  0
    0.4632    0.6139    2.1813 C   0  0  0  0  0  0  0  0  0  0  0  0
    1.5711    0.2282    2.5261 O   0  0  0  0  0  0  0  0  0  0  0  0
    0.0616    1.4496    4.5667 C   0  0  0  0  0  0  0  0  0  0  0  0
   -1.9605    0.0618    4.2585 H   0  0  0  0  0  0  0  0  0  0  0  0
   -0.7973    2.2368    2.7787 H   0  0  0  0  0  0  0  0  0  0  0  0
    0.3473    0.4900    5.0100 H   0  0  0  0  0  0  0  0  0  0  0  0
    0.9557    2.0783    4.4992 H   0  0  0  0  0  0  0  0  0  0  0  0
   -0.6549    1.9445    5.2291 H   0  0  0  0  0  0  0  0  0  0  0  0
    0.1172    0.5538    0.8432 N   0  0  0  0  0  0  0  0  0  0  0  0
    1.0546    0.3676   -0.2783 C   0  0  2  0  0  0  0  0  0  0  0  0
    2.3091    1.2522   -0.1563 C   0  0  0  0  0  0  0  0  0  0  0  0
    3.4163    0.7644   -0.3261 O   0  0  0  0  0  0  0  0  0  0  0  0
    0.3351    0.6434   -1.6063 C   0  0  0  0  0  0  0  0  0  0  0  0
   -0.7664   -0.3620   -1.8285 C   0  0  0  0  0  0  0  0  0  0  0  0
   -0.5951   -1.6926   -2.2120 N   0  3  0  0  0  0  0  0  0  0  0  0
   -2.1130   -0.1407   -1.6862 C   0  0  0  0  0  0  0  0  0  0  0  0
   -1.7581   -2.2914   -2.3009 C   0  0  0  0  0  0  0  0  0  0  0  0
   -2.7332   -1.3479   -1.9817 N   0  0  0  0  0  0  0  0  0  0  0  0
   -0.8398    0.8540    0.6456 H   0  0  0  0  0  0  0  0  0  0  0  0
    1.4033   -0.6707   -0.2641 H   0  0  0  0  0  0  0  0  0  0  0  0
    1.0523    0.5933   -2.4339 H   0  0  0  0  0  0  0  0  0  0  0  0
   -0.0802    1.6570   -1.5962 H   0  0  0  0  0  0  0  0  0  0  0  0
    0.3258   -2.1145   -2.3637 H   0  0  0  0  0  0  0  0  0  0  0  0
   -2.5912    0.7894   -1.3728 H   0  0  0  0  0  0  0  0  0  0  0  0
   -1.9288   -3.3356   -2.5697 H   0  0  0  0  0  0  0  0  0  0  0  0
   -3.7429   -1.5161   -1.9513 H   0  0  0  0  0  0  0  0  0  0  0  0
    2.1581    2.6235   -0.1096 N   0  0  0  0  0  0  0  0  0  0  0  0
    3.1600    3.4538    0.5692 C   0  0  2  0  0  0  0  0  0  0  0  0
    2.5925    3.9510    1.9177 C   0  0  0  0  0  0  0  0  0  0  0  0
    1.3836    3.8778    2.1330 O   0  0  0  0  0  0  0  0  0  0  0  0
    3.5107    4.6263   -0.3489 C   0  0  0  0  0  0  0  0  0  0  0  0
    1.2034    2.9065    0.1068 H   0  0  0  0  0  0  0  0  0  0  0  0
    4.0718    2.8832    0.7788 H   0  0  0  0  0  0  0  0  0  0  0  0
    2.6215    5.2284   -0.5619 H   0  0  0  0  0  0  0  0  0  0  0  0
    4.2619    5.2693    0.1199 H   0  0  0  0  0  0  0  0  0  0  0  0
    3.9161    4.2552   -1.2954 H   0  0  0  0  0  0  0  0  0  0  0  0
    3.4242    4.4852    2.8829 N   0  0  0  0  0  0  0  0  0  0  0  0
    2.9495    4.9606    4.1772 C   0  0  0  0  0  0  0  0  0  0  0  0
    4.4239    4.4819    2.6984 H   0  0  0  0  0  0  0  0  0  0  0  0
    2.1994    5.7477    4.0453 H   0  0  0  0  0  0  0  0  0  0  0  0
    2.5031    4.1397    4.7477 H   0  0  0  0  0  0  0  0  0  0  0  0
    3.7810    5.3721    4.7578 H   0  0  0  0  0  0  0  0  0  0  0  0
  1  2  2  0  0  0  0
  1  3  1  0  0  0  0
  1  7  1  0  0  0  0
  3  4  1  0  0  0  0
  3  5  1  0  0  0  0
  3  6  1  0  0  0  0
  7  8  1  0  0  0  0
  7 12  1  0  0  0  0
  8  9  1  0  0  0  0
  8 11  1  0  0  0  0
  8 13  1  0  0  0  0
  9 10  2  0  0  0  0
  9 17  1  0  0  0  0
 11 14  1  0  0  0  0
 11 15  1  0  0  0  0
 11 16  1  0  0  0  0
 17 18  1  0  0  0  0
 17 27  1  0  0  0  0
 18 19  1  0  0  0  0
 18 21  1  0  0  0  0
 18 28  1  0  0  0  0
 19 20  2  0  0  0  0
 19 35  1  0  0  0  0
 21 22  1  0  0  0  0
 21 29  1  0  0  0  0
 21 30  1  0  0  0  0
 22 23  1  0  0  0  0
 22 24  2  0  0  0  0
 23 25  2  0  0  0  0
 23 31  1  0  0  0  0
 24 26  1  0  0  0  0
 24 32  1  0  0  0  0
 25 26  1  0  0  0  0
 25 33  1  0  0  0  0
 26 34  1  0  0  0  0
 35 36  1  0  0  0  0
 35 40  1  0  0  0  0
 36 37  1  0  0  0  0
 36 39  1  0  0  0  0
 36 41  1  0  0  0  0
 37 38  2  0  0  0  0
 37 45  1  0  0  0  0
 39 42  1  0  0  0  0
 39 43  1  0  0  0  0
 39 44  1  0  0  0  0
 45 46  1  0  0  0  0
 45 47  1  0  0  0  0
 46 48  1  0  0  0  0
 46 49  1  0  0  0  0
 46 50  1  0  0  0  0
M  CHG  1  23   1
M  END
$$$$

  -OEChem-05262216443D

 50 50  0     1  0  0  0  0  0999 V2000
   -2.8283    0.2100    2.4591 C   0  0  0  0  0  0  0  0  0  0  0  0
   -2.7300    0.7253    1.3508 O   0  0  0  0  0  0  0  0  0  0  0  0
   -4.0890   -0.5459    2.8325 C   0  0  0  0  0  0  0  0  0  0  0  0
   -4.8471   -0.4295    2.0533 H   0  0  0  0  0  0  0  0  0  0  0  0
   -3.8661   -1.6088    2.9550 H   0  0  0  0  0  0  0  0  0  0  0  0
   -4.4923   -0.1570    3.7713 H   0  0  0  0  0  0  0  0  0  0  0  0
   -1.7805    0.2666    3.3558 N   0  0  0  0  0  0  0  0  0  0  0  0
   -0.5864    1.1148    3.2056 C   0  0  2  0  0  0  0  0  0  0  0  0
    0.4275    0.5871    2.1604 C   0  0  0  0  0  0  0  0  0  0  0  0
    1.5637    0.2473    2.4604 O   0  0  0  0  0  0  0  0  0  0  0  0
    0.0372    1.2637    4.5991 C   0  0  0  0  0  0  0  0  0  0  0  0
   -1.9288   -0.1777    4.2589 H   0  0  0  0  0  0  0  0  0  0  0  0
   -0.8912    2.1140    2.8751 H   0  0  0  0  0  0  0  0  0  0  0  0
    0.3718    0.2933    4.9803 H   0  0  0  0  0  0  0  0  0  0  0  0
    0.9024    1.9334    4.5559 H   0  0  0  0  0  0  0  0  0  0  0  0
   -0.6873    1.6878    5.3008 H   0  0  0  0  0  0  0  0  0  0  0  0
    0.0546    0.5607    0.8272 N   0  0  0  0  0  0  0  0  0  0  0  0
    0.9754    0.4298   -0.3184 C   0  0  2  0  0  0  0  0  0  0  0  0
    2.2187    1.3318   -0.2104 C   0  0  0  0  0  0  0  0  0  0  0  0
    3.2965    0.9376   -0.6298 O   0  0  0  0  0  0  0  0  0  0  0  0
    0.2288    0.7557   -1.6194 C   0  0  0  0  0  0  0  0  0  0  0  0
   -0.8696   -0.2465   -1.8670 C   0  0  0  0  0  0  0  0  0  0  0  0
   -0.6973   -1.5575   -2.3123 N   0  3  0  0  0  0  0  0  0  0  0  0
   -2.2149   -0.0391   -1.6959 C   0  0  0  0  0  0  0  0  0  0  0  0
   -1.8591   -2.1573   -2.4130 C   0  0  0  0  0  0  0  0  0  0  0  0
   -2.8338   -1.2345   -2.0374 N   0  0  0  0  0  0  0  0  0  0  0  0
   -0.9247    0.8006    0.6567 H   0  0  0  0  0  0  0  0  0  0  0  0
    1.3392   -0.6026   -0.3519 H   0  0  0  0  0  0  0  0  0  0  0  0
    0.9302    0.7468   -2.4622 H   0  0  0  0  0  0  0  0  0  0  0  0
   -0.1900    1.7663   -1.5573 H   0  0  0  0  0  0  0  0  0  0  0  0
    0.2233   -1.9658   -2.4999 H   0  0  0  0  0  0  0  0  0  0  0  0
   -2.6922    0.8736   -1.3342 H   0  0  0  0  0  0  0  0  0  0  0  0
   -2.0297   -3.1886   -2.7280 H   0  0  0  0  0  0  0  0  0  0  0  0
   -3.8422   -1.4090   -2.0002 H   0  0  0  0  0  0  0  0  0  0  0  0
    2.0582    2.6448    0.1811 N   0  0  0  0  0  0  0  0  0  0  0  0
    3.1283    3.3712    0.8706 C   0  0  2  0  0  0  0  0  0  0  0  0
    2.6215    3.8316    2.2558 C   0  0  0  0  0  0  0  0  0  0  0  0
    1.4176    3.7915    2.5068 O   0  0  0  0  0  0  0  0  0  0  0  0
    3.5389    4.5642    0.0053 C   0  0  0  0  0  0  0  0  0  0  0  0
    1.1357    2.8398    0.5690 H   0  0  0  0  0  0  0  0  0  0  0  0
    3.9981    2.7237    1.0304 H   0  0  0  0  0  0  0  0  0  0  0  0
    2.6897    5.2376   -0.1487 H   0  0  0  0  0  0  0  0  0  0  0  0
    4.3468    5.1262    0.4838 H   0  0  0  0  0  0  0  0  0  0  0  0
    3.8910    4.2169   -0.9712 H   0  0  0  0  0  0  0  0  0  0  0  0
    3.5007    4.2905    3.2179 N   0  0  0  0  0  0  0  0  0  0  0  0
    3.0821    4.7239    4.5463 C   0  0  0  0  0  0  0  0  0  0  0  0
    4.4931    4.2720    2.9979 H   0  0  0  0  0  0  0  0  0  0  0  0
    2.3338    5.5204    4.4730 H   0  0  0  0  0  0  0  0  0  0  0  0
    2.6521    3.8865    5.1057 H   0  0  0  0  0  0  0  0  0  0  0  0
    3.9397    5.1100    5.1061 H   0  0  0  0  0  0  0  0  0  0  0  0
  1  2  2  0  0  0  0
  1  3  1  0  0  0  0
  1  7  1  0  0  0  0
  3  4  1  0  0  0  0
  3  5  1  0  0  0  0
  3  6  1  0  0  0  0
  7  8  1  0  0  0  0
  7 12  1  0  0  0  0
  8  9  1  0  0  0  0
  8 11  1  0  0  0  0
  8 13  1  0  0  0  0
  9 10  2  0  0  0  0
  9 17  1  0  0  0  0
 11 14  1  0  0  0  0
 11 15  1  0  0  0  0
 11 16  1  0  0  0  0
 17 18  1  0  0  0  0
 17 27  1  0  0  0  0
 18 19  1  0  0  0  0
 18 21  1  0  0  0  0
 18 28  1  0  0  0  0
 19 20  2  0  0  0  0
 19 35  1  0  0  0  0
 21 22  1  0  0  0  0
 21 29  1  0  0  0  0
 21 30  1  0  0  0  0
 22 23  1  0  0  0  0
 22 24  2  0  0  0  0
 23 25  2  0  0  0  0
 23 31  1  0  0  0  0
 24 26  1  0  0  0  0
 24 32  1  0  0  0  0
 25 26  1  0  0  0  0
 25 33  1  0  0  0  0
 26 34  1  0  0  0  0
 35 36  1  0  0  0  0
 35 40  1  0  0  0  0
 36 37  1  0  0  0  0
 36 39  1  0  0  0  0
 36 41  1  0  0  0  0
 37 38  2  0  0  0  0
 37 45  1  0  0  0  0
 39 42  1  0  0  0  0
 39 43  1  0  0  0  0
 39 44  1  0  0  0  0
 45 46  1  0  0  0  0
 45 47  1  0  0  0  0
 46 48  1  0  0  0  0
 46 49  1  0  0  0  0
 46 50  1  0  0  0  0
M  CHG  1  23   1
M  END
$$$$

  -OEChem-05262216443D

 50 50  0     1  0  0  0  0  0999 V2000
   -2.9379   -0.3706    2.3521 C   0  0  0  0  0  0  0  0  0  0  0  0
   -2.8954    0.0218    1.1915 O   0  0  0  0  0  0  0  0  0  0  0  0
   -3.7343   -1.6108    2.7096 C   0  0  0  0  0  0  0  0  0  0  0  0
   -4.2447   -2.0029    1.8260 H   0  0  0  0  0  0  0  0  0  0  0  0
   -3.0687   -2.3827    3.1044 H   0  0  0  0  0  0  0  0  0  0  0  0
   -4.4841   -1.3676    3.4671 H   0  0  0  0  0  0  0  0  0  0  0  0
   -2.2150    0.2858    3.3271 N   0  0  0  0  0  0  0  0  0  0  0  0
   -1.4891    1.5485    3.1230 C   0  0  2  0  0  0  0  0  0  0  0  0
   -0.1706    1.3644    2.3308 C   0  0  0  0  0  0  0  0  0  0  0  0
    0.9247    1.4802    2.8619 O   0  0  0  0  0  0  0  0  0  0  0  0
   -1.2582    2.1720    4.5056 C   0  0  0  0  0  0  0  0  0  0  0  0
   -2.2711   -0.0863    4.2731 H   0  0  0  0  0  0  0  0  0  0  0  0
   -2.1191    2.2389    2.5515 H   0  0  0  0  0  0  0  0  0  0  0  0
   -0.6402    1.5161    5.1280 H   0  0  0  0  0  0  0  0  0  0  0  0
   -0.7473    3.1356    4.4085 H   0  0  0  0  0  0  0  0  0  0  0  0
   -2.2123    2.3405    5.0149 H   0  0  0  0  0  0  0  0  0  0  0  0
   -0.2395    1.0932    0.9751 N   0  0  0  0  0  0  0  0  0  0  0  0
    0.8902    0.7175    0.0969 C   0  0  2  0  0  0  0  0  0  0  0  0
    2.2041    1.5199    0.2220 C   0  0  0  0  0  0  0  0  0  0  0  0
    3.2211    1.0027   -0.2131 O   0  0  0  0  0  0  0  0  0  0  0  0
    0.4237    0.8153   -1.3667 C   0  0  0  0  0  0  0  0  0  0  0  0
   -0.6718   -0.1789   -1.6589 C   0  0  0  0  0  0  0  0  0  0  0  0
   -0.5030   -1.5537   -1.8288 N   0  3  0  0  0  0  0  0  0  0  0  0
   -2.0054    0.0976   -1.8234 C   0  0  0  0  0  0  0  0  0  0  0  0
   -1.6576   -2.1259   -2.0717 C   0  0  0  0  0  0  0  0  0  0  0  0
   -2.6233   -1.1216   -2.0700 N   0  0  0  0  0  0  0  0  0  0  0  0
   -1.1803    0.8315    0.6677 H   0  0  0  0  0  0  0  0  0  0  0  0
    1.1563   -0.3201    0.3252 H   0  0  0  0  0  0  0  0  0  0  0  0
    1.2665    0.6288   -2.0434 H   0  0  0  0  0  0  0  0  0  0  0  0
    0.0725    1.8340   -1.5653 H   0  0  0  0  0  0  0  0  0  0  0  0
    0.4100   -2.0144   -1.7707 H   0  0  0  0  0  0  0  0  0  0  0  0
   -2.4836    1.0745   -1.7480 H   0  0  0  0  0  0  0  0  0  0  0  0
   -1.8301   -3.1899   -2.2448 H   0  0  0  0  0  0  0  0  0  0  0  0
   -3.6298   -1.2576   -2.2032 H   0  0  0  0  0  0  0  0  0  0  0  0
    2.2107    2.8490    0.6030 N   0  0  0  0  0  0  0  0  0  0  0  0
    3.4371    3.6550    0.7405 C   0  0  2  0  0  0  0  0  0  0  0  0
    4.0156    3.6742    2.1752 C   0  0  0  0  0  0  0  0  0  0  0  0
    4.9322    4.4354    2.4501 O   0  0  0  0  0  0  0  0  0  0  0  0
    3.1025    5.0698    0.2560 C   0  0  0  0  0  0  0  0  0  0  0  0
    1.3777    3.1694    1.0890 H   0  0  0  0  0  0  0  0  0  0  0  0
    4.2262    3.2559    0.0937 H   0  0  0  0  0  0  0  0  0  0  0  0
    2.3470    5.5305    0.8996 H   0  0  0  0  0  0  0  0  0  0  0  0
    3.9991    5.6984    0.2716 H   0  0  0  0  0  0  0  0  0  0  0  0
    2.7233    5.0414   -0.7699 H   0  0  0  0  0  0  0  0  0  0  0  0
    3.4765    2.8958    3.1836 N   0  0  0  0  0  0  0  0  0  0  0  0
    3.9863    2.8829    4.5488 C   0  0  0  0  0  0  0  0  0  0  0  0
    2.7043    2.2728    2.9420 H   0  0  0  0  0  0  0  0  0  0  0  0
    5.0442    2.5998    4.5607 H   0  0  0  0  0  0  0  0  0  0  0  0
    3.8807    3.8717    5.0075 H   0  0  0  0  0  0  0  0  0  0  0  0
    3.4289    2.1599    5.1521 H   0  0  0  0  0  0  0  0  0  0  0  0
  1  2  2  0  0  0  0
  1  3  1  0  0  0  0
  1  7  1  0  0  0  0
  3  4  1  0  0  0  0
  3  5  1  0  0  0  0
  3  6  1  0  0  0  0
  7  8  1  0  0  0  0
  7 12  1  0  0  0  0
  8  9  1  0  0  0  0
  8 11  1  0  0  0  0
  8 13  1  0  0  0  0
  9 10  2  0  0  0  0
  9 17  1  0  0  0  0
 11 14  1  0  0  0  0
 11 15  1  0  0  0  0
 11 16  1  0  0  0  0
 17 18  1  0  0  0  0
 17 27  1  0  0  0  0
 18 19  1  0  0  0  0
 18 21  1  0  0  0  0
 18 28  1  0  0  0  0
 19 20  2  0  0  0  0
 19 35  1  0  0  0  0
 21 22  1  0  0  0  0
 21 29  1  0  0  0  0
 21 30  1  0  0  0  0
 22 23  1  0  0  0  0
 22 24  2  0  0  0  0
 23 25  2  0  0  0  0
 23 31  1  0  0  0  0
 24 26  1  0  0  0  0
 24 32  1  0  0  0  0
 25 26  1  0  0  0  0
 25 33  1  0  0  0  0
 26 34  1  0  0  0  0
 35 36  1  0  0  0  0
 35 40  1  0  0  0  0
 36 37  1  0  0  0  0
 36 39  1  0  0  0  0
 36 41  1  0  0  0  0
 37 38  2  0  0  0  0
 37 45  1  0  0  0  0
 39 42  1  0  0  0  0
 39 43  1  0  0  0  0
 39 44  1  0  0  0  0
 45 46  1  0  0  0  0
 45 47  1  0  0  0  0
 46 48  1  0  0  0  0
 46 49  1  0  0  0  0
 46 50  1  0  0  0  0
M  CHG  1  23   1
M  END
$$$$

  -OEChem-05262216443D

 50 50  0     1  0  0  0  0  0999 V2000
   -3.3446   -0.1542    2.1767 C   0  0  0  0  0  0  0  0  0  0  0  0
   -3.1257    0.1270    1.0038 O   0  0  0  0  0  0  0  0  0  0  0  0
   -4.2245   -1.3391    2.5259 C   0  0  0  0  0  0  0  0  0  0  0  0
   -4.6068   -1.8105    1.6168 H   0  0  0  0  0  0  0  0  0  0  0  0
   -3.6516   -2.0777    3.0923 H   0  0  0  0  0  0  0  0  0  0  0  0
   -5.0724   -1.0079    3.1309 H   0  0  0  0  0  0  0  0  0  0  0  0
   -2.7490    0.5784    3.1822 N   0  0  0  0  0  0  0  0  0  0  0  0
   -1.9634    1.8031    2.9703 C   0  0  2  0  0  0  0  0  0  0  0  0
   -0.5470    1.5230    2.4097 C   0  0  0  0  0  0  0  0  0  0  0  0
    0.4565    1.6712    3.0888 O   0  0  0  0  0  0  0  0  0  0  0  0
   -1.9286    2.5587    4.3050 C   0  0  0  0  0  0  0  0  0  0  0  0
   -2.9447    0.2959    4.1406 H   0  0  0  0  0  0  0  0  0  0  0  0
   -2.4781    2.4420    2.2444 H   0  0  0  0  0  0  0  0  0  0  0  0
   -1.4256    1.9643    5.0751 H   0  0  0  0  0  0  0  0  0  0  0  0
   -1.3868    3.5036    4.1926 H   0  0  0  0  0  0  0  0  0  0  0  0
   -2.9443    2.7842    4.6449 H   0  0  0  0  0  0  0  0  0  0  0  0
   -0.4158    1.1241    1.0908 N   0  0  0  0  0  0  0  0  0  0  0  0
    0.8298    0.7344    0.3903 C   0  0  2  0  0  0  0  0  0  0  0  0
    2.0975    1.6082    0.5767 C   0  0  0  0  0  0  0  0  0  0  0  0
    3.1473    1.2000    0.0938 O   0  0  0  0  0  0  0  0  0  0  0  0
    0.5139    0.6815   -1.1186 C   0  0  0  0  0  0  0  0  0  0  0  0
   -0.4994   -0.3892   -1.4367 C   0  0  0  0  0  0  0  0  0  0  0  0
   -0.2590   -1.7636   -1.4703 N   0  3  0  0  0  0  0  0  0  0  0  0
   -1.8157   -0.1917   -1.7677 C   0  0  0  0  0  0  0  0  0  0  0  0
   -1.3568   -2.4084   -1.7847 C   0  0  0  0  0  0  0  0  0  0  0  0
   -2.3550   -1.4548   -1.9729 N   0  0  0  0  0  0  0  0  0  0  0  0
   -1.3050    0.8588    0.6598 H   0  0  0  0  0  0  0  0  0  0  0  0
    1.1099   -0.2635    0.7426 H   0  0  0  0  0  0  0  0  0  0  0  0
    1.4267    0.4820   -1.6924 H   0  0  0  0  0  0  0  0  0  0  0  0
    0.1422    1.6606   -1.4407 H   0  0  0  0  0  0  0  0  0  0  0  0
    0.6589   -2.1739   -1.2759 H   0  0  0  0  0  0  0  0  0  0  0  0
   -2.3379    0.7638   -1.8257 H   0  0  0  0  0  0  0  0  0  0  0  0
   -1.4686   -3.4898   -1.8824 H   0  0  0  0  0  0  0  0  0  0  0  0
   -3.3348   -1.6478   -2.2006 H   0  0  0  0  0  0  0  0  0  0  0  0
    2.0577    2.8815    1.1108 N   0  0  0  0  0  0  0  0  0  0  0  0
    3.2442    3.7403    1.2548 C   0  0  2  0  0  0  0  0  0  0  0  0
    4.1370    3.3165    2.4456 C   0  0  0  0  0  0  0  0  0  0  0  0
    4.3061    4.0461    3.4133 O   0  0  0  0  0  0  0  0  0  0  0  0
    2.7481    5.1872    1.3714 C   0  0  0  0  0  0  0  0  0  0  0  0
    1.3116    3.0142    1.7946 H   0  0  0  0  0  0  0  0  0  0  0  0
    3.8619    3.6733    0.3530 H   0  0  0  0  0  0  0  0  0  0  0  0
    2.1237    5.3105    2.2623 H   0  0  0  0  0  0  0  0  0  0  0  0
    3.5974    5.8740    1.4489 H   0  0  0  0  0  0  0  0  0  0  0  0
    2.1611    5.4628    0.4903 H   0  0  0  0  0  0  0  0  0  0  0  0
    4.7625    2.0860    2.4140 N   0  0  0  0  0  0  0  0  0  0  0  0
    5.5932    1.5719    3.4955 C   0  0  0  0  0  0  0  0  0  0  0  0
    4.5579    1.4929    1.6086 H   0  0  0  0  0  0  0  0  0  0  0  0
    6.4395    2.2421    3.6797 H   0  0  0  0  0  0  0  0  0  0  0  0
    5.0094    1.4811    4.4176 H   0  0  0  0  0  0  0  0  0  0  0  0
    5.9856    0.5842    3.2351 H   0  0  0  0  0  0  0  0  0  0  0  0
  1  2  2  0  0  0  0
  1  3  1  0  0  0  0
  1  7  1  0  0  0  0
  3  4  1  0  0  0  0
  3  5  1  0  0  0  0
  3  6  1  0  0  0  0
  7  8  1  0  0  0  0
  7 12  1  0  0  0  0
  8  9  1  0  0  0  0
  8 11  1  0  0  0  0
  8 13  1  0  0  0  0
  9 10  2  0  0  0  0
  9 17  1  0  0  0  0
 11 14  1  0  0  0  0
 11 15  1  0  0  0  0
 11 16  1  0  0  0  0
 17 18  1  0  0  0  0
 17 27  1  0  0  0  0
 18 19  1  0  0  0  0
 18 21  1  0  0  0  0
 18 28  1  0  0  0  0
 19 20  2  0  0  0  0
 19 35  1  0  0  0  0
 21 22  1  0  0  0  0
 21 29  1  0  0  0  0
 21 30  1  0  0  0  0
 22 23  1  0  0  0  0
 22 24  2  0  0  0  0
 23 25  2  0  0  0  0
 23 31  1  0  0  0  0
 24 26  1  0  0  0  0
 24 32  1  0  0  0  0
 25 26  1  0  0  0  0
 25 33  1  0  0  0  0
 26 34  1  0  0  0  0
 35 36  1  0  0  0  0
 35 40  1  0  0  0  0
 36 37  1  0  0  0  0
 36 39  1  0  0  0  0
 36 41  1  0  0  0  0
 37 38  2  0  0  0  0
 37 45  1  0  0  0  0
 39 42  1  0  0  0  0
 39 43  1  0  0  0  0
 39 44  1  0  0  0  0
 45 46  1  0  0  0  0
 45 47  1  0  0  0  0
 46 48  1  0  0  0  0
 46 49  1  0  0  0  0
 46 50  1  0  0  0  0
M  CHG  1  23   1
M  END
$$$$

  -OEChem-05262216443D

 50 50  0     1  0  0  0  0  0999 V2000
   -3.5044   -0.0386    2.0933 C   0  0  0  0  0  0  0  0  0  0  0  0
   -3.2191    0.2663    0.9409 O   0  0  0  0  0  0  0  0  0  0  0  0
   -4.4966   -1.1526    2.3661 C   0  0  0  0  0  0  0  0  0  0  0  0
   -4.8840   -1.5560    1.4268 H   0  0  0  0  0  0  0  0  0  0  0  0
   -4.0115   -1.9582    2.9230 H   0  0  0  0  0  0  0  0  0  0  0  0
   -5.3349   -0.7693    2.9536 H   0  0  0  0  0  0  0  0  0  0  0  0
   -2.8842    0.6016    3.1455 N   0  0  0  0  0  0  0  0  0  0  0  0
   -1.9958    1.7646    3.0060 C   0  0  2  0  0  0  0  0  0  0  0  0
   -0.5839    1.3913    2.4894 C   0  0  0  0  0  0  0  0  0  0  0  0
    0.3951    1.4170    3.2191 O   0  0  0  0  0  0  0  0  0  0  0  0
   -1.9557    2.4709    4.3676 C   0  0  0  0  0  0  0  0  0  0  0  0
   -3.1366    0.3022    4.0852 H   0  0  0  0  0  0  0  0  0  0  0  0
   -2.4289    2.4662    2.2847 H   0  0  0  0  0  0  0  0  0  0  0  0
   -1.5373    1.8114    5.1355 H   0  0  0  0  0  0  0  0  0  0  0  0
   -1.3336    3.3703    4.3112 H   0  0  0  0  0  0  0  0  0  0  0  0
   -2.9629    2.7696    4.6742 H   0  0  0  0  0  0  0  0  0  0  0  0
   -0.4269    1.0288    1.1628 N   0  0  0  0  0  0  0  0  0  0  0  0
    0.8272    0.6893    0.4484 C   0  0  2  0  0  0  0  0  0  0  0  0
    2.0826    1.5864    0.6456 C   0  0  0  0  0  0  0  0  0  0  0  0
    3.0788    1.3336   -0.0231 O   0  0  0  0  0  0  0  0  0  0  0  0
    0.4910    0.6499   -1.0597 C   0  0  0  0  0  0  0  0  0  0  0  0
   -0.4922   -0.4454   -1.3871 C   0  0  0  0  0  0  0  0  0  0  0  0
   -0.2083   -1.8102   -1.4492 N   0  3  0  0  0  0  0  0  0  0  0  0
   -1.8139   -0.2833   -1.7149 C   0  0  0  0  0  0  0  0  0  0  0  0
   -1.2851   -2.4832   -1.7765 C   0  0  0  0  0  0  0  0  0  0  0  0
   -2.3130   -1.5581   -1.9463 N   0  0  0  0  0  0  0  0  0  0  0  0
   -1.3123    0.8734    0.6753 H   0  0  0  0  0  0  0  0  0  0  0  0
    1.1331   -0.3078    0.7799 H   0  0  0  0  0  0  0  0  0  0  0  0
    1.3971    0.4843   -1.6539 H   0  0  0  0  0  0  0  0  0  0  0  0
    0.0874    1.6230   -1.3607 H   0  0  0  0  0  0  0  0  0  0  0  0
    0.7224   -2.1949   -1.2635 H   0  0  0  0  0  0  0  0  0  0  0  0
   -2.3662    0.6565   -1.7555 H   0  0  0  0  0  0  0  0  0  0  0  0
   -1.3618   -3.5654   -1.8963 H   0  0  0  0  0  0  0  0  0  0  0  0
   -3.2842   -1.7766   -2.1877 H   0  0  0  0  0  0  0  0  0  0  0  0
    2.1081    2.7024    1.4593 N   0  0  0  0  0  0  0  0  0  0  0  0
    3.2832    3.5718    1.6274 C   0  0  2  0  0  0  0  0  0  0  0  0
    4.3604    2.9433    2.5430 C   0  0  0  0  0  0  0  0  0  0  0  0
    4.6295    3.4164    3.6389 O   0  0  0  0  0  0  0  0  0  0  0  0
    2.7791    4.9236    2.1486 C   0  0  0  0  0  0  0  0  0  0  0  0
    1.4390    2.6734    2.2316 H   0  0  0  0  0  0  0  0  0  0  0  0
    3.7536    3.7469    0.6542 H   0  0  0  0  0  0  0  0  0  0  0  0
    2.2895    4.8034    3.1206 H   0  0  0  0  0  0  0  0  0  0  0  0
    3.6157    5.6194    2.2683 H   0  0  0  0  0  0  0  0  0  0  0  0
    2.0636    5.3621    1.4465 H   0  0  0  0  0  0  0  0  0  0  0  0
    5.0451    1.8266    2.1062 N   0  0  0  0  0  0  0  0  0  0  0  0
    6.0630    1.1408    2.8922 C   0  0  0  0  0  0  0  0  0  0  0  0
    4.7419    1.4294    1.2155 H   0  0  0  0  0  0  0  0  0  0  0  0
    6.8503    1.8398    3.1946 H   0  0  0  0  0  0  0  0  0  0  0  0
    5.6195    0.7005    3.7913 H   0  0  0  0  0  0  0  0  0  0  0  0
    6.5221    0.3415    2.3027 H   0  0  0  0  0  0  0  0  0  0  0  0
  1  2  2  0  0  0  0
  1  3  1  0  0  0  0
  1  7  1  0  0  0  0
  3  4  1  0  0  0  0
  3  5  1  0  0  0  0
  3  6  1  0  0  0  0
  7  8  1  0  0  0  0
  7 12  1  0  0  0  0
  8  9  1  0  0  0  0
  8 11  1  0  0  0  0
  8 13  1  0  0  0  0
  9 10  2  0  0  0  0
  9 17  1  0  0  0  0
 11 14  1  0  0  0  0
 11 15  1  0  0  0  0
 11 16  1  0  0  0  0
 17 18  1  0  0  0  0
 17 27  1  0  0  0  0
 18 19  1  0  0  0  0
 18 21  1  0  0  0  0
 18 28  1  0  0  0  0
 19 20  2  0  0  0  0
 19 35  1  0  0  0  0
 21 22  1  0  0  0  0
 21 29  1  0  0  0  0
 21 30  1  0  0  0  0
 22 23  1  0  0  0  0
 22 24  2  0  0  0  0
 23 25  2  0  0  0  0
 23 31  1  0  0  0  0
 24 26  1  0  0  0  0
 24 32  1  0  0  0  0
 25 26  1  0  0  0  0
 25 33  1  0  0  0  0
 26 34  1  0  0  0  0
 35 36  1  0  0  0  0
 35 40  1  0  0  0  0
 36 37  1  0  0  0  0
 36 39  1  0  0  0  0
 36 41  1  0  0  0  0
 37 38  2  0  0  0  0
 37 45  1  0  0  0  0
 39 42  1  0  0  0  0
 39 43  1  0  0  0  0
 39 44  1  0  0  0  0
 45 46  1  0  0  0  0
 45 47  1  0  0  0  0
 46 48  1  0  0  0  0
 46 49  1  0  0  0  0
 46 50  1  0  0  0  0
M  CHG  1  23   1
M  END
$$$$

  -OEChem-05262216443D

 50 50  0     1  0  0  0  0  0999 V2000
   -3.7381    0.3059    1.9710 C   0  0  0  0  0  0  0  0  0  0  0  0
   -3.4001    0.6803    0.8543 O   0  0  0  0  0  0  0  0  0  0  0  0
   -4.9086   -0.6445    2.1335 C   0  0  0  0  0  0  0  0  0  0  0  0
   -5.4226   -0.7803    1.1784 H   0  0  0  0  0  0  0  0  0  0  0  0
   -4.5560   -1.6163    2.4879 H   0  0  0  0  0  0  0  0  0  0  0  0
   -5.6206   -0.2392    2.8573 H   0  0  0  0  0  0  0  0  0  0  0  0
   -3.0205    0.7083    3.0779 N   0  0  0  0  0  0  0  0  0  0  0  0
   -1.9521    1.7180    3.0557 C   0  0  2  0  0  0  0  0  0  0  0  0
   -0.6142    1.1773    2.4925 C   0  0  0  0  0  0  0  0  0  0  0  0
    0.3613    1.0140    3.2083 O   0  0  0  0  0  0  0  0  0  0  0  0
   -1.8143    2.2612    4.4842 C   0  0  0  0  0  0  0  0  0  0  0  0
   -3.3246    0.3549    3.9826 H   0  0  0  0  0  0  0  0  0  0  0  0
   -2.2565    2.5525    2.4145 H   0  0  0  0  0  0  0  0  0  0  0  0
   -1.5112    1.4663    5.1739 H   0  0  0  0  0  0  0  0  0  0  0  0
   -1.0583    3.0525    4.5190 H   0  0  0  0  0  0  0  0  0  0  0  0
   -2.7650    2.6797    4.8292 H   0  0  0  0  0  0  0  0  0  0  0  0
   -0.5253    0.8821    1.1437 N   0  0  0  0  0  0  0  0  0  0  0  0
    0.6829    0.5795    0.3387 C   0  0  2  0  0  0  0  0  0  0  0  0
    1.9544    1.4671    0.5043 C   0  0  0  0  0  0  0  0  0  0  0  0
    2.7841    1.4676   -0.3981 O   0  0  0  0  0  0  0  0  0  0  0  0
    0.2439    0.5417   -1.1441 C   0  0  0  0  0  0  0  0  0  0  0  0
   -0.7315   -0.5778   -1.4081 C   0  0  0  0  0  0  0  0  0  0  0  0
   -0.4050   -1.9315   -1.4965 N   0  3  0  0  0  0  0  0  0  0  0  0
   -2.0750   -0.4592   -1.6560 C   0  0  0  0  0  0  0  0  0  0  0  0
   -1.4745   -2.6398   -1.7673 C   0  0  0  0  0  0  0  0  0  0  0  0
   -2.5419   -1.7495   -1.8714 N   0  0  0  0  0  0  0  0  0  0  0  0
   -1.4189    0.9511    0.6522 H   0  0  0  0  0  0  0  0  0  0  0  0
    1.0156   -0.4210    0.6322 H   0  0  0  0  0  0  0  0  0  0  0  0
    1.1071    0.3957   -1.8030 H   0  0  0  0  0  0  0  0  0  0  0  0
   -0.2002    1.5072   -1.4100 H   0  0  0  0  0  0  0  0  0  0  0  0
    0.5475   -2.2834   -1.3616 H   0  0  0  0  0  0  0  0  0  0  0  0
   -2.6573    0.4640   -1.6606 H   0  0  0  0  0  0  0  0  0  0  0  0
   -1.5191   -3.7237   -1.8899 H   0  0  0  0  0  0  0  0  0  0  0  0
   -3.5139   -1.9995   -2.0751 H   0  0  0  0  0  0  0  0  0  0  0  0
    2.1511    2.3369    1.5590 N   0  0  0  0  0  0  0  0  0  0  0  0
    3.4460    2.9953    1.7888 C   0  0  2  0  0  0  0  0  0  0  0  0
    4.5161    2.0355    2.3587 C   0  0  0  0  0  0  0  0  0  0  0  0
    4.1898    1.0114    2.9465 O   0  0  0  0  0  0  0  0  0  0  0  0
    3.2037    4.1532    2.7598 C   0  0  0  0  0  0  0  0  0  0  0  0
    1.6383    2.0615    2.4002 H   0  0  0  0  0  0  0  0  0  0  0  0
    3.8248    3.4045    0.8464 H   0  0  0  0  0  0  0  0  0  0  0  0
    2.8390    3.7760    3.7210 H   0  0  0  0  0  0  0  0  0  0  0  0
    4.1307    4.7084    2.9341 H   0  0  0  0  0  0  0  0  0  0  0  0
    2.4599    4.8433    2.3502 H   0  0  0  0  0  0  0  0  0  0  0  0
    5.8599    2.3379    2.2354 N   0  0  0  0  0  0  0  0  0  0  0  0
    6.9212    1.4709    2.7349 C   0  0  0  0  0  0  0  0  0  0  0  0
    6.1112    3.1619    1.6977 H   0  0  0  0  0  0  0  0  0  0  0  0
    6.8023    1.2994    3.8101 H   0  0  0  0  0  0  0  0  0  0  0  0
    6.9008    0.5044    2.2202 H   0  0  0  0  0  0  0  0  0  0  0  0
    7.8992    1.9321    2.5672 H   0  0  0  0  0  0  0  0  0  0  0  0
  1  2  2  0  0  0  0
  1  3  1  0  0  0  0
  1  7  1  0  0  0  0
  3  4  1  0  0  0  0
  3  5  1  0  0  0  0
  3  6  1  0  0  0  0
  7  8  1  0  0  0  0
  7 12  1  0  0  0  0
  8  9  1  0  0  0  0
  8 11  1  0  0  0  0
  8 13  1  0  0  0  0
  9 10  2  0  0  0  0
  9 17  1  0  0  0  0
 11 14  1  0  0  0  0
 11 15  1  0  0  0  0
 11 16  1  0  0  0  0
 17 18  1  0  0  0  0
 17 27  1  0  0  0  0
 18 19  1  0  0  0  0
 18 21  1  0  0  0  0
 18 28  1  0  0  0  0
 19 20  2  0  0  0  0
 19 35  1  0  0  0  0
 21 22  1  0  0  0  0
 21 29  1  0  0  0  0
 21 30  1  0  0  0  0
 22 23  1  0  0  0  0
 22 24  2  0  0  0  0
 23 25  2  0  0  0  0
 23 31  1  0  0  0  0
 24 26  1  0  0  0  0
 24 32  1  0  0  0  0
 25 26  1  0  0  0  0
 25 33  1  0  0  0  0
 26 34  1  0  0  0  0
 35 36  1  0  0  0  0
 35 40  1  0  0  0  0
 36 37  1  0  0  0  0
 36 39  1  0  0  0  0
 36 41  1  0  0  0  0
 37 38  2  0  0  0  0
 37 45  1  0  0  0  0
 39 42  1  0  0  0  0
 39 43  1  0  0  0  0
 39 44  1  0  0  0  0
 45 46  1  0  0  0  0
 45 47  1  0  0  0  0
 46 48  1  0  0  0  0
 46 49  1  0  0  0  0
 46 50  1  0  0  0  0
M  CHG  1  23   1
M  END
$$$$

  -OEChem-05262216443D

 50 50  0     1  0  0  0  0  0999 V2000
   -3.0348    2.6020    2.2408 C   0  0  0  0  0  0  0  0  0  0  0  0
   -2.8792    2.4102    1.0411 O   0  0  0  0  0  0  0  0  0  0  0  0
   -3.5889    3.9299    2.7208 C   0  0  0  0  0  0  0  0  0  0  0  0
   -2.8694    4.4205    3.3816 H   0  0  0  0  0  0  0  0  0  0  0  0
   -3.7892    4.5882    1.8706 H   0  0  0  0  0  0  0  0  0  0  0  0
   -4.5223    3.7699    3.2669 H   0  0  0  0  0  0  0  0  0  0  0  0
   -2.6731    1.6431    3.1699 N   0  0  0  0  0  0  0  0  0  0  0  0
   -2.2319    0.2546    2.9104 C   0  0  2  0  0  0  0  0  0  0  0  0
   -0.8518    0.1105    2.2252 C   0  0  0  0  0  0  0  0  0  0  0  0
   -0.0554   -0.7122    2.6481 O   0  0  0  0  0  0  0  0  0  0  0  0
   -3.3071   -0.5188    2.1350 C   0  0  0  0  0  0  0  0  0  0  0  0
   -2.8293    1.8999    4.1427 H   0  0  0  0  0  0  0  0  0  0  0  0
   -2.1308   -0.2323    3.8871 H   0  0  0  0  0  0  0  0  0  0  0  0
   -3.4029   -0.1468    1.1111 H   0  0  0  0  0  0  0  0  0  0  0  0
   -3.0452   -1.5810    2.0898 H   0  0  0  0  0  0  0  0  0  0  0  0
   -4.2772   -0.4250    2.6327 H   0  0  0  0  0  0  0  0  0  0  0  0
   -0.5521    0.8296    1.0833 N   0  0  0  0  0  0  0  0  0  0  0  0
    0.7528    1.0142    0.4085 C   0  0  2  0  0  0  0  0  0  0  0  0
    2.0110    1.3484    1.2623 C   0  0  0  0  0  0  0  0  0  0  0  0
    2.8929    2.0445    0.7724 O   0  0  0  0  0  0  0  0  0  0  0  0
    0.5312    2.0543   -0.7127 C   0  0  0  0  0  0  0  0  0  0  0  0
   -0.4284    1.5259   -1.7503 C   0  0  0  0  0  0  0  0  0  0  0  0
   -0.1276    0.5655   -2.7166 N   0  3  0  0  0  0  0  0  0  0  0  0
   -1.7313    1.9110   -1.9399 C   0  0  0  0  0  0  0  0  0  0  0  0
   -1.1766    0.3336   -3.4678 C   0  0  0  0  0  0  0  0  0  0  0  0
   -2.2013    1.1606   -3.0107 N   0  0  0  0  0  0  0  0  0  0  0  0
   -1.2994    1.4739    0.8173 H   0  0  0  0  0  0  0  0  0  0  0  0
    1.0044    0.0552   -0.0558 H   0  0  0  0  0  0  0  0  0  0  0  0
    1.4754    2.2966   -1.2129 H   0  0  0  0  0  0  0  0  0  0  0  0
    0.1524    2.9839   -0.2737 H   0  0  0  0  0  0  0  0  0  0  0  0
    0.7898    0.1153   -2.7862 H   0  0  0  0  0  0  0  0  0  0  0  0
   -2.2826    2.6486   -1.3541 H   0  0  0  0  0  0  0  0  0  0  0  0
   -1.2358   -0.3755   -4.2957 H   0  0  0  0  0  0  0  0  0  0  0  0
   -3.1501    1.2057   -3.3938 H   0  0  0  0  0  0  0  0  0  0  0  0
    2.1741    0.9211    2.5644 N   0  0  0  0  0  0  0  0  0  0  0  0
    3.5045    0.8654    3.1867 C   0  0  2  0  0  0  0  0  0  0  0  0
    4.3818   -0.2761    2.6168 C   0  0  0  0  0  0  0  0  0  0  0  0
    3.8885   -1.1690    1.9359 O   0  0  0  0  0  0  0  0  0  0  0  0
    3.2936    0.6767    4.6908 C   0  0  0  0  0  0  0  0  0  0  0  0
    1.5313    0.1679    2.8216 H   0  0  0  0  0  0  0  0  0  0  0  0
    4.0301    1.8123    3.0227 H   0  0  0  0  0  0  0  0  0  0  0  0
    2.7798   -0.2701    4.8883 H   0  0  0  0  0  0  0  0  0  0  0  0
    4.2536    0.6670    5.2160 H   0  0  0  0  0  0  0  0  0  0  0  0
    2.6879    1.4939    5.0948 H   0  0  0  0  0  0  0  0  0  0  0  0
    5.7395   -0.3090    2.8775 N   0  0  0  0  0  0  0  0  0  0  0  0
    6.6255   -1.3519    2.3727 C   0  0  0  0  0  0  0  0  0  0  0  0
    6.1378    0.4587    3.4098 H   0  0  0  0  0  0  0  0  0  0  0  0
    6.2971   -2.3366    2.7223 H   0  0  0  0  0  0  0  0  0  0  0  0
    6.6328   -1.3513    1.2775 H   0  0  0  0  0  0  0  0  0  0  0  0
    7.6478   -1.1847    2.7258 H   0  0  0  0  0  0  0  0  0  0  0  0
  1  2  2  0  0  0  0
  1  3  1  0  0  0  0
  1  7  1  0  0  0  0
  3  4  1  0  0  0  0
  3  5  1  0  0  0  0
  3  6  1  0  0  0  0
  7  8  1  0  0  0  0
  7 12  1  0  0  0  0
  8  9  1  0  0  0  0
  8 11  1  0  0  0  0
  8 13  1  0  0  0  0
  9 10  2  0  0  0  0
  9 17  1  0  0  0  0
 11 14  1  0  0  0  0
 11 15  1  0  0  0  0
 11 16  1  0  0  0  0
 17 18  1  0  0  0  0
 17 27  1  0  0  0  0
 18 19  1  0  0  0  0
 18 21  1  0  0  0  0
 18 28  1  0  0  0  0
 19 20  2  0  0  0  0
 19 35  1  0  0  0  0
 21 22  1  0  0  0  0
 21 29  1  0  0  0  0
 21 30  1  0  0  0  0
 22 23  1  0  0  0  0
 22 24  2  0  0  0  0
 23 25  2  0  0  0  0
 23 31  1  0  0  0  0
 24 26  1  0  0  0  0
 24 32  1  0  0  0  0
 25 26  1  0  0  0  0
 25 33  1  0  0  0  0
 26 34  1  0  0  0  0
 35 36  1  0  0  0  0
 35 40  1  0  0  0  0
 36 37  1  0  0  0  0
 36 39  1  0  0  0  0
 36 41  1  0  0  0  0
 37 38  2  0  0  0  0
 37 45  1  0  0  0  0
 39 42  1  0  0  0  0
 39 43  1  0  0  0  0
 39 44  1  0  0  0  0
 45 46  1  0  0  0  0
 45 47  1  0  0  0  0
 46 48  1  0  0  0  0
 46 49  1  0  0  0  0
 46 50  1  0  0  0  0
M  CHG  1  23   1
M  END
$$$$

  -OEChem-05262216443D

 50 50  0     1  0  0  0  0  0999 V2000
   -3.0854    2.5049    2.2534 C   0  0  0  0  0  0  0  0  0  0  0  0
   -2.9040    2.3083    1.0581 O   0  0  0  0  0  0  0  0  0  0  0  0
   -3.6514    3.8338    2.7151 C   0  0  0  0  0  0  0  0  0  0  0  0
   -2.9112    4.3670    3.3174 H   0  0  0  0  0  0  0  0  0  0  0  0
   -3.9165    4.4537    1.8540 H   0  0  0  0  0  0  0  0  0  0  0  0
   -4.5490    3.6698    3.3169 H   0  0  0  0  0  0  0  0  0  0  0  0
   -2.7339    1.5551    3.1960 N   0  0  0  0  0  0  0  0  0  0  0  0
   -2.2703    0.1700    2.9568 C   0  0  2  0  0  0  0  0  0  0  0  0
   -0.8714    0.0398    2.3092 C   0  0  0  0  0  0  0  0  0  0  0  0
   -0.0884   -0.7991    2.7279 O   0  0  0  0  0  0  0  0  0  0  0  0
   -3.3145   -0.6210    2.1572 C   0  0  0  0  0  0  0  0  0  0  0  0
   -2.9086    1.8187    4.1639 H   0  0  0  0  0  0  0  0  0  0  0  0
   -2.1896   -0.3105    3.9382 H   0  0  0  0  0  0  0  0  0  0  0  0
   -3.3903   -0.2537    1.1299 H   0  0  0  0  0  0  0  0  0  0  0  0
   -3.0362   -1.6793    2.1219 H   0  0  0  0  0  0  0  0  0  0  0  0
   -4.2980   -0.5399    2.6305 H   0  0  0  0  0  0  0  0  0  0  0  0
   -0.5471    0.7780    1.1868 N   0  0  0  0  0  0  0  0  0  0  0  0
    0.7799    1.0047    0.5748 C   0  0  2  0  0  0  0  0  0  0  0  0
    1.9752    1.3660    1.5022 C   0  0  0  0  0  0  0  0  0  0  0  0
    2.7621    2.2420    1.1611 O   0  0  0  0  0  0  0  0  0  0  0  0
    0.5907    2.0444   -0.5508 C   0  0  0  0  0  0  0  0  0  0  0  0
   -0.3016    1.4953   -1.6356 C   0  0  0  0  0  0  0  0  0  0  0  0
    0.0677    0.5461   -2.5889 N   0  3  0  0  0  0  0  0  0  0  0  0
   -1.6030    1.8498   -1.8846 C   0  0  0  0  0  0  0  0  0  0  0  0
   -0.9398    0.2911   -3.3881 C   0  0  0  0  0  0  0  0  0  0  0  0
   -2.0041    1.0925   -2.9781 N   0  0  0  0  0  0  0  0  0  0  0  0
   -1.2931    1.4182    0.9080 H   0  0  0  0  0  0  0  0  0  0  0  0
    1.0845    0.0578    0.1169 H   0  0  0  0  0  0  0  0  0  0  0  0
    1.5551    2.3094   -0.9988 H   0  0  0  0  0  0  0  0  0  0  0  0
    0.1676    2.9629   -0.1295 H   0  0  0  0  0  0  0  0  0  0  0  0
    0.9963    0.1141   -2.6124 H   0  0  0  0  0  0  0  0  0  0  0  0
   -2.1982    2.5711   -1.3221 H   0  0  0  0  0  0  0  0  0  0  0  0
   -0.9437   -0.4183   -4.2177 H   0  0  0  0  0  0  0  0  0  0  0  0
   -2.9349    1.1168   -3.4045 H   0  0  0  0  0  0  0  0  0  0  0  0
    2.2247    0.6965    2.6825 N   0  0  0  0  0  0  0  0  0  0  0  0
    3.5931    0.5778    3.2030 C   0  0  2  0  0  0  0  0  0  0  0  0
    4.4956   -0.2989    2.2997 C   0  0  0  0  0  0  0  0  0  0  0  0
    4.0096   -1.0245    1.4365 O   0  0  0  0  0  0  0  0  0  0  0  0
    3.4977   -0.0245    4.6067 C   0  0  0  0  0  0  0  0  0  0  0  0
    1.6131   -0.1105    2.8317 H   0  0  0  0  0  0  0  0  0  0  0  0
    4.0462    1.5722    3.2760 H   0  0  0  0  0  0  0  0  0  0  0  0
    3.0637   -1.0290    4.5631 H   0  0  0  0  0  0  0  0  0  0  0  0
    4.4895   -0.0945    5.0639 H   0  0  0  0  0  0  0  0  0  0  0  0
    2.8665    0.6007    5.2460 H   0  0  0  0  0  0  0  0  0  0  0  0
    5.8696   -0.2692    2.4510 N   0  0  0  0  0  0  0  0  0  0  0  0
    6.7824   -1.0477    1.6217 C   0  0  0  0  0  0  0  0  0  0  0  0
    6.2554    0.3702    3.1397 H   0  0  0  0  0  0  0  0  0  0  0  0
    6.5840   -2.1190    1.7346 H   0  0  0  0  0  0  0  0  0  0  0  0
    6.6667   -0.7776    0.5667 H   0  0  0  0  0  0  0  0  0  0  0  0
    7.8192   -0.8565    1.9155 H   0  0  0  0  0  0  0  0  0  0  0  0
  1  2  2  0  0  0  0
  1  3  1  0  0  0  0
  1  7  1  0  0  0  0
  3  4  1  0  0  0  0
  3  5  1  0  0  0  0
  3  6  1  0  0  0  0
  7  8  1  0  0  0  0
  7 12  1  0  0  0  0
  8  9  1  0  0  0  0
  8 11  1  0  0  0  0
  8 13  1  0  0  0  0
  9 10  2  0  0  0  0
  9 17  1  0  0  0  0
 11 14  1  0  0  0  0
 11 15  1  0  0  0  0
 11 16  1  0  0  0  0
 17 18  1  0  0  0  0
 17 27  1  0  0  0  0
 18 19  1  0  0  0  0
 18 21  1  0  0  0  0
 18 28  1  0  0  0  0
 19 20  2  0  0  0  0
 19 35  1  0  0  0  0
 21 22  1  0  0  0  0
 21 29  1  0  0  0  0
 21 30  1  0  0  0  0
 22 23  1  0  0  0  0
 22 24  2  0  0  0  0
 23 25  2  0  0  0  0
 23 31  1  0  0  0  0
 24 26  1  0  0  0  0
 24 32  1  0  0  0  0
 25 26  1  0  0  0  0
 25 33  1  0  0  0  0
 26 34  1  0  0  0  0
 35 36  1  0  0  0  0
 35 40  1  0  0  0  0
 36 37  1  0  0  0  0
 36 39  1  0  0  0  0
 36 41  1  0  0  0  0
 37 38  2  0  0  0  0
 37 45  1  0  0  0  0
 39 42  1  0  0  0  0
 39 43  1  0  0  0  0
 39 44  1  0  0  0  0
 45 46  1  0  0  0  0
 45 47  1  0  0  0  0
 46 48  1  0  0  0  0
 46 49  1  0  0  0  0
 46 50  1  0  0  0  0
M  CHG  1  23   1
M  END
$$$$

  -OEChem-05262216443D

 50 50  0     1  0  0  0  0  0999 V2000
   -3.6641    0.2396    2.0094 C   0  0  0  0  0  0  0  0  0  0  0  0
   -3.3418    0.6502    0.9009 O   0  0  0  0  0  0  0  0  0  0  0  0
   -4.7756   -0.7826    2.1466 C   0  0  0  0  0  0  0  0  0  0  0  0
   -5.2910   -0.9139    1.1913 H   0  0  0  0  0  0  0  0  0  0  0  0
   -4.3633   -1.7440    2.4631 H   0  0  0  0  0  0  0  0  0  0  0  0
   -5.5022   -0.4452    2.8906 H   0  0  0  0  0  0  0  0  0  0  0  0
   -2.9834    0.6636    3.1322 N   0  0  0  0  0  0  0  0  0  0  0  0
   -1.9750    1.7342    3.1449 C   0  0  2  0  0  0  0  0  0  0  0  0
   -0.6103    1.2949    2.5593 C   0  0  0  0  0  0  0  0  0  0  0  0
    0.3687    1.1098    3.2696 O   0  0  0  0  0  0  0  0  0  0  0  0
   -1.8580    2.2295    4.5922 C   0  0  0  0  0  0  0  0  0  0  0  0
   -3.2791    0.2771    4.0259 H   0  0  0  0  0  0  0  0  0  0  0  0
   -2.3307    2.5733    2.5368 H   0  0  0  0  0  0  0  0  0  0  0  0
   -1.5103    1.4259    5.2500 H   0  0  0  0  0  0  0  0  0  0  0  0
   -1.1440    3.0573    4.6536 H   0  0  0  0  0  0  0  0  0  0  0  0
   -2.8275    2.5848    4.9553 H   0  0  0  0  0  0  0  0  0  0  0  0
   -0.5190    1.0557    1.2006 N   0  0  0  0  0  0  0  0  0  0  0  0
    0.7034    0.9706    0.3731 C   0  0  2  0  0  0  0  0  0  0  0  0
    1.7978    2.0545    0.5747 C   0  0  0  0  0  0  0  0  0  0  0  0
    2.2630    2.6446   -0.3936 O   0  0  0  0  0  0  0  0  0  0  0  0
    0.2796    0.8610   -1.1054 C   0  0  0  0  0  0  0  0  0  0  0  0
   -0.4815   -0.4160   -1.3512 C   0  0  0  0  0  0  0  0  0  0  0  0
    0.0869   -1.6870   -1.4292 N   0  3  0  0  0  0  0  0  0  0  0  0
   -1.8280   -0.5467   -1.5737 C   0  0  0  0  0  0  0  0  0  0  0  0
   -0.8389   -2.5823   -1.6728 C   0  0  0  0  0  0  0  0  0  0  0  0
   -2.0529   -1.9035   -1.7705 N   0  0  0  0  0  0  0  0  0  0  0  0
   -1.4144    1.1336    0.7132 H   0  0  0  0  0  0  0  0  0  0  0  0
    1.2070    0.0375    0.6468 H   0  0  0  0  0  0  0  0  0  0  0  0
    1.1610    0.8689   -1.7568 H   0  0  0  0  0  0  0  0  0  0  0  0
   -0.3272    1.7325   -1.3745 H   0  0  0  0  0  0  0  0  0  0  0  0
    1.0878   -1.8569   -1.2892 H   0  0  0  0  0  0  0  0  0  0  0  0
   -2.5666    0.2569   -1.5744 H   0  0  0  0  0  0  0  0  0  0  0  0
   -0.6850   -3.6577   -1.7780 H   0  0  0  0  0  0  0  0  0  0  0  0
   -2.9649   -2.3302   -1.9562 H   0  0  0  0  0  0  0  0  0  0  0  0
    2.4105    2.2232    1.7984 N   0  0  0  0  0  0  0  0  0  0  0  0
    3.8609    2.4396    1.8725 C   0  0  2  0  0  0  0  0  0  0  0  0
    4.6634    1.1785    1.4595 C   0  0  0  0  0  0  0  0  0  0  0  0
    4.0963    0.1135    1.2219 O   0  0  0  0  0  0  0  0  0  0  0  0
    4.1876    2.8481    3.3118 C   0  0  0  0  0  0  0  0  0  0  0  0
    2.0018    1.6461    2.5386 H   0  0  0  0  0  0  0  0  0  0  0  0
    4.1473    3.2585    1.2035 H   0  0  0  0  0  0  0  0  0  0  0  0
    3.9279    2.0430    4.0072 H   0  0  0  0  0  0  0  0  0  0  0  0
    5.2539    3.0696    3.4187 H   0  0  0  0  0  0  0  0  0  0  0  0
    3.6221    3.7435    3.5890 H   0  0  0  0  0  0  0  0  0  0  0  0
    6.0393    1.2377    1.3385 N   0  0  0  0  0  0  0  0  0  0  0  0
    6.8617    0.0970    0.9514 C   0  0  0  0  0  0  0  0  0  0  0  0
    6.4895    2.1328    1.5080 H   0  0  0  0  0  0  0  0  0  0  0  0
    6.7093   -0.7386    1.6428 H   0  0  0  0  0  0  0  0  0  0  0  0
    6.6069   -0.2329   -0.0613 H   0  0  0  0  0  0  0  0  0  0  0  0
    7.9214    0.3697    0.9707 H   0  0  0  0  0  0  0  0  0  0  0  0
  1  2  2  0  0  0  0
  1  3  1  0  0  0  0
  1  7  1  0  0  0  0
  3  4  1  0  0  0  0
  3  5  1  0  0  0  0
  3  6  1  0  0  0  0
  7  8  1  0  0  0  0
  7 12  1  0  0  0  0
  8  9  1  0  0  0  0
  8 11  1  0  0  0  0
  8 13  1  0  0  0  0
  9 10  2  0  0  0  0
  9 17  1  0  0  0  0
 11 14  1  0  0  0  0
 11 15  1  0  0  0  0
 11 16  1  0  0  0  0
 17 18  1  0  0  0  0
 17 27  1  0  0  0  0
 18 19  1  0  0  0  0
 18 21  1  0  0  0  0
 18 28  1  0  0  0  0
 19 20  2  0  0  0  0
 19 35  1  0  0  0  0
 21 22  1  0  0  0  0
 21 29  1  0  0  0  0
 21 30  1  0  0  0  0
 22 23  1  0  0  0  0
 22 24  2  0  0  0  0
 23 25  2  0  0  0  0
 23 31  1  0  0  0  0
 24 26  1  0  0  0  0
 24 32  1  0  0  0  0
 25 26  1  0  0  0  0
 25 33  1  0  0  0  0
 26 34  1  0  0  0  0
 35 36  1  0  0  0  0
 35 40  1  0  0  0  0
 36 37  1  0  0  0  0
 36 39  1  0  0  0  0
 36 41  1  0  0  0  0
 37 38  2  0  0  0  0
 37 45  1  0  0  0  0
 39 42  1  0  0  0  0
 39 43  1  0  0  0  0
 39 44  1  0  0  0  0
 45 46  1  0  0  0  0
 45 47  1  0  0  0  0
 46 48  1  0  0  0  0
 46 49  1  0  0  0  0
 46 50  1  0  0  0  0
M  CHG  1  23   1
M  END
$$$$

  -OEChem-05262216443D

 50 50  0     1  0  0  0  0  0999 V2000
   -3.6208    0.1742    2.0568 C   0  0  0  0  0  0  0  0  0  0  0  0
   -3.2927    0.5871    0.9507 O   0  0  0  0  0  0  0  0  0  0  0  0
   -4.7171   -0.8658    2.1829 C   0  0  0  0  0  0  0  0  0  0  0  0
   -5.1588   -1.0727    1.2043 H   0  0  0  0  0  0  0  0  0  0  0  0
   -4.3085   -1.7938    2.5905 H   0  0  0  0  0  0  0  0  0  0  0  0
   -5.5021   -0.4999    2.8498 H   0  0  0  0  0  0  0  0  0  0  0  0
   -2.9634    0.6147    3.1877 N   0  0  0  0  0  0  0  0  0  0  0  0
   -1.9838    1.7121    3.2130 C   0  0  2  0  0  0  0  0  0  0  0  0
   -0.6030    1.3155    2.6339 C   0  0  0  0  0  0  0  0  0  0  0  0
    0.3856    1.1718    3.3420 O   0  0  0  0  0  0  0  0  0  0  0  0
   -1.8898    2.2058    4.6627 C   0  0  0  0  0  0  0  0  0  0  0  0
   -3.2671    0.2273    4.0782 H   0  0  0  0  0  0  0  0  0  0  0  0
   -2.3595    2.5426    2.6052 H   0  0  0  0  0  0  0  0  0  0  0  0
   -1.5261    1.4096    5.3209 H   0  0  0  0  0  0  0  0  0  0  0  0
   -1.1979    3.0517    4.7310 H   0  0  0  0  0  0  0  0  0  0  0  0
   -2.8702    2.5358    5.0201 H   0  0  0  0  0  0  0  0  0  0  0  0
   -0.4976    1.0772    1.2765 N   0  0  0  0  0  0  0  0  0  0  0  0
    0.7436    1.0352    0.4797 C   0  0  2  0  0  0  0  0  0  0  0  0
    1.7753    2.1653    0.7251 C   0  0  0  0  0  0  0  0  0  0  0  0
    2.1201    2.8986   -0.1945 O   0  0  0  0  0  0  0  0  0  0  0  0
    0.3764    0.9271   -1.0121 C   0  0  0  0  0  0  0  0  0  0  0  0
   -0.3345   -0.3702   -1.2889 C   0  0  0  0  0  0  0  0  0  0  0  0
    0.2815   -1.6196   -1.3528 N   0  3  0  0  0  0  0  0  0  0  0  0
   -1.6703   -0.5469   -1.5397 C   0  0  0  0  0  0  0  0  0  0  0  0
   -0.6062   -2.5466   -1.6193 C   0  0  0  0  0  0  0  0  0  0  0  0
   -1.8410   -1.9106   -1.7439 N   0  0  0  0  0  0  0  0  0  0  0  0
   -1.3876    1.1299    0.7759 H   0  0  0  0  0  0  0  0  0  0  0  0
    1.2712    0.1172    0.7585 H   0  0  0  0  0  0  0  0  0  0  0  0
    1.2820    0.9715   -1.6285 H   0  0  0  0  0  0  0  0  0  0  0  0
   -0.2503    1.7798   -1.2958 H   0  0  0  0  0  0  0  0  0  0  0  0
    1.2851   -1.7518   -1.1889 H   0  0  0  0  0  0  0  0  0  0  0  0
   -2.4373    0.2296   -1.5508 H   0  0  0  0  0  0  0  0  0  0  0  0
   -0.4122   -3.6158   -1.7221 H   0  0  0  0  0  0  0  0  0  0  0  0
   -2.7328   -2.3690   -1.9506 H   0  0  0  0  0  0  0  0  0  0  0  0
    2.5425    2.1369    1.8698 N   0  0  0  0  0  0  0  0  0  0  0  0
    3.9997    2.2838    1.7793 C   0  0  2  0  0  0  0  0  0  0  0  0
    4.6728    1.0942    1.0457 C   0  0  0  0  0  0  0  0  0  0  0  0
    4.0326    0.0906    0.7317 O   0  0  0  0  0  0  0  0  0  0  0  0
    4.5323    2.4135    3.2085 C   0  0  0  0  0  0  0  0  0  0  0  0
    2.1859    1.4962    2.5833 H   0  0  0  0  0  0  0  0  0  0  0  0
    4.2409    3.2007    1.2305 H   0  0  0  0  0  0  0  0  0  0  0  0
    4.3181    1.5056    3.7816 H   0  0  0  0  0  0  0  0  0  0  0  0
    5.6145    2.5748    3.2047 H   0  0  0  0  0  0  0  0  0  0  0  0
    4.0598    3.2628    3.7125 H   0  0  0  0  0  0  0  0  0  0  0  0
    6.0129    1.1581    0.7127 N   0  0  0  0  0  0  0  0  0  0  0  0
    6.7162    0.1044   -0.0097 C   0  0  0  0  0  0  0  0  0  0  0  0
    6.5125    2.0139    0.9383 H   0  0  0  0  0  0  0  0  0  0  0  0
    6.6209   -0.8526    0.5144 H   0  0  0  0  0  0  0  0  0  0  0  0
    6.3087   -0.0045   -1.0201 H   0  0  0  0  0  0  0  0  0  0  0  0
    7.7807    0.3458   -0.0897 H   0  0  0  0  0  0  0  0  0  0  0  0
  1  2  2  0  0  0  0
  1  3  1  0  0  0  0
  1  7  1  0  0  0  0
  3  4  1  0  0  0  0
  3  5  1  0  0  0  0
  3  6  1  0  0  0  0
  7  8  1  0  0  0  0
  7 12  1  0  0  0  0
  8  9  1  0  0  0  0
  8 11  1  0  0  0  0
  8 13  1  0  0  0  0
  9 10  2  0  0  0  0
  9 17  1  0  0  0  0
 11 14  1  0  0  0  0
 11 15  1  0  0  0  0
 11 16  1  0  0  0  0
 17 18  1  0  0  0  0
 17 27  1  0  0  0  0
 18 19  1  0  0  0  0
 18 21  1  0  0  0  0
 18 28  1  0  0  0  0
 19 20  2  0  0  0  0
 19 35  1  0  0  0  0
 21 22  1  0  0  0  0
 21 29  1  0  0  0  0
 21 30  1  0  0  0  0
 22 23  1  0  0  0  0
 22 24  2  0  0  0  0
 23 25  2  0  0  0  0
 23 31  1  0  0  0  0
 24 26  1  0  0  0  0
 24 32  1  0  0  0  0
 25 26  1  0  0  0  0
 25 33  1  0  0  0  0
 26 34  1  0  0  0  0
 35 36  1  0  0  0  0
 35 40  1  0  0  0  0
 36 37  1  0  0  0  0
 36 39  1  0  0  0  0
 36 41  1  0  0  0  0
 37 38  2  0  0  0  0
 37 45  1  0  0  0  0
 39 42  1  0  0  0  0
 39 43  1  0  0  0  0
 39 44  1  0  0  0  0
 45 46  1  0  0  0  0
 45 47  1  0  0  0  0
 46 48  1  0  0  0  0
 46 49  1  0  0  0  0
 46 50  1  0  0  0  0
M  CHG  1  23   1
M  END
$$$$

  -OEChem-05262216443D

 50 50  0     1  0  0  0  0  0999 V2000
   -3.5576    0.1013    2.1249 C   0  0  0  0  0  0  0  0  0  0  0  0
   -3.2290    0.5539    1.0344 O   0  0  0  0  0  0  0  0  0  0  0  0
   -4.6304   -0.9671    2.2104 C   0  0  0  0  0  0  0  0  0  0  0  0
   -5.0490   -1.1654    1.2200 H   0  0  0  0  0  0  0  0  0  0  0  0
   -4.2066   -1.8928    2.6077 H   0  0  0  0  0  0  0  0  0  0  0  0
   -5.4364   -0.6340    2.8694 H   0  0  0  0  0  0  0  0  0  0  0  0
   -2.9253    0.5243    3.2770 N   0  0  0  0  0  0  0  0  0  0  0  0
   -1.9742    1.6445    3.3491 C   0  0  2  0  0  0  0  0  0  0  0  0
   -0.5809    1.3042    2.7659 C   0  0  0  0  0  0  0  0  0  0  0  0
    0.4144    1.1661    3.4668 O   0  0  0  0  0  0  0  0  0  0  0  0
   -1.9006    2.0890    4.8149 C   0  0  0  0  0  0  0  0  0  0  0  0
   -3.2325    0.1045    4.1513 H   0  0  0  0  0  0  0  0  0  0  0  0
   -2.3668    2.4871    2.7689 H   0  0  0  0  0  0  0  0  0  0  0  0
   -1.5198    1.2802    5.4470 H   0  0  0  0  0  0  0  0  0  0  0  0
   -1.2310    2.9495    4.9166 H   0  0  0  0  0  0  0  0  0  0  0  0
   -2.8911    2.3811    5.1773 H   0  0  0  0  0  0  0  0  0  0  0  0
   -0.4601    1.1362    1.4007 N   0  0  0  0  0  0  0  0  0  0  0  0
    0.8022    1.1452    0.6447 C   0  0  2  0  0  0  0  0  0  0  0  0
    1.8115    2.2665    0.9849 C   0  0  0  0  0  0  0  0  0  0  0  0
    2.0503    3.1507    0.1703 O   0  0  0  0  0  0  0  0  0  0  0  0
    0.5064    1.1061   -0.8633 C   0  0  0  0  0  0  0  0  0  0  0  0
   -0.1711   -0.1858   -1.2254 C   0  0  0  0  0  0  0  0  0  0  0  0
    0.4891   -1.4102   -1.3089 N   0  3  0  0  0  0  0  0  0  0  0  0
   -1.4906   -0.3924   -1.5327 C   0  0  0  0  0  0  0  0  0  0  0  0
   -0.3558   -2.3531   -1.6476 C   0  0  0  0  0  0  0  0  0  0  0  0
   -1.6058   -1.7520   -1.7978 N   0  0  0  0  0  0  0  0  0  0  0  0
   -1.3408    1.1956    0.8851 H   0  0  0  0  0  0  0  0  0  0  0  0
    1.3207    0.2145    0.8959 H   0  0  0  0  0  0  0  0  0  0  0  0
    1.4398    1.1937   -1.4319 H   0  0  0  0  0  0  0  0  0  0  0  0
   -0.1212    1.9623   -1.1344 H   0  0  0  0  0  0  0  0  0  0  0  0
    1.4901   -1.5133   -1.1059 H   0  0  0  0  0  0  0  0  0  0  0  0
   -2.2820    0.3592   -1.5408 H   0  0  0  0  0  0  0  0  0  0  0  0
   -0.1219   -3.4104   -1.7825 H   0  0  0  0  0  0  0  0  0  0  0  0
   -2.4730   -2.2313   -2.0551 H   0  0  0  0  0  0  0  0  0  0  0  0
    2.7387    2.0069    1.9720 N   0  0  0  0  0  0  0  0  0  0  0  0
    4.1692    2.0775    1.6501 C   0  0  2  0  0  0  0  0  0  0  0  0
    4.6014    1.0431    0.5756 C   0  0  0  0  0  0  0  0  0  0  0  0
    3.8648    0.1138    0.2381 O   0  0  0  0  0  0  0  0  0  0  0  0
    4.9431    1.8563    2.9522 C   0  0  0  0  0  0  0  0  0  0  0  0
    2.4453    1.2756    2.6212 H   0  0  0  0  0  0  0  0  0  0  0  0
    4.4026    3.0783    1.2705 H   0  0  0  0  0  0  0  0  0  0  0  0
    4.7497    0.8548    3.3506 H   0  0  0  0  0  0  0  0  0  0  0  0
    6.0192    1.9608    2.7836 H   0  0  0  0  0  0  0  0  0  0  0  0
    4.6395    2.5938    3.7023 H   0  0  0  0  0  0  0  0  0  0  0  0
    5.8314    1.1712   -0.0418 N   0  0  0  0  0  0  0  0  0  0  0  0
    6.3061    0.2812   -1.0949 C   0  0  0  0  0  0  0  0  0  0  0  0
    6.4011    1.9742    0.2118 H   0  0  0  0  0  0  0  0  0  0  0  0
    6.3471   -0.7524   -0.7355 H   0  0  0  0  0  0  0  0  0  0  0  0
    5.6425    0.3272   -1.9647 H   0  0  0  0  0  0  0  0  0  0  0  0
    7.3116    0.5747   -1.4124 H   0  0  0  0  0  0  0  0  0  0  0  0
  1  2  2  0  0  0  0
  1  3  1  0  0  0  0
  1  7  1  0  0  0  0
  3  4  1  0  0  0  0
  3  5  1  0  0  0  0
  3  6  1  0  0  0  0
  7  8  1  0  0  0  0
  7 12  1  0  0  0  0
  8  9  1  0  0  0  0
  8 11  1  0  0  0  0
  8 13  1  0  0  0  0
  9 10  2  0  0  0  0
  9 17  1  0  0  0  0
 11 14  1  0  0  0  0
 11 15  1  0  0  0  0
 11 16  1  0  0  0  0
 17 18  1  0  0  0  0
 17 27  1  0  0  0  0
 18 19  1  0  0  0  0
 18 21  1  0  0  0  0
 18 28  1  0  0  0  0
 19 20  2  0  0  0  0
 19 35  1  0  0  0  0
 21 22  1  0  0  0  0
 21 29  1  0  0  0  0
 21 30  1  0  0  0  0
 22 23  1  0  0  0  0
 22 24  2  0  0  0  0
 23 25  2  0  0  0  0
 23 31  1  0  0  0  0
 24 26  1  0  0  0  0
 24 32  1  0  0  0  0
 25 26  1  0  0  0  0
 25 33  1  0  0  0  0
 26 34  1  0  0  0  0
 35 36  1  0  0  0  0
 35 40  1  0  0  0  0
 36 37  1  0  0  0  0
 36 39  1  0  0  0  0
 36 41  1  0  0  0  0
 37 38  2  0  0  0  0
 37 45  1  0  0  0  0
 39 42  1  0  0  0  0
 39 43  1  0  0  0  0
 39 44  1  0  0  0  0
 45 46  1  0  0  0  0
 45 47  1  0  0  0  0
 46 48  1  0  0  0  0
 46 49  1  0  0  0  0
 46 50  1  0  0  0  0
M  CHG  1  23   1
M  END
$$$$

  -OEChem-05262216443D

 50 50  0     1  0  0  0  0  0999 V2000
   -3.4682    0.0497    2.0743 C   0  0  0  0  0  0  0  0  0  0  0  0
   -3.1358    0.6223    1.0432 O   0  0  0  0  0  0  0  0  0  0  0  0
   -4.4969   -1.0635    2.0219 C   0  0  0  0  0  0  0  0  0  0  0  0
   -4.8354   -1.2196    0.9942 H   0  0  0  0  0  0  0  0  0  0  0  0
   -4.0618   -1.9936    2.3960 H   0  0  0  0  0  0  0  0  0  0  0  0
   -5.3610   -0.8015    2.6382 H   0  0  0  0  0  0  0  0  0  0  0  0
   -2.8793    0.3772    3.2798 N   0  0  0  0  0  0  0  0  0  0  0  0
   -1.9874    1.5285    3.4941 C   0  0  2  0  0  0  0  0  0  0  0  0
   -0.5699    1.3298    2.9030 C   0  0  0  0  0  0  0  0  0  0  0  0
    0.4268    1.1810    3.6002 O   0  0  0  0  0  0  0  0  0  0  0  0
   -1.9552    1.8054    5.0026 C   0  0  0  0  0  0  0  0  0  0  0  0
   -3.1961   -0.1355    4.0995 H   0  0  0  0  0  0  0  0  0  0  0  0
   -2.4166    2.4098    3.0051 H   0  0  0  0  0  0  0  0  0  0  0  0
   -1.5278    0.9549    5.5440 H   0  0  0  0  0  0  0  0  0  0  0  0
   -1.3435    2.6890    5.2122 H   0  0  0  0  0  0  0  0  0  0  0  0
   -2.9652    1.9902    5.3816 H   0  0  0  0  0  0  0  0  0  0  0  0
   -0.4207    1.3035    1.5313 N   0  0  0  0  0  0  0  0  0  0  0  0
    0.8643    1.3743    0.8242 C   0  0  2  0  0  0  0  0  0  0  0  0
    1.9014    2.4217    1.2795 C   0  0  0  0  0  0  0  0  0  0  0  0
    2.0639    3.4398    0.6177 O   0  0  0  0  0  0  0  0  0  0  0  0
    0.6476    1.4437   -0.6957 C   0  0  0  0  0  0  0  0  0  0  0  0
    0.0084    0.1731   -1.1668 C   0  0  0  0  0  0  0  0  0  0  0  0
    0.7370   -1.0084   -1.2757 N   0  3  0  0  0  0  0  0  0  0  0  0
   -1.2837   -0.0768   -1.5444 C   0  0  0  0  0  0  0  0  0  0  0  0
   -0.0419   -1.9731   -1.6987 C   0  0  0  0  0  0  0  0  0  0  0  0
   -1.3142   -1.4260   -1.8805 N   0  0  0  0  0  0  0  0  0  0  0  0
   -1.2897    1.3645    0.9963 H   0  0  0  0  0  0  0  0  0  0  0  0
    1.3408    0.4108    1.0266 H   0  0  0  0  0  0  0  0  0  0  0  0
    1.6017    1.5862   -1.2159 H   0  0  0  0  0  0  0  0  0  0  0  0
    0.0163    2.3065   -0.9346 H   0  0  0  0  0  0  0  0  0  0  0  0
    1.7349   -1.0620   -1.0257 H   0  0  0  0  0  0  0  0  0  0  0  0
   -2.1106    0.6354   -1.5491 H   0  0  0  0  0  0  0  0  0  0  0  0
    0.2531   -3.0091   -1.8715 H   0  0  0  0  0  0  0  0  0  0  0  0
   -2.1431   -1.9344   -2.2002 H   0  0  0  0  0  0  0  0  0  0  0  0
    2.9698    1.9213    1.9961 N   0  0  0  0  0  0  0  0  0  0  0  0
    4.3070    1.9208    1.3863 C   0  0  2  0  0  0  0  0  0  0  0  0
    4.4440    0.9473    0.1812 C   0  0  0  0  0  0  0  0  0  0  0  0
    3.5832    0.1029   -0.0868 O   0  0  0  0  0  0  0  0  0  0  0  0
    5.3062    1.5534    2.4867 C   0  0  0  0  0  0  0  0  0  0  0  0
    2.7277    1.0995    2.5478 H   0  0  0  0  0  0  0  0  0  0  0  0
    4.5407    2.9310    1.0312 H   0  0  0  0  0  0  0  0  0  0  0  0
    5.1155    0.5415    2.8590 H   0  0  0  0  0  0  0  0  0  0  0  0
    6.3318    1.5964    2.1071 H   0  0  0  0  0  0  0  0  0  0  0  0
    5.2211    2.2541    3.3239 H   0  0  0  0  0  0  0  0  0  0  0  0
    5.5522    1.0338   -0.6398 N   0  0  0  0  0  0  0  0  0  0  0  0
    5.7771    0.1772   -1.7986 C   0  0  0  0  0  0  0  0  0  0  0  0
    6.2371    1.7555   -0.4275 H   0  0  0  0  0  0  0  0  0  0  0  0
    5.8178   -0.8748   -1.4970 H   0  0  0  0  0  0  0  0  0  0  0  0
    4.9744    0.3049   -2.5322 H   0  0  0  0  0  0  0  0  0  0  0  0
    6.7265    0.4335   -2.2791 H   0  0  0  0  0  0  0  0  0  0  0  0
  1  2  2  0  0  0  0
  1  3  1  0  0  0  0
  1  7  1  0  0  0  0
  3  4  1  0  0  0  0
  3  5  1  0  0  0  0
  3  6  1  0  0  0  0
  7  8  1  0  0  0  0
  7 12  1  0  0  0  0
  8  9  1  0  0  0  0
  8 11  1  0  0  0  0
  8 13  1  0  0  0  0
  9 10  2  0  0  0  0
  9 17  1  0  0  0  0
 11 14  1  0  0  0  0
 11 15  1  0  0  0  0
 11 16  1  0  0  0  0
 17 18  1  0  0  0  0
 17 27  1  0  0  0  0
 18 19  1  0  0  0  0
 18 21  1  0  0  0  0
 18 28  1  0  0  0  0
 19 20  2  0  0  0  0
 19 35  1  0  0  0  0
 21 22  1  0  0  0  0
 21 29  1  0  0  0  0
 21 30  1  0  0  0  0
 22 23  1  0  0  0  0
 22 24  2  0  0  0  0
 23 25  2  0  0  0  0
 23 31  1  0  0  0  0
 24 26  1  0  0  0  0
 24 32  1  0  0  0  0
 25 26  1  0  0  0  0
 25 33  1  0  0  0  0
 26 34  1  0  0  0  0
 35 36  1  0  0  0  0
 35 40  1  0  0  0  0
 36 37  1  0  0  0  0
 36 39  1  0  0  0  0
 36 41  1  0  0  0  0
 37 38  2  0  0  0  0
 37 45  1  0  0  0  0
 39 42  1  0  0  0  0
 39 43  1  0  0  0  0
 39 44  1  0  0  0  0
 45 46  1  0  0  0  0
 45 47  1  0  0  0  0
 46 48  1  0  0  0  0
 46 49  1  0  0  0  0
 46 50  1  0  0  0  0
M  CHG  1  23   1
M  END
$$$$

  -OEChem-05262216443D

 50 50  0     1  0  0  0  0  0999 V2000
   -3.4625    0.1331    2.0632 C   0  0  0  0  0  0  0  0  0  0  0  0
   -3.0880    0.7699    1.0855 O   0  0  0  0  0  0  0  0  0  0  0  0
   -4.5626   -0.9003    1.9151 C   0  0  0  0  0  0  0  0  0  0  0  0
   -4.8795   -0.9706    0.8712 H   0  0  0  0  0  0  0  0  0  0  0  0
   -4.2042   -1.8798    2.2417 H   0  0  0  0  0  0  0  0  0  0  0  0
   -5.4251   -0.6164    2.5238 H   0  0  0  0  0  0  0  0  0  0  0  0
   -2.8617    0.3171    3.2928 N   0  0  0  0  0  0  0  0  0  0  0  0
   -1.8996    1.3858    3.6067 C   0  0  2  0  0  0  0  0  0  0  0  0
   -0.4923    1.1460    3.0067 C   0  0  0  0  0  0  0  0  0  0  0  0
    0.4902    0.8979    3.6953 O   0  0  0  0  0  0  0  0  0  0  0  0
   -1.8635    1.5315    5.1330 C   0  0  0  0  0  0  0  0  0  0  0  0
   -3.2146   -0.2433    4.0649 H   0  0  0  0  0  0  0  0  0  0  0  0
   -2.2662    2.3316    3.1927 H   0  0  0  0  0  0  0  0  0  0  0  0
   -1.5072    0.6087    5.6025 H   0  0  0  0  0  0  0  0  0  0  0  0
   -1.1894    2.3456    5.4194 H   0  0  0  0  0  0  0  0  0  0  0  0
   -2.8610    1.7601    5.5206 H   0  0  0  0  0  0  0  0  0  0  0  0
   -0.3326    1.2185    1.6380 N   0  0  0  0  0  0  0  0  0  0  0  0
    0.9656    1.3002    0.9574 C   0  0  2  0  0  0  0  0  0  0  0  0
    2.0235    2.2759    1.5109 C   0  0  0  0  0  0  0  0  0  0  0  0
    2.0567    3.4232    1.0835 O   0  0  0  0  0  0  0  0  0  0  0  0
    0.7428    1.5692   -0.5412 C   0  0  0  0  0  0  0  0  0  0  0  0
    0.0323    0.4089   -1.1674 C   0  0  0  0  0  0  0  0  0  0  0  0
    0.6943   -0.7855   -1.4372 N   0  3  0  0  0  0  0  0  0  0  0  0
   -1.2744    0.2788   -1.5543 C   0  0  0  0  0  0  0  0  0  0  0  0
   -0.1385   -1.6438   -1.9725 C   0  0  0  0  0  0  0  0  0  0  0  0
   -1.3808   -1.0114   -2.0625 N   0  0  0  0  0  0  0  0  0  0  0  0
   -1.1894    1.3875    1.1069 H   0  0  0  0  0  0  0  0  0  0  0  0
    1.4089    0.3041    1.0490 H   0  0  0  0  0  0  0  0  0  0  0  0
    1.6947    1.7389   -1.0544 H   0  0  0  0  0  0  0  0  0  0  0  0
    0.1519    2.4843   -0.6579 H   0  0  0  0  0  0  0  0  0  0  0  0
    1.6936   -0.9179   -1.2240 H   0  0  0  0  0  0  0  0  0  0  0  0
   -2.0617    1.0277   -1.4524 H   0  0  0  0  0  0  0  0  0  0  0  0
    0.0986   -2.6613   -2.2868 H   0  0  0  0  0  0  0  0  0  0  0  0
   -2.2388   -1.4293   -2.4328 H   0  0  0  0  0  0  0  0  0  0  0  0
    3.2048    1.6832    1.9132 N   0  0  0  0  0  0  0  0  0  0  0  0
    4.4272    1.8610    1.1184 C   0  0  2  0  0  0  0  0  0  0  0  0
    4.4709    0.9476   -0.1378 C   0  0  0  0  0  0  0  0  0  0  0  0
    3.5923    0.1102   -0.3683 O   0  0  0  0  0  0  0  0  0  0  0  0
    5.6108    1.5734    2.0462 C   0  0  0  0  0  0  0  0  0  0  0  0
    3.0669    0.7486    2.2917 H   0  0  0  0  0  0  0  0  0  0  0  0
    4.5025    2.9010    0.7810 H   0  0  0  0  0  0  0  0  0  0  0  0
    5.5908    0.5332    2.3871 H   0  0  0  0  0  0  0  0  0  0  0  0
    6.5592    1.7529    1.5311 H   0  0  0  0  0  0  0  0  0  0  0  0
    5.5692    2.2273    2.9236 H   0  0  0  0  0  0  0  0  0  0  0  0
    5.4934    1.0941   -1.0553 N   0  0  0  0  0  0  0  0  0  0  0  0
    5.6256    0.2896   -2.2646 C   0  0  0  0  0  0  0  0  0  0  0  0
    6.2022    1.7971   -0.8587 H   0  0  0  0  0  0  0  0  0  0  0  0
    5.6778   -0.7755   -2.0144 H   0  0  0  0  0  0  0  0  0  0  0  0
    4.7735    0.4559   -2.9318 H   0  0  0  0  0  0  0  0  0  0  0  0
    6.5407    0.5611   -2.8006 H   0  0  0  0  0  0  0  0  0  0  0  0
  1  2  2  0  0  0  0
  1  3  1  0  0  0  0
  1  7  1  0  0  0  0
  3  4  1  0  0  0  0
  3  5  1  0  0  0  0
  3  6  1  0  0  0  0
  7  8  1  0  0  0  0
  7 12  1  0  0  0  0
  8  9  1  0  0  0  0
  8 11  1  0  0  0  0
  8 13  1  0  0  0  0
  9 10  2  0  0  0  0
  9 17  1  0  0  0  0
 11 14  1  0  0  0  0
 11 15  1  0  0  0  0
 11 16  1  0  0  0  0
 17 18  1  0  0  0  0
 17 27  1  0  0  0  0
 18 19  1  0  0  0  0
 18 21  1  0  0  0  0
 18 28  1  0  0  0  0
 19 20  2  0  0  0  0
 19 35  1  0  0  0  0
 21 22  1  0  0  0  0
 21 29  1  0  0  0  0
 21 30  1  0  0  0  0
 22 23  1  0  0  0  0
 22 24  2  0  0  0  0
 23 25  2  0  0  0  0
 23 31  1  0  0  0  0
 24 26  1  0  0  0  0
 24 32  1  0  0  0  0
 25 26  1  0  0  0  0
 25 33  1  0  0  0  0
 26 34  1  0  0  0  0
 35 36  1  0  0  0  0
 35 40  1  0  0  0  0
 36 37  1  0  0  0  0
 36 39  1  0  0  0  0
 36 41  1  0  0  0  0
 37 38  2  0  0  0  0
 37 45  1  0  0  0  0
 39 42  1  0  0  0  0
 39 43  1  0  0  0  0
 39 44  1  0  0  0  0
 45 46  1  0  0  0  0
 45 47  1  0  0  0  0
 46 48  1  0  0  0  0
 46 49  1  0  0  0  0
 46 50  1  0  0  0  0
M  CHG  1  23   1
M  END
$$$$

  -OEChem-05262216443D

 50 50  0     1  0  0  0  0  0999 V2000
   -3.5497    0.5366    2.0914 C   0  0  0  0  0  0  0  0  0  0  0  0
   -3.0574    1.0721    1.1048 O   0  0  0  0  0  0  0  0  0  0  0  0
   -4.8743   -0.1922    1.9737 C   0  0  0  0  0  0  0  0  0  0  0  0
   -5.2751   -0.0911    0.9616 H   0  0  0  0  0  0  0  0  0  0  0  0
   -4.7390   -1.2533    2.1970 H   0  0  0  0  0  0  0  0  0  0  0  0
   -5.5958    0.2302    2.6778 H   0  0  0  0  0  0  0  0  0  0  0  0
   -2.8853    0.5488    3.3016 N   0  0  0  0  0  0  0  0  0  0  0  0
   -1.6838    1.3477    3.5923 C   0  0  2  0  0  0  0  0  0  0  0  0
   -0.3904    0.7722    2.9640 C   0  0  0  0  0  0  0  0  0  0  0  0
    0.5431    0.3516    3.6359 O   0  0  0  0  0  0  0  0  0  0  0  0
   -1.5841    1.4786    5.1175 C   0  0  0  0  0  0  0  0  0  0  0  0
   -3.3419    0.0806    4.0808 H   0  0  0  0  0  0  0  0  0  0  0  0
   -1.8147    2.3554    3.1822 H   0  0  0  0  0  0  0  0  0  0  0  0
   -1.4464    0.4969    5.5827 H   0  0  0  0  0  0  0  0  0  0  0  0
   -0.7315    2.1103    5.3882 H   0  0  0  0  0  0  0  0  0  0  0  0
   -2.4913    1.9360    5.5244 H   0  0  0  0  0  0  0  0  0  0  0  0
   -0.2715    0.7509    1.5886 N   0  0  0  0  0  0  0  0  0  0  0  0
    1.0167    0.6865    0.8830 C   0  0  2  0  0  0  0  0  0  0  0  0
    2.1079    1.6381    1.4226 C   0  0  0  0  0  0  0  0  0  0  0  0
    1.9561    2.8469    1.2936 O   0  0  0  0  0  0  0  0  0  0  0  0
    0.7580    1.0390   -0.5943 C   0  0  0  0  0  0  0  0  0  0  0  0
   -0.1292    0.0221   -1.2587 C   0  0  0  0  0  0  0  0  0  0  0  0
    0.2716   -1.2522   -1.6551 N   0  3  0  0  0  0  0  0  0  0  0  0
   -1.4561    0.1635   -1.5728 C   0  0  0  0  0  0  0  0  0  0  0  0
   -0.7346   -1.8910   -2.2010 C   0  0  0  0  0  0  0  0  0  0  0  0
   -1.8359   -1.0359   -2.1623 N   0  0  0  0  0  0  0  0  0  0  0  0
   -1.0792    1.1356    1.0946 H   0  0  0  0  0  0  0  0  0  0  0  0
    1.4021   -0.3350    0.9546 H   0  0  0  0  0  0  0  0  0  0  0  0
    1.7049    1.1022   -1.1400 H   0  0  0  0  0  0  0  0  0  0  0  0
    0.2933    2.0304   -0.6502 H   0  0  0  0  0  0  0  0  0  0  0  0
    1.2344   -1.5871   -1.5508 H   0  0  0  0  0  0  0  0  0  0  0  0
   -2.0809    1.0363   -1.3726 H   0  0  0  0  0  0  0  0  0  0  0  0
   -0.7112   -2.9013   -2.6130 H   0  0  0  0  0  0  0  0  0  0  0  0
   -2.7742   -1.2513   -2.5111 H   0  0  0  0  0  0  0  0  0  0  0  0
    3.3800    1.1272    1.5950 N   0  0  0  0  0  0  0  0  0  0  0  0
    4.5613    1.8048    1.0470 C   0  0  2  0  0  0  0  0  0  0  0  0
    4.8153    1.3740   -0.4171 C   0  0  0  0  0  0  0  0  0  0  0  0
    4.1907    0.4319   -0.9055 O   0  0  0  0  0  0  0  0  0  0  0  0
    5.7540    1.4505    1.9392 C   0  0  0  0  0  0  0  0  0  0  0  0
    3.4241    0.1121    1.5955 H   0  0  0  0  0  0  0  0  0  0  0  0
    4.4255    2.8918    1.0665 H   0  0  0  0  0  0  0  0  0  0  0  0
    5.9449    0.3725    1.9180 H   0  0  0  0  0  0  0  0  0  0  0  0
    6.6563    1.9700    1.6021 H   0  0  0  0  0  0  0  0  0  0  0  0
    5.5533    1.7478    2.9737 H   0  0  0  0  0  0  0  0  0  0  0  0
    5.7349    2.0478   -1.1978 N   0  0  0  0  0  0  0  0  0  0  0  0
    6.0476    1.6794   -2.5740 C   0  0  0  0  0  0  0  0  0  0  0  0
    6.2294    2.8296   -0.7754 H   0  0  0  0  0  0  0  0  0  0  0  0
    6.4489    0.6613   -2.6157 H   0  0  0  0  0  0  0  0  0  0  0  0
    5.1504    1.7306   -3.1995 H   0  0  0  0  0  0  0  0  0  0  0  0
    6.7956    2.3624   -2.9886 H   0  0  0  0  0  0  0  0  0  0  0  0
  1  2  2  0  0  0  0
  1  3  1  0  0  0  0
  1  7  1  0  0  0  0
  3  4  1  0  0  0  0
  3  5  1  0  0  0  0
  3  6  1  0  0  0  0
  7  8  1  0  0  0  0
  7 12  1  0  0  0  0
  8  9  1  0  0  0  0
  8 11  1  0  0  0  0
  8 13  1  0  0  0  0
  9 10  2  0  0  0  0
  9 17  1  0  0  0  0
 11 14  1  0  0  0  0
 11 15  1  0  0  0  0
 11 16  1  0  0  0  0
 17 18  1  0  0  0  0
 17 27  1  0  0  0  0
 18 19  1  0  0  0  0
 18 21  1  0  0  0  0
 18 28  1  0  0  0  0
 19 20  2  0  0  0  0
 19 35  1  0  0  0  0
 21 22  1  0  0  0  0
 21 29  1  0  0  0  0
 21 30  1  0  0  0  0
 22 23  1  0  0  0  0
 22 24  2  0  0  0  0
 23 25  2  0  0  0  0
 23 31  1  0  0  0  0
 24 26  1  0  0  0  0
 24 32  1  0  0  0  0
 25 26  1  0  0  0  0
 25 33  1  0  0  0  0
 26 34  1  0  0  0  0
 35 36  1  0  0  0  0
 35 40  1  0  0  0  0
 36 37  1  0  0  0  0
 36 39  1  0  0  0  0
 36 41  1  0  0  0  0
 37 38  2  0  0  0  0
 37 45  1  0  0  0  0
 39 42  1  0  0  0  0
 39 43  1  0  0  0  0
 39 44  1  0  0  0  0
 45 46  1  0  0  0  0
 45 47  1  0  0  0  0
 46 48  1  0  0  0  0
 46 49  1  0  0  0  0
 46 50  1  0  0  0  0
M  CHG  1  23   1
M  END
$$$$

  -OEChem-05262216443D

 50 50  0     1  0  0  0  0  0999 V2000
   -3.4689    0.6945    2.1936 C   0  0  0  0  0  0  0  0  0  0  0  0
   -2.9523    1.1986    1.2029 O   0  0  0  0  0  0  0  0  0  0  0  0
   -4.8853    0.1581    2.1172 C   0  0  0  0  0  0  0  0  0  0  0  0
   -5.3081    0.3416    1.1259 H   0  0  0  0  0  0  0  0  0  0  0  0
   -4.8896   -0.9175    2.3099 H   0  0  0  0  0  0  0  0  0  0  0  0
   -5.5122    0.6556    2.8617 H   0  0  0  0  0  0  0  0  0  0  0  0
   -2.7577    0.5674    3.3702 N   0  0  0  0  0  0  0  0  0  0  0  0
   -1.4476    1.1850    3.6336 C   0  0  2  0  0  0  0  0  0  0  0  0
   -0.2714    0.4733    2.9218 C   0  0  0  0  0  0  0  0  0  0  0  0
    0.6315   -0.0894    3.5292 O   0  0  0  0  0  0  0  0  0  0  0  0
   -1.2647    1.2314    5.1555 C   0  0  0  0  0  0  0  0  0  0  0  0
   -3.2421    0.1363    4.1539 H   0  0  0  0  0  0  0  0  0  0  0  0
   -1.4572    2.2189    3.2710 H   0  0  0  0  0  0  0  0  0  0  0  0
   -1.2361    0.2196    5.5731 H   0  0  0  0  0  0  0  0  0  0  0  0
   -0.3251    1.7344    5.4081 H   0  0  0  0  0  0  0  0  0  0  0  0
   -2.0853    1.7829    5.6246 H   0  0  0  0  0  0  0  0  0  0  0  0
   -0.2188    0.4992    1.5421 N   0  0  0  0  0  0  0  0  0  0  0  0
    1.0408    0.4034    0.7890 C   0  0  2  0  0  0  0  0  0  0  0  0
    2.1754    1.2950    1.3431 C   0  0  0  0  0  0  0  0  0  0  0  0
    1.9418    2.4778    1.5622 O   0  0  0  0  0  0  0  0  0  0  0  0
    0.7454    0.8673   -0.6495 C   0  0  0  0  0  0  0  0  0  0  0  0
   -0.2307   -0.0473   -1.3426 C   0  0  0  0  0  0  0  0  0  0  0  0
    0.0466   -1.3170   -1.8479 N   0  3  0  0  0  0  0  0  0  0  0  0
   -1.5559    0.2163   -1.5789 C   0  0  0  0  0  0  0  0  0  0  0  0
   -1.0321   -1.8348   -2.3841 C   0  0  0  0  0  0  0  0  0  0  0  0
   -2.0578   -0.9032   -2.2300 N   0  0  0  0  0  0  0  0  0  0  0  0
   -0.9921    1.0155    1.1182 H   0  0  0  0  0  0  0  0  0  0  0  0
    1.3852   -0.6348    0.7963 H   0  0  0  0  0  0  0  0  0  0  0  0
    1.6728    0.9048   -1.2302 H   0  0  0  0  0  0  0  0  0  0  0  0
    0.3468    1.8884   -0.6227 H   0  0  0  0  0  0  0  0  0  0  0  0
    0.9794   -1.7375   -1.8130 H   0  0  0  0  0  0  0  0  0  0  0  0
   -2.1005    1.1172   -1.2875 H   0  0  0  0  0  0  0  0  0  0  0  0
   -1.1107   -2.8115   -2.8644 H   0  0  0  0  0  0  0  0  0  0  0  0
   -3.0256   -1.0193   -2.5438 H   0  0  0  0  0  0  0  0  0  0  0  0
    3.4831    0.8764    1.1858 N   0  0  0  0  0  0  0  0  0  0  0  0
    4.5735    1.7976    0.8385 C   0  0  2  0  0  0  0  0  0  0  0  0
    4.8103    1.8139   -0.6887 C   0  0  0  0  0  0  0  0  0  0  0  0
    4.2696    0.9719   -1.4040 O   0  0  0  0  0  0  0  0  0  0  0  0
    5.8268    1.3355    1.5855 C   0  0  0  0  0  0  0  0  0  0  0  0
    3.5902   -0.0730    0.8405 H   0  0  0  0  0  0  0  0  0  0  0  0
    4.3381    2.8190    1.1569 H   0  0  0  0  0  0  0  0  0  0  0  0
    6.1073    0.3228    1.2784 H   0  0  0  0  0  0  0  0  0  0  0  0
    6.6669    2.0061    1.3806 H   0  0  0  0  0  0  0  0  0  0  0  0
    5.6434    1.3341    2.6649 H   0  0  0  0  0  0  0  0  0  0  0  0
    5.6177    2.7736   -1.2685 N   0  0  0  0  0  0  0  0  0  0  0  0
    5.8800    2.8432   -2.7018 C   0  0  0  0  0  0  0  0  0  0  0  0
    6.0384    3.4699   -0.6584 H   0  0  0  0  0  0  0  0  0  0  0  0
    6.3622    1.9229   -3.0487 H   0  0  0  0  0  0  0  0  0  0  0  0
    4.9458    2.9824   -3.2563 H   0  0  0  0  0  0  0  0  0  0  0  0
    6.5429    3.6848   -2.9262 H   0  0  0  0  0  0  0  0  0  0  0  0
  1  2  2  0  0  0  0
  1  3  1  0  0  0  0
  1  7  1  0  0  0  0
  3  4  1  0  0  0  0
  3  5  1  0  0  0  0
  3  6  1  0  0  0  0
  7  8  1  0  0  0  0
  7 12  1  0  0  0  0
  8  9  1  0  0  0  0
  8 11  1  0  0  0  0
  8 13  1  0  0  0  0
  9 10  2  0  0  0  0
  9 17  1  0  0  0  0
 11 14  1  0  0  0  0
 11 15  1  0  0  0  0
 11 16  1  0  0  0  0
 17 18  1  0  0  0  0
 17 27  1  0  0  0  0
 18 19  1  0  0  0  0
 18 21  1  0  0  0  0
 18 28  1  0  0  0  0
 19 20  2  0  0  0  0
 19 35  1  0  0  0  0
 21 22  1  0  0  0  0
 21 29  1  0  0  0  0
 21 30  1  0  0  0  0
 22 23  1  0  0  0  0
 22 24  2  0  0  0  0
 23 25  2  0  0  0  0
 23 31  1  0  0  0  0
 24 26  1  0  0  0  0
 24 32  1  0  0  0  0
 25 26  1  0  0  0  0
 25 33  1  0  0  0  0
 26 34  1  0  0  0  0
 35 36  1  0  0  0  0
 35 40  1  0  0  0  0
 36 37  1  0  0  0  0
 36 39  1  0  0  0  0
 36 41  1  0  0  0  0
 37 38  2  0  0  0  0
 37 45  1  0  0  0  0
 39 42  1  0  0  0  0
 39 43  1  0  0  0  0
 39 44  1  0  0  0  0
 45 46  1  0  0  0  0
 45 47  1  0  0  0  0
 46 48  1  0  0  0  0
 46 49  1  0  0  0  0
 46 50  1  0  0  0  0
M  CHG  1  23   1
M  END
$$$$

  -OEChem-05262216443D

 50 50  0     1  0  0  0  0  0999 V2000
   -3.3475    0.8316    2.3359 C   0  0  0  0  0  0  0  0  0  0  0  0
   -2.8262    1.3460    1.3529 O   0  0  0  0  0  0  0  0  0  0  0  0
   -4.8128    0.4426    2.2953 C   0  0  0  0  0  0  0  0  0  0  0  0
   -5.2544    0.7253    1.3358 H   0  0  0  0  0  0  0  0  0  0  0  0
   -4.9183   -0.6369    2.4290 H   0  0  0  0  0  0  0  0  0  0  0  0
   -5.3561    0.9549    3.0935 H   0  0  0  0  0  0  0  0  0  0  0  0
   -2.6013    0.5558    3.4645 N   0  0  0  0  0  0  0  0  0  0  0  0
   -1.2244    1.0224    3.6986 C   0  0  2  0  0  0  0  0  0  0  0  0
   -0.1597    0.2470    2.8850 C   0  0  0  0  0  0  0  0  0  0  0  0
    0.7065   -0.4443    3.4077 O   0  0  0  0  0  0  0  0  0  0  0  0
   -0.9684    0.9499    5.2091 C   0  0  0  0  0  0  0  0  0  0  0  0
   -3.0890    0.1159    4.2413 H   0  0  0  0  0  0  0  0  0  0  0  0
   -1.1448    2.0741    3.4012 H   0  0  0  0  0  0  0  0  0  0  0  0
   -1.0278   -0.0845    5.5629 H   0  0  0  0  0  0  0  0  0  0  0  0
    0.0296    1.3361    5.4423 H   0  0  0  0  0  0  0  0  0  0  0  0
   -1.7037    1.5503    5.7532 H   0  0  0  0  0  0  0  0  0  0  0  0
   -0.1694    0.3538    1.5079 N   0  0  0  0  0  0  0  0  0  0  0  0
    1.0592    0.2622    0.7023 C   0  0  2  0  0  0  0  0  0  0  0  0
    2.2452    1.0854    1.2630 C   0  0  0  0  0  0  0  0  0  0  0  0
    2.0190    2.1638    1.7996 O   0  0  0  0  0  0  0  0  0  0  0  0
    0.7133    0.8276   -0.6881 C   0  0  0  0  0  0  0  0  0  0  0  0
   -0.3261   -0.0114   -1.3876 C   0  0  0  0  0  0  0  0  0  0  0  0
   -0.1308   -1.2557   -1.9875 N   0  3  0  0  0  0  0  0  0  0  0  0
   -1.6486    0.3201   -1.5396 C   0  0  0  0  0  0  0  0  0  0  0  0
   -1.2572   -1.6939   -2.4965 C   0  0  0  0  0  0  0  0  0  0  0  0
   -2.2313   -0.7328   -2.2326 N   0  0  0  0  0  0  0  0  0  0  0  0
   -0.9113    0.9686    1.1673 H   0  0  0  0  0  0  0  0  0  0  0  0
    1.3706   -0.7844    0.6333 H   0  0  0  0  0  0  0  0  0  0  0  0
    1.6106    0.8730   -1.3136 H   0  0  0  0  0  0  0  0  0  0  0  0
    0.3521    1.8569   -0.5757 H   0  0  0  0  0  0  0  0  0  0  0  0
    0.7798   -1.7215   -2.0201 H   0  0  0  0  0  0  0  0  0  0  0  0
   -2.1370    1.2226   -1.1658 H   0  0  0  0  0  0  0  0  0  0  0  0
   -1.4044   -2.6351   -3.0290 H   0  0  0  0  0  0  0  0  0  0  0  0
   -3.2181   -0.7903   -2.4995 H   0  0  0  0  0  0  0  0  0  0  0  0
    3.5173    0.8297    0.7842 N   0  0  0  0  0  0  0  0  0  0  0  0
    4.5296    1.8754    0.5752 C   0  0  2  0  0  0  0  0  0  0  0  0
    4.6545    2.2222   -0.9246 C   0  0  0  0  0  0  0  0  0  0  0  0
    4.1023    1.5146   -1.7648 O   0  0  0  0  0  0  0  0  0  0  0  0
    5.8564    1.3571    1.1349 C   0  0  0  0  0  0  0  0  0  0  0  0
    3.5972    0.0227    0.1717 H   0  0  0  0  0  0  0  0  0  0  0  0
    4.2656    2.7936    1.1110 H   0  0  0  0  0  0  0  0  0  0  0  0
    6.1726    0.4528    0.6051 H   0  0  0  0  0  0  0  0  0  0  0  0
    6.6401    2.1137    1.0305 H   0  0  0  0  0  0  0  0  0  0  0  0
    5.7489    1.1188    2.1983 H   0  0  0  0  0  0  0  0  0  0  0  0
    5.3766    3.3257   -1.3365 N   0  0  0  0  0  0  0  0  0  0  0  0
    5.5520    3.6941   -2.7370 C   0  0  0  0  0  0  0  0  0  0  0  0
    5.8140    3.8992   -0.6199 H   0  0  0  0  0  0  0  0  0  0  0  0
    6.0358    2.8815   -3.2894 H   0  0  0  0  0  0  0  0  0  0  0  0
    4.5840    3.9089   -3.2020 H   0  0  0  0  0  0  0  0  0  0  0  0
    6.1797    4.5872   -2.8192 H   0  0  0  0  0  0  0  0  0  0  0  0
  1  2  2  0  0  0  0
  1  3  1  0  0  0  0
  1  7  1  0  0  0  0
  3  4  1  0  0  0  0
  3  5  1  0  0  0  0
  3  6  1  0  0  0  0
  7  8  1  0  0  0  0
  7 12  1  0  0  0  0
  8  9  1  0  0  0  0
  8 11  1  0  0  0  0
  8 13  1  0  0  0  0
  9 10  2  0  0  0  0
  9 17  1  0  0  0  0
 11 14  1  0  0  0  0
 11 15  1  0  0  0  0
 11 16  1  0  0  0  0
 17 18  1  0  0  0  0
 17 27  1  0  0  0  0
 18 19  1  0  0  0  0
 18 21  1  0  0  0  0
 18 28  1  0  0  0  0
 19 20  2  0  0  0  0
 19 35  1  0  0  0  0
 21 22  1  0  0  0  0
 21 29  1  0  0  0  0
 21 30  1  0  0  0  0
 22 23  1  0  0  0  0
 22 24  2  0  0  0  0
 23 25  2  0  0  0  0
 23 31  1  0  0  0  0
 24 26  1  0  0  0  0
 24 32  1  0  0  0  0
 25 26  1  0  0  0  0
 25 33  1  0  0  0  0
 26 34  1  0  0  0  0
 35 36  1  0  0  0  0
 35 40  1  0  0  0  0
 36 37  1  0  0  0  0
 36 39  1  0  0  0  0
 36 41  1  0  0  0  0
 37 38  2  0  0  0  0
 37 45  1  0  0  0  0
 39 42  1  0  0  0  0
 39 43  1  0  0  0  0
 39 44  1  0  0  0  0
 45 46  1  0  0  0  0
 45 47  1  0  0  0  0
 46 48  1  0  0  0  0
 46 49  1  0  0  0  0
 46 50  1  0  0  0  0
M  CHG  1  23   1
M  END
$$$$

  -OEChem-05262216443D

 50 50  0     1  0  0  0  0  0999 V2000
   -3.2284    1.0950    2.3898 C   0  0  0  0  0  0  0  0  0  0  0  0
   -2.6121    1.6241    1.4717 O   0  0  0  0  0  0  0  0  0  0  0  0
   -4.7355    0.9501    2.3071 C   0  0  0  0  0  0  0  0  0  0  0  0
   -5.1175    1.4534    1.4150 H   0  0  0  0  0  0  0  0  0  0  0  0
   -5.0071   -0.1074    2.2607 H   0  0  0  0  0  0  0  0  0  0  0  0
   -5.2020    1.3986    3.1881 H   0  0  0  0  0  0  0  0  0  0  0  0
   -2.5524    0.5769    3.4750 N   0  0  0  0  0  0  0  0  0  0  0  0
   -1.1149    0.7557    3.7330 C   0  0  2  0  0  0  0  0  0  0  0  0
   -0.2126   -0.1311    2.8408 C   0  0  0  0  0  0  0  0  0  0  0  0
    0.4673   -1.0462    3.2893 O   0  0  0  0  0  0  0  0  0  0  0  0
   -0.8873    0.5005    5.2282 C   0  0  0  0  0  0  0  0  0  0  0  0
   -3.1105    0.1246    4.1951 H   0  0  0  0  0  0  0  0  0  0  0  0
   -0.8365    1.7959    3.5298 H   0  0  0  0  0  0  0  0  0  0  0  0
   -1.1437   -0.5316    5.4885 H   0  0  0  0  0  0  0  0  0  0  0  0
    0.1642    0.6688    5.4835 H   0  0  0  0  0  0  0  0  0  0  0  0
   -1.4996    1.1779    5.8312 H   0  0  0  0  0  0  0  0  0  0  0  0
   -0.2024    0.0696    1.4719 N   0  0  0  0  0  0  0  0  0  0  0  0
    1.0266   -0.0388    0.6576 C   0  0  2  0  0  0  0  0  0  0  0  0
    2.3639    0.3334    1.3646 C   0  0  0  0  0  0  0  0  0  0  0  0
    2.3502    1.1356    2.2909 O   0  0  0  0  0  0  0  0  0  0  0  0
    0.8266    0.9271   -0.5303 C   0  0  0  0  0  0  0  0  0  0  0  0
   -0.3231    0.5115   -1.4149 C   0  0  0  0  0  0  0  0  0  0  0  0
   -0.3371   -0.5407   -2.3313 N   0  3  0  0  0  0  0  0  0  0  0  0
   -1.5422    1.1367   -1.4854 C   0  0  0  0  0  0  0  0  0  0  0  0
   -1.4958   -0.5935   -2.9431 C   0  0  0  0  0  0  0  0  0  0  0  0
   -2.2783    0.4419   -2.4357 N   0  0  0  0  0  0  0  0  0  0  0  0
   -0.8646    0.7965    1.1956 H   0  0  0  0  0  0  0  0  0  0  0  0
    1.1237   -1.0700    0.3055 H   0  0  0  0  0  0  0  0  0  0  0  0
    1.7288    0.9712   -1.1464 H   0  0  0  0  0  0  0  0  0  0  0  0
    0.6592    1.9390   -0.1422 H   0  0  0  0  0  0  0  0  0  0  0  0
    0.4641   -1.1579   -2.4845 H   0  0  0  0  0  0  0  0  0  0  0  0
   -1.8632    1.9994   -0.8981 H   0  0  0  0  0  0  0  0  0  0  0  0
   -1.7915   -1.3130   -3.7089 H   0  0  0  0  0  0  0  0  0  0  0  0
   -3.2391    0.6606   -2.7146 H   0  0  0  0  0  0  0  0  0  0  0  0
    3.5427    0.2379    0.6418 N   0  0  0  0  0  0  0  0  0  0  0  0
    4.6830    1.1570    0.7902 C   0  0  2  0  0  0  0  0  0  0  0  0
    4.7037    2.1996   -0.3475 C   0  0  0  0  0  0  0  0  0  0  0  0
    4.0557    1.9991   -1.3722 O   0  0  0  0  0  0  0  0  0  0  0  0
    5.9617    0.3162    0.7774 C   0  0  0  0  0  0  0  0  0  0  0  0
    3.4704   -0.2216   -0.2607 H   0  0  0  0  0  0  0  0  0  0  0  0
    4.6359    1.6961    1.7424 H   0  0  0  0  0  0  0  0  0  0  0  0
    6.0607   -0.2223   -0.1708 H   0  0  0  0  0  0  0  0  0  0  0  0
    6.8419    0.9535    0.9076 H   0  0  0  0  0  0  0  0  0  0  0  0
    5.9419   -0.4138    1.5931 H   0  0  0  0  0  0  0  0  0  0  0  0
    5.4537    3.3540   -0.2343 N   0  0  0  0  0  0  0  0  0  0  0  0
    5.5312    4.3654   -1.2821 C   0  0  0  0  0  0  0  0  0  0  0  0
    5.9715    3.4998    0.6285 H   0  0  0  0  0  0  0  0  0  0  0  0
    5.9720    3.9420   -2.1909 H   0  0  0  0  0  0  0  0  0  0  0  0
    4.5336    4.7496   -1.5199 H   0  0  0  0  0  0  0  0  0  0  0  0
    6.1537    5.2038   -0.9544 H   0  0  0  0  0  0  0  0  0  0  0  0
  1  2  2  0  0  0  0
  1  3  1  0  0  0  0
  1  7  1  0  0  0  0
  3  4  1  0  0  0  0
  3  5  1  0  0  0  0
  3  6  1  0  0  0  0
  7  8  1  0  0  0  0
  7 12  1  0  0  0  0
  8  9  1  0  0  0  0
  8 11  1  0  0  0  0
  8 13  1  0  0  0  0
  9 10  2  0  0  0  0
  9 17  1  0  0  0  0
 11 14  1  0  0  0  0
 11 15  1  0  0  0  0
 11 16  1  0  0  0  0
 17 18  1  0  0  0  0
 17 27  1  0  0  0  0
 18 19  1  0  0  0  0
 18 21  1  0  0  0  0
 18 28  1  0  0  0  0
 19 20  2  0  0  0  0
 19 35  1  0  0  0  0
 21 22  1  0  0  0  0
 21 29  1  0  0  0  0
 21 30  1  0  0  0  0
 22 23  1  0  0  0  0
 22 24  2  0  0  0  0
 23 25  2  0  0  0  0
 23 31  1  0  0  0  0
 24 26  1  0  0  0  0
 24 32  1  0  0  0  0
 25 26  1  0  0  0  0
 25 33  1  0  0  0  0
 26 34  1  0  0  0  0
 35 36  1  0  0  0  0
 35 40  1  0  0  0  0
 36 37  1  0  0  0  0
 36 39  1  0  0  0  0
 36 41  1  0  0  0  0
 37 38  2  0  0  0  0
 37 45  1  0  0  0  0
 39 42  1  0  0  0  0
 39 43  1  0  0  0  0
 39 44  1  0  0  0  0
 45 46  1  0  0  0  0
 45 47  1  0  0  0  0
 46 48  1  0  0  0  0
 46 49  1  0  0  0  0
 46 50  1  0  0  0  0
M  CHG  1  23   1
M  END
$$$$

  -OEChem-05262216443D

 50 50  0     1  0  0  0  0  0999 V2000
   -3.0193    1.4350    2.1312 C   0  0  0  0  0  0  0  0  0  0  0  0
   -2.3451    1.7376    1.1530 O   0  0  0  0  0  0  0  0  0  0  0  0
   -4.5323    1.5047    2.0592 C   0  0  0  0  0  0  0  0  0  0  0  0
   -4.8489    1.8980    1.0894 H   0  0  0  0  0  0  0  0  0  0  0  0
   -4.9598    0.5079    2.1934 H   0  0  0  0  0  0  0  0  0  0  0  0
   -4.9124    2.1635    2.8442 H   0  0  0  0  0  0  0  0  0  0  0  0
   -2.4103    0.9847    3.2844 N   0  0  0  0  0  0  0  0  0  0  0  0
   -0.9587    0.9968    3.5260 C   0  0  2  0  0  0  0  0  0  0  0  0
   -0.1943   -0.1076    2.7579 C   0  0  0  0  0  0  0  0  0  0  0  0
    0.3349   -1.0633    3.3121 O   0  0  0  0  0  0  0  0  0  0  0  0
   -0.7423    0.9035    5.0409 C   0  0  0  0  0  0  0  0  0  0  0  0
   -3.0178    0.7257    4.0582 H   0  0  0  0  0  0  0  0  0  0  0  0
   -0.5445    1.9554    3.1946 H   0  0  0  0  0  0  0  0  0  0  0  0
   -1.1306   -0.0433    5.4302 H   0  0  0  0  0  0  0  0  0  0  0  0
    0.3270    0.9580    5.2717 H   0  0  0  0  0  0  0  0  0  0  0  0
   -1.2463    1.7285    5.5533 H   0  0  0  0  0  0  0  0  0  0  0  0
   -0.1181   -0.0482    1.3789 N   0  0  0  0  0  0  0  0  0  0  0  0
    1.1457   -0.2604    0.6384 C   0  0  2  0  0  0  0  0  0  0  0  0
    2.4731    0.1579    1.3548 C   0  0  0  0  0  0  0  0  0  0  0  0
    2.4423    0.8399    2.3720 O   0  0  0  0  0  0  0  0  0  0  0  0
    0.9828    0.5545   -0.6661 C   0  0  0  0  0  0  0  0  0  0  0  0
   -0.1400    0.0241   -1.5248 C   0  0  0  0  0  0  0  0  0  0  0  0
   -0.1352   -1.1328   -2.3058 N   0  3  0  0  0  0  0  0  0  0  0  0
   -1.3496    0.6435   -1.7135 C   0  0  0  0  0  0  0  0  0  0  0  0
   -1.2780   -1.2581   -2.9369 C   0  0  0  0  0  0  0  0  0  0  0  0
   -2.0640   -0.1609   -2.5911 N   0  0  0  0  0  0  0  0  0  0  0  0
   -0.7108    0.7028    1.0206 H   0  0  0  0  0  0  0  0  0  0  0  0
    1.2380   -1.3267    0.4121 H   0  0  0  0  0  0  0  0  0  0  0  0
    1.8977    0.5265   -1.2641 H   0  0  0  0  0  0  0  0  0  0  0  0
    0.8053    1.6066   -0.4117 H   0  0  0  0  0  0  0  0  0  0  0  0
    0.6565   -1.7796   -2.3419 H   0  0  0  0  0  0  0  0  0  0  0  0
   -1.6758    1.5783   -1.2531 H   0  0  0  0  0  0  0  0  0  0  0  0
   -1.5618   -2.0706   -3.6083 H   0  0  0  0  0  0  0  0  0  0  0  0
   -3.0128    0.0277   -2.9270 H   0  0  0  0  0  0  0  0  0  0  0  0
    3.6362    0.2668    0.6056 N   0  0  0  0  0  0  0  0  0  0  0  0
    4.6317    1.3287    0.8279 C   0  0  2  0  0  0  0  0  0  0  0  0
    4.2482    2.6154    0.0647 C   0  0  0  0  0  0  0  0  0  0  0  0
    3.5400    2.5411   -0.9370 O   0  0  0  0  0  0  0  0  0  0  0  0
    5.9903    0.8076    0.3552 C   0  0  0  0  0  0  0  0  0  0  0  0
    3.5809   -0.0857   -0.3435 H   0  0  0  0  0  0  0  0  0  0  0  0
    4.7116    1.5682    1.8942 H   0  0  0  0  0  0  0  0  0  0  0  0
    5.9647    0.5788   -0.7150 H   0  0  0  0  0  0  0  0  0  0  0  0
    6.7684    1.5573    0.5307 H   0  0  0  0  0  0  0  0  0  0  0  0
    6.2586   -0.1021    0.9021 H   0  0  0  0  0  0  0  0  0  0  0  0
    4.7061    3.8498    0.4832 N   0  0  0  0  0  0  0  0  0  0  0  0
    4.3643    5.1000   -0.1861 C   0  0  0  0  0  0  0  0  0  0  0  0
    5.2428    3.8861    1.3460 H   0  0  0  0  0  0  0  0  0  0  0  0
    4.6854    5.0749   -1.2330 H   0  0  0  0  0  0  0  0  0  0  0  0
    3.2830    5.2709   -0.1529 H   0  0  0  0  0  0  0  0  0  0  0  0
    4.8623    5.9412    0.3060 H   0  0  0  0  0  0  0  0  0  0  0  0
  1  2  2  0  0  0  0
  1  3  1  0  0  0  0
  1  7  1  0  0  0  0
  3  4  1  0  0  0  0
  3  5  1  0  0  0  0
  3  6  1  0  0  0  0
  7  8  1  0  0  0  0
  7 12  1  0  0  0  0
  8  9  1  0  0  0  0
  8 11  1  0  0  0  0
  8 13  1  0  0  0  0
  9 10  2  0  0  0  0
  9 17  1  0  0  0  0
 11 14  1  0  0  0  0
 11 15  1  0  0  0  0
 11 16  1  0  0  0  0
 17 18  1  0  0  0  0
 17 27  1  0  0  0  0
 18 19  1  0  0  0  0
 18 21  1  0  0  0  0
 18 28  1  0  0  0  0
 19 20  2  0  0  0  0
 19 35  1  0  0  0  0
 21 22  1  0  0  0  0
 21 29  1  0  0  0  0
 21 30  1  0  0  0  0
 22 23  1  0  0  0  0
 22 24  2  0  0  0  0
 23 25  2  0  0  0  0
 23 31  1  0  0  0  0
 24 26  1  0  0  0  0
 24 32  1  0  0  0  0
 25 26  1  0  0  0  0
 25 33  1  0  0  0  0
 26 34  1  0  0  0  0
 35 36  1  0  0  0  0
 35 40  1  0  0  0  0
 36 37  1  0  0  0  0
 36 39  1  0  0  0  0
 36 41  1  0  0  0  0
 37 38  2  0  0  0  0
 37 45  1  0  0  0  0
 39 42  1  0  0  0  0
 39 43  1  0  0  0  0
 39 44  1  0  0  0  0
 45 46  1  0  0  0  0
 45 47  1  0  0  0  0
 46 48  1  0  0  0  0
 46 49  1  0  0  0  0
 46 50  1  0  0  0  0
M  CHG  1  23   1
M  END
$$$$

  -OEChem-05262216443D

 50 50  0     1  0  0  0  0  0999 V2000
   -2.6912   -0.0216    2.0657 C   0  0  0  0  0  0  0  0  0  0  0  0
   -2.6565    0.2112    0.8620 O   0  0  0  0  0  0  0  0  0  0  0  0
   -3.2183   -1.3519    2.5674 C   0  0  0  0  0  0  0  0  0  0  0  0
   -3.5692   -1.9623    1.7312 H   0  0  0  0  0  0  0  0  0  0  0  0
   -2.4280   -1.8940    3.0928 H   0  0  0  0  0  0  0  0  0  0  0  0
   -4.0523   -1.1875    3.2544 H   0  0  0  0  0  0  0  0  0  0  0  0
   -2.1913    0.8972    2.9658 N   0  0  0  0  0  0  0  0  0  0  0  0
   -1.7337    2.2552    2.6282 C   0  0  2  0  0  0  0  0  0  0  0  0
   -0.3374    2.2765    1.9572 C   0  0  0  0  0  0  0  0  0  0  0  0
    0.5347    3.0483    2.3258 O   0  0  0  0  0  0  0  0  0  0  0  0
   -1.7783    3.0778    3.9229 C   0  0  0  0  0  0  0  0  0  0  0  0
   -2.2086    0.6349    3.9493 H   0  0  0  0  0  0  0  0  0  0  0  0
   -2.4377    2.7087    1.9225 H   0  0  0  0  0  0  0  0  0  0  0  0
   -1.0678    2.6818    4.6563 H   0  0  0  0  0  0  0  0  0  0  0  0
   -1.5163    4.1216    3.7204 H   0  0  0  0  0  0  0  0  0  0  0  0
   -2.7821    3.0565    4.3582 H   0  0  0  0  0  0  0  0  0  0  0  0
   -0.1910    1.6422    0.7356 N   0  0  0  0  0  0  0  0  0  0  0  0
    0.9407    0.7843    0.3122 C   0  0  2  0  0  0  0  0  0  0  0  0
    2.3461    1.0694    0.9160 C   0  0  0  0  0  0  0  0  0  0  0  0
    2.4704    1.0354    2.1326 O   0  0  0  0  0  0  0  0  0  0  0  0
    0.9467    0.8827   -1.2284 C   0  0  0  0  0  0  0  0  0  0  0  0
   -0.3279    0.3008   -1.7960 C   0  0  0  0  0  0  0  0  0  0  0  0
   -0.6717   -1.0481   -1.9095 N   0  3  0  0  0  0  0  0  0  0  0  0
   -1.3785    1.0358   -2.2859 C   0  0  0  0  0  0  0  0  0  0  0  0
   -1.8801   -1.1667   -2.4055 C   0  0  0  0  0  0  0  0  0  0  0  0
   -2.3506    0.1185   -2.6623 N   0  0  0  0  0  0  0  0  0  0  0  0
   -1.0940    1.2473    0.4620 H   0  0  0  0  0  0  0  0  0  0  0  0
    0.7153   -0.2451    0.6076 H   0  0  0  0  0  0  0  0  0  0  0  0
    1.7904    0.3329   -1.6556 H   0  0  0  0  0  0  0  0  0  0  0  0
    1.0529    1.9339   -1.5224 H   0  0  0  0  0  0  0  0  0  0  0  0
   -0.0663   -1.8101   -1.5940 H   0  0  0  0  0  0  0  0  0  0  0  0
   -1.4412    2.1237   -2.3336 H   0  0  0  0  0  0  0  0  0  0  0  0
   -2.4240   -2.0972   -2.5768 H   0  0  0  0  0  0  0  0  0  0  0  0
   -3.2810    0.3545   -3.0206 H   0  0  0  0  0  0  0  0  0  0  0  0
    3.5133    0.8112    0.2108 N   0  0  0  0  0  0  0  0  0  0  0  0
    4.8443    1.0123    0.8107 C   0  0  2  0  0  0  0  0  0  0  0  0
    5.1342    2.5171    1.0223 C   0  0  0  0  0  0  0  0  0  0  0  0
    5.8319    3.1389    0.2318 O   0  0  0  0  0  0  0  0  0  0  0  0
    5.8773    0.3312   -0.0956 C   0  0  0  0  0  0  0  0  0  0  0  0
    3.4621    0.9327   -0.7950 H   0  0  0  0  0  0  0  0  0  0  0  0
    4.8983    0.5273    1.7918 H   0  0  0  0  0  0  0  0  0  0  0  0
    5.8634    0.7678   -1.0994 H   0  0  0  0  0  0  0  0  0  0  0  0
    6.8826    0.4568    0.3195 H   0  0  0  0  0  0  0  0  0  0  0  0
    5.6686   -0.7397   -0.1753 H   0  0  0  0  0  0  0  0  0  0  0  0
    4.4889    3.1928    2.0392 N   0  0  0  0  0  0  0  0  0  0  0  0
    4.5362    4.6405    2.1964 C   0  0  0  0  0  0  0  0  0  0  0  0
    3.7553    2.6729    2.5280 H   0  0  0  0  0  0  0  0  0  0  0  0
    5.5721    4.9839    2.2862 H   0  0  0  0  0  0  0  0  0  0  0  0
    4.0743    5.1350    1.3358 H   0  0  0  0  0  0  0  0  0  0  0  0
    3.9953    4.9395    3.0995 H   0  0  0  0  0  0  0  0  0  0  0  0
  1  2  2  0  0  0  0
  1  3  1  0  0  0  0
  1  7  1  0  0  0  0
  3  4  1  0  0  0  0
  3  5  1  0  0  0  0
  3  6  1  0  0  0  0
  7  8  1  0  0  0  0
  7 12  1  0  0  0  0
  8  9  1  0  0  0  0
  8 11  1  0  0  0  0
  8 13  1  0  0  0  0
  9 10  2  0  0  0  0
  9 17  1  0  0  0  0
 11 14  1  0  0  0  0
 11 15  1  0  0  0  0
 11 16  1  0  0  0  0
 17 18  1  0  0  0  0
 17 27  1  0  0  0  0
 18 19  1  0  0  0  0
 18 21  1  0  0  0  0
 18 28  1  0  0  0  0
 19 20  2  0  0  0  0
 19 35  1  0  0  0  0
 21 22  1  0  0  0  0
 21 29  1  0  0  0  0
 21 30  1  0  0  0  0
 22 23  1  0  0  0  0
 22 24  2  0  0  0  0
 23 25  2  0  0  0  0
 23 31  1  0  0  0  0
 24 26  1  0  0  0  0
 24 32  1  0  0  0  0
 25 26  1  0  0  0  0
 25 33  1  0  0  0  0
 26 34  1  0  0  0  0
 35 36  1  0  0  0  0
 35 40  1  0  0  0  0
 36 37  1  0  0  0  0
 36 39  1  0  0  0  0
 36 41  1  0  0  0  0
 37 38  2  0  0  0  0
 37 45  1  0  0  0  0
 39 42  1  0  0  0  0
 39 43  1  0  0  0  0
 39 44  1  0  0  0  0
 45 46  1  0  0  0  0
 45 47  1  0  0  0  0
 46 48  1  0  0  0  0
 46 49  1  0  0  0  0
 46 50  1  0  0  0  0
M  CHG  1  23   1
M  END
$$$$

  -OEChem-05262216443D

 50 50  0     1  0  0  0  0  0999 V2000
   -2.7748    0.0203    2.1252 C   0  0  0  0  0  0  0  0  0  0  0  0
   -2.7055    0.2876    0.9302 O   0  0  0  0  0  0  0  0  0  0  0  0
   -3.4194   -1.2756    2.5783 C   0  0  0  0  0  0  0  0  0  0  0  0
   -3.7724   -1.8469    1.7159 H   0  0  0  0  0  0  0  0  0  0  0  0
   -2.6952   -1.8811    3.1295 H   0  0  0  0  0  0  0  0  0  0  0  0
   -4.2714   -1.0613    3.2289 H   0  0  0  0  0  0  0  0  0  0  0  0
   -2.2127    0.8671    3.0587 N   0  0  0  0  0  0  0  0  0  0  0  0
   -1.6306    2.1870    2.7647 C   0  0  2  0  0  0  0  0  0  0  0  0
   -0.2255    2.0980    2.1171 C   0  0  0  0  0  0  0  0  0  0  0  0
    0.7282    2.6987    2.5873 O   0  0  0  0  0  0  0  0  0  0  0  0
   -1.6281    2.9795    4.0793 C   0  0  0  0  0  0  0  0  0  0  0  0
   -2.2666    0.5796    4.0338 H   0  0  0  0  0  0  0  0  0  0  0  0
   -2.2782    2.7189    2.0597 H   0  0  0  0  0  0  0  0  0  0  0  0
   -0.9748    2.5018    4.8171 H   0  0  0  0  0  0  0  0  0  0  0  0
   -1.2658    3.9986    3.9085 H   0  0  0  0  0  0  0  0  0  0  0  0
   -2.6391    3.0423    4.4931 H   0  0  0  0  0  0  0  0  0  0  0  0
   -0.1278    1.5257    0.8586 N   0  0  0  0  0  0  0  0  0  0  0  0
    0.9967    0.7266    0.3173 C   0  0  2  0  0  0  0  0  0  0  0  0
    2.4218    1.0363    0.8514 C   0  0  0  0  0  0  0  0  0  0  0  0
    2.6673    0.7330    2.0113 O   0  0  0  0  0  0  0  0  0  0  0  0
    0.9083    0.8768   -1.2156 C   0  0  0  0  0  0  0  0  0  0  0  0
   -0.3778    0.2713   -1.7272 C   0  0  0  0  0  0  0  0  0  0  0  0
   -0.6728   -1.0868   -1.8638 N   0  3  0  0  0  0  0  0  0  0  0  0
   -1.4842    0.9760   -2.1311 C   0  0  0  0  0  0  0  0  0  0  0  0
   -1.9019   -1.2418   -2.2942 C   0  0  0  0  0  0  0  0  0  0  0  0
   -2.4393    0.0298   -2.4787 N   0  0  0  0  0  0  0  0  0  0  0  0
   -1.0455    1.1784    0.5691 H   0  0  0  0  0  0  0  0  0  0  0  0
    0.8235   -0.3209    0.5834 H   0  0  0  0  0  0  0  0  0  0  0  0
    1.7458    0.3695   -1.7058 H   0  0  0  0  0  0  0  0  0  0  0  0
    0.9608    1.9398   -1.4795 H   0  0  0  0  0  0  0  0  0  0  0  0
   -0.0174   -1.8309   -1.6110 H   0  0  0  0  0  0  0  0  0  0  0  0
   -1.5960    2.0607   -2.1398 H   0  0  0  0  0  0  0  0  0  0  0  0
   -2.4148   -2.1897   -2.4667 H   0  0  0  0  0  0  0  0  0  0  0  0
   -3.4005    0.2372   -2.7664 H   0  0  0  0  0  0  0  0  0  0  0  0
    3.5264    1.1613    0.0212 N   0  0  0  0  0  0  0  0  0  0  0  0
    4.8624    1.4649    0.5646 C   0  0  2  0  0  0  0  0  0  0  0  0
    4.9224    2.9163    1.0993 C   0  0  0  0  0  0  0  0  0  0  0  0
    5.4832    3.7979    0.4616 O   0  0  0  0  0  0  0  0  0  0  0  0
    5.8934    1.1929   -0.5386 C   0  0  0  0  0  0  0  0  0  0  0  0
    3.3410    1.5129   -0.9124 H   0  0  0  0  0  0  0  0  0  0  0  0
    5.0946    0.7978    1.4021 H   0  0  0  0  0  0  0  0  0  0  0  0
    5.7129    1.8344   -1.4072 H   0  0  0  0  0  0  0  0  0  0  0  0
    6.9040    1.3942   -0.1678 H   0  0  0  0  0  0  0  0  0  0  0  0
    5.8451    0.1474   -0.8577 H   0  0  0  0  0  0  0  0  0  0  0  0
    4.2149    3.2482    2.2384 N   0  0  0  0  0  0  0  0  0  0  0  0
    4.0147    4.6198    2.6869 C   0  0  0  0  0  0  0  0  0  0  0  0
    3.6007    2.5204    2.6146 H   0  0  0  0  0  0  0  0  0  0  0  0
    4.9771    5.1102    2.8677 H   0  0  0  0  0  0  0  0  0  0  0  0
    3.4625    5.1919    1.9341 H   0  0  0  0  0  0  0  0  0  0  0  0
    3.4419    4.6300    3.6195 H   0  0  0  0  0  0  0  0  0  0  0  0
  1  2  2  0  0  0  0
  1  3  1  0  0  0  0
  1  7  1  0  0  0  0
  3  4  1  0  0  0  0
  3  5  1  0  0  0  0
  3  6  1  0  0  0  0
  7  8  1  0  0  0  0
  7 12  1  0  0  0  0
  8  9  1  0  0  0  0
  8 11  1  0  0  0  0
  8 13  1  0  0  0  0
  9 10  2  0  0  0  0
  9 17  1  0  0  0  0
 11 14  1  0  0  0  0
 11 15  1  0  0  0  0
 11 16  1  0  0  0  0
 17 18  1  0  0  0  0
 17 27  1  0  0  0  0
 18 19  1  0  0  0  0
 18 21  1  0  0  0  0
 18 28  1  0  0  0  0
 19 20  2  0  0  0  0
 19 35  1  0  0  0  0
 21 22  1  0  0  0  0
 21 29  1  0  0  0  0
 21 30  1  0  0  0  0
 22 23  1  0  0  0  0
 22 24  2  0  0  0  0
 23 25  2  0  0  0  0
 23 31  1  0  0  0  0
 24 26  1  0  0  0  0
 24 32  1  0  0  0  0
 25 26  1  0  0  0  0
 25 33  1  0  0  0  0
 26 34  1  0  0  0  0
 35 36  1  0  0  0  0
 35 40  1  0  0  0  0
 36 37  1  0  0  0  0
 36 39  1  0  0  0  0
 36 41  1  0  0  0  0
 37 38  2  0  0  0  0
 37 45  1  0  0  0  0
 39 42  1  0  0  0  0
 39 43  1  0  0  0  0
 39 44  1  0  0  0  0
 45 46  1  0  0  0  0
 45 47  1  0  0  0  0
 46 48  1  0  0  0  0
 46 49  1  0  0  0  0
 46 50  1  0  0  0  0
M  CHG  1  23   1
M  END
$$$$

  -OEChem-05262216443D

 50 50  0     1  0  0  0  0  0999 V2000
   -2.8819    0.0561    2.1789 C   0  0  0  0  0  0  0  0  0  0  0  0
   -2.7772    0.3574    0.9948 O   0  0  0  0  0  0  0  0  0  0  0  0
   -3.6486   -1.1884    2.5827 C   0  0  0  0  0  0  0  0  0  0  0  0
   -4.1439   -1.6290    1.7133 H   0  0  0  0  0  0  0  0  0  0  0  0
   -2.9654   -1.9256    3.0124 H   0  0  0  0  0  0  0  0  0  0  0  0
   -4.4089   -0.9334    3.3257 H   0  0  0  0  0  0  0  0  0  0  0  0
   -2.2517    0.8155    3.1431 N   0  0  0  0  0  0  0  0  0  0  0  0
   -1.5487    2.0841    2.8938 C   0  0  2  0  0  0  0  0  0  0  0  0
   -0.1460    1.8821    2.2667 C   0  0  0  0  0  0  0  0  0  0  0  0
    0.8607    2.2788    2.8314 O   0  0  0  0  0  0  0  0  0  0  0  0
   -1.5016    2.8439    4.2260 C   0  0  0  0  0  0  0  0  0  0  0  0
   -2.3335    0.4996    4.1073 H   0  0  0  0  0  0  0  0  0  0  0  0
   -2.1316    2.6900    2.1918 H   0  0  0  0  0  0  0  0  0  0  0  0
   -0.9188    2.2883    4.9682 H   0  0  0  0  0  0  0  0  0  0  0  0
   -1.0354    3.8250    4.0871 H   0  0  0  0  0  0  0  0  0  0  0  0
   -2.5122    2.9976    4.6164 H   0  0  0  0  0  0  0  0  0  0  0  0
   -0.0871    1.3755    0.9768 N   0  0  0  0  0  0  0  0  0  0  0  0
    1.0419    0.6806    0.3151 C   0  0  2  0  0  0  0  0  0  0  0  0
    2.4766    1.0616    0.7669 C   0  0  0  0  0  0  0  0  0  0  0  0
    2.9021    0.5516    1.7944 O   0  0  0  0  0  0  0  0  0  0  0  0
    0.8480    0.8795   -1.2015 C   0  0  0  0  0  0  0  0  0  0  0  0
   -0.4236    0.2079   -1.6631 C   0  0  0  0  0  0  0  0  0  0  0  0
   -0.6320   -1.1620   -1.8374 N   0  3  0  0  0  0  0  0  0  0  0  0
   -1.5980    0.8465   -1.9742 C   0  0  0  0  0  0  0  0  0  0  0  0
   -1.8708   -1.3883   -2.2038 C   0  0  0  0  0  0  0  0  0  0  0  0
   -2.5051   -0.1522   -2.3026 N   0  0  0  0  0  0  0  0  0  0  0  0
   -1.0155    1.0827    0.6620 H   0  0  0  0  0  0  0  0  0  0  0  0
    0.9544   -0.3865    0.5446 H   0  0  0  0  0  0  0  0  0  0  0  0
    1.6912    0.4519   -1.7552 H   0  0  0  0  0  0  0  0  0  0  0  0
    0.8113    1.9521   -1.4244 H   0  0  0  0  0  0  0  0  0  0  0  0
    0.0895   -1.8659   -1.6591 H   0  0  0  0  0  0  0  0  0  0  0  0
   -1.7876    1.9193   -1.9307 H   0  0  0  0  0  0  0  0  0  0  0  0
   -2.3257   -2.3634   -2.3888 H   0  0  0  0  0  0  0  0  0  0  0  0
   -3.4955   -0.0036   -2.5184 H   0  0  0  0  0  0  0  0  0  0  0  0
    3.4220    1.5927   -0.0975 N   0  0  0  0  0  0  0  0  0  0  0  0
    4.7625    1.9817    0.3741 C   0  0  2  0  0  0  0  0  0  0  0  0
    4.6942    3.2671    1.2337 C   0  0  0  0  0  0  0  0  0  0  0  0
    5.0903    4.3394    0.7957 O   0  0  0  0  0  0  0  0  0  0  0  0
    5.6679    2.1313   -0.8557 C   0  0  0  0  0  0  0  0  0  0  0  0
    3.0563    2.1250   -0.8804 H   0  0  0  0  0  0  0  0  0  0  0  0
    5.1893    1.1926    1.0030 H   0  0  0  0  0  0  0  0  0  0  0  0
    5.2904    2.9118   -1.5242 H   0  0  0  0  0  0  0  0  0  0  0  0
    6.6818    2.4055   -0.5462 H   0  0  0  0  0  0  0  0  0  0  0  0
    5.7194    1.1889   -1.4091 H   0  0  0  0  0  0  0  0  0  0  0  0
    4.0623    3.2286    2.4613 N   0  0  0  0  0  0  0  0  0  0  0  0
    3.7622    4.4174    3.2473 C   0  0  0  0  0  0  0  0  0  0  0  0
    3.5783    2.3574    2.6948 H   0  0  0  0  0  0  0  0  0  0  0  0
    4.6801    4.9710    3.4720 H   0  0  0  0  0  0  0  0  0  0  0  0
    3.0773    5.0744    2.7015 H   0  0  0  0  0  0  0  0  0  0  0  0
    3.2898    4.1330    4.1927 H   0  0  0  0  0  0  0  0  0  0  0  0
  1  2  2  0  0  0  0
  1  3  1  0  0  0  0
  1  7  1  0  0  0  0
  3  4  1  0  0  0  0
  3  5  1  0  0  0  0
  3  6  1  0  0  0  0
  7  8  1  0  0  0  0
  7 12  1  0  0  0  0
  8  9  1  0  0  0  0
  8 11  1  0  0  0  0
  8 13  1  0  0  0  0
  9 10  2  0  0  0  0
  9 17  1  0  0  0  0
 11 14  1  0  0  0  0
 11 15  1  0  0  0  0
 11 16  1  0  0  0  0
 17 18  1  0  0  0  0
 17 27  1  0  0  0  0
 18 19  1  0  0  0  0
 18 21  1  0  0  0  0
 18 28  1  0  0  0  0
 19 20  2  0  0  0  0
 19 35  1  0  0  0  0
 21 22  1  0  0  0  0
 21 29  1  0  0  0  0
 21 30  1  0  0  0  0
 22 23  1  0  0  0  0
 22 24  2  0  0  0  0
 23 25  2  0  0  0  0
 23 31  1  0  0  0  0
 24 26  1  0  0  0  0
 24 32  1  0  0  0  0
 25 26  1  0  0  0  0
 25 33  1  0  0  0  0
 26 34  1  0  0  0  0
 35 36  1  0  0  0  0
 35 40  1  0  0  0  0
 36 37  1  0  0  0  0
 36 39  1  0  0  0  0
 36 41  1  0  0  0  0
 37 38  2  0  0  0  0
 37 45  1  0  0  0  0
 39 42  1  0  0  0  0
 39 43  1  0  0  0  0
 39 44  1  0  0  0  0
 45 46  1  0  0  0  0
 45 47  1  0  0  0  0
 46 48  1  0  0  0  0
 46 49  1  0  0  0  0
 46 50  1  0  0  0  0
M  CHG  1  23   1
M  END
$$$$

  -OEChem-05262216443D

 50 50  0     1  0  0  0  0  0999 V2000
   -2.9549    0.0595    2.2272 C   0  0  0  0  0  0  0  0  0  0  0  0
   -2.8267    0.3991    1.0558 O   0  0  0  0  0  0  0  0  0  0  0  0
   -3.8287   -1.1272    2.5848 C   0  0  0  0  0  0  0  0  0  0  0  0
   -4.2903   -1.5446    1.6863 H   0  0  0  0  0  0  0  0  0  0  0  0
   -3.2283   -1.9035    3.0661 H   0  0  0  0  0  0  0  0  0  0  0  0
   -4.6200   -0.8140    3.2711 H   0  0  0  0  0  0  0  0  0  0  0  0
   -2.2656    0.7259    3.2193 N   0  0  0  0  0  0  0  0  0  0  0  0
   -1.4743    1.9503    3.0193 C   0  0  2  0  0  0  0  0  0  0  0  0
   -0.0956    1.6803    2.3652 C   0  0  0  0  0  0  0  0  0  0  0  0
    0.9428    1.9135    2.9628 O   0  0  0  0  0  0  0  0  0  0  0  0
   -1.3596    2.6397    4.3856 C   0  0  0  0  0  0  0  0  0  0  0  0
   -2.3804    0.3847    4.1716 H   0  0  0  0  0  0  0  0  0  0  0  0
   -2.0190    2.6287    2.3540 H   0  0  0  0  0  0  0  0  0  0  0  0
   -0.8230    2.0032    5.0971 H   0  0  0  0  0  0  0  0  0  0  0  0
   -0.8136    3.5841    4.2900 H   0  0  0  0  0  0  0  0  0  0  0  0
   -2.3529    2.8577    4.7898 H   0  0  0  0  0  0  0  0  0  0  0  0
   -0.0801    1.2456    1.0476 N   0  0  0  0  0  0  0  0  0  0  0  0
    1.0508    0.6672    0.2874 C   0  0  2  0  0  0  0  0  0  0  0  0
    2.4766    1.1296    0.6805 C   0  0  0  0  0  0  0  0  0  0  0  0
    3.0834    0.4750    1.5168 O   0  0  0  0  0  0  0  0  0  0  0  0
    0.7781    0.9062   -1.2098 C   0  0  0  0  0  0  0  0  0  0  0  0
   -0.4605    0.1628   -1.6483 C   0  0  0  0  0  0  0  0  0  0  0  0
   -0.5718   -1.2118   -1.8680 N   0  3  0  0  0  0  0  0  0  0  0  0
   -1.6897    0.7204   -1.8955 C   0  0  0  0  0  0  0  0  0  0  0  0
   -1.8014   -1.5187   -2.2050 C   0  0  0  0  0  0  0  0  0  0  0  0
   -2.5298   -0.3319   -2.2346 N   0  0  0  0  0  0  0  0  0  0  0  0
   -1.0174    1.0044    0.7157 H   0  0  0  0  0  0  0  0  0  0  0  0
    1.0480   -0.4119    0.4735 H   0  0  0  0  0  0  0  0  0  0  0  0
    1.6308    0.5660   -1.8089 H   0  0  0  0  0  0  0  0  0  0  0  0
    0.6521    1.9793   -1.3910 H   0  0  0  0  0  0  0  0  0  0  0  0
    0.2075   -1.8639   -1.7421 H   0  0  0  0  0  0  0  0  0  0  0  0
   -1.9590    1.7727   -1.8030 H   0  0  0  0  0  0  0  0  0  0  0  0
   -2.1863   -2.5182   -2.4160 H   0  0  0  0  0  0  0  0  0  0  0  0
   -3.5342   -0.2500   -2.4185 H   0  0  0  0  0  0  0  0  0  0  0  0
    3.2060    2.0228   -0.0877 N   0  0  0  0  0  0  0  0  0  0  0  0
    4.5426    2.4862    0.3217 C   0  0  2  0  0  0  0  0  0  0  0  0
    4.4493    3.5160    1.4735 C   0  0  0  0  0  0  0  0  0  0  0  0
    4.7217    4.6952    1.2893 O   0  0  0  0  0  0  0  0  0  0  0  0
    5.2464    3.0407   -0.9237 C   0  0  0  0  0  0  0  0  0  0  0  0
    2.6626    2.6664   -0.6545 H   0  0  0  0  0  0  0  0  0  0  0  0
    5.1409    1.6448    0.6888 H   0  0  0  0  0  0  0  0  0  0  0  0
    4.6971    3.8946   -1.3331 H   0  0  0  0  0  0  0  0  0  0  0  0
    6.2578    3.3732   -0.6677 H   0  0  0  0  0  0  0  0  0  0  0  0
    5.3229    2.2689   -1.6952 H   0  0  0  0  0  0  0  0  0  0  0  0
    3.9575    3.1198    2.7017 N   0  0  0  0  0  0  0  0  0  0  0  0
    3.6802    4.0441    3.7929 C   0  0  0  0  0  0  0  0  0  0  0  0
    3.5766    2.1715    2.7564 H   0  0  0  0  0  0  0  0  0  0  0  0
    4.5917    4.5762    4.0855 H   0  0  0  0  0  0  0  0  0  0  0  0
    2.9241    4.7765    3.4925 H   0  0  0  0  0  0  0  0  0  0  0  0
    3.3056    3.4962    4.6632 H   0  0  0  0  0  0  0  0  0  0  0  0
  1  2  2  0  0  0  0
  1  3  1  0  0  0  0
  1  7  1  0  0  0  0
  3  4  1  0  0  0  0
  3  5  1  0  0  0  0
  3  6  1  0  0  0  0
  7  8  1  0  0  0  0
  7 12  1  0  0  0  0
  8  9  1  0  0  0  0
  8 11  1  0  0  0  0
  8 13  1  0  0  0  0
  9 10  2  0  0  0  0
  9 17  1  0  0  0  0
 11 14  1  0  0  0  0
 11 15  1  0  0  0  0
 11 16  1  0  0  0  0
 17 18  1  0  0  0  0
 17 27  1  0  0  0  0
 18 19  1  0  0  0  0
 18 21  1  0  0  0  0
 18 28  1  0  0  0  0
 19 20  2  0  0  0  0
 19 35  1  0  0  0  0
 21 22  1  0  0  0  0
 21 29  1  0  0  0  0
 21 30  1  0  0  0  0
 22 23  1  0  0  0  0
 22 24  2  0  0  0  0
 23 25  2  0  0  0  0
 23 31  1  0  0  0  0
 24 26  1  0  0  0  0
 24 32  1  0  0  0  0
 25 26  1  0  0  0  0
 25 33  1  0  0  0  0
 26 34  1  0  0  0  0
 35 36  1  0  0  0  0
 35 40  1  0  0  0  0
 36 37  1  0  0  0  0
 36 39  1  0  0  0  0
 36 41  1  0  0  0  0
 37 38  2  0  0  0  0
 37 45  1  0  0  0  0
 39 42  1  0  0  0  0
 39 43  1  0  0  0  0
 39 44  1  0  0  0  0
 45 46  1  0  0  0  0
 45 47  1  0  0  0  0
 46 48  1  0  0  0  0
 46 49  1  0  0  0  0
 46 50  1  0  0  0  0
M  CHG  1  23   1
M  END
$$$$

  -OEChem-05262216443D

 50 50  0     1  0  0  0  0  0999 V2000
   -3.0521    0.1471    2.1940 C   0  0  0  0  0  0  0  0  0  0  0  0
   -2.8761    0.5307    1.0429 O   0  0  0  0  0  0  0  0  0  0  0  0
   -4.0500   -0.9570    2.4849 C   0  0  0  0  0  0  0  0  0  0  0  0
   -4.5852   -1.2362    1.5735 H   0  0  0  0  0  0  0  0  0  0  0  0
   -3.5321   -1.8370    2.8746 H   0  0  0  0  0  0  0  0  0  0  0  0
   -4.7779   -0.6165    3.2261 H   0  0  0  0  0  0  0  0  0  0  0  0
   -2.3045    0.6826    3.2224 N   0  0  0  0  0  0  0  0  0  0  0  0
   -1.4049    1.8399    3.0943 C   0  0  2  0  0  0  0  0  0  0  0  0
   -0.0494    1.4883    2.4304 C   0  0  0  0  0  0  0  0  0  0  0  0
    1.0020    1.5962    3.0405 O   0  0  0  0  0  0  0  0  0  0  0  0
   -1.2405    2.4377    4.4982 C   0  0  0  0  0  0  0  0  0  0  0  0
   -2.4723    0.3132    4.1561 H   0  0  0  0  0  0  0  0  0  0  0  0
   -1.8813    2.6013    2.4674 H   0  0  0  0  0  0  0  0  0  0  0  0
   -0.7641    1.7178    5.1720 H   0  0  0  0  0  0  0  0  0  0  0  0
   -0.6160    3.3363    4.4578 H   0  0  0  0  0  0  0  0  0  0  0  0
   -2.2139    2.7160    4.9142 H   0  0  0  0  0  0  0  0  0  0  0  0
   -0.0569    1.0935    1.1008 N   0  0  0  0  0  0  0  0  0  0  0  0
    1.0810    0.6262    0.2794 C   0  0  2  0  0  0  0  0  0  0  0  0
    2.4755    1.1946    0.6380 C   0  0  0  0  0  0  0  0  0  0  0  0
    3.2621    0.4813    1.2453 O   0  0  0  0  0  0  0  0  0  0  0  0
    0.7540    0.8905   -1.2020 C   0  0  0  0  0  0  0  0  0  0  0  0
   -0.4392    0.0773   -1.6409 C   0  0  0  0  0  0  0  0  0  0  0  0
   -0.4574   -1.2939   -1.9053 N   0  3  0  0  0  0  0  0  0  0  0  0
   -1.7076    0.5549   -1.8548 C   0  0  0  0  0  0  0  0  0  0  0  0
   -1.6655   -1.6740   -2.2465 C   0  0  0  0  0  0  0  0  0  0  0  0
   -2.4757   -0.5409   -2.2250 N   0  0  0  0  0  0  0  0  0  0  0  0
   -0.9990    0.9198    0.7423 H   0  0  0  0  0  0  0  0  0  0  0  0
    1.1672   -0.4552    0.4305 H   0  0  0  0  0  0  0  0  0  0  0  0
    1.6163    0.6330   -1.8280 H   0  0  0  0  0  0  0  0  0  0  0  0
    0.5503    1.9571   -1.3474 H   0  0  0  0  0  0  0  0  0  0  0  0
    0.3687   -1.8926   -1.8142 H   0  0  0  0  0  0  0  0  0  0  0  0
   -2.0498    1.5821   -1.7231 H   0  0  0  0  0  0  0  0  0  0  0  0
   -1.9801   -2.6893   -2.4962 H   0  0  0  0  0  0  0  0  0  0  0  0
   -3.4828   -0.5198   -2.4113 H   0  0  0  0  0  0  0  0  0  0  0  0
    2.9523    2.3595    0.0606 N   0  0  0  0  0  0  0  0  0  0  0  0
    4.2485    2.9433    0.4393 C   0  0  2  0  0  0  0  0  0  0  0  0
    4.1576    3.6514    1.8111 C   0  0  0  0  0  0  0  0  0  0  0  0
    4.1309    4.8730    1.8894 O   0  0  0  0  0  0  0  0  0  0  0  0
    4.6836    3.8832   -0.6922 C   0  0  0  0  0  0  0  0  0  0  0  0
    2.2439    3.0111   -0.2635 H   0  0  0  0  0  0  0  0  0  0  0  0
    5.0086    2.1590    0.5282 H   0  0  0  0  0  0  0  0  0  0  0  0
    3.9572    4.6912   -0.8261 H   0  0  0  0  0  0  0  0  0  0  0  0
    5.6555    4.3302   -0.4588 H   0  0  0  0  0  0  0  0  0  0  0  0
    4.7741    3.3325   -1.6333 H   0  0  0  0  0  0  0  0  0  0  0  0
    3.9987    2.8918    2.9529 N   0  0  0  0  0  0  0  0  0  0  0  0
    3.6903    3.4670    4.2554 C   0  0  0  0  0  0  0  0  0  0  0  0
    3.8024    1.8995    2.8037 H   0  0  0  0  0  0  0  0  0  0  0  0
    4.4404    4.2149    4.5341 H   0  0  0  0  0  0  0  0  0  0  0  0
    2.7052    3.9444    4.2387 H   0  0  0  0  0  0  0  0  0  0  0  0
    3.6848    2.6843    5.0202 H   0  0  0  0  0  0  0  0  0  0  0  0
  1  2  2  0  0  0  0
  1  3  1  0  0  0  0
  1  7  1  0  0  0  0
  3  4  1  0  0  0  0
  3  5  1  0  0  0  0
  3  6  1  0  0  0  0
  7  8  1  0  0  0  0
  7 12  1  0  0  0  0
  8  9  1  0  0  0  0
  8 11  1  0  0  0  0
  8 13  1  0  0  0  0
  9 10  2  0  0  0  0
  9 17  1  0  0  0  0
 11 14  1  0  0  0  0
 11 15  1  0  0  0  0
 11 16  1  0  0  0  0
 17 18  1  0  0  0  0
 17 27  1  0  0  0  0
 18 19  1  0  0  0  0
 18 21  1  0  0  0  0
 18 28  1  0  0  0  0
 19 20  2  0  0  0  0
 19 35  1  0  0  0  0
 21 22  1  0  0  0  0
 21 29  1  0  0  0  0
 21 30  1  0  0  0  0
 22 23  1  0  0  0  0
 22 24  2  0  0  0  0
 23 25  2  0  0  0  0
 23 31  1  0  0  0  0
 24 26  1  0  0  0  0
 24 32  1  0  0  0  0
 25 26  1  0  0  0  0
 25 33  1  0  0  0  0
 26 34  1  0  0  0  0
 35 36  1  0  0  0  0
 35 40  1  0  0  0  0
 36 37  1  0  0  0  0
 36 39  1  0  0  0  0
 36 41  1  0  0  0  0
 37 38  2  0  0  0  0
 37 45  1  0  0  0  0
 39 42  1  0  0  0  0
 39 43  1  0  0  0  0
 39 44  1  0  0  0  0
 45 46  1  0  0  0  0
 45 47  1  0  0  0  0
 46 48  1  0  0  0  0
 46 49  1  0  0  0  0
 46 50  1  0  0  0  0
M  CHG  1  23   1
M  END
$$$$

  -OEChem-05262216443D

 50 50  0     1  0  0  0  0  0999 V2000
   -2.9519    0.5945    2.2323 C   0  0  0  0  0  0  0  0  0  0  0  0
   -2.6735    1.0985    1.1496 O   0  0  0  0  0  0  0  0  0  0  0  0
   -4.3247   -0.0093    2.4573 C   0  0  0  0  0  0  0  0  0  0  0  0
   -4.9544    0.1381    1.5759 H   0  0  0  0  0  0  0  0  0  0  0  0
   -4.2357   -1.0808    2.6530 H   0  0  0  0  0  0  0  0  0  0  0  0
   -4.8053    0.4694    3.3143 H   0  0  0  0  0  0  0  0  0  0  0  0
   -2.0061    0.5257    3.2348 N   0  0  0  0  0  0  0  0  0  0  0  0
   -0.6956    1.1953    3.2044 C   0  0  2  0  0  0  0  0  0  0  0  0
    0.3421    0.4827    2.3020 C   0  0  0  0  0  0  0  0  0  0  0  0
    1.3828    0.0259    2.7512 O   0  0  0  0  0  0  0  0  0  0  0  0
   -0.2190    1.3270    4.6563 C   0  0  0  0  0  0  0  0  0  0  0  0
   -2.2910    0.0863    4.1069 H   0  0  0  0  0  0  0  0  0  0  0  0
   -0.8152    2.2101    2.8080 H   0  0  0  0  0  0  0  0  0  0  0  0
   -0.0661    0.3403    5.1054 H   0  0  0  0  0  0  0  0  0  0  0  0
    0.7292    1.8727    4.6922 H   0  0  0  0  0  0  0  0  0  0  0  0
   -0.9528    1.8764    5.2537 H   0  0  0  0  0  0  0  0  0  0  0  0
    0.0997    0.4355    0.9383 N   0  0  0  0  0  0  0  0  0  0  0  0
    1.1099    0.2718   -0.1261 C   0  0  2  0  0  0  0  0  0  0  0  0
    2.4952    0.8539    0.2244 C   0  0  0  0  0  0  0  0  0  0  0  0
    3.4699    0.1174    0.2527 O   0  0  0  0  0  0  0  0  0  0  0  0
    0.5816    0.8805   -1.4350 C   0  0  0  0  0  0  0  0  0  0  0  0
   -0.6370    0.1333   -1.9158 C   0  0  0  0  0  0  0  0  0  0  0  0
   -0.6411   -1.1257   -2.5176 N   0  3  0  0  0  0  0  0  0  0  0  0
   -1.9376    0.5654   -1.8514 C   0  0  0  0  0  0  0  0  0  0  0  0
   -1.8677   -1.4845   -2.8103 C   0  0  0  0  0  0  0  0  0  0  0  0
   -2.7074   -0.4469   -2.4096 N   0  0  0  0  0  0  0  0  0  0  0  0
   -0.8188    0.8004    0.6779 H   0  0  0  0  0  0  0  0  0  0  0  0
    1.2657   -0.8024   -0.2713 H   0  0  0  0  0  0  0  0  0  0  0  0
    1.3619    0.8432   -2.2042 H   0  0  0  0  0  0  0  0  0  0  0  0
    0.3302    1.9346   -1.2753 H   0  0  0  0  0  0  0  0  0  0  0  0
    0.2104   -1.6746   -2.6676 H   0  0  0  0  0  0  0  0  0  0  0  0
   -2.2925    1.5031   -1.4190 H   0  0  0  0  0  0  0  0  0  0  0  0
   -2.1742   -2.4228   -3.2766 H   0  0  0  0  0  0  0  0  0  0  0  0
   -3.7282   -0.4350   -2.4932 H   0  0  0  0  0  0  0  0  0  0  0  0
    2.6809    2.2224    0.2087 N   0  0  0  0  0  0  0  0  0  0  0  0
    3.6922    2.8156    1.0922 C   0  0  2  0  0  0  0  0  0  0  0  0
    3.0069    3.3770    2.3588 C   0  0  0  0  0  0  0  0  0  0  0  0
    1.7886    3.5502    2.3662 O   0  0  0  0  0  0  0  0  0  0  0  0
    4.4155    3.9187    0.3176 C   0  0  0  0  0  0  0  0  0  0  0  0
    1.8011    2.7343    0.2337 H   0  0  0  0  0  0  0  0  0  0  0  0
    4.4288    2.0691    1.4102 H   0  0  0  0  0  0  0  0  0  0  0  0
    3.7105    4.6941    0.0013 H   0  0  0  0  0  0  0  0  0  0  0  0
    5.1862    4.3825    0.9408 H   0  0  0  0  0  0  0  0  0  0  0  0
    4.8974    3.5002   -0.5717 H   0  0  0  0  0  0  0  0  0  0  0  0
    3.7484    3.7016    3.4784 N   0  0  0  0  0  0  0  0  0  0  0  0
    3.1604    4.2103    4.7122 C   0  0  0  0  0  0  0  0  0  0  0  0
    4.7403    3.4790    3.4654 H   0  0  0  0  0  0  0  0  0  0  0  0
    2.5211    5.0757    4.5069 H   0  0  0  0  0  0  0  0  0  0  0  0
    2.5592    3.4356    5.1986 H   0  0  0  0  0  0  0  0  0  0  0  0
    3.9476    4.5244    5.4048 H   0  0  0  0  0  0  0  0  0  0  0  0
  1  2  2  0  0  0  0
  1  3  1  0  0  0  0
  1  7  1  0  0  0  0
  3  4  1  0  0  0  0
  3  5  1  0  0  0  0
  3  6  1  0  0  0  0
  7  8  1  0  0  0  0
  7 12  1  0  0  0  0
  8  9  1  0  0  0  0
  8 11  1  0  0  0  0
  8 13  1  0  0  0  0
  9 10  2  0  0  0  0
  9 17  1  0  0  0  0
 11 14  1  0  0  0  0
 11 15  1  0  0  0  0
 11 16  1  0  0  0  0
 17 18  1  0  0  0  0
 17 27  1  0  0  0  0
 18 19  1  0  0  0  0
 18 21  1  0  0  0  0
 18 28  1  0  0  0  0
 19 20  2  0  0  0  0
 19 35  1  0  0  0  0
 21 22  1  0  0  0  0
 21 29  1  0  0  0  0
 21 30  1  0  0  0  0
 22 23  1  0  0  0  0
 22 24  2  0  0  0  0
 23 25  2  0  0  0  0
 23 31  1  0  0  0  0
 24 26  1  0  0  0  0
 24 32  1  0  0  0  0
 25 26  1  0  0  0  0
 25 33  1  0  0  0  0
 26 34  1  0  0  0  0
 35 36  1  0  0  0  0
 35 40  1  0  0  0  0
 36 37  1  0  0  0  0
 36 39  1  0  0  0  0
 36 41  1  0  0  0  0
 37 38  2  0  0  0  0
 37 45  1  0  0  0  0
 39 42  1  0  0  0  0
 39 43  1  0  0  0  0
 39 44  1  0  0  0  0
 45 46  1  0  0  0  0
 45 47  1  0  0  0  0
 46 48  1  0  0  0  0
 46 49  1  0  0  0  0
 46 50  1  0  0  0  0
M  CHG  1  23   1
M  END
$$$$

  -OEChem-05262216443D

 50 50  0     1  0  0  0  0  0999 V2000
   -3.2140    0.1558    2.0539 C   0  0  0  0  0  0  0  0  0  0  0  0
   -2.9762    0.5325    0.9116 O   0  0  0  0  0  0  0  0  0  0  0  0
   -4.2220   -0.9509    2.2954 C   0  0  0  0  0  0  0  0  0  0  0  0
   -4.6850   -1.2565    1.3533 H   0  0  0  0  0  0  0  0  0  0  0  0
   -3.7270   -1.8167    2.7422 H   0  0  0  0  0  0  0  0  0  0  0  0
   -5.0057   -0.6013    2.9725 H   0  0  0  0  0  0  0  0  0  0  0  0
   -2.5189    0.6939    3.1177 N   0  0  0  0  0  0  0  0  0  0  0  0
   -1.5968    1.8375    3.0289 C   0  0  2  0  0  0  0  0  0  0  0  0
   -0.2201    1.4634    2.4235 C   0  0  0  0  0  0  0  0  0  0  0  0
    0.8090    1.5307    3.0762 O   0  0  0  0  0  0  0  0  0  0  0  0
   -1.4793    2.4373    4.4365 C   0  0  0  0  0  0  0  0  0  0  0  0
   -2.7360    0.3294    4.0433 H   0  0  0  0  0  0  0  0  0  0  0  0
   -2.0353    2.6045    2.3814 H   0  0  0  0  0  0  0  0  0  0  0  0
   -1.0378    1.7148    5.1311 H   0  0  0  0  0  0  0  0  0  0  0  0
   -0.8421    3.3278    4.4175 H   0  0  0  0  0  0  0  0  0  0  0  0
   -2.4644    2.7295    4.8137 H   0  0  0  0  0  0  0  0  0  0  0  0
   -0.1702    1.0626    1.0979 N   0  0  0  0  0  0  0  0  0  0  0  0
    1.0144    0.6326    0.3249 C   0  0  2  0  0  0  0  0  0  0  0  0
    2.3756    1.2461    0.7202 C   0  0  0  0  0  0  0  0  0  0  0  0
    3.3323    0.5006    0.8818 O   0  0  0  0  0  0  0  0  0  0  0  0
    0.7595    0.9077   -1.1665 C   0  0  0  0  0  0  0  0  0  0  0  0
   -0.3907    0.0743   -1.6765 C   0  0  0  0  0  0  0  0  0  0  0  0
   -0.3571   -1.2935   -1.9551 N   0  3  0  0  0  0  0  0  0  0  0  0
   -1.6597    0.5195   -1.9483 C   0  0  0  0  0  0  0  0  0  0  0  0
   -1.5346   -1.7025   -2.3628 C   0  0  0  0  0  0  0  0  0  0  0  0
   -2.3767   -0.5925   -2.3702 N   0  0  0  0  0  0  0  0  0  0  0  0
   -1.0931    0.8984    0.6878 H   0  0  0  0  0  0  0  0  0  0  0  0
    1.1258   -0.4464    0.4758 H   0  0  0  0  0  0  0  0  0  0  0  0
    1.6602    0.6790   -1.7483 H   0  0  0  0  0  0  0  0  0  0  0  0
    0.5434    1.9724   -1.3080 H   0  0  0  0  0  0  0  0  0  0  0  0
    0.4820   -1.8677   -1.8327 H   0  0  0  0  0  0  0  0  0  0  0  0
   -2.0367    1.5349   -1.8219 H   0  0  0  0  0  0  0  0  0  0  0  0
   -1.8064   -2.7225   -2.6417 H   0  0  0  0  0  0  0  0  0  0  0  0
   -3.3722   -0.5964   -2.6118 H   0  0  0  0  0  0  0  0  0  0  0  0
    2.5773    2.6134    0.6671 N   0  0  0  0  0  0  0  0  0  0  0  0
    3.8428    3.2397    1.0802 C   0  0  2  0  0  0  0  0  0  0  0  0
    3.9564    3.3129    2.6205 C   0  0  0  0  0  0  0  0  0  0  0  0
    3.8490    4.3780    3.2152 O   0  0  0  0  0  0  0  0  0  0  0  0
    3.9247    4.6168    0.4093 C   0  0  0  0  0  0  0  0  0  0  0  0
    1.7371    3.1754    0.7732 H   0  0  0  0  0  0  0  0  0  0  0  0
    4.6919    2.6477    0.7216 H   0  0  0  0  0  0  0  0  0  0  0  0
    3.0939    5.2542    0.7285 H   0  0  0  0  0  0  0  0  0  0  0  0
    4.8620    5.1134    0.6806 H   0  0  0  0  0  0  0  0  0  0  0  0
    3.8908    4.5143   -0.6793 H   0  0  0  0  0  0  0  0  0  0  0  0
    4.1144    2.1425    3.3353 N   0  0  0  0  0  0  0  0  0  0  0  0
    3.9975    2.0794    4.7862 C   0  0  0  0  0  0  0  0  0  0  0  0
    4.0099    1.2799    2.7992 H   0  0  0  0  0  0  0  0  0  0  0  0
    4.7117    2.7610    5.2603 H   0  0  0  0  0  0  0  0  0  0  0  0
    2.9850    2.3551    5.0989 H   0  0  0  0  0  0  0  0  0  0  0  0
    4.2064    1.0648    5.1384 H   0  0  0  0  0  0  0  0  0  0  0  0
  1  2  2  0  0  0  0
  1  3  1  0  0  0  0
  1  7  1  0  0  0  0
  3  4  1  0  0  0  0
  3  5  1  0  0  0  0
  3  6  1  0  0  0  0
  7  8  1  0  0  0  0
  7 12  1  0  0  0  0
  8  9  1  0  0  0  0
  8 11  1  0  0  0  0
  8 13  1  0  0  0  0
  9 10  2  0  0  0  0
  9 17  1  0  0  0  0
 11 14  1  0  0  0  0
 11 15  1  0  0  0  0
 11 16  1  0  0  0  0
 17 18  1  0  0  0  0
 17 27  1  0  0  0  0
 18 19  1  0  0  0  0
 18 21  1  0  0  0  0
 18 28  1  0  0  0  0
 19 20  2  0  0  0  0
 19 35  1  0  0  0  0
 21 22  1  0  0  0  0
 21 29  1  0  0  0  0
 21 30  1  0  0  0  0
 22 23  1  0  0  0  0
 22 24  2  0  0  0  0
 23 25  2  0  0  0  0
 23 31  1  0  0  0  0
 24 26  1  0  0  0  0
 24 32  1  0  0  0  0
 25 26  1  0  0  0  0
 25 33  1  0  0  0  0
 26 34  1  0  0  0  0
 35 36  1  0  0  0  0
 35 40  1  0  0  0  0
 36 37  1  0  0  0  0
 36 39  1  0  0  0  0
 36 41  1  0  0  0  0
 37 38  2  0  0  0  0
 37 45  1  0  0  0  0
 39 42  1  0  0  0  0
 39 43  1  0  0  0  0
 39 44  1  0  0  0  0
 45 46  1  0  0  0  0
 45 47  1  0  0  0  0
 46 48  1  0  0  0  0
 46 49  1  0  0  0  0
 46 50  1  0  0  0  0
M  CHG  1  23   1
M  END
$$$$

  -OEChem-05262216443D

 50 50  0     1  0  0  0  0  0999 V2000
   -3.3395    0.0930    1.9340 C   0  0  0  0  0  0  0  0  0  0  0  0
   -3.0538    0.4269    0.7893 O   0  0  0  0  0  0  0  0  0  0  0  0
   -4.3077   -1.0483    2.1765 C   0  0  0  0  0  0  0  0  0  0  0  0
   -4.6792   -1.4409    1.2262 H   0  0  0  0  0  0  0  0  0  0  0  0
   -3.8068   -1.8538    2.7195 H   0  0  0  0  0  0  0  0  0  0  0  0
   -5.1581   -0.6977    2.7672 H   0  0  0  0  0  0  0  0  0  0  0  0
   -2.7354    0.7161    3.0066 N   0  0  0  0  0  0  0  0  0  0  0  0
   -1.8669    1.8999    2.9124 C   0  0  2  0  0  0  0  0  0  0  0  0
   -0.4413    1.5677    2.4040 C   0  0  0  0  0  0  0  0  0  0  0  0
    0.5441    1.7194    3.1072 O   0  0  0  0  0  0  0  0  0  0  0  0
   -1.8596    2.5671    4.2946 C   0  0  0  0  0  0  0  0  0  0  0  0
   -2.9900    0.3857    3.9353 H   0  0  0  0  0  0  0  0  0  0  0  0
   -2.3044    2.6122    2.2043 H   0  0  0  0  0  0  0  0  0  0  0  0
   -1.4229    1.8995    5.0451 H   0  0  0  0  0  0  0  0  0  0  0  0
   -1.2680    3.4884    4.2697 H   0  0  0  0  0  0  0  0  0  0  0  0
   -2.8780    2.8230    4.6036 H   0  0  0  0  0  0  0  0  0  0  0  0
   -0.2931    1.1128    1.1044 N   0  0  0  0  0  0  0  0  0  0  0  0
    0.9408    0.6456    0.4346 C   0  0  2  0  0  0  0  0  0  0  0  0
    2.2948    1.2459    0.8755 C   0  0  0  0  0  0  0  0  0  0  0  0
    3.2859    0.5294    0.8184 O   0  0  0  0  0  0  0  0  0  0  0  0
    0.7905    0.8878   -1.0766 C   0  0  0  0  0  0  0  0  0  0  0  0
   -0.3336    0.0587   -1.6461 C   0  0  0  0  0  0  0  0  0  0  0  0
   -0.3016   -1.3149   -1.8917 N   0  3  0  0  0  0  0  0  0  0  0  0
   -1.5722    0.5170   -2.0177 C   0  0  0  0  0  0  0  0  0  0  0  0
   -1.4537   -1.7157   -2.3732 C   0  0  0  0  0  0  0  0  0  0  0  0
   -2.2757   -0.5942   -2.4638 N   0  0  0  0  0  0  0  0  0  0  0  0
   -1.1847    0.8897    0.6540 H   0  0  0  0  0  0  0  0  0  0  0  0
    1.0247   -0.4295    0.6235 H   0  0  0  0  0  0  0  0  0  0  0  0
    1.7239    0.6317   -1.5923 H   0  0  0  0  0  0  0  0  0  0  0  0
    0.6044    1.9527   -1.2552 H   0  0  0  0  0  0  0  0  0  0  0  0
    0.5200   -1.8966   -1.7029 H   0  0  0  0  0  0  0  0  0  0  0  0
   -1.9371    1.5419   -1.9444 H   0  0  0  0  0  0  0  0  0  0  0  0
   -1.7208   -2.7371   -2.6503 H   0  0  0  0  0  0  0  0  0  0  0  0
   -3.2513   -0.5889   -2.7764 H   0  0  0  0  0  0  0  0  0  0  0  0
    2.4480    2.6057    1.0720 N   0  0  0  0  0  0  0  0  0  0  0  0
    3.7312    3.2123    1.4590 C   0  0  2  0  0  0  0  0  0  0  0  0
    4.0476    2.9814    2.9557 C   0  0  0  0  0  0  0  0  0  0  0  0
    4.0642    3.9071    3.7566 O   0  0  0  0  0  0  0  0  0  0  0  0
    3.6692    4.6992    1.0876 C   0  0  0  0  0  0  0  0  0  0  0  0
    1.6087    3.0697    1.4138 H   0  0  0  0  0  0  0  0  0  0  0  0
    4.5477    2.7613    0.8845 H   0  0  0  0  0  0  0  0  0  0  0  0
    2.8666    5.2018    1.6370 H   0  0  0  0  0  0  0  0  0  0  0  0
    4.6156    5.1905    1.3357 H   0  0  0  0  0  0  0  0  0  0  0  0
    3.4894    4.8189    0.0153 H   0  0  0  0  0  0  0  0  0  0  0  0
    4.2970    1.6973    3.3973 N   0  0  0  0  0  0  0  0  0  0  0  0
    4.4677    1.3503    4.8021 C   0  0  0  0  0  0  0  0  0  0  0  0
    4.1664    0.9524    2.7117 H   0  0  0  0  0  0  0  0  0  0  0  0
    5.2925    1.9214    5.2413 H   0  0  0  0  0  0  0  0  0  0  0  0
    3.5522    1.5661    5.3629 H   0  0  0  0  0  0  0  0  0  0  0  0
    4.6952    0.2848    4.9032 H   0  0  0  0  0  0  0  0  0  0  0  0
  1  2  2  0  0  0  0
  1  3  1  0  0  0  0
  1  7  1  0  0  0  0
  3  4  1  0  0  0  0
  3  5  1  0  0  0  0
  3  6  1  0  0  0  0
  7  8  1  0  0  0  0
  7 12  1  0  0  0  0
  8  9  1  0  0  0  0
  8 11  1  0  0  0  0
  8 13  1  0  0  0  0
  9 10  2  0  0  0  0
  9 17  1  0  0  0  0
 11 14  1  0  0  0  0
 11 15  1  0  0  0  0
 11 16  1  0  0  0  0
 17 18  1  0  0  0  0
 17 27  1  0  0  0  0
 18 19  1  0  0  0  0
 18 21  1  0  0  0  0
 18 28  1  0  0  0  0
 19 20  2  0  0  0  0
 19 35  1  0  0  0  0
 21 22  1  0  0  0  0
 21 29  1  0  0  0  0
 21 30  1  0  0  0  0
 22 23  1  0  0  0  0
 22 24  2  0  0  0  0
 23 25  2  0  0  0  0
 23 31  1  0  0  0  0
 24 26  1  0  0  0  0
 24 32  1  0  0  0  0
 25 26  1  0  0  0  0
 25 33  1  0  0  0  0
 26 34  1  0  0  0  0
 35 36  1  0  0  0  0
 35 40  1  0  0  0  0
 36 37  1  0  0  0  0
 36 39  1  0  0  0  0
 36 41  1  0  0  0  0
 37 38  2  0  0  0  0
 37 45  1  0  0  0  0
 39 42  1  0  0  0  0
 39 43  1  0  0  0  0
 39 44  1  0  0  0  0
 45 46  1  0  0  0  0
 45 47  1  0  0  0  0
 46 48  1  0  0  0  0
 46 49  1  0  0  0  0
 46 50  1  0  0  0  0
M  CHG  1  23   1
M  END
$$$$

  -OEChem-05262216443D

 50 50  0     1  0  0  0  0  0999 V2000
   -3.4805    0.1207    1.8978 C   0  0  0  0  0  0  0  0  0  0  0  0
   -3.1526    0.4486    0.7629 O   0  0  0  0  0  0  0  0  0  0  0  0
   -4.4822   -0.9980    2.1084 C   0  0  0  0  0  0  0  0  0  0  0  0
   -4.8528   -1.3624    1.1466 H   0  0  0  0  0  0  0  0  0  0  0  0
   -4.0111   -1.8274    2.6421 H   0  0  0  0  0  0  0  0  0  0  0  0
   -5.3300   -0.6337    2.6947 H   0  0  0  0  0  0  0  0  0  0  0  0
   -2.8991    0.7363    2.9870 N   0  0  0  0  0  0  0  0  0  0  0  0
   -2.0064    1.9033    2.9139 C   0  0  2  0  0  0  0  0  0  0  0  0
   -0.5705    1.5413    2.4580 C   0  0  0  0  0  0  0  0  0  0  0  0
    0.3886    1.6718    3.2004 O   0  0  0  0  0  0  0  0  0  0  0  0
   -2.0360    2.5820    4.2900 C   0  0  0  0  0  0  0  0  0  0  0  0
   -3.1865    0.4136    3.9088 H   0  0  0  0  0  0  0  0  0  0  0  0
   -2.4052    2.6184    2.1863 H   0  0  0  0  0  0  0  0  0  0  0  0
   -1.6468    1.9108    5.0630 H   0  0  0  0  0  0  0  0  0  0  0  0
   -1.4207    3.4879    4.2809 H   0  0  0  0  0  0  0  0  0  0  0  0
   -3.0590    2.8659    4.5556 H   0  0  0  0  0  0  0  0  0  0  0  0
   -0.3798    1.0837    1.1653 N   0  0  0  0  0  0  0  0  0  0  0  0
    0.8718    0.6321    0.5128 C   0  0  2  0  0  0  0  0  0  0  0  0
    2.2359    1.2285    0.9415 C   0  0  0  0  0  0  0  0  0  0  0  0
    3.2438    0.5998    0.6413 O   0  0  0  0  0  0  0  0  0  0  0  0
    0.7220    0.8831   -0.9996 C   0  0  0  0  0  0  0  0  0  0  0  0
   -0.3868    0.0458   -1.5852 C   0  0  0  0  0  0  0  0  0  0  0  0
   -0.3304   -1.3245   -1.8435 N   0  3  0  0  0  0  0  0  0  0  0  0
   -1.6280    0.4885   -1.9656 C   0  0  0  0  0  0  0  0  0  0  0  0
   -1.4705   -1.7386   -2.3418 C   0  0  0  0  0  0  0  0  0  0  0  0
   -2.3093   -0.6293   -2.4290 N   0  0  0  0  0  0  0  0  0  0  0  0
   -1.2581    0.8860    0.6785 H   0  0  0  0  0  0  0  0  0  0  0  0
    0.9605   -0.4433    0.6982 H   0  0  0  0  0  0  0  0  0  0  0  0
    1.6584    0.6453   -1.5183 H   0  0  0  0  0  0  0  0  0  0  0  0
    0.5228    1.9473   -1.1689 H   0  0  0  0  0  0  0  0  0  0  0  0
    0.5010   -1.8931   -1.6576 H   0  0  0  0  0  0  0  0  0  0  0  0
   -2.0102    1.5067   -1.8861 H   0  0  0  0  0  0  0  0  0  0  0  0
   -1.7171   -2.7610   -2.6343 H   0  0  0  0  0  0  0  0  0  0  0  0
   -3.2820   -0.6365   -2.7501 H   0  0  0  0  0  0  0  0  0  0  0  0
    2.3664    2.5161    1.4252 N   0  0  0  0  0  0  0  0  0  0  0  0
    3.6638    3.1253    1.7592 C   0  0  2  0  0  0  0  0  0  0  0  0
    4.2264    2.6059    3.1041 C   0  0  0  0  0  0  0  0  0  0  0  0
    4.3879    3.3490    4.0630 O   0  0  0  0  0  0  0  0  0  0  0  0
    3.4711    4.6473    1.7443 C   0  0  0  0  0  0  0  0  0  0  0  0
    1.5665    2.8206    1.9820 H   0  0  0  0  0  0  0  0  0  0  0  0
    4.4003    2.8776    0.9875 H   0  0  0  0  0  0  0  0  0  0  0  0
    2.7476    4.9523    2.5071 H   0  0  0  0  0  0  0  0  0  0  0  0
    4.4210    5.1512    1.9503 H   0  0  0  0  0  0  0  0  0  0  0  0
    3.1103    4.9779    0.7658 H   0  0  0  0  0  0  0  0  0  0  0  0
    4.5554    1.2704    3.2248 N   0  0  0  0  0  0  0  0  0  0  0  0
    5.0356    0.6635    4.4596 C   0  0  0  0  0  0  0  0  0  0  0  0
    4.3581    0.6795    2.4161 H   0  0  0  0  0  0  0  0  0  0  0  0
    5.9597    1.1485    4.7913 H   0  0  0  0  0  0  0  0  0  0  0  0
    4.2841    0.7601    5.2504 H   0  0  0  0  0  0  0  0  0  0  0  0
    5.2412   -0.3999    4.3038 H   0  0  0  0  0  0  0  0  0  0  0  0
  1  2  2  0  0  0  0
  1  3  1  0  0  0  0
  1  7  1  0  0  0  0
  3  4  1  0  0  0  0
  3  5  1  0  0  0  0
  3  6  1  0  0  0  0
  7  8  1  0  0  0  0
  7 12  1  0  0  0  0
  8  9  1  0  0  0  0
  8 11  1  0  0  0  0
  8 13  1  0  0  0  0
  9 10  2  0  0  0  0
  9 17  1  0  0  0  0
 11 14  1  0  0  0  0
 11 15  1  0  0  0  0
 11 16  1  0  0  0  0
 17 18  1  0  0  0  0
 17 27  1  0  0  0  0
 18 19  1  0  0  0  0
 18 21  1  0  0  0  0
 18 28  1  0  0  0  0
 19 20  2  0  0  0  0
 19 35  1  0  0  0  0
 21 22  1  0  0  0  0
 21 29  1  0  0  0  0
 21 30  1  0  0  0  0
 22 23  1  0  0  0  0
 22 24  2  0  0  0  0
 23 25  2  0  0  0  0
 23 31  1  0  0  0  0
 24 26  1  0  0  0  0
 24 32  1  0  0  0  0
 25 26  1  0  0  0  0
 25 33  1  0  0  0  0
 26 34  1  0  0  0  0
 35 36  1  0  0  0  0
 35 40  1  0  0  0  0
 36 37  1  0  0  0  0
 36 39  1  0  0  0  0
 36 41  1  0  0  0  0
 37 38  2  0  0  0  0
 37 45  1  0  0  0  0
 39 42  1  0  0  0  0
 39 43  1  0  0  0  0
 39 44  1  0  0  0  0
 45 46  1  0  0  0  0
 45 47  1  0  0  0  0
 46 48  1  0  0  0  0
 46 49  1  0  0  0  0
 46 50  1  0  0  0  0
M  CHG  1  23   1
M  END
$$$$

  -OEChem-05262216443D

 50 50  0     1  0  0  0  0  0999 V2000
   -3.5973    0.1998    1.8682 C   0  0  0  0  0  0  0  0  0  0  0  0
   -3.2300    0.5167    0.7425 O   0  0  0  0  0  0  0  0  0  0  0  0
   -4.6423   -0.8831    2.0544 C   0  0  0  0  0  0  0  0  0  0  0  0
   -4.9984   -1.2391    1.0840 H   0  0  0  0  0  0  0  0  0  0  0  0
   -4.2149   -1.7253    2.6045 H   0  0  0  0  0  0  0  0  0  0  0  0
   -5.4933   -0.4874    2.6152 H   0  0  0  0  0  0  0  0  0  0  0  0
   -3.0201    0.7951    2.9703 N   0  0  0  0  0  0  0  0  0  0  0  0
   -2.0782    1.9234    2.9149 C   0  0  2  0  0  0  0  0  0  0  0  0
   -0.6447    1.4968    2.5087 C   0  0  0  0  0  0  0  0  0  0  0  0
    0.2824    1.5480    3.3000 O   0  0  0  0  0  0  0  0  0  0  0  0
   -2.1241    2.6156    4.2839 C   0  0  0  0  0  0  0  0  0  0  0  0
   -3.3367    0.4817    3.8859 H   0  0  0  0  0  0  0  0  0  0  0  0
   -2.4237    2.6473    2.1686 H   0  0  0  0  0  0  0  0  0  0  0  0
   -1.7928    1.9343    5.0749 H   0  0  0  0  0  0  0  0  0  0  0  0
   -1.4684    3.4926    4.2896 H   0  0  0  0  0  0  0  0  0  0  0  0
   -3.1417    2.9475    4.5123 H   0  0  0  0  0  0  0  0  0  0  0  0
   -0.4264    1.0406    1.2193 N   0  0  0  0  0  0  0  0  0  0  0  0
    0.8347    0.6106    0.5644 C   0  0  2  0  0  0  0  0  0  0  0  0
    2.2079    1.2149    0.9698 C   0  0  0  0  0  0  0  0  0  0  0  0
    3.2086    0.6975    0.4860 O   0  0  0  0  0  0  0  0  0  0  0  0
    0.6574    0.8605   -0.9484 C   0  0  0  0  0  0  0  0  0  0  0  0
   -0.4402    0.0039   -1.5277 C   0  0  0  0  0  0  0  0  0  0  0  0
   -0.3588   -1.3639   -1.7936 N   0  3  0  0  0  0  0  0  0  0  0  0
   -1.6877    0.4260   -1.9102 C   0  0  0  0  0  0  0  0  0  0  0  0
   -1.4901   -1.7957   -2.2970 C   0  0  0  0  0  0  0  0  0  0  0  0
   -2.3487   -0.7015   -2.3791 N   0  0  0  0  0  0  0  0  0  0  0  0
   -1.2943    0.8968    0.6970 H   0  0  0  0  0  0  0  0  0  0  0  0
    0.9384   -0.4635    0.7479 H   0  0  0  0  0  0  0  0  0  0  0  0
    1.5878    0.6425   -1.4860 H   0  0  0  0  0  0  0  0  0  0  0  0
    0.4360    1.9210   -1.1119 H   0  0  0  0  0  0  0  0  0  0  0  0
    0.4830   -1.9181   -1.6115 H   0  0  0  0  0  0  0  0  0  0  0  0
   -2.0881    1.4372   -1.8293 H   0  0  0  0  0  0  0  0  0  0  0  0
   -1.7177   -2.8204   -2.5964 H   0  0  0  0  0  0  0  0  0  0  0  0
   -3.3196   -0.7233   -2.7048 H   0  0  0  0  0  0  0  0  0  0  0  0
    2.3594    2.3672    1.7158 N   0  0  0  0  0  0  0  0  0  0  0  0
    3.6646    2.9522    2.0630 C   0  0  2  0  0  0  0  0  0  0  0  0
    4.3796    2.1723    3.1925 C   0  0  0  0  0  0  0  0  0  0  0  0
    4.5904    2.6746    4.2882 O   0  0  0  0  0  0  0  0  0  0  0  0
    3.4220    4.4240    2.4215 C   0  0  0  0  0  0  0  0  0  0  0  0
    1.5909    2.5433    2.3667 H   0  0  0  0  0  0  0  0  0  0  0  0
    4.3253    2.9283    1.1899 H   0  0  0  0  0  0  0  0  0  0  0  0
    2.7628    4.5054    3.2920 H   0  0  0  0  0  0  0  0  0  0  0  0
    4.3698    4.9173    2.6605 H   0  0  0  0  0  0  0  0  0  0  0  0
    2.9608    4.9516    1.5813 H   0  0  0  0  0  0  0  0  0  0  0  0
    4.7964    0.8771    2.9571 N   0  0  0  0  0  0  0  0  0  0  0  0
    5.4379    0.0386    3.9619 C   0  0  0  0  0  0  0  0  0  0  0  0
    4.5510    0.4799    2.0489 H   0  0  0  0  0  0  0  0  0  0  0  0
    6.3435    0.5227    4.3432 H   0  0  0  0  0  0  0  0  0  0  0  0
    4.7566   -0.1426    4.8000 H   0  0  0  0  0  0  0  0  0  0  0  0
    5.7195   -0.9258    3.5284 H   0  0  0  0  0  0  0  0  0  0  0  0
  1  2  2  0  0  0  0
  1  3  1  0  0  0  0
  1  7  1  0  0  0  0
  3  4  1  0  0  0  0
  3  5  1  0  0  0  0
  3  6  1  0  0  0  0
  7  8  1  0  0  0  0
  7 12  1  0  0  0  0
  8  9  1  0  0  0  0
  8 11  1  0  0  0  0
  8 13  1  0  0  0  0
  9 10  2  0  0  0  0
  9 17  1  0  0  0  0
 11 14  1  0  0  0  0
 11 15  1  0  0  0  0
 11 16  1  0  0  0  0
 17 18  1  0  0  0  0
 17 27  1  0  0  0  0
 18 19  1  0  0  0  0
 18 21  1  0  0  0  0
 18 28  1  0  0  0  0
 19 20  2  0  0  0  0
 19 35  1  0  0  0  0
 21 22  1  0  0  0  0
 21 29  1  0  0  0  0
 21 30  1  0  0  0  0
 22 23  1  0  0  0  0
 22 24  2  0  0  0  0
 23 25  2  0  0  0  0
 23 31  1  0  0  0  0
 24 26  1  0  0  0  0
 24 32  1  0  0  0  0
 25 26  1  0  0  0  0
 25 33  1  0  0  0  0
 26 34  1  0  0  0  0
 35 36  1  0  0  0  0
 35 40  1  0  0  0  0
 36 37  1  0  0  0  0
 36 39  1  0  0  0  0
 36 41  1  0  0  0  0
 37 38  2  0  0  0  0
 37 45  1  0  0  0  0
 39 42  1  0  0  0  0
 39 43  1  0  0  0  0
 39 44  1  0  0  0  0
 45 46  1  0  0  0  0
 45 47  1  0  0  0  0
 46 48  1  0  0  0  0
 46 49  1  0  0  0  0
 46 50  1  0  0  0  0
M  CHG  1  23   1
M  END
$$$$

  -OEChem-05262216443D

 50 50  0     1  0  0  0  0  0999 V2000
   -3.6758    0.1679    1.9354 C   0  0  0  0  0  0  0  0  0  0  0  0
   -3.3966    0.4520    0.7762 O   0  0  0  0  0  0  0  0  0  0  0  0
   -4.5946   -0.9995    2.2391 C   0  0  0  0  0  0  0  0  0  0  0  0
   -4.9463   -1.4585    1.3114 H   0  0  0  0  0  0  0  0  0  0  0  0
   -4.0607   -1.7522    2.8252 H   0  0  0  0  0  0  0  0  0  0  0  0
   -5.4609   -0.6541    2.8095 H   0  0  0  0  0  0  0  0  0  0  0  0
   -3.1099    0.8817    2.9700 N   0  0  0  0  0  0  0  0  0  0  0  0
   -2.2186    2.0372    2.7971 C   0  0  2  0  0  0  0  0  0  0  0  0
   -0.7827    1.6230    2.3889 C   0  0  0  0  0  0  0  0  0  0  0  0
    0.1294    1.6698    3.1953 O   0  0  0  0  0  0  0  0  0  0  0  0
   -2.2578    2.8390    4.1050 C   0  0  0  0  0  0  0  0  0  0  0  0
   -3.3152    0.5718    3.9177 H   0  0  0  0  0  0  0  0  0  0  0  0
   -2.6087    2.6842    2.0040 H   0  0  0  0  0  0  0  0  0  0  0  0
   -1.8846    2.2368    4.9401 H   0  0  0  0  0  0  0  0  0  0  0  0
   -1.6339    3.7346    4.0210 H   0  0  0  0  0  0  0  0  0  0  0  0
   -3.2812    3.1534    4.3317 H   0  0  0  0  0  0  0  0  0  0  0  0
   -0.5767    1.1704    1.0949 N   0  0  0  0  0  0  0  0  0  0  0  0
    0.6519    0.6861    0.4096 C   0  0  2  0  0  0  0  0  0  0  0  0
    2.0846    1.1859    0.7666 C   0  0  0  0  0  0  0  0  0  0  0  0
    3.0047    0.7767    0.0662 O   0  0  0  0  0  0  0  0  0  0  0  0
    0.4155    0.9265   -1.1013 C   0  0  0  0  0  0  0  0  0  0  0  0
   -0.7337    0.0970   -1.6146 C   0  0  0  0  0  0  0  0  0  0  0  0
   -0.6944   -1.2759   -1.8589 N   0  3  0  0  0  0  0  0  0  0  0  0
   -1.9865    0.5429   -1.9482 C   0  0  0  0  0  0  0  0  0  0  0  0
   -1.8593   -1.6920   -2.2930 C   0  0  0  0  0  0  0  0  0  0  0  0
   -2.6948   -0.5786   -2.3595 N   0  0  0  0  0  0  0  0  0  0  0  0
   -1.4578    1.0092    0.6018 H   0  0  0  0  0  0  0  0  0  0  0  0
    0.7041   -0.3905    0.5991 H   0  0  0  0  0  0  0  0  0  0  0  0
    1.3052    0.6698   -1.6873 H   0  0  0  0  0  0  0  0  0  0  0  0
    0.2235    1.9921   -1.2675 H   0  0  0  0  0  0  0  0  0  0  0  0
    0.1414   -1.8457   -1.6971 H   0  0  0  0  0  0  0  0  0  0  0  0
   -2.3579    1.5647   -1.8692 H   0  0  0  0  0  0  0  0  0  0  0  0
   -2.1253   -2.7185   -2.5516 H   0  0  0  0  0  0  0  0  0  0  0  0
   -3.6834   -0.5861   -2.6261 H   0  0  0  0  0  0  0  0  0  0  0  0
    2.3868    2.1168    1.7397 N   0  0  0  0  0  0  0  0  0  0  0  0
    3.7676    2.3161    2.2054 C   0  0  2  0  0  0  0  0  0  0  0  0
    4.3131    1.1180    3.0200 C   0  0  0  0  0  0  0  0  0  0  0  0
    3.5534    0.3043    3.5322 O   0  0  0  0  0  0  0  0  0  0  0  0
    3.7794    3.5842    3.0624 C   0  0  0  0  0  0  0  0  0  0  0  0
    1.6642    2.1927    2.4583 H   0  0  0  0  0  0  0  0  0  0  0  0
    4.4262    2.4678    1.3438 H   0  0  0  0  0  0  0  0  0  0  0  0
    3.1332    3.4590    3.9378 H   0  0  0  0  0  0  0  0  0  0  0  0
    4.7937    3.8043    3.4094 H   0  0  0  0  0  0  0  0  0  0  0  0
    3.4194    4.4391    2.4817 H   0  0  0  0  0  0  0  0  0  0  0  0
    5.6756    0.9590    3.1966 N   0  0  0  0  0  0  0  0  0  0  0  0
    6.2600   -0.1542    3.9364 C   0  0  0  0  0  0  0  0  0  0  0  0
    6.2923    1.6169    2.7301 H   0  0  0  0  0  0  0  0  0  0  0  0
    5.9004   -0.1576    4.9710 H   0  0  0  0  0  0  0  0  0  0  0  0
    5.9930   -1.1077    3.4684 H   0  0  0  0  0  0  0  0  0  0  0  0
    7.3510   -0.0701    3.9510 H   0  0  0  0  0  0  0  0  0  0  0  0
  1  2  2  0  0  0  0
  1  3  1  0  0  0  0
  1  7  1  0  0  0  0
  3  4  1  0  0  0  0
  3  5  1  0  0  0  0
  3  6  1  0  0  0  0
  7  8  1  0  0  0  0
  7 12  1  0  0  0  0
  8  9  1  0  0  0  0
  8 11  1  0  0  0  0
  8 13  1  0  0  0  0
  9 10  2  0  0  0  0
  9 17  1  0  0  0  0
 11 14  1  0  0  0  0
 11 15  1  0  0  0  0
 11 16  1  0  0  0  0
 17 18  1  0  0  0  0
 17 27  1  0  0  0  0
 18 19  1  0  0  0  0
 18 21  1  0  0  0  0
 18 28  1  0  0  0  0
 19 20  2  0  0  0  0
 19 35  1  0  0  0  0
 21 22  1  0  0  0  0
 21 29  1  0  0  0  0
 21 30  1  0  0  0  0
 22 23  1  0  0  0  0
 22 24  2  0  0  0  0
 23 25  2  0  0  0  0
 23 31  1  0  0  0  0
 24 26  1  0  0  0  0
 24 32  1  0  0  0  0
 25 26  1  0  0  0  0
 25 33  1  0  0  0  0
 26 34  1  0  0  0  0
 35 36  1  0  0  0  0
 35 40  1  0  0  0  0
 36 37  1  0  0  0  0
 36 39  1  0  0  0  0
 36 41  1  0  0  0  0
 37 38  2  0  0  0  0
 37 45  1  0  0  0  0
 39 42  1  0  0  0  0
 39 43  1  0  0  0  0
 39 44  1  0  0  0  0
 45 46  1  0  0  0  0
 45 47  1  0  0  0  0
 46 48  1  0  0  0  0
 46 49  1  0  0  0  0
 46 50  1  0  0  0  0
M  CHG  1  23   1
M  END
$$$$

  -OEChem-05262216443D

 50 50  0     1  0  0  0  0  0999 V2000
   -2.9122    2.6355    2.2948 C   0  0  0  0  0  0  0  0  0  0  0  0
   -2.7231    2.5152    1.0909 O   0  0  0  0  0  0  0  0  0  0  0  0
   -3.2787    3.9927    2.8642 C   0  0  0  0  0  0  0  0  0  0  0  0
   -2.5164    4.3188    3.5764 H   0  0  0  0  0  0  0  0  0  0  0  0
   -3.3510    4.7342    2.0636 H   0  0  0  0  0  0  0  0  0  0  0  0
   -4.2426    3.9359    3.3762 H   0  0  0  0  0  0  0  0  0  0  0  0
   -2.7476    1.5627    3.1510 N   0  0  0  0  0  0  0  0  0  0  0  0
   -2.4412    0.1622    2.7902 C   0  0  2  0  0  0  0  0  0  0  0  0
   -1.0343   -0.0562    2.1861 C   0  0  0  0  0  0  0  0  0  0  0  0
   -0.2927   -0.8785    2.6966 O   0  0  0  0  0  0  0  0  0  0  0  0
   -3.5311   -0.4237    1.8812 C   0  0  0  0  0  0  0  0  0  0  0  0
   -2.9042    1.7609    4.1373 H   0  0  0  0  0  0  0  0  0  0  0  0
   -2.4614   -0.4170    3.7201 H   0  0  0  0  0  0  0  0  0  0  0  0
   -3.5289    0.0513    0.8962 H   0  0  0  0  0  0  0  0  0  0  0  0
   -3.3653   -1.4973    1.7433 H   0  0  0  0  0  0  0  0  0  0  0  0
   -4.5181   -0.2838    2.3329 H   0  0  0  0  0  0  0  0  0  0  0  0
   -0.6563    0.5992    1.0272 N   0  0  0  0  0  0  0  0  0  0  0  0
    0.6985    0.8349    0.4682 C   0  0  2  0  0  0  0  0  0  0  0  0
    1.9493    0.9869    1.3882 C   0  0  0  0  0  0  0  0  0  0  0  0
    2.9456    1.5234    0.9164 O   0  0  0  0  0  0  0  0  0  0  0  0
    0.5738    2.0400   -0.4956 C   0  0  0  0  0  0  0  0  0  0  0  0
   -0.3284    1.7141   -1.6605 C   0  0  0  0  0  0  0  0  0  0  0  0
    0.0148    0.9026   -2.7424 N   0  3  0  0  0  0  0  0  0  0  0  0
   -1.5923    2.1958   -1.8895 C   0  0  0  0  0  0  0  0  0  0  0  0
   -0.9754    0.8455   -3.5996 C   0  0  0  0  0  0  0  0  0  0  0  0
   -2.0019    1.6428   -3.0964 N   0  0  0  0  0  0  0  0  0  0  0  0
   -1.3756    1.2585    0.7220 H   0  0  0  0  0  0  0  0  0  0  0  0
    0.9377   -0.0549   -0.1225 H   0  0  0  0  0  0  0  0  0  0  0  0
    1.5510    2.3273   -0.8985 H   0  0  0  0  0  0  0  0  0  0  0  0
    0.1890    2.9040    0.0572 H   0  0  0  0  0  0  0  0  0  0  0  0
    0.9197    0.4282   -2.8162 H   0  0  0  0  0  0  0  0  0  0  0  0
   -2.1547    2.8747   -1.2468 H   0  0  0  0  0  0  0  0  0  0  0  0
   -0.9910    0.2808   -4.5337 H   0  0  0  0  0  0  0  0  0  0  0  0
   -2.9104    1.8016   -3.5420 H   0  0  0  0  0  0  0  0  0  0  0  0
    1.9918    0.6331    2.7221 N   0  0  0  0  0  0  0  0  0  0  0  0
    3.2652    0.5250    3.4500 C   0  0  2  0  0  0  0  0  0  0  0  0
    4.0954   -0.7119    3.0304 C   0  0  0  0  0  0  0  0  0  0  0  0
    3.5768   -1.6423    2.4240 O   0  0  0  0  0  0  0  0  0  0  0  0
    2.9321    0.4616    4.9425 C   0  0  0  0  0  0  0  0  0  0  0  0
    1.2750   -0.0493    2.9794 H   0  0  0  0  0  0  0  0  0  0  0  0
    3.8720    1.4179    3.2659 H   0  0  0  0  0  0  0  0  0  0  0  0
    2.3406   -0.4329    5.1642 H   0  0  0  0  0  0  0  0  0  0  0  0
    3.8484    0.4280    5.5398 H   0  0  0  0  0  0  0  0  0  0  0  0
    2.3573    1.3434    5.2419 H   0  0  0  0  0  0  0  0  0  0  0  0
    5.4381   -0.7904    3.3520 N   0  0  0  0  0  0  0  0  0  0  0  0
    6.2822   -1.9220    2.9844 C   0  0  0  0  0  0  0  0  0  0  0  0
    5.8595    0.0057    3.8208 H   0  0  0  0  0  0  0  0  0  0  0  0
    5.8986   -2.8472    3.4279 H   0  0  0  0  0  0  0  0  0  0  0  0
    6.3123   -2.0400    1.8959 H   0  0  0  0  0  0  0  0  0  0  0  0
    7.3040   -1.7656    3.3435 H   0  0  0  0  0  0  0  0  0  0  0  0
  1  2  2  0  0  0  0
  1  3  1  0  0  0  0
  1  7  1  0  0  0  0
  3  4  1  0  0  0  0
  3  5  1  0  0  0  0
  3  6  1  0  0  0  0
  7  8  1  0  0  0  0
  7 12  1  0  0  0  0
  8  9  1  0  0  0  0
  8 11  1  0  0  0  0
  8 13  1  0  0  0  0
  9 10  2  0  0  0  0
  9 17  1  0  0  0  0
 11 14  1  0  0  0  0
 11 15  1  0  0  0  0
 11 16  1  0  0  0  0
 17 18  1  0  0  0  0
 17 27  1  0  0  0  0
 18 19  1  0  0  0  0
 18 21  1  0  0  0  0
 18 28  1  0  0  0  0
 19 20  2  0  0  0  0
 19 35  1  0  0  0  0
 21 22  1  0  0  0  0
 21 29  1  0  0  0  0
 21 30  1  0  0  0  0
 22 23  1  0  0  0  0
 22 24  2  0  0  0  0
 23 25  2  0  0  0  0
 23 31  1  0  0  0  0
 24 26  1  0  0  0  0
 24 32  1  0  0  0  0
 25 26  1  0  0  0  0
 25 33  1  0  0  0  0
 26 34  1  0  0  0  0
 35 36  1  0  0  0  0
 35 40  1  0  0  0  0
 36 37  1  0  0  0  0
 36 39  1  0  0  0  0
 36 41  1  0  0  0  0
 37 38  2  0  0  0  0
 37 45  1  0  0  0  0
 39 42  1  0  0  0  0
 39 43  1  0  0  0  0
 39 44  1  0  0  0  0
 45 46  1  0  0  0  0
 45 47  1  0  0  0  0
 46 48  1  0  0  0  0
 46 49  1  0  0  0  0
 46 50  1  0  0  0  0
M  CHG  1  23   1
M  END
$$$$

  -OEChem-05262216443D

 50 50  0     1  0  0  0  0  0999 V2000
   -3.8403    0.3774    1.5841 C   0  0  0  0  0  0  0  0  0  0  0  0
   -3.3868    0.7632    0.5129 O   0  0  0  0  0  0  0  0  0  0  0  0
   -5.0016   -0.5974    1.6167 C   0  0  0  0  0  0  0  0  0  0  0  0
   -5.8313   -0.1691    2.1852 H   0  0  0  0  0  0  0  0  0  0  0  0
   -5.3467   -0.8119    0.6019 H   0  0  0  0  0  0  0  0  0  0  0  0
   -4.6927   -1.5332    2.0895 H   0  0  0  0  0  0  0  0  0  0  0  0
   -3.2604    0.7975    2.7624 N   0  0  0  0  0  0  0  0  0  0  0  0
   -2.1800    1.7900    2.8487 C   0  0  2  0  0  0  0  0  0  0  0  0
   -0.7947    1.2044    2.4792 C   0  0  0  0  0  0  0  0  0  0  0  0
    0.0275    0.9443    3.3434 O   0  0  0  0  0  0  0  0  0  0  0  0
   -2.2139    2.3796    4.2649 C   0  0  0  0  0  0  0  0  0  0  0  0
   -3.6377    0.4212    3.6295 H   0  0  0  0  0  0  0  0  0  0  0  0
   -2.3821    2.6085    2.1490 H   0  0  0  0  0  0  0  0  0  0  0  0
   -2.0239    1.6037    5.0138 H   0  0  0  0  0  0  0  0  0  0  0  0
   -1.4484    3.1551    4.3715 H   0  0  0  0  0  0  0  0  0  0  0  0
   -3.1899    2.8307    4.4691 H   0  0  0  0  0  0  0  0  0  0  0  0
   -0.5343    0.9085    1.1512 N   0  0  0  0  0  0  0  0  0  0  0  0
    0.7568    0.7017    0.4430 C   0  0  2  0  0  0  0  0  0  0  0  0
    2.0625    1.4304    0.8962 C   0  0  0  0  0  0  0  0  0  0  0  0
    2.9239    1.6697    0.0572 O   0  0  0  0  0  0  0  0  0  0  0  0
    0.4835    0.9584   -1.0601 C   0  0  0  0  0  0  0  0  0  0  0  0
   -0.4849   -0.0489   -1.6272 C   0  0  0  0  0  0  0  0  0  0  0  0
   -0.1835   -1.3767   -1.9318 N   0  3  0  0  0  0  0  0  0  0  0  0
   -1.7878    0.1734   -1.9914 C   0  0  0  0  0  0  0  0  0  0  0  0
   -1.2339   -1.9759   -2.4381 C   0  0  0  0  0  0  0  0  0  0  0  0
   -2.2604   -1.0346   -2.4872 N   0  0  0  0  0  0  0  0  0  0  0  0
   -1.3658    0.9974    0.5637 H   0  0  0  0  0  0  0  0  0  0  0  0
    1.0079   -0.3559    0.5725 H   0  0  0  0  0  0  0  0  0  0  0  0
    1.4067    0.8935   -1.6465 H   0  0  0  0  0  0  0  0  0  0  0  0
    0.0978    1.9761   -1.1850 H   0  0  0  0  0  0  0  0  0  0  0  0
    0.7381   -1.7903   -1.7614 H   0  0  0  0  0  0  0  0  0  0  0  0
   -2.3442    1.1063   -1.8877 H   0  0  0  0  0  0  0  0  0  0  0  0
   -1.2918   -3.0168   -2.7617 H   0  0  0  0  0  0  0  0  0  0  0  0
   -3.2119   -1.2014   -2.8271 H   0  0  0  0  0  0  0  0  0  0  0  0
    2.3357    1.8002    2.1968 N   0  0  0  0  0  0  0  0  0  0  0  0
    3.7127    2.0047    2.6678 C   0  0  2  0  0  0  0  0  0  0  0  0
    4.5073    0.6802    2.7778 C   0  0  0  0  0  0  0  0  0  0  0  0
    3.9384   -0.4052    2.7130 O   0  0  0  0  0  0  0  0  0  0  0  0
    3.6248    2.6915    4.0333 C   0  0  0  0  0  0  0  0  0  0  0  0
    1.6830    1.4099    2.8801 H   0  0  0  0  0  0  0  0  0  0  0  0
    4.2460    2.6655    1.9761 H   0  0  0  0  0  0  0  0  0  0  0  0
    3.1059    2.0484    4.7521 H   0  0  0  0  0  0  0  0  0  0  0  0
    4.6248    2.9086    4.4209 H   0  0  0  0  0  0  0  0  0  0  0  0
    3.0751    3.6344    3.9499 H   0  0  0  0  0  0  0  0  0  0  0  0
    5.8780    0.7033    2.9600 N   0  0  0  0  0  0  0  0  0  0  0  0
    6.6892   -0.5029    3.0822 C   0  0  0  0  0  0  0  0  0  0  0  0
    6.3369    1.6091    2.9841 H   0  0  0  0  0  0  0  0  0  0  0  0
    6.3626   -1.0983    3.9417 H   0  0  0  0  0  0  0  0  0  0  0  0
    6.6050   -1.1147    2.1778 H   0  0  0  0  0  0  0  0  0  0  0  0
    7.7421   -0.2401    3.2245 H   0  0  0  0  0  0  0  0  0  0  0  0
  1  2  2  0  0  0  0
  1  3  1  0  0  0  0
  1  7  1  0  0  0  0
  3  4  1  0  0  0  0
  3  5  1  0  0  0  0
  3  6  1  0  0  0  0
  7  8  1  0  0  0  0
  7 12  1  0  0  0  0
  8  9  1  0  0  0  0
  8 11  1  0  0  0  0
  8 13  1  0  0  0  0
  9 10  2  0  0  0  0
  9 17  1  0  0  0  0
 11 14  1  0  0  0  0
 11 15  1  0  0  0  0
 11 16  1  0  0  0  0
 17 18  1  0  0  0  0
 17 27  1  0  0  0  0
 18 19  1  0  0  0  0
 18 21  1  0  0  0  0
 18 28  1  0  0  0  0
 19 20  2  0  0  0  0
 19 35  1  0  0  0  0
 21 22  1  0  0  0  0
 21 29  1  0  0  0  0
 21 30  1  0  0  0  0
 22 23  1  0  0  0  0
 22 24  2  0  0  0  0
 23 25  2  0  0  0  0
 23 31  1  0  0  0  0
 24 26  1  0  0  0  0
 24 32  1  0  0  0  0
 25 26  1  0  0  0  0
 25 33  1  0  0  0  0
 26 34  1  0  0  0  0
 35 36  1  0  0  0  0
 35 40  1  0  0  0  0
 36 37  1  0  0  0  0
 36 39  1  0  0  0  0
 36 41  1  0  0  0  0
 37 38  2  0  0  0  0
 37 45  1  0  0  0  0
 39 42  1  0  0  0  0
 39 43  1  0  0  0  0
 39 44  1  0  0  0  0
 45 46  1  0  0  0  0
 45 47  1  0  0  0  0
 46 48  1  0  0  0  0
 46 49  1  0  0  0  0
 46 50  1  0  0  0  0
M  CHG  1  23   1
M  END
$$$$

  -OEChem-05262216443D

 50 50  0     1  0  0  0  0  0999 V2000
   -3.8500    0.5949    1.5819 C   0  0  0  0  0  0  0  0  0  0  0  0
   -3.3458    0.9661    0.5285 O   0  0  0  0  0  0  0  0  0  0  0  0
   -5.0935   -0.2731    1.5696 C   0  0  0  0  0  0  0  0  0  0  0  0
   -5.4344   -0.4352    0.5436 H   0  0  0  0  0  0  0  0  0  0  0  0
   -4.8784   -1.2416    2.0279 H   0  0  0  0  0  0  0  0  0  0  0  0
   -5.8941    0.2156    2.1308 H   0  0  0  0  0  0  0  0  0  0  0  0
   -3.2555    0.9254    2.7814 N   0  0  0  0  0  0  0  0  0  0  0  0
   -2.1125    1.8396    2.9207 C   0  0  2  0  0  0  0  0  0  0  0  0
   -0.7614    1.1884    2.5326 C   0  0  0  0  0  0  0  0  0  0  0  0
    0.0610    0.8797    3.3822 O   0  0  0  0  0  0  0  0  0  0  0  0
   -2.1225    2.3611    4.3638 C   0  0  0  0  0  0  0  0  0  0  0  0
   -3.6900    0.5689    3.6299 H   0  0  0  0  0  0  0  0  0  0  0  0
   -2.2558    2.7017    2.2599 H   0  0  0  0  0  0  0  0  0  0  0  0
   -1.9958    1.5378    5.0746 H   0  0  0  0  0  0  0  0  0  0  0  0
   -1.3068    3.0755    4.5157 H   0  0  0  0  0  0  0  0  0  0  0  0
   -3.0674    2.8690    4.5811 H   0  0  0  0  0  0  0  0  0  0  0  0
   -0.5284    0.8807    1.2028 N   0  0  0  0  0  0  0  0  0  0  0  0
    0.7607    0.7146    0.4847 C   0  0  2  0  0  0  0  0  0  0  0  0
    2.0242    1.5133    0.9306 C   0  0  0  0  0  0  0  0  0  0  0  0
    2.7737    1.9797    0.0801 O   0  0  0  0  0  0  0  0  0  0  0  0
    0.4797    0.9084   -1.0238 C   0  0  0  0  0  0  0  0  0  0  0  0
   -0.4399   -0.1639   -1.5510 C   0  0  0  0  0  0  0  0  0  0  0  0
   -0.0719   -1.4852   -1.8059 N   0  3  0  0  0  0  0  0  0  0  0  0
   -1.7536   -0.0210   -1.9168 C   0  0  0  0  0  0  0  0  0  0  0  0
   -1.0912   -2.1549   -2.2861 C   0  0  0  0  0  0  0  0  0  0  0  0
   -2.1636   -1.2686   -2.3688 N   0  0  0  0  0  0  0  0  0  0  0  0
   -1.3519    1.0439    0.6194 H   0  0  0  0  0  0  0  0  0  0  0  0
    1.0613   -0.3266    0.6403 H   0  0  0  0  0  0  0  0  0  0  0  0
    1.4096    0.8644   -1.6019 H   0  0  0  0  0  0  0  0  0  0  0  0
    0.0482    1.9022   -1.1854 H   0  0  0  0  0  0  0  0  0  0  0  0
    0.8684   -1.8462   -1.6179 H   0  0  0  0  0  0  0  0  0  0  0  0
   -2.3527    0.8888   -1.8468 H   0  0  0  0  0  0  0  0  0  0  0  0
   -1.0969   -3.2092   -2.5684 H   0  0  0  0  0  0  0  0  0  0  0  0
   -3.1028   -1.4939   -2.7086 H   0  0  0  0  0  0  0  0  0  0  0  0
    2.4051    1.6413    2.2493 N   0  0  0  0  0  0  0  0  0  0  0  0
    3.8181    1.7604    2.6314 C   0  0  2  0  0  0  0  0  0  0  0  0
    4.6097    0.4495    2.3967 C   0  0  0  0  0  0  0  0  0  0  0  0
    4.0330   -0.5962    2.1083 O   0  0  0  0  0  0  0  0  0  0  0  0
    3.8521    2.1524    4.1108 C   0  0  0  0  0  0  0  0  0  0  0  0
    1.7957    1.1482    2.9068 H   0  0  0  0  0  0  0  0  0  0  0  0
    4.2936    2.5548    2.0464 H   0  0  0  0  0  0  0  0  0  0  0  0
    3.3971    1.3680    4.7250 H   0  0  0  0  0  0  0  0  0  0  0  0
    4.8823    2.3031    4.4472 H   0  0  0  0  0  0  0  0  0  0  0  0
    3.2985    3.0834    4.2691 H   0  0  0  0  0  0  0  0  0  0  0  0
    5.9882    0.4411    2.5072 N   0  0  0  0  0  0  0  0  0  0  0  0
    6.8030   -0.7503    2.2967 C   0  0  0  0  0  0  0  0  0  0  0  0
    6.4502    1.3219    2.7136 H   0  0  0  0  0  0  0  0  0  0  0  0
    6.5055   -1.5457    2.9882 H   0  0  0  0  0  0  0  0  0  0  0  0
    6.6903   -1.1152    1.2704 H   0  0  0  0  0  0  0  0  0  0  0  0
    7.8598   -0.5231    2.4685 H   0  0  0  0  0  0  0  0  0  0  0  0
  1  2  2  0  0  0  0
  1  3  1  0  0  0  0
  1  7  1  0  0  0  0
  3  4  1  0  0  0  0
  3  5  1  0  0  0  0
  3  6  1  0  0  0  0
  7  8  1  0  0  0  0
  7 12  1  0  0  0  0
  8  9  1  0  0  0  0
  8 11  1  0  0  0  0
  8 13  1  0  0  0  0
  9 10  2  0  0  0  0
  9 17  1  0  0  0  0
 11 14  1  0  0  0  0
 11 15  1  0  0  0  0
 11 16  1  0  0  0  0
 17 18  1  0  0  0  0
 17 27  1  0  0  0  0
 18 19  1  0  0  0  0
 18 21  1  0  0  0  0
 18 28  1  0  0  0  0
 19 20  2  0  0  0  0
 19 35  1  0  0  0  0
 21 22  1  0  0  0  0
 21 29  1  0  0  0  0
 21 30  1  0  0  0  0
 22 23  1  0  0  0  0
 22 24  2  0  0  0  0
 23 25  2  0  0  0  0
 23 31  1  0  0  0  0
 24 26  1  0  0  0  0
 24 32  1  0  0  0  0
 25 26  1  0  0  0  0
 25 33  1  0  0  0  0
 26 34  1  0  0  0  0
 35 36  1  0  0  0  0
 35 40  1  0  0  0  0
 36 37  1  0  0  0  0
 36 39  1  0  0  0  0
 36 41  1  0  0  0  0
 37 38  2  0  0  0  0
 37 45  1  0  0  0  0
 39 42  1  0  0  0  0
 39 43  1  0  0  0  0
 39 44  1  0  0  0  0
 45 46  1  0  0  0  0
 45 47  1  0  0  0  0
 46 48  1  0  0  0  0
 46 49  1  0  0  0  0
 46 50  1  0  0  0  0
M  CHG  1  23   1
M  END
$$$$

  -OEChem-05262216443D

 50 50  0     1  0  0  0  0  0999 V2000
   -3.7899    0.5542    1.6770 C   0  0  0  0  0  0  0  0  0  0  0  0
   -3.3131    0.9364    0.6147 O   0  0  0  0  0  0  0  0  0  0  0  0
   -4.9966   -0.3642    1.6846 C   0  0  0  0  0  0  0  0  0  0  0  0
   -5.3812   -0.4952    0.6695 H   0  0  0  0  0  0  0  0  0  0  0  0
   -4.7198   -1.3416    2.0880 H   0  0  0  0  0  0  0  0  0  0  0  0
   -5.7881    0.0649    2.3045 H   0  0  0  0  0  0  0  0  0  0  0  0
   -3.1969    0.9161    2.8685 N   0  0  0  0  0  0  0  0  0  0  0  0
   -2.1014    1.8891    2.9946 C   0  0  2  0  0  0  0  0  0  0  0  0
   -0.7207    1.3087    2.5972 C   0  0  0  0  0  0  0  0  0  0  0  0
    0.1389    1.0752    3.4346 O   0  0  0  0  0  0  0  0  0  0  0  0
   -2.1271    2.4152    4.4359 C   0  0  0  0  0  0  0  0  0  0  0  0
   -3.6127    0.5514    3.7226 H   0  0  0  0  0  0  0  0  0  0  0  0
   -2.2953    2.7393    2.3312 H   0  0  0  0  0  0  0  0  0  0  0  0
   -1.9409    1.6045    5.1483 H   0  0  0  0  0  0  0  0  0  0  0  0
   -1.3549    3.1791    4.5747 H   0  0  0  0  0  0  0  0  0  0  0  0
   -3.0986    2.8649    4.6637 H   0  0  0  0  0  0  0  0  0  0  0  0
   -0.4989    0.9701    1.2734 N   0  0  0  0  0  0  0  0  0  0  0  0
    0.7902    0.8277    0.5553 C   0  0  2  0  0  0  0  0  0  0  0  0
    2.0121    1.6892    0.9883 C   0  0  0  0  0  0  0  0  0  0  0  0
    2.6614    2.2966    0.1443 O   0  0  0  0  0  0  0  0  0  0  0  0
    0.5131    0.9780   -0.9568 C   0  0  0  0  0  0  0  0  0  0  0  0
   -0.3708   -0.1331   -1.4612 C   0  0  0  0  0  0  0  0  0  0  0  0
    0.0375   -1.4487   -1.6818 N   0  3  0  0  0  0  0  0  0  0  0  0
   -1.6862   -0.0373   -1.8349 C   0  0  0  0  0  0  0  0  0  0  0  0
   -0.9599   -2.1596   -2.1492 C   0  0  0  0  0  0  0  0  0  0  0  0
   -2.0573   -1.3069   -2.2592 N   0  0  0  0  0  0  0  0  0  0  0  0
   -1.3342    1.0819    0.6947 H   0  0  0  0  0  0  0  0  0  0  0  0
    1.1303   -0.1978    0.7339 H   0  0  0  0  0  0  0  0  0  0  0  0
    1.4501    0.9494   -1.5249 H   0  0  0  0  0  0  0  0  0  0  0  0
    0.0534    1.9546   -1.1441 H   0  0  0  0  0  0  0  0  0  0  0  0
    0.9866   -1.7773   -1.4775 H   0  0  0  0  0  0  0  0  0  0  0  0
   -2.3115    0.8560   -1.7888 H   0  0  0  0  0  0  0  0  0  0  0  0
   -0.9338   -3.2205   -2.4043 H   0  0  0  0  0  0  0  0  0  0  0  0
   -2.9884   -1.5681   -2.5961 H   0  0  0  0  0  0  0  0  0  0  0  0
    2.5352    1.6066    2.2607 N   0  0  0  0  0  0  0  0  0  0  0  0
    3.9869    1.5743    2.4767 C   0  0  2  0  0  0  0  0  0  0  0  0
    4.6353    0.2696    1.9473 C   0  0  0  0  0  0  0  0  0  0  0  0
    3.9457   -0.6676    1.5490 O   0  0  0  0  0  0  0  0  0  0  0  0
    4.2258    1.7298    3.9807 C   0  0  0  0  0  0  0  0  0  0  0  0
    1.9566    1.0723    2.9139 H   0  0  0  0  0  0  0  0  0  0  0  0
    4.4541    2.4192    1.9591 H   0  0  0  0  0  0  0  0  0  0  0  0
    3.7878    0.8883    4.5279 H   0  0  0  0  0  0  0  0  0  0  0  0
    5.2972    1.7676    4.1996 H   0  0  0  0  0  0  0  0  0  0  0  0
    3.7682    2.6563    4.3425 H   0  0  0  0  0  0  0  0  0  0  0  0
    6.0119    0.1496    1.9000 N   0  0  0  0  0  0  0  0  0  0  0  0
    6.6995   -1.0364    1.4029 C   0  0  0  0  0  0  0  0  0  0  0  0
    6.5643    0.9495    2.1958 H   0  0  0  0  0  0  0  0  0  0  0  0
    6.3965   -1.9222    1.9710 H   0  0  0  0  0  0  0  0  0  0  0  0
    6.4668   -1.1993    0.3453 H   0  0  0  0  0  0  0  0  0  0  0  0
    7.7825   -0.9172    1.5049 H   0  0  0  0  0  0  0  0  0  0  0  0
  1  2  2  0  0  0  0
  1  3  1  0  0  0  0
  1  7  1  0  0  0  0
  3  4  1  0  0  0  0
  3  5  1  0  0  0  0
  3  6  1  0  0  0  0
  7  8  1  0  0  0  0
  7 12  1  0  0  0  0
  8  9  1  0  0  0  0
  8 11  1  0  0  0  0
  8 13  1  0  0  0  0
  9 10  2  0  0  0  0
  9 17  1  0  0  0  0
 11 14  1  0  0  0  0
 11 15  1  0  0  0  0
 11 16  1  0  0  0  0
 17 18  1  0  0  0  0
 17 27  1  0  0  0  0
 18 19  1  0  0  0  0
 18 21  1  0  0  0  0
 18 28  1  0  0  0  0
 19 20  2  0  0  0  0
 19 35  1  0  0  0  0
 21 22  1  0  0  0  0
 21 29  1  0  0  0  0
 21 30  1  0  0  0  0
 22 23  1  0  0  0  0
 22 24  2  0  0  0  0
 23 25  2  0  0  0  0
 23 31  1  0  0  0  0
 24 26  1  0  0  0  0
 24 32  1  0  0  0  0
 25 26  1  0  0  0  0
 25 33  1  0  0  0  0
 26 34  1  0  0  0  0
 35 36  1  0  0  0  0
 35 40  1  0  0  0  0
 36 37  1  0  0  0  0
 36 39  1  0  0  0  0
 36 41  1  0  0  0  0
 37 38  2  0  0  0  0
 37 45  1  0  0  0  0
 39 42  1  0  0  0  0
 39 43  1  0  0  0  0
 39 44  1  0  0  0  0
 45 46  1  0  0  0  0
 45 47  1  0  0  0  0
 46 48  1  0  0  0  0
 46 49  1  0  0  0  0
 46 50  1  0  0  0  0
M  CHG  1  23   1
M  END
$$$$

  -OEChem-05262216443D

 50 50  0     1  0  0  0  0  0999 V2000
   -3.7250    0.4910    1.7392 C   0  0  0  0  0  0  0  0  0  0  0  0
   -3.2606    0.9160    0.6878 O   0  0  0  0  0  0  0  0  0  0  0  0
   -4.8816   -0.4893    1.7163 C   0  0  0  0  0  0  0  0  0  0  0  0
   -5.2408   -0.6293    0.6931 H   0  0  0  0  0  0  0  0  0  0  0  0
   -4.5614   -1.4556    2.1145 H   0  0  0  0  0  0  0  0  0  0  0  0
   -5.7052   -0.1086    2.3258 H   0  0  0  0  0  0  0  0  0  0  0  0
   -3.1575    0.8535    2.9437 N   0  0  0  0  0  0  0  0  0  0  0  0
   -2.1021    1.8664    3.1023 C   0  0  2  0  0  0  0  0  0  0  0  0
   -0.6990    1.3561    2.6875 C   0  0  0  0  0  0  0  0  0  0  0  0
    0.1903    1.1707    3.5065 O   0  0  0  0  0  0  0  0  0  0  0  0
   -2.1481    2.3430    4.5599 C   0  0  0  0  0  0  0  0  0  0  0  0
   -3.5642    0.4529    3.7861 H   0  0  0  0  0  0  0  0  0  0  0  0
   -2.3302    2.7289    2.4663 H   0  0  0  0  0  0  0  0  0  0  0  0
   -1.9293    1.5176    5.2452 H   0  0  0  0  0  0  0  0  0  0  0  0
   -1.4074    3.1324    4.7247 H   0  0  0  0  0  0  0  0  0  0  0  0
   -3.1370    2.7452    4.8010 H   0  0  0  0  0  0  0  0  0  0  0  0
   -0.4749    1.0348    1.3611 N   0  0  0  0  0  0  0  0  0  0  0  0
    0.8249    0.9415    0.6628 C   0  0  2  0  0  0  0  0  0  0  0  0
    1.9947    1.8453    1.1376 C   0  0  0  0  0  0  0  0  0  0  0  0
    2.5363    2.6151    0.3522 O   0  0  0  0  0  0  0  0  0  0  0  0
    0.5847    1.0977   -0.8517 C   0  0  0  0  0  0  0  0  0  0  0  0
   -0.2492   -0.0391   -1.3799 C   0  0  0  0  0  0  0  0  0  0  0  0
    0.2200   -1.3351   -1.5907 N   0  3  0  0  0  0  0  0  0  0  0  0
   -1.5615    0.0011   -1.7734 C   0  0  0  0  0  0  0  0  0  0  0  0
   -0.7365   -2.0874   -2.0779 C   0  0  0  0  0  0  0  0  0  0  0  0
   -1.8684   -1.2829   -2.2062 N   0  0  0  0  0  0  0  0  0  0  0  0
   -1.3104    1.1291    0.7794 H   0  0  0  0  0  0  0  0  0  0  0  0
    1.1936   -0.0750    0.8339 H   0  0  0  0  0  0  0  0  0  0  0  0
    1.5402    1.1067   -1.3893 H   0  0  0  0  0  0  0  0  0  0  0  0
    0.0965    2.0596   -1.0443 H   0  0  0  0  0  0  0  0  0  0  0  0
    1.1778   -1.6216   -1.3620 H   0  0  0  0  0  0  0  0  0  0  0  0
   -2.2262    0.8659   -1.7329 H   0  0  0  0  0  0  0  0  0  0  0  0
   -0.6590   -3.1455   -2.3339 H   0  0  0  0  0  0  0  0  0  0  0  0
   -2.7807   -1.5843   -2.5600 H   0  0  0  0  0  0  0  0  0  0  0  0
    2.6594    1.5319    2.3035 N   0  0  0  0  0  0  0  0  0  0  0  0
    4.1224    1.4168    2.3163 C   0  0  2  0  0  0  0  0  0  0  0  0
    4.6366    0.2248    1.4669 C   0  0  0  0  0  0  0  0  0  0  0  0
    3.8608   -0.5970    0.9780 O   0  0  0  0  0  0  0  0  0  0  0  0
    4.5536    1.2689    3.7780 C   0  0  0  0  0  0  0  0  0  0  0  0
    2.1334    0.9144    2.9250 H   0  0  0  0  0  0  0  0  0  0  0  0
    4.5632    2.3347    1.9121 H   0  0  0  0  0  0  0  0  0  0  0  0
    4.1454    0.3483    4.2077 H   0  0  0  0  0  0  0  0  0  0  0  0
    5.6444    1.2359    3.8580 H   0  0  0  0  0  0  0  0  0  0  0  0
    4.1916    2.1179    4.3671 H   0  0  0  0  0  0  0  0  0  0  0  0
    5.9917    0.0775    1.2350 N   0  0  0  0  0  0  0  0  0  0  0  0
    6.5639   -1.0092    0.4486 C   0  0  0  0  0  0  0  0  0  0  0  0
    6.6140    0.7828    1.6203 H   0  0  0  0  0  0  0  0  0  0  0  0
    6.3157   -1.9778    0.8952 H   0  0  0  0  0  0  0  0  0  0  0  0
    6.1804   -0.9838   -0.5767 H   0  0  0  0  0  0  0  0  0  0  0  0
    7.6539   -0.9168    0.4114 H   0  0  0  0  0  0  0  0  0  0  0  0
  1  2  2  0  0  0  0
  1  3  1  0  0  0  0
  1  7  1  0  0  0  0
  3  4  1  0  0  0  0
  3  5  1  0  0  0  0
  3  6  1  0  0  0  0
  7  8  1  0  0  0  0
  7 12  1  0  0  0  0
  8  9  1  0  0  0  0
  8 11  1  0  0  0  0
  8 13  1  0  0  0  0
  9 10  2  0  0  0  0
  9 17  1  0  0  0  0
 11 14  1  0  0  0  0
 11 15  1  0  0  0  0
 11 16  1  0  0  0  0
 17 18  1  0  0  0  0
 17 27  1  0  0  0  0
 18 19  1  0  0  0  0
 18 21  1  0  0  0  0
 18 28  1  0  0  0  0
 19 20  2  0  0  0  0
 19 35  1  0  0  0  0
 21 22  1  0  0  0  0
 21 29  1  0  0  0  0
 21 30  1  0  0  0  0
 22 23  1  0  0  0  0
 22 24  2  0  0  0  0
 23 25  2  0  0  0  0
 23 31  1  0  0  0  0
 24 26  1  0  0  0  0
 24 32  1  0  0  0  0
 25 26  1  0  0  0  0
 25 33  1  0  0  0  0
 26 34  1  0  0  0  0
 35 36  1  0  0  0  0
 35 40  1  0  0  0  0
 36 37  1  0  0  0  0
 36 39  1  0  0  0  0
 36 41  1  0  0  0  0
 37 38  2  0  0  0  0
 37 45  1  0  0  0  0
 39 42  1  0  0  0  0
 39 43  1  0  0  0  0
 39 44  1  0  0  0  0
 45 46  1  0  0  0  0
 45 47  1  0  0  0  0
 46 48  1  0  0  0  0
 46 49  1  0  0  0  0
 46 50  1  0  0  0  0
M  CHG  1  23   1
M  END
$$$$

  -OEChem-05262216443D

 50 50  0     1  0  0  0  0  0999 V2000
   -3.6703    0.4521    1.8805 C   0  0  0  0  0  0  0  0  0  0  0  0
   -3.1924    0.9388    0.8622 O   0  0  0  0  0  0  0  0  0  0  0  0
   -4.8488   -0.4974    1.7856 C   0  0  0  0  0  0  0  0  0  0  0  0
   -5.1751   -0.5951    0.7467 H   0  0  0  0  0  0  0  0  0  0  0  0
   -4.5658   -1.4834    2.1621 H   0  0  0  0  0  0  0  0  0  0  0  0
   -5.6843   -0.1165    2.3792 H   0  0  0  0  0  0  0  0  0  0  0  0
   -3.1094    0.7230    3.1127 N   0  0  0  0  0  0  0  0  0  0  0  0
   -2.0601    1.7262    3.3560 C   0  0  2  0  0  0  0  0  0  0  0  0
   -0.6523    1.2688    2.8987 C   0  0  0  0  0  0  0  0  0  0  0  0
    0.2580    1.0528    3.6881 O   0  0  0  0  0  0  0  0  0  0  0  0
   -2.1051    2.0785    4.8483 C   0  0  0  0  0  0  0  0  0  0  0  0
   -3.5418    0.2828    3.9217 H   0  0  0  0  0  0  0  0  0  0  0  0
   -2.2967    2.6372    2.7949 H   0  0  0  0  0  0  0  0  0  0  0  0
   -1.8731    1.2014    5.4615 H   0  0  0  0  0  0  0  0  0  0  0  0
   -1.3727    2.8604    5.0754 H   0  0  0  0  0  0  0  0  0  0  0  0
   -3.0974    2.4477    5.1254 H   0  0  0  0  0  0  0  0  0  0  0  0
   -0.4285    1.0671    1.5507 N   0  0  0  0  0  0  0  0  0  0  0  0
    0.8836    1.0508    0.8810 C   0  0  2  0  0  0  0  0  0  0  0  0
    2.0301    1.9156    1.4582 C   0  0  0  0  0  0  0  0  0  0  0  0
    2.4684    2.8634    0.8164 O   0  0  0  0  0  0  0  0  0  0  0  0
    0.7130    1.2952   -0.6279 C   0  0  0  0  0  0  0  0  0  0  0  0
   -0.0642    0.1675   -1.2438 C   0  0  0  0  0  0  0  0  0  0  0  0
    0.4826   -1.0916   -1.4838 N   0  3  0  0  0  0  0  0  0  0  0  0
   -1.3653    0.1573   -1.6723 C   0  0  0  0  0  0  0  0  0  0  0  0
   -0.4169   -1.8732   -2.0292 C   0  0  0  0  0  0  0  0  0  0  0  0
   -1.5865   -1.1237   -2.1652 N   0  0  0  0  0  0  0  0  0  0  0  0
   -1.2584    1.2073    0.9701 H   0  0  0  0  0  0  0  0  0  0  0  0
    1.2458    0.0250    0.9942 H   0  0  0  0  0  0  0  0  0  0  0  0
    1.6924    1.3618   -1.1162 H   0  0  0  0  0  0  0  0  0  0  0  0
    0.2039    2.2518   -0.7875 H   0  0  0  0  0  0  0  0  0  0  0  0
    1.4487   -1.3314   -1.2287 H   0  0  0  0  0  0  0  0  0  0  0  0
   -2.0768    0.9827   -1.6124 H   0  0  0  0  0  0  0  0  0  0  0  0
   -0.2747   -2.9156   -2.3187 H   0  0  0  0  0  0  0  0  0  0  0  0
   -2.4702   -1.4602   -2.5578 H   0  0  0  0  0  0  0  0  0  0  0  0
    2.8467    1.3273    2.4010 N   0  0  0  0  0  0  0  0  0  0  0  0
    4.2759    1.1610    2.1068 C   0  0  2  0  0  0  0  0  0  0  0  0
    4.5535    0.2696    0.8638 C   0  0  0  0  0  0  0  0  0  0  0  0
    3.6744   -0.4263    0.3486 O   0  0  0  0  0  0  0  0  0  0  0  0
    4.9277    0.5578    3.3536 C   0  0  0  0  0  0  0  0  0  0  0  0
    2.3911    0.5809    2.9251 H   0  0  0  0  0  0  0  0  0  0  0  0
    4.7185    2.1461    1.9211 H   0  0  0  0  0  0  0  0  0  0  0  0
    4.5111   -0.4325    3.5649 H   0  0  0  0  0  0  0  0  0  0  0  0
    6.0085    0.4570    3.2140 H   0  0  0  0  0  0  0  0  0  0  0  0
    4.7520    1.2018    4.2216 H   0  0  0  0  0  0  0  0  0  0  0  0
    5.8158    0.2600    0.3003 N   0  0  0  0  0  0  0  0  0  0  0  0
    6.1678   -0.5037   -0.8912 C   0  0  0  0  0  0  0  0  0  0  0  0
    6.5126    0.8808    0.7044 H   0  0  0  0  0  0  0  0  0  0  0  0
    5.9536   -1.5677   -0.7447 H   0  0  0  0  0  0  0  0  0  0  0  0
    5.6017   -0.1451   -1.7572 H   0  0  0  0  0  0  0  0  0  0  0  0
    7.2355   -0.3958   -1.1072 H   0  0  0  0  0  0  0  0  0  0  0  0
  1  2  2  0  0  0  0
  1  3  1  0  0  0  0
  1  7  1  0  0  0  0
  3  4  1  0  0  0  0
  3  5  1  0  0  0  0
  3  6  1  0  0  0  0
  7  8  1  0  0  0  0
  7 12  1  0  0  0  0
  8  9  1  0  0  0  0
  8 11  1  0  0  0  0
  8 13  1  0  0  0  0
  9 10  2  0  0  0  0
  9 17  1  0  0  0  0
 11 14  1  0  0  0  0
 11 15  1  0  0  0  0
 11 16  1  0  0  0  0
 17 18  1  0  0  0  0
 17 27  1  0  0  0  0
 18 19  1  0  0  0  0
 18 21  1  0  0  0  0
 18 28  1  0  0  0  0
 19 20  2  0  0  0  0
 19 35  1  0  0  0  0
 21 22  1  0  0  0  0
 21 29  1  0  0  0  0
 21 30  1  0  0  0  0
 22 23  1  0  0  0  0
 22 24  2  0  0  0  0
 23 25  2  0  0  0  0
 23 31  1  0  0  0  0
 24 26  1  0  0  0  0
 24 32  1  0  0  0  0
 25 26  1  0  0  0  0
 25 33  1  0  0  0  0
 26 34  1  0  0  0  0
 35 36  1  0  0  0  0
 35 40  1  0  0  0  0
 36 37  1  0  0  0  0
 36 39  1  0  0  0  0
 36 41  1  0  0  0  0
 37 38  2  0  0  0  0
 37 45  1  0  0  0  0
 39 42  1  0  0  0  0
 39 43  1  0  0  0  0
 39 44  1  0  0  0  0
 45 46  1  0  0  0  0
 45 47  1  0  0  0  0
 46 48  1  0  0  0  0
 46 49  1  0  0  0  0
 46 50  1  0  0  0  0
M  CHG  1  23   1
M  END
$$$$

  -OEChem-05262216443D

 50 50  0     1  0  0  0  0  0999 V2000
   -3.5906    0.4337    1.8645 C   0  0  0  0  0  0  0  0  0  0  0  0
   -3.0910    1.0199    0.9110 O   0  0  0  0  0  0  0  0  0  0  0  0
   -4.7420   -0.5281    1.6435 C   0  0  0  0  0  0  0  0  0  0  0  0
   -4.9624   -0.6182    0.5764 H   0  0  0  0  0  0  0  0  0  0  0  0
   -4.4861   -1.5159    2.0350 H   0  0  0  0  0  0  0  0  0  0  0  0
   -5.6357   -0.1631    2.1559 H   0  0  0  0  0  0  0  0  0  0  0  0
   -3.0810    0.6051    3.1362 N   0  0  0  0  0  0  0  0  0  0  0  0
   -2.0581    1.5967    3.5067 C   0  0  2  0  0  0  0  0  0  0  0  0
   -0.6290    1.2095    3.0500 C   0  0  0  0  0  0  0  0  0  0  0  0
    0.2652    0.9304    3.8384 O   0  0  0  0  0  0  0  0  0  0  0  0
   -2.1514    1.8004    5.0243 C   0  0  0  0  0  0  0  0  0  0  0  0
   -3.5341    0.0884    3.8863 H   0  0  0  0  0  0  0  0  0  0  0  0
   -2.2974    2.5539    3.0300 H   0  0  0  0  0  0  0  0  0  0  0  0
   -1.9226    0.8706    5.5554 H   0  0  0  0  0  0  0  0  0  0  0  0
   -1.4389    2.5660    5.3489 H   0  0  0  0  0  0  0  0  0  0  0  0
   -3.1571    2.1276    5.3057 H   0  0  0  0  0  0  0  0  0  0  0  0
   -0.3592    1.1571    1.6970 N   0  0  0  0  0  0  0  0  0  0  0  0
    0.9809    1.1645    1.0921 C   0  0  2  0  0  0  0  0  0  0  0  0
    2.1477    1.8953    1.7915 C   0  0  0  0  0  0  0  0  0  0  0  0
    2.5306    2.9745    1.3559 O   0  0  0  0  0  0  0  0  0  0  0  0
    0.9043    1.5646   -0.3909 C   0  0  0  0  0  0  0  0  0  0  0  0
    0.1350    0.5243   -1.1455 C   0  0  0  0  0  0  0  0  0  0  0  0
    0.7071   -0.7079   -1.4510 N   0  3  0  0  0  0  0  0  0  0  0  0
   -1.1435    0.5442   -1.6341 C   0  0  0  0  0  0  0  0  0  0  0  0
   -0.1560   -1.4487   -2.1009 C   0  0  0  0  0  0  0  0  0  0  0  0
   -1.3255   -0.6966   -2.2361 N   0  0  0  0  0  0  0  0  0  0  0  0
   -1.1651    1.3481    1.0977 H   0  0  0  0  0  0  0  0  0  0  0  0
    1.2790    0.1130    1.1154 H   0  0  0  0  0  0  0  0  0  0  0  0
    1.9074    1.6595   -0.8223 H   0  0  0  0  0  0  0  0  0  0  0  0
    0.4210    2.5438   -0.4778 H   0  0  0  0  0  0  0  0  0  0  0  0
    1.6664   -0.9532   -1.1626 H   0  0  0  0  0  0  0  0  0  0  0  0
   -1.8657    1.3568   -1.5384 H   0  0  0  0  0  0  0  0  0  0  0  0
    0.0117   -2.4641   -2.4630 H   0  0  0  0  0  0  0  0  0  0  0  0
   -2.1875   -1.0090   -2.6915 H   0  0  0  0  0  0  0  0  0  0  0  0
    3.0667    1.0746    2.4157 N   0  0  0  0  0  0  0  0  0  0  0  0
    4.4155    0.9461    1.8453 C   0  0  2  0  0  0  0  0  0  0  0  0
    4.4485    0.2386    0.4599 C   0  0  0  0  0  0  0  0  0  0  0  0
    3.4805   -0.3841    0.0095 O   0  0  0  0  0  0  0  0  0  0  0  0
    5.2639    0.1734    2.8590 C   0  0  0  0  0  0  0  0  0  0  0  0
    2.6542    0.2214    2.7872 H   0  0  0  0  0  0  0  0  0  0  0  0
    4.8487    1.9453    1.7233 H   0  0  0  0  0  0  0  0  0  0  0  0
    4.8717   -0.8392    2.9987 H   0  0  0  0  0  0  0  0  0  0  0  0
    6.3013    0.0999    2.5185 H   0  0  0  0  0  0  0  0  0  0  0  0
    5.2570    0.6854    3.8268 H   0  0  0  0  0  0  0  0  0  0  0  0
    5.5898    0.3173   -0.3151 N   0  0  0  0  0  0  0  0  0  0  0  0
    5.7321   -0.3105   -1.6240 C   0  0  0  0  0  0  0  0  0  0  0  0
    6.3685    0.8597    0.0522 H   0  0  0  0  0  0  0  0  0  0  0  0
    5.5989   -1.3948   -1.5460 H   0  0  0  0  0  0  0  0  0  0  0  0
    4.9917    0.0884   -2.3252 H   0  0  0  0  0  0  0  0  0  0  0  0
    6.7299   -0.1155   -2.0296 H   0  0  0  0  0  0  0  0  0  0  0  0
  1  2  2  0  0  0  0
  1  3  1  0  0  0  0
  1  7  1  0  0  0  0
  3  4  1  0  0  0  0
  3  5  1  0  0  0  0
  3  6  1  0  0  0  0
  7  8  1  0  0  0  0
  7 12  1  0  0  0  0
  8  9  1  0  0  0  0
  8 11  1  0  0  0  0
  8 13  1  0  0  0  0
  9 10  2  0  0  0  0
  9 17  1  0  0  0  0
 11 14  1  0  0  0  0
 11 15  1  0  0  0  0
 11 16  1  0  0  0  0
 17 18  1  0  0  0  0
 17 27  1  0  0  0  0
 18 19  1  0  0  0  0
 18 21  1  0  0  0  0
 18 28  1  0  0  0  0
 19 20  2  0  0  0  0
 19 35  1  0  0  0  0
 21 22  1  0  0  0  0
 21 29  1  0  0  0  0
 21 30  1  0  0  0  0
 22 23  1  0  0  0  0
 22 24  2  0  0  0  0
 23 25  2  0  0  0  0
 23 31  1  0  0  0  0
 24 26  1  0  0  0  0
 24 32  1  0  0  0  0
 25 26  1  0  0  0  0
 25 33  1  0  0  0  0
 26 34  1  0  0  0  0
 35 36  1  0  0  0  0
 35 40  1  0  0  0  0
 36 37  1  0  0  0  0
 36 39  1  0  0  0  0
 36 41  1  0  0  0  0
 37 38  2  0  0  0  0
 37 45  1  0  0  0  0
 39 42  1  0  0  0  0
 39 43  1  0  0  0  0
 39 44  1  0  0  0  0
 45 46  1  0  0  0  0
 45 47  1  0  0  0  0
 46 48  1  0  0  0  0
 46 49  1  0  0  0  0
 46 50  1  0  0  0  0
M  CHG  1  23   1
M  END
$$$$

  -OEChem-05262216443D

 50 50  0     1  0  0  0  0  0999 V2000
   -3.5732    0.5746    1.8236 C   0  0  0  0  0  0  0  0  0  0  0  0
   -3.0277    1.2083    0.9272 O   0  0  0  0  0  0  0  0  0  0  0  0
   -4.7615   -0.3126    1.5073 C   0  0  0  0  0  0  0  0  0  0  0  0
   -5.0880   -0.1566    0.4755 H   0  0  0  0  0  0  0  0  0  0  0  0
   -4.4897   -1.3631    1.6382 H   0  0  0  0  0  0  0  0  0  0  0  0
   -5.5934   -0.0740    2.1750 H   0  0  0  0  0  0  0  0  0  0  0  0
   -3.0763    0.6155    3.1110 N   0  0  0  0  0  0  0  0  0  0  0  0
   -2.0057    1.5150    3.5698 C   0  0  2  0  0  0  0  0  0  0  0  0
   -0.5943    1.0690    3.1145 C   0  0  0  0  0  0  0  0  0  0  0  0
    0.2684    0.7032    3.9022 O   0  0  0  0  0  0  0  0  0  0  0  0
   -2.1224    1.6236    5.0953 C   0  0  0  0  0  0  0  0  0  0  0  0
   -3.5585    0.0554    3.8103 H   0  0  0  0  0  0  0  0  0  0  0  0
   -2.1729    2.5149    3.1548 H   0  0  0  0  0  0  0  0  0  0  0  0
   -1.9542    0.6500    5.5671 H   0  0  0  0  0  0  0  0  0  0  0  0
   -1.3773    2.3268    5.4823 H   0  0  0  0  0  0  0  0  0  0  0  0
   -3.1154    1.9848    5.3806 H   0  0  0  0  0  0  0  0  0  0  0  0
   -0.3032    1.0702    1.7645 N   0  0  0  0  0  0  0  0  0  0  0  0
    1.0523    1.0537    1.1951 C   0  0  2  0  0  0  0  0  0  0  0  0
    2.2193    1.7066    1.9664 C   0  0  0  0  0  0  0  0  0  0  0  0
    2.4866    2.8829    1.7540 O   0  0  0  0  0  0  0  0  0  0  0  0
    1.0072    1.6139   -0.2383 C   0  0  0  0  0  0  0  0  0  0  0  0
    0.1901    0.7130   -1.1126 C   0  0  0  0  0  0  0  0  0  0  0  0
    0.6955   -0.5059   -1.5558 N   0  3  0  0  0  0  0  0  0  0  0  0
   -1.0793    0.8620   -1.6032 C   0  0  0  0  0  0  0  0  0  0  0  0
   -0.1979   -1.1143   -2.2962 C   0  0  0  0  0  0  0  0  0  0  0  0
   -1.3229   -0.2877   -2.3472 N   0  0  0  0  0  0  0  0  0  0  0  0
   -1.0814    1.3523    1.1649 H   0  0  0  0  0  0  0  0  0  0  0  0
    1.3162   -0.0055    1.1248 H   0  0  0  0  0  0  0  0  0  0  0  0
    2.0154    1.7138   -0.6529 H   0  0  0  0  0  0  0  0  0  0  0  0
    0.5727    2.6196   -0.2167 H   0  0  0  0  0  0  0  0  0  0  0  0
    1.6434   -0.8278   -1.3080 H   0  0  0  0  0  0  0  0  0  0  0  0
   -1.7569    1.6974   -1.4184 H   0  0  0  0  0  0  0  0  0  0  0  0
   -0.0798   -2.0849   -2.7804 H   0  0  0  0  0  0  0  0  0  0  0  0
   -2.1944   -0.4942   -2.8432 H   0  0  0  0  0  0  0  0  0  0  0  0
    3.2485    0.8446    2.2964 N   0  0  0  0  0  0  0  0  0  0  0  0
    4.5367    0.9271    1.5945 C   0  0  2  0  0  0  0  0  0  0  0  0
    4.5127    0.2476    0.1965 C   0  0  0  0  0  0  0  0  0  0  0  0
    3.5206   -0.3609   -0.2194 O   0  0  0  0  0  0  0  0  0  0  0  0
    5.5825    0.2744    2.5033 C   0  0  0  0  0  0  0  0  0  0  0  0
    2.9260   -0.0991    2.4963 H   0  0  0  0  0  0  0  0  0  0  0  0
    4.8150    1.9774    1.4520 H   0  0  0  0  0  0  0  0  0  0  0  0
    5.3559   -0.7861    2.6529 H   0  0  0  0  0  0  0  0  0  0  0  0
    6.5823    0.3589    2.0670 H   0  0  0  0  0  0  0  0  0  0  0  0
    5.5935    0.7681    3.4809 H   0  0  0  0  0  0  0  0  0  0  0  0
    5.6107    0.3549   -0.6356 N   0  0  0  0  0  0  0  0  0  0  0  0
    5.6889   -0.2402   -1.9651 C   0  0  0  0  0  0  0  0  0  0  0  0
    6.4149    0.8710   -0.2858 H   0  0  0  0  0  0  0  0  0  0  0  0
    5.5304   -1.3227   -1.9130 H   0  0  0  0  0  0  0  0  0  0  0  0
    4.9339    0.1973   -2.6262 H   0  0  0  0  0  0  0  0  0  0  0  0
    6.6757   -0.0595   -2.4031 H   0  0  0  0  0  0  0  0  0  0  0  0
  1  2  2  0  0  0  0
  1  3  1  0  0  0  0
  1  7  1  0  0  0  0
  3  4  1  0  0  0  0
  3  5  1  0  0  0  0
  3  6  1  0  0  0  0
  7  8  1  0  0  0  0
  7 12  1  0  0  0  0
  8  9  1  0  0  0  0
  8 11  1  0  0  0  0
  8 13  1  0  0  0  0
  9 10  2  0  0  0  0
  9 17  1  0  0  0  0
 11 14  1  0  0  0  0
 11 15  1  0  0  0  0
 11 16  1  0  0  0  0
 17 18  1  0  0  0  0
 17 27  1  0  0  0  0
 18 19  1  0  0  0  0
 18 21  1  0  0  0  0
 18 28  1  0  0  0  0
 19 20  2  0  0  0  0
 19 35  1  0  0  0  0
 21 22  1  0  0  0  0
 21 29  1  0  0  0  0
 21 30  1  0  0  0  0
 22 23  1  0  0  0  0
 22 24  2  0  0  0  0
 23 25  2  0  0  0  0
 23 31  1  0  0  0  0
 24 26  1  0  0  0  0
 24 32  1  0  0  0  0
 25 26  1  0  0  0  0
 25 33  1  0  0  0  0
 26 34  1  0  0  0  0
 35 36  1  0  0  0  0
 35 40  1  0  0  0  0
 36 37  1  0  0  0  0
 36 39  1  0  0  0  0
 36 41  1  0  0  0  0
 37 38  2  0  0  0  0
 37 45  1  0  0  0  0
 39 42  1  0  0  0  0
 39 43  1  0  0  0  0
 39 44  1  0  0  0  0
 45 46  1  0  0  0  0
 45 47  1  0  0  0  0
 46 48  1  0  0  0  0
 46 49  1  0  0  0  0
 46 50  1  0  0  0  0
M  CHG  1  23   1
M  END
$$$$

  -OEChem-05262216443D

 50 50  0     1  0  0  0  0  0999 V2000
   -3.5981    0.8417    1.9532 C   0  0  0  0  0  0  0  0  0  0  0  0
   -2.9828    1.3762    1.0378 O   0  0  0  0  0  0  0  0  0  0  0  0
   -4.9785    0.2657    1.7030 C   0  0  0  0  0  0  0  0  0  0  0  0
   -5.2875    0.4545    0.6714 H   0  0  0  0  0  0  0  0  0  0  0  0
   -4.9731   -0.8129    1.8781 H   0  0  0  0  0  0  0  0  0  0  0  0
   -5.7035    0.7312    2.3756 H   0  0  0  0  0  0  0  0  0  0  0  0
   -3.0230    0.7210    3.2021 N   0  0  0  0  0  0  0  0  0  0  0  0
   -1.7676    1.3695    3.6148 C   0  0  2  0  0  0  0  0  0  0  0  0
   -0.4987    0.6706    3.0660 C   0  0  0  0  0  0  0  0  0  0  0  0
    0.3363    0.1554    3.7982 O   0  0  0  0  0  0  0  0  0  0  0  0
   -1.7787    1.4440    5.1472 C   0  0  0  0  0  0  0  0  0  0  0  0
   -3.5759    0.2598    3.9209 H   0  0  0  0  0  0  0  0  0  0  0  0
   -1.7519    2.3971    3.2354 H   0  0  0  0  0  0  0  0  0  0  0  0
   -1.7854    0.4398    5.5838 H   0  0  0  0  0  0  0  0  0  0  0  0
   -0.8879    1.9695    5.5073 H   0  0  0  0  0  0  0  0  0  0  0  0
   -2.6618    1.9862    5.4994 H   0  0  0  0  0  0  0  0  0  0  0  0
   -0.3034    0.6207    1.6983 N   0  0  0  0  0  0  0  0  0  0  0  0
    1.0183    0.5132    1.0570 C   0  0  2  0  0  0  0  0  0  0  0  0
    2.2119    1.1478    1.8084 C   0  0  0  0  0  0  0  0  0  0  0  0
    2.2768    2.3691    1.8835 O   0  0  0  0  0  0  0  0  0  0  0  0
    0.9184    1.1813   -0.3293 C   0  0  0  0  0  0  0  0  0  0  0  0
   -0.0382    0.4515   -1.2324 C   0  0  0  0  0  0  0  0  0  0  0  0
    0.2351   -0.7633   -1.8585 N   0  3  0  0  0  0  0  0  0  0  0  0
   -1.3040    0.8352   -1.5923 C   0  0  0  0  0  0  0  0  0  0  0  0
   -0.7908   -1.1368   -2.5839 C   0  0  0  0  0  0  0  0  0  0  0  0
   -1.7780   -0.1630   -2.4346 N   0  0  0  0  0  0  0  0  0  0  0  0
   -1.0561    1.0607    1.1655 H   0  0  0  0  0  0  0  0  0  0  0  0
    1.2460   -0.5494    0.9326 H   0  0  0  0  0  0  0  0  0  0  0  0
    1.9030    1.2195   -0.8052 H   0  0  0  0  0  0  0  0  0  0  0  0
    0.5898    2.2195   -0.2019 H   0  0  0  0  0  0  0  0  0  0  0  0
    1.1399   -1.2379   -1.7734 H   0  0  0  0  0  0  0  0  0  0  0  0
   -1.8304    1.7324   -1.2606 H   0  0  0  0  0  0  0  0  0  0  0  0
   -0.8557   -2.0387   -3.1951 H   0  0  0  0  0  0  0  0  0  0  0  0
   -2.7027   -0.1745   -2.8742 H   0  0  0  0  0  0  0  0  0  0  0  0
    3.3735    0.4031    1.8947 N   0  0  0  0  0  0  0  0  0  0  0  0
    4.6695    0.9409    1.4632 C   0  0  2  0  0  0  0  0  0  0  0  0
    4.9026    0.6812   -0.0445 C   0  0  0  0  0  0  0  0  0  0  0  0
    4.1307   -0.0389   -0.6796 O   0  0  0  0  0  0  0  0  0  0  0  0
    5.7530    0.2711    2.3125 C   0  0  0  0  0  0  0  0  0  0  0  0
    3.2424   -0.5905    1.7272 H   0  0  0  0  0  0  0  0  0  0  0  0
    4.7148    2.0219    1.6363 H   0  0  0  0  0  0  0  0  0  0  0  0
    5.7566   -0.8116    2.1494 H   0  0  0  0  0  0  0  0  0  0  0  0
    6.7418    0.6645    2.0575 H   0  0  0  0  0  0  0  0  0  0  0  0
    5.5712    0.4626    3.3754 H   0  0  0  0  0  0  0  0  0  0  0  0
    5.9660    1.2702   -0.7012 N   0  0  0  0  0  0  0  0  0  0  0  0
    6.2529    1.0688   -2.1170 C   0  0  0  0  0  0  0  0  0  0  0  0
    6.5806    1.8714   -0.1580 H   0  0  0  0  0  0  0  0  0  0  0  0
    6.4111    0.0063   -2.3299 H   0  0  0  0  0  0  0  0  0  0  0  0
    5.4237    1.4325   -2.7326 H   0  0  0  0  0  0  0  0  0  0  0  0
    7.1580    1.6145   -2.4013 H   0  0  0  0  0  0  0  0  0  0  0  0
  1  2  2  0  0  0  0
  1  3  1  0  0  0  0
  1  7  1  0  0  0  0
  3  4  1  0  0  0  0
  3  5  1  0  0  0  0
  3  6  1  0  0  0  0
  7  8  1  0  0  0  0
  7 12  1  0  0  0  0
  8  9  1  0  0  0  0
  8 11  1  0  0  0  0
  8 13  1  0  0  0  0
  9 10  2  0  0  0  0
  9 17  1  0  0  0  0
 11 14  1  0  0  0  0
 11 15  1  0  0  0  0
 11 16  1  0  0  0  0
 17 18  1  0  0  0  0
 17 27  1  0  0  0  0
 18 19  1  0  0  0  0
 18 21  1  0  0  0  0
 18 28  1  0  0  0  0
 19 20  2  0  0  0  0
 19 35  1  0  0  0  0
 21 22  1  0  0  0  0
 21 29  1  0  0  0  0
 21 30  1  0  0  0  0
 22 23  1  0  0  0  0
 22 24  2  0  0  0  0
 23 25  2  0  0  0  0
 23 31  1  0  0  0  0
 24 26  1  0  0  0  0
 24 32  1  0  0  0  0
 25 26  1  0  0  0  0
 25 33  1  0  0  0  0
 26 34  1  0  0  0  0
 35 36  1  0  0  0  0
 35 40  1  0  0  0  0
 36 37  1  0  0  0  0
 36 39  1  0  0  0  0
 36 41  1  0  0  0  0
 37 38  2  0  0  0  0
 37 45  1  0  0  0  0
 39 42  1  0  0  0  0
 39 43  1  0  0  0  0
 39 44  1  0  0  0  0
 45 46  1  0  0  0  0
 45 47  1  0  0  0  0
 46 48  1  0  0  0  0
 46 49  1  0  0  0  0
 46 50  1  0  0  0  0
M  CHG  1  23   1
M  END
$$$$

  -OEChem-05262216443D

 50 50  0     1  0  0  0  0  0999 V2000
   -3.5056    1.0025    2.1055 C   0  0  0  0  0  0  0  0  0  0  0  0
   -2.8728    1.5040    1.1832 O   0  0  0  0  0  0  0  0  0  0  0  0
   -4.9651    0.6387    1.9119 C   0  0  0  0  0  0  0  0  0  0  0  0
   -5.2979    0.9225    0.9099 H   0  0  0  0  0  0  0  0  0  0  0  0
   -5.1027   -0.4381    2.0378 H   0  0  0  0  0  0  0  0  0  0  0  0
   -5.5807    1.1642    2.6466 H   0  0  0  0  0  0  0  0  0  0  0  0
   -2.8835    0.7166    3.3038 N   0  0  0  0  0  0  0  0  0  0  0  0
   -1.5217    1.1419    3.6672 C   0  0  2  0  0  0  0  0  0  0  0  0
   -0.4077    0.3063    2.9886 C   0  0  0  0  0  0  0  0  0  0  0  0
    0.3860   -0.3748    3.6258 O   0  0  0  0  0  0  0  0  0  0  0  0
   -1.4278    1.1031    5.1980 C   0  0  0  0  0  0  0  0  0  0  0  0
   -3.4539    0.2861    4.0278 H   0  0  0  0  0  0  0  0  0  0  0  0
   -1.3727    2.1809    3.3527 H   0  0  0  0  0  0  0  0  0  0  0  0
   -1.5552    0.0802    5.5672 H   0  0  0  0  0  0  0  0  0  0  0  0
   -0.4484    1.4673    5.5259 H   0  0  0  0  0  0  0  0  0  0  0  0
   -2.1978    1.7374    5.6475 H   0  0  0  0  0  0  0  0  0  0  0  0
   -0.3007    0.3227    1.6098 N   0  0  0  0  0  0  0  0  0  0  0  0
    0.9884    0.2100    0.9026 C   0  0  2  0  0  0  0  0  0  0  0  0
    2.2185    0.7806    1.6497 C   0  0  0  0  0  0  0  0  0  0  0  0
    2.1675    1.9327    2.0646 O   0  0  0  0  0  0  0  0  0  0  0  0
    0.8536    0.9921   -0.4185 C   0  0  0  0  0  0  0  0  0  0  0  0
   -0.1782    0.3836   -1.3322 C   0  0  0  0  0  0  0  0  0  0  0  0
   -0.0253   -0.7821   -2.0823 N   0  3  0  0  0  0  0  0  0  0  0  0
   -1.4315    0.8796   -1.5843 C   0  0  0  0  0  0  0  0  0  0  0  0
   -1.1141   -1.0217   -2.7725 C   0  0  0  0  0  0  0  0  0  0  0  0
   -2.0203   -0.0034   -2.4802 N   0  0  0  0  0  0  0  0  0  0  0  0
   -1.0218    0.8978    1.1702 H   0  0  0  0  0  0  0  0  0  0  0  0
    1.1839   -0.8475    0.7018 H   0  0  0  0  0  0  0  0  0  0  0  0
    1.8157    1.0236   -0.9393 H   0  0  0  0  0  0  0  0  0  0  0  0
    0.5831    2.0299   -0.1908 H   0  0  0  0  0  0  0  0  0  0  0  0
    0.8421   -1.3259   -2.0939 H   0  0  0  0  0  0  0  0  0  0  0  0
   -1.8732    1.7773   -1.1472 H   0  0  0  0  0  0  0  0  0  0  0  0
   -1.2776   -1.8590   -3.4531 H   0  0  0  0  0  0  0  0  0  0  0  0
   -2.9666    0.0858   -2.8614 H   0  0  0  0  0  0  0  0  0  0  0  0
    3.4527    0.1999    1.4206 N   0  0  0  0  0  0  0  0  0  0  0  0
    4.6850    0.9830    1.2530 C   0  0  2  0  0  0  0  0  0  0  0  0
    4.9915    1.2084   -0.2445 C   0  0  0  0  0  0  0  0  0  0  0  0
    4.3615    0.5909   -1.1021 O   0  0  0  0  0  0  0  0  0  0  0  0
    5.8209    0.2169    1.9349 C   0  0  0  0  0  0  0  0  0  0  0  0
    3.4252   -0.6781    0.9104 H   0  0  0  0  0  0  0  0  0  0  0  0
    4.5933    1.9635    1.7327 H   0  0  0  0  0  0  0  0  0  0  0  0
    5.9656   -0.7596    1.4616 H   0  0  0  0  0  0  0  0  0  0  0  0
    6.7582    0.7777    1.8679 H   0  0  0  0  0  0  0  0  0  0  0  0
    5.5890    0.0604    2.9935 H   0  0  0  0  0  0  0  0  0  0  0  0
    5.9667    2.1051   -0.6365 N   0  0  0  0  0  0  0  0  0  0  0  0
    6.3192    2.3514   -2.0301 C   0  0  0  0  0  0  0  0  0  0  0  0
    6.4680    2.6072    0.0919 H   0  0  0  0  0  0  0  0  0  0  0  0
    6.6886    1.4336   -2.5001 H   0  0  0  0  0  0  0  0  0  0  0  0
    5.4482    2.7088   -2.5895 H   0  0  0  0  0  0  0  0  0  0  0  0
    7.1045    3.1111   -2.0935 H   0  0  0  0  0  0  0  0  0  0  0  0
  1  2  2  0  0  0  0
  1  3  1  0  0  0  0
  1  7  1  0  0  0  0
  3  4  1  0  0  0  0
  3  5  1  0  0  0  0
  3  6  1  0  0  0  0
  7  8  1  0  0  0  0
  7 12  1  0  0  0  0
  8  9  1  0  0  0  0
  8 11  1  0  0  0  0
  8 13  1  0  0  0  0
  9 10  2  0  0  0  0
  9 17  1  0  0  0  0
 11 14  1  0  0  0  0
 11 15  1  0  0  0  0
 11 16  1  0  0  0  0
 17 18  1  0  0  0  0
 17 27  1  0  0  0  0
 18 19  1  0  0  0  0
 18 21  1  0  0  0  0
 18 28  1  0  0  0  0
 19 20  2  0  0  0  0
 19 35  1  0  0  0  0
 21 22  1  0  0  0  0
 21 29  1  0  0  0  0
 21 30  1  0  0  0  0
 22 23  1  0  0  0  0
 22 24  2  0  0  0  0
 23 25  2  0  0  0  0
 23 31  1  0  0  0  0
 24 26  1  0  0  0  0
 24 32  1  0  0  0  0
 25 26  1  0  0  0  0
 25 33  1  0  0  0  0
 26 34  1  0  0  0  0
 35 36  1  0  0  0  0
 35 40  1  0  0  0  0
 36 37  1  0  0  0  0
 36 39  1  0  0  0  0
 36 41  1  0  0  0  0
 37 38  2  0  0  0  0
 37 45  1  0  0  0  0
 39 42  1  0  0  0  0
 39 43  1  0  0  0  0
 39 44  1  0  0  0  0
 45 46  1  0  0  0  0
 45 47  1  0  0  0  0
 46 48  1  0  0  0  0
 46 49  1  0  0  0  0
 46 50  1  0  0  0  0
M  CHG  1  23   1
M  END
$$$$

  -OEChem-05262216443D

 50 50  0     1  0  0  0  0  0999 V2000
   -3.3865    1.0310    2.2812 C   0  0  0  0  0  0  0  0  0  0  0  0
   -2.7778    1.5463    1.3501 O   0  0  0  0  0  0  0  0  0  0  0  0
   -4.8719    0.7542    2.1534 C   0  0  0  0  0  0  0  0  0  0  0  0
   -5.2530    1.1548    1.2101 H   0  0  0  0  0  0  0  0  0  0  0  0
   -5.0551   -0.3230    2.1799 H   0  0  0  0  0  0  0  0  0  0  0  0
   -5.4116    1.2274    2.9778 H   0  0  0  0  0  0  0  0  0  0  0  0
   -2.7172    0.6467    3.4250 N   0  0  0  0  0  0  0  0  0  0  0  0
   -1.3051    0.9439    3.7128 C   0  0  2  0  0  0  0  0  0  0  0  0
   -0.3143    0.0619    2.9144 C   0  0  0  0  0  0  0  0  0  0  0  0
    0.4248   -0.7548    3.4503 O   0  0  0  0  0  0  0  0  0  0  0  0
   -1.1121    0.8137    5.2288 C   0  0  0  0  0  0  0  0  0  0  0  0
   -3.2688    0.2065    4.1577 H   0  0  0  0  0  0  0  0  0  0  0  0
   -1.0914    1.9836    3.4416 H   0  0  0  0  0  0  0  0  0  0  0  0
   -1.3099   -0.2117    5.5578 H   0  0  0  0  0  0  0  0  0  0  0  0
   -0.0831    1.0701    5.5022 H   0  0  0  0  0  0  0  0  0  0  0  0
   -1.7870    1.4903    5.7619 H   0  0  0  0  0  0  0  0  0  0  0  0
   -0.2657    0.1822    1.5371 N   0  0  0  0  0  0  0  0  0  0  0  0
    0.9907    0.0684    0.7708 C   0  0  2  0  0  0  0  0  0  0  0  0
    2.2756    0.5272    1.5100 C   0  0  0  0  0  0  0  0  0  0  0  0
    2.2244    1.5307    2.2123 O   0  0  0  0  0  0  0  0  0  0  0  0
    0.8310    0.9704   -0.4701 C   0  0  0  0  0  0  0  0  0  0  0  0
   -0.2696    0.4928   -1.3837 C   0  0  0  0  0  0  0  0  0  0  0  0
   -0.2180   -0.6038   -2.2446 N   0  3  0  0  0  0  0  0  0  0  0  0
   -1.5023    1.0767   -1.5303 C   0  0  0  0  0  0  0  0  0  0  0  0
   -1.3482   -0.7187   -2.8997 C   0  0  0  0  0  0  0  0  0  0  0  0
   -2.1797    0.3151   -2.4735 N   0  0  0  0  0  0  0  0  0  0  0  0
   -0.9581    0.8464    1.1868 H   0  0  0  0  0  0  0  0  0  0  0  0
    1.1301   -0.9760    0.4773 H   0  0  0  0  0  0  0  0  0  0  0  0
    1.7656    1.0043   -1.0382 H   0  0  0  0  0  0  0  0  0  0  0  0
    0.6253    1.9956   -0.1399 H   0  0  0  0  0  0  0  0  0  0  0  0
    0.6100   -1.1972   -2.3423 H   0  0  0  0  0  0  0  0  0  0  0  0
   -1.8729    1.9535   -0.9950 H   0  0  0  0  0  0  0  0  0  0  0  0
   -1.5908   -1.4797   -3.6435 H   0  0  0  0  0  0  0  0  0  0  0  0
   -3.1350    0.4900   -2.7988 H   0  0  0  0  0  0  0  0  0  0  0  0
    3.5030    0.1558    0.9893 N   0  0  0  0  0  0  0  0  0  0  0  0
    4.6952    1.0174    1.0059 C   0  0  2  0  0  0  0  0  0  0  0  0
    4.9165    1.6780   -0.3724 C   0  0  0  0  0  0  0  0  0  0  0  0
    4.3105    1.2586   -1.3563 O   0  0  0  0  0  0  0  0  0  0  0  0
    5.8930    0.1465    1.3928 C   0  0  0  0  0  0  0  0  0  0  0  0
    3.4713   -0.5288    0.2397 H   0  0  0  0  0  0  0  0  0  0  0  0
    4.5944    1.8144    1.7504 H   0  0  0  0  0  0  0  0  0  0  0  0
    6.0425   -0.6530    0.6599 H   0  0  0  0  0  0  0  0  0  0  0  0
    6.8062    0.7477    1.4414 H   0  0  0  0  0  0  0  0  0  0  0  0
    5.7275   -0.3075    2.3754 H   0  0  0  0  0  0  0  0  0  0  0  0
    5.7878    2.7407   -0.5147 N   0  0  0  0  0  0  0  0  0  0  0  0
    6.0417    3.4073   -1.7872 C   0  0  0  0  0  0  0  0  0  0  0  0
    6.2623    3.0779    0.3188 H   0  0  0  0  0  0  0  0  0  0  0  0
    6.4259    2.6949   -2.5250 H   0  0  0  0  0  0  0  0  0  0  0  0
    5.1212    3.8552   -2.1761 H   0  0  0  0  0  0  0  0  0  0  0  0
    6.7839    4.2012   -1.6580 H   0  0  0  0  0  0  0  0  0  0  0  0
  1  2  2  0  0  0  0
  1  3  1  0  0  0  0
  1  7  1  0  0  0  0
  3  4  1  0  0  0  0
  3  5  1  0  0  0  0
  3  6  1  0  0  0  0
  7  8  1  0  0  0  0
  7 12  1  0  0  0  0
  8  9  1  0  0  0  0
  8 11  1  0  0  0  0
  8 13  1  0  0  0  0
  9 10  2  0  0  0  0
  9 17  1  0  0  0  0
 11 14  1  0  0  0  0
 11 15  1  0  0  0  0
 11 16  1  0  0  0  0
 17 18  1  0  0  0  0
 17 27  1  0  0  0  0
 18 19  1  0  0  0  0
 18 21  1  0  0  0  0
 18 28  1  0  0  0  0
 19 20  2  0  0  0  0
 19 35  1  0  0  0  0
 21 22  1  0  0  0  0
 21 29  1  0  0  0  0
 21 30  1  0  0  0  0
 22 23  1  0  0  0  0
 22 24  2  0  0  0  0
 23 25  2  0  0  0  0
 23 31  1  0  0  0  0
 24 26  1  0  0  0  0
 24 32  1  0  0  0  0
 25 26  1  0  0  0  0
 25 33  1  0  0  0  0
 26 34  1  0  0  0  0
 35 36  1  0  0  0  0
 35 40  1  0  0  0  0
 36 37  1  0  0  0  0
 36 39  1  0  0  0  0
 36 41  1  0  0  0  0
 37 38  2  0  0  0  0
 37 45  1  0  0  0  0
 39 42  1  0  0  0  0
 39 43  1  0  0  0  0
 39 44  1  0  0  0  0
 45 46  1  0  0  0  0
 45 47  1  0  0  0  0
 46 48  1  0  0  0  0
 46 49  1  0  0  0  0
 46 50  1  0  0  0  0
M  CHG  1  23   1
M  END
$$$$

  -OEChem-05262216443D

 50 50  0     1  0  0  0  0  0999 V2000
   -2.6613   -0.7354    1.6358 C   0  0  0  0  0  0  0  0  0  0  0  0
   -2.6428   -0.3709    0.4658 O   0  0  0  0  0  0  0  0  0  0  0  0
   -2.7019   -2.2137    1.9707 C   0  0  0  0  0  0  0  0  0  0  0  0
   -2.7821   -2.8075    1.0561 H   0  0  0  0  0  0  0  0  0  0  0  0
   -1.7912   -2.5033    2.5008 H   0  0  0  0  0  0  0  0  0  0  0  0
   -3.5659   -2.4291    2.6046 H   0  0  0  0  0  0  0  0  0  0  0  0
   -2.5694    0.1951    2.6508 N   0  0  0  0  0  0  0  0  0  0  0  0
   -2.6075    1.6555    2.4660 C   0  0  2  0  0  0  0  0  0  0  0  0
   -1.2840    2.2349    1.9085 C   0  0  0  0  0  0  0  0  0  0  0  0
   -0.8420    3.3108    2.2828 O   0  0  0  0  0  0  0  0  0  0  0  0
   -2.9848    2.2692    3.8198 C   0  0  0  0  0  0  0  0  0  0  0  0
   -2.5364   -0.1612    3.6034 H   0  0  0  0  0  0  0  0  0  0  0  0
   -3.3976    1.9081    1.7510 H   0  0  0  0  0  0  0  0  0  0  0  0
   -2.1998    2.0798    4.5594 H   0  0  0  0  0  0  0  0  0  0  0  0
   -3.1128    3.3525    3.7245 H   0  0  0  0  0  0  0  0  0  0  0  0
   -3.9247    1.8452    4.1860 H   0  0  0  0  0  0  0  0  0  0  0  0
   -0.7866    1.7490    0.7156 N   0  0  0  0  0  0  0  0  0  0  0  0
    0.5523    1.1406    0.5446 C   0  0  2  0  0  0  0  0  0  0  0  0
    1.6550    1.2958    1.6335 C   0  0  0  0  0  0  0  0  0  0  0  0
    1.4233    1.6073    2.7896 O   0  0  0  0  0  0  0  0  0  0  0  0
    1.0708    1.7733   -0.7657 C   0  0  0  0  0  0  0  0  0  0  0  0
    0.2106    1.3718   -1.9419 C   0  0  0  0  0  0  0  0  0  0  0  0
    0.1805    0.1395   -2.5976 N   0  3  0  0  0  0  0  0  0  0  0  0
   -0.7087    2.1865   -2.5529 C   0  0  0  0  0  0  0  0  0  0  0  0
   -0.7123    0.1598   -3.5583 C   0  0  0  0  0  0  0  0  0  0  0  0
   -1.2887    1.4284   -3.5618 N   0  0  0  0  0  0  0  0  0  0  0  0
   -1.5066    1.1551    0.2967 H   0  0  0  0  0  0  0  0  0  0  0  0
    0.4199    0.0622    0.4171 H   0  0  0  0  0  0  0  0  0  0  0  0
    2.1038    1.4756   -0.9731 H   0  0  0  0  0  0  0  0  0  0  0  0
    1.0707    2.8645   -0.6520 H   0  0  0  0  0  0  0  0  0  0  0  0
    0.7748   -0.6505   -2.3348 H   0  0  0  0  0  0  0  0  0  0  0  0
   -0.9419    3.2149   -2.2726 H   0  0  0  0  0  0  0  0  0  0  0  0
   -0.9618   -0.6642   -4.2295 H   0  0  0  0  0  0  0  0  0  0  0  0
   -2.0322    1.7473   -4.1908 H   0  0  0  0  0  0  0  0  0  0  0  0
    2.8822    0.7024    1.4027 N   0  0  0  0  0  0  0  0  0  0  0  0
    4.0696    0.9096    2.2419 C   0  0  2  0  0  0  0  0  0  0  0  0
    5.3102    1.0757    1.3380 C   0  0  0  0  0  0  0  0  0  0  0  0
    5.1949    0.8989    0.1266 O   0  0  0  0  0  0  0  0  0  0  0  0
    4.2213   -0.2893    3.1823 C   0  0  0  0  0  0  0  0  0  0  0  0
    3.0976    0.4611    0.4372 H   0  0  0  0  0  0  0  0  0  0  0  0
    3.9641    1.8250    2.8357 H   0  0  0  0  0  0  0  0  0  0  0  0
    4.3493   -1.2140    2.6104 H   0  0  0  0  0  0  0  0  0  0  0  0
    5.0898   -0.1594    3.8350 H   0  0  0  0  0  0  0  0  0  0  0  0
    3.3312   -0.3880    3.8120 H   0  0  0  0  0  0  0  0  0  0  0  0
    6.5362    1.4385    1.8616 N   0  0  0  0  0  0  0  0  0  0  0  0
    7.7335    1.6155    1.0471 C   0  0  0  0  0  0  0  0  0  0  0  0
    6.5971    1.5970    2.8639 H   0  0  0  0  0  0  0  0  0  0  0  0
    7.9898    0.6830    0.5329 H   0  0  0  0  0  0  0  0  0  0  0  0
    7.5757    2.3988    0.2980 H   0  0  0  0  0  0  0  0  0  0  0  0
    8.5814    1.9060    1.6755 H   0  0  0  0  0  0  0  0  0  0  0  0
  1  2  2  0  0  0  0
  1  3  1  0  0  0  0
  1  7  1  0  0  0  0
  3  4  1  0  0  0  0
  3  5  1  0  0  0  0
  3  6  1  0  0  0  0
  7  8  1  0  0  0  0
  7 12  1  0  0  0  0
  8  9  1  0  0  0  0
  8 11  1  0  0  0  0
  8 13  1  0  0  0  0
  9 10  2  0  0  0  0
  9 17  1  0  0  0  0
 11 14  1  0  0  0  0
 11 15  1  0  0  0  0
 11 16  1  0  0  0  0
 17 18  1  0  0  0  0
 17 27  1  0  0  0  0
 18 19  1  0  0  0  0
 18 21  1  0  0  0  0
 18 28  1  0  0  0  0
 19 20  2  0  0  0  0
 19 35  1  0  0  0  0
 21 22  1  0  0  0  0
 21 29  1  0  0  0  0
 21 30  1  0  0  0  0
 22 23  1  0  0  0  0
 22 24  2  0  0  0  0
 23 25  2  0  0  0  0
 23 31  1  0  0  0  0
 24 26  1  0  0  0  0
 24 32  1  0  0  0  0
 25 26  1  0  0  0  0
 25 33  1  0  0  0  0
 26 34  1  0  0  0  0
 35 36  1  0  0  0  0
 35 40  1  0  0  0  0
 36 37  1  0  0  0  0
 36 39  1  0  0  0  0
 36 41  1  0  0  0  0
 37 38  2  0  0  0  0
 37 45  1  0  0  0  0
 39 42  1  0  0  0  0
 39 43  1  0  0  0  0
 39 44  1  0  0  0  0
 45 46  1  0  0  0  0
 45 47  1  0  0  0  0
 46 48  1  0  0  0  0
 46 49  1  0  0  0  0
 46 50  1  0  0  0  0
M  CHG  1  23   1
M  END
$$$$

  -OEChem-05262216443D

 50 50  0     1  0  0  0  0  0999 V2000
   -2.9456   -0.5743    1.6232 C   0  0  0  0  0  0  0  0  0  0  0  0
   -2.8636   -0.1367    0.4810 O   0  0  0  0  0  0  0  0  0  0  0  0
   -3.2379   -2.0440    1.8558 C   0  0  0  0  0  0  0  0  0  0  0  0
   -3.3971   -2.5551    0.9024 H   0  0  0  0  0  0  0  0  0  0  0  0
   -2.3987   -2.5155    2.3734 H   0  0  0  0  0  0  0  0  0  0  0  0
   -4.1384   -2.1532    2.4656 H   0  0  0  0  0  0  0  0  0  0  0  0
   -2.7028    0.2546    2.6996 N   0  0  0  0  0  0  0  0  0  0  0  0
   -2.4834    1.7083    2.6179 C   0  0  2  0  0  0  0  0  0  0  0  0
   -1.0723    2.0822    2.1013 C   0  0  0  0  0  0  0  0  0  0  0  0
   -0.4303    3.0031    2.5851 O   0  0  0  0  0  0  0  0  0  0  0  0
   -2.7645    2.2846    4.0118 C   0  0  0  0  0  0  0  0  0  0  0  0
   -2.7178   -0.1711    3.6238 H   0  0  0  0  0  0  0  0  0  0  0  0
   -3.2085    2.1439    1.9221 H   0  0  0  0  0  0  0  0  0  0  0  0
   -2.0340    1.9105    4.7367 H   0  0  0  0  0  0  0  0  0  0  0  0
   -2.6998    3.3777    3.9925 H   0  0  0  0  0  0  0  0  0  0  0  0
   -3.7684    2.0078    4.3483 H   0  0  0  0  0  0  0  0  0  0  0  0
   -0.6662    1.6172    0.8649 N   0  0  0  0  0  0  0  0  0  0  0  0
    0.6356    0.9722    0.5769 C   0  0  2  0  0  0  0  0  0  0  0  0
    1.7885    1.0815    1.6185 C   0  0  0  0  0  0  0  0  0  0  0  0
    1.5549    0.9421    2.8102 O   0  0  0  0  0  0  0  0  0  0  0  0
    1.0627    1.5920   -0.7727 C   0  0  0  0  0  0  0  0  0  0  0  0
    0.0880    1.2126   -1.8635 C   0  0  0  0  0  0  0  0  0  0  0  0
   -0.0328   -0.0227   -2.5031 N   0  3  0  0  0  0  0  0  0  0  0  0
   -0.8621    2.0472   -2.3954 C   0  0  0  0  0  0  0  0  0  0  0  0
   -1.0163    0.0111   -3.3701 C   0  0  0  0  0  0  0  0  0  0  0  0
   -1.5553    1.2953   -3.3351 N   0  0  0  0  0  0  0  0  0  0  0  0
   -1.4449    1.1127    0.4341 H   0  0  0  0  0  0  0  0  0  0  0  0
    0.4665   -0.1015    0.4547 H   0  0  0  0  0  0  0  0  0  0  0  0
    2.0593    1.2559   -1.0734 H   0  0  0  0  0  0  0  0  0  0  0  0
    1.1088    2.6824   -0.6633 H   0  0  0  0  0  0  0  0  0  0  0  0
    0.5569   -0.8287   -2.2808 H   0  0  0  0  0  0  0  0  0  0  0  0
   -1.0427    3.0837   -2.1071 H   0  0  0  0  0  0  0  0  0  0  0  0
   -1.3558   -0.8142   -3.9984 H   0  0  0  0  0  0  0  0  0  0  0  0
   -2.3530    1.6254   -3.8869 H   0  0  0  0  0  0  0  0  0  0  0  0
    3.0819    0.7697    1.2391 N   0  0  0  0  0  0  0  0  0  0  0  0
    4.2455    0.9408    2.1196 C   0  0  2  0  0  0  0  0  0  0  0  0
    5.3628    1.6803    1.3542 C   0  0  0  0  0  0  0  0  0  0  0  0
    5.2515    1.8388    0.1405 O   0  0  0  0  0  0  0  0  0  0  0  0
    4.7115   -0.4416    2.5827 C   0  0  0  0  0  0  0  0  0  0  0  0
    3.3016    0.9063    0.2544 H   0  0  0  0  0  0  0  0  0  0  0  0
    3.9843    1.5476    2.9942 H   0  0  0  0  0  0  0  0  0  0  0  0
    4.9964   -1.0584    1.7247 H   0  0  0  0  0  0  0  0  0  0  0  0
    5.5738   -0.3539    3.2504 H   0  0  0  0  0  0  0  0  0  0  0  0
    3.9066   -0.9480    3.1253 H   0  0  0  0  0  0  0  0  0  0  0  0
    6.4668    2.1862    2.0129 N   0  0  0  0  0  0  0  0  0  0  0  0
    7.5211    2.9407    1.3436 C   0  0  0  0  0  0  0  0  0  0  0  0
    6.5065    2.0785    3.0231 H   0  0  0  0  0  0  0  0  0  0  0  0
    7.9659    2.3477    0.5372 H   0  0  0  0  0  0  0  0  0  0  0  0
    7.1189    3.8668    0.9192 H   0  0  0  0  0  0  0  0  0  0  0  0
    8.3114    3.2006    2.0549 H   0  0  0  0  0  0  0  0  0  0  0  0
  1  2  2  0  0  0  0
  1  3  1  0  0  0  0
  1  7  1  0  0  0  0
  3  4  1  0  0  0  0
  3  5  1  0  0  0  0
  3  6  1  0  0  0  0
  7  8  1  0  0  0  0
  7 12  1  0  0  0  0
  8  9  1  0  0  0  0
  8 11  1  0  0  0  0
  8 13  1  0  0  0  0
  9 10  2  0  0  0  0
  9 17  1  0  0  0  0
 11 14  1  0  0  0  0
 11 15  1  0  0  0  0
 11 16  1  0  0  0  0
 17 18  1  0  0  0  0
 17 27  1  0  0  0  0
 18 19  1  0  0  0  0
 18 21  1  0  0  0  0
 18 28  1  0  0  0  0
 19 20  2  0  0  0  0
 19 35  1  0  0  0  0
 21 22  1  0  0  0  0
 21 29  1  0  0  0  0
 21 30  1  0  0  0  0
 22 23  1  0  0  0  0
 22 24  2  0  0  0  0
 23 25  2  0  0  0  0
 23 31  1  0  0  0  0
 24 26  1  0  0  0  0
 24 32  1  0  0  0  0
 25 26  1  0  0  0  0
 25 33  1  0  0  0  0
 26 34  1  0  0  0  0
 35 36  1  0  0  0  0
 35 40  1  0  0  0  0
 36 37  1  0  0  0  0
 36 39  1  0  0  0  0
 36 41  1  0  0  0  0
 37 38  2  0  0  0  0
 37 45  1  0  0  0  0
 39 42  1  0  0  0  0
 39 43  1  0  0  0  0
 39 44  1  0  0  0  0
 45 46  1  0  0  0  0
 45 47  1  0  0  0  0
 46 48  1  0  0  0  0
 46 49  1  0  0  0  0
 46 50  1  0  0  0  0
M  CHG  1  23   1
M  END
$$$$

  -OEChem-05262216443D

 50 50  0     1  0  0  0  0  0999 V2000
   -2.8952    0.1373    1.8579 C   0  0  0  0  0  0  0  0  0  0  0  0
   -2.7655    0.4821    0.6881 O   0  0  0  0  0  0  0  0  0  0  0  0
   -3.6304   -1.1452    2.1961 C   0  0  0  0  0  0  0  0  0  0  0  0
   -4.0751   -1.5769    1.2955 H   0  0  0  0  0  0  0  0  0  0  0  0
   -2.9375   -1.8704    2.6301 H   0  0  0  0  0  0  0  0  0  0  0  0
   -4.4275   -0.9406    2.9156 H   0  0  0  0  0  0  0  0  0  0  0  0
   -2.3111    0.8773    2.8666 N   0  0  0  0  0  0  0  0  0  0  0  0
   -1.6592    2.1868    2.6925 C   0  0  2  0  0  0  0  0  0  0  0  0
   -0.2407    2.0847    2.0786 C   0  0  0  0  0  0  0  0  0  0  0  0
    0.6981    2.7352    2.5159 O   0  0  0  0  0  0  0  0  0  0  0  0
   -1.6567    2.8739    4.0641 C   0  0  0  0  0  0  0  0  0  0  0  0
   -2.4099    0.5202    3.8149 H   0  0  0  0  0  0  0  0  0  0  0  0
   -2.2605    2.8009    2.0138 H   0  0  0  0  0  0  0  0  0  0  0  0
   -1.0358    2.3166    4.7732 H   0  0  0  0  0  0  0  0  0  0  0  0
   -1.2557    3.8895    3.9804 H   0  0  0  0  0  0  0  0  0  0  0  0
   -2.6736    2.9403    4.4629 H   0  0  0  0  0  0  0  0  0  0  0  0
   -0.1079    1.4776    0.8421 N   0  0  0  0  0  0  0  0  0  0  0  0
    1.0081    0.6194    0.3821 C   0  0  2  0  0  0  0  0  0  0  0  0
    2.3214    0.6259    1.2141 C   0  0  0  0  0  0  0  0  0  0  0  0
    2.2488    0.3687    2.4089 O   0  0  0  0  0  0  0  0  0  0  0  0
    1.2402    1.0431   -1.0826 C   0  0  0  0  0  0  0  0  0  0  0  0
    0.0170    0.7235   -1.9124 C   0  0  0  0  0  0  0  0  0  0  0  0
   -0.4016   -0.5304   -2.3632 N   0  3  0  0  0  0  0  0  0  0  0  0
   -0.9127    1.6425   -2.3310 C   0  0  0  0  0  0  0  0  0  0  0  0
   -1.5406   -0.4236   -3.0051 C   0  0  0  0  0  0  0  0  0  0  0  0
   -1.8884    0.9251   -3.0103 N   0  0  0  0  0  0  0  0  0  0  0  0
   -1.0238    1.1567    0.5179 H   0  0  0  0  0  0  0  0  0  0  0  0
    0.6704   -0.4211    0.4083 H   0  0  0  0  0  0  0  0  0  0  0  0
    2.0967    0.5177   -1.5156 H   0  0  0  0  0  0  0  0  0  0  0  0
    1.4578    2.1177   -1.1172 H   0  0  0  0  0  0  0  0  0  0  0  0
    0.1087   -1.3957   -2.1692 H   0  0  0  0  0  0  0  0  0  0  0  0
   -0.8967    2.7148   -2.1316 H   0  0  0  0  0  0  0  0  0  0  0  0
   -2.1166   -1.2392   -3.4463 H   0  0  0  0  0  0  0  0  0  0  0  0
   -2.7456    1.3209   -3.4085 H   0  0  0  0  0  0  0  0  0  0  0  0
    3.5632    0.4091    0.6350 N   0  0  0  0  0  0  0  0  0  0  0  0
    4.7997    0.3773    1.4359 C   0  0  2  0  0  0  0  0  0  0  0  0
    5.1614    1.7906    1.9521 C   0  0  0  0  0  0  0  0  0  0  0  0
    6.0597    2.4396    1.4326 O   0  0  0  0  0  0  0  0  0  0  0  0
    5.9044   -0.2421    0.5704 C   0  0  0  0  0  0  0  0  0  0  0  0
    3.6679    0.7082   -0.3286 H   0  0  0  0  0  0  0  0  0  0  0  0
    4.6699   -0.2670    2.3126 H   0  0  0  0  0  0  0  0  0  0  0  0
    6.0796    0.3600   -0.3268 H   0  0  0  0  0  0  0  0  0  0  0  0
    6.8401   -0.2959    1.1362 H   0  0  0  0  0  0  0  0  0  0  0  0
    5.6278   -1.2556    0.2654 H   0  0  0  0  0  0  0  0  0  0  0  0
    4.3763    2.3762    2.9259 N   0  0  0  0  0  0  0  0  0  0  0  0
    4.5128    3.7663    3.3401 C   0  0  0  0  0  0  0  0  0  0  0  0
    3.5268    1.8691    3.1872 H   0  0  0  0  0  0  0  0  0  0  0  0
    5.5162    3.9510    3.7378 H   0  0  0  0  0  0  0  0  0  0  0  0
    4.3391    4.4381    2.4932 H   0  0  0  0  0  0  0  0  0  0  0  0
    3.7836    3.9993    4.1220 H   0  0  0  0  0  0  0  0  0  0  0  0
  1  2  2  0  0  0  0
  1  3  1  0  0  0  0
  1  7  1  0  0  0  0
  3  4  1  0  0  0  0
  3  5  1  0  0  0  0
  3  6  1  0  0  0  0
  7  8  1  0  0  0  0
  7 12  1  0  0  0  0
  8  9  1  0  0  0  0
  8 11  1  0  0  0  0
  8 13  1  0  0  0  0
  9 10  2  0  0  0  0
  9 17  1  0  0  0  0
 11 14  1  0  0  0  0
 11 15  1  0  0  0  0
 11 16  1  0  0  0  0
 17 18  1  0  0  0  0
 17 27  1  0  0  0  0
 18 19  1  0  0  0  0
 18 21  1  0  0  0  0
 18 28  1  0  0  0  0
 19 20  2  0  0  0  0
 19 35  1  0  0  0  0
 21 22  1  0  0  0  0
 21 29  1  0  0  0  0
 21 30  1  0  0  0  0
 22 23  1  0  0  0  0
 22 24  2  0  0  0  0
 23 25  2  0  0  0  0
 23 31  1  0  0  0  0
 24 26  1  0  0  0  0
 24 32  1  0  0  0  0
 25 26  1  0  0  0  0
 25 33  1  0  0  0  0
 26 34  1  0  0  0  0
 35 36  1  0  0  0  0
 35 40  1  0  0  0  0
 36 37  1  0  0  0  0
 36 39  1  0  0  0  0
 36 41  1  0  0  0  0
 37 38  2  0  0  0  0
 37 45  1  0  0  0  0
 39 42  1  0  0  0  0
 39 43  1  0  0  0  0
 39 44  1  0  0  0  0
 45 46  1  0  0  0  0
 45 47  1  0  0  0  0
 46 48  1  0  0  0  0
 46 49  1  0  0  0  0
 46 50  1  0  0  0  0
M  CHG  1  23   1
M  END
$$$$

  -OEChem-05262216443D

 50 50  0     1  0  0  0  0  0999 V2000
   -2.9817    0.1860    1.8700 C   0  0  0  0  0  0  0  0  0  0  0  0
   -2.7928    0.5750    0.7225 O   0  0  0  0  0  0  0  0  0  0  0  0
   -3.8529   -1.0283    2.1258 C   0  0  0  0  0  0  0  0  0  0  0  0
   -4.1771   -1.4704    1.1799 H   0  0  0  0  0  0  0  0  0  0  0  0
   -3.2949   -1.7790    2.6913 H   0  0  0  0  0  0  0  0  0  0  0  0
   -4.7374   -0.7376    2.6983 H   0  0  0  0  0  0  0  0  0  0  0  0
   -2.3518    0.8124    2.9270 N   0  0  0  0  0  0  0  0  0  0  0  0
   -1.5877    2.0691    2.8385 C   0  0  2  0  0  0  0  0  0  0  0  0
   -0.1658    1.8861    2.2491 C   0  0  0  0  0  0  0  0  0  0  0  0
    0.8099    2.4142    2.7626 O   0  0  0  0  0  0  0  0  0  0  0  0
   -1.5659    2.6784    4.2468 C   0  0  0  0  0  0  0  0  0  0  0  0
   -2.5210    0.4279    3.8543 H   0  0  0  0  0  0  0  0  0  0  0  0
   -2.1190    2.7669    2.1827 H   0  0  0  0  0  0  0  0  0  0  0  0
   -1.0128    2.0331    4.9373 H   0  0  0  0  0  0  0  0  0  0  0  0
   -1.0803    3.6599    4.2306 H   0  0  0  0  0  0  0  0  0  0  0  0
   -2.5843    2.8084    4.6260 H   0  0  0  0  0  0  0  0  0  0  0  0
   -0.0578    1.3190    0.9895 N   0  0  0  0  0  0  0  0  0  0  0  0
    1.0712    0.5456    0.4243 C   0  0  2  0  0  0  0  0  0  0  0  0
    2.4280    0.6149    1.1752 C   0  0  0  0  0  0  0  0  0  0  0  0
    2.4794    0.1383    2.3013 O   0  0  0  0  0  0  0  0  0  0  0  0
    1.1807    1.0024   -1.0443 C   0  0  0  0  0  0  0  0  0  0  0  0
   -0.0739    0.6197   -1.7959 C   0  0  0  0  0  0  0  0  0  0  0  0
   -0.4410   -0.6535   -2.2371 N   0  3  0  0  0  0  0  0  0  0  0  0
   -1.0924    1.4788   -2.1256 C   0  0  0  0  0  0  0  0  0  0  0  0
   -1.6301   -0.6156   -2.7893 C   0  0  0  0  0  0  0  0  0  0  0  0
   -2.0672    0.7058   -2.7421 N   0  0  0  0  0  0  0  0  0  0  0  0
   -0.9778    1.0370    0.6427 H   0  0  0  0  0  0  0  0  0  0  0  0
    0.7988   -0.5143    0.4485 H   0  0  0  0  0  0  0  0  0  0  0  0
    2.0379    0.5318   -1.5367 H   0  0  0  0  0  0  0  0  0  0  0  0
    1.3308    2.0883   -1.0763 H   0  0  0  0  0  0  0  0  0  0  0  0
    0.1409   -1.4841   -2.1001 H   0  0  0  0  0  0  0  0  0  0  0  0
   -1.1384    2.5453   -1.9029 H   0  0  0  0  0  0  0  0  0  0  0  0
   -2.1822   -1.4624   -3.2011 H   0  0  0  0  0  0  0  0  0  0  0  0
   -2.9822    1.0452   -3.0540 H   0  0  0  0  0  0  0  0  0  0  0  0
    3.6388    0.8029    0.5266 N   0  0  0  0  0  0  0  0  0  0  0  0
    4.9076    0.8961    1.2698 C   0  0  2  0  0  0  0  0  0  0  0  0
    5.0243    2.2537    2.0045 C   0  0  0  0  0  0  0  0  0  0  0  0
    5.8218    3.1045    1.6325 O   0  0  0  0  0  0  0  0  0  0  0  0
    6.0508    0.6542    0.2756 C   0  0  0  0  0  0  0  0  0  0  0  0
    3.6013    1.3070   -0.3532 H   0  0  0  0  0  0  0  0  0  0  0  0
    4.9633    0.1097    2.0307 H   0  0  0  0  0  0  0  0  0  0  0  0
    6.0483    1.4149   -0.5118 H   0  0  0  0  0  0  0  0  0  0  0  0
    7.0150    0.6985    0.7928 H   0  0  0  0  0  0  0  0  0  0  0  0
    5.9536   -0.3324   -0.1874 H   0  0  0  0  0  0  0  0  0  0  0  0
    4.1410    2.5558    3.0226 N   0  0  0  0  0  0  0  0  0  0  0  0
    4.0652    3.8634    3.6600 C   0  0  0  0  0  0  0  0  0  0  0  0
    3.3859    1.8855    3.1894 H   0  0  0  0  0  0  0  0  0  0  0  0
    5.0127    4.1041    4.1534 H   0  0  0  0  0  0  0  0  0  0  0  0
    3.8457    4.6397    2.9198 H   0  0  0  0  0  0  0  0  0  0  0  0
    3.2712    3.8693    4.4128 H   0  0  0  0  0  0  0  0  0  0  0  0
  1  2  2  0  0  0  0
  1  3  1  0  0  0  0
  1  7  1  0  0  0  0
  3  4  1  0  0  0  0
  3  5  1  0  0  0  0
  3  6  1  0  0  0  0
  7  8  1  0  0  0  0
  7 12  1  0  0  0  0
  8  9  1  0  0  0  0
  8 11  1  0  0  0  0
  8 13  1  0  0  0  0
  9 10  2  0  0  0  0
  9 17  1  0  0  0  0
 11 14  1  0  0  0  0
 11 15  1  0  0  0  0
 11 16  1  0  0  0  0
 17 18  1  0  0  0  0
 17 27  1  0  0  0  0
 18 19  1  0  0  0  0
 18 21  1  0  0  0  0
 18 28  1  0  0  0  0
 19 20  2  0  0  0  0
 19 35  1  0  0  0  0
 21 22  1  0  0  0  0
 21 29  1  0  0  0  0
 21 30  1  0  0  0  0
 22 23  1  0  0  0  0
 22 24  2  0  0  0  0
 23 25  2  0  0  0  0
 23 31  1  0  0  0  0
 24 26  1  0  0  0  0
 24 32  1  0  0  0  0
 25 26  1  0  0  0  0
 25 33  1  0  0  0  0
 26 34  1  0  0  0  0
 35 36  1  0  0  0  0
 35 40  1  0  0  0  0
 36 37  1  0  0  0  0
 36 39  1  0  0  0  0
 36 41  1  0  0  0  0
 37 38  2  0  0  0  0
 37 45  1  0  0  0  0
 39 42  1  0  0  0  0
 39 43  1  0  0  0  0
 39 44  1  0  0  0  0
 45 46  1  0  0  0  0
 45 47  1  0  0  0  0
 46 48  1  0  0  0  0
 46 49  1  0  0  0  0
 46 50  1  0  0  0  0
M  CHG  1  23   1
M  END
$$$$

  -OEChem-05262216443D

 50 50  0     1  0  0  0  0  0999 V2000
   -3.0549    0.1760    1.9007 C   0  0  0  0  0  0  0  0  0  0  0  0
   -2.8304    0.5799    0.7647 O   0  0  0  0  0  0  0  0  0  0  0  0
   -3.9952   -0.9932    2.1213 C   0  0  0  0  0  0  0  0  0  0  0  0
   -4.4373   -1.3099    1.1730 H   0  0  0  0  0  0  0  0  0  0  0  0
   -3.4508   -1.8356    2.5558 H   0  0  0  0  0  0  0  0  0  0  0  0
   -4.7996   -0.7015    2.8016 H   0  0  0  0  0  0  0  0  0  0  0  0
   -2.4057    0.7451    2.9778 N   0  0  0  0  0  0  0  0  0  0  0  0
   -1.5843    1.9669    2.9244 C   0  0  2  0  0  0  0  0  0  0  0  0
   -0.1630    1.7301    2.3520 C   0  0  0  0  0  0  0  0  0  0  0  0
    0.8304    2.1359    2.9361 O   0  0  0  0  0  0  0  0  0  0  0  0
   -1.5602    2.5495    4.3444 C   0  0  0  0  0  0  0  0  0  0  0  0
   -2.6088    0.3520    3.8948 H   0  0  0  0  0  0  0  0  0  0  0  0
   -2.0726    2.7003    2.2737 H   0  0  0  0  0  0  0  0  0  0  0  0
   -1.0528    1.8666    5.0339 H   0  0  0  0  0  0  0  0  0  0  0  0
   -1.0274    3.5061    4.3545 H   0  0  0  0  0  0  0  0  0  0  0  0
   -2.5782    2.7221    4.7073 H   0  0  0  0  0  0  0  0  0  0  0  0
   -0.0608    1.2093    1.0711 N   0  0  0  0  0  0  0  0  0  0  0  0
    1.0898    0.5201    0.4430 C   0  0  2  0  0  0  0  0  0  0  0  0
    2.4664    0.6418    1.1474 C   0  0  0  0  0  0  0  0  0  0  0  0
    2.6467   -0.0187    2.1609 O   0  0  0  0  0  0  0  0  0  0  0  0
    1.1342    1.0101   -1.0177 C   0  0  0  0  0  0  0  0  0  0  0  0
   -0.1136    0.5748   -1.7504 C   0  0  0  0  0  0  0  0  0  0  0  0
   -0.4151   -0.7092   -2.2104 N   0  3  0  0  0  0  0  0  0  0  0  0
   -1.1859    1.3794   -2.0438 C   0  0  0  0  0  0  0  0  0  0  0  0
   -1.6131   -0.7299   -2.7439 C   0  0  0  0  0  0  0  0  0  0  0  0
   -2.1257    0.5624   -2.6584 N   0  0  0  0  0  0  0  0  0  0  0  0
   -0.9797    0.9556    0.6992 H   0  0  0  0  0  0  0  0  0  0  0  0
    0.8757   -0.5534    0.4484 H   0  0  0  0  0  0  0  0  0  0  0  0
    2.0082    0.5991   -1.5351 H   0  0  0  0  0  0  0  0  0  0  0  0
    1.2197    2.1028   -1.0323 H   0  0  0  0  0  0  0  0  0  0  0  0
    0.2194   -1.5056   -2.1058 H   0  0  0  0  0  0  0  0  0  0  0  0
   -1.2896    2.4373   -1.8001 H   0  0  0  0  0  0  0  0  0  0  0  0
   -2.1204   -1.5982   -3.1689 H   0  0  0  0  0  0  0  0  0  0  0  0
   -3.0647    0.8541   -2.9462 H   0  0  0  0  0  0  0  0  0  0  0  0
    3.5779    1.2041    0.5400 N   0  0  0  0  0  0  0  0  0  0  0  0
    4.8669    1.3415    1.2397 C   0  0  2  0  0  0  0  0  0  0  0  0
    4.8532    2.5504    2.2057 C   0  0  0  0  0  0  0  0  0  0  0  0
    5.5617    3.5278    2.0033 O   0  0  0  0  0  0  0  0  0  0  0  0
    5.9676    1.4331    0.1748 C   0  0  0  0  0  0  0  0  0  0  0  0
    3.3938    1.8759   -0.1982 H   0  0  0  0  0  0  0  0  0  0  0  0
    5.0715    0.4510    1.8444 H   0  0  0  0  0  0  0  0  0  0  0  0
    5.8214    2.3124   -0.4604 H   0  0  0  0  0  0  0  0  0  0  0  0
    6.9493    1.5137    0.6530 H   0  0  0  0  0  0  0  0  0  0  0  0
    5.9647    0.5388   -0.4553 H   0  0  0  0  0  0  0  0  0  0  0  0
    3.9560    2.5734    3.2556 N   0  0  0  0  0  0  0  0  0  0  0  0
    3.7559    3.7310    4.1171 C   0  0  0  0  0  0  0  0  0  0  0  0
    3.2710    1.8144    3.2922 H   0  0  0  0  0  0  0  0  0  0  0  0
    4.6846    3.9884    4.6370 H   0  0  0  0  0  0  0  0  0  0  0  0
    3.4295    4.5952    3.5295 H   0  0  0  0  0  0  0  0  0  0  0  0
    2.9894    3.5124    4.8667 H   0  0  0  0  0  0  0  0  0  0  0  0
  1  2  2  0  0  0  0
  1  3  1  0  0  0  0
  1  7  1  0  0  0  0
  3  4  1  0  0  0  0
  3  5  1  0  0  0  0
  3  6  1  0  0  0  0
  7  8  1  0  0  0  0
  7 12  1  0  0  0  0
  8  9  1  0  0  0  0
  8 11  1  0  0  0  0
  8 13  1  0  0  0  0
  9 10  2  0  0  0  0
  9 17  1  0  0  0  0
 11 14  1  0  0  0  0
 11 15  1  0  0  0  0
 11 16  1  0  0  0  0
 17 18  1  0  0  0  0
 17 27  1  0  0  0  0
 18 19  1  0  0  0  0
 18 21  1  0  0  0  0
 18 28  1  0  0  0  0
 19 20  2  0  0  0  0
 19 35  1  0  0  0  0
 21 22  1  0  0  0  0
 21 29  1  0  0  0  0
 21 30  1  0  0  0  0
 22 23  1  0  0  0  0
 22 24  2  0  0  0  0
 23 25  2  0  0  0  0
 23 31  1  0  0  0  0
 24 26  1  0  0  0  0
 24 32  1  0  0  0  0
 25 26  1  0  0  0  0
 25 33  1  0  0  0  0
 26 34  1  0  0  0  0
 35 36  1  0  0  0  0
 35 40  1  0  0  0  0
 36 37  1  0  0  0  0
 36 39  1  0  0  0  0
 36 41  1  0  0  0  0
 37 38  2  0  0  0  0
 37 45  1  0  0  0  0
 39 42  1  0  0  0  0
 39 43  1  0  0  0  0
 39 44  1  0  0  0  0
 45 46  1  0  0  0  0
 45 47  1  0  0  0  0
 46 48  1  0  0  0  0
 46 49  1  0  0  0  0
 46 50  1  0  0  0  0
M  CHG  1  23   1
M  END
$$$$

  -OEChem-05262216443D

 50 50  0     1  0  0  0  0  0999 V2000
   -3.0948    0.0911    1.8743 C   0  0  0  0  0  0  0  0  0  0  0  0
   -2.8543    0.5590    0.7664 O   0  0  0  0  0  0  0  0  0  0  0  0
   -4.0356   -1.0900    2.0136 C   0  0  0  0  0  0  0  0  0  0  0  0
   -4.4496   -1.3635    1.0394 H   0  0  0  0  0  0  0  0  0  0  0  0
   -3.4988   -1.9500    2.4224 H   0  0  0  0  0  0  0  0  0  0  0  0
   -4.8597   -0.8342    2.6848 H   0  0  0  0  0  0  0  0  0  0  0  0
   -2.4575    0.5944    2.9906 N   0  0  0  0  0  0  0  0  0  0  0  0
   -1.6027    1.7936    3.0114 C   0  0  2  0  0  0  0  0  0  0  0  0
   -0.1827    1.5433    2.4413 C   0  0  0  0  0  0  0  0  0  0  0  0
    0.8181    1.8203    3.0848 O   0  0  0  0  0  0  0  0  0  0  0  0
   -1.5756    2.3001    4.4600 C   0  0  0  0  0  0  0  0  0  0  0  0
   -2.6707    0.1489    3.8809 H   0  0  0  0  0  0  0  0  0  0  0  0
   -2.0627    2.5744    2.3963 H   0  0  0  0  0  0  0  0  0  0  0  0
   -1.0987    1.5653    5.1171 H   0  0  0  0  0  0  0  0  0  0  0  0
   -1.0119    3.2365    4.5256 H   0  0  0  0  0  0  0  0  0  0  0  0
   -2.5912    2.4874    4.8220 H   0  0  0  0  0  0  0  0  0  0  0  0
   -0.0804    1.1100    1.1283 N   0  0  0  0  0  0  0  0  0  0  0  0
    1.0826    0.5081    0.4395 C   0  0  2  0  0  0  0  0  0  0  0  0
    2.4654    0.6366    1.1253 C   0  0  0  0  0  0  0  0  0  0  0  0
    2.7716   -0.2087    1.9525 O   0  0  0  0  0  0  0  0  0  0  0  0
    1.0989    1.0784   -0.9906 C   0  0  0  0  0  0  0  0  0  0  0  0
   -0.1379    0.6404   -1.7389 C   0  0  0  0  0  0  0  0  0  0  0  0
   -0.3933   -0.6278   -2.2654 N   0  3  0  0  0  0  0  0  0  0  0  0
   -1.2367    1.4218   -1.9947 C   0  0  0  0  0  0  0  0  0  0  0  0
   -1.5878   -0.6620   -2.8059 C   0  0  0  0  0  0  0  0  0  0  0  0
   -2.1450    0.6060   -2.6566 N   0  0  0  0  0  0  0  0  0  0  0  0
   -0.9967    0.9037    0.7224 H   0  0  0  0  0  0  0  0  0  0  0  0
    0.9051   -0.5710    0.3830 H   0  0  0  0  0  0  0  0  0  0  0  0
    1.9878    0.7309   -1.5292 H   0  0  0  0  0  0  0  0  0  0  0  0
    1.1433    2.1726   -0.9474 H   0  0  0  0  0  0  0  0  0  0  0  0
    0.2679   -1.4065   -2.1966 H   0  0  0  0  0  0  0  0  0  0  0  0
   -1.3791    2.4617   -1.6988 H   0  0  0  0  0  0  0  0  0  0  0  0
   -2.0626   -1.5242   -3.2785 H   0  0  0  0  0  0  0  0  0  0  0  0
   -3.0908    0.8810   -2.9386 H   0  0  0  0  0  0  0  0  0  0  0  0
    3.4376    1.5200    0.6861 N   0  0  0  0  0  0  0  0  0  0  0  0
    4.7323    1.6823    1.3700 C   0  0  2  0  0  0  0  0  0  0  0  0
    4.6456    2.7258    2.5089 C   0  0  0  0  0  0  0  0  0  0  0  0
    5.3596    3.7199    2.5095 O   0  0  0  0  0  0  0  0  0  0  0  0
    5.7759    2.0403    0.3035 C   0  0  0  0  0  0  0  0  0  0  0  0
    3.1123    2.3116    0.1402 H   0  0  0  0  0  0  0  0  0  0  0  0
    5.0467    0.7389    1.8298 H   0  0  0  0  0  0  0  0  0  0  0  0
    5.5302    2.9934   -0.1755 H   0  0  0  0  0  0  0  0  0  0  0  0
    6.7671    2.1307    0.7605 H   0  0  0  0  0  0  0  0  0  0  0  0
    5.8210    1.2615   -0.4637 H   0  0  0  0  0  0  0  0  0  0  0  0
    3.6955    2.5858    3.5016 N   0  0  0  0  0  0  0  0  0  0  0  0
    3.4754    3.5745    4.5484 C   0  0  0  0  0  0  0  0  0  0  0  0
    3.0175    1.8270    3.3989 H   0  0  0  0  0  0  0  0  0  0  0  0
    4.3803    3.7019    5.1518 H   0  0  0  0  0  0  0  0  0  0  0  0
    3.2023    4.5411    4.1125 H   0  0  0  0  0  0  0  0  0  0  0  0
    2.6640    3.2496    5.2068 H   0  0  0  0  0  0  0  0  0  0  0  0
  1  2  2  0  0  0  0
  1  3  1  0  0  0  0
  1  7  1  0  0  0  0
  3  4  1  0  0  0  0
  3  5  1  0  0  0  0
  3  6  1  0  0  0  0
  7  8  1  0  0  0  0
  7 12  1  0  0  0  0
  8  9  1  0  0  0  0
  8 11  1  0  0  0  0
  8 13  1  0  0  0  0
  9 10  2  0  0  0  0
  9 17  1  0  0  0  0
 11 14  1  0  0  0  0
 11 15  1  0  0  0  0
 11 16  1  0  0  0  0
 17 18  1  0  0  0  0
 17 27  1  0  0  0  0
 18 19  1  0  0  0  0
 18 21  1  0  0  0  0
 18 28  1  0  0  0  0
 19 20  2  0  0  0  0
 19 35  1  0  0  0  0
 21 22  1  0  0  0  0
 21 29  1  0  0  0  0
 21 30  1  0  0  0  0
 22 23  1  0  0  0  0
 22 24  2  0  0  0  0
 23 25  2  0  0  0  0
 23 31  1  0  0  0  0
 24 26  1  0  0  0  0
 24 32  1  0  0  0  0
 25 26  1  0  0  0  0
 25 33  1  0  0  0  0
 26 34  1  0  0  0  0
 35 36  1  0  0  0  0
 35 40  1  0  0  0  0
 36 37  1  0  0  0  0
 36 39  1  0  0  0  0
 36 41  1  0  0  0  0
 37 38  2  0  0  0  0
 37 45  1  0  0  0  0
 39 42  1  0  0  0  0
 39 43  1  0  0  0  0
 39 44  1  0  0  0  0
 45 46  1  0  0  0  0
 45 47  1  0  0  0  0
 46 48  1  0  0  0  0
 46 49  1  0  0  0  0
 46 50  1  0  0  0  0
M  CHG  1  23   1
M  END
$$$$

  -OEChem-05262216443D

 50 50  0     1  0  0  0  0  0999 V2000
   -3.1791    0.0767    1.8025 C   0  0  0  0  0  0  0  0  0  0  0  0
   -2.8933    0.5726    0.7178 O   0  0  0  0  0  0  0  0  0  0  0  0
   -4.1788   -1.0606    1.8810 C   0  0  0  0  0  0  0  0  0  0  0  0
   -4.5568   -1.3035    0.8845 H   0  0  0  0  0  0  0  0  0  0  0  0
   -3.7041   -1.9496    2.3042 H   0  0  0  0  0  0  0  0  0  0  0  0
   -5.0216   -0.7729    2.5148 H   0  0  0  0  0  0  0  0  0  0  0  0
   -2.5455    0.5119    2.9489 N   0  0  0  0  0  0  0  0  0  0  0  0
   -1.6457    1.6745    3.0280 C   0  0  2  0  0  0  0  0  0  0  0  0
   -0.2246    1.3859    2.4792 C   0  0  0  0  0  0  0  0  0  0  0  0
    0.7703    1.5576    3.1672 O   0  0  0  0  0  0  0  0  0  0  0  0
   -1.6317    2.1326    4.4930 C   0  0  0  0  0  0  0  0  0  0  0  0
   -2.7990    0.0479    3.8189 H   0  0  0  0  0  0  0  0  0  0  0  0
   -2.0612    2.4929    2.4300 H   0  0  0  0  0  0  0  0  0  0  0  0
   -1.2045    1.3566    5.1368 H   0  0  0  0  0  0  0  0  0  0  0  0
   -1.0286    3.0401    4.6022 H   0  0  0  0  0  0  0  0  0  0  0  0
   -2.6469    2.3539    4.8370 H   0  0  0  0  0  0  0  0  0  0  0  0
   -0.1042    1.0099    1.1503 N   0  0  0  0  0  0  0  0  0  0  0  0
    1.0857    0.4973    0.4364 C   0  0  2  0  0  0  0  0  0  0  0  0
    2.4641    0.6703    1.1184 C   0  0  0  0  0  0  0  0  0  0  0  0
    2.9447   -0.2964    1.6884 O   0  0  0  0  0  0  0  0  0  0  0  0
    1.0866    1.1079   -0.9763 C   0  0  0  0  0  0  0  0  0  0  0  0
   -0.1203    0.6325   -1.7493 C   0  0  0  0  0  0  0  0  0  0  0  0
   -0.3019   -0.6330   -2.3114 N   0  3  0  0  0  0  0  0  0  0  0  0
   -1.2542    1.3627   -2.0026 C   0  0  0  0  0  0  0  0  0  0  0  0
   -1.4863   -0.7158   -2.8684 C   0  0  0  0  0  0  0  0  0  0  0  0
   -2.1109    0.5173   -2.6956 N   0  0  0  0  0  0  0  0  0  0  0  0
   -1.0114    0.8448    0.7062 H   0  0  0  0  0  0  0  0  0  0  0  0
    0.9590   -0.5869    0.3448 H   0  0  0  0  0  0  0  0  0  0  0  0
    1.9984    0.8201   -1.5123 H   0  0  0  0  0  0  0  0  0  0  0  0
    1.0784    2.2008   -0.9037 H   0  0  0  0  0  0  0  0  0  0  0  0
    0.4003   -1.3764   -2.2559 H   0  0  0  0  0  0  0  0  0  0  0  0
   -1.4537    2.3866   -1.6858 H   0  0  0  0  0  0  0  0  0  0  0  0
   -1.9090   -1.5892   -3.3689 H   0  0  0  0  0  0  0  0  0  0  0  0
   -3.0656    0.7508   -2.9851 H   0  0  0  0  0  0  0  0  0  0  0  0
    3.2464    1.7949    0.9160 N   0  0  0  0  0  0  0  0  0  0  0  0
    4.5675    1.9845    1.5420 C   0  0  2  0  0  0  0  0  0  0  0  0
    4.4791    2.7398    2.8908 C   0  0  0  0  0  0  0  0  0  0  0  0
    5.2270    3.6769    3.1361 O   0  0  0  0  0  0  0  0  0  0  0  0
    5.4567    2.7008    0.5166 C   0  0  0  0  0  0  0  0  0  0  0  0
    2.7578    2.6324    0.6140 H   0  0  0  0  0  0  0  0  0  0  0  0
    5.0312    1.0159    1.7582 H   0  0  0  0  0  0  0  0  0  0  0  0
    5.0649    3.6986    0.2957 H   0  0  0  0  0  0  0  0  0  0  0  0
    6.4739    2.8098    0.9076 H   0  0  0  0  0  0  0  0  0  0  0  0
    5.5077    2.1268   -0.4135 H   0  0  0  0  0  0  0  0  0  0  0  0
    3.5139    2.4027    3.8201 N   0  0  0  0  0  0  0  0  0  0  0  0
    3.3212    3.1151    5.0765 C   0  0  0  0  0  0  0  0  0  0  0  0
    2.8208    1.7027    3.5463 H   0  0  0  0  0  0  0  0  0  0  0  0
    4.2479    3.1223    5.6601 H   0  0  0  0  0  0  0  0  0  0  0  0
    3.0150    4.1492    4.8875 H   0  0  0  0  0  0  0  0  0  0  0  0
    2.5437    2.6248    5.6706 H   0  0  0  0  0  0  0  0  0  0  0  0
  1  2  2  0  0  0  0
  1  3  1  0  0  0  0
  1  7  1  0  0  0  0
  3  4  1  0  0  0  0
  3  5  1  0  0  0  0
  3  6  1  0  0  0  0
  7  8  1  0  0  0  0
  7 12  1  0  0  0  0
  8  9  1  0  0  0  0
  8 11  1  0  0  0  0
  8 13  1  0  0  0  0
  9 10  2  0  0  0  0
  9 17  1  0  0  0  0
 11 14  1  0  0  0  0
 11 15  1  0  0  0  0
 11 16  1  0  0  0  0
 17 18  1  0  0  0  0
 17 27  1  0  0  0  0
 18 19  1  0  0  0  0
 18 21  1  0  0  0  0
 18 28  1  0  0  0  0
 19 20  2  0  0  0  0
 19 35  1  0  0  0  0
 21 22  1  0  0  0  0
 21 29  1  0  0  0  0
 21 30  1  0  0  0  0
 22 23  1  0  0  0  0
 22 24  2  0  0  0  0
 23 25  2  0  0  0  0
 23 31  1  0  0  0  0
 24 26  1  0  0  0  0
 24 32  1  0  0  0  0
 25 26  1  0  0  0  0
 25 33  1  0  0  0  0
 26 34  1  0  0  0  0
 35 36  1  0  0  0  0
 35 40  1  0  0  0  0
 36 37  1  0  0  0  0
 36 39  1  0  0  0  0
 36 41  1  0  0  0  0
 37 38  2  0  0  0  0
 37 45  1  0  0  0  0
 39 42  1  0  0  0  0
 39 43  1  0  0  0  0
 39 44  1  0  0  0  0
 45 46  1  0  0  0  0
 45 47  1  0  0  0  0
 46 48  1  0  0  0  0
 46 49  1  0  0  0  0
 46 50  1  0  0  0  0
M  CHG  1  23   1
M  END
$$$$

  -OEChem-05262216443D

 50 50  0     1  0  0  0  0  0999 V2000
   -3.2748    0.1916    1.6127 C   0  0  0  0  0  0  0  0  0  0  0  0
   -2.8941    0.6164    0.5272 O   0  0  0  0  0  0  0  0  0  0  0  0
   -4.3293   -0.8962    1.6780 C   0  0  0  0  0  0  0  0  0  0  0  0
   -3.9032   -1.8046    2.1115 H   0  0  0  0  0  0  0  0  0  0  0  0
   -5.1678   -0.5670    2.2972 H   0  0  0  0  0  0  0  0  0  0  0  0
   -4.7035   -1.1247    0.6765 H   0  0  0  0  0  0  0  0  0  0  0  0
   -2.6996    0.6593    2.7767 N   0  0  0  0  0  0  0  0  0  0  0  0
   -1.7686    1.7968    2.8609 C   0  0  2  0  0  0  0  0  0  0  0  0
   -0.3230    1.4412    2.4288 C   0  0  0  0  0  0  0  0  0  0  0  0
    0.6254    1.6150    3.1760 O   0  0  0  0  0  0  0  0  0  0  0  0
   -1.8422    2.3304    4.2981 C   0  0  0  0  0  0  0  0  0  0  0  0
   -3.0384    0.2595    3.6496 H   0  0  0  0  0  0  0  0  0  0  0  0
   -2.1140    2.5951    2.1952 H   0  0  0  0  0  0  0  0  0  0  0  0
   -1.4949    1.5742    5.0100 H   0  0  0  0  0  0  0  0  0  0  0  0
   -1.2120    3.2195    4.4072 H   0  0  0  0  0  0  0  0  0  0  0  0
   -2.8698    2.6070    4.5536 H   0  0  0  0  0  0  0  0  0  0  0  0
   -0.1193    0.9826    1.1368 N   0  0  0  0  0  0  0  0  0  0  0  0
    1.1349    0.5277    0.4973 C   0  0  2  0  0  0  0  0  0  0  0  0
    2.4727    0.8671    1.1952 C   0  0  0  0  0  0  0  0  0  0  0  0
    3.1703   -0.0523    1.6022 O   0  0  0  0  0  0  0  0  0  0  0  0
    1.1544    1.0598   -0.9463 C   0  0  0  0  0  0  0  0  0  0  0  0
    0.0256    0.4569   -1.7457 C   0  0  0  0  0  0  0  0  0  0  0  0
   -0.0318   -0.8459   -2.2446 N   0  3  0  0  0  0  0  0  0  0  0  0
   -1.1453    1.0834   -2.0901 C   0  0  0  0  0  0  0  0  0  0  0  0
   -1.1751   -1.0472   -2.8548 C   0  0  0  0  0  0  0  0  0  0  0  0
   -1.8990    0.1408   -2.7770 N   0  0  0  0  0  0  0  0  0  0  0  0
   -0.9919    0.8079    0.6317 H   0  0  0  0  0  0  0  0  0  0  0  0
    1.0996   -0.5664    0.4697 H   0  0  0  0  0  0  0  0  0  0  0  0
    2.1103    0.8165   -1.4247 H   0  0  0  0  0  0  0  0  0  0  0  0
    1.0644    2.1515   -0.9349 H   0  0  0  0  0  0  0  0  0  0  0  0
    0.7232   -1.5264   -2.1194 H   0  0  0  0  0  0  0  0  0  0  0  0
   -1.4394    2.1022   -1.8358 H   0  0  0  0  0  0  0  0  0  0  0  0
   -1.5018   -1.9736   -3.3310 H   0  0  0  0  0  0  0  0  0  0  0  0
   -2.8519    0.2862   -3.1244 H   0  0  0  0  0  0  0  0  0  0  0  0
    2.9926    2.1492    1.1584 N   0  0  0  0  0  0  0  0  0  0  0  0
    4.2618    2.5054    1.8123 C   0  0  2  0  0  0  0  0  0  0  0  0
    4.0881    2.6610    3.3412 C   0  0  0  0  0  0  0  0  0  0  0  0
    4.1428    3.7601    3.8779 O   0  0  0  0  0  0  0  0  0  0  0  0
    4.7910    3.7781    1.1388 C   0  0  0  0  0  0  0  0  0  0  0  0
    2.2997    2.8896    1.0870 H   0  0  0  0  0  0  0  0  0  0  0  0
    5.0033    1.7155    1.6516 H   0  0  0  0  0  0  0  0  0  0  0  0
    4.0852    4.6054    1.2646 H   0  0  0  0  0  0  0  0  0  0  0  0
    5.7469    4.0709    1.5851 H   0  0  0  0  0  0  0  0  0  0  0  0
    4.9472    3.6085    0.0694 H   0  0  0  0  0  0  0  0  0  0  0  0
    3.8150    1.5414    4.1010 N   0  0  0  0  0  0  0  0  0  0  0  0
    3.4177    1.6113    5.5009 C   0  0  0  0  0  0  0  0  0  0  0  0
    3.5998    0.6938    3.5737 H   0  0  0  0  0  0  0  0  0  0  0  0
    4.1593    2.1672    6.0844 H   0  0  0  0  0  0  0  0  0  0  0  0
    2.4475    2.1097    5.5971 H   0  0  0  0  0  0  0  0  0  0  0  0
    3.3356    0.6045    5.9217 H   0  0  0  0  0  0  0  0  0  0  0  0
  1  2  2  0  0  0  0
  1  3  1  0  0  0  0
  1  7  1  0  0  0  0
  3  4  1  0  0  0  0
  3  5  1  0  0  0  0
  3  6  1  0  0  0  0
  7  8  1  0  0  0  0
  7 12  1  0  0  0  0
  8  9  1  0  0  0  0
  8 11  1  0  0  0  0
  8 13  1  0  0  0  0
  9 10  2  0  0  0  0
  9 17  1  0  0  0  0
 11 14  1  0  0  0  0
 11 15  1  0  0  0  0
 11 16  1  0  0  0  0
 17 18  1  0  0  0  0
 17 27  1  0  0  0  0
 18 19  1  0  0  0  0
 18 21  1  0  0  0  0
 18 28  1  0  0  0  0
 19 20  2  0  0  0  0
 19 35  1  0  0  0  0
 21 22  1  0  0  0  0
 21 29  1  0  0  0  0
 21 30  1  0  0  0  0
 22 23  1  0  0  0  0
 22 24  2  0  0  0  0
 23 25  2  0  0  0  0
 23 31  1  0  0  0  0
 24 26  1  0  0  0  0
 24 32  1  0  0  0  0
 25 26  1  0  0  0  0
 25 33  1  0  0  0  0
 26 34  1  0  0  0  0
 35 36  1  0  0  0  0
 35 40  1  0  0  0  0
 36 37  1  0  0  0  0
 36 39  1  0  0  0  0
 36 41  1  0  0  0  0
 37 38  2  0  0  0  0
 37 45  1  0  0  0  0
 39 42  1  0  0  0  0
 39 43  1  0  0  0  0
 39 44  1  0  0  0  0
 45 46  1  0  0  0  0
 45 47  1  0  0  0  0
 46 48  1  0  0  0  0
 46 49  1  0  0  0  0
 46 50  1  0  0  0  0
M  CHG  1  23   1
M  END
$$$$

  -OEChem-05262216443D

 50 50  0     1  0  0  0  0  0999 V2000
   -3.3430   -0.0107    1.4747 C   0  0  0  0  0  0  0  0  0  0  0  0
   -2.9248    0.4229    0.4068 O   0  0  0  0  0  0  0  0  0  0  0  0
   -4.3496   -1.1449    1.4953 C   0  0  0  0  0  0  0  0  0  0  0  0
   -3.9202   -2.0182    1.9930 H   0  0  0  0  0  0  0  0  0  0  0  0
   -5.2497   -0.8356    2.0331 H   0  0  0  0  0  0  0  0  0  0  0  0
   -4.6302   -1.4228    0.4759 H   0  0  0  0  0  0  0  0  0  0  0  0
   -2.8540    0.4959    2.6618 N   0  0  0  0  0  0  0  0  0  0  0  0
   -1.9983    1.6885    2.7791 C   0  0  2  0  0  0  0  0  0  0  0  0
   -0.5128    1.4208    2.4244 C   0  0  0  0  0  0  0  0  0  0  0  0
    0.3863    1.6818    3.2064 O   0  0  0  0  0  0  0  0  0  0  0  0
   -2.1771    2.2296    4.2043 C   0  0  0  0  0  0  0  0  0  0  0  0
   -3.2248    0.0931    3.5203 H   0  0  0  0  0  0  0  0  0  0  0  0
   -2.3578    2.4583    2.0876 H   0  0  0  0  0  0  0  0  0  0  0  0
   -1.8159    1.5052    4.9418 H   0  0  0  0  0  0  0  0  0  0  0  0
   -1.6130    3.1595    4.3325 H   0  0  0  0  0  0  0  0  0  0  0  0
   -3.2320    2.4399    4.4060 H   0  0  0  0  0  0  0  0  0  0  0  0
   -0.2107    0.9549    1.1551 N   0  0  0  0  0  0  0  0  0  0  0  0
    1.1028    0.5822    0.5820 C   0  0  2  0  0  0  0  0  0  0  0  0
    2.3960    1.0184    1.3093 C   0  0  0  0  0  0  0  0  0  0  0  0
    3.2852    0.1882    1.4469 O   0  0  0  0  0  0  0  0  0  0  0  0
    1.1559    1.1029   -0.8636 C   0  0  0  0  0  0  0  0  0  0  0  0
    0.1131    0.4197   -1.7134 C   0  0  0  0  0  0  0  0  0  0  0  0
    0.1740   -0.8870   -2.2006 N   0  3  0  0  0  0  0  0  0  0  0  0
   -1.0748    0.9630   -2.1330 C   0  0  0  0  0  0  0  0  0  0  0  0
   -0.9131   -1.1690   -2.8776 C   0  0  0  0  0  0  0  0  0  0  0  0
   -1.7196   -0.0329   -2.8548 N   0  0  0  0  0  0  0  0  0  0  0  0
   -1.0424    0.7188    0.6073 H   0  0  0  0  0  0  0  0  0  0  0  0
    1.1421   -0.5121    0.5686 H   0  0  0  0  0  0  0  0  0  0  0  0
    2.1487    0.9219   -1.2921 H   0  0  0  0  0  0  0  0  0  0  0  0
    0.9941    2.1866   -0.8661 H   0  0  0  0  0  0  0  0  0  0  0  0
    0.9663   -1.5118   -2.0253 H   0  0  0  0  0  0  0  0  0  0  0  0
   -1.4505    1.9619   -1.9090 H   0  0  0  0  0  0  0  0  0  0  0  0
   -1.1456   -2.1176   -3.3653 H   0  0  0  0  0  0  0  0  0  0  0  0
   -2.6545    0.0474   -3.2661 H   0  0  0  0  0  0  0  0  0  0  0  0
    2.6777    2.3551    1.5255 N   0  0  0  0  0  0  0  0  0  0  0  0
    3.9345    2.8121    2.1401 C   0  0  2  0  0  0  0  0  0  0  0  0
    3.9499    2.5795    3.6698 C   0  0  0  0  0  0  0  0  0  0  0  0
    3.9361    3.5154    4.4589 O   0  0  0  0  0  0  0  0  0  0  0  0
    4.1211    4.2872    1.7629 C   0  0  0  0  0  0  0  0  0  0  0  0
    1.8525    2.9183    1.7236 H   0  0  0  0  0  0  0  0  0  0  0  0
    4.7798    2.2547    1.7225 H   0  0  0  0  0  0  0  0  0  0  0  0
    3.3016    4.8942    2.1612 H   0  0  0  0  0  0  0  0  0  0  0  0
    5.0618    4.6670    2.1751 H   0  0  0  0  0  0  0  0  0  0  0  0
    4.1489    4.4040    0.6755 H   0  0  0  0  0  0  0  0  0  0  0  0
    3.9650    1.2857    4.1513 N   0  0  0  0  0  0  0  0  0  0  0  0
    3.8432    0.9544    5.5649 C   0  0  0  0  0  0  0  0  0  0  0  0
    3.8620    0.5461    3.4552 H   0  0  0  0  0  0  0  0  0  0  0  0
    4.6410    1.4339    6.1421 H   0  0  0  0  0  0  0  0  0  0  0  0
    2.8764    1.2909    5.9539 H   0  0  0  0  0  0  0  0  0  0  0  0
    3.9185   -0.1279    5.7073 H   0  0  0  0  0  0  0  0  0  0  0  0
  1  2  2  0  0  0  0
  1  3  1  0  0  0  0
  1  7  1  0  0  0  0
  3  4  1  0  0  0  0
  3  5  1  0  0  0  0
  3  6  1  0  0  0  0
  7  8  1  0  0  0  0
  7 12  1  0  0  0  0
  8  9  1  0  0  0  0
  8 11  1  0  0  0  0
  8 13  1  0  0  0  0
  9 10  2  0  0  0  0
  9 17  1  0  0  0  0
 11 14  1  0  0  0  0
 11 15  1  0  0  0  0
 11 16  1  0  0  0  0
 17 18  1  0  0  0  0
 17 27  1  0  0  0  0
 18 19  1  0  0  0  0
 18 21  1  0  0  0  0
 18 28  1  0  0  0  0
 19 20  2  0  0  0  0
 19 35  1  0  0  0  0
 21 22  1  0  0  0  0
 21 29  1  0  0  0  0
 21 30  1  0  0  0  0
 22 23  1  0  0  0  0
 22 24  2  0  0  0  0
 23 25  2  0  0  0  0
 23 31  1  0  0  0  0
 24 26  1  0  0  0  0
 24 32  1  0  0  0  0
 25 26  1  0  0  0  0
 25 33  1  0  0  0  0
 26 34  1  0  0  0  0
 35 36  1  0  0  0  0
 35 40  1  0  0  0  0
 36 37  1  0  0  0  0
 36 39  1  0  0  0  0
 36 41  1  0  0  0  0
 37 38  2  0  0  0  0
 37 45  1  0  0  0  0
 39 42  1  0  0  0  0
 39 43  1  0  0  0  0
 39 44  1  0  0  0  0
 45 46  1  0  0  0  0
 45 47  1  0  0  0  0
 46 48  1  0  0  0  0
 46 49  1  0  0  0  0
 46 50  1  0  0  0  0
M  CHG  1  23   1
M  END
$$$$

  -OEChem-05262216443D

 50 50  0     1  0  0  0  0  0999 V2000
   -3.5062    0.1804    1.4790 C   0  0  0  0  0  0  0  0  0  0  0  0
   -3.0542    0.5585    0.4038 O   0  0  0  0  0  0  0  0  0  0  0  0
   -4.5478   -0.9206    1.5254 C   0  0  0  0  0  0  0  0  0  0  0  0
   -4.1481   -1.7927    2.0491 H   0  0  0  0  0  0  0  0  0  0  0  0
   -5.4397   -0.5692    2.0511 H   0  0  0  0  0  0  0  0  0  0  0  0
   -4.8333   -1.2173    0.5125 H   0  0  0  0  0  0  0  0  0  0  0  0
   -3.0247    0.7204    2.6542 N   0  0  0  0  0  0  0  0  0  0  0  0
   -2.1248    1.8822    2.7398 C   0  0  2  0  0  0  0  0  0  0  0  0
   -0.6445    1.5347    2.4373 C   0  0  0  0  0  0  0  0  0  0  0  0
    0.2407    1.7618    3.2446 O   0  0  0  0  0  0  0  0  0  0  0  0
   -2.3170    2.4970    4.1329 C   0  0  0  0  0  0  0  0  0  0  0  0
   -3.4190    0.3611    3.5213 H   0  0  0  0  0  0  0  0  0  0  0  0
   -2.4341    2.6324    2.0041 H   0  0  0  0  0  0  0  0  0  0  0  0
   -2.0118    1.7917    4.9129 H   0  0  0  0  0  0  0  0  0  0  0  0
   -1.7133    3.4049    4.2357 H   0  0  0  0  0  0  0  0  0  0  0  0
   -3.3660    2.7648    4.2934 H   0  0  0  0  0  0  0  0  0  0  0  0
   -0.3316    1.0185    1.1908 N   0  0  0  0  0  0  0  0  0  0  0  0
    0.9667    0.5515    0.6488 C   0  0  2  0  0  0  0  0  0  0  0  0
    2.3010    0.8999    1.3527 C   0  0  0  0  0  0  0  0  0  0  0  0
    3.2153    0.0913    1.2485 O   0  0  0  0  0  0  0  0  0  0  0  0
    1.0670    1.0539   -0.8018 C   0  0  0  0  0  0  0  0  0  0  0  0
   -0.0057    0.4315   -1.6603 C   0  0  0  0  0  0  0  0  0  0  0  0
   -0.0214   -0.8802   -2.1377 N   0  3  0  0  0  0  0  0  0  0  0  0
   -1.1512    1.0456   -2.0987 C   0  0  0  0  0  0  0  0  0  0  0  0
   -1.1171   -1.0988   -2.8243 C   0  0  0  0  0  0  0  0  0  0  0  0
   -1.8501    0.0861   -2.8195 N   0  0  0  0  0  0  0  0  0  0  0  0
   -1.1626    0.8146    0.6292 H   0  0  0  0  0  0  0  0  0  0  0  0
    0.9295   -0.5428    0.6508 H   0  0  0  0  0  0  0  0  0  0  0  0
    2.0502    0.8081   -1.2203 H   0  0  0  0  0  0  0  0  0  0  0  0
    0.9757    2.1458   -0.8123 H   0  0  0  0  0  0  0  0  0  0  0  0
    0.7313   -1.5502   -1.9540 H   0  0  0  0  0  0  0  0  0  0  0  0
   -1.4632    2.0688   -1.8876 H   0  0  0  0  0  0  0  0  0  0  0  0
   -1.4043   -2.0345   -3.3077 H   0  0  0  0  0  0  0  0  0  0  0  0
   -2.7740    0.2213   -3.2409 H   0  0  0  0  0  0  0  0  0  0  0  0
    2.5799    2.1711    1.8173 N   0  0  0  0  0  0  0  0  0  0  0  0
    3.8858    2.5526    2.3795 C   0  0  2  0  0  0  0  0  0  0  0  0
    4.0927    2.0021    3.8112 C   0  0  0  0  0  0  0  0  0  0  0  0
    4.2012    2.7463    4.7767 O   0  0  0  0  0  0  0  0  0  0  0  0
    3.9825    4.0821    2.3126 C   0  0  0  0  0  0  0  0  0  0  0  0
    1.7639    2.6336    2.2233 H   0  0  0  0  0  0  0  0  0  0  0  0
    4.6910    2.1428    1.7606 H   0  0  0  0  0  0  0  0  0  0  0  0
    3.1980    4.5449    2.9203 H   0  0  0  0  0  0  0  0  0  0  0  0
    4.9537    4.4175    2.6914 H   0  0  0  0  0  0  0  0  0  0  0  0
    3.8769    4.4277    1.2801 H   0  0  0  0  0  0  0  0  0  0  0  0
    4.1647    0.6365    4.0029 N   0  0  0  0  0  0  0  0  0  0  0  0
    4.3067    0.0101    5.3109 C   0  0  0  0  0  0  0  0  0  0  0  0
    4.0169    0.0537    3.1777 H   0  0  0  0  0  0  0  0  0  0  0  0
    5.2220    0.3551    5.8038 H   0  0  0  0  0  0  0  0  0  0  0  0
    3.4504    0.2551    5.9477 H   0  0  0  0  0  0  0  0  0  0  0  0
    4.3616   -1.0777    5.2056 H   0  0  0  0  0  0  0  0  0  0  0  0
  1  2  2  0  0  0  0
  1  3  1  0  0  0  0
  1  7  1  0  0  0  0
  3  4  1  0  0  0  0
  3  5  1  0  0  0  0
  3  6  1  0  0  0  0
  7  8  1  0  0  0  0
  7 12  1  0  0  0  0
  8  9  1  0  0  0  0
  8 11  1  0  0  0  0
  8 13  1  0  0  0  0
  9 10  2  0  0  0  0
  9 17  1  0  0  0  0
 11 14  1  0  0  0  0
 11 15  1  0  0  0  0
 11 16  1  0  0  0  0
 17 18  1  0  0  0  0
 17 27  1  0  0  0  0
 18 19  1  0  0  0  0
 18 21  1  0  0  0  0
 18 28  1  0  0  0  0
 19 20  2  0  0  0  0
 19 35  1  0  0  0  0
 21 22  1  0  0  0  0
 21 29  1  0  0  0  0
 21 30  1  0  0  0  0
 22 23  1  0  0  0  0
 22 24  2  0  0  0  0
 23 25  2  0  0  0  0
 23 31  1  0  0  0  0
 24 26  1  0  0  0  0
 24 32  1  0  0  0  0
 25 26  1  0  0  0  0
 25 33  1  0  0  0  0
 26 34  1  0  0  0  0
 35 36  1  0  0  0  0
 35 40  1  0  0  0  0
 36 37  1  0  0  0  0
 36 39  1  0  0  0  0
 36 41  1  0  0  0  0
 37 38  2  0  0  0  0
 37 45  1  0  0  0  0
 39 42  1  0  0  0  0
 39 43  1  0  0  0  0
 39 44  1  0  0  0  0
 45 46  1  0  0  0  0
 45 47  1  0  0  0  0
 46 48  1  0  0  0  0
 46 49  1  0  0  0  0
 46 50  1  0  0  0  0
M  CHG  1  23   1
M  END
$$$$

  -OEChem-05262216443D

 50 50  0     1  0  0  0  0  0999 V2000
   -1.8781   -0.3507    2.5029 C   0  0  0  0  0  0  0  0  0  0  0  0
   -2.5291   -0.2097    1.4726 O   0  0  0  0  0  0  0  0  0  0  0  0
   -1.3736   -1.7206    2.9100 C   0  0  0  0  0  0  0  0  0  0  0  0
   -1.8267   -2.4948    2.2854 H   0  0  0  0  0  0  0  0  0  0  0  0
   -0.2866   -1.7641    2.7995 H   0  0  0  0  0  0  0  0  0  0  0  0
   -1.6311   -1.9161    3.9540 H   0  0  0  0  0  0  0  0  0  0  0  0
   -1.4648    0.7597    3.2057 N   0  0  0  0  0  0  0  0  0  0  0  0
   -1.6880    2.1383    2.7576 C   0  0  2  0  0  0  0  0  0  0  0  0
   -0.6875    2.5146    1.6416 C   0  0  0  0  0  0  0  0  0  0  0  0
    0.1471    3.4009    1.7690 O   0  0  0  0  0  0  0  0  0  0  0  0
   -1.5700    3.0394    3.9922 C   0  0  0  0  0  0  0  0  0  0  0  0
   -0.6653    0.6070    3.8317 H   0  0  0  0  0  0  0  0  0  0  0  0
   -2.7016    2.2442    2.3571 H   0  0  0  0  0  0  0  0  0  0  0  0
   -0.5695    2.9632    4.4314 H   0  0  0  0  0  0  0  0  0  0  0  0
   -1.7507    4.0843    3.7208 H   0  0  0  0  0  0  0  0  0  0  0  0
   -2.3050    2.7469    4.7483 H   0  0  0  0  0  0  0  0  0  0  0  0
   -0.7267    1.8706    0.4186 N   0  0  0  0  0  0  0  0  0  0  0  0
    0.2568    0.8295    0.0337 C   0  0  2  0  0  0  0  0  0  0  0  0
    1.5741    0.6358    0.8249 C   0  0  0  0  0  0  0  0  0  0  0  0
    2.0503   -0.4918    0.8218 O   0  0  0  0  0  0  0  0  0  0  0  0
    0.6239    1.0694   -1.4384 C   0  0  0  0  0  0  0  0  0  0  0  0
   -0.5837    0.8749   -2.3215 C   0  0  0  0  0  0  0  0  0  0  0  0
   -1.1540   -0.3481   -2.6765 N   0  3  0  0  0  0  0  0  0  0  0  0
   -1.3048    1.8647   -2.9394 C   0  0  0  0  0  0  0  0  0  0  0  0
   -2.1914   -0.1550   -3.4547 C   0  0  0  0  0  0  0  0  0  0  0  0
   -2.3137    1.2203   -3.6459 N   0  0  0  0  0  0  0  0  0  0  0  0
   -1.6692    1.4924    0.3045 H   0  0  0  0  0  0  0  0  0  0  0  0
   -0.2531   -0.1357    0.1134 H   0  0  0  0  0  0  0  0  0  0  0  0
    1.4149    0.3771   -1.7506 H   0  0  0  0  0  0  0  0  0  0  0  0
    1.0181    2.0861   -1.5493 H   0  0  0  0  0  0  0  0  0  0  0  0
   -0.8049   -1.2470   -2.3314 H   0  0  0  0  0  0  0  0  0  0  0  0
   -1.1186    2.9374   -2.8709 H   0  0  0  0  0  0  0  0  0  0  0  0
   -2.8408   -0.9278   -3.8712 H   0  0  0  0  0  0  0  0  0  0  0  0
   -3.0340    1.6841   -4.2079 H   0  0  0  0  0  0  0  0  0  0  0  0
    2.2482    1.6387    1.4904 N   0  0  0  0  0  0  0  0  0  0  0  0
    3.1863    1.3283    2.5790 C   0  0  2  0  0  0  0  0  0  0  0  0
    2.5055    0.7314    3.8393 C   0  0  0  0  0  0  0  0  0  0  0  0
    1.2820    0.6958    3.9581 O   0  0  0  0  0  0  0  0  0  0  0  0
    3.9052    2.6330    2.9322 C   0  0  0  0  0  0  0  0  0  0  0  0
    1.7248    2.5144    1.5753 H   0  0  0  0  0  0  0  0  0  0  0  0
    3.9266    0.6035    2.2236 H   0  0  0  0  0  0  0  0  0  0  0  0
    3.1905    3.3745    3.3048 H   0  0  0  0  0  0  0  0  0  0  0  0
    4.6612    2.4613    3.7042 H   0  0  0  0  0  0  0  0  0  0  0  0
    4.4042    3.0432    2.0483 H   0  0  0  0  0  0  0  0  0  0  0  0
    3.2791    0.2193    4.8643 N   0  0  0  0  0  0  0  0  0  0  0  0
    2.7261   -0.3390    6.0935 C   0  0  0  0  0  0  0  0  0  0  0  0
    4.2886    0.2436    4.7499 H   0  0  0  0  0  0  0  0  0  0  0  0
    2.1626    0.4236    6.6417 H   0  0  0  0  0  0  0  0  0  0  0  0
    2.0590   -1.1780    5.8689 H   0  0  0  0  0  0  0  0  0  0  0  0
    3.5310   -0.7034    6.7397 H   0  0  0  0  0  0  0  0  0  0  0  0
  1  2  2  0  0  0  0
  1  3  1  0  0  0  0
  1  7  1  0  0  0  0
  3  4  1  0  0  0  0
  3  5  1  0  0  0  0
  3  6  1  0  0  0  0
  7  8  1  0  0  0  0
  7 12  1  0  0  0  0
  8  9  1  0  0  0  0
  8 11  1  0  0  0  0
  8 13  1  0  0  0  0
  9 10  2  0  0  0  0
  9 17  1  0  0  0  0
 11 14  1  0  0  0  0
 11 15  1  0  0  0  0
 11 16  1  0  0  0  0
 17 18  1  0  0  0  0
 17 27  1  0  0  0  0
 18 19  1  0  0  0  0
 18 21  1  0  0  0  0
 18 28  1  0  0  0  0
 19 20  2  0  0  0  0
 19 35  1  0  0  0  0
 21 22  1  0  0  0  0
 21 29  1  0  0  0  0
 21 30  1  0  0  0  0
 22 23  1  0  0  0  0
 22 24  2  0  0  0  0
 23 25  2  0  0  0  0
 23 31  1  0  0  0  0
 24 26  1  0  0  0  0
 24 32  1  0  0  0  0
 25 26  1  0  0  0  0
 25 33  1  0  0  0  0
 26 34  1  0  0  0  0
 35 36  1  0  0  0  0
 35 40  1  0  0  0  0
 36 37  1  0  0  0  0
 36 39  1  0  0  0  0
 36 41  1  0  0  0  0
 37 38  2  0  0  0  0
 37 45  1  0  0  0  0
 39 42  1  0  0  0  0
 39 43  1  0  0  0  0
 39 44  1  0  0  0  0
 45 46  1  0  0  0  0
 45 47  1  0  0  0  0
 46 48  1  0  0  0  0
 46 49  1  0  0  0  0
 46 50  1  0  0  0  0
M  CHG  1  23   1
M  END
$$$$

  -OEChem-05262216443D

 50 50  0     1  0  0  0  0  0999 V2000
   -3.4156    0.2210    1.7410 C   0  0  0  0  0  0  0  0  0  0  0  0
   -3.2152    0.5917    0.5894 O   0  0  0  0  0  0  0  0  0  0  0  0
   -4.1762   -1.0634    2.0073 C   0  0  0  0  0  0  0  0  0  0  0  0
   -4.4788   -1.5285    1.0654 H   0  0  0  0  0  0  0  0  0  0  0  0
   -3.5447   -1.7644    2.5594 H   0  0  0  0  0  0  0  0  0  0  0  0
   -5.0715   -0.8511    2.5974 H   0  0  0  0  0  0  0  0  0  0  0  0
   -2.8860    0.9367    2.7954 N   0  0  0  0  0  0  0  0  0  0  0  0
   -2.1613    2.2125    2.6742 C   0  0  2  0  0  0  0  0  0  0  0  0
   -0.6956    2.0255    2.2051 C   0  0  0  0  0  0  0  0  0  0  0  0
    0.2302    2.4752    2.8563 O   0  0  0  0  0  0  0  0  0  0  0  0
   -2.2686    2.9212    4.0318 C   0  0  0  0  0  0  0  0  0  0  0  0
   -3.0181    0.5516    3.7286 H   0  0  0  0  0  0  0  0  0  0  0  0
   -2.6605    2.8440    1.9318 H   0  0  0  0  0  0  0  0  0  0  0  0
   -1.7601    2.3433    4.8107 H   0  0  0  0  0  0  0  0  0  0  0  0
   -1.8056    3.9123    3.9823 H   0  0  0  0  0  0  0  0  0  0  0  0
   -3.3172    3.0481    4.3181 H   0  0  0  0  0  0  0  0  0  0  0  0
   -0.4931    1.4212    0.9749 N   0  0  0  0  0  0  0  0  0  0  0  0
    0.6856    0.7396    0.3796 C   0  0  2  0  0  0  0  0  0  0  0  0
    2.1411    0.8217    0.9167 C   0  0  0  0  0  0  0  0  0  0  0  0
    2.9353    0.0282    0.4236 O   0  0  0  0  0  0  0  0  0  0  0  0
    0.7076    1.1836   -1.0976 C   0  0  0  0  0  0  0  0  0  0  0  0
   -0.5221    0.6858   -1.8153 C   0  0  0  0  0  0  0  0  0  0  0  0
   -0.7538   -0.6274   -2.2248 N   0  3  0  0  0  0  0  0  0  0  0  0
   -1.6206    1.4302   -2.1613 C   0  0  0  0  0  0  0  0  0  0  0  0
   -1.9385   -0.7258   -2.7777 C   0  0  0  0  0  0  0  0  0  0  0  0
   -2.5103    0.5449   -2.7566 N   0  0  0  0  0  0  0  0  0  0  0  0
   -1.3870    1.1376    0.5655 H   0  0  0  0  0  0  0  0  0  0  0  0
    0.4654   -0.3314    0.4325 H   0  0  0  0  0  0  0  0  0  0  0  0
    1.5960    0.7957   -1.6096 H   0  0  0  0  0  0  0  0  0  0  0  0
    0.7625    2.2771   -1.1430 H   0  0  0  0  0  0  0  0  0  0  0  0
   -0.0782   -1.3831   -2.0777 H   0  0  0  0  0  0  0  0  0  0  0  0
   -1.7711    2.4925   -1.9692 H   0  0  0  0  0  0  0  0  0  0  0  0
   -2.3950   -1.6340   -3.1749 H   0  0  0  0  0  0  0  0  0  0  0  0
   -3.4536    0.7816   -3.0772 H   0  0  0  0  0  0  0  0  0  0  0  0
    2.6241    1.7392    1.8252 N   0  0  0  0  0  0  0  0  0  0  0  0
    3.8571    1.4789    2.5815 C   0  0  2  0  0  0  0  0  0  0  0  0
    3.6888    0.3586    3.6375 C   0  0  0  0  0  0  0  0  0  0  0  0
    2.5767   -0.0258    3.9843 O   0  0  0  0  0  0  0  0  0  0  0  0
    4.2584    2.7920    3.2583 C   0  0  0  0  0  0  0  0  0  0  0  0
    1.8893    2.2327    2.3358 H   0  0  0  0  0  0  0  0  0  0  0  0
    4.6557    1.1799    1.8945 H   0  0  0  0  0  0  0  0  0  0  0  0
    3.4820    3.1118    3.9614 H   0  0  0  0  0  0  0  0  0  0  0  0
    5.1964    2.6712    3.8088 H   0  0  0  0  0  0  0  0  0  0  0  0
    4.3959    3.5789    2.5100 H   0  0  0  0  0  0  0  0  0  0  0  0
    4.8028   -0.2252    4.2128 N   0  0  0  0  0  0  0  0  0  0  0  0
    4.7254   -1.2839    5.2133 C   0  0  0  0  0  0  0  0  0  0  0  0
    5.7158    0.0787    3.8881 H   0  0  0  0  0  0  0  0  0  0  0  0
    4.1838   -0.9348    6.0989 H   0  0  0  0  0  0  0  0  0  0  0  0
    4.2080   -2.1595    4.8068 H   0  0  0  0  0  0  0  0  0  0  0  0
    5.7299   -1.5891    5.5220 H   0  0  0  0  0  0  0  0  0  0  0  0
  1  2  2  0  0  0  0
  1  3  1  0  0  0  0
  1  7  1  0  0  0  0
  3  4  1  0  0  0  0
  3  5  1  0  0  0  0
  3  6  1  0  0  0  0
  7  8  1  0  0  0  0
  7 12  1  0  0  0  0
  8  9  1  0  0  0  0
  8 11  1  0  0  0  0
  8 13  1  0  0  0  0
  9 10  2  0  0  0  0
  9 17  1  0  0  0  0
 11 14  1  0  0  0  0
 11 15  1  0  0  0  0
 11 16  1  0  0  0  0
 17 18  1  0  0  0  0
 17 27  1  0  0  0  0
 18 19  1  0  0  0  0
 18 21  1  0  0  0  0
 18 28  1  0  0  0  0
 19 20  2  0  0  0  0
 19 35  1  0  0  0  0
 21 22  1  0  0  0  0
 21 29  1  0  0  0  0
 21 30  1  0  0  0  0
 22 23  1  0  0  0  0
 22 24  2  0  0  0  0
 23 25  2  0  0  0  0
 23 31  1  0  0  0  0
 24 26  1  0  0  0  0
 24 32  1  0  0  0  0
 25 26  1  0  0  0  0
 25 33  1  0  0  0  0
 26 34  1  0  0  0  0
 35 36  1  0  0  0  0
 35 40  1  0  0  0  0
 36 37  1  0  0  0  0
 36 39  1  0  0  0  0
 36 41  1  0  0  0  0
 37 38  2  0  0  0  0
 37 45  1  0  0  0  0
 39 42  1  0  0  0  0
 39 43  1  0  0  0  0
 39 44  1  0  0  0  0
 45 46  1  0  0  0  0
 45 47  1  0  0  0  0
 46 48  1  0  0  0  0
 46 49  1  0  0  0  0
 46 50  1  0  0  0  0
M  CHG  1  23   1
M  END
$$$$

  -OEChem-05262216443D

 50 50  0     1  0  0  0  0  0999 V2000
   -1.7641    0.4735    4.5467 C   0  0  0  0  0  0  0  0  0  0  0  0
   -0.5722    0.4317    4.2899 O   0  0  0  0  0  0  0  0  0  0  0  0
   -2.2969   -0.1579    5.8177 C   0  0  0  0  0  0  0  0  0  0  0  0
   -2.9816   -0.9727    5.5698 H   0  0  0  0  0  0  0  0  0  0  0  0
   -1.4716   -0.5617    6.4110 H   0  0  0  0  0  0  0  0  0  0  0  0
   -2.8273    0.5883    6.4141 H   0  0  0  0  0  0  0  0  0  0  0  0
   -2.6272    1.0813    3.6566 N   0  0  0  0  0  0  0  0  0  0  0  0
   -2.2313    1.5115    2.3036 C   0  0  2  0  0  0  0  0  0  0  0  0
   -1.5741    0.3754    1.4701 C   0  0  0  0  0  0  0  0  0  0  0  0
   -2.0611   -0.7414    1.5313 O   0  0  0  0  0  0  0  0  0  0  0  0
   -1.4076    2.8058    2.3904 C   0  0  0  0  0  0  0  0  0  0  0  0
   -3.6172    0.9491    3.8455 H   0  0  0  0  0  0  0  0  0  0  0  0
   -3.1472    1.7644    1.7611 H   0  0  0  0  0  0  0  0  0  0  0  0
   -0.5135    2.6755    3.0033 H   0  0  0  0  0  0  0  0  0  0  0  0
   -1.1025    3.1375    1.3943 H   0  0  0  0  0  0  0  0  0  0  0  0
   -2.0101    3.5978    2.8458 H   0  0  0  0  0  0  0  0  0  0  0  0
   -1.1035    0.5914    0.1983 N   0  0  0  0  0  0  0  0  0  0  0  0
    0.3212    0.7274   -0.1821 C   0  0  2  0  0  0  0  0  0  0  0  0
    1.4821    0.9760    0.8267 C   0  0  0  0  0  0  0  0  0  0  0  0
    2.5832    1.1377    0.3129 O   0  0  0  0  0  0  0  0  0  0  0  0
    0.3589    1.7899   -1.3077 C   0  0  0  0  0  0  0  0  0  0  0  0
   -0.3843    1.3094   -2.5302 C   0  0  0  0  0  0  0  0  0  0  0  0
    0.0879    0.3540   -3.4312 N   0  3  0  0  0  0  0  0  0  0  0  0
   -1.6032    1.7441   -2.9859 C   0  0  0  0  0  0  0  0  0  0  0  0
   -0.7779    0.1761   -4.3992 C   0  0  0  0  0  0  0  0  0  0  0  0
   -1.8530    1.0283   -4.1520 N   0  0  0  0  0  0  0  0  0  0  0  0
   -1.5546   -0.1213   -0.3723 H   0  0  0  0  0  0  0  0  0  0  0  0
    0.5995   -0.2413   -0.6108 H   0  0  0  0  0  0  0  0  0  0  0  0
    1.3876    2.0202   -1.6065 H   0  0  0  0  0  0  0  0  0  0  0  0
   -0.0791    2.7221   -0.9359 H   0  0  0  0  0  0  0  0  0  0  0  0
    0.9939   -0.1132   -3.3232 H   0  0  0  0  0  0  0  0  0  0  0  0
   -2.2369    2.4990   -2.5201 H   0  0  0  0  0  0  0  0  0  0  0  0
   -0.6730   -0.5092   -5.2430 H   0  0  0  0  0  0  0  0  0  0  0  0
   -2.6883    1.1207   -4.7385 H   0  0  0  0  0  0  0  0  0  0  0  0
    1.3918    1.1059    2.2043 N   0  0  0  0  0  0  0  0  0  0  0  0
    2.6120    1.0649    3.0384 C   0  0  2  0  0  0  0  0  0  0  0  0
    3.0888   -0.3829    3.3106 C   0  0  0  0  0  0  0  0  0  0  0  0
    2.4751   -1.3442    2.8598 O   0  0  0  0  0  0  0  0  0  0  0  0
    2.3586    1.8215    4.3469 C   0  0  0  0  0  0  0  0  0  0  0  0
    0.5557    0.7161    2.6484 H   0  0  0  0  0  0  0  0  0  0  0  0
    3.4294    1.5840    2.5275 H   0  0  0  0  0  0  0  0  0  0  0  0
    1.7014    1.2503    5.0077 H   0  0  0  0  0  0  0  0  0  0  0  0
    3.3007    1.9958    4.8746 H   0  0  0  0  0  0  0  0  0  0  0  0
    1.8952    2.7916    4.1433 H   0  0  0  0  0  0  0  0  0  0  0  0
    4.2537   -0.6133    4.0204 N   0  0  0  0  0  0  0  0  0  0  0  0
    4.7862   -1.9476    4.2731 C   0  0  0  0  0  0  0  0  0  0  0  0
    4.7670    0.1933    4.3610 H   0  0  0  0  0  0  0  0  0  0  0  0
    4.0632   -2.5488    4.8344 H   0  0  0  0  0  0  0  0  0  0  0  0
    5.0097   -2.4564    3.3295 H   0  0  0  0  0  0  0  0  0  0  0  0
    5.7092   -1.8836    4.8575 H   0  0  0  0  0  0  0  0  0  0  0  0
  1  2  2  0  0  0  0
  1  3  1  0  0  0  0
  1  7  1  0  0  0  0
  3  4  1  0  0  0  0
  3  5  1  0  0  0  0
  3  6  1  0  0  0  0
  7  8  1  0  0  0  0
  7 12  1  0  0  0  0
  8  9  1  0  0  0  0
  8 11  1  0  0  0  0
  8 13  1  0  0  0  0
  9 10  2  0  0  0  0
  9 17  1  0  0  0  0
 11 14  1  0  0  0  0
 11 15  1  0  0  0  0
 11 16  1  0  0  0  0
 17 18  1  0  0  0  0
 17 27  1  0  0  0  0
 18 19  1  0  0  0  0
 18 21  1  0  0  0  0
 18 28  1  0  0  0  0
 19 20  2  0  0  0  0
 19 35  1  0  0  0  0
 21 22  1  0  0  0  0
 21 29  1  0  0  0  0
 21 30  1  0  0  0  0
 22 23  1  0  0  0  0
 22 24  2  0  0  0  0
 23 25  2  0  0  0  0
 23 31  1  0  0  0  0
 24 26  1  0  0  0  0
 24 32  1  0  0  0  0
 25 26  1  0  0  0  0
 25 33  1  0  0  0  0
 26 34  1  0  0  0  0
 35 36  1  0  0  0  0
 35 40  1  0  0  0  0
 36 37  1  0  0  0  0
 36 39  1  0  0  0  0
 36 41  1  0  0  0  0
 37 38  2  0  0  0  0
 37 45  1  0  0  0  0
 39 42  1  0  0  0  0
 39 43  1  0  0  0  0
 39 44  1  0  0  0  0
 45 46  1  0  0  0  0
 45 47  1  0  0  0  0
 46 48  1  0  0  0  0
 46 49  1  0  0  0  0
 46 50  1  0  0  0  0
M  CHG  1  23   1
M  END
$$$$

  -OEChem-05262216443D

 50 50  0     1  0  0  0  0  0999 V2000
   -2.7700   -0.3539    1.6823 C   0  0  0  0  0  0  0  0  0  0  0  0
   -2.7693    0.0772    0.5338 O   0  0  0  0  0  0  0  0  0  0  0  0
   -3.0451   -1.8219    1.9450 C   0  0  0  0  0  0  0  0  0  0  0  0
   -3.4019   -2.3110    1.0349 H   0  0  0  0  0  0  0  0  0  0  0  0
   -2.1299   -2.3178    2.2785 H   0  0  0  0  0  0  0  0  0  0  0  0
   -3.8087   -1.9276    2.7200 H   0  0  0  0  0  0  0  0  0  0  0  0
   -2.4383    0.4803    2.7307 N   0  0  0  0  0  0  0  0  0  0  0  0
   -2.1246    1.9132    2.6036 C   0  0  2  0  0  0  0  0  0  0  0  0
   -0.6894    2.1547    2.0726 C   0  0  0  0  0  0  0  0  0  0  0  0
    0.1019    2.8508    2.6865 O   0  0  0  0  0  0  0  0  0  0  0  0
   -2.3718    2.5546    3.9755 C   0  0  0  0  0  0  0  0  0  0  0  0
   -2.3439    0.0505    3.6489 H   0  0  0  0  0  0  0  0  0  0  0  0
   -2.8169    2.3760    1.8923 H   0  0  0  0  0  0  0  0  0  0  0  0
   -1.6888    2.1406    4.7246 H   0  0  0  0  0  0  0  0  0  0  0  0
   -2.2119    3.6366    3.9238 H   0  0  0  0  0  0  0  0  0  0  0  0
   -3.4010    2.3760    4.3023 H   0  0  0  0  0  0  0  0  0  0  0  0
   -0.3809    1.6372    0.8264 N   0  0  0  0  0  0  0  0  0  0  0  0
    0.8971    1.1530    0.2438 C   0  0  2  0  0  0  0  0  0  0  0  0
    2.3125    1.4172    0.8318 C   0  0  0  0  0  0  0  0  0  0  0  0
    3.2549    0.9343    0.2141 O   0  0  0  0  0  0  0  0  0  0  0  0
    0.8630    1.6361   -1.2232 C   0  0  0  0  0  0  0  0  0  0  0  0
   -0.2742    0.9712   -1.9588 C   0  0  0  0  0  0  0  0  0  0  0  0
   -0.3007   -0.3520   -2.3985 N   0  3  0  0  0  0  0  0  0  0  0  0
   -1.4762    1.5439   -2.2869 C   0  0  0  0  0  0  0  0  0  0  0  0
   -1.4608   -0.6224   -2.9459 C   0  0  0  0  0  0  0  0  0  0  0  0
   -2.2218    0.5439   -2.8979 N   0  0  0  0  0  0  0  0  0  0  0  0
   -1.1985    1.1550    0.4441 H   0  0  0  0  0  0  0  0  0  0  0  0
    0.8351    0.0603    0.2654 H   0  0  0  0  0  0  0  0  0  0  0  0
    1.7995    1.4026   -1.7419 H   0  0  0  0  0  0  0  0  0  0  0  0
    0.7505    2.7259   -1.2409 H   0  0  0  0  0  0  0  0  0  0  0  0
    0.4816   -0.9985   -2.2624 H   0  0  0  0  0  0  0  0  0  0  0  0
   -1.7867    2.5663   -2.0712 H   0  0  0  0  0  0  0  0  0  0  0  0
   -1.7762   -1.5835   -3.3552 H   0  0  0  0  0  0  0  0  0  0  0  0
   -3.1934    0.6365   -3.2076 H   0  0  0  0  0  0  0  0  0  0  0  0
    2.5594    1.8743    2.1076 N   0  0  0  0  0  0  0  0  0  0  0  0
    3.5617    1.2242    2.9595 C   0  0  2  0  0  0  0  0  0  0  0  0
    3.0772   -0.1550    3.4723 C   0  0  0  0  0  0  0  0  0  0  0  0
    1.9141   -0.5208    3.3105 O   0  0  0  0  0  0  0  0  0  0  0  0
    3.8410    2.1700    4.1300 C   0  0  0  0  0  0  0  0  0  0  0  0
    1.7236    2.2029    2.5919 H   0  0  0  0  0  0  0  0  0  0  0  0
    4.4918    1.0752    2.4007 H   0  0  0  0  0  0  0  0  0  0  0  0
    2.9283    2.3405    4.7104 H   0  0  0  0  0  0  0  0  0  0  0  0
    4.6023    1.7499    4.7940 H   0  0  0  0  0  0  0  0  0  0  0  0
    4.2023    3.1346    3.7594 H   0  0  0  0  0  0  0  0  0  0  0  0
    3.9590   -1.0047    4.1141 N   0  0  0  0  0  0  0  0  0  0  0  0
    3.5867   -2.3226    4.6154 C   0  0  0  0  0  0  0  0  0  0  0  0
    4.9220   -0.6958    4.2139 H   0  0  0  0  0  0  0  0  0  0  0  0
    2.7642   -2.2416    5.3339 H   0  0  0  0  0  0  0  0  0  0  0  0
    3.2729   -2.9716    3.7911 H   0  0  0  0  0  0  0  0  0  0  0  0
    4.4383   -2.7905    5.1191 H   0  0  0  0  0  0  0  0  0  0  0  0
  1  2  2  0  0  0  0
  1  3  1  0  0  0  0
  1  7  1  0  0  0  0
  3  4  1  0  0  0  0
  3  5  1  0  0  0  0
  3  6  1  0  0  0  0
  7  8  1  0  0  0  0
  7 12  1  0  0  0  0
  8  9  1  0  0  0  0
  8 11  1  0  0  0  0
  8 13  1  0  0  0  0
  9 10  2  0  0  0  0
  9 17  1  0  0  0  0
 11 14  1  0  0  0  0
 11 15  1  0  0  0  0
 11 16  1  0  0  0  0
 17 18  1  0  0  0  0
 17 27  1  0  0  0  0
 18 19  1  0  0  0  0
 18 21  1  0  0  0  0
 18 28  1  0  0  0  0
 19 20  2  0  0  0  0
 19 35  1  0  0  0  0
 21 22  1  0  0  0  0
 21 29  1  0  0  0  0
 21 30  1  0  0  0  0
 22 23  1  0  0  0  0
 22 24  2  0  0  0  0
 23 25  2  0  0  0  0
 23 31  1  0  0  0  0
 24 26  1  0  0  0  0
 24 32  1  0  0  0  0
 25 26  1  0  0  0  0
 25 33  1  0  0  0  0
 26 34  1  0  0  0  0
 35 36  1  0  0  0  0
 35 40  1  0  0  0  0
 36 37  1  0  0  0  0
 36 39  1  0  0  0  0
 36 41  1  0  0  0  0
 37 38  2  0  0  0  0
 37 45  1  0  0  0  0
 39 42  1  0  0  0  0
 39 43  1  0  0  0  0
 39 44  1  0  0  0  0
 45 46  1  0  0  0  0
 45 47  1  0  0  0  0
 46 48  1  0  0  0  0
 46 49  1  0  0  0  0
 46 50  1  0  0  0  0
M  CHG  1  23   1
M  END
$$$$

  -OEChem-05262216443D

 50 50  0     1  0  0  0  0  0999 V2000
   -3.3835    0.0805    1.4637 C   0  0  0  0  0  0  0  0  0  0  0  0
   -3.0622    0.4718    0.3474 O   0  0  0  0  0  0  0  0  0  0  0  0
   -4.1573   -1.2130    1.6282 C   0  0  0  0  0  0  0  0  0  0  0  0
   -4.3825   -1.6487    0.6510 H   0  0  0  0  0  0  0  0  0  0  0  0
   -3.5688   -1.9301    2.2067 H   0  0  0  0  0  0  0  0  0  0  0  0
   -5.0977   -1.0210    2.1512 H   0  0  0  0  0  0  0  0  0  0  0  0
   -2.9912    0.7934    2.5771 N   0  0  0  0  0  0  0  0  0  0  0  0
   -2.2705    2.0752    2.5416 C   0  0  2  0  0  0  0  0  0  0  0  0
   -0.7557    1.8985    2.2640 C   0  0  0  0  0  0  0  0  0  0  0  0
    0.0645    2.1948    3.1147 O   0  0  0  0  0  0  0  0  0  0  0  0
   -2.5599    2.7922    3.8675 C   0  0  0  0  0  0  0  0  0  0  0  0
   -3.2287    0.4017    3.4863 H   0  0  0  0  0  0  0  0  0  0  0  0
   -2.6753    2.6989    1.7374 H   0  0  0  0  0  0  0  0  0  0  0  0
   -2.1726    2.2147    4.7134 H   0  0  0  0  0  0  0  0  0  0  0  0
   -2.0843    3.7784    3.8777 H   0  0  0  0  0  0  0  0  0  0  0  0
   -3.6373    2.9296    4.0018 H   0  0  0  0  0  0  0  0  0  0  0  0
   -0.3896    1.4005    1.0224 N   0  0  0  0  0  0  0  0  0  0  0  0
    0.9096    0.9623    0.4405 C   0  0  2  0  0  0  0  0  0  0  0  0
    2.3088    1.2789    1.0556 C   0  0  0  0  0  0  0  0  0  0  0  0
    3.2940    1.1383    0.3391 O   0  0  0  0  0  0  0  0  0  0  0  0
    0.8681    1.4537   -1.0291 C   0  0  0  0  0  0  0  0  0  0  0  0
   -0.2343    0.7693   -1.7966 C   0  0  0  0  0  0  0  0  0  0  0  0
   -0.2086   -0.5477   -2.2552 N   0  3  0  0  0  0  0  0  0  0  0  0
   -1.4301    1.3202   -2.1791 C   0  0  0  0  0  0  0  0  0  0  0  0
   -1.3338   -0.8369   -2.8625 C   0  0  0  0  0  0  0  0  0  0  0  0
   -2.1237    0.3107   -2.8342 N   0  0  0  0  0  0  0  0  0  0  0  0
   -1.2131    1.1202    0.4840 H   0  0  0  0  0  0  0  0  0  0  0  0
    0.8887   -0.1321    0.4524 H   0  0  0  0  0  0  0  0  0  0  0  0
    1.8106    1.2513   -1.5492 H   0  0  0  0  0  0  0  0  0  0  0  0
    0.7275    2.5401   -1.0381 H   0  0  0  0  0  0  0  0  0  0  0  0
    0.5850   -1.1758   -2.0974 H   0  0  0  0  0  0  0  0  0  0  0  0
   -1.7751    2.3334   -1.9730 H   0  0  0  0  0  0  0  0  0  0  0  0
   -1.6043   -1.7983   -3.3025 H   0  0  0  0  0  0  0  0  0  0  0  0
   -3.0833    0.3858   -3.1837 H   0  0  0  0  0  0  0  0  0  0  0  0
    2.5414    1.4453    2.4030 N   0  0  0  0  0  0  0  0  0  0  0  0
    3.7569    0.9451    3.0566 C   0  0  2  0  0  0  0  0  0  0  0  0
    3.7394   -0.5936    3.2232 C   0  0  0  0  0  0  0  0  0  0  0  0
    2.7199   -1.2433    3.0045 O   0  0  0  0  0  0  0  0  0  0  0  0
    3.8558    1.6387    4.4175 C   0  0  0  0  0  0  0  0  0  0  0  0
    1.6953    1.4746    2.9744 H   0  0  0  0  0  0  0  0  0  0  0  0
    4.6375    1.2135    2.4635 H   0  0  0  0  0  0  0  0  0  0  0  0
    2.9926    1.3837    5.0412 H   0  0  0  0  0  0  0  0  0  0  0  0
    4.7663    1.3333    4.9416 H   0  0  0  0  0  0  0  0  0  0  0  0
    3.8815    2.7252    4.2871 H   0  0  0  0  0  0  0  0  0  0  0  0
    4.8836   -1.2613    3.6190 N   0  0  0  0  0  0  0  0  0  0  0  0
    4.9466   -2.7061    3.8091 C   0  0  0  0  0  0  0  0  0  0  0  0
    5.7199   -0.7078    3.7815 H   0  0  0  0  0  0  0  0  0  0  0  0
    4.2772   -3.0158    4.6190 H   0  0  0  0  0  0  0  0  0  0  0  0
    4.6544   -3.2280    2.8916 H   0  0  0  0  0  0  0  0  0  0  0  0
    5.9659   -3.0101    4.0674 H   0  0  0  0  0  0  0  0  0  0  0  0
  1  2  2  0  0  0  0
  1  3  1  0  0  0  0
  1  7  1  0  0  0  0
  3  4  1  0  0  0  0
  3  5  1  0  0  0  0
  3  6  1  0  0  0  0
  7  8  1  0  0  0  0
  7 12  1  0  0  0  0
  8  9  1  0  0  0  0
  8 11  1  0  0  0  0
  8 13  1  0  0  0  0
  9 10  2  0  0  0  0
  9 17  1  0  0  0  0
 11 14  1  0  0  0  0
 11 15  1  0  0  0  0
 11 16  1  0  0  0  0
 17 18  1  0  0  0  0
 17 27  1  0  0  0  0
 18 19  1  0  0  0  0
 18 21  1  0  0  0  0
 18 28  1  0  0  0  0
 19 20  2  0  0  0  0
 19 35  1  0  0  0  0
 21 22  1  0  0  0  0
 21 29  1  0  0  0  0
 21 30  1  0  0  0  0
 22 23  1  0  0  0  0
 22 24  2  0  0  0  0
 23 25  2  0  0  0  0
 23 31  1  0  0  0  0
 24 26  1  0  0  0  0
 24 32  1  0  0  0  0
 25 26  1  0  0  0  0
 25 33  1  0  0  0  0
 26 34  1  0  0  0  0
 35 36  1  0  0  0  0
 35 40  1  0  0  0  0
 36 37  1  0  0  0  0
 36 39  1  0  0  0  0
 36 41  1  0  0  0  0
 37 38  2  0  0  0  0
 37 45  1  0  0  0  0
 39 42  1  0  0  0  0
 39 43  1  0  0  0  0
 39 44  1  0  0  0  0
 45 46  1  0  0  0  0
 45 47  1  0  0  0  0
 46 48  1  0  0  0  0
 46 49  1  0  0  0  0
 46 50  1  0  0  0  0
M  CHG  1  23   1
M  END
$$$$

  -OEChem-05262216443D

 50 50  0     1  0  0  0  0  0999 V2000
   -3.4461   -0.0965    1.0403 C   0  0  0  0  0  0  0  0  0  0  0  0
   -2.9682    0.3180   -0.0093 O   0  0  0  0  0  0  0  0  0  0  0  0
   -4.2275   -1.3956    1.0654 C   0  0  0  0  0  0  0  0  0  0  0  0
   -5.2375   -1.2164    1.4434 H   0  0  0  0  0  0  0  0  0  0  0  0
   -4.2994   -1.8153    0.0585 H   0  0  0  0  0  0  0  0  0  0  0  0
   -3.7284   -2.1199    1.7144 H   0  0  0  0  0  0  0  0  0  0  0  0
   -3.2248    0.5955    2.2123 N   0  0  0  0  0  0  0  0  0  0  0  0
   -2.5138    1.8793    2.3027 C   0  0  2  0  0  0  0  0  0  0  0  0
   -0.9744    1.7118    2.2387 C   0  0  0  0  0  0  0  0  0  0  0  0
   -0.2890    1.9230    3.2243 O   0  0  0  0  0  0  0  0  0  0  0  0
   -2.9891    2.5717    3.5874 C   0  0  0  0  0  0  0  0  0  0  0  0
   -3.5933    0.1895    3.0699 H   0  0  0  0  0  0  0  0  0  0  0  0
   -2.8045    2.5175    1.4612 H   0  0  0  0  0  0  0  0  0  0  0  0
   -2.7301    1.9753    4.4685 H   0  0  0  0  0  0  0  0  0  0  0  0
   -2.5166    3.5546    3.6862 H   0  0  0  0  0  0  0  0  0  0  0  0
   -4.0742    2.7133    3.5676 H   0  0  0  0  0  0  0  0  0  0  0  0
   -0.4228    1.2778    1.0425 N   0  0  0  0  0  0  0  0  0  0  0  0
    0.9807    1.0297    0.6140 C   0  0  2  0  0  0  0  0  0  0  0  0
    2.2188    1.5526    1.4073 C   0  0  0  0  0  0  0  0  0  0  0  0
    3.2513    1.8107    0.7984 O   0  0  0  0  0  0  0  0  0  0  0  0
    1.0546    1.4821   -0.8657 C   0  0  0  0  0  0  0  0  0  0  0  0
    0.1645    0.6332   -1.7365 C   0  0  0  0  0  0  0  0  0  0  0  0
    0.4350   -0.6745   -2.1393 N   0  3  0  0  0  0  0  0  0  0  0  0
   -1.0287    1.0041   -2.3003 C   0  0  0  0  0  0  0  0  0  0  0  0
   -0.5411   -1.1280   -2.8877 C   0  0  0  0  0  0  0  0  0  0  0  0
   -1.4766   -0.1024   -3.0103 N   0  0  0  0  0  0  0  0  0  0  0  0
   -1.1433    1.0055    0.3693 H   0  0  0  0  0  0  0  0  0  0  0  0
    1.1191   -0.0557    0.6528 H   0  0  0  0  0  0  0  0  0  0  0  0
    2.0741    1.4005   -1.2578 H   0  0  0  0  0  0  0  0  0  0  0  0
    0.7697    2.5376   -0.9326 H   0  0  0  0  0  0  0  0  0  0  0  0
    1.2748   -1.1835   -1.8472 H   0  0  0  0  0  0  0  0  0  0  0  0
   -1.5346    1.9625   -2.1829 H   0  0  0  0  0  0  0  0  0  0  0  0
   -0.6097   -2.1237   -3.3290 H   0  0  0  0  0  0  0  0  0  0  0  0
   -2.3719   -0.1634   -3.5034 H   0  0  0  0  0  0  0  0  0  0  0  0
    2.3159    1.4464    2.7776 N   0  0  0  0  0  0  0  0  0  0  0  0
    3.5568    1.0196    3.4349 C   0  0  2  0  0  0  0  0  0  0  0  0
    3.8853   -0.4697    3.1628 C   0  0  0  0  0  0  0  0  0  0  0  0
    3.0663   -1.2134    2.6263 O   0  0  0  0  0  0  0  0  0  0  0  0
    3.3872    1.2730    4.9350 C   0  0  0  0  0  0  0  0  0  0  0  0
    1.4358    1.2238    3.2465 H   0  0  0  0  0  0  0  0  0  0  0  0
    4.3932    1.6250    3.0695 H   0  0  0  0  0  0  0  0  0  0  0  0
    2.5665    0.6688    5.3354 H   0  0  0  0  0  0  0  0  0  0  0  0
    4.3033    1.0173    5.4760 H   0  0  0  0  0  0  0  0  0  0  0  0
    3.1627    2.3288    5.1177 H   0  0  0  0  0  0  0  0  0  0  0  0
    5.1195   -0.9843    3.5155 N   0  0  0  0  0  0  0  0  0  0  0  0
    5.5101   -2.3698    3.2800 C   0  0  0  0  0  0  0  0  0  0  0  0
    5.7965   -0.3460    3.9240 H   0  0  0  0  0  0  0  0  0  0  0  0
    4.8193   -3.0545    3.7834 H   0  0  0  0  0  0  0  0  0  0  0  0
    5.5072   -2.5917    2.2076 H   0  0  0  0  0  0  0  0  0  0  0  0
    6.5172   -2.5514    3.6680 H   0  0  0  0  0  0  0  0  0  0  0  0
  1  2  2  0  0  0  0
  1  3  1  0  0  0  0
  1  7  1  0  0  0  0
  3  4  1  0  0  0  0
  3  5  1  0  0  0  0
  3  6  1  0  0  0  0
  7  8  1  0  0  0  0
  7 12  1  0  0  0  0
  8  9  1  0  0  0  0
  8 11  1  0  0  0  0
  8 13  1  0  0  0  0
  9 10  2  0  0  0  0
  9 17  1  0  0  0  0
 11 14  1  0  0  0  0
 11 15  1  0  0  0  0
 11 16  1  0  0  0  0
 17 18  1  0  0  0  0
 17 27  1  0  0  0  0
 18 19  1  0  0  0  0
 18 21  1  0  0  0  0
 18 28  1  0  0  0  0
 19 20  2  0  0  0  0
 19 35  1  0  0  0  0
 21 22  1  0  0  0  0
 21 29  1  0  0  0  0
 21 30  1  0  0  0  0
 22 23  1  0  0  0  0
 22 24  2  0  0  0  0
 23 25  2  0  0  0  0
 23 31  1  0  0  0  0
 24 26  1  0  0  0  0
 24 32  1  0  0  0  0
 25 26  1  0  0  0  0
 25 33  1  0  0  0  0
 26 34  1  0  0  0  0
 35 36  1  0  0  0  0
 35 40  1  0  0  0  0
 36 37  1  0  0  0  0
 36 39  1  0  0  0  0
 36 41  1  0  0  0  0
 37 38  2  0  0  0  0
 37 45  1  0  0  0  0
 39 42  1  0  0  0  0
 39 43  1  0  0  0  0
 39 44  1  0  0  0  0
 45 46  1  0  0  0  0
 45 47  1  0  0  0  0
 46 48  1  0  0  0  0
 46 49  1  0  0  0  0
 46 50  1  0  0  0  0
M  CHG  1  23   1
M  END
$$$$

  -OEChem-05262216443D

 50 50  0     1  0  0  0  0  0999 V2000
   -1.6586   -0.3441    3.6877 C   0  0  0  0  0  0  0  0  0  0  0  0
   -1.0289   -0.8185    2.7510 O   0  0  0  0  0  0  0  0  0  0  0  0
   -1.5118   -0.9248    5.0801 C   0  0  0  0  0  0  0  0  0  0  0  0
   -0.9509   -1.8627    5.0396 H   0  0  0  0  0  0  0  0  0  0  0  0
   -0.9789   -0.2209    5.7244 H   0  0  0  0  0  0  0  0  0  0  0  0
   -2.4971   -1.1254    5.5078 H   0  0  0  0  0  0  0  0  0  0  0  0
   -2.4603    0.7599    3.4765 N   0  0  0  0  0  0  0  0  0  0  0  0
   -2.5168    1.4646    2.1881 C   0  0  2  0  0  0  0  0  0  0  0  0
   -1.1242    1.9519    1.7257 C   0  0  0  0  0  0  0  0  0  0  0  0
   -0.4328    2.6187    2.4800 O   0  0  0  0  0  0  0  0  0  0  0  0
   -3.4795    2.6458    2.3358 C   0  0  0  0  0  0  0  0  0  0  0  0
   -2.8077    1.2367    4.3049 H   0  0  0  0  0  0  0  0  0  0  0  0
   -2.9137    0.7814    1.4307 H   0  0  0  0  0  0  0  0  0  0  0  0
   -3.1181    3.3438    3.0990 H   0  0  0  0  0  0  0  0  0  0  0  0
   -3.5683    3.1867    1.3888 H   0  0  0  0  0  0  0  0  0  0  0  0
   -4.4740    2.2937    2.6276 H   0  0  0  0  0  0  0  0  0  0  0  0
   -0.6650    1.6534    0.4511 N   0  0  0  0  0  0  0  0  0  0  0  0
    0.6960    1.1394    0.1476 C   0  0  2  0  0  0  0  0  0  0  0  0
    1.8136    1.2219    1.2239 C   0  0  0  0  0  0  0  0  0  0  0  0
    2.9237    1.6667    0.9497 O   0  0  0  0  0  0  0  0  0  0  0  0
    1.1648    1.8011   -1.1654 C   0  0  0  0  0  0  0  0  0  0  0  0
    0.2976    1.3969   -2.3290 C   0  0  0  0  0  0  0  0  0  0  0  0
    0.3319    0.1563   -2.9666 N   0  3  0  0  0  0  0  0  0  0  0  0
   -0.5995    2.1878   -2.9990 C   0  0  0  0  0  0  0  0  0  0  0  0
   -0.4976    0.1476   -3.9819 C   0  0  0  0  0  0  0  0  0  0  0  0
   -1.1062    1.4017   -4.0285 N   0  0  0  0  0  0  0  0  0  0  0  0
   -1.3898    1.2163   -0.1087 H   0  0  0  0  0  0  0  0  0  0  0  0
    0.5967    0.0628   -0.0254 H   0  0  0  0  0  0  0  0  0  0  0  0
    2.1969    1.5125   -1.3952 H   0  0  0  0  0  0  0  0  0  0  0  0
    1.1572    2.8893   -1.0356 H   0  0  0  0  0  0  0  0  0  0  0  0
    0.9543   -0.6037   -2.6723 H   0  0  0  0  0  0  0  0  0  0  0  0
   -0.8390    3.2271   -2.7694 H   0  0  0  0  0  0  0  0  0  0  0  0
   -0.6696   -0.6836   -4.6689 H   0  0  0  0  0  0  0  0  0  0  0  0
   -1.7853    1.7099   -4.7315 H   0  0  0  0  0  0  0  0  0  0  0  0
    1.6293    0.5667    2.4274 N   0  0  0  0  0  0  0  0  0  0  0  0
    2.7695   -0.0193    3.1399 C   0  0  2  0  0  0  0  0  0  0  0  0
    3.3456   -1.2579    2.4095 C   0  0  0  0  0  0  0  0  0  0  0  0
    2.7427   -1.7809    1.4745 O   0  0  0  0  0  0  0  0  0  0  0  0
    2.2878   -0.3933    4.5432 C   0  0  0  0  0  0  0  0  0  0  0  0
    0.7393    0.0704    2.5065 H   0  0  0  0  0  0  0  0  0  0  0  0
    3.5668    0.7266    3.2302 H   0  0  0  0  0  0  0  0  0  0  0  0
    1.5231   -1.1744    4.4879 H   0  0  0  0  0  0  0  0  0  0  0  0
    3.1198   -0.7636    5.1496 H   0  0  0  0  0  0  0  0  0  0  0  0
    1.8605    0.4821    5.0427 H   0  0  0  0  0  0  0  0  0  0  0  0
    4.5571   -1.7932    2.8061 N   0  0  0  0  0  0  0  0  0  0  0  0
    5.1804   -2.9399    2.1555 C   0  0  0  0  0  0  0  0  0  0  0  0
    5.0623   -1.3144    3.5461 H   0  0  0  0  0  0  0  0  0  0  0  0
    4.5255   -3.8159    2.2118 H   0  0  0  0  0  0  0  0  0  0  0  0
    5.3844   -2.7195    1.1023 H   0  0  0  0  0  0  0  0  0  0  0  0
    6.1268   -3.1862    2.6466 H   0  0  0  0  0  0  0  0  0  0  0  0
  1  2  2  0  0  0  0
  1  3  1  0  0  0  0
  1  7  1  0  0  0  0
  3  4  1  0  0  0  0
  3  5  1  0  0  0  0
  3  6  1  0  0  0  0
  7  8  1  0  0  0  0
  7 12  1  0  0  0  0
  8  9  1  0  0  0  0
  8 11  1  0  0  0  0
  8 13  1  0  0  0  0
  9 10  2  0  0  0  0
  9 17  1  0  0  0  0
 11 14  1  0  0  0  0
 11 15  1  0  0  0  0
 11 16  1  0  0  0  0
 17 18  1  0  0  0  0
 17 27  1  0  0  0  0
 18 19  1  0  0  0  0
 18 21  1  0  0  0  0
 18 28  1  0  0  0  0
 19 20  2  0  0  0  0
 19 35  1  0  0  0  0
 21 22  1  0  0  0  0
 21 29  1  0  0  0  0
 21 30  1  0  0  0  0
 22 23  1  0  0  0  0
 22 24  2  0  0  0  0
 23 25  2  0  0  0  0
 23 31  1  0  0  0  0
 24 26  1  0  0  0  0
 24 32  1  0  0  0  0
 25 26  1  0  0  0  0
 25 33  1  0  0  0  0
 26 34  1  0  0  0  0
 35 36  1  0  0  0  0
 35 40  1  0  0  0  0
 36 37  1  0  0  0  0
 36 39  1  0  0  0  0
 36 41  1  0  0  0  0
 37 38  2  0  0  0  0
 37 45  1  0  0  0  0
 39 42  1  0  0  0  0
 39 43  1  0  0  0  0
 39 44  1  0  0  0  0
 45 46  1  0  0  0  0
 45 47  1  0  0  0  0
 46 48  1  0  0  0  0
 46 49  1  0  0  0  0
 46 50  1  0  0  0  0
M  CHG  1  23   1
M  END
$$$$

  -OEChem-05262216443D

 50 50  0     1  0  0  0  0  0999 V2000
   -3.7428    0.7031    1.2173 C   0  0  0  0  0  0  0  0  0  0  0  0
   -3.1107    1.0556    0.2285 O   0  0  0  0  0  0  0  0  0  0  0  0
   -4.9408   -0.2147    1.0681 C   0  0  0  0  0  0  0  0  0  0  0  0
   -5.1076   -0.4544    0.0145 H   0  0  0  0  0  0  0  0  0  0  0  0
   -4.7720   -1.1436    1.6187 H   0  0  0  0  0  0  0  0  0  0  0  0
   -5.8359    0.2744    1.4613 H   0  0  0  0  0  0  0  0  0  0  0  0
   -3.3357    1.1027    2.4734 N   0  0  0  0  0  0  0  0  0  0  0  0
   -2.2736    2.0869    2.7349 C   0  0  2  0  0  0  0  0  0  0  0  0
   -0.8450    1.5054    2.5810 C   0  0  0  0  0  0  0  0  0  0  0  0
   -0.0929    1.3988    3.5378 O   0  0  0  0  0  0  0  0  0  0  0  0
   -2.5285    2.6633    4.1342 C   0  0  0  0  0  0  0  0  0  0  0  0
   -3.8847    0.7725    3.2641 H   0  0  0  0  0  0  0  0  0  0  0  0
   -2.3609    2.9115    2.0189 H   0  0  0  0  0  0  0  0  0  0  0  0
   -2.4537    1.8797    4.8956 H   0  0  0  0  0  0  0  0  0  0  0  0
   -1.7909    3.4390    4.3657 H   0  0  0  0  0  0  0  0  0  0  0  0
   -3.5254    3.1117    4.1892 H   0  0  0  0  0  0  0  0  0  0  0  0
   -0.4445    1.0435    1.3389 N   0  0  0  0  0  0  0  0  0  0  0  0
    0.9334    0.8383    0.8365 C   0  0  2  0  0  0  0  0  0  0  0  0
    2.1368    1.4712    1.5873 C   0  0  0  0  0  0  0  0  0  0  0  0
    2.9232    2.1978    0.9898 O   0  0  0  0  0  0  0  0  0  0  0  0
    0.9760    1.1825   -0.6657 C   0  0  0  0  0  0  0  0  0  0  0  0
    0.1081    0.2354   -1.4488 C   0  0  0  0  0  0  0  0  0  0  0  0
    0.4454   -1.0862   -1.7387 N   0  3  0  0  0  0  0  0  0  0  0  0
   -1.1036    0.4977   -2.0318 C   0  0  0  0  0  0  0  0  0  0  0  0
   -0.5036   -1.6478   -2.4471 C   0  0  0  0  0  0  0  0  0  0  0  0
   -1.4910   -0.6840   -2.6506 N   0  0  0  0  0  0  0  0  0  0  0  0
   -1.1898    1.0820    0.6401 H   0  0  0  0  0  0  0  0  0  0  0  0
    1.1214   -0.2359    0.9265 H   0  0  0  0  0  0  0  0  0  0  0  0
    2.0009    1.1078   -1.0482 H   0  0  0  0  0  0  0  0  0  0  0  0
    0.6514    2.2189   -0.8100 H   0  0  0  0  0  0  0  0  0  0  0  0
    1.3087   -1.5250   -1.4002 H   0  0  0  0  0  0  0  0  0  0  0  0
   -1.6562    1.4377   -1.9905 H   0  0  0  0  0  0  0  0  0  0  0  0
   -0.5169   -2.6781   -2.8070 H   0  0  0  0  0  0  0  0  0  0  0  0
   -2.3672   -0.8217   -3.1623 H   0  0  0  0  0  0  0  0  0  0  0  0
    2.5525    0.9035    2.7729 N   0  0  0  0  0  0  0  0  0  0  0  0
    3.9518    0.4981    2.9510 C   0  0  2  0  0  0  0  0  0  0  0  0
    4.3723   -0.6483    1.9931 C   0  0  0  0  0  0  0  0  0  0  0  0
    3.5438   -1.2549    1.3125 O   0  0  0  0  0  0  0  0  0  0  0  0
    4.1201    0.0744    4.4123 C   0  0  0  0  0  0  0  0  0  0  0  0
    1.8356    0.3534    3.2450 H   0  0  0  0  0  0  0  0  0  0  0  0
    4.6043    1.3568    2.7582 H   0  0  0  0  0  0  0  0  0  0  0  0
    3.4877   -0.7906    4.6367 H   0  0  0  0  0  0  0  0  0  0  0  0
    5.1607   -0.1924    4.6203 H   0  0  0  0  0  0  0  0  0  0  0  0
    3.8363    0.8956    5.0787 H   0  0  0  0  0  0  0  0  0  0  0  0
    5.7053   -0.9969    1.8803 N   0  0  0  0  0  0  0  0  0  0  0  0
    6.1936   -2.0521    1.0000 C   0  0  0  0  0  0  0  0  0  0  0  0
    6.3791   -0.4550    2.4151 H   0  0  0  0  0  0  0  0  0  0  0  0
    5.7100   -3.0053    1.2387 H   0  0  0  0  0  0  0  0  0  0  0  0
    5.9889   -1.8042   -0.0466 H   0  0  0  0  0  0  0  0  0  0  0  0
    7.2742   -2.1760    1.1208 H   0  0  0  0  0  0  0  0  0  0  0  0
  1  2  2  0  0  0  0
  1  3  1  0  0  0  0
  1  7  1  0  0  0  0
  3  4  1  0  0  0  0
  3  5  1  0  0  0  0
  3  6  1  0  0  0  0
  7  8  1  0  0  0  0
  7 12  1  0  0  0  0
  8  9  1  0  0  0  0
  8 11  1  0  0  0  0
  8 13  1  0  0  0  0
  9 10  2  0  0  0  0
  9 17  1  0  0  0  0
 11 14  1  0  0  0  0
 11 15  1  0  0  0  0
 11 16  1  0  0  0  0
 17 18  1  0  0  0  0
 17 27  1  0  0  0  0
 18 19  1  0  0  0  0
 18 21  1  0  0  0  0
 18 28  1  0  0  0  0
 19 20  2  0  0  0  0
 19 35  1  0  0  0  0
 21 22  1  0  0  0  0
 21 29  1  0  0  0  0
 21 30  1  0  0  0  0
 22 23  1  0  0  0  0
 22 24  2  0  0  0  0
 23 25  2  0  0  0  0
 23 31  1  0  0  0  0
 24 26  1  0  0  0  0
 24 32  1  0  0  0  0
 25 26  1  0  0  0  0
 25 33  1  0  0  0  0
 26 34  1  0  0  0  0
 35 36  1  0  0  0  0
 35 40  1  0  0  0  0
 36 37  1  0  0  0  0
 36 39  1  0  0  0  0
 36 41  1  0  0  0  0
 37 38  2  0  0  0  0
 37 45  1  0  0  0  0
 39 42  1  0  0  0  0
 39 43  1  0  0  0  0
 39 44  1  0  0  0  0
 45 46  1  0  0  0  0
 45 47  1  0  0  0  0
 46 48  1  0  0  0  0
 46 49  1  0  0  0  0
 46 50  1  0  0  0  0
M  CHG  1  23   1
M  END
$$$$

  -OEChem-05262216443D

 50 50  0     1  0  0  0  0  0999 V2000
   -3.7086    0.8475    1.4974 C   0  0  0  0  0  0  0  0  0  0  0  0
   -3.0725    1.1955    0.5092 O   0  0  0  0  0  0  0  0  0  0  0  0
   -4.9577    0.0024    1.3395 C   0  0  0  0  0  0  0  0  0  0  0  0
   -5.1783   -0.1561    0.2804 H   0  0  0  0  0  0  0  0  0  0  0  0
   -4.8155   -0.9690    1.8201 H   0  0  0  0  0  0  0  0  0  0  0  0
   -5.8100    0.5068    1.8025 H   0  0  0  0  0  0  0  0  0  0  0  0
   -3.2630    1.1784    2.7609 N   0  0  0  0  0  0  0  0  0  0  0  0
   -2.1507    2.0998    3.0425 C   0  0  2  0  0  0  0  0  0  0  0  0
   -0.7538    1.4645    2.8275 C   0  0  0  0  0  0  0  0  0  0  0  0
    0.0391    1.3106    3.7455 O   0  0  0  0  0  0  0  0  0  0  0  0
   -2.3484    2.6234    4.4708 C   0  0  0  0  0  0  0  0  0  0  0  0
   -3.8245    0.8574    3.5466 H   0  0  0  0  0  0  0  0  0  0  0  0
   -2.2153    2.9590    2.3660 H   0  0  0  0  0  0  0  0  0  0  0  0
   -2.2880    1.8049    5.1958 H   0  0  0  0  0  0  0  0  0  0  0  0
   -1.5739    3.3579    4.7155 H   0  0  0  0  0  0  0  0  0  0  0  0
   -3.3242    3.1090    4.5702 H   0  0  0  0  0  0  0  0  0  0  0  0
   -0.4090    1.0411    1.5571 N   0  0  0  0  0  0  0  0  0  0  0  0
    0.9560    0.8463    1.0313 C   0  0  2  0  0  0  0  0  0  0  0  0
    2.1719    1.4422    1.7822 C   0  0  0  0  0  0  0  0  0  0  0  0
    2.8433    2.3263    1.2614 O   0  0  0  0  0  0  0  0  0  0  0  0
    1.0084    1.2039   -0.4642 C   0  0  0  0  0  0  0  0  0  0  0  0
    0.1423    0.2590   -1.2460 C   0  0  0  0  0  0  0  0  0  0  0  0
    0.5146   -1.0562   -1.5179 N   0  3  0  0  0  0  0  0  0  0  0  0
   -1.0808    0.4846   -1.8193 C   0  0  0  0  0  0  0  0  0  0  0  0
   -0.4199   -1.6491   -2.2198 C   0  0  0  0  0  0  0  0  0  0  0  0
   -1.4347   -0.7138   -2.4280 N   0  0  0  0  0  0  0  0  0  0  0  0
   -1.1631    1.1494    0.8754 H   0  0  0  0  0  0  0  0  0  0  0  0
    1.1210   -0.2325    1.0984 H   0  0  0  0  0  0  0  0  0  0  0  0
    2.0363    1.1351   -0.8397 H   0  0  0  0  0  0  0  0  0  0  0  0
    0.6804    2.2398   -0.6028 H   0  0  0  0  0  0  0  0  0  0  0  0
    1.3949   -1.4620   -1.1751 H   0  0  0  0  0  0  0  0  0  0  0  0
   -1.6596    1.4088   -1.7778 H   0  0  0  0  0  0  0  0  0  0  0  0
   -0.4047   -2.6818   -2.5717 H   0  0  0  0  0  0  0  0  0  0  0  0
   -2.3064   -0.8805   -2.9383 H   0  0  0  0  0  0  0  0  0  0  0  0
    2.7655    0.6419    2.7373 N   0  0  0  0  0  0  0  0  0  0  0  0
    4.1649    0.2343    2.5536 C   0  0  2  0  0  0  0  0  0  0  0  0
    4.4020   -0.6021    1.2647 C   0  0  0  0  0  0  0  0  0  0  0  0
    3.4692   -1.0951    0.6238 O   0  0  0  0  0  0  0  0  0  0  0  0
    4.5753   -0.5663    3.7921 C   0  0  0  0  0  0  0  0  0  0  0  0
    2.1353   -0.0450    3.1452 H   0  0  0  0  0  0  0  0  0  0  0  0
    4.7920    1.1311    2.4942 H   0  0  0  0  0  0  0  0  0  0  0  0
    3.9763   -1.4790    3.8772 H   0  0  0  0  0  0  0  0  0  0  0  0
    5.6315   -0.8479    3.7360 H   0  0  0  0  0  0  0  0  0  0  0  0
    4.4274    0.0335    4.6964 H   0  0  0  0  0  0  0  0  0  0  0  0
    5.6916   -0.7937    0.8057 N   0  0  0  0  0  0  0  0  0  0  0  0
    6.0208   -1.5267   -0.4111 C   0  0  0  0  0  0  0  0  0  0  0  0
    6.4422   -0.3356    1.3168 H   0  0  0  0  0  0  0  0  0  0  0  0
    5.6329   -2.5496   -0.3609 H   0  0  0  0  0  0  0  0  0  0  0  0
    5.5929   -1.0279   -1.2868 H   0  0  0  0  0  0  0  0  0  0  0  0
    7.1065   -1.5778   -0.5393 H   0  0  0  0  0  0  0  0  0  0  0  0
  1  2  2  0  0  0  0
  1  3  1  0  0  0  0
  1  7  1  0  0  0  0
  3  4  1  0  0  0  0
  3  5  1  0  0  0  0
  3  6  1  0  0  0  0
  7  8  1  0  0  0  0
  7 12  1  0  0  0  0
  8  9  1  0  0  0  0
  8 11  1  0  0  0  0
  8 13  1  0  0  0  0
  9 10  2  0  0  0  0
  9 17  1  0  0  0  0
 11 14  1  0  0  0  0
 11 15  1  0  0  0  0
 11 16  1  0  0  0  0
 17 18  1  0  0  0  0
 17 27  1  0  0  0  0
 18 19  1  0  0  0  0
 18 21  1  0  0  0  0
 18 28  1  0  0  0  0
 19 20  2  0  0  0  0
 19 35  1  0  0  0  0
 21 22  1  0  0  0  0
 21 29  1  0  0  0  0
 21 30  1  0  0  0  0
 22 23  1  0  0  0  0
 22 24  2  0  0  0  0
 23 25  2  0  0  0  0
 23 31  1  0  0  0  0
 24 26  1  0  0  0  0
 24 32  1  0  0  0  0
 25 26  1  0  0  0  0
 25 33  1  0  0  0  0
 26 34  1  0  0  0  0
 35 36  1  0  0  0  0
 35 40  1  0  0  0  0
 36 37  1  0  0  0  0
 36 39  1  0  0  0  0
 36 41  1  0  0  0  0
 37 38  2  0  0  0  0
 37 45  1  0  0  0  0
 39 42  1  0  0  0  0
 39 43  1  0  0  0  0
 39 44  1  0  0  0  0
 45 46  1  0  0  0  0
 45 47  1  0  0  0  0
 46 48  1  0  0  0  0
 46 49  1  0  0  0  0
 46 50  1  0  0  0  0
M  CHG  1  23   1
M  END
$$$$

  -OEChem-05262216443D

 50 50  0     1  0  0  0  0  0999 V2000
   -3.6139    0.8699    1.6197 C   0  0  0  0  0  0  0  0  0  0  0  0
   -2.9684    1.3749    0.7083 O   0  0  0  0  0  0  0  0  0  0  0  0
   -4.8378    0.0304    1.3080 C   0  0  0  0  0  0  0  0  0  0  0  0
   -5.0203    0.0099    0.2300 H   0  0  0  0  0  0  0  0  0  0  0  0
   -4.6898   -0.9936    1.6605 H   0  0  0  0  0  0  0  0  0  0  0  0
   -5.7155    0.4534    1.8036 H   0  0  0  0  0  0  0  0  0  0  0  0
   -3.1988    1.0133    2.9283 N   0  0  0  0  0  0  0  0  0  0  0  0
   -2.0966    1.8825    3.3714 C   0  0  2  0  0  0  0  0  0  0  0  0
   -0.6946    1.2896    3.0832 C   0  0  0  0  0  0  0  0  0  0  0  0
    0.0873    0.9982    3.9772 O   0  0  0  0  0  0  0  0  0  0  0  0
   -2.3174    2.1717    4.8617 C   0  0  0  0  0  0  0  0  0  0  0  0
   -3.7603    0.5562    3.6432 H   0  0  0  0  0  0  0  0  0  0  0  0
   -2.1542    2.8380    2.8384 H   0  0  0  0  0  0  0  0  0  0  0  0
   -2.2716    1.2471    5.4462 H   0  0  0  0  0  0  0  0  0  0  0  0
   -1.5448    2.8523    5.2349 H   0  0  0  0  0  0  0  0  0  0  0  0
   -3.2931    2.6409    5.0215 H   0  0  0  0  0  0  0  0  0  0  0  0
   -0.3330    1.0557    1.7700 N   0  0  0  0  0  0  0  0  0  0  0  0
    1.0397    0.8877    1.2638 C   0  0  2  0  0  0  0  0  0  0  0  0
    2.2613    1.2987    2.1173 C   0  0  0  0  0  0  0  0  0  0  0  0
    2.8696    2.3268    1.8431 O   0  0  0  0  0  0  0  0  0  0  0  0
    1.1631    1.4696   -0.1554 C   0  0  0  0  0  0  0  0  0  0  0  0
    0.2962    0.6894   -1.0955 C   0  0  0  0  0  0  0  0  0  0  0  0
    0.6665   -0.5803   -1.5312 N   0  3  0  0  0  0  0  0  0  0  0  0
   -0.9022    1.0143   -1.6716 C   0  0  0  0  0  0  0  0  0  0  0  0
   -0.2485   -1.0566   -2.3392 C   0  0  0  0  0  0  0  0  0  0  0  0
   -1.2452   -0.0844   -2.4520 N   0  0  0  0  0  0  0  0  0  0  0  0
   -1.0669    1.2764    1.0934 H   0  0  0  0  0  0  0  0  0  0  0  0
    1.1458   -0.1959    1.1658 H   0  0  0  0  0  0  0  0  0  0  0  0
    2.2009    1.4303   -0.5048 H   0  0  0  0  0  0  0  0  0  0  0  0
    0.8670    2.5242   -0.1403 H   0  0  0  0  0  0  0  0  0  0  0  0
    1.5361   -1.0362   -1.2154 H   0  0  0  0  0  0  0  0  0  0  0  0
   -1.4717    1.9327   -1.5205 H   0  0  0  0  0  0  0  0  0  0  0  0
   -0.2315   -2.0320   -2.8277 H   0  0  0  0  0  0  0  0  0  0  0  0
   -2.1005   -0.1668   -3.0085 H   0  0  0  0  0  0  0  0  0  0  0  0
    2.9643    0.2509    2.6807 N   0  0  0  0  0  0  0  0  0  0  0  0
    4.3165   -0.0499    2.1900 C   0  0  2  0  0  0  0  0  0  0  0  0
    4.3473   -0.5711    0.7250 C   0  0  0  0  0  0  0  0  0  0  0  0
    3.3294   -0.9543    0.1376 O   0  0  0  0  0  0  0  0  0  0  0  0
    4.9212   -1.0881    3.1384 C   0  0  0  0  0  0  0  0  0  0  0  0
    2.3822   -0.5530    2.9008 H   0  0  0  0  0  0  0  0  0  0  0  0
    4.9267    0.8594    2.2380 H   0  0  0  0  0  0  0  0  0  0  0  0
    4.3486   -2.0208    3.1058 H   0  0  0  0  0  0  0  0  0  0  0  0
    5.9572   -1.3067    2.8617 H   0  0  0  0  0  0  0  0  0  0  0  0
    4.9134   -0.7105    4.1663 H   0  0  0  0  0  0  0  0  0  0  0  0
    5.5463   -0.5940    0.0389 N   0  0  0  0  0  0  0  0  0  0  0  0
    5.6911   -1.0584   -1.3358 C   0  0  0  0  0  0  0  0  0  0  0  0
    6.3701   -0.2465    0.5247 H   0  0  0  0  0  0  0  0  0  0  0  0
    5.4068   -2.1129   -1.4165 H   0  0  0  0  0  0  0  0  0  0  0  0
    5.0621   -0.4677   -2.0100 H   0  0  0  0  0  0  0  0  0  0  0  0
    6.7314   -0.9575   -1.6606 H   0  0  0  0  0  0  0  0  0  0  0  0
  1  2  2  0  0  0  0
  1  3  1  0  0  0  0
  1  7  1  0  0  0  0
  3  4  1  0  0  0  0
  3  5  1  0  0  0  0
  3  6  1  0  0  0  0
  7  8  1  0  0  0  0
  7 12  1  0  0  0  0
  8  9  1  0  0  0  0
  8 11  1  0  0  0  0
  8 13  1  0  0  0  0
  9 10  2  0  0  0  0
  9 17  1  0  0  0  0
 11 14  1  0  0  0  0
 11 15  1  0  0  0  0
 11 16  1  0  0  0  0
 17 18  1  0  0  0  0
 17 27  1  0  0  0  0
 18 19  1  0  0  0  0
 18 21  1  0  0  0  0
 18 28  1  0  0  0  0
 19 20  2  0  0  0  0
 19 35  1  0  0  0  0
 21 22  1  0  0  0  0
 21 29  1  0  0  0  0
 21 30  1  0  0  0  0
 22 23  1  0  0  0  0
 22 24  2  0  0  0  0
 23 25  2  0  0  0  0
 23 31  1  0  0  0  0
 24 26  1  0  0  0  0
 24 32  1  0  0  0  0
 25 26  1  0  0  0  0
 25 33  1  0  0  0  0
 26 34  1  0  0  0  0
 35 36  1  0  0  0  0
 35 40  1  0  0  0  0
 36 37  1  0  0  0  0
 36 39  1  0  0  0  0
 36 41  1  0  0  0  0
 37 38  2  0  0  0  0
 37 45  1  0  0  0  0
 39 42  1  0  0  0  0
 39 43  1  0  0  0  0
 39 44  1  0  0  0  0
 45 46  1  0  0  0  0
 45 47  1  0  0  0  0
 46 48  1  0  0  0  0
 46 49  1  0  0  0  0
 46 50  1  0  0  0  0
M  CHG  1  23   1
M  END
$$$$

  -OEChem-05262216443D

 50 50  0     1  0  0  0  0  0999 V2000
   -3.5844    1.0444    1.7083 C   0  0  0  0  0  0  0  0  0  0  0  0
   -2.8772    1.6136    0.8846 O   0  0  0  0  0  0  0  0  0  0  0  0
   -4.8859    0.3979    1.2743 C   0  0  0  0  0  0  0  0  0  0  0  0
   -5.0689    0.5859    0.2130 H   0  0  0  0  0  0  0  0  0  0  0  0
   -4.8403   -0.6815    1.4388 H   0  0  0  0  0  0  0  0  0  0  0  0
   -5.7182    0.8100    1.8506 H   0  0  0  0  0  0  0  0  0  0  0  0
   -3.1744    0.9409    3.0219 N   0  0  0  0  0  0  0  0  0  0  0  0
   -2.0003    1.6215    3.5922 C   0  0  2  0  0  0  0  0  0  0  0  0
   -0.6558    0.9454    3.2231 C   0  0  0  0  0  0  0  0  0  0  0  0
    0.0889    0.4708    4.0695 O   0  0  0  0  0  0  0  0  0  0  0  0
   -2.2191    1.7070    5.1083 C   0  0  0  0  0  0  0  0  0  0  0  0
   -3.7920    0.4440    3.6598 H   0  0  0  0  0  0  0  0  0  0  0  0
   -1.9556    2.6465    3.2076 H   0  0  0  0  0  0  0  0  0  0  0  0
   -2.2691    0.7061    5.5494 H   0  0  0  0  0  0  0  0  0  0  0  0
   -1.3937    2.2498    5.5810 H   0  0  0  0  0  0  0  0  0  0  0  0
   -3.1497    2.2372    5.3326 H   0  0  0  0  0  0  0  0  0  0  0  0
   -0.2953    0.8654    1.8905 N   0  0  0  0  0  0  0  0  0  0  0  0
    1.0825    0.7174    1.3896 C   0  0  2  0  0  0  0  0  0  0  0  0
    2.2985    0.9810    2.3059 C   0  0  0  0  0  0  0  0  0  0  0  0
    2.7877    2.1040    2.3301 O   0  0  0  0  0  0  0  0  0  0  0  0
    1.2417    1.5342    0.0927 C   0  0  0  0  0  0  0  0  0  0  0  0
    0.3617    0.9730   -0.9812 C   0  0  0  0  0  0  0  0  0  0  0  0
    0.6968   -0.2104   -1.6333 N   0  3  0  0  0  0  0  0  0  0  0  0
   -0.8175    1.4366   -1.4991 C   0  0  0  0  0  0  0  0  0  0  0  0
   -0.2185   -0.5006   -2.5246 C   0  0  0  0  0  0  0  0  0  0  0  0
   -1.1834    0.5080   -2.4675 N   0  0  0  0  0  0  0  0  0  0  0  0
   -0.9940    1.2530    1.2531 H   0  0  0  0  0  0  0  0  0  0  0  0
    1.1639   -0.3398    1.1214 H   0  0  0  0  0  0  0  0  0  0  0  0
    2.2819    1.5328   -0.2492 H   0  0  0  0  0  0  0  0  0  0  0  0
    0.9763    2.5781    0.2941 H   0  0  0  0  0  0  0  0  0  0  0  0
    1.5569   -0.7342   -1.4085 H   0  0  0  0  0  0  0  0  0  0  0  0
   -1.3600    2.3315   -1.1891 H   0  0  0  0  0  0  0  0  0  0  0  0
   -0.2219   -1.3687   -3.1855 H   0  0  0  0  0  0  0  0  0  0  0  0
   -2.0317    0.5570   -3.0386 H   0  0  0  0  0  0  0  0  0  0  0  0
    3.1372   -0.1054    2.4783 N   0  0  0  0  0  0  0  0  0  0  0  0
    4.4644   -0.1217    1.8484 C   0  0  2  0  0  0  0  0  0  0  0  0
    4.4125   -0.4790    0.3372 C   0  0  0  0  0  0  0  0  0  0  0  0
    3.3648   -0.8302   -0.2169 O   0  0  0  0  0  0  0  0  0  0  0  0
    5.3149   -1.1354    2.6188 C   0  0  0  0  0  0  0  0  0  0  0  0
    2.6444   -0.9944    2.4637 H   0  0  0  0  0  0  0  0  0  0  0  0
    4.9341    0.8637    1.9460 H   0  0  0  0  0  0  0  0  0  0  0  0
    4.8916   -2.1410    2.5303 H   0  0  0  0  0  0  0  0  0  0  0  0
    6.3390   -1.1543    2.2342 H   0  0  0  0  0  0  0  0  0  0  0  0
    5.3529   -0.8667    3.6797 H   0  0  0  0  0  0  0  0  0  0  0  0
    5.5549   -0.3660   -0.4315 N   0  0  0  0  0  0  0  0  0  0  0  0
    5.6170   -0.6824   -1.8539 C   0  0  0  0  0  0  0  0  0  0  0  0
    6.4044   -0.0563    0.0353 H   0  0  0  0  0  0  0  0  0  0  0  0
    5.3128   -1.7197   -2.0306 H   0  0  0  0  0  0  0  0  0  0  0  0
    4.9602   -0.0178   -2.4249 H   0  0  0  0  0  0  0  0  0  0  0  0
    6.6396   -0.5574   -2.2247 H   0  0  0  0  0  0  0  0  0  0  0  0
  1  2  2  0  0  0  0
  1  3  1  0  0  0  0
  1  7  1  0  0  0  0
  3  4  1  0  0  0  0
  3  5  1  0  0  0  0
  3  6  1  0  0  0  0
  7  8  1  0  0  0  0
  7 12  1  0  0  0  0
  8  9  1  0  0  0  0
  8 11  1  0  0  0  0
  8 13  1  0  0  0  0
  9 10  2  0  0  0  0
  9 17  1  0  0  0  0
 11 14  1  0  0  0  0
 11 15  1  0  0  0  0
 11 16  1  0  0  0  0
 17 18  1  0  0  0  0
 17 27  1  0  0  0  0
 18 19  1  0  0  0  0
 18 21  1  0  0  0  0
 18 28  1  0  0  0  0
 19 20  2  0  0  0  0
 19 35  1  0  0  0  0
 21 22  1  0  0  0  0
 21 29  1  0  0  0  0
 21 30  1  0  0  0  0
 22 23  1  0  0  0  0
 22 24  2  0  0  0  0
 23 25  2  0  0  0  0
 23 31  1  0  0  0  0
 24 26  1  0  0  0  0
 24 32  1  0  0  0  0
 25 26  1  0  0  0  0
 25 33  1  0  0  0  0
 26 34  1  0  0  0  0
 35 36  1  0  0  0  0
 35 40  1  0  0  0  0
 36 37  1  0  0  0  0
 36 39  1  0  0  0  0
 36 41  1  0  0  0  0
 37 38  2  0  0  0  0
 37 45  1  0  0  0  0
 39 42  1  0  0  0  0
 39 43  1  0  0  0  0
 39 44  1  0  0  0  0
 45 46  1  0  0  0  0
 45 47  1  0  0  0  0
 46 48  1  0  0  0  0
 46 49  1  0  0  0  0
 46 50  1  0  0  0  0
M  CHG  1  23   1
M  END
$$$$

  -OEChem-05262216443D

 50 50  0     1  0  0  0  0  0999 V2000
   -3.6150    1.1394    1.8357 C   0  0  0  0  0  0  0  0  0  0  0  0
   -2.8923    1.6467    0.9855 O   0  0  0  0  0  0  0  0  0  0  0  0
   -5.0190    0.6921    1.4773 C   0  0  0  0  0  0  0  0  0  0  0  0
   -5.2507    0.9586    0.4426 H   0  0  0  0  0  0  0  0  0  0  0  0
   -5.1072   -0.3913    1.5919 H   0  0  0  0  0  0  0  0  0  0  0  0
   -5.7445    1.1786    2.1346 H   0  0  0  0  0  0  0  0  0  0  0  0
   -3.1369    0.9288    3.1121 N   0  0  0  0  0  0  0  0  0  0  0  0
   -1.8436    1.4175    3.6150 C   0  0  2  0  0  0  0  0  0  0  0  0
   -0.6371    0.5715    3.1367 C   0  0  0  0  0  0  0  0  0  0  0  0
    0.0637   -0.0562    3.9187 O   0  0  0  0  0  0  0  0  0  0  0  0
   -1.9504    1.4808    5.1442 C   0  0  0  0  0  0  0  0  0  0  0  0
   -3.7694    0.4880    3.7760 H   0  0  0  0  0  0  0  0  0  0  0  0
   -1.6770    2.4386    3.2550 H   0  0  0  0  0  0  0  0  0  0  0  0
   -2.1173    0.4828    5.5625 H   0  0  0  0  0  0  0  0  0  0  0  0
   -1.0263    1.8830    5.5726 H   0  0  0  0  0  0  0  0  0  0  0  0
   -2.7784    2.1302    5.4450 H   0  0  0  0  0  0  0  0  0  0  0  0
   -0.3616    0.4981    1.7818 N   0  0  0  0  0  0  0  0  0  0  0  0
    0.9886    0.3114    1.2138 C   0  0  2  0  0  0  0  0  0  0  0  0
    2.2159    0.5423    2.1285 C   0  0  0  0  0  0  0  0  0  0  0  0
    2.5075    1.6927    2.4342 O   0  0  0  0  0  0  0  0  0  0  0  0
    1.1222    1.2561    0.0011 C   0  0  0  0  0  0  0  0  0  0  0  0
    0.1650    0.8952   -1.1002 C   0  0  0  0  0  0  0  0  0  0  0  0
    0.3302   -0.1956   -1.9517 N   0  3  0  0  0  0  0  0  0  0  0  0
   -0.9851    1.5448   -1.4645 C   0  0  0  0  0  0  0  0  0  0  0  0
   -0.6555   -0.2458   -2.8145 C   0  0  0  0  0  0  0  0  0  0  0  0
   -1.5044    0.8248   -2.5332 N   0  0  0  0  0  0  0  0  0  0  0  0
   -1.0425    1.0012    1.2098 H   0  0  0  0  0  0  0  0  0  0  0  0
    1.0530   -0.7244    0.8683 H   0  0  0  0  0  0  0  0  0  0  0  0
    2.1429    1.2352   -0.3915 H   0  0  0  0  0  0  0  0  0  0  0  0
    0.9352    2.2843    0.3319 H   0  0  0  0  0  0  0  0  0  0  0  0
    1.1481   -0.8133   -1.9055 H   0  0  0  0  0  0  0  0  0  0  0  0
   -1.4106    2.4309   -0.9898 H   0  0  0  0  0  0  0  0  0  0  0  0
   -0.7822   -0.9834   -3.6088 H   0  0  0  0  0  0  0  0  0  0  0  0
   -2.3714    1.0493   -3.0298 H   0  0  0  0  0  0  0  0  0  0  0  0
    3.2206   -0.4064    2.0685 N   0  0  0  0  0  0  0  0  0  0  0  0
    4.6024   -0.0489    1.7248 C   0  0  2  0  0  0  0  0  0  0  0  0
    4.8213   -0.0964    0.1934 C   0  0  0  0  0  0  0  0  0  0  0  0
    3.9488   -0.5499   -0.5505 O   0  0  0  0  0  0  0  0  0  0  0  0
    5.5281   -1.0325    2.4451 C   0  0  0  0  0  0  0  0  0  0  0  0
    2.9134   -1.3084    1.7157 H   0  0  0  0  0  0  0  0  0  0  0  0
    4.8377    0.9628    2.0730 H   0  0  0  0  0  0  0  0  0  0  0  0
    5.3457   -2.0566    2.1032 H   0  0  0  0  0  0  0  0  0  0  0  0
    6.5769   -0.7843    2.2557 H   0  0  0  0  0  0  0  0  0  0  0  0
    5.3554   -0.9904    3.5256 H   0  0  0  0  0  0  0  0  0  0  0  0
    5.9866    0.3975   -0.3606 N   0  0  0  0  0  0  0  0  0  0  0  0
    6.2711    0.3849   -1.7911 C   0  0  0  0  0  0  0  0  0  0  0  0
    6.6862    0.7756    0.2739 H   0  0  0  0  0  0  0  0  0  0  0  0
    6.2855   -0.6423   -2.1706 H   0  0  0  0  0  0  0  0  0  0  0  0
    5.5134    0.9543   -2.3396 H   0  0  0  0  0  0  0  0  0  0  0  0
    7.2482    0.8379   -1.9863 H   0  0  0  0  0  0  0  0  0  0  0  0
  1  2  2  0  0  0  0
  1  3  1  0  0  0  0
  1  7  1  0  0  0  0
  3  4  1  0  0  0  0
  3  5  1  0  0  0  0
  3  6  1  0  0  0  0
  7  8  1  0  0  0  0
  7 12  1  0  0  0  0
  8  9  1  0  0  0  0
  8 11  1  0  0  0  0
  8 13  1  0  0  0  0
  9 10  2  0  0  0  0
  9 17  1  0  0  0  0
 11 14  1  0  0  0  0
 11 15  1  0  0  0  0
 11 16  1  0  0  0  0
 17 18  1  0  0  0  0
 17 27  1  0  0  0  0
 18 19  1  0  0  0  0
 18 21  1  0  0  0  0
 18 28  1  0  0  0  0
 19 20  2  0  0  0  0
 19 35  1  0  0  0  0
 21 22  1  0  0  0  0
 21 29  1  0  0  0  0
 21 30  1  0  0  0  0
 22 23  1  0  0  0  0
 22 24  2  0  0  0  0
 23 25  2  0  0  0  0
 23 31  1  0  0  0  0
 24 26  1  0  0  0  0
 24 32  1  0  0  0  0
 25 26  1  0  0  0  0
 25 33  1  0  0  0  0
 26 34  1  0  0  0  0
 35 36  1  0  0  0  0
 35 40  1  0  0  0  0
 36 37  1  0  0  0  0
 36 39  1  0  0  0  0
 36 41  1  0  0  0  0
 37 38  2  0  0  0  0
 37 45  1  0  0  0  0
 39 42  1  0  0  0  0
 39 43  1  0  0  0  0
 39 44  1  0  0  0  0
 45 46  1  0  0  0  0
 45 47  1  0  0  0  0
 46 48  1  0  0  0  0
 46 49  1  0  0  0  0
 46 50  1  0  0  0  0
M  CHG  1  23   1
M  END
$$$$

  -OEChem-05262216443D

 50 50  0     1  0  0  0  0  0999 V2000
   -3.5831    1.1158    1.9744 C   0  0  0  0  0  0  0  0  0  0  0  0
   -2.8877    1.6503    1.1179 O   0  0  0  0  0  0  0  0  0  0  0  0
   -5.0181    0.7360    1.6638 C   0  0  0  0  0  0  0  0  0  0  0  0
   -5.2929    1.0758    0.6616 H   0  0  0  0  0  0  0  0  0  0  0  0
   -5.1371   -0.3493    1.7141 H   0  0  0  0  0  0  0  0  0  0  0  0
   -5.6924    1.2014    2.3875 H   0  0  0  0  0  0  0  0  0  0  0  0
   -3.0448    0.8097    3.2066 N   0  0  0  0  0  0  0  0  0  0  0  0
   -1.6953    1.1931    3.6496 C   0  0  2  0  0  0  0  0  0  0  0  0
   -0.5800    0.3021    3.0492 C   0  0  0  0  0  0  0  0  0  0  0  0
    0.0851   -0.4575    3.7408 O   0  0  0  0  0  0  0  0  0  0  0  0
   -1.7000    1.1767    5.1837 C   0  0  0  0  0  0  0  0  0  0  0  0
   -3.6477    0.3318    3.8724 H   0  0  0  0  0  0  0  0  0  0  0  0
   -1.4863    2.2207    3.3329 H   0  0  0  0  0  0  0  0  0  0  0  0
   -1.9060    0.1690    5.5592 H   0  0  0  0  0  0  0  0  0  0  0  0
   -0.7252    1.4944    5.5687 H   0  0  0  0  0  0  0  0  0  0  0  0
   -2.4618    1.8593    5.5731 H   0  0  0  0  0  0  0  0  0  0  0  0
   -0.3841    0.2984    1.6780 N   0  0  0  0  0  0  0  0  0  0  0  0
    0.9277    0.1018    1.0255 C   0  0  2  0  0  0  0  0  0  0  0  0
    2.1962    0.2482    1.9035 C   0  0  0  0  0  0  0  0  0  0  0  0
    2.3703    1.3057    2.4985 O   0  0  0  0  0  0  0  0  0  0  0  0
    1.0401    1.1492   -0.1023 C   0  0  0  0  0  0  0  0  0  0  0  0
    0.0096    0.9434   -1.1812 C   0  0  0  0  0  0  0  0  0  0  0  0
    0.0395   -0.0518   -2.1579 N   0  3  0  0  0  0  0  0  0  0  0  0
   -1.1114    1.7029   -1.3951 C   0  0  0  0  0  0  0  0  0  0  0  0
   -1.0018    0.0583   -2.9472 C   0  0  0  0  0  0  0  0  0  0  0  0
   -1.7507    1.1428   -2.4929 N   0  0  0  0  0  0  0  0  0  0  0  0
   -1.0597    0.8857    1.1862 H   0  0  0  0  0  0  0  0  0  0  0  0
    0.9451   -0.9071    0.6039 H   0  0  0  0  0  0  0  0  0  0  0  0
    2.0356    1.1131   -0.5551 H   0  0  0  0  0  0  0  0  0  0  0  0
    0.9285    2.1498    0.3319 H   0  0  0  0  0  0  0  0  0  0  0  0
    0.8058   -0.7263   -2.2404 H   0  0  0  0  0  0  0  0  0  0  0  0
   -1.4411    2.5574   -0.8009 H   0  0  0  0  0  0  0  0  0  0  0  0
   -1.2347   -0.5764   -3.8039 H   0  0  0  0  0  0  0  0  0  0  0  0
   -2.6315    1.4754   -2.8955 H   0  0  0  0  0  0  0  0  0  0  0  0
    3.3040   -0.5060    1.5585 N   0  0  0  0  0  0  0  0  0  0  0  0
    4.6712    0.0322    1.5245 C   0  0  2  0  0  0  0  0  0  0  0  0
    5.0685    0.4251    0.0833 C   0  0  0  0  0  0  0  0  0  0  0  0
    4.3638    0.0818   -0.8654 O   0  0  0  0  0  0  0  0  0  0  0  0
    5.6086   -1.0443    2.0779 C   0  0  0  0  0  0  0  0  0  0  0  0
    3.1212   -1.2595    0.9023 H   0  0  0  0  0  0  0  0  0  0  0  0
    4.7578    0.9222    2.1573 H   0  0  0  0  0  0  0  0  0  0  0  0
    5.5733   -1.9441    1.4552 H   0  0  0  0  0  0  0  0  0  0  0  0
    6.6402   -0.6801    2.1040 H   0  0  0  0  0  0  0  0  0  0  0  0
    5.3139   -1.3148    3.0974 H   0  0  0  0  0  0  0  0  0  0  0  0
    6.2079    1.1691   -0.1561 N   0  0  0  0  0  0  0  0  0  0  0  0
    6.6475    1.5627   -1.4903 C   0  0  0  0  0  0  0  0  0  0  0  0
    6.7670    1.4483    0.6462 H   0  0  0  0  0  0  0  0  0  0  0  0
    6.8055    0.6800   -2.1190 H   0  0  0  0  0  0  0  0  0  0  0  0
    5.9007    2.2062   -1.9671 H   0  0  0  0  0  0  0  0  0  0  0  0
    7.5905    2.1151   -1.4311 H   0  0  0  0  0  0  0  0  0  0  0  0
  1  2  2  0  0  0  0
  1  3  1  0  0  0  0
  1  7  1  0  0  0  0
  3  4  1  0  0  0  0
  3  5  1  0  0  0  0
  3  6  1  0  0  0  0
  7  8  1  0  0  0  0
  7 12  1  0  0  0  0
  8  9  1  0  0  0  0
  8 11  1  0  0  0  0
  8 13  1  0  0  0  0
  9 10  2  0  0  0  0
  9 17  1  0  0  0  0
 11 14  1  0  0  0  0
 11 15  1  0  0  0  0
 11 16  1  0  0  0  0
 17 18  1  0  0  0  0
 17 27  1  0  0  0  0
 18 19  1  0  0  0  0
 18 21  1  0  0  0  0
 18 28  1  0  0  0  0
 19 20  2  0  0  0  0
 19 35  1  0  0  0  0
 21 22  1  0  0  0  0
 21 29  1  0  0  0  0
 21 30  1  0  0  0  0
 22 23  1  0  0  0  0
 22 24  2  0  0  0  0
 23 25  2  0  0  0  0
 23 31  1  0  0  0  0
 24 26  1  0  0  0  0
 24 32  1  0  0  0  0
 25 26  1  0  0  0  0
 25 33  1  0  0  0  0
 26 34  1  0  0  0  0
 35 36  1  0  0  0  0
 35 40  1  0  0  0  0
 36 37  1  0  0  0  0
 36 39  1  0  0  0  0
 36 41  1  0  0  0  0
 37 38  2  0  0  0  0
 37 45  1  0  0  0  0
 39 42  1  0  0  0  0
 39 43  1  0  0  0  0
 39 44  1  0  0  0  0
 45 46  1  0  0  0  0
 45 47  1  0  0  0  0
 46 48  1  0  0  0  0
 46 49  1  0  0  0  0
 46 50  1  0  0  0  0
M  CHG  1  23   1
M  END
$$$$

  -OEChem-05262216443D

 50 50  0     1  0  0  0  0  0999 V2000
   -3.5012    1.1188    2.1744 C   0  0  0  0  0  0  0  0  0  0  0  0
   -2.8096    1.6827    1.3340 O   0  0  0  0  0  0  0  0  0  0  0  0
   -4.9805    0.9002    1.9230 C   0  0  0  0  0  0  0  0  0  0  0  0
   -5.2825    1.3819    0.9893 H   0  0  0  0  0  0  0  0  0  0  0  0
   -5.1936   -0.1694    1.8544 H   0  0  0  0  0  0  0  0  0  0  0  0
   -5.5651    1.3274    2.7418 H   0  0  0  0  0  0  0  0  0  0  0  0
   -2.9232    0.6342    3.3287 N   0  0  0  0  0  0  0  0  0  0  0  0
   -1.5200    0.8483    3.7141 C   0  0  2  0  0  0  0  0  0  0  0  0
   -0.5323   -0.0630    2.9463 C   0  0  0  0  0  0  0  0  0  0  0  0
    0.0689   -0.9791    3.4922 O   0  0  0  0  0  0  0  0  0  0  0  0
   -1.4303    0.6608    5.2337 C   0  0  0  0  0  0  0  0  0  0  0  0
   -3.5258    0.1325    3.9772 H   0  0  0  0  0  0  0  0  0  0  0  0
   -1.2356    1.8828    3.4937 H   0  0  0  0  0  0  0  0  0  0  0  0
   -1.7011   -0.3622    5.5146 H   0  0  0  0  0  0  0  0  0  0  0  0
   -0.4086    0.8525    5.5781 H   0  0  0  0  0  0  0  0  0  0  0  0
   -2.1021    1.3554    5.7472 H   0  0  0  0  0  0  0  0  0  0  0  0
   -0.3879    0.0898    1.5775 N   0  0  0  0  0  0  0  0  0  0  0  0
    0.9078   -0.0348    0.8735 C   0  0  2  0  0  0  0  0  0  0  0  0
    2.2030    0.0121    1.7296 C   0  0  0  0  0  0  0  0  0  0  0  0
    2.2966    0.8716    2.5983 O   0  0  0  0  0  0  0  0  0  0  0  0
    0.9850    1.1433   -0.1214 C   0  0  0  0  0  0  0  0  0  0  0  0
   -0.0792    1.0723   -1.1873 C   0  0  0  0  0  0  0  0  0  0  0  0
   -0.0921    0.2104   -2.2843 N   0  3  0  0  0  0  0  0  0  0  0  0
   -1.1900    1.8713   -1.2768 C   0  0  0  0  0  0  0  0  0  0  0  0
   -1.1506    0.4350   -3.0252 C   0  0  0  0  0  0  0  0  0  0  0  0
   -1.8674    1.4643   -2.4181 N   0  0  0  0  0  0  0  0  0  0  0  0
   -1.0407    0.7802    1.2028 H   0  0  0  0  0  0  0  0  0  0  0  0
    0.9130   -0.9886    0.3381 H   0  0  0  0  0  0  0  0  0  0  0  0
    1.9630    1.1647   -0.6109 H   0  0  0  0  0  0  0  0  0  0  0  0
    0.8927    2.0826    0.4369 H   0  0  0  0  0  0  0  0  0  0  0  0
    0.6544   -0.4645   -2.4707 H   0  0  0  0  0  0  0  0  0  0  0  0
   -1.4850    2.6553   -0.5765 H   0  0  0  0  0  0  0  0  0  0  0  0
   -1.4173   -0.0820   -3.9487 H   0  0  0  0  0  0  0  0  0  0  0  0
   -2.7509    1.8600   -2.7524 H   0  0  0  0  0  0  0  0  0  0  0  0
    3.3770   -0.4241    1.1382 N   0  0  0  0  0  0  0  0  0  0  0  0
    4.6851    0.2315    1.2938 C   0  0  2  0  0  0  0  0  0  0  0  0
    5.0885    0.9525   -0.0112 C   0  0  0  0  0  0  0  0  0  0  0  0
    4.4512    0.7508   -1.0436 O   0  0  0  0  0  0  0  0  0  0  0  0
    5.7063   -0.8479    1.6618 C   0  0  0  0  0  0  0  0  0  0  0  0
    3.2609   -0.9462    0.2742 H   0  0  0  0  0  0  0  0  0  0  0  0
    4.6635    0.9765    2.0966 H   0  0  0  0  0  0  0  0  0  0  0  0
    5.7799   -1.5973    0.8673 H   0  0  0  0  0  0  0  0  0  0  0  0
    6.6956   -0.4063    1.8154 H   0  0  0  0  0  0  0  0  0  0  0  0
    5.4072   -1.3503    2.5875 H   0  0  0  0  0  0  0  0  0  0  0  0
    6.1532    1.8326   -0.0349 N   0  0  0  0  0  0  0  0  0  0  0  0
    6.5951    2.5253   -1.2402 C   0  0  0  0  0  0  0  0  0  0  0  0
    6.6659    1.9789    0.8310 H   0  0  0  0  0  0  0  0  0  0  0  0
    6.9089    1.8046   -2.0031 H   0  0  0  0  0  0  0  0  0  0  0  0
    5.7862    3.1407   -1.6483 H   0  0  0  0  0  0  0  0  0  0  0  0
    7.4435    3.1785   -1.0127 H   0  0  0  0  0  0  0  0  0  0  0  0
  1  2  2  0  0  0  0
  1  3  1  0  0  0  0
  1  7  1  0  0  0  0
  3  4  1  0  0  0  0
  3  5  1  0  0  0  0
  3  6  1  0  0  0  0
  7  8  1  0  0  0  0
  7 12  1  0  0  0  0
  8  9  1  0  0  0  0
  8 11  1  0  0  0  0
  8 13  1  0  0  0  0
  9 10  2  0  0  0  0
  9 17  1  0  0  0  0
 11 14  1  0  0  0  0
 11 15  1  0  0  0  0
 11 16  1  0  0  0  0
 17 18  1  0  0  0  0
 17 27  1  0  0  0  0
 18 19  1  0  0  0  0
 18 21  1  0  0  0  0
 18 28  1  0  0  0  0
 19 20  2  0  0  0  0
 19 35  1  0  0  0  0
 21 22  1  0  0  0  0
 21 29  1  0  0  0  0
 21 30  1  0  0  0  0
 22 23  1  0  0  0  0
 22 24  2  0  0  0  0
 23 25  2  0  0  0  0
 23 31  1  0  0  0  0
 24 26  1  0  0  0  0
 24 32  1  0  0  0  0
 25 26  1  0  0  0  0
 25 33  1  0  0  0  0
 26 34  1  0  0  0  0
 35 36  1  0  0  0  0
 35 40  1  0  0  0  0
 36 37  1  0  0  0  0
 36 39  1  0  0  0  0
 36 41  1  0  0  0  0
 37 38  2  0  0  0  0
 37 45  1  0  0  0  0
 39 42  1  0  0  0  0
 39 43  1  0  0  0  0
 39 44  1  0  0  0  0
 45 46  1  0  0  0  0
 45 47  1  0  0  0  0
 46 48  1  0  0  0  0
 46 49  1  0  0  0  0
 46 50  1  0  0  0  0
M  CHG  1  23   1
M  END
$$$$

  -OEChem-05262216443D

 50 50  0     1  0  0  0  0  0999 V2000
   -2.6063   -0.6813    1.8300 C   0  0  0  0  0  0  0  0  0  0  0  0
   -2.7509   -0.3671    0.6545 O   0  0  0  0  0  0  0  0  0  0  0  0
   -2.4473   -2.1387    2.2150 C   0  0  0  0  0  0  0  0  0  0  0  0
   -2.6887   -2.7830    1.3652 H   0  0  0  0  0  0  0  0  0  0  0  0
   -1.4175   -2.3317    2.5259 H   0  0  0  0  0  0  0  0  0  0  0  0
   -3.1203   -2.3826    3.0409 H   0  0  0  0  0  0  0  0  0  0  0  0
   -2.4788    0.3008    2.7899 N   0  0  0  0  0  0  0  0  0  0  0  0
   -2.5016    1.7439    2.5098 C   0  0  2  0  0  0  0  0  0  0  0  0
   -1.1932    2.2222    1.8378 C   0  0  0  0  0  0  0  0  0  0  0  0
   -0.5340    3.1667    2.2522 O   0  0  0  0  0  0  0  0  0  0  0  0
   -2.7744    2.4594    3.8381 C   0  0  0  0  0  0  0  0  0  0  0  0
   -2.1693    0.0026    3.7127 H   0  0  0  0  0  0  0  0  0  0  0  0
   -3.3270    1.9717    1.8273 H   0  0  0  0  0  0  0  0  0  0  0  0
   -1.9589    2.2788    4.5462 H   0  0  0  0  0  0  0  0  0  0  0  0
   -2.8588    3.5392    3.6784 H   0  0  0  0  0  0  0  0  0  0  0  0
   -3.7095    2.1033    4.2812 H   0  0  0  0  0  0  0  0  0  0  0  0
   -0.8007    1.7038    0.6190 N   0  0  0  0  0  0  0  0  0  0  0  0
    0.4535    0.9336    0.4482 C   0  0  2  0  0  0  0  0  0  0  0  0
    1.3817    0.6686    1.6718 C   0  0  0  0  0  0  0  0  0  0  0  0
    0.9754    0.6826    2.8253 O   0  0  0  0  0  0  0  0  0  0  0  0
    1.2577    1.7564   -0.5829 C   0  0  0  0  0  0  0  0  0  0  0  0
    0.5592    1.8104   -1.9206 C   0  0  0  0  0  0  0  0  0  0  0  0
    0.4652    0.7978   -2.8771 N   0  3  0  0  0  0  0  0  0  0  0  0
   -0.1015    2.9066   -2.4133 C   0  0  0  0  0  0  0  0  0  0  0  0
   -0.2197    1.2174   -3.9143 C   0  0  0  0  0  0  0  0  0  0  0  0
   -0.5914    2.5360   -3.6591 N   0  0  0  0  0  0  0  0  0  0  0  0
   -1.5929    1.1803    0.2362 H   0  0  0  0  0  0  0  0  0  0  0  0
    0.2023   -0.0499    0.0395 H   0  0  0  0  0  0  0  0  0  0  0  0
    2.2588    1.3398   -0.7327 H   0  0  0  0  0  0  0  0  0  0  0  0
    1.3920    2.7718   -0.1890 H   0  0  0  0  0  0  0  0  0  0  0  0
    0.8802   -0.1291   -2.7548 H   0  0  0  0  0  0  0  0  0  0  0  0
   -0.2209    3.8652   -1.9053 H   0  0  0  0  0  0  0  0  0  0  0  0
   -0.4558    0.6417   -4.8113 H   0  0  0  0  0  0  0  0  0  0  0  0
   -1.1412    3.1355   -4.2819 H   0  0  0  0  0  0  0  0  0  0  0  0
    2.5429   -0.0507    1.4620 N   0  0  0  0  0  0  0  0  0  0  0  0
    3.6179   -0.1485    2.4577 C   0  0  2  0  0  0  0  0  0  0  0  0
    4.9536    0.2674    1.8044 C   0  0  0  0  0  0  0  0  0  0  0  0
    4.9946    0.4384    0.5874 O   0  0  0  0  0  0  0  0  0  0  0  0
    3.6705   -1.5885    2.9720 C   0  0  0  0  0  0  0  0  0  0  0  0
    2.8829   -0.0676    0.5023 H   0  0  0  0  0  0  0  0  0  0  0  0
    3.4342    0.5294    3.2994 H   0  0  0  0  0  0  0  0  0  0  0  0
    3.8678   -2.2842    2.1500 H   0  0  0  0  0  0  0  0  0  0  0  0
    4.4599   -1.7011    3.7216 H   0  0  0  0  0  0  0  0  0  0  0  0
    2.7149   -1.8559    3.4345 H   0  0  0  0  0  0  0  0  0  0  0  0
    6.0871    0.4830    2.5642 N   0  0  0  0  0  0  0  0  0  0  0  0
    7.3615    0.9092    1.9958 C   0  0  0  0  0  0  0  0  0  0  0  0
    6.0161    0.3586    3.5707 H   0  0  0  0  0  0  0  0  0  0  0  0
    7.7441    0.1535    1.3016 H   0  0  0  0  0  0  0  0  0  0  0  0
    7.2452    1.8551    1.4565 H   0  0  0  0  0  0  0  0  0  0  0  0
    8.1014    1.0551    2.7889 H   0  0  0  0  0  0  0  0  0  0  0  0
  1  2  2  0  0  0  0
  1  3  1  0  0  0  0
  1  7  1  0  0  0  0
  3  4  1  0  0  0  0
  3  5  1  0  0  0  0
  3  6  1  0  0  0  0
  7  8  1  0  0  0  0
  7 12  1  0  0  0  0
  8  9  1  0  0  0  0
  8 11  1  0  0  0  0
  8 13  1  0  0  0  0
  9 10  2  0  0  0  0
  9 17  1  0  0  0  0
 11 14  1  0  0  0  0
 11 15  1  0  0  0  0
 11 16  1  0  0  0  0
 17 18  1  0  0  0  0
 17 27  1  0  0  0  0
 18 19  1  0  0  0  0
 18 21  1  0  0  0  0
 18 28  1  0  0  0  0
 19 20  2  0  0  0  0
 19 35  1  0  0  0  0
 21 22  1  0  0  0  0
 21 29  1  0  0  0  0
 21 30  1  0  0  0  0
 22 23  1  0  0  0  0
 22 24  2  0  0  0  0
 23 25  2  0  0  0  0
 23 31  1  0  0  0  0
 24 26  1  0  0  0  0
 24 32  1  0  0  0  0
 25 26  1  0  0  0  0
 25 33  1  0  0  0  0
 26 34  1  0  0  0  0
 35 36  1  0  0  0  0
 35 40  1  0  0  0  0
 36 37  1  0  0  0  0
 36 39  1  0  0  0  0
 36 41  1  0  0  0  0
 37 38  2  0  0  0  0
 37 45  1  0  0  0  0
 39 42  1  0  0  0  0
 39 43  1  0  0  0  0
 39 44  1  0  0  0  0
 45 46  1  0  0  0  0
 45 47  1  0  0  0  0
 46 48  1  0  0  0  0
 46 49  1  0  0  0  0
 46 50  1  0  0  0  0
M  CHG  1  23   1
M  END
$$$$

  -OEChem-05262216443D

 50 50  0     1  0  0  0  0  0999 V2000
   -2.9053   -0.5541    1.7939 C   0  0  0  0  0  0  0  0  0  0  0  0
   -2.9459   -0.1499    0.6378 O   0  0  0  0  0  0  0  0  0  0  0  0
   -3.0666   -2.0319    2.0922 C   0  0  0  0  0  0  0  0  0  0  0  0
   -3.3586   -2.5713    1.1869 H   0  0  0  0  0  0  0  0  0  0  0  0
   -2.1236   -2.4431    2.4614 H   0  0  0  0  0  0  0  0  0  0  0  0
   -3.8397   -2.1781    2.8508 H   0  0  0  0  0  0  0  0  0  0  0  0
   -2.6290    0.3279    2.8182 N   0  0  0  0  0  0  0  0  0  0  0  0
   -2.4093    1.7723    2.6453 C   0  0  2  0  0  0  0  0  0  0  0  0
   -1.0297    2.0871    2.0186 C   0  0  0  0  0  0  0  0  0  0  0  0
   -0.2578    2.9102    2.4939 O   0  0  0  0  0  0  0  0  0  0  0  0
   -2.5905    2.4270    4.0203 C   0  0  0  0  0  0  0  0  0  0  0  0
   -2.4667   -0.0722    3.7397 H   0  0  0  0  0  0  0  0  0  0  0  0
   -3.1746    2.1787    1.9757 H   0  0  0  0  0  0  0  0  0  0  0  0
   -1.8258    2.0722    4.7196 H   0  0  0  0  0  0  0  0  0  0  0  0
   -2.5033    3.5153    3.9383 H   0  0  0  0  0  0  0  0  0  0  0  0
   -3.5777    2.1925    4.4297 H   0  0  0  0  0  0  0  0  0  0  0  0
   -0.7115    1.5928    0.7671 N   0  0  0  0  0  0  0  0  0  0  0  0
    0.5372    0.8483    0.4829 C   0  0  2  0  0  0  0  0  0  0  0  0
    1.5347    0.5995    1.6535 C   0  0  0  0  0  0  0  0  0  0  0  0
    1.1150    0.3010    2.7645 O   0  0  0  0  0  0  0  0  0  0  0  0
    1.2237    1.6672   -0.6332 C   0  0  0  0  0  0  0  0  0  0  0  0
    0.3909    1.6784   -1.8925 C   0  0  0  0  0  0  0  0  0  0  0  0
    0.2276    0.6375   -2.8085 N   0  3  0  0  0  0  0  0  0  0  0  0
   -0.3369    2.7482   -2.3471 C   0  0  0  0  0  0  0  0  0  0  0  0
   -0.5682    1.0121   -3.7813 C   0  0  0  0  0  0  0  0  0  0  0  0
   -0.9390    2.3314   -3.5278 N   0  0  0  0  0  0  0  0  0  0  0  0
   -1.5344    1.1175    0.3855 H   0  0  0  0  0  0  0  0  0  0  0  0
    0.2725   -0.1447    0.1076 H   0  0  0  0  0  0  0  0  0  0  0  0
    2.2090    1.2622   -0.8815 H   0  0  0  0  0  0  0  0  0  0  0  0
    1.3780    2.6918   -0.2725 H   0  0  0  0  0  0  0  0  0  0  0  0
    0.6648   -0.2808   -2.6967 H   0  0  0  0  0  0  0  0  0  0  0  0
   -0.4250    3.7198   -1.8581 H   0  0  0  0  0  0  0  0  0  0  0  0
   -0.8848    0.4037   -4.6307 H   0  0  0  0  0  0  0  0  0  0  0  0
   -1.5634    2.9000   -4.1078 H   0  0  0  0  0  0  0  0  0  0  0  0
    2.8295    0.1994    1.3792 N   0  0  0  0  0  0  0  0  0  0  0  0
    3.8733    0.0855    2.4056 C   0  0  2  0  0  0  0  0  0  0  0  0
    5.1478    0.8067    1.9182 C   0  0  0  0  0  0  0  0  0  0  0  0
    5.2141    1.1768    0.7479 O   0  0  0  0  0  0  0  0  0  0  0  0
    4.1406   -1.3992    2.6649 C   0  0  0  0  0  0  0  0  0  0  0  0
    3.1934    0.4664    0.4664 H   0  0  0  0  0  0  0  0  0  0  0  0
    3.5541    0.5654    3.3378 H   0  0  0  0  0  0  0  0  0  0  0  0
    4.4719   -1.8967    1.7476 H   0  0  0  0  0  0  0  0  0  0  0  0
    4.9153   -1.5229    3.4277 H   0  0  0  0  0  0  0  0  0  0  0  0
    3.2281   -1.8900    3.0184 H   0  0  0  0  0  0  0  0  0  0  0  0
    6.1991    1.0599    2.7777 N   0  0  0  0  0  0  0  0  0  0  0  0
    7.4084    1.7689    2.3746 C   0  0  0  0  0  0  0  0  0  0  0  0
    6.1005    0.7699    3.7469 H   0  0  0  0  0  0  0  0  0  0  0  0
    7.9144    1.2348    1.5633 H   0  0  0  0  0  0  0  0  0  0  0  0
    7.1649    2.7802    2.0320 H   0  0  0  0  0  0  0  0  0  0  0  0
    8.1003    1.8482    3.2188 H   0  0  0  0  0  0  0  0  0  0  0  0
  1  2  2  0  0  0  0
  1  3  1  0  0  0  0
  1  7  1  0  0  0  0
  3  4  1  0  0  0  0
  3  5  1  0  0  0  0
  3  6  1  0  0  0  0
  7  8  1  0  0  0  0
  7 12  1  0  0  0  0
  8  9  1  0  0  0  0
  8 11  1  0  0  0  0
  8 13  1  0  0  0  0
  9 10  2  0  0  0  0
  9 17  1  0  0  0  0
 11 14  1  0  0  0  0
 11 15  1  0  0  0  0
 11 16  1  0  0  0  0
 17 18  1  0  0  0  0
 17 27  1  0  0  0  0
 18 19  1  0  0  0  0
 18 21  1  0  0  0  0
 18 28  1  0  0  0  0
 19 20  2  0  0  0  0
 19 35  1  0  0  0  0
 21 22  1  0  0  0  0
 21 29  1  0  0  0  0
 21 30  1  0  0  0  0
 22 23  1  0  0  0  0
 22 24  2  0  0  0  0
 23 25  2  0  0  0  0
 23 31  1  0  0  0  0
 24 26  1  0  0  0  0
 24 32  1  0  0  0  0
 25 26  1  0  0  0  0
 25 33  1  0  0  0  0
 26 34  1  0  0  0  0
 35 36  1  0  0  0  0
 35 40  1  0  0  0  0
 36 37  1  0  0  0  0
 36 39  1  0  0  0  0
 36 41  1  0  0  0  0
 37 38  2  0  0  0  0
 37 45  1  0  0  0  0
 39 42  1  0  0  0  0
 39 43  1  0  0  0  0
 39 44  1  0  0  0  0
 45 46  1  0  0  0  0
 45 47  1  0  0  0  0
 46 48  1  0  0  0  0
 46 49  1  0  0  0  0
 46 50  1  0  0  0  0
M  CHG  1  23   1
M  END
$$$$

  -OEChem-05262216443D

 50 50  0     1  0  0  0  0  0999 V2000
   -3.1927   -0.4930    1.6359 C   0  0  0  0  0  0  0  0  0  0  0  0
   -3.0994    0.0379    0.5355 O   0  0  0  0  0  0  0  0  0  0  0  0
   -3.6773   -1.9246    1.7543 C   0  0  0  0  0  0  0  0  0  0  0  0
   -3.9251   -2.3239    0.7670 H   0  0  0  0  0  0  0  0  0  0  0  0
   -2.8985   -2.5477    2.2014 H   0  0  0  0  0  0  0  0  0  0  0  0
   -4.5705   -1.9651    2.3829 H   0  0  0  0  0  0  0  0  0  0  0  0
   -2.7885    0.1919    2.7636 N   0  0  0  0  0  0  0  0  0  0  0  0
   -2.3511    1.5978    2.7870 C   0  0  2  0  0  0  0  0  0  0  0  0
   -0.9186    1.7972    2.2329 C   0  0  0  0  0  0  0  0  0  0  0  0
   -0.0999    2.5184    2.7880 O   0  0  0  0  0  0  0  0  0  0  0  0
   -2.4908    2.0872    4.2341 C   0  0  0  0  0  0  0  0  0  0  0  0
   -2.8101   -0.3161    3.6452 H   0  0  0  0  0  0  0  0  0  0  0  0
   -3.0247    2.1951    2.1634 H   0  0  0  0  0  0  0  0  0  0  0  0
   -1.8088    1.5394    4.8927 H   0  0  0  0  0  0  0  0  0  0  0  0
   -2.2504    3.1534    4.3005 H   0  0  0  0  0  0  0  0  0  0  0  0
   -3.5153    1.9446    4.5914 H   0  0  0  0  0  0  0  0  0  0  0  0
   -0.6232    1.3640    0.9523 N   0  0  0  0  0  0  0  0  0  0  0  0
    0.6462    0.7171    0.5499 C   0  0  2  0  0  0  0  0  0  0  0  0
    1.7148    0.5060    1.6617 C   0  0  0  0  0  0  0  0  0  0  0  0
    1.3798   -0.0596    2.6950 O   0  0  0  0  0  0  0  0  0  0  0  0
    1.1878    1.5910   -0.6013 C   0  0  0  0  0  0  0  0  0  0  0  0
    0.2503    1.5544   -1.7855 C   0  0  0  0  0  0  0  0  0  0  0  0
    0.0770    0.5133   -2.6993 N   0  3  0  0  0  0  0  0  0  0  0  0
   -0.6046    2.5654   -2.1449 C   0  0  0  0  0  0  0  0  0  0  0  0
   -0.8438    0.8306   -3.5780 C   0  0  0  0  0  0  0  0  0  0  0  0
   -1.2923    2.1115   -3.2633 N   0  0  0  0  0  0  0  0  0  0  0  0
   -1.4524    0.9391    0.5287 H   0  0  0  0  0  0  0  0  0  0  0  0
    0.4216   -0.2853    0.1739 H   0  0  0  0  0  0  0  0  0  0  0  0
    2.1696    1.2416   -0.9345 H   0  0  0  0  0  0  0  0  0  0  0  0
    1.3102    2.6196   -0.2406 H   0  0  0  0  0  0  0  0  0  0  0  0
    0.5960   -0.3672   -2.6501 H   0  0  0  0  0  0  0  0  0  0  0  0
   -0.7262    3.5186   -1.6288 H   0  0  0  0  0  0  0  0  0  0  0  0
   -1.1974    0.2073   -4.4016 H   0  0  0  0  0  0  0  0  0  0  0  0
   -2.0257    2.6279   -3.7582 H   0  0  0  0  0  0  0  0  0  0  0  0
    3.0672    0.5115    1.3727 N   0  0  0  0  0  0  0  0  0  0  0  0
    4.1102    0.4435    2.4042 C   0  0  2  0  0  0  0  0  0  0  0  0
    5.2466    1.4280    2.0552 C   0  0  0  0  0  0  0  0  0  0  0  0
    5.2548    1.9659    0.9504 O   0  0  0  0  0  0  0  0  0  0  0  0
    4.6281   -0.9953    2.4864 C   0  0  0  0  0  0  0  0  0  0  0  0
    3.3487    1.0373    0.5467 H   0  0  0  0  0  0  0  0  0  0  0  0
    3.7028    0.7401    3.3776 H   0  0  0  0  0  0  0  0  0  0  0  0
    5.0563   -1.3044    1.5277 H   0  0  0  0  0  0  0  0  0  0  0  0
    5.3992   -1.0842    3.2577 H   0  0  0  0  0  0  0  0  0  0  0  0
    3.8094   -1.6768    2.7392 H   0  0  0  0  0  0  0  0  0  0  0  0
    6.2356    1.7326    2.9708 N   0  0  0  0  0  0  0  0  0  0  0  0
    7.3033    2.6902    2.7045 C   0  0  0  0  0  0  0  0  0  0  0  0
    6.1772    1.3061    3.8915 H   0  0  0  0  0  0  0  0  0  0  0  0
    7.8856    2.3819    1.8295 H   0  0  0  0  0  0  0  0  0  0  0  0
    6.8882    3.6864    2.5178 H   0  0  0  0  0  0  0  0  0  0  0  0
    7.9793    2.7539    3.5629 H   0  0  0  0  0  0  0  0  0  0  0  0
  1  2  2  0  0  0  0
  1  3  1  0  0  0  0
  1  7  1  0  0  0  0
  3  4  1  0  0  0  0
  3  5  1  0  0  0  0
  3  6  1  0  0  0  0
  7  8  1  0  0  0  0
  7 12  1  0  0  0  0
  8  9  1  0  0  0  0
  8 11  1  0  0  0  0
  8 13  1  0  0  0  0
  9 10  2  0  0  0  0
  9 17  1  0  0  0  0
 11 14  1  0  0  0  0
 11 15  1  0  0  0  0
 11 16  1  0  0  0  0
 17 18  1  0  0  0  0
 17 27  1  0  0  0  0
 18 19  1  0  0  0  0
 18 21  1  0  0  0  0
 18 28  1  0  0  0  0
 19 20  2  0  0  0  0
 19 35  1  0  0  0  0
 21 22  1  0  0  0  0
 21 29  1  0  0  0  0
 21 30  1  0  0  0  0
 22 23  1  0  0  0  0
 22 24  2  0  0  0  0
 23 25  2  0  0  0  0
 23 31  1  0  0  0  0
 24 26  1  0  0  0  0
 24 32  1  0  0  0  0
 25 26  1  0  0  0  0
 25 33  1  0  0  0  0
 26 34  1  0  0  0  0
 35 36  1  0  0  0  0
 35 40  1  0  0  0  0
 36 37  1  0  0  0  0
 36 39  1  0  0  0  0
 36 41  1  0  0  0  0
 37 38  2  0  0  0  0
 37 45  1  0  0  0  0
 39 42  1  0  0  0  0
 39 43  1  0  0  0  0
 39 44  1  0  0  0  0
 45 46  1  0  0  0  0
 45 47  1  0  0  0  0
 46 48  1  0  0  0  0
 46 49  1  0  0  0  0
 46 50  1  0  0  0  0
M  CHG  1  23   1
M  END
$$$$

  -OEChem-05262216443D

 50 50  0     1  0  0  0  0  0999 V2000
   -3.1323    0.4249    1.7587 C   0  0  0  0  0  0  0  0  0  0  0  0
   -2.8353    0.9052    0.6705 O   0  0  0  0  0  0  0  0  0  0  0  0
   -4.2073   -0.6405    1.8522 C   0  0  0  0  0  0  0  0  0  0  0  0
   -4.6354   -0.8366    0.8653 H   0  0  0  0  0  0  0  0  0  0  0  0
   -3.7825   -1.5689    2.2426 H   0  0  0  0  0  0  0  0  0  0  0  0
   -5.0060   -0.3066    2.5198 H   0  0  0  0  0  0  0  0  0  0  0  0
   -2.4381    0.8012    2.8913 N   0  0  0  0  0  0  0  0  0  0  0  0
   -1.4884    1.9258    2.9687 C   0  0  2  0  0  0  0  0  0  0  0  0
   -0.0902    1.6080    2.3783 C   0  0  0  0  0  0  0  0  0  0  0  0
    0.9292    2.0290    2.9065 O   0  0  0  0  0  0  0  0  0  0  0  0
   -1.4164    2.3462    4.4429 C   0  0  0  0  0  0  0  0  0  0  0  0
   -2.7115    0.3541    3.7640 H   0  0  0  0  0  0  0  0  0  0  0  0
   -1.8888    2.7718    2.3996 H   0  0  0  0  0  0  0  0  0  0  0  0
   -0.9801    1.5467    5.0508 H   0  0  0  0  0  0  0  0  0  0  0  0
   -0.7950    3.2410    4.5549 H   0  0  0  0  0  0  0  0  0  0  0  0
   -2.4151    2.5755    4.8273 H   0  0  0  0  0  0  0  0  0  0  0  0
   -0.0244    1.0586    1.1077 N   0  0  0  0  0  0  0  0  0  0  0  0
    1.0971    0.3304    0.4720 C   0  0  2  0  0  0  0  0  0  0  0  0
    2.3806    0.1371    1.3236 C   0  0  0  0  0  0  0  0  0  0  0  0
    2.2858   -0.5007    2.3643 O   0  0  0  0  0  0  0  0  0  0  0  0
    1.3638    1.0747   -0.8507 C   0  0  0  0  0  0  0  0  0  0  0  0
    0.1583    0.9631   -1.7561 C   0  0  0  0  0  0  0  0  0  0  0  0
   -0.2521   -0.1527   -2.4892 N   0  3  0  0  0  0  0  0  0  0  0  0
   -0.7751    1.9499   -1.9524 C   0  0  0  0  0  0  0  0  0  0  0  0
   -1.3841    0.0994   -3.1022 C   0  0  0  0  0  0  0  0  0  0  0  0
   -1.7408    1.4093   -2.7906 N   0  0  0  0  0  0  0  0  0  0  0  0
   -0.9546    0.8589    0.7329 H   0  0  0  0  0  0  0  0  0  0  0  0
    0.7595   -0.6866    0.2492 H   0  0  0  0  0  0  0  0  0  0  0  0
    2.2299    0.6507   -1.3691 H   0  0  0  0  0  0  0  0  0  0  0  0
    1.5853    2.1268   -0.6349 H   0  0  0  0  0  0  0  0  0  0  0  0
    0.2661   -1.0350   -2.5052 H   0  0  0  0  0  0  0  0  0  0  0  0
   -0.7743    2.9412   -1.4981 H   0  0  0  0  0  0  0  0  0  0  0  0
   -1.9488   -0.5896   -3.7331 H   0  0  0  0  0  0  0  0  0  0  0  0
   -2.6023    1.8813   -3.0821 H   0  0  0  0  0  0  0  0  0  0  0  0
    3.6556    0.3571    0.8258 N   0  0  0  0  0  0  0  0  0  0  0  0
    4.8534    0.2191    1.6714 C   0  0  2  0  0  0  0  0  0  0  0  0
    4.9865    1.4158    2.6426 C   0  0  0  0  0  0  0  0  0  0  0  0
    5.8325    2.2819    2.4621 O   0  0  0  0  0  0  0  0  0  0  0  0
    6.0669    0.0641    0.7454 C   0  0  0  0  0  0  0  0  0  0  0  0
    3.7287    1.0129    0.0548 H   0  0  0  0  0  0  0  0  0  0  0  0
    4.7881   -0.6888    2.2812 H   0  0  0  0  0  0  0  0  0  0  0  0
    6.1845    0.9458    0.1070 H   0  0  0  0  0  0  0  0  0  0  0  0
    6.9803   -0.0547    1.3377 H   0  0  0  0  0  0  0  0  0  0  0  0
    5.9521   -0.8185    0.1090 H   0  0  0  0  0  0  0  0  0  0  0  0
    4.0624    1.5694    3.6571 N   0  0  0  0  0  0  0  0  0  0  0  0
    3.9700    2.7697    4.4778 C   0  0  0  0  0  0  0  0  0  0  0  0
    3.2552    0.9418    3.6261 H   0  0  0  0  0  0  0  0  0  0  0  0
    4.9362    2.9953    4.9418 H   0  0  0  0  0  0  0  0  0  0  0  0
    3.6616    3.6261    3.8693 H   0  0  0  0  0  0  0  0  0  0  0  0
    3.2327    2.6255    5.2734 H   0  0  0  0  0  0  0  0  0  0  0  0
  1  2  2  0  0  0  0
  1  3  1  0  0  0  0
  1  7  1  0  0  0  0
  3  4  1  0  0  0  0
  3  5  1  0  0  0  0
  3  6  1  0  0  0  0
  7  8  1  0  0  0  0
  7 12  1  0  0  0  0
  8  9  1  0  0  0  0
  8 11  1  0  0  0  0
  8 13  1  0  0  0  0
  9 10  2  0  0  0  0
  9 17  1  0  0  0  0
 11 14  1  0  0  0  0
 11 15  1  0  0  0  0
 11 16  1  0  0  0  0
 17 18  1  0  0  0  0
 17 27  1  0  0  0  0
 18 19  1  0  0  0  0
 18 21  1  0  0  0  0
 18 28  1  0  0  0  0
 19 20  2  0  0  0  0
 19 35  1  0  0  0  0
 21 22  1  0  0  0  0
 21 29  1  0  0  0  0
 21 30  1  0  0  0  0
 22 23  1  0  0  0  0
 22 24  2  0  0  0  0
 23 25  2  0  0  0  0
 23 31  1  0  0  0  0
 24 26  1  0  0  0  0
 24 32  1  0  0  0  0
 25 26  1  0  0  0  0
 25 33  1  0  0  0  0
 26 34  1  0  0  0  0
 35 36  1  0  0  0  0
 35 40  1  0  0  0  0
 36 37  1  0  0  0  0
 36 39  1  0  0  0  0
 36 41  1  0  0  0  0
 37 38  2  0  0  0  0
 37 45  1  0  0  0  0
 39 42  1  0  0  0  0
 39 43  1  0  0  0  0
 39 44  1  0  0  0  0
 45 46  1  0  0  0  0
 45 47  1  0  0  0  0
 46 48  1  0  0  0  0
 46 49  1  0  0  0  0
 46 50  1  0  0  0  0
M  CHG  1  23   1
M  END
$$$$

  -OEChem-05262216443D

 50 50  0     1  0  0  0  0  0999 V2000
   -3.1372    0.1343    1.7622 C   0  0  0  0  0  0  0  0  0  0  0  0
   -2.8762    0.6796    0.6953 O   0  0  0  0  0  0  0  0  0  0  0  0
   -4.1233   -1.0168    1.8090 C   0  0  0  0  0  0  0  0  0  0  0  0
   -4.5219   -1.2164    0.8105 H   0  0  0  0  0  0  0  0  0  0  0  0
   -3.6285   -1.9191    2.1778 H   0  0  0  0  0  0  0  0  0  0  0  0
   -4.9548   -0.7701    2.4744 H   0  0  0  0  0  0  0  0  0  0  0  0
   -2.4780    0.5212    2.9120 N   0  0  0  0  0  0  0  0  0  0  0  0
   -1.5975    1.6969    3.0282 C   0  0  2  0  0  0  0  0  0  0  0  0
   -0.1818    1.4682    2.4396 C   0  0  0  0  0  0  0  0  0  0  0  0
    0.8228    1.8427    3.0284 O   0  0  0  0  0  0  0  0  0  0  0  0
   -1.5615    2.0861    4.5121 C   0  0  0  0  0  0  0  0  0  0  0  0
   -2.7076    0.0140    3.7644 H   0  0  0  0  0  0  0  0  0  0  0  0
   -2.0413    2.5326    2.4764 H   0  0  0  0  0  0  0  0  0  0  0  0
   -1.0921    1.2956    5.1069 H   0  0  0  0  0  0  0  0  0  0  0  0
   -0.9874    3.0082    4.6510 H   0  0  0  0  0  0  0  0  0  0  0  0
   -2.5745    2.2560    4.8898 H   0  0  0  0  0  0  0  0  0  0  0  0
   -0.0841    1.0090    1.1360 N   0  0  0  0  0  0  0  0  0  0  0  0
    1.0718    0.3667    0.4733 C   0  0  2  0  0  0  0  0  0  0  0  0
    2.3456    0.1693    1.3347 C   0  0  0  0  0  0  0  0  0  0  0  0
    2.2995   -0.6628    2.2284 O   0  0  0  0  0  0  0  0  0  0  0  0
    1.3337    1.1804   -0.8075 C   0  0  0  0  0  0  0  0  0  0  0  0
    0.1472    1.0656   -1.7373 C   0  0  0  0  0  0  0  0  0  0  0  0
   -0.2064   -0.0323   -2.5255 N   0  3  0  0  0  0  0  0  0  0  0  0
   -0.8194    2.0247   -1.9102 C   0  0  0  0  0  0  0  0  0  0  0  0
   -1.3371    0.2028   -3.1475 C   0  0  0  0  0  0  0  0  0  0  0  0
   -1.7492    1.4840   -2.7884 N   0  0  0  0  0  0  0  0  0  0  0  0
   -1.0020    0.7974    0.7368 H   0  0  0  0  0  0  0  0  0  0  0  0
    0.7736   -0.6481    0.1920 H   0  0  0  0  0  0  0  0  0  0  0  0
    2.2276    0.8120   -1.3226 H   0  0  0  0  0  0  0  0  0  0  0  0
    1.5089    2.2296   -0.5430 H   0  0  0  0  0  0  0  0  0  0  0  0
    0.3444   -0.8941   -2.5679 H   0  0  0  0  0  0  0  0  0  0  0  0
   -0.8639    2.9963   -1.4172 H   0  0  0  0  0  0  0  0  0  0  0  0
   -1.8642   -0.4804   -3.8161 H   0  0  0  0  0  0  0  0  0  0  0  0
   -2.6222    1.9358   -3.0783 H   0  0  0  0  0  0  0  0  0  0  0  0
    3.5703    0.7326    1.0160 N   0  0  0  0  0  0  0  0  0  0  0  0
    4.7628    0.5857    1.8697 C   0  0  2  0  0  0  0  0  0  0  0  0
    4.8301    1.6803    2.9625 C   0  0  0  0  0  0  0  0  0  0  0  0
    5.8358    2.3624    3.1074 O   0  0  0  0  0  0  0  0  0  0  0  0
    5.9887    0.5867    0.9466 C   0  0  0  0  0  0  0  0  0  0  0  0
    3.5541    1.5334    0.3928 H   0  0  0  0  0  0  0  0  0  0  0  0
    4.7462   -0.3780    2.3904 H   0  0  0  0  0  0  0  0  0  0  0  0
    6.0833    1.5470    0.4298 H   0  0  0  0  0  0  0  0  0  0  0  0
    6.9008    0.4188    1.5290 H   0  0  0  0  0  0  0  0  0  0  0  0
    5.9070   -0.2095    0.2009 H   0  0  0  0  0  0  0  0  0  0  0  0
    3.7239    1.9553    3.7435 N   0  0  0  0  0  0  0  0  0  0  0  0
    3.6843    3.0180    4.7394 C   0  0  0  0  0  0  0  0  0  0  0  0
    2.8632    1.4390    3.5467 H   0  0  0  0  0  0  0  0  0  0  0  0
    4.4080    2.8223    5.5374 H   0  0  0  0  0  0  0  0  0  0  0  0
    3.9175    3.9843    4.2803 H   0  0  0  0  0  0  0  0  0  0  0  0
    2.6862    3.0791    5.1838 H   0  0  0  0  0  0  0  0  0  0  0  0
  1  2  2  0  0  0  0
  1  3  1  0  0  0  0
  1  7  1  0  0  0  0
  3  4  1  0  0  0  0
  3  5  1  0  0  0  0
  3  6  1  0  0  0  0
  7  8  1  0  0  0  0
  7 12  1  0  0  0  0
  8  9  1  0  0  0  0
  8 11  1  0  0  0  0
  8 13  1  0  0  0  0
  9 10  2  0  0  0  0
  9 17  1  0  0  0  0
 11 14  1  0  0  0  0
 11 15  1  0  0  0  0
 11 16  1  0  0  0  0
 17 18  1  0  0  0  0
 17 27  1  0  0  0  0
 18 19  1  0  0  0  0
 18 21  1  0  0  0  0
 18 28  1  0  0  0  0
 19 20  2  0  0  0  0
 19 35  1  0  0  0  0
 21 22  1  0  0  0  0
 21 29  1  0  0  0  0
 21 30  1  0  0  0  0
 22 23  1  0  0  0  0
 22 24  2  0  0  0  0
 23 25  2  0  0  0  0
 23 31  1  0  0  0  0
 24 26  1  0  0  0  0
 24 32  1  0  0  0  0
 25 26  1  0  0  0  0
 25 33  1  0  0  0  0
 26 34  1  0  0  0  0
 35 36  1  0  0  0  0
 35 40  1  0  0  0  0
 36 37  1  0  0  0  0
 36 39  1  0  0  0  0
 36 41  1  0  0  0  0
 37 38  2  0  0  0  0
 37 45  1  0  0  0  0
 39 42  1  0  0  0  0
 39 43  1  0  0  0  0
 39 44  1  0  0  0  0
 45 46  1  0  0  0  0
 45 47  1  0  0  0  0
 46 48  1  0  0  0  0
 46 49  1  0  0  0  0
 46 50  1  0  0  0  0
M  CHG  1  23   1
M  END
$$$$

  -OEChem-05262216443D

 50 50  0     1  0  0  0  0  0999 V2000
   -3.2494    0.2816    1.5941 C   0  0  0  0  0  0  0  0  0  0  0  0
   -2.8564    0.8140    0.5619 O   0  0  0  0  0  0  0  0  0  0  0  0
   -4.3773   -0.7310    1.5479 C   0  0  0  0  0  0  0  0  0  0  0  0
   -4.7202   -0.8722    0.5193 H   0  0  0  0  0  0  0  0  0  0  0  0
   -4.0349   -1.6921    1.9399 H   0  0  0  0  0  0  0  0  0  0  0  0
   -5.2183   -0.3804    2.1519 H   0  0  0  0  0  0  0  0  0  0  0  0
   -2.6248    0.5600    2.7934 N   0  0  0  0  0  0  0  0  0  0  0  0
   -1.6510    1.6453    3.0063 C   0  0  2  0  0  0  0  0  0  0  0  0
   -0.2210    1.3123    2.5057 C   0  0  0  0  0  0  0  0  0  0  0  0
    0.7615    1.5721    3.1831 O   0  0  0  0  0  0  0  0  0  0  0  0
   -1.6852    1.9857    4.5031 C   0  0  0  0  0  0  0  0  0  0  0  0
   -2.9811    0.0777    3.6161 H   0  0  0  0  0  0  0  0  0  0  0  0
   -1.9802    2.5335    2.4564 H   0  0  0  0  0  0  0  0  0  0  0  0
   -1.3311    1.1383    5.0994 H   0  0  0  0  0  0  0  0  0  0  0  0
   -1.0425    2.8469    4.7139 H   0  0  0  0  0  0  0  0  0  0  0  0
   -2.7029    2.2363    4.8181 H   0  0  0  0  0  0  0  0  0  0  0  0
   -0.0697    0.8581    1.2049 N   0  0  0  0  0  0  0  0  0  0  0  0
    1.1408    0.3417    0.5285 C   0  0  2  0  0  0  0  0  0  0  0  0
    2.4520    0.2774    1.3523 C   0  0  0  0  0  0  0  0  0  0  0  0
    2.6375   -0.7003    2.0618 O   0  0  0  0  0  0  0  0  0  0  0  0
    1.3130    1.1671   -0.7603 C   0  0  0  0  0  0  0  0  0  0  0  0
    0.1471    0.9316   -1.6908 C   0  0  0  0  0  0  0  0  0  0  0  0
   -0.0851   -0.2035   -2.4705 N   0  3  0  0  0  0  0  0  0  0  0  0
   -0.9086    1.7866   -1.8833 C   0  0  0  0  0  0  0  0  0  0  0  0
   -1.2237   -0.0878   -3.1112 C   0  0  0  0  0  0  0  0  0  0  0  0
   -1.7675    1.1477   -2.7674 N   0  0  0  0  0  0  0  0  0  0  0  0
   -0.9638    0.7065    0.7319 H   0  0  0  0  0  0  0  0  0  0  0  0
    0.9425   -0.6995    0.2542 H   0  0  0  0  0  0  0  0  0  0  0  0
    2.2423    0.8892   -1.2705 H   0  0  0  0  0  0  0  0  0  0  0  0
    1.3806    2.2307   -0.5052 H   0  0  0  0  0  0  0  0  0  0  0  0
    0.5521   -1.0044   -2.4984 H   0  0  0  0  0  0  0  0  0  0  0  0
   -1.0605    2.7519   -1.3998 H   0  0  0  0  0  0  0  0  0  0  0  0
   -1.6685   -0.8248   -3.7828 H   0  0  0  0  0  0  0  0  0  0  0  0
   -2.6789    1.5062   -3.0685 H   0  0  0  0  0  0  0  0  0  0  0  0
    3.4857    1.1824    1.1764 N   0  0  0  0  0  0  0  0  0  0  0  0
    4.7490    1.1171    1.9312 C   0  0  2  0  0  0  0  0  0  0  0  0
    4.6442    1.8303    3.3001 C   0  0  0  0  0  0  0  0  0  0  0  0
    5.3923    2.7546    3.5909 O   0  0  0  0  0  0  0  0  0  0  0  0
    5.8480    1.7021    1.0343 C   0  0  0  0  0  0  0  0  0  0  0  0
    3.2297    2.0871    0.7930 H   0  0  0  0  0  0  0  0  0  0  0  0
    5.0143    0.0744    2.1376 H   0  0  0  0  0  0  0  0  0  0  0  0
    5.6502    2.7567    0.8172 H   0  0  0  0  0  0  0  0  0  0  0  0
    6.8204    1.6306    1.5330 H   0  0  0  0  0  0  0  0  0  0  0  0
    5.9048    1.1524    0.0901 H   0  0  0  0  0  0  0  0  0  0  0  0
    3.6518    1.4645    4.1870 N   0  0  0  0  0  0  0  0  0  0  0  0
    3.3803    2.1831    5.4246 C   0  0  0  0  0  0  0  0  0  0  0  0
    2.9477    0.8114    3.8388 H   0  0  0  0  0  0  0  0  0  0  0  0
    4.2679    2.1918    6.0660 H   0  0  0  0  0  0  0  0  0  0  0  0
    3.0882    3.2165    5.2109 H   0  0  0  0  0  0  0  0  0  0  0  0
    2.5651    1.6980    5.9701 H   0  0  0  0  0  0  0  0  0  0  0  0
  1  2  2  0  0  0  0
  1  3  1  0  0  0  0
  1  7  1  0  0  0  0
  3  4  1  0  0  0  0
  3  5  1  0  0  0  0
  3  6  1  0  0  0  0
  7  8  1  0  0  0  0
  7 12  1  0  0  0  0
  8  9  1  0  0  0  0
  8 11  1  0  0  0  0
  8 13  1  0  0  0  0
  9 10  2  0  0  0  0
  9 17  1  0  0  0  0
 11 14  1  0  0  0  0
 11 15  1  0  0  0  0
 11 16  1  0  0  0  0
 17 18  1  0  0  0  0
 17 27  1  0  0  0  0
 18 19  1  0  0  0  0
 18 21  1  0  0  0  0
 18 28  1  0  0  0  0
 19 20  2  0  0  0  0
 19 35  1  0  0  0  0
 21 22  1  0  0  0  0
 21 29  1  0  0  0  0
 21 30  1  0  0  0  0
 22 23  1  0  0  0  0
 22 24  2  0  0  0  0
 23 25  2  0  0  0  0
 23 31  1  0  0  0  0
 24 26  1  0  0  0  0
 24 32  1  0  0  0  0
 25 26  1  0  0  0  0
 25 33  1  0  0  0  0
 26 34  1  0  0  0  0
 35 36  1  0  0  0  0
 35 40  1  0  0  0  0
 36 37  1  0  0  0  0
 36 39  1  0  0  0  0
 36 41  1  0  0  0  0
 37 38  2  0  0  0  0
 37 45  1  0  0  0  0
 39 42  1  0  0  0  0
 39 43  1  0  0  0  0
 39 44  1  0  0  0  0
 45 46  1  0  0  0  0
 45 47  1  0  0  0  0
 46 48  1  0  0  0  0
 46 49  1  0  0  0  0
 46 50  1  0  0  0  0
M  CHG  1  23   1
M  END
$$$$

  -OEChem-05262216443D

 50 50  0     1  0  0  0  0  0999 V2000
   -3.2404    0.1227    1.3610 C   0  0  0  0  0  0  0  0  0  0  0  0
   -2.8160    0.6712    0.3500 O   0  0  0  0  0  0  0  0  0  0  0  0
   -4.2969   -0.9596    1.2547 C   0  0  0  0  0  0  0  0  0  0  0  0
   -4.6201   -1.0747    0.2166 H   0  0  0  0  0  0  0  0  0  0  0  0
   -3.8938   -1.9127    1.6064 H   0  0  0  0  0  0  0  0  0  0  0  0
   -5.1650   -0.6950    1.8640 H   0  0  0  0  0  0  0  0  0  0  0  0
   -2.7090    0.4443    2.5937 N   0  0  0  0  0  0  0  0  0  0  0  0
   -1.8128    1.5842    2.8548 C   0  0  2  0  0  0  0  0  0  0  0  0
   -0.3393    1.3294    2.4435 C   0  0  0  0  0  0  0  0  0  0  0  0
    0.5851    1.6435    3.1759 O   0  0  0  0  0  0  0  0  0  0  0  0
   -1.9570    1.9289    4.3438 C   0  0  0  0  0  0  0  0  0  0  0  0
   -3.0934   -0.0470    3.3984 H   0  0  0  0  0  0  0  0  0  0  0  0
   -2.1572    2.4498    2.2791 H   0  0  0  0  0  0  0  0  0  0  0  0
   -1.5945    1.1052    4.9678 H   0  0  0  0  0  0  0  0  0  0  0  0
   -1.3763    2.8251    4.5871 H   0  0  0  0  0  0  0  0  0  0  0  0
   -3.0043    2.1245    4.5940 H   0  0  0  0  0  0  0  0  0  0  0  0
   -0.0820    0.8747    1.1598 N   0  0  0  0  0  0  0  0  0  0  0  0
    1.2025    0.4622    0.5530 C   0  0  2  0  0  0  0  0  0  0  0  0
    2.4747    0.5250    1.4340 C   0  0  0  0  0  0  0  0  0  0  0  0
    2.8910   -0.5163    1.9242 O   0  0  0  0  0  0  0  0  0  0  0  0
    1.3825    1.2813   -0.7378 C   0  0  0  0  0  0  0  0  0  0  0  0
    0.2974    0.9360   -1.7300 C   0  0  0  0  0  0  0  0  0  0  0  0
    0.2104   -0.2267   -2.4988 N   0  3  0  0  0  0  0  0  0  0  0  0
   -0.8113    1.6962   -2.0053 C   0  0  0  0  0  0  0  0  0  0  0  0
   -0.8921   -0.2188   -3.2091 C   0  0  0  0  0  0  0  0  0  0  0  0
   -1.5578    0.9716   -2.9250 N   0  0  0  0  0  0  0  0  0  0  0  0
   -0.9328    0.6727    0.6292 H   0  0  0  0  0  0  0  0  0  0  0  0
    1.1058   -0.5948    0.2833 H   0  0  0  0  0  0  0  0  0  0  0  0
    2.3632    1.0764   -1.1825 H   0  0  0  0  0  0  0  0  0  0  0  0
    1.3469    2.3501   -0.5006 H   0  0  0  0  0  0  0  0  0  0  0  0
    0.9160   -0.9683   -2.4738 H   0  0  0  0  0  0  0  0  0  0  0  0
   -1.0719    2.6541   -1.5542 H   0  0  0  0  0  0  0  0  0  0  0  0
   -1.2305   -1.0012   -3.8912 H   0  0  0  0  0  0  0  0  0  0  0  0
   -2.4747    1.2473   -3.2898 H   0  0  0  0  0  0  0  0  0  0  0  0
    3.2600    1.6634    1.4988 N   0  0  0  0  0  0  0  0  0  0  0  0
    4.4890    1.7331    2.3059 C   0  0  2  0  0  0  0  0  0  0  0  0
    4.1818    1.8966    3.8136 C   0  0  0  0  0  0  0  0  0  0  0  0
    4.4405    2.9365    4.4059 O   0  0  0  0  0  0  0  0  0  0  0  0
    5.3420    2.8781    1.7447 C   0  0  0  0  0  0  0  0  0  0  0  0
    2.7556    2.5374    1.3749 H   0  0  0  0  0  0  0  0  0  0  0  0
    5.0637    0.8073    2.1950 H   0  0  0  0  0  0  0  0  0  0  0  0
    4.8157    3.8336    1.8377 H   0  0  0  0  0  0  0  0  0  0  0  0
    6.2860    2.9510    2.2947 H   0  0  0  0  0  0  0  0  0  0  0  0
    5.5705    2.7039    0.6891 H   0  0  0  0  0  0  0  0  0  0  0  0
    3.5731    0.8596    4.4914 N   0  0  0  0  0  0  0  0  0  0  0  0
    3.0725    0.9843    5.8537 C   0  0  0  0  0  0  0  0  0  0  0  0
    3.2356    0.0896    3.9114 H   0  0  0  0  0  0  0  0  0  0  0  0
    3.8803    1.2736    6.5345 H   0  0  0  0  0  0  0  0  0  0  0  0
    2.2818    1.7405    5.9021 H   0  0  0  0  0  0  0  0  0  0  0  0
    2.6615    0.0291    6.1943 H   0  0  0  0  0  0  0  0  0  0  0  0
  1  2  2  0  0  0  0
  1  3  1  0  0  0  0
  1  7  1  0  0  0  0
  3  4  1  0  0  0  0
  3  5  1  0  0  0  0
  3  6  1  0  0  0  0
  7  8  1  0  0  0  0
  7 12  1  0  0  0  0
  8  9  1  0  0  0  0
  8 11  1  0  0  0  0
  8 13  1  0  0  0  0
  9 10  2  0  0  0  0
  9 17  1  0  0  0  0
 11 14  1  0  0  0  0
 11 15  1  0  0  0  0
 11 16  1  0  0  0  0
 17 18  1  0  0  0  0
 17 27  1  0  0  0  0
 18 19  1  0  0  0  0
 18 21  1  0  0  0  0
 18 28  1  0  0  0  0
 19 20  2  0  0  0  0
 19 35  1  0  0  0  0
 21 22  1  0  0  0  0
 21 29  1  0  0  0  0
 21 30  1  0  0  0  0
 22 23  1  0  0  0  0
 22 24  2  0  0  0  0
 23 25  2  0  0  0  0
 23 31  1  0  0  0  0
 24 26  1  0  0  0  0
 24 32  1  0  0  0  0
 25 26  1  0  0  0  0
 25 33  1  0  0  0  0
 26 34  1  0  0  0  0
 35 36  1  0  0  0  0
 35 40  1  0  0  0  0
 36 37  1  0  0  0  0
 36 39  1  0  0  0  0
 36 41  1  0  0  0  0
 37 38  2  0  0  0  0
 37 45  1  0  0  0  0
 39 42  1  0  0  0  0
 39 43  1  0  0  0  0
 39 44  1  0  0  0  0
 45 46  1  0  0  0  0
 45 47  1  0  0  0  0
 46 48  1  0  0  0  0
 46 49  1  0  0  0  0
 46 50  1  0  0  0  0
M  CHG  1  23   1
M  END
$$$$

  -OEChem-05262216443D

 50 50  0     1  0  0  0  0  0999 V2000
   -1.8357   -0.4187    2.4791 C   0  0  0  0  0  0  0  0  0  0  0  0
   -2.4092   -0.3269    1.3985 O   0  0  0  0  0  0  0  0  0  0  0  0
   -1.3959   -1.7703    3.0066 C   0  0  0  0  0  0  0  0  0  0  0  0
   -0.3578   -1.7207    3.3458 H   0  0  0  0  0  0  0  0  0  0  0  0
   -2.0299   -2.0651    3.8460 H   0  0  0  0  0  0  0  0  0  0  0  0
   -1.4712   -2.5262    2.2208 H   0  0  0  0  0  0  0  0  0  0  0  0
   -1.5206    0.7292    3.1748 N   0  0  0  0  0  0  0  0  0  0  0  0
   -1.7653    2.0761    2.6500 C   0  0  2  0  0  0  0  0  0  0  0  0
   -0.6942    2.4378    1.6003 C   0  0  0  0  0  0  0  0  0  0  0  0
    0.2359    3.2039    1.8283 O   0  0  0  0  0  0  0  0  0  0  0  0
   -1.7738    3.0380    3.8430 C   0  0  0  0  0  0  0  0  0  0  0  0
   -0.7643    0.6364    3.8623 H   0  0  0  0  0  0  0  0  0  0  0  0
   -2.7484    2.1248    2.1702 H   0  0  0  0  0  0  0  0  0  0  0  0
   -0.8131    3.0096    4.3683 H   0  0  0  0  0  0  0  0  0  0  0  0
   -1.9531    4.0635    3.5057 H   0  0  0  0  0  0  0  0  0  0  0  0
   -2.5635    2.7617    4.5484 H   0  0  0  0  0  0  0  0  0  0  0  0
   -0.6727    1.8586    0.3439 N   0  0  0  0  0  0  0  0  0  0  0  0
    0.3598    0.8458    0.0293 C   0  0  2  0  0  0  0  0  0  0  0  0
    1.3514    0.4903    1.1633 C   0  0  0  0  0  0  0  0  0  0  0  0
    1.3992   -0.6893    1.4884 O   0  0  0  0  0  0  0  0  0  0  0  0
    1.1350    1.3049   -1.2138 C   0  0  0  0  0  0  0  0  0  0  0  0
    0.2214    1.3586   -2.4132 C   0  0  0  0  0  0  0  0  0  0  0  0
   -0.2596    0.2650   -3.1350 N   0  3  0  0  0  0  0  0  0  0  0  0
   -0.2806    2.4942   -2.9963 C   0  0  0  0  0  0  0  0  0  0  0  0
   -1.0352    0.6724   -4.1107 C   0  0  0  0  0  0  0  0  0  0  0  0
   -1.0683    2.0650   -4.0583 N   0  0  0  0  0  0  0  0  0  0  0  0
   -1.6007    1.4732    0.1595 H   0  0  0  0  0  0  0  0  0  0  0  0
   -0.1623   -0.0876   -0.2091 H   0  0  0  0  0  0  0  0  0  0  0  0
    1.9659    0.6192   -1.4148 H   0  0  0  0  0  0  0  0  0  0  0  0
    1.5654    2.2949   -1.0243 H   0  0  0  0  0  0  0  0  0  0  0  0
   -0.0426   -0.7052   -2.8893 H   0  0  0  0  0  0  0  0  0  0  0  0
   -0.1022    3.5195   -2.6691 H   0  0  0  0  0  0  0  0  0  0  0  0
   -1.5618    0.0386   -4.8271 H   0  0  0  0  0  0  0  0  0  0  0  0
   -1.5976    2.6750   -4.6890 H   0  0  0  0  0  0  0  0  0  0  0  0
    2.3790    1.3241    1.5587 N   0  0  0  0  0  0  0  0  0  0  0  0
    3.1972    0.9647    2.7315 C   0  0  2  0  0  0  0  0  0  0  0  0
    2.3957    0.6799    4.0347 C   0  0  0  0  0  0  0  0  0  0  0  0
    1.2156    0.9990    4.1617 O   0  0  0  0  0  0  0  0  0  0  0  0
    4.1711    2.1226    2.9678 C   0  0  0  0  0  0  0  0  0  0  0  0
    2.1073    2.3088    1.4991 H   0  0  0  0  0  0  0  0  0  0  0  0
    3.7694    0.0615    2.4945 H   0  0  0  0  0  0  0  0  0  0  0  0
    3.6238    3.0375    3.2194 H   0  0  0  0  0  0  0  0  0  0  0  0
    4.8535    1.8905    3.7912 H   0  0  0  0  0  0  0  0  0  0  0  0
    4.7679    2.3089    2.0695 H   0  0  0  0  0  0  0  0  0  0  0  0
    3.0074    0.0206    5.0851 N   0  0  0  0  0  0  0  0  0  0  0  0
    2.3252   -0.3203    6.3289 C   0  0  0  0  0  0  0  0  0  0  0  0
    3.9712   -0.2750    4.9596 H   0  0  0  0  0  0  0  0  0  0  0  0
    2.0050    0.5874    6.8512 H   0  0  0  0  0  0  0  0  0  0  0  0
    1.4452   -0.9405    6.1277 H   0  0  0  0  0  0  0  0  0  0  0  0
    2.9959   -0.8796    6.9884 H   0  0  0  0  0  0  0  0  0  0  0  0
  1  2  2  0  0  0  0
  1  3  1  0  0  0  0
  1  7  1  0  0  0  0
  3  4  1  0  0  0  0
  3  5  1  0  0  0  0
  3  6  1  0  0  0  0
  7  8  1  0  0  0  0
  7 12  1  0  0  0  0
  8  9  1  0  0  0  0
  8 11  1  0  0  0  0
  8 13  1  0  0  0  0
  9 10  2  0  0  0  0
  9 17  1  0  0  0  0
 11 14  1  0  0  0  0
 11 15  1  0  0  0  0
 11 16  1  0  0  0  0
 17 18  1  0  0  0  0
 17 27  1  0  0  0  0
 18 19  1  0  0  0  0
 18 21  1  0  0  0  0
 18 28  1  0  0  0  0
 19 20  2  0  0  0  0
 19 35  1  0  0  0  0
 21 22  1  0  0  0  0
 21 29  1  0  0  0  0
 21 30  1  0  0  0  0
 22 23  1  0  0  0  0
 22 24  2  0  0  0  0
 23 25  2  0  0  0  0
 23 31  1  0  0  0  0
 24 26  1  0  0  0  0
 24 32  1  0  0  0  0
 25 26  1  0  0  0  0
 25 33  1  0  0  0  0
 26 34  1  0  0  0  0
 35 36  1  0  0  0  0
 35 40  1  0  0  0  0
 36 37  1  0  0  0  0
 36 39  1  0  0  0  0
 36 41  1  0  0  0  0
 37 38  2  0  0  0  0
 37 45  1  0  0  0  0
 39 42  1  0  0  0  0
 39 43  1  0  0  0  0
 39 44  1  0  0  0  0
 45 46  1  0  0  0  0
 45 47  1  0  0  0  0
 46 48  1  0  0  0  0
 46 49  1  0  0  0  0
 46 50  1  0  0  0  0
M  CHG  1  23   1
M  END
$$$$

  -OEChem-05262216443D

 50 50  0     1  0  0  0  0  0999 V2000
   -1.9308   -0.4256    2.4489 C   0  0  0  0  0  0  0  0  0  0  0  0
   -2.4893   -0.2896    1.3653 O   0  0  0  0  0  0  0  0  0  0  0  0
   -1.4757   -1.7942    2.9154 C   0  0  0  0  0  0  0  0  0  0  0  0
   -0.3913   -1.7991    3.0546 H   0  0  0  0  0  0  0  0  0  0  0  0
   -1.9566   -2.0422    3.8646 H   0  0  0  0  0  0  0  0  0  0  0  0
   -1.7394   -2.5548    2.1761 H   0  0  0  0  0  0  0  0  0  0  0  0
   -1.6044    0.6918    3.1868 N   0  0  0  0  0  0  0  0  0  0  0  0
   -1.7913    2.0627    2.7005 C   0  0  2  0  0  0  0  0  0  0  0  0
   -0.7001    2.4135    1.6662 C   0  0  0  0  0  0  0  0  0  0  0  0
    0.2126    3.1992    1.8942 O   0  0  0  0  0  0  0  0  0  0  0  0
   -1.7709    2.9888    3.9215 C   0  0  0  0  0  0  0  0  0  0  0  0
   -0.8661    0.5529    3.8867 H   0  0  0  0  0  0  0  0  0  0  0  0
   -2.7685    2.1623    2.2163 H   0  0  0  0  0  0  0  0  0  0  0  0
   -0.8169    2.9057    4.4527 H   0  0  0  0  0  0  0  0  0  0  0  0
   -1.9061    4.0301    3.6131 H   0  0  0  0  0  0  0  0  0  0  0  0
   -2.5769    2.7248    4.6128 H   0  0  0  0  0  0  0  0  0  0  0  0
   -0.6849    1.8206    0.4170 N   0  0  0  0  0  0  0  0  0  0  0  0
    0.3409    0.8116    0.0669 C   0  0  2  0  0  0  0  0  0  0  0  0
    1.3911    0.4249    1.1369 C   0  0  0  0  0  0  0  0  0  0  0  0
    1.5793   -0.7713    1.3155 O   0  0  0  0  0  0  0  0  0  0  0  0
    1.0772    1.2909   -1.1918 C   0  0  0  0  0  0  0  0  0  0  0  0
    0.1350    1.3584   -2.3678 C   0  0  0  0  0  0  0  0  0  0  0  0
   -0.3607    0.2752   -3.0950 N   0  3  0  0  0  0  0  0  0  0  0  0
   -0.3740    2.5024   -2.9276 C   0  0  0  0  0  0  0  0  0  0  0  0
   -1.1513    0.6968   -4.0524 C   0  0  0  0  0  0  0  0  0  0  0  0
   -1.1804    2.0886   -3.9813 N   0  0  0  0  0  0  0  0  0  0  0  0
   -1.6155    1.4331    0.2459 H   0  0  0  0  0  0  0  0  0  0  0  0
   -0.1895   -0.1179   -0.1674 H   0  0  0  0  0  0  0  0  0  0  0  0
    1.9039    0.6105   -1.4265 H   0  0  0  0  0  0  0  0  0  0  0  0
    1.5113    2.2786   -0.9993 H   0  0  0  0  0  0  0  0  0  0  0  0
   -0.1389   -0.6984   -2.8670 H   0  0  0  0  0  0  0  0  0  0  0  0
   -0.1838    3.5230   -2.5927 H   0  0  0  0  0  0  0  0  0  0  0  0
   -1.6897    0.0733   -4.7690 H   0  0  0  0  0  0  0  0  0  0  0  0
   -1.7156    2.7080   -4.5975 H   0  0  0  0  0  0  0  0  0  0  0  0
    2.2639    1.3275    1.7121 N   0  0  0  0  0  0  0  0  0  0  0  0
    3.0801    0.9334    2.8725 C   0  0  2  0  0  0  0  0  0  0  0  0
    2.2607    0.4677    4.1070 C   0  0  0  0  0  0  0  0  0  0  0  0
    1.0610    0.7095    4.2180 O   0  0  0  0  0  0  0  0  0  0  0  0
    3.9415    2.1420    3.2473 C   0  0  0  0  0  0  0  0  0  0  0  0
    1.8928    2.2824    1.7275 H   0  0  0  0  0  0  0  0  0  0  0  0
    3.7366    0.1076    2.5787 H   0  0  0  0  0  0  0  0  0  0  0  0
    3.3083    2.9819    3.5532 H   0  0  0  0  0  0  0  0  0  0  0  0
    4.6129    1.8947    4.0755 H   0  0  0  0  0  0  0  0  0  0  0  0
    4.5503    2.4566    2.3939 H   0  0  0  0  0  0  0  0  0  0  0  0
    2.8787   -0.2528    5.1121 N   0  0  0  0  0  0  0  0  0  0  0  0
    2.1789   -0.7579    6.2886 C   0  0  0  0  0  0  0  0  0  0  0  0
    3.8598   -0.4875    4.9894 H   0  0  0  0  0  0  0  0  0  0  0  0
    1.7291    0.0667    6.8521 H   0  0  0  0  0  0  0  0  0  0  0  0
    1.3888   -1.4570    5.9944 H   0  0  0  0  0  0  0  0  0  0  0  0
    2.8767   -1.2837    6.9475 H   0  0  0  0  0  0  0  0  0  0  0  0
  1  2  2  0  0  0  0
  1  3  1  0  0  0  0
  1  7  1  0  0  0  0
  3  4  1  0  0  0  0
  3  5  1  0  0  0  0
  3  6  1  0  0  0  0
  7  8  1  0  0  0  0
  7 12  1  0  0  0  0
  8  9  1  0  0  0  0
  8 11  1  0  0  0  0
  8 13  1  0  0  0  0
  9 10  2  0  0  0  0
  9 17  1  0  0  0  0
 11 14  1  0  0  0  0
 11 15  1  0  0  0  0
 11 16  1  0  0  0  0
 17 18  1  0  0  0  0
 17 27  1  0  0  0  0
 18 19  1  0  0  0  0
 18 21  1  0  0  0  0
 18 28  1  0  0  0  0
 19 20  2  0  0  0  0
 19 35  1  0  0  0  0
 21 22  1  0  0  0  0
 21 29  1  0  0  0  0
 21 30  1  0  0  0  0
 22 23  1  0  0  0  0
 22 24  2  0  0  0  0
 23 25  2  0  0  0  0
 23 31  1  0  0  0  0
 24 26  1  0  0  0  0
 24 32  1  0  0  0  0
 25 26  1  0  0  0  0
 25 33  1  0  0  0  0
 26 34  1  0  0  0  0
 35 36  1  0  0  0  0
 35 40  1  0  0  0  0
 36 37  1  0  0  0  0
 36 39  1  0  0  0  0
 36 41  1  0  0  0  0
 37 38  2  0  0  0  0
 37 45  1  0  0  0  0
 39 42  1  0  0  0  0
 39 43  1  0  0  0  0
 39 44  1  0  0  0  0
 45 46  1  0  0  0  0
 45 47  1  0  0  0  0
 46 48  1  0  0  0  0
 46 49  1  0  0  0  0
 46 50  1  0  0  0  0
M  CHG  1  23   1
M  END
$$$$

  -OEChem-05262216443D

 50 50  0     1  0  0  0  0  0999 V2000
   -2.0646   -0.4083    2.3220 C   0  0  0  0  0  0  0  0  0  0  0  0
   -2.5805   -0.1965    1.2296 O   0  0  0  0  0  0  0  0  0  0  0  0
   -1.6714   -1.8154    2.7258 C   0  0  0  0  0  0  0  0  0  0  0  0
   -0.5833   -1.8890    2.8053 H   0  0  0  0  0  0  0  0  0  0  0  0
   -2.1142   -2.0619    3.6939 H   0  0  0  0  0  0  0  0  0  0  0  0
   -2.0227   -2.5365    1.9830 H   0  0  0  0  0  0  0  0  0  0  0  0
   -1.7001    0.6560    3.1180 N   0  0  0  0  0  0  0  0  0  0  0  0
   -1.8003    2.0587    2.6989 C   0  0  2  0  0  0  0  0  0  0  0  0
   -0.6786    2.4035    1.6942 C   0  0  0  0  0  0  0  0  0  0  0  0
    0.2036    3.2200    1.9304 O   0  0  0  0  0  0  0  0  0  0  0  0
   -1.7465    2.9179    3.9674 C   0  0  0  0  0  0  0  0  0  0  0  0
   -0.9953    0.4420    3.8337 H   0  0  0  0  0  0  0  0  0  0  0  0
   -2.7634    2.2363    2.2092 H   0  0  0  0  0  0  0  0  0  0  0  0
   -0.7993    2.7667    4.4964 H   0  0  0  0  0  0  0  0  0  0  0  0
   -1.8363    3.9789    3.7141 H   0  0  0  0  0  0  0  0  0  0  0  0
   -2.5672    2.6529    4.6411 H   0  0  0  0  0  0  0  0  0  0  0  0
   -0.6356    1.7859    0.4584 N   0  0  0  0  0  0  0  0  0  0  0  0
    0.4137    0.8042    0.0957 C   0  0  2  0  0  0  0  0  0  0  0  0
    1.5153    0.4240    1.1166 C   0  0  0  0  0  0  0  0  0  0  0  0
    1.8483   -0.7530    1.1511 O   0  0  0  0  0  0  0  0  0  0  0  0
    1.1040    1.3091   -1.1792 C   0  0  0  0  0  0  0  0  0  0  0  0
    0.1308    1.3425   -2.3309 C   0  0  0  0  0  0  0  0  0  0  0  0
   -0.3432    0.2412   -3.0447 N   0  3  0  0  0  0  0  0  0  0  0  0
   -0.4398    2.4659   -2.8721 C   0  0  0  0  0  0  0  0  0  0  0  0
   -1.1789    0.6321   -3.9764 C   0  0  0  0  0  0  0  0  0  0  0  0
   -1.2614    2.0216   -3.9012 N   0  0  0  0  0  0  0  0  0  0  0  0
   -1.5585    1.3772    0.2862 H   0  0  0  0  0  0  0  0  0  0  0  0
   -0.0999   -0.1369   -0.1293 H   0  0  0  0  0  0  0  0  0  0  0  0
    1.9475    0.6581   -1.4365 H   0  0  0  0  0  0  0  0  0  0  0  0
    1.5085    2.3112   -0.9950 H   0  0  0  0  0  0  0  0  0  0  0  0
   -0.0752   -0.7228   -2.8262 H   0  0  0  0  0  0  0  0  0  0  0  0
   -0.2812    3.4925   -2.5394 H   0  0  0  0  0  0  0  0  0  0  0  0
   -1.7137   -0.0117   -4.6775 H   0  0  0  0  0  0  0  0  0  0  0  0
   -1.8402    2.6199   -4.4986 H   0  0  0  0  0  0  0  0  0  0  0  0
    2.2078    1.3294    1.8954 N   0  0  0  0  0  0  0  0  0  0  0  0
    2.9776    0.8874    3.0679 C   0  0  2  0  0  0  0  0  0  0  0  0
    2.1154    0.2146    4.1675 C   0  0  0  0  0  0  0  0  0  0  0  0
    0.8992    0.3830    4.2244 O   0  0  0  0  0  0  0  0  0  0  0  0
    3.6812    2.1211    3.6386 C   0  0  0  0  0  0  0  0  0  0  0  0
    1.7687    2.2526    1.9558 H   0  0  0  0  0  0  0  0  0  0  0  0
    3.7355    0.1654    2.7456 H   0  0  0  0  0  0  0  0  0  0  0  0
    2.9461    2.8603    3.9746 H   0  0  0  0  0  0  0  0  0  0  0  0
    4.3097    1.8453    4.4910 H   0  0  0  0  0  0  0  0  0  0  0  0
    4.3173    2.5835    2.8773 H   0  0  0  0  0  0  0  0  0  0  0  0
    2.7116   -0.6001    5.1114 N   0  0  0  0  0  0  0  0  0  0  0  0
    1.9695   -1.3022    6.1528 C   0  0  0  0  0  0  0  0  0  0  0  0
    3.7106   -0.7655    5.0271 H   0  0  0  0  0  0  0  0  0  0  0  0
    1.4297   -0.5905    6.7864 H   0  0  0  0  0  0  0  0  0  0  0  0
    1.2484   -1.9966    5.7084 H   0  0  0  0  0  0  0  0  0  0  0  0
    2.6545   -1.8748    6.7859 H   0  0  0  0  0  0  0  0  0  0  0  0
  1  2  2  0  0  0  0
  1  3  1  0  0  0  0
  1  7  1  0  0  0  0
  3  4  1  0  0  0  0
  3  5  1  0  0  0  0
  3  6  1  0  0  0  0
  7  8  1  0  0  0  0
  7 12  1  0  0  0  0
  8  9  1  0  0  0  0
  8 11  1  0  0  0  0
  8 13  1  0  0  0  0
  9 10  2  0  0  0  0
  9 17  1  0  0  0  0
 11 14  1  0  0  0  0
 11 15  1  0  0  0  0
 11 16  1  0  0  0  0
 17 18  1  0  0  0  0
 17 27  1  0  0  0  0
 18 19  1  0  0  0  0
 18 21  1  0  0  0  0
 18 28  1  0  0  0  0
 19 20  2  0  0  0  0
 19 35  1  0  0  0  0
 21 22  1  0  0  0  0
 21 29  1  0  0  0  0
 21 30  1  0  0  0  0
 22 23  1  0  0  0  0
 22 24  2  0  0  0  0
 23 25  2  0  0  0  0
 23 31  1  0  0  0  0
 24 26  1  0  0  0  0
 24 32  1  0  0  0  0
 25 26  1  0  0  0  0
 25 33  1  0  0  0  0
 26 34  1  0  0  0  0
 35 36  1  0  0  0  0
 35 40  1  0  0  0  0
 36 37  1  0  0  0  0
 36 39  1  0  0  0  0
 36 41  1  0  0  0  0
 37 38  2  0  0  0  0
 37 45  1  0  0  0  0
 39 42  1  0  0  0  0
 39 43  1  0  0  0  0
 39 44  1  0  0  0  0
 45 46  1  0  0  0  0
 45 47  1  0  0  0  0
 46 48  1  0  0  0  0
 46 49  1  0  0  0  0
 46 50  1  0  0  0  0
M  CHG  1  23   1
M  END
$$$$

  -OEChem-05262216443D

 50 50  0     1  0  0  0  0  0999 V2000
   -2.1613   -0.4704    2.2193 C   0  0  0  0  0  0  0  0  0  0  0  0
   -2.6209   -0.2080    1.1131 O   0  0  0  0  0  0  0  0  0  0  0  0
   -1.8682   -1.9055    2.6085 C   0  0  0  0  0  0  0  0  0  0  0  0
   -0.7937   -2.0378    2.7608 H   0  0  0  0  0  0  0  0  0  0  0  0
   -2.3913   -2.1520    3.5358 H   0  0  0  0  0  0  0  0  0  0  0  0
   -2.2020   -2.5886    1.8232 H   0  0  0  0  0  0  0  0  0  0  0  0
   -1.7791    0.5550    3.0568 N   0  0  0  0  0  0  0  0  0  0  0  0
   -1.8333    1.9759    2.6908 C   0  0  2  0  0  0  0  0  0  0  0  0
   -0.6785    2.3404    1.7305 C   0  0  0  0  0  0  0  0  0  0  0  0
    0.1629    3.1901    1.9936 O   0  0  0  0  0  0  0  0  0  0  0  0
   -1.7987    2.7811    3.9950 C   0  0  0  0  0  0  0  0  0  0  0  0
   -1.1030    0.2916    3.7832 H   0  0  0  0  0  0  0  0  0  0  0  0
   -2.7783    2.1949    2.1823 H   0  0  0  0  0  0  0  0  0  0  0  0
   -0.8674    2.5924    4.5397 H   0  0  0  0  0  0  0  0  0  0  0  0
   -1.8662    3.8532    3.7842 H   0  0  0  0  0  0  0  0  0  0  0  0
   -2.6400    2.5024    4.6373 H   0  0  0  0  0  0  0  0  0  0  0  0
   -0.5878    1.7189    0.4999 N   0  0  0  0  0  0  0  0  0  0  0  0
    0.5230    0.8201    0.1032 C   0  0  2  0  0  0  0  0  0  0  0  0
    1.6959    0.4928    1.0643 C   0  0  0  0  0  0  0  0  0  0  0  0
    2.2124   -0.6092    0.9340 O   0  0  0  0  0  0  0  0  0  0  0  0
    1.1289    1.3968   -1.1856 C   0  0  0  0  0  0  0  0  0  0  0  0
    0.1208    1.3666   -2.3069 C   0  0  0  0  0  0  0  0  0  0  0  0
   -0.2840    0.2395   -3.0230 N   0  3  0  0  0  0  0  0  0  0  0  0
   -0.5553    2.4467   -2.8133 C   0  0  0  0  0  0  0  0  0  0  0  0
   -1.1792    0.5726   -3.9212 C   0  0  0  0  0  0  0  0  0  0  0  0
   -1.3708    1.9498   -3.8229 N   0  0  0  0  0  0  0  0  0  0  0  0
   -1.4871    1.2636    0.3159 H   0  0  0  0  0  0  0  0  0  0  0  0
    0.0706   -0.1527   -0.1181 H   0  0  0  0  0  0  0  0  0  0  0  0
    2.0142    0.8214   -1.4811 H   0  0  0  0  0  0  0  0  0  0  0  0
    1.4564    2.4259   -0.9974 H   0  0  0  0  0  0  0  0  0  0  0  0
    0.0693   -0.7017   -2.8275 H   0  0  0  0  0  0  0  0  0  0  0  0
   -0.4702    3.4785   -2.4699 H   0  0  0  0  0  0  0  0  0  0  0  0
   -1.6832   -0.1037   -4.6143 H   0  0  0  0  0  0  0  0  0  0  0  0
   -2.0157    2.5061   -4.3923 H   0  0  0  0  0  0  0  0  0  0  0  0
    2.1860    1.3319    2.0440 N   0  0  0  0  0  0  0  0  0  0  0  0
    2.9135    0.8097    3.2086 C   0  0  2  0  0  0  0  0  0  0  0  0
    2.0255   -0.0408    4.1513 C   0  0  0  0  0  0  0  0  0  0  0  0
    0.8001    0.0610    4.1413 O   0  0  0  0  0  0  0  0  0  0  0  0
    3.4844    2.0124    3.9637 C   0  0  0  0  0  0  0  0  0  0  0  0
    1.6533    2.1945    2.1799 H   0  0  0  0  0  0  0  0  0  0  0  0
    3.7434    0.1825    2.8661 H   0  0  0  0  0  0  0  0  0  0  0  0
    2.6758    2.6577    4.3239 H   0  0  0  0  0  0  0  0  0  0  0  0
    4.0744    1.6820    4.8244 H   0  0  0  0  0  0  0  0  0  0  0  0
    4.1332    2.6009    3.3071 H   0  0  0  0  0  0  0  0  0  0  0  0
    2.6069   -0.9339    5.0313 N   0  0  0  0  0  0  0  0  0  0  0  0
    1.8438   -1.7886    5.9340 C   0  0  0  0  0  0  0  0  0  0  0  0
    3.6177   -1.0362    4.9993 H   0  0  0  0  0  0  0  0  0  0  0  0
    1.2413   -1.1828    6.6191 H   0  0  0  0  0  0  0  0  0  0  0  0
    1.1780   -2.4482    5.3674 H   0  0  0  0  0  0  0  0  0  0  0  0
    2.5202   -2.4101    6.5290 H   0  0  0  0  0  0  0  0  0  0  0  0
  1  2  2  0  0  0  0
  1  3  1  0  0  0  0
  1  7  1  0  0  0  0
  3  4  1  0  0  0  0
  3  5  1  0  0  0  0
  3  6  1  0  0  0  0
  7  8  1  0  0  0  0
  7 12  1  0  0  0  0
  8  9  1  0  0  0  0
  8 11  1  0  0  0  0
  8 13  1  0  0  0  0
  9 10  2  0  0  0  0
  9 17  1  0  0  0  0
 11 14  1  0  0  0  0
 11 15  1  0  0  0  0
 11 16  1  0  0  0  0
 17 18  1  0  0  0  0
 17 27  1  0  0  0  0
 18 19  1  0  0  0  0
 18 21  1  0  0  0  0
 18 28  1  0  0  0  0
 19 20  2  0  0  0  0
 19 35  1  0  0  0  0
 21 22  1  0  0  0  0
 21 29  1  0  0  0  0
 21 30  1  0  0  0  0
 22 23  1  0  0  0  0
 22 24  2  0  0  0  0
 23 25  2  0  0  0  0
 23 31  1  0  0  0  0
 24 26  1  0  0  0  0
 24 32  1  0  0  0  0
 25 26  1  0  0  0  0
 25 33  1  0  0  0  0
 26 34  1  0  0  0  0
 35 36  1  0  0  0  0
 35 40  1  0  0  0  0
 36 37  1  0  0  0  0
 36 39  1  0  0  0  0
 36 41  1  0  0  0  0
 37 38  2  0  0  0  0
 37 45  1  0  0  0  0
 39 42  1  0  0  0  0
 39 43  1  0  0  0  0
 39 44  1  0  0  0  0
 45 46  1  0  0  0  0
 45 47  1  0  0  0  0
 46 48  1  0  0  0  0
 46 49  1  0  0  0  0
 46 50  1  0  0  0  0
M  CHG  1  23   1
M  END
$$$$

  -OEChem-05262216443D

 50 50  0     1  0  0  0  0  0999 V2000
   -1.8356    0.5344    4.5257 C   0  0  0  0  0  0  0  0  0  0  0  0
   -0.6424    0.4042    4.3108 O   0  0  0  0  0  0  0  0  0  0  0  0
   -2.4664   -0.0965    5.7515 C   0  0  0  0  0  0  0  0  0  0  0  0
   -3.2202   -0.8272    5.4480 H   0  0  0  0  0  0  0  0  0  0  0  0
   -1.7038   -0.6069    6.3469 H   0  0  0  0  0  0  0  0  0  0  0  0
   -2.9390    0.6713    6.3687 H   0  0  0  0  0  0  0  0  0  0  0  0
   -2.6099    1.2427    3.6284 N   0  0  0  0  0  0  0  0  0  0  0  0
   -2.1320    1.6710    2.3009 C   0  0  2  0  0  0  0  0  0  0  0  0
   -1.6161    0.4873    1.4350 C   0  0  0  0  0  0  0  0  0  0  0  0
   -2.2514   -0.5533    1.4546 O   0  0  0  0  0  0  0  0  0  0  0  0
   -1.1537    2.8470    2.4511 C   0  0  0  0  0  0  0  0  0  0  0  0
   -3.6140    1.1679    3.7688 H   0  0  0  0  0  0  0  0  0  0  0  0
   -2.9981    2.0605    1.7577 H   0  0  0  0  0  0  0  0  0  0  0  0
   -0.2447    2.5557    2.9810 H   0  0  0  0  0  0  0  0  0  0  0  0
   -0.8749    3.2424    1.4724 H   0  0  0  0  0  0  0  0  0  0  0  0
   -1.6281    3.6530    3.0196 H   0  0  0  0  0  0  0  0  0  0  0  0
   -1.0873    0.6648    0.1788 N   0  0  0  0  0  0  0  0  0  0  0  0
    0.3532    0.7280   -0.1579 C   0  0  2  0  0  0  0  0  0  0  0  0
    1.5073    0.5981    0.8763 C   0  0  0  0  0  0  0  0  0  0  0  0
    2.6211    0.5217    0.3708 O   0  0  0  0  0  0  0  0  0  0  0  0
    0.5752    1.9837   -1.0316 C   0  0  0  0  0  0  0  0  0  0  0  0
   -0.1619    1.8647   -2.3425 C   0  0  0  0  0  0  0  0  0  0  0  0
    0.2328    1.0612   -3.4132 N   0  3  0  0  0  0  0  0  0  0  0  0
   -1.2980    2.5337   -2.7217 C   0  0  0  0  0  0  0  0  0  0  0  0
   -0.6044    1.1942   -4.4132 C   0  0  0  0  0  0  0  0  0  0  0  0
   -1.5786    2.1087   -4.0160 N   0  0  0  0  0  0  0  0  0  0  0  0
   -1.5637   -0.0201   -0.4064 H   0  0  0  0  0  0  0  0  0  0  0  0
    0.5245   -0.1518   -0.7874 H   0  0  0  0  0  0  0  0  0  0  0  0
    1.6400    2.1291   -1.2466 H   0  0  0  0  0  0  0  0  0  0  0  0
    0.2395    2.8706   -0.4874 H   0  0  0  0  0  0  0  0  0  0  0  0
    1.0689    0.4689   -3.3861 H   0  0  0  0  0  0  0  0  0  0  0  0
   -1.8588    3.2498   -2.1209 H   0  0  0  0  0  0  0  0  0  0  0  0
   -0.5464    0.6853   -5.3777 H   0  0  0  0  0  0  0  0  0  0  0  0
   -2.3699    2.4232   -4.5863 H   0  0  0  0  0  0  0  0  0  0  0  0
    1.4263    0.6901    2.2569 N   0  0  0  0  0  0  0  0  0  0  0  0
    2.5775    0.3150    3.1053 C   0  0  2  0  0  0  0  0  0  0  0  0
    2.6075   -1.2027    3.4101 C   0  0  0  0  0  0  0  0  0  0  0  0
    1.7737   -1.9579    2.9231 O   0  0  0  0  0  0  0  0  0  0  0  0
    2.5432    1.1473    4.3922 C   0  0  0  0  0  0  0  0  0  0  0  0
    0.5112    0.5065    2.6776 H   0  0  0  0  0  0  0  0  0  0  0  0
    3.5166    0.5576    2.5977 H   0  0  0  0  0  0  0  0  0  0  0  0
    1.7267    0.8281    5.0443 H   0  0  0  0  0  0  0  0  0  0  0  0
    3.4809    1.0356    4.9444 H   0  0  0  0  0  0  0  0  0  0  0  0
    2.4086    2.2070    4.1560 H   0  0  0  0  0  0  0  0  0  0  0  0
    3.6191   -1.7429    4.1840 N   0  0  0  0  0  0  0  0  0  0  0  0
    3.7324   -3.1691    4.4688 C   0  0  0  0  0  0  0  0  0  0  0  0
    4.3221   -1.1102    4.5528 H   0  0  0  0  0  0  0  0  0  0  0  0
    2.8335   -3.5310    4.9791 H   0  0  0  0  0  0  0  0  0  0  0  0
    3.8619   -3.7362    3.5409 H   0  0  0  0  0  0  0  0  0  0  0  0
    4.5953   -3.3605    5.1137 H   0  0  0  0  0  0  0  0  0  0  0  0
  1  2  2  0  0  0  0
  1  3  1  0  0  0  0
  1  7  1  0  0  0  0
  3  4  1  0  0  0  0
  3  5  1  0  0  0  0
  3  6  1  0  0  0  0
  7  8  1  0  0  0  0
  7 12  1  0  0  0  0
  8  9  1  0  0  0  0
  8 11  1  0  0  0  0
  8 13  1  0  0  0  0
  9 10  2  0  0  0  0
  9 17  1  0  0  0  0
 11 14  1  0  0  0  0
 11 15  1  0  0  0  0
 11 16  1  0  0  0  0
 17 18  1  0  0  0  0
 17 27  1  0  0  0  0
 18 19  1  0  0  0  0
 18 21  1  0  0  0  0
 18 28  1  0  0  0  0
 19 20  2  0  0  0  0
 19 35  1  0  0  0  0
 21 22  1  0  0  0  0
 21 29  1  0  0  0  0
 21 30  1  0  0  0  0
 22 23  1  0  0  0  0
 22 24  2  0  0  0  0
 23 25  2  0  0  0  0
 23 31  1  0  0  0  0
 24 26  1  0  0  0  0
 24 32  1  0  0  0  0
 25 26  1  0  0  0  0
 25 33  1  0  0  0  0
 26 34  1  0  0  0  0
 35 36  1  0  0  0  0
 35 40  1  0  0  0  0
 36 37  1  0  0  0  0
 36 39  1  0  0  0  0
 36 41  1  0  0  0  0
 37 38  2  0  0  0  0
 37 45  1  0  0  0  0
 39 42  1  0  0  0  0
 39 43  1  0  0  0  0
 39 44  1  0  0  0  0
 45 46  1  0  0  0  0
 45 47  1  0  0  0  0
 46 48  1  0  0  0  0
 46 49  1  0  0  0  0
 46 50  1  0  0  0  0
M  CHG  1  23   1
M  END
$$$$

  -OEChem-05262216443D

 50 50  0     1  0  0  0  0  0999 V2000
   -2.2534   -0.5100    1.9878 C   0  0  0  0  0  0  0  0  0  0  0  0
   -2.6728   -0.0955    0.9128 O   0  0  0  0  0  0  0  0  0  0  0  0
   -2.0610   -1.9969    2.2104 C   0  0  0  0  0  0  0  0  0  0  0  0
   -2.5483   -2.5663    1.4145 H   0  0  0  0  0  0  0  0  0  0  0  0
   -0.9946   -2.2362    2.2194 H   0  0  0  0  0  0  0  0  0  0  0  0
   -2.4975   -2.2891    3.1687 H   0  0  0  0  0  0  0  0  0  0  0  0
   -1.8146    0.3882    2.9368 N   0  0  0  0  0  0  0  0  0  0  0  0
   -1.7999    1.8467    2.7499 C   0  0  2  0  0  0  0  0  0  0  0  0
   -0.6174    2.2812    1.8532 C   0  0  0  0  0  0  0  0  0  0  0  0
    0.2322    3.0794    2.2232 O   0  0  0  0  0  0  0  0  0  0  0  0
   -1.7550    2.4802    4.1452 C   0  0  0  0  0  0  0  0  0  0  0  0
   -1.1742   -0.0028    3.6373 H   0  0  0  0  0  0  0  0  0  0  0  0
   -2.7266    2.1684    2.2626 H   0  0  0  0  0  0  0  0  0  0  0  0
   -0.8422    2.1859    4.6737 H   0  0  0  0  0  0  0  0  0  0  0  0
   -1.7757    3.5720    4.0695 H   0  0  0  0  0  0  0  0  0  0  0  0
   -2.6183    2.1597    4.7367 H   0  0  0  0  0  0  0  0  0  0  0  0
   -0.4850    1.7176    0.5993 N   0  0  0  0  0  0  0  0  0  0  0  0
    0.6889    0.9534    0.1081 C   0  0  2  0  0  0  0  0  0  0  0  0
    1.9524    0.6792    0.9724 C   0  0  0  0  0  0  0  0  0  0  0  0
    2.7176   -0.1727    0.5395 O   0  0  0  0  0  0  0  0  0  0  0  0
    1.1452    1.6614   -1.1814 C   0  0  0  0  0  0  0  0  0  0  0  0
    0.0771    1.5749   -2.2435 C   0  0  0  0  0  0  0  0  0  0  0  0
   -0.2430    0.4455   -2.9976 N   0  3  0  0  0  0  0  0  0  0  0  0
   -0.7539    2.5904   -2.6420 C   0  0  0  0  0  0  0  0  0  0  0  0
   -1.2288    0.7143   -3.8192 C   0  0  0  0  0  0  0  0  0  0  0  0
   -1.5745    2.0508   -3.6253 N   0  0  0  0  0  0  0  0  0  0  0  0
   -1.3612    1.2384    0.3684 H   0  0  0  0  0  0  0  0  0  0  0  0
    0.3203   -0.0468   -0.1412 H   0  0  0  0  0  0  0  0  0  0  0  0
    2.0671    1.2097   -1.5660 H   0  0  0  0  0  0  0  0  0  0  0  0
    1.3711    2.7091   -0.9512 H   0  0  0  0  0  0  0  0  0  0  0  0
    0.2387   -0.4514   -2.8885 H   0  0  0  0  0  0  0  0  0  0  0  0
   -0.7673    3.6056   -2.2437 H   0  0  0  0  0  0  0  0  0  0  0  0
   -1.6938    0.0203   -4.5220 H   0  0  0  0  0  0  0  0  0  0  0  0
   -2.3215    2.5524   -4.1150 H   0  0  0  0  0  0  0  0  0  0  0  0
    2.1345    1.1044    2.2720 N   0  0  0  0  0  0  0  0  0  0  0  0
    2.8319    0.3147    3.2941 C   0  0  2  0  0  0  0  0  0  0  0  0
    1.9061   -0.7373    3.9492 C   0  0  0  0  0  0  0  0  0  0  0  0
    0.6822   -0.6203    3.9034 O   0  0  0  0  0  0  0  0  0  0  0  0
    3.3571    1.2943    4.3461 C   0  0  0  0  0  0  0  0  0  0  0  0
    1.4687    1.8056    2.6001 H   0  0  0  0  0  0  0  0  0  0  0  0
    3.6852   -0.2085    2.8490 H   0  0  0  0  0  0  0  0  0  0  0  0
    2.5283    1.8323    4.8182 H   0  0  0  0  0  0  0  0  0  0  0  0
    3.9139    0.7623    5.1236 H   0  0  0  0  0  0  0  0  0  0  0  0
    4.0264    2.0259    3.8825 H   0  0  0  0  0  0  0  0  0  0  0  0
    2.4458   -1.8267    4.6062 N   0  0  0  0  0  0  0  0  0  0  0  0
    1.6428   -2.8572    5.2552 C   0  0  0  0  0  0  0  0  0  0  0  0
    3.4585   -1.9166    4.6172 H   0  0  0  0  0  0  0  0  0  0  0  0
    1.0152   -2.4185    6.0384 H   0  0  0  0  0  0  0  0  0  0  0  0
    0.9982   -3.3581    4.5254 H   0  0  0  0  0  0  0  0  0  0  0  0
    2.2915   -3.6095    5.7150 H   0  0  0  0  0  0  0  0  0  0  0  0
  1  2  2  0  0  0  0
  1  3  1  0  0  0  0
  1  7  1  0  0  0  0
  3  4  1  0  0  0  0
  3  5  1  0  0  0  0
  3  6  1  0  0  0  0
  7  8  1  0  0  0  0
  7 12  1  0  0  0  0
  8  9  1  0  0  0  0
  8 11  1  0  0  0  0
  8 13  1  0  0  0  0
  9 10  2  0  0  0  0
  9 17  1  0  0  0  0
 11 14  1  0  0  0  0
 11 15  1  0  0  0  0
 11 16  1  0  0  0  0
 17 18  1  0  0  0  0
 17 27  1  0  0  0  0
 18 19  1  0  0  0  0
 18 21  1  0  0  0  0
 18 28  1  0  0  0  0
 19 20  2  0  0  0  0
 19 35  1  0  0  0  0
 21 22  1  0  0  0  0
 21 29  1  0  0  0  0
 21 30  1  0  0  0  0
 22 23  1  0  0  0  0
 22 24  2  0  0  0  0
 23 25  2  0  0  0  0
 23 31  1  0  0  0  0
 24 26  1  0  0  0  0
 24 32  1  0  0  0  0
 25 26  1  0  0  0  0
 25 33  1  0  0  0  0
 26 34  1  0  0  0  0
 35 36  1  0  0  0  0
 35 40  1  0  0  0  0
 36 37  1  0  0  0  0
 36 39  1  0  0  0  0
 36 41  1  0  0  0  0
 37 38  2  0  0  0  0
 37 45  1  0  0  0  0
 39 42  1  0  0  0  0
 39 43  1  0  0  0  0
 39 44  1  0  0  0  0
 45 46  1  0  0  0  0
 45 47  1  0  0  0  0
 46 48  1  0  0  0  0
 46 49  1  0  0  0  0
 46 50  1  0  0  0  0
M  CHG  1  23   1
M  END
$$$$

  -OEChem-05262216443D

 50 50  0     1  0  0  0  0  0999 V2000
   -2.1972   -0.6545    1.8508 C   0  0  0  0  0  0  0  0  0  0  0  0
   -2.5981   -0.2051    0.7828 O   0  0  0  0  0  0  0  0  0  0  0  0
   -2.0079   -2.1479    2.0299 C   0  0  0  0  0  0  0  0  0  0  0  0
   -2.4819   -2.6922    1.2090 H   0  0  0  0  0  0  0  0  0  0  0  0
   -0.9422   -2.3888    2.0497 H   0  0  0  0  0  0  0  0  0  0  0  0
   -2.4604   -2.4695    2.9713 H   0  0  0  0  0  0  0  0  0  0  0  0
   -1.7918    0.2136    2.8420 N   0  0  0  0  0  0  0  0  0  0  0  0
   -1.8146    1.6799    2.7221 C   0  0  2  0  0  0  0  0  0  0  0  0
   -0.6299    2.1903    1.8696 C   0  0  0  0  0  0  0  0  0  0  0  0
    0.2146    2.9560    2.3114 O   0  0  0  0  0  0  0  0  0  0  0  0
   -1.8153    2.2478    4.1462 C   0  0  0  0  0  0  0  0  0  0  0  0
   -1.1736   -0.1969    3.5511 H   0  0  0  0  0  0  0  0  0  0  0  0
   -2.7404    1.9983    2.2309 H   0  0  0  0  0  0  0  0  0  0  0  0
   -0.9004    1.9629    4.6763 H   0  0  0  0  0  0  0  0  0  0  0  0
   -1.8759    3.3406    4.1214 H   0  0  0  0  0  0  0  0  0  0  0  0
   -2.6750    1.8677    4.7071 H   0  0  0  0  0  0  0  0  0  0  0  0
   -0.4629    1.6828    0.5961 N   0  0  0  0  0  0  0  0  0  0  0  0
    0.7550    1.0178    0.0691 C   0  0  2  0  0  0  0  0  0  0  0  0
    2.0358    0.8023    0.9279 C   0  0  0  0  0  0  0  0  0  0  0  0
    2.9389    0.1676    0.3987 O   0  0  0  0  0  0  0  0  0  0  0  0
    1.1438    1.8150   -1.1926 C   0  0  0  0  0  0  0  0  0  0  0  0
    0.0723    1.7039   -2.2494 C   0  0  0  0  0  0  0  0  0  0  0  0
   -0.1802    0.5933   -3.0550 N   0  3  0  0  0  0  0  0  0  0  0  0
   -0.8256    2.6808   -2.5956 C   0  0  0  0  0  0  0  0  0  0  0  0
   -1.1887    0.8357   -3.8571 C   0  0  0  0  0  0  0  0  0  0  0  0
   -1.6184    2.1361   -3.5985 N   0  0  0  0  0  0  0  0  0  0  0  0
   -1.3143    1.1773    0.3307 H   0  0  0  0  0  0  0  0  0  0  0  0
    0.4580    0.0046   -0.2191 H   0  0  0  0  0  0  0  0  0  0  0  0
    2.0881    1.4482   -1.6106 H   0  0  0  0  0  0  0  0  0  0  0  0
    1.3012    2.8640   -0.9166 H   0  0  0  0  0  0  0  0  0  0  0  0
    0.3612   -0.2735   -2.9937 H   0  0  0  0  0  0  0  0  0  0  0  0
   -0.8996    3.6743   -2.1519 H   0  0  0  0  0  0  0  0  0  0  0  0
   -1.6137    0.1480   -4.5908 H   0  0  0  0  0  0  0  0  0  0  0  0
   -2.3974    2.6122   -4.0632 H   0  0  0  0  0  0  0  0  0  0  0  0
    2.0647    0.9282    2.3017 N   0  0  0  0  0  0  0  0  0  0  0  0
    2.8062    0.0580    3.2222 C   0  0  2  0  0  0  0  0  0  0  0  0
    1.8906   -1.0114    3.8620 C   0  0  0  0  0  0  0  0  0  0  0  0
    0.6658   -0.8985    3.8257 O   0  0  0  0  0  0  0  0  0  0  0  0
    3.4195    0.9543    4.3005 C   0  0  0  0  0  0  0  0  0  0  0  0
    1.3175    1.4958    2.7026 H   0  0  0  0  0  0  0  0  0  0  0  0
    3.6153   -0.4585    2.6950 H   0  0  0  0  0  0  0  0  0  0  0  0
    2.6349    1.4730    4.8611 H   0  0  0  0  0  0  0  0  0  0  0  0
    4.0141    0.3611    5.0020 H   0  0  0  0  0  0  0  0  0  0  0  0
    4.0728    1.7042    3.8430 H   0  0  0  0  0  0  0  0  0  0  0  0
    2.4400   -2.1117    4.4921 N   0  0  0  0  0  0  0  0  0  0  0  0
    1.6477   -3.1447    5.1505 C   0  0  0  0  0  0  0  0  0  0  0  0
    3.4541   -2.1831    4.5176 H   0  0  0  0  0  0  0  0  0  0  0  0
    1.0449   -2.7112    5.9557 H   0  0  0  0  0  0  0  0  0  0  0  0
    0.9800   -3.6332    4.4329 H   0  0  0  0  0  0  0  0  0  0  0  0
    2.3036   -3.9065    5.5834 H   0  0  0  0  0  0  0  0  0  0  0  0
  1  2  2  0  0  0  0
  1  3  1  0  0  0  0
  1  7  1  0  0  0  0
  3  4  1  0  0  0  0
  3  5  1  0  0  0  0
  3  6  1  0  0  0  0
  7  8  1  0  0  0  0
  7 12  1  0  0  0  0
  8  9  1  0  0  0  0
  8 11  1  0  0  0  0
  8 13  1  0  0  0  0
  9 10  2  0  0  0  0
  9 17  1  0  0  0  0
 11 14  1  0  0  0  0
 11 15  1  0  0  0  0
 11 16  1  0  0  0  0
 17 18  1  0  0  0  0
 17 27  1  0  0  0  0
 18 19  1  0  0  0  0
 18 21  1  0  0  0  0
 18 28  1  0  0  0  0
 19 20  2  0  0  0  0
 19 35  1  0  0  0  0
 21 22  1  0  0  0  0
 21 29  1  0  0  0  0
 21 30  1  0  0  0  0
 22 23  1  0  0  0  0
 22 24  2  0  0  0  0
 23 25  2  0  0  0  0
 23 31  1  0  0  0  0
 24 26  1  0  0  0  0
 24 32  1  0  0  0  0
 25 26  1  0  0  0  0
 25 33  1  0  0  0  0
 26 34  1  0  0  0  0
 35 36  1  0  0  0  0
 35 40  1  0  0  0  0
 36 37  1  0  0  0  0
 36 39  1  0  0  0  0
 36 41  1  0  0  0  0
 37 38  2  0  0  0  0
 37 45  1  0  0  0  0
 39 42  1  0  0  0  0
 39 43  1  0  0  0  0
 39 44  1  0  0  0  0
 45 46  1  0  0  0  0
 45 47  1  0  0  0  0
 46 48  1  0  0  0  0
 46 49  1  0  0  0  0
 46 50  1  0  0  0  0
M  CHG  1  23   1
M  END
$$$$

  -OEChem-05262216443D

 50 50  0     1  0  0  0  0  0999 V2000
   -3.3294    0.4285    1.1605 C   0  0  0  0  0  0  0  0  0  0  0  0
   -2.9120    0.9113    0.1139 O   0  0  0  0  0  0  0  0  0  0  0  0
   -4.2391   -0.7841    1.1334 C   0  0  0  0  0  0  0  0  0  0  0  0
   -4.4986   -1.0413    0.1029 H   0  0  0  0  0  0  0  0  0  0  0  0
   -3.7366   -1.6382    1.5945 H   0  0  0  0  0  0  0  0  0  0  0  0
   -5.1599   -0.5734    1.6835 H   0  0  0  0  0  0  0  0  0  0  0  0
   -2.9149    0.9513    2.3684 N   0  0  0  0  0  0  0  0  0  0  0  0
   -2.1015    2.1687    2.5256 C   0  0  2  0  0  0  0  0  0  0  0  0
   -0.5907    1.9269    2.2712 C   0  0  0  0  0  0  0  0  0  0  0  0
    0.2440    2.2709    3.0903 O   0  0  0  0  0  0  0  0  0  0  0  0
   -2.3911    2.7216    3.9277 C   0  0  0  0  0  0  0  0  0  0  0  0
   -3.2548    0.4916    3.2107 H   0  0  0  0  0  0  0  0  0  0  0  0
   -2.4320    2.9199    1.8002 H   0  0  0  0  0  0  0  0  0  0  0  0
   -2.0597    2.0166    4.6971 H   0  0  0  0  0  0  0  0  0  0  0  0
   -1.8642    3.6696    4.0794 H   0  0  0  0  0  0  0  0  0  0  0  0
   -3.4629    2.9025    4.0557 H   0  0  0  0  0  0  0  0  0  0  0  0
   -0.2243    1.3694    1.0573 N   0  0  0  0  0  0  0  0  0  0  0  0
    1.0698    0.8678    0.5244 C   0  0  2  0  0  0  0  0  0  0  0  0
    2.4032    0.8776    1.3289 C   0  0  0  0  0  0  0  0  0  0  0  0
    3.4391    0.6550    0.7122 O   0  0  0  0  0  0  0  0  0  0  0  0
    1.2591    1.6101   -0.8199 C   0  0  0  0  0  0  0  0  0  0  0  0
    0.1749    1.2232   -1.7945 C   0  0  0  0  0  0  0  0  0  0  0  0
    0.0932    0.0148   -2.4864 N   0  3  0  0  0  0  0  0  0  0  0  0
   -0.9114    1.9807   -2.1499 C   0  0  0  0  0  0  0  0  0  0  0  0
   -0.9931   -0.0135   -3.2198 C   0  0  0  0  0  0  0  0  0  0  0  0
   -1.6473    1.2030   -3.0346 N   0  0  0  0  0  0  0  0  0  0  0  0
   -1.0433    1.1397    0.4889 H   0  0  0  0  0  0  0  0  0  0  0  0
    0.9216   -0.1987    0.3268 H   0  0  0  0  0  0  0  0  0  0  0  0
    2.2271    1.3741   -1.2749 H   0  0  0  0  0  0  0  0  0  0  0  0
    1.2474    2.6903   -0.6374 H   0  0  0  0  0  0  0  0  0  0  0  0
    0.7918   -0.7283   -2.3922 H   0  0  0  0  0  0  0  0  0  0  0  0
   -1.1594    2.9745   -1.7771 H   0  0  0  0  0  0  0  0  0  0  0  0
   -1.3265   -0.8376   -3.8528 H   0  0  0  0  0  0  0  0  0  0  0  0
   -2.5506    1.4646   -3.4398 H   0  0  0  0  0  0  0  0  0  0  0  0
    2.4509    0.7664    2.7013 N   0  0  0  0  0  0  0  0  0  0  0  0
    3.4170   -0.0960    3.3919 C   0  0  2  0  0  0  0  0  0  0  0  0
    3.0235   -1.5906    3.3089 C   0  0  0  0  0  0  0  0  0  0  0  0
    1.9259   -1.9323    2.8748 O   0  0  0  0  0  0  0  0  0  0  0  0
    3.4867    0.3714    4.8482 C   0  0  0  0  0  0  0  0  0  0  0  0
    1.5607    0.9402    3.1702 H   0  0  0  0  0  0  0  0  0  0  0  0
    4.4091    0.0208    2.9431 H   0  0  0  0  0  0  0  0  0  0  0  0
    3.7705    1.4278    4.8932 H   0  0  0  0  0  0  0  0  0  0  0  0
    2.5147    0.2519    5.3377 H   0  0  0  0  0  0  0  0  0  0  0  0
    4.2298   -0.2081    5.4043 H   0  0  0  0  0  0  0  0  0  0  0  0
    3.9104   -2.5675    3.7221 N   0  0  0  0  0  0  0  0  0  0  0  0
    3.6140   -3.9947    3.6719 C   0  0  0  0  0  0  0  0  0  0  0  0
    4.8226   -2.2663    4.0532 H   0  0  0  0  0  0  0  0  0  0  0  0
    2.7243   -4.2231    4.2683 H   0  0  0  0  0  0  0  0  0  0  0  0
    3.4371   -4.3133    2.6393 H   0  0  0  0  0  0  0  0  0  0  0  0
    4.4538   -4.5711    4.0721 H   0  0  0  0  0  0  0  0  0  0  0  0
  1  2  2  0  0  0  0
  1  3  1  0  0  0  0
  1  7  1  0  0  0  0
  3  4  1  0  0  0  0
  3  5  1  0  0  0  0
  3  6  1  0  0  0  0
  7  8  1  0  0  0  0
  7 12  1  0  0  0  0
  8  9  1  0  0  0  0
  8 11  1  0  0  0  0
  8 13  1  0  0  0  0
  9 10  2  0  0  0  0
  9 17  1  0  0  0  0
 11 14  1  0  0  0  0
 11 15  1  0  0  0  0
 11 16  1  0  0  0  0
 17 18  1  0  0  0  0
 17 27  1  0  0  0  0
 18 19  1  0  0  0  0
 18 21  1  0  0  0  0
 18 28  1  0  0  0  0
 19 20  2  0  0  0  0
 19 35  1  0  0  0  0
 21 22  1  0  0  0  0
 21 29  1  0  0  0  0
 21 30  1  0  0  0  0
 22 23  1  0  0  0  0
 22 24  2  0  0  0  0
 23 25  2  0  0  0  0
 23 31  1  0  0  0  0
 24 26  1  0  0  0  0
 24 32  1  0  0  0  0
 25 26  1  0  0  0  0
 25 33  1  0  0  0  0
 26 34  1  0  0  0  0
 35 36  1  0  0  0  0
 35 40  1  0  0  0  0
 36 37  1  0  0  0  0
 36 39  1  0  0  0  0
 36 41  1  0  0  0  0
 37 38  2  0  0  0  0
 37 45  1  0  0  0  0
 39 42  1  0  0  0  0
 39 43  1  0  0  0  0
 39 44  1  0  0  0  0
 45 46  1  0  0  0  0
 45 47  1  0  0  0  0
 46 48  1  0  0  0  0
 46 49  1  0  0  0  0
 46 50  1  0  0  0  0
M  CHG  1  23   1
M  END
$$$$

  -OEChem-05262216443D

 50 50  0     1  0  0  0  0  0999 V2000
   -3.4367    0.5084    1.1970 C   0  0  0  0  0  0  0  0  0  0  0  0
   -2.9605    0.9475    0.1565 O   0  0  0  0  0  0  0  0  0  0  0  0
   -4.4269   -0.6397    1.1597 C   0  0  0  0  0  0  0  0  0  0  0  0
   -5.3399   -0.3642    1.6940 H   0  0  0  0  0  0  0  0  0  0  0  0
   -4.6866   -0.8834    0.1260 H   0  0  0  0  0  0  0  0  0  0  0  0
   -3.9917   -1.5244    1.6317 H   0  0  0  0  0  0  0  0  0  0  0  0
   -3.0214    1.0225    2.4085 N   0  0  0  0  0  0  0  0  0  0  0  0
   -2.1345    2.1872    2.5678 C   0  0  2  0  0  0  0  0  0  0  0  0
   -0.6365    1.8434    2.3608 C   0  0  0  0  0  0  0  0  0  0  0  0
    0.1847    2.0676    3.2333 O   0  0  0  0  0  0  0  0  0  0  0  0
   -2.4245    2.7873    3.9505 C   0  0  0  0  0  0  0  0  0  0  0  0
   -3.4215    0.6080    3.2478 H   0  0  0  0  0  0  0  0  0  0  0  0
   -2.3944    2.9448    1.8203 H   0  0  0  0  0  0  0  0  0  0  0  0
   -2.1746    2.0739    4.7428 H   0  0  0  0  0  0  0  0  0  0  0  0
   -1.8300    3.6942    4.1042 H   0  0  0  0  0  0  0  0  0  0  0  0
   -3.4825    3.0533    4.0391 H   0  0  0  0  0  0  0  0  0  0  0  0
   -0.2623    1.3004    1.1428 N   0  0  0  0  0  0  0  0  0  0  0  0
    1.0520    0.8587    0.6093 C   0  0  2  0  0  0  0  0  0  0  0  0
    2.3639    0.9514    1.4432 C   0  0  0  0  0  0  0  0  0  0  0  0
    3.4346    1.0371    0.8527 O   0  0  0  0  0  0  0  0  0  0  0  0
    1.2125    1.5897   -0.7450 C   0  0  0  0  0  0  0  0  0  0  0  0
    0.1513    1.1435   -1.7186 C   0  0  0  0  0  0  0  0  0  0  0  0
    0.1255   -0.0761   -2.3949 N   0  3  0  0  0  0  0  0  0  0  0  0
   -0.9553    1.8563   -2.1026 C   0  0  0  0  0  0  0  0  0  0  0  0
   -0.9471   -0.1539   -3.1451 C   0  0  0  0  0  0  0  0  0  0  0  0
   -1.6486    1.0400   -2.9869 N   0  0  0  0  0  0  0  0  0  0  0  0
   -1.0675    1.1234    0.5370 H   0  0  0  0  0  0  0  0  0  0  0  0
    0.9623   -0.2163    0.4223 H   0  0  0  0  0  0  0  0  0  0  0  0
    2.1900    1.3858   -1.1956 H   0  0  0  0  0  0  0  0  0  0  0  0
    1.1562    2.6709   -0.5780 H   0  0  0  0  0  0  0  0  0  0  0  0
    0.8468   -0.7934   -2.2751 H   0  0  0  0  0  0  0  0  0  0  0  0
   -1.2442    2.8468   -1.7511 H   0  0  0  0  0  0  0  0  0  0  0  0
   -1.2391   -0.9981   -3.7721 H   0  0  0  0  0  0  0  0  0  0  0  0
   -2.5537    1.2639   -3.4104 H   0  0  0  0  0  0  0  0  0  0  0  0
    2.3993    0.5518    2.7619 N   0  0  0  0  0  0  0  0  0  0  0  0
    3.4806   -0.2768    3.3079 C   0  0  2  0  0  0  0  0  0  0  0  0
    3.3573   -1.7571    2.8724 C   0  0  0  0  0  0  0  0  0  0  0  0
    2.3591   -2.1616    2.2801 O   0  0  0  0  0  0  0  0  0  0  0  0
    3.4326   -0.1467    4.8326 C   0  0  0  0  0  0  0  0  0  0  0  0
    1.4886    0.5111    3.2189 H   0  0  0  0  0  0  0  0  0  0  0  0
    4.4481    0.1001    2.9589 H   0  0  0  0  0  0  0  0  0  0  0  0
    2.4906   -0.5452    5.2228 H   0  0  0  0  0  0  0  0  0  0  0  0
    3.5129    0.9053    5.1249 H   0  0  0  0  0  0  0  0  0  0  0  0
    4.2601   -0.6952    5.2927 H   0  0  0  0  0  0  0  0  0  0  0  0
    4.3802   -2.6478    3.1410 N   0  0  0  0  0  0  0  0  0  0  0  0
    4.3403   -4.0561    2.7643 C   0  0  0  0  0  0  0  0  0  0  0  0
    5.2080   -2.2875    3.6076 H   0  0  0  0  0  0  0  0  0  0  0  0
    3.4832   -4.5539    3.2302 H   0  0  0  0  0  0  0  0  0  0  0  0
    4.2599   -4.1603    1.6773 H   0  0  0  0  0  0  0  0  0  0  0  0
    5.2530   -4.5627    3.0930 H   0  0  0  0  0  0  0  0  0  0  0  0
  1  2  2  0  0  0  0
  1  3  1  0  0  0  0
  1  7  1  0  0  0  0
  3  4  1  0  0  0  0
  3  5  1  0  0  0  0
  3  6  1  0  0  0  0
  7  8  1  0  0  0  0
  7 12  1  0  0  0  0
  8  9  1  0  0  0  0
  8 11  1  0  0  0  0
  8 13  1  0  0  0  0
  9 10  2  0  0  0  0
  9 17  1  0  0  0  0
 11 14  1  0  0  0  0
 11 15  1  0  0  0  0
 11 16  1  0  0  0  0
 17 18  1  0  0  0  0
 17 27  1  0  0  0  0
 18 19  1  0  0  0  0
 18 21  1  0  0  0  0
 18 28  1  0  0  0  0
 19 20  2  0  0  0  0
 19 35  1  0  0  0  0
 21 22  1  0  0  0  0
 21 29  1  0  0  0  0
 21 30  1  0  0  0  0
 22 23  1  0  0  0  0
 22 24  2  0  0  0  0
 23 25  2  0  0  0  0
 23 31  1  0  0  0  0
 24 26  1  0  0  0  0
 24 32  1  0  0  0  0
 25 26  1  0  0  0  0
 25 33  1  0  0  0  0
 26 34  1  0  0  0  0
 35 36  1  0  0  0  0
 35 40  1  0  0  0  0
 36 37  1  0  0  0  0
 36 39  1  0  0  0  0
 36 41  1  0  0  0  0
 37 38  2  0  0  0  0
 37 45  1  0  0  0  0
 39 42  1  0  0  0  0
 39 43  1  0  0  0  0
 39 44  1  0  0  0  0
 45 46  1  0  0  0  0
 45 47  1  0  0  0  0
 46 48  1  0  0  0  0
 46 49  1  0  0  0  0
 46 50  1  0  0  0  0
M  CHG  1  23   1
M  END
$$$$

  -OEChem-05262216443D

 50 50  0     1  0  0  0  0  0999 V2000
   -2.0237   -0.4170    3.5189 C   0  0  0  0  0  0  0  0  0  0  0  0
   -1.4701   -0.9087    2.5439 O   0  0  0  0  0  0  0  0  0  0  0  0
   -2.0441   -1.1561    4.8423 C   0  0  0  0  0  0  0  0  0  0  0  0
   -1.6494   -2.1680    4.7160 H   0  0  0  0  0  0  0  0  0  0  0  0
   -1.4311   -0.6259    5.5753 H   0  0  0  0  0  0  0  0  0  0  0  0
   -3.0684   -1.2252    5.2168 H   0  0  0  0  0  0  0  0  0  0  0  0
   -2.5837    0.8403    3.4167 N   0  0  0  0  0  0  0  0  0  0  0  0
   -2.4907    1.6598    2.2011 C   0  0  2  0  0  0  0  0  0  0  0  0
   -1.0254    1.9440    1.7976 C   0  0  0  0  0  0  0  0  0  0  0  0
   -0.2810    2.5288    2.5697 O   0  0  0  0  0  0  0  0  0  0  0  0
   -3.2489    2.9664    2.4534 C   0  0  0  0  0  0  0  0  0  0  0  0
   -2.8744    1.2872    4.2829 H   0  0  0  0  0  0  0  0  0  0  0  0
   -2.9794    1.1281    1.3786 H   0  0  0  0  0  0  0  0  0  0  0  0
   -2.7975    3.5196    3.2842 H   0  0  0  0  0  0  0  0  0  0  0  0
   -3.2224    3.6017    1.5626 H   0  0  0  0  0  0  0  0  0  0  0  0
   -4.2952    2.7596    2.6998 H   0  0  0  0  0  0  0  0  0  0  0  0
   -0.5614    1.5639    0.5460 N   0  0  0  0  0  0  0  0  0  0  0  0
    0.7916    1.0099    0.2873 C   0  0  2  0  0  0  0  0  0  0  0  0
    1.7685    0.8262    1.4800 C   0  0  0  0  0  0  0  0  0  0  0  0
    2.9424    1.1728    1.3968 O   0  0  0  0  0  0  0  0  0  0  0  0
    1.4463    1.8586   -0.8223 C   0  0  0  0  0  0  0  0  0  0  0  0
    0.6970    1.7441   -2.1239 C   0  0  0  0  0  0  0  0  0  0  0  0
    0.7297    0.6423   -2.9788 N   0  3  0  0  0  0  0  0  0  0  0  0
   -0.0692    2.7128   -2.7187 C   0  0  0  0  0  0  0  0  0  0  0  0
    0.0217    0.8848   -4.0553 C   0  0  0  0  0  0  0  0  0  0  0  0
   -0.5008    2.1713   -3.9247 N   0  0  0  0  0  0  0  0  0  0  0  0
   -1.2929    1.1278   -0.0075 H   0  0  0  0  0  0  0  0  0  0  0  0
    0.6560   -0.0088   -0.0904 H   0  0  0  0  0  0  0  0  0  0  0  0
    2.4792    1.5356   -0.9951 H   0  0  0  0  0  0  0  0  0  0  0  0
    1.4870    2.9023   -0.4906 H   0  0  0  0  0  0  0  0  0  0  0  0
    1.2649   -0.2071   -2.7711 H   0  0  0  0  0  0  0  0  0  0  0  0
   -0.2724    3.7074   -2.3195 H   0  0  0  0  0  0  0  0  0  0  0  0
   -0.1220    0.2081   -4.9003 H   0  0  0  0  0  0  0  0  0  0  0  0
   -1.0798    2.6545   -4.6185 H   0  0  0  0  0  0  0  0  0  0  0  0
    1.3847   -0.0115    2.5117 N   0  0  0  0  0  0  0  0  0  0  0  0
    2.3749   -0.8767    3.1628 C   0  0  2  0  0  0  0  0  0  0  0  0
    2.8824   -1.9966    2.2202 C   0  0  0  0  0  0  0  0  0  0  0  0
    2.3008   -2.2503    1.1668 O   0  0  0  0  0  0  0  0  0  0  0  0
    1.7173   -1.4763    4.4071 C   0  0  0  0  0  0  0  0  0  0  0  0
    0.4429   -0.3969    2.4136 H   0  0  0  0  0  0  0  0  0  0  0  0
    3.2358   -0.2763    3.4762 H   0  0  0  0  0  0  0  0  0  0  0  0
    0.8687   -2.1070    4.1237 H   0  0  0  0  0  0  0  0  0  0  0  0
    2.4337   -2.0880    4.9639 H   0  0  0  0  0  0  0  0  0  0  0  0
    1.3586   -0.6796    5.0663 H   0  0  0  0  0  0  0  0  0  0  0  0
    4.0076   -2.7271    2.5548 N   0  0  0  0  0  0  0  0  0  0  0  0
    4.5711   -3.7691    1.7040 C   0  0  0  0  0  0  0  0  0  0  0  0
    4.5126   -2.4533    3.3929 H   0  0  0  0  0  0  0  0  0  0  0  0
    3.8187   -4.5337    1.4828 H   0  0  0  0  0  0  0  0  0  0  0  0
    4.9276   -3.3422    0.7607 H   0  0  0  0  0  0  0  0  0  0  0  0
    5.4145   -4.2535    2.2058 H   0  0  0  0  0  0  0  0  0  0  0  0
  1  2  2  0  0  0  0
  1  3  1  0  0  0  0
  1  7  1  0  0  0  0
  3  4  1  0  0  0  0
  3  5  1  0  0  0  0
  3  6  1  0  0  0  0
  7  8  1  0  0  0  0
  7 12  1  0  0  0  0
  8  9  1  0  0  0  0
  8 11  1  0  0  0  0
  8 13  1  0  0  0  0
  9 10  2  0  0  0  0
  9 17  1  0  0  0  0
 11 14  1  0  0  0  0
 11 15  1  0  0  0  0
 11 16  1  0  0  0  0
 17 18  1  0  0  0  0
 17 27  1  0  0  0  0
 18 19  1  0  0  0  0
 18 21  1  0  0  0  0
 18 28  1  0  0  0  0
 19 20  2  0  0  0  0
 19 35  1  0  0  0  0
 21 22  1  0  0  0  0
 21 29  1  0  0  0  0
 21 30  1  0  0  0  0
 22 23  1  0  0  0  0
 22 24  2  0  0  0  0
 23 25  2  0  0  0  0
 23 31  1  0  0  0  0
 24 26  1  0  0  0  0
 24 32  1  0  0  0  0
 25 26  1  0  0  0  0
 25 33  1  0  0  0  0
 26 34  1  0  0  0  0
 35 36  1  0  0  0  0
 35 40  1  0  0  0  0
 36 37  1  0  0  0  0
 36 39  1  0  0  0  0
 36 41  1  0  0  0  0
 37 38  2  0  0  0  0
 37 45  1  0  0  0  0
 39 42  1  0  0  0  0
 39 43  1  0  0  0  0
 39 44  1  0  0  0  0
 45 46  1  0  0  0  0
 45 47  1  0  0  0  0
 46 48  1  0  0  0  0
 46 49  1  0  0  0  0
 46 50  1  0  0  0  0
M  CHG  1  23   1
M  END
$$$$

  -OEChem-05262216443D

 50 50  0     1  0  0  0  0  0999 V2000
   -2.0154   -0.4572    3.3799 C   0  0  0  0  0  0  0  0  0  0  0  0
   -1.4722   -0.8826    2.3675 O   0  0  0  0  0  0  0  0  0  0  0  0
   -1.9698   -1.2629    4.6635 C   0  0  0  0  0  0  0  0  0  0  0  0
   -1.5170   -2.2413    4.4801 H   0  0  0  0  0  0  0  0  0  0  0  0
   -1.3771   -0.7348    5.4146 H   0  0  0  0  0  0  0  0  0  0  0  0
   -2.9819   -1.4129    5.0477 H   0  0  0  0  0  0  0  0  0  0  0  0
   -2.6115    0.7880    3.3634 N   0  0  0  0  0  0  0  0  0  0  0  0
   -2.5525    1.6908    2.2053 C   0  0  2  0  0  0  0  0  0  0  0  0
   -1.0981    2.0560    1.8298 C   0  0  0  0  0  0  0  0  0  0  0  0
   -0.3963    2.6619    2.6250 O   0  0  0  0  0  0  0  0  0  0  0  0
   -3.3618    2.9462    2.5439 C   0  0  0  0  0  0  0  0  0  0  0  0
   -2.8858    1.1760    4.2630 H   0  0  0  0  0  0  0  0  0  0  0  0
   -3.0199    1.1991    1.3462 H   0  0  0  0  0  0  0  0  0  0  0  0
   -2.9356    3.4571    3.4141 H   0  0  0  0  0  0  0  0  0  0  0  0
   -3.3563    3.6429    1.6998 H   0  0  0  0  0  0  0  0  0  0  0  0
   -4.4002    2.6823    2.7684 H   0  0  0  0  0  0  0  0  0  0  0  0
   -0.5771    1.6434    0.6114 N   0  0  0  0  0  0  0  0  0  0  0  0
    0.7899    1.0914    0.4543 C   0  0  2  0  0  0  0  0  0  0  0  0
    1.6872    0.9600    1.7113 C   0  0  0  0  0  0  0  0  0  0  0  0
    2.8138    1.4443    1.7461 O   0  0  0  0  0  0  0  0  0  0  0  0
    1.5245    1.8636   -0.6572 C   0  0  0  0  0  0  0  0  0  0  0  0
    0.8548    1.6616   -1.9895 C   0  0  0  0  0  0  0  0  0  0  0  0
    0.9423    0.4958   -2.7495 N   0  3  0  0  0  0  0  0  0  0  0  0
    0.1328    2.5793   -2.7069 C   0  0  0  0  0  0  0  0  0  0  0  0
    0.3041    0.6486   -3.8841 C   0  0  0  0  0  0  0  0  0  0  0  0
   -0.2216    1.9407   -3.8906 N   0  0  0  0  0  0  0  0  0  0  0  0
   -1.2758    1.1656    0.0495 H   0  0  0  0  0  0  0  0  0  0  0  0
    0.6700    0.0577    0.1144 H   0  0  0  0  0  0  0  0  0  0  0  0
    2.5635    1.5228   -0.7366 H   0  0  0  0  0  0  0  0  0  0  0  0
    1.5517    2.9268   -0.3930 H   0  0  0  0  0  0  0  0  0  0  0  0
    1.4537   -0.3354   -2.4331 H   0  0  0  0  0  0  0  0  0  0  0  0
   -0.0927    3.6022   -2.4025 H   0  0  0  0  0  0  0  0  0  0  0  0
    0.2098   -0.0955   -4.6775 H   0  0  0  0  0  0  0  0  0  0  0  0
   -0.7539    2.3647   -4.6564 H   0  0  0  0  0  0  0  0  0  0  0  0
    1.3747   -0.0776    2.5696 N   0  0  0  0  0  0  0  0  0  0  0  0
    2.4363   -0.9837    3.0221 C   0  0  2  0  0  0  0  0  0  0  0  0
    3.0346   -1.8202    1.8608 C   0  0  0  0  0  0  0  0  0  0  0  0
    2.4848   -1.8712    0.7599 O   0  0  0  0  0  0  0  0  0  0  0  0
    1.8318   -1.9002    4.0883 C   0  0  0  0  0  0  0  0  0  0  0  0
    0.4691   -0.5109    2.3758 H   0  0  0  0  0  0  0  0  0  0  0  0
    3.2450   -0.4004    3.4766 H   0  0  0  0  0  0  0  0  0  0  0  0
    1.0283   -2.5084    3.6596 H   0  0  0  0  0  0  0  0  0  0  0  0
    2.5945   -2.5698    4.4972 H   0  0  0  0  0  0  0  0  0  0  0  0
    1.4208   -1.3048    4.9097 H   0  0  0  0  0  0  0  0  0  0  0  0
    4.2088   -2.5239    2.0531 N   0  0  0  0  0  0  0  0  0  0  0  0
    4.8567   -3.3132    1.0123 C   0  0  0  0  0  0  0  0  0  0  0  0
    4.6738   -2.4237    2.9513 H   0  0  0  0  0  0  0  0  0  0  0  0
    4.1838   -4.0983    0.6514 H   0  0  0  0  0  0  0  0  0  0  0  0
    5.1415   -2.6763    0.1684 H   0  0  0  0  0  0  0  0  0  0  0  0
    5.7604   -3.7890    1.4057 H   0  0  0  0  0  0  0  0  0  0  0  0
  1  2  2  0  0  0  0
  1  3  1  0  0  0  0
  1  7  1  0  0  0  0
  3  4  1  0  0  0  0
  3  5  1  0  0  0  0
  3  6  1  0  0  0  0
  7  8  1  0  0  0  0
  7 12  1  0  0  0  0
  8  9  1  0  0  0  0
  8 11  1  0  0  0  0
  8 13  1  0  0  0  0
  9 10  2  0  0  0  0
  9 17  1  0  0  0  0
 11 14  1  0  0  0  0
 11 15  1  0  0  0  0
 11 16  1  0  0  0  0
 17 18  1  0  0  0  0
 17 27  1  0  0  0  0
 18 19  1  0  0  0  0
 18 21  1  0  0  0  0
 18 28  1  0  0  0  0
 19 20  2  0  0  0  0
 19 35  1  0  0  0  0
 21 22  1  0  0  0  0
 21 29  1  0  0  0  0
 21 30  1  0  0  0  0
 22 23  1  0  0  0  0
 22 24  2  0  0  0  0
 23 25  2  0  0  0  0
 23 31  1  0  0  0  0
 24 26  1  0  0  0  0
 24 32  1  0  0  0  0
 25 26  1  0  0  0  0
 25 33  1  0  0  0  0
 26 34  1  0  0  0  0
 35 36  1  0  0  0  0
 35 40  1  0  0  0  0
 36 37  1  0  0  0  0
 36 39  1  0  0  0  0
 36 41  1  0  0  0  0
 37 38  2  0  0  0  0
 37 45  1  0  0  0  0
 39 42  1  0  0  0  0
 39 43  1  0  0  0  0
 39 44  1  0  0  0  0
 45 46  1  0  0  0  0
 45 47  1  0  0  0  0
 46 48  1  0  0  0  0
 46 49  1  0  0  0  0
 46 50  1  0  0  0  0
M  CHG  1  23   1
M  END
$$$$

  -OEChem-05262216443D

 50 50  0     1  0  0  0  0  0999 V2000
   -3.6993    1.0060    1.0015 C   0  0  0  0  0  0  0  0  0  0  0  0
   -2.9198    1.3165    0.1084 O   0  0  0  0  0  0  0  0  0  0  0  0
   -4.9625    0.2339    0.6748 C   0  0  0  0  0  0  0  0  0  0  0  0
   -5.0248    0.0465   -0.4006 H   0  0  0  0  0  0  0  0  0  0  0  0
   -4.9629   -0.7241    1.2010 H   0  0  0  0  0  0  0  0  0  0  0  0
   -5.8403    0.8089    0.9811 H   0  0  0  0  0  0  0  0  0  0  0  0
   -3.4050    1.3178    2.3129 N   0  0  0  0  0  0  0  0  0  0  0  0
   -2.3069    2.2018    2.7376 C   0  0  2  0  0  0  0  0  0  0  0  0
   -0.9164    1.5157    2.7304 C   0  0  0  0  0  0  0  0  0  0  0  0
   -0.2276    1.4524    3.7374 O   0  0  0  0  0  0  0  0  0  0  0  0
   -2.6854    2.7546    4.1184 C   0  0  0  0  0  0  0  0  0  0  0  0
   -4.0825    1.0324    3.0165 H   0  0  0  0  0  0  0  0  0  0  0  0
   -2.2433    3.0516    2.0491 H   0  0  0  0  0  0  0  0  0  0  0  0
   -2.7513    1.9466    4.8545 H   0  0  0  0  0  0  0  0  0  0  0  0
   -1.9309    3.4705    4.4612 H   0  0  0  0  0  0  0  0  0  0  0  0
   -3.6498    3.2700    4.0751 H   0  0  0  0  0  0  0  0  0  0  0  0
   -0.4527    0.9602    1.5502 N   0  0  0  0  0  0  0  0  0  0  0  0
    0.9553    0.6918    1.1922 C   0  0  2  0  0  0  0  0  0  0  0  0
    2.1116    1.0308    2.1637 C   0  0  0  0  0  0  0  0  0  0  0  0
    2.9435    1.8775    1.8563 O   0  0  0  0  0  0  0  0  0  0  0  0
    1.2659    1.1961   -0.2279 C   0  0  0  0  0  0  0  0  0  0  0  0
    0.4541    0.4263   -1.2278 C   0  0  0  0  0  0  0  0  0  0  0  0
    0.7644   -0.8842   -1.5859 N   0  3  0  0  0  0  0  0  0  0  0  0
   -0.6458    0.8178   -1.9427 C   0  0  0  0  0  0  0  0  0  0  0  0
   -0.0965   -1.3197   -2.4728 C   0  0  0  0  0  0  0  0  0  0  0  0
   -0.9945   -0.2800   -2.7206 N   0  0  0  0  0  0  0  0  0  0  0  0
   -1.1216    1.0351    0.7808 H   0  0  0  0  0  0  0  0  0  0  0  0
    0.9985   -0.3991    1.1406 H   0  0  0  0  0  0  0  0  0  0  0  0
    2.3289    1.0644   -0.4611 H   0  0  0  0  0  0  0  0  0  0  0  0
    1.0495    2.2682   -0.2887 H   0  0  0  0  0  0  0  0  0  0  0  0
    1.5505   -1.3986   -1.1659 H   0  0  0  0  0  0  0  0  0  0  0  0
   -1.1530    1.7822   -1.8835 H   0  0  0  0  0  0  0  0  0  0  0  0
   -0.1071   -2.3113   -2.9276 H   0  0  0  0  0  0  0  0  0  0  0  0
   -1.7942   -0.3185   -3.3587 H   0  0  0  0  0  0  0  0  0  0  0  0
    2.4810    0.0335    3.0449 N   0  0  0  0  0  0  0  0  0  0  0  0
    3.8421   -0.5147    2.9577 C   0  0  2  0  0  0  0  0  0  0  0  0
    4.1397   -1.2184    1.6027 C   0  0  0  0  0  0  0  0  0  0  0  0
    3.2450   -1.5001    0.7990 O   0  0  0  0  0  0  0  0  0  0  0  0
    4.0163   -1.4955    4.1204 C   0  0  0  0  0  0  0  0  0  0  0  0
    1.7380   -0.6299    3.2457 H   0  0  0  0  0  0  0  0  0  0  0  0
    4.5637    0.3010    3.0804 H   0  0  0  0  0  0  0  0  0  0  0  0
    3.3341   -2.3449    4.0133 H   0  0  0  0  0  0  0  0  0  0  0  0
    5.0422   -1.8753    4.1537 H   0  0  0  0  0  0  0  0  0  0  0  0
    3.8047   -0.9963    5.0717 H   0  0  0  0  0  0  0  0  0  0  0  0
    5.4435   -1.5382    1.2738 N   0  0  0  0  0  0  0  0  0  0  0  0
    5.8328   -2.1868    0.0270 C   0  0  0  0  0  0  0  0  0  0  0  0
    6.1731   -1.2522    1.9222 H   0  0  0  0  0  0  0  0  0  0  0  0
    5.3320   -3.1555   -0.0753 H   0  0  0  0  0  0  0  0  0  0  0  0
    5.5698   -1.5589   -0.8307 H   0  0  0  0  0  0  0  0  0  0  0  0
    6.9140   -2.3570    0.0105 H   0  0  0  0  0  0  0  0  0  0  0  0
  1  2  2  0  0  0  0
  1  3  1  0  0  0  0
  1  7  1  0  0  0  0
  3  4  1  0  0  0  0
  3  5  1  0  0  0  0
  3  6  1  0  0  0  0
  7  8  1  0  0  0  0
  7 12  1  0  0  0  0
  8  9  1  0  0  0  0
  8 11  1  0  0  0  0
  8 13  1  0  0  0  0
  9 10  2  0  0  0  0
  9 17  1  0  0  0  0
 11 14  1  0  0  0  0
 11 15  1  0  0  0  0
 11 16  1  0  0  0  0
 17 18  1  0  0  0  0
 17 27  1  0  0  0  0
 18 19  1  0  0  0  0
 18 21  1  0  0  0  0
 18 28  1  0  0  0  0
 19 20  2  0  0  0  0
 19 35  1  0  0  0  0
 21 22  1  0  0  0  0
 21 29  1  0  0  0  0
 21 30  1  0  0  0  0
 22 23  1  0  0  0  0
 22 24  2  0  0  0  0
 23 25  2  0  0  0  0
 23 31  1  0  0  0  0
 24 26  1  0  0  0  0
 24 32  1  0  0  0  0
 25 26  1  0  0  0  0
 25 33  1  0  0  0  0
 26 34  1  0  0  0  0
 35 36  1  0  0  0  0
 35 40  1  0  0  0  0
 36 37  1  0  0  0  0
 36 39  1  0  0  0  0
 36 41  1  0  0  0  0
 37 38  2  0  0  0  0
 37 45  1  0  0  0  0
 39 42  1  0  0  0  0
 39 43  1  0  0  0  0
 39 44  1  0  0  0  0
 45 46  1  0  0  0  0
 45 47  1  0  0  0  0
 46 48  1  0  0  0  0
 46 49  1  0  0  0  0
 46 50  1  0  0  0  0
M  CHG  1  23   1
M  END
$$$$

  -OEChem-05262216443D

 50 50  0     1  0  0  0  0  0999 V2000
   -3.5970    1.1158    1.2102 C   0  0  0  0  0  0  0  0  0  0  0  0
   -2.8362    1.4533    0.3104 O   0  0  0  0  0  0  0  0  0  0  0  0
   -4.8423    0.3111    0.8904 C   0  0  0  0  0  0  0  0  0  0  0  0
   -4.9236    0.1498   -0.1879 H   0  0  0  0  0  0  0  0  0  0  0  0
   -4.7990   -0.6600    1.3899 H   0  0  0  0  0  0  0  0  0  0  0  0
   -5.7317    0.8470    1.2314 H   0  0  0  0  0  0  0  0  0  0  0  0
   -3.2896    1.4145    2.5221 N   0  0  0  0  0  0  0  0  0  0  0  0
   -2.1751    2.2775    2.9479 C   0  0  2  0  0  0  0  0  0  0  0  0
   -0.7969    1.5678    2.9102 C   0  0  0  0  0  0  0  0  0  0  0  0
   -0.1037    1.4517    3.9096 O   0  0  0  0  0  0  0  0  0  0  0  0
   -2.5264    2.8135    4.3421 C   0  0  0  0  0  0  0  0  0  0  0  0
   -3.9446    1.0981    3.2337 H   0  0  0  0  0  0  0  0  0  0  0  0
   -2.1077    3.1378    2.2729 H   0  0  0  0  0  0  0  0  0  0  0  0
   -2.5934    1.9949    5.0659 H   0  0  0  0  0  0  0  0  0  0  0  0
   -1.7564    3.5129    4.6849 H   0  0  0  0  0  0  0  0  0  0  0  0
   -3.4841    3.3432    4.3210 H   0  0  0  0  0  0  0  0  0  0  0  0
   -0.3560    1.0406    1.7092 N   0  0  0  0  0  0  0  0  0  0  0  0
    1.0326    0.6879    1.3558 C   0  0  2  0  0  0  0  0  0  0  0  0
    2.2082    0.8823    2.3420 C   0  0  0  0  0  0  0  0  0  0  0  0
    2.9977    1.8028    2.1635 O   0  0  0  0  0  0  0  0  0  0  0  0
    1.3965    1.2678   -0.0229 C   0  0  0  0  0  0  0  0  0  0  0  0
    0.5442    0.6294   -1.0763 C   0  0  0  0  0  0  0  0  0  0  0  0
    0.7863   -0.6734   -1.5046 N   0  3  0  0  0  0  0  0  0  0  0  0
   -0.5309    1.1208   -1.7659 C   0  0  0  0  0  0  0  0  0  0  0  0
   -0.0929   -1.0112   -2.4156 C   0  0  0  0  0  0  0  0  0  0  0  0
   -0.9339    0.0880   -2.6049 N   0  0  0  0  0  0  0  0  0  0  0  0
   -1.0223    1.1569    0.9426 H   0  0  0  0  0  0  0  0  0  0  0  0
    0.9888   -0.3970    1.2310 H   0  0  0  0  0  0  0  0  0  0  0  0
    2.4519    1.0886   -0.2576 H   0  0  0  0  0  0  0  0  0  0  0  0
    1.2486    2.3530   -0.0080 H   0  0  0  0  0  0  0  0  0  0  0  0
    1.5492   -1.2465   -1.1121 H   0  0  0  0  0  0  0  0  0  0  0  0
   -0.9891    2.1037   -1.6475 H   0  0  0  0  0  0  0  0  0  0  0  0
   -0.1541   -1.9736   -2.9256 H   0  0  0  0  0  0  0  0  0  0  0  0
   -1.7355    0.1259   -3.2407 H   0  0  0  0  0  0  0  0  0  0  0  0
    2.6822   -0.2809    2.9208 N   0  0  0  0  0  0  0  0  0  0  0  0
    4.0231   -0.7667    2.5631 C   0  0  2  0  0  0  0  0  0  0  0  0
    4.1307   -1.2715    1.0957 C   0  0  0  0  0  0  0  0  0  0  0  0
    3.1345   -1.4672    0.3898 O   0  0  0  0  0  0  0  0  0  0  0  0
    4.3742   -1.8898    3.5427 C   0  0  0  0  0  0  0  0  0  0  0  0
    1.9701   -0.9972    3.0303 H   0  0  0  0  0  0  0  0  0  0  0  0
    4.7486    0.0444    2.6947 H   0  0  0  0  0  0  0  0  0  0  0  0
    3.6842   -2.7320    3.4284 H   0  0  0  0  0  0  0  0  0  0  0  0
    5.3929   -2.2496    3.3684 H   0  0  0  0  0  0  0  0  0  0  0  0
    4.3112   -1.5256    4.5735 H   0  0  0  0  0  0  0  0  0  0  0  0
    5.3785   -1.5007    0.5475 N   0  0  0  0  0  0  0  0  0  0  0  0
    5.6008   -1.9688   -0.8159 C   0  0  0  0  0  0  0  0  0  0  0  0
    6.1885   -1.2996    1.1297 H   0  0  0  0  0  0  0  0  0  0  0  0
    5.0930   -2.9249   -0.9825 H   0  0  0  0  0  0  0  0  0  0  0  0
    5.2267   -1.2371   -1.5395 H   0  0  0  0  0  0  0  0  0  0  0  0
    6.6710   -2.1142   -0.9951 H   0  0  0  0  0  0  0  0  0  0  0  0
  1  2  2  0  0  0  0
  1  3  1  0  0  0  0
  1  7  1  0  0  0  0
  3  4  1  0  0  0  0
  3  5  1  0  0  0  0
  3  6  1  0  0  0  0
  7  8  1  0  0  0  0
  7 12  1  0  0  0  0
  8  9  1  0  0  0  0
  8 11  1  0  0  0  0
  8 13  1  0  0  0  0
  9 10  2  0  0  0  0
  9 17  1  0  0  0  0
 11 14  1  0  0  0  0
 11 15  1  0  0  0  0
 11 16  1  0  0  0  0
 17 18  1  0  0  0  0
 17 27  1  0  0  0  0
 18 19  1  0  0  0  0
 18 21  1  0  0  0  0
 18 28  1  0  0  0  0
 19 20  2  0  0  0  0
 19 35  1  0  0  0  0
 21 22  1  0  0  0  0
 21 29  1  0  0  0  0
 21 30  1  0  0  0  0
 22 23  1  0  0  0  0
 22 24  2  0  0  0  0
 23 25  2  0  0  0  0
 23 31  1  0  0  0  0
 24 26  1  0  0  0  0
 24 32  1  0  0  0  0
 25 26  1  0  0  0  0
 25 33  1  0  0  0  0
 26 34  1  0  0  0  0
 35 36  1  0  0  0  0
 35 40  1  0  0  0  0
 36 37  1  0  0  0  0
 36 39  1  0  0  0  0
 36 41  1  0  0  0  0
 37 38  2  0  0  0  0
 37 45  1  0  0  0  0
 39 42  1  0  0  0  0
 39 43  1  0  0  0  0
 39 44  1  0  0  0  0
 45 46  1  0  0  0  0
 45 47  1  0  0  0  0
 46 48  1  0  0  0  0
 46 49  1  0  0  0  0
 46 50  1  0  0  0  0
M  CHG  1  23   1
M  END
$$$$

  -OEChem-05262216443D

 50 50  0     1  0  0  0  0  0999 V2000
   -3.5529    1.2997    1.3426 C   0  0  0  0  0  0  0  0  0  0  0  0
   -2.7496    1.6920    0.5042 O   0  0  0  0  0  0  0  0  0  0  0  0
   -4.8561    0.6576    0.9074 C   0  0  0  0  0  0  0  0  0  0  0  0
   -4.9372    0.6637   -0.1828 H   0  0  0  0  0  0  0  0  0  0  0  0
   -4.9004   -0.3763    1.2588 H   0  0  0  0  0  0  0  0  0  0  0  0
   -5.7014    1.2112    1.3241 H   0  0  0  0  0  0  0  0  0  0  0  0
   -3.2480    1.3928    2.6849 N   0  0  0  0  0  0  0  0  0  0  0  0
   -2.0770    2.0969    3.2329 C   0  0  2  0  0  0  0  0  0  0  0  0
   -0.7619    1.2848    3.1195 C   0  0  0  0  0  0  0  0  0  0  0  0
   -0.1074    0.9830    4.1063 O   0  0  0  0  0  0  0  0  0  0  0  0
   -2.4155    2.4746    4.6813 C   0  0  0  0  0  0  0  0  0  0  0  0
   -3.9366    1.0320    3.3416 H   0  0  0  0  0  0  0  0  0  0  0  0
   -1.9230    3.0285    2.6780 H   0  0  0  0  0  0  0  0  0  0  0  0
   -2.5758    1.5774    5.2880 H   0  0  0  0  0  0  0  0  0  0  0  0
   -1.5953    3.0479    5.1260 H   0  0  0  0  0  0  0  0  0  0  0  0
   -3.3204    3.0893    4.7166 H   0  0  0  0  0  0  0  0  0  0  0  0
   -0.3380    0.8726    1.8675 N   0  0  0  0  0  0  0  0  0  0  0  0
    1.0451    0.5185    1.4927 C   0  0  2  0  0  0  0  0  0  0  0  0
    2.2113    0.5787    2.5064 C   0  0  0  0  0  0  0  0  0  0  0  0
    2.8798    1.6034    2.5748 O   0  0  0  0  0  0  0  0  0  0  0  0
    1.4432    1.2988    0.2243 C   0  0  0  0  0  0  0  0  0  0  0  0
    0.5937    0.8744   -0.9340 C   0  0  0  0  0  0  0  0  0  0  0  0
    0.8059   -0.3464   -1.5685 N   0  3  0  0  0  0  0  0  0  0  0  0
   -0.4467    1.5109   -1.5546 C   0  0  0  0  0  0  0  0  0  0  0  0
   -0.0580   -0.4977   -2.5419 C   0  0  0  0  0  0  0  0  0  0  0  0
   -0.8609    0.6449   -2.5607 N   0  0  0  0  0  0  0  0  0  0  0  0
   -0.9755    1.1389    1.1142 H   0  0  0  0  0  0  0  0  0  0  0  0
    0.9846   -0.5378    1.2160 H   0  0  0  0  0  0  0  0  0  0  0  0
    2.4984    1.1403   -0.0214 H   0  0  0  0  0  0  0  0  0  0  0  0
    1.3198    2.3710    0.4135 H   0  0  0  0  0  0  0  0  0  0  0  0
    1.5552   -0.9925   -1.2744 H   0  0  0  0  0  0  0  0  0  0  0  0
   -0.8751    2.4779   -1.2859 H   0  0  0  0  0  0  0  0  0  0  0  0
   -0.1318   -1.3570   -3.2097 H   0  0  0  0  0  0  0  0  0  0  0  0
   -1.6427    0.8166   -3.1988 H   0  0  0  0  0  0  0  0  0  0  0  0
    2.8516   -0.6302    2.7173 N   0  0  0  0  0  0  0  0  0  0  0  0
    4.2092   -0.8519    2.1994 C   0  0  2  0  0  0  0  0  0  0  0  0
    4.2287   -1.1977    0.6849 C   0  0  0  0  0  0  0  0  0  0  0  0
    3.1887   -1.3714    0.0394 O   0  0  0  0  0  0  0  0  0  0  0  0
    4.8276   -1.9830    3.0262 C   0  0  0  0  0  0  0  0  0  0  0  0
    2.2297   -1.4302    2.6421 H   0  0  0  0  0  0  0  0  0  0  0  0
    4.8164    0.0486    2.3470 H   0  0  0  0  0  0  0  0  0  0  0  0
    4.2656   -2.9126    2.8912 H   0  0  0  0  0  0  0  0  0  0  0  0
    5.8657   -2.1582    2.7280 H   0  0  0  0  0  0  0  0  0  0  0  0
    4.8172   -1.7218    4.0898 H   0  0  0  0  0  0  0  0  0  0  0  0
    5.4369   -1.2785    0.0196 N   0  0  0  0  0  0  0  0  0  0  0  0
    5.5714   -1.5905   -1.3986 C   0  0  0  0  0  0  0  0  0  0  0  0
    6.2815   -1.1106    0.5620 H   0  0  0  0  0  0  0  0  0  0  0  0
    5.0732   -2.5368   -1.6342 H   0  0  0  0  0  0  0  0  0  0  0  0
    5.1313   -0.7961   -2.0100 H   0  0  0  0  0  0  0  0  0  0  0  0
    6.6290   -1.6857   -1.6651 H   0  0  0  0  0  0  0  0  0  0  0  0
  1  2  2  0  0  0  0
  1  3  1  0  0  0  0
  1  7  1  0  0  0  0
  3  4  1  0  0  0  0
  3  5  1  0  0  0  0
  3  6  1  0  0  0  0
  7  8  1  0  0  0  0
  7 12  1  0  0  0  0
  8  9  1  0  0  0  0
  8 11  1  0  0  0  0
  8 13  1  0  0  0  0
  9 10  2  0  0  0  0
  9 17  1  0  0  0  0
 11 14  1  0  0  0  0
 11 15  1  0  0  0  0
 11 16  1  0  0  0  0
 17 18  1  0  0  0  0
 17 27  1  0  0  0  0
 18 19  1  0  0  0  0
 18 21  1  0  0  0  0
 18 28  1  0  0  0  0
 19 20  2  0  0  0  0
 19 35  1  0  0  0  0
 21 22  1  0  0  0  0
 21 29  1  0  0  0  0
 21 30  1  0  0  0  0
 22 23  1  0  0  0  0
 22 24  2  0  0  0  0
 23 25  2  0  0  0  0
 23 31  1  0  0  0  0
 24 26  1  0  0  0  0
 24 32  1  0  0  0  0
 25 26  1  0  0  0  0
 25 33  1  0  0  0  0
 26 34  1  0  0  0  0
 35 36  1  0  0  0  0
 35 40  1  0  0  0  0
 36 37  1  0  0  0  0
 36 39  1  0  0  0  0
 36 41  1  0  0  0  0
 37 38  2  0  0  0  0
 37 45  1  0  0  0  0
 39 42  1  0  0  0  0
 39 43  1  0  0  0  0
 39 44  1  0  0  0  0
 45 46  1  0  0  0  0
 45 47  1  0  0  0  0
 46 48  1  0  0  0  0
 46 49  1  0  0  0  0
 46 50  1  0  0  0  0
M  CHG  1  23   1
M  END
$$$$

  -OEChem-05262216443D

 50 50  0     1  0  0  0  0  0999 V2000
   -3.5347    1.4466    1.4351 C   0  0  0  0  0  0  0  0  0  0  0  0
   -2.6668    1.8847    0.6893 O   0  0  0  0  0  0  0  0  0  0  0  0
   -4.8855    1.0416    0.8776 C   0  0  0  0  0  0  0  0  0  0  0  0
   -4.9371    1.2638   -0.1918 H   0  0  0  0  0  0  0  0  0  0  0  0
   -5.0458   -0.0297    1.0237 H   0  0  0  0  0  0  0  0  0  0  0  0
   -5.6795    1.5930    1.3878 H   0  0  0  0  0  0  0  0  0  0  0  0
   -3.2648    1.2788    2.7771 N   0  0  0  0  0  0  0  0  0  0  0  0
   -2.0464    1.7566    3.4503 C   0  0  2  0  0  0  0  0  0  0  0  0
   -0.8183    0.8375    3.2293 C   0  0  0  0  0  0  0  0  0  0  0  0
   -0.2473    0.2961    4.1648 O   0  0  0  0  0  0  0  0  0  0  0  0
   -2.3920    1.9338    4.9350 C   0  0  0  0  0  0  0  0  0  0  0  0
   -4.0071    0.8904    3.3546 H   0  0  0  0  0  0  0  0  0  0  0  0
   -1.7781    2.7428    3.0561 H   0  0  0  0  0  0  0  0  0  0  0  0
   -2.6568    0.9727    5.3880 H   0  0  0  0  0  0  0  0  0  0  0  0
   -1.5341    2.3445    5.4779 H   0  0  0  0  0  0  0  0  0  0  0  0
   -3.2341    2.6224    5.0549 H   0  0  0  0  0  0  0  0  0  0  0  0
   -0.3795    0.5923    1.9386 N   0  0  0  0  0  0  0  0  0  0  0  0
    1.0179    0.2850    1.5709 C   0  0  2  0  0  0  0  0  0  0  0  0
    2.1518    0.2111    2.6196 C   0  0  0  0  0  0  0  0  0  0  0  0
    2.6568    1.2617    2.9963 O   0  0  0  0  0  0  0  0  0  0  0  0
    1.4497    1.2727    0.4662 C   0  0  0  0  0  0  0  0  0  0  0  0
    0.6459    1.0616   -0.7802 C   0  0  0  0  0  0  0  0  0  0  0  0
    0.8920   -0.0293   -1.6094 N   0  3  0  0  0  0  0  0  0  0  0  0
   -0.3722    1.7971   -1.3233 C   0  0  0  0  0  0  0  0  0  0  0  0
    0.0721   -0.0064   -2.6309 C   0  0  0  0  0  0  0  0  0  0  0  0
   -0.7396    1.1201   -2.4809 N   0  0  0  0  0  0  0  0  0  0  0  0
   -0.9577    1.0446    1.2278 H   0  0  0  0  0  0  0  0  0  0  0  0
    0.9795   -0.7162    1.1324 H   0  0  0  0  0  0  0  0  0  0  0  0
    2.5141    1.1771    0.2371 H   0  0  0  0  0  0  0  0  0  0  0  0
    1.3042    2.2948    0.8342 H   0  0  0  0  0  0  0  0  0  0  0  0
    1.6486   -0.7040   -1.4151 H   0  0  0  0  0  0  0  0  0  0  0  0
   -0.8164    2.7040   -0.9092 H   0  0  0  0  0  0  0  0  0  0  0  0
    0.0376   -0.7315   -3.4455 H   0  0  0  0  0  0  0  0  0  0  0  0
   -1.4930    1.4033   -3.1136 H   0  0  0  0  0  0  0  0  0  0  0  0
    2.9852   -0.8855    2.4711 N   0  0  0  0  0  0  0  0  0  0  0  0
    4.3430   -0.7564    1.9238 C   0  0  2  0  0  0  0  0  0  0  0  0
    4.3716   -0.9389    0.3822 C   0  0  0  0  0  0  0  0  0  0  0  0
    3.3407   -1.1695   -0.2603 O   0  0  0  0  0  0  0  0  0  0  0  0
    5.2124   -1.8064    2.6211 C   0  0  0  0  0  0  0  0  0  0  0  0
    2.4906   -1.7189    2.1637 H   0  0  0  0  0  0  0  0  0  0  0  0
    4.7540    0.2334    2.1522 H   0  0  0  0  0  0  0  0  0  0  0  0
    4.8566   -2.8164    2.3930 H   0  0  0  0  0  0  0  0  0  0  0  0
    6.2549   -1.7229    2.2993 H   0  0  0  0  0  0  0  0  0  0  0  0
    5.1776   -1.6627    3.7063 H   0  0  0  0  0  0  0  0  0  0  0  0
    5.5559   -0.7731   -0.3095 N   0  0  0  0  0  0  0  0  0  0  0  0
    5.6849   -0.9185   -1.7552 C   0  0  0  0  0  0  0  0  0  0  0  0
    6.3933   -0.5791    0.2357 H   0  0  0  0  0  0  0  0  0  0  0  0
    5.3647   -1.9167   -2.0722 H   0  0  0  0  0  0  0  0  0  0  0  0
    5.0763   -0.1698   -2.2728 H   0  0  0  0  0  0  0  0  0  0  0  0
    6.7284   -0.7814   -2.0564 H   0  0  0  0  0  0  0  0  0  0  0  0
  1  2  2  0  0  0  0
  1  3  1  0  0  0  0
  1  7  1  0  0  0  0
  3  4  1  0  0  0  0
  3  5  1  0  0  0  0
  3  6  1  0  0  0  0
  7  8  1  0  0  0  0
  7 12  1  0  0  0  0
  8  9  1  0  0  0  0
  8 11  1  0  0  0  0
  8 13  1  0  0  0  0
  9 10  2  0  0  0  0
  9 17  1  0  0  0  0
 11 14  1  0  0  0  0
 11 15  1  0  0  0  0
 11 16  1  0  0  0  0
 17 18  1  0  0  0  0
 17 27  1  0  0  0  0
 18 19  1  0  0  0  0
 18 21  1  0  0  0  0
 18 28  1  0  0  0  0
 19 20  2  0  0  0  0
 19 35  1  0  0  0  0
 21 22  1  0  0  0  0
 21 29  1  0  0  0  0
 21 30  1  0  0  0  0
 22 23  1  0  0  0  0
 22 24  2  0  0  0  0
 23 25  2  0  0  0  0
 23 31  1  0  0  0  0
 24 26  1  0  0  0  0
 24 32  1  0  0  0  0
 25 26  1  0  0  0  0
 25 33  1  0  0  0  0
 26 34  1  0  0  0  0
 35 36  1  0  0  0  0
 35 40  1  0  0  0  0
 36 37  1  0  0  0  0
 36 39  1  0  0  0  0
 36 41  1  0  0  0  0
 37 38  2  0  0  0  0
 37 45  1  0  0  0  0
 39 42  1  0  0  0  0
 39 43  1  0  0  0  0
 39 44  1  0  0  0  0
 45 46  1  0  0  0  0
 45 47  1  0  0  0  0
 46 48  1  0  0  0  0
 46 49  1  0  0  0  0
 46 50  1  0  0  0  0
M  CHG  1  23   1
M  END
$$$$

  -OEChem-05262216443D

 50 50  0     1  0  0  0  0  0999 V2000
   -3.6467    1.3949    1.5276 C   0  0  0  0  0  0  0  0  0  0  0  0
   -2.8506    1.7560    0.6682 O   0  0  0  0  0  0  0  0  0  0  0  0
   -5.0591    0.9978    1.1441 C   0  0  0  0  0  0  0  0  0  0  0  0
   -5.2093    1.1190    0.0680 H   0  0  0  0  0  0  0  0  0  0  0  0
   -5.2388   -0.0472    1.4094 H   0  0  0  0  0  0  0  0  0  0  0  0
   -5.7801    1.6274    1.6717 H   0  0  0  0  0  0  0  0  0  0  0  0
   -3.2380    1.2996    2.8408 N   0  0  0  0  0  0  0  0  0  0  0  0
   -1.9066    1.6867    3.3314 C   0  0  2  0  0  0  0  0  0  0  0  0
   -0.8188    0.6284    3.0228 C   0  0  0  0  0  0  0  0  0  0  0  0
   -0.3120   -0.0424    3.9107 O   0  0  0  0  0  0  0  0  0  0  0  0
   -2.0403    1.9755    4.8328 C   0  0  0  0  0  0  0  0  0  0  0  0
   -3.9120    0.9440    3.5154 H   0  0  0  0  0  0  0  0  0  0  0  0
   -1.5946    2.6175    2.8458 H   0  0  0  0  0  0  0  0  0  0  0  0
   -2.3534    1.0768    5.3744 H   0  0  0  0  0  0  0  0  0  0  0  0
   -1.0795    2.3054    5.2420 H   0  0  0  0  0  0  0  0  0  0  0  0
   -2.7776    2.7651    5.0080 H   0  0  0  0  0  0  0  0  0  0  0  0
   -0.5097    0.3342    1.7035 N   0  0  0  0  0  0  0  0  0  0  0  0
    0.8389   -0.0316    1.2131 C   0  0  2  0  0  0  0  0  0  0  0  0
    2.0171   -0.0927    2.2189 C   0  0  0  0  0  0  0  0  0  0  0  0
    2.3220    0.9366    2.8106 O   0  0  0  0  0  0  0  0  0  0  0  0
    1.2276    0.9950    0.1268 C   0  0  0  0  0  0  0  0  0  0  0  0
    0.3256    0.9305   -1.0772 C   0  0  0  0  0  0  0  0  0  0  0  0
    0.3591   -0.0621   -2.0564 N   0  3  0  0  0  0  0  0  0  0  0  0
   -0.6540    1.8239   -1.4239 C   0  0  0  0  0  0  0  0  0  0  0  0
   -0.5482    0.1759   -2.9726 C   0  0  0  0  0  0  0  0  0  0  0  0
   -1.2108    1.3449   -2.6022 N   0  0  0  0  0  0  0  0  0  0  0  0
   -1.1091    0.8356    1.0457 H   0  0  0  0  0  0  0  0  0  0  0  0
    0.7627   -1.0273    0.7676 H   0  0  0  0  0  0  0  0  0  0  0  0
    2.2595    0.8330   -0.1988 H   0  0  0  0  0  0  0  0  0  0  0  0
    1.1912    1.9995    0.5642 H   0  0  0  0  0  0  0  0  0  0  0  0
    1.0464   -0.8218   -2.0532 H   0  0  0  0  0  0  0  0  0  0  0  0
   -0.9537    2.7120   -0.8648 H   0  0  0  0  0  0  0  0  0  0  0  0
   -0.7423   -0.4245   -3.8631 H   0  0  0  0  0  0  0  0  0  0  0  0
   -1.9897    1.7793   -3.1054 H   0  0  0  0  0  0  0  0  0  0  0  0
    3.0272   -0.9980    1.9417 N   0  0  0  0  0  0  0  0  0  0  0  0
    4.4585   -0.6670    1.9873 C   0  0  2  0  0  0  0  0  0  0  0  0
    5.0048   -0.4160    0.5635 C   0  0  0  0  0  0  0  0  0  0  0  0
    4.3114   -0.6798   -0.4192 O   0  0  0  0  0  0  0  0  0  0  0  0
    5.1836   -1.8380    2.6553 C   0  0  0  0  0  0  0  0  0  0  0  0
    2.7777   -1.7227    1.2747 H   0  0  0  0  0  0  0  0  0  0  0  0
    4.6374    0.2342    2.5835 H   0  0  0  0  0  0  0  0  0  0  0  0
    5.0563   -2.7549    2.0710 H   0  0  0  0  0  0  0  0  0  0  0  0
    6.2537   -1.6283    2.7451 H   0  0  0  0  0  0  0  0  0  0  0  0
    4.7813   -2.0061    3.6597 H   0  0  0  0  0  0  0  0  0  0  0  0
    6.2685    0.1107    0.3784 N   0  0  0  0  0  0  0  0  0  0  0  0
    6.8664    0.3302   -0.9336 C   0  0  0  0  0  0  0  0  0  0  0  0
    6.8201    0.3151    1.2079 H   0  0  0  0  0  0  0  0  0  0  0  0
    6.9632   -0.6174   -1.4741 H   0  0  0  0  0  0  0  0  0  0  0  0
    6.2513    1.0143   -1.5275 H   0  0  0  0  0  0  0  0  0  0  0  0
    7.8632    0.7690   -0.8272 H   0  0  0  0  0  0  0  0  0  0  0  0
  1  2  2  0  0  0  0
  1  3  1  0  0  0  0
  1  7  1  0  0  0  0
  3  4  1  0  0  0  0
  3  5  1  0  0  0  0
  3  6  1  0  0  0  0
  7  8  1  0  0  0  0
  7 12  1  0  0  0  0
  8  9  1  0  0  0  0
  8 11  1  0  0  0  0
  8 13  1  0  0  0  0
  9 10  2  0  0  0  0
  9 17  1  0  0  0  0
 11 14  1  0  0  0  0
 11 15  1  0  0  0  0
 11 16  1  0  0  0  0
 17 18  1  0  0  0  0
 17 27  1  0  0  0  0
 18 19  1  0  0  0  0
 18 21  1  0  0  0  0
 18 28  1  0  0  0  0
 19 20  2  0  0  0  0
 19 35  1  0  0  0  0
 21 22  1  0  0  0  0
 21 29  1  0  0  0  0
 21 30  1  0  0  0  0
 22 23  1  0  0  0  0
 22 24  2  0  0  0  0
 23 25  2  0  0  0  0
 23 31  1  0  0  0  0
 24 26  1  0  0  0  0
 24 32  1  0  0  0  0
 25 26  1  0  0  0  0
 25 33  1  0  0  0  0
 26 34  1  0  0  0  0
 35 36  1  0  0  0  0
 35 40  1  0  0  0  0
 36 37  1  0  0  0  0
 36 39  1  0  0  0  0
 36 41  1  0  0  0  0
 37 38  2  0  0  0  0
 37 45  1  0  0  0  0
 39 42  1  0  0  0  0
 39 43  1  0  0  0  0
 39 44  1  0  0  0  0
 45 46  1  0  0  0  0
 45 47  1  0  0  0  0
 46 48  1  0  0  0  0
 46 49  1  0  0  0  0
 46 50  1  0  0  0  0
M  CHG  1  23   1
M  END
$$$$

  -OEChem-05262216443D

 50 50  0     1  0  0  0  0  0999 V2000
   -2.9244   -0.6021    1.6529 C   0  0  0  0  0  0  0  0  0  0  0  0
   -2.8179   -0.2741    0.4781 O   0  0  0  0  0  0  0  0  0  0  0  0
   -3.1879   -2.0490    2.0210 C   0  0  0  0  0  0  0  0  0  0  0  0
   -3.2870   -2.6573    1.1177 H   0  0  0  0  0  0  0  0  0  0  0  0
   -2.3623   -2.4398    2.6210 H   0  0  0  0  0  0  0  0  0  0  0  0
   -4.1136   -2.1245    2.5969 H   0  0  0  0  0  0  0  0  0  0  0  0
   -2.7318    0.3376    2.6444 N   0  0  0  0  0  0  0  0  0  0  0  0
   -2.5754    1.7830    2.4123 C   0  0  2  0  0  0  0  0  0  0  0  0
   -1.1755    2.1688    1.8742 C   0  0  0  0  0  0  0  0  0  0  0  0
   -0.6043    3.1891    2.2312 O   0  0  0  0  0  0  0  0  0  0  0  0
   -2.9019    2.4847    3.7366 C   0  0  0  0  0  0  0  0  0  0  0  0
   -2.7850    0.0125    3.6070 H   0  0  0  0  0  0  0  0  0  0  0  0
   -3.3088    2.1101    1.6673 H   0  0  0  0  0  0  0  0  0  0  0  0
   -2.1713    2.2120    4.5054 H   0  0  0  0  0  0  0  0  0  0  0  0
   -2.8766    3.5720    3.6092 H   0  0  0  0  0  0  0  0  0  0  0  0
   -3.9011    2.2051    4.0844 H   0  0  0  0  0  0  0  0  0  0  0  0
   -0.7012    1.5921    0.7124 N   0  0  0  0  0  0  0  0  0  0  0  0
    0.5597    0.8210    0.6244 C   0  0  2  0  0  0  0  0  0  0  0  0
    1.4634    0.5877    1.8692 C   0  0  0  0  0  0  0  0  0  0  0  0
    1.3446    1.1644    2.9363 O   0  0  0  0  0  0  0  0  0  0  0  0
    1.4235    1.6315   -0.3654 C   0  0  0  0  0  0  0  0  0  0  0  0
    0.8149    1.6771   -1.7455 C   0  0  0  0  0  0  0  0  0  0  0  0
    0.7806    0.6600   -2.7004 N   0  3  0  0  0  0  0  0  0  0  0  0
    0.1757    2.7672   -2.2771 C   0  0  0  0  0  0  0  0  0  0  0  0
    0.1568    1.0737   -3.7778 C   0  0  0  0  0  0  0  0  0  0  0  0
   -0.2389    2.3901   -3.5477 N   0  0  0  0  0  0  0  0  0  0  0  0
   -1.4724    1.0728    0.2834 H   0  0  0  0  0  0  0  0  0  0  0  0
    0.3251   -0.1674    0.2183 H   0  0  0  0  0  0  0  0  0  0  0  0
    2.4309    1.2078   -0.4431 H   0  0  0  0  0  0  0  0  0  0  0  0
    1.5376    2.6502    0.0270 H   0  0  0  0  0  0  0  0  0  0  0  0
    1.2118   -0.2565   -2.5571 H   0  0  0  0  0  0  0  0  0  0  0  0
    0.0189    3.7240   -1.7760 H   0  0  0  0  0  0  0  0  0  0  0  0
   -0.0181    0.4965   -4.6877 H   0  0  0  0  0  0  0  0  0  0  0  0
   -0.7551    2.9848   -4.2029 H   0  0  0  0  0  0  0  0  0  0  0  0
    2.4357   -0.3908    1.7723 N   0  0  0  0  0  0  0  0  0  0  0  0
    3.6831   -0.3454    2.5491 C   0  0  2  0  0  0  0  0  0  0  0  0
    4.8735   -0.0780    1.6020 C   0  0  0  0  0  0  0  0  0  0  0  0
    4.6922   -0.1024    0.3854 O   0  0  0  0  0  0  0  0  0  0  0  0
    3.8417   -1.6822    3.2766 C   0  0  0  0  0  0  0  0  0  0  0  0
    2.5524   -0.7839    0.8416 H   0  0  0  0  0  0  0  0  0  0  0  0
    3.6611    0.4598    3.2919 H   0  0  0  0  0  0  0  0  0  0  0  0
    3.9007   -2.5071    2.5596 H   0  0  0  0  0  0  0  0  0  0  0  0
    4.7516   -1.6841    3.8846 H   0  0  0  0  0  0  0  0  0  0  0  0
    2.9869   -1.8546    3.9381 H   0  0  0  0  0  0  0  0  0  0  0  0
    6.1322    0.1974    2.1002 N   0  0  0  0  0  0  0  0  0  0  0  0
    7.2925    0.4542    1.2543 C   0  0  0  0  0  0  0  0  0  0  0  0
    6.2449    0.2323    3.1102 H   0  0  0  0  0  0  0  0  0  0  0  0
    7.4953   -0.4072    0.6087 H   0  0  0  0  0  0  0  0  0  0  0  0
    7.1224    1.3343    0.6249 H   0  0  0  0  0  0  0  0  0  0  0  0
    8.1779    0.6377    1.8714 H   0  0  0  0  0  0  0  0  0  0  0  0
  1  2  2  0  0  0  0
  1  3  1  0  0  0  0
  1  7  1  0  0  0  0
  3  4  1  0  0  0  0
  3  5  1  0  0  0  0
  3  6  1  0  0  0  0
  7  8  1  0  0  0  0
  7 12  1  0  0  0  0
  8  9  1  0  0  0  0
  8 11  1  0  0  0  0
  8 13  1  0  0  0  0
  9 10  2  0  0  0  0
  9 17  1  0  0  0  0
 11 14  1  0  0  0  0
 11 15  1  0  0  0  0
 11 16  1  0  0  0  0
 17 18  1  0  0  0  0
 17 27  1  0  0  0  0
 18 19  1  0  0  0  0
 18 21  1  0  0  0  0
 18 28  1  0  0  0  0
 19 20  2  0  0  0  0
 19 35  1  0  0  0  0
 21 22  1  0  0  0  0
 21 29  1  0  0  0  0
 21 30  1  0  0  0  0
 22 23  1  0  0  0  0
 22 24  2  0  0  0  0
 23 25  2  0  0  0  0
 23 31  1  0  0  0  0
 24 26  1  0  0  0  0
 24 32  1  0  0  0  0
 25 26  1  0  0  0  0
 25 33  1  0  0  0  0
 26 34  1  0  0  0  0
 35 36  1  0  0  0  0
 35 40  1  0  0  0  0
 36 37  1  0  0  0  0
 36 39  1  0  0  0  0
 36 41  1  0  0  0  0
 37 38  2  0  0  0  0
 37 45  1  0  0  0  0
 39 42  1  0  0  0  0
 39 43  1  0  0  0  0
 39 44  1  0  0  0  0
 45 46  1  0  0  0  0
 45 47  1  0  0  0  0
 46 48  1  0  0  0  0
 46 49  1  0  0  0  0
 46 50  1  0  0  0  0
M  CHG  1  23   1
M  END
$$$$

  -OEChem-05262216443D

 50 50  0     1  0  0  0  0  0999 V2000
   -2.8556   -0.4428    1.9439 C   0  0  0  0  0  0  0  0  0  0  0  0
   -3.0126   -0.0770    0.7854 O   0  0  0  0  0  0  0  0  0  0  0  0
   -2.8973   -1.9181    2.2905 C   0  0  0  0  0  0  0  0  0  0  0  0
   -3.1934   -2.5037    1.4159 H   0  0  0  0  0  0  0  0  0  0  0  0
   -1.9106   -2.2515    2.6221 H   0  0  0  0  0  0  0  0  0  0  0  0
   -3.6210   -2.0934    3.0902 H   0  0  0  0  0  0  0  0  0  0  0  0
   -2.5406    0.4846    2.9152 N   0  0  0  0  0  0  0  0  0  0  0  0
   -2.3366    1.9168    2.6526 C   0  0  2  0  0  0  0  0  0  0  0  0
   -0.9904    2.1814    1.9378 C   0  0  0  0  0  0  0  0  0  0  0  0
   -0.1379    2.9460    2.3733 O   0  0  0  0  0  0  0  0  0  0  0  0
   -2.4432    2.6462    3.9968 C   0  0  0  0  0  0  0  0  0  0  0  0
   -2.2021    0.1140    3.8009 H   0  0  0  0  0  0  0  0  0  0  0  0
   -3.1364    2.2875    2.0028 H   0  0  0  0  0  0  0  0  0  0  0  0
   -1.6459    2.3230    4.6745 H   0  0  0  0  0  0  0  0  0  0  0  0
   -2.3543    3.7274    3.8505 H   0  0  0  0  0  0  0  0  0  0  0  0
   -3.4092    2.4411    4.4686 H   0  0  0  0  0  0  0  0  0  0  0  0
   -0.7401    1.6326    0.6934 N   0  0  0  0  0  0  0  0  0  0  0  0
    0.4557    0.7999    0.4269 C   0  0  2  0  0  0  0  0  0  0  0  0
    1.2588    0.2286    1.6341 C   0  0  0  0  0  0  0  0  0  0  0  0
    0.7660    0.0963    2.7473 O   0  0  0  0  0  0  0  0  0  0  0  0
    1.4008    1.7196   -0.3791 C   0  0  0  0  0  0  0  0  0  0  0  0
    0.8061    2.1026   -1.7123 C   0  0  0  0  0  0  0  0  0  0  0  0
    0.6871    1.3109   -2.8558 N   0  3  0  0  0  0  0  0  0  0  0  0
    0.2805    3.3348   -2.0051 C   0  0  0  0  0  0  0  0  0  0  0  0
    0.1162    1.9933   -3.8198 C   0  0  0  0  0  0  0  0  0  0  0  0
   -0.1537    3.2670   -3.3226 N   0  0  0  0  0  0  0  0  0  0  0  0
   -1.5974    1.1811    0.3595 H   0  0  0  0  0  0  0  0  0  0  0  0
    0.1543   -0.0607   -0.1777 H   0  0  0  0  0  0  0  0  0  0  0  0
    2.3669    1.2366   -0.5584 H   0  0  0  0  0  0  0  0  0  0  0  0
    1.6025    2.6212    0.2130 H   0  0  0  0  0  0  0  0  0  0  0  0
    1.0116    0.3418   -2.9031 H   0  0  0  0  0  0  0  0  0  0  0  0
    0.2118    4.1808   -1.3191 H   0  0  0  0  0  0  0  0  0  0  0  0
   -0.1077    1.6317   -4.8253 H   0  0  0  0  0  0  0  0  0  0  0  0
   -0.6052    4.0287   -3.8379 H   0  0  0  0  0  0  0  0  0  0  0  0
    2.3745   -0.5433    1.3726 N   0  0  0  0  0  0  0  0  0  0  0  0
    3.3485   -0.9311    2.4005 C   0  0  2  0  0  0  0  0  0  0  0  0
    4.7749   -0.6435    1.8837 C   0  0  0  0  0  0  0  0  0  0  0  0
    4.9265   -0.2860    0.7171 O   0  0  0  0  0  0  0  0  0  0  0  0
    3.1563   -2.4156    2.7214 C   0  0  0  0  0  0  0  0  0  0  0  0
    2.7844   -0.4351    0.4464 H   0  0  0  0  0  0  0  0  0  0  0  0
    3.2016   -0.3422    3.3131 H   0  0  0  0  0  0  0  0  0  0  0  0
    3.3177   -3.0274    1.8280 H   0  0  0  0  0  0  0  0  0  0  0  0
    3.8599   -2.7365    3.4956 H   0  0  0  0  0  0  0  0  0  0  0  0
    2.1394   -2.5925    3.0864 H   0  0  0  0  0  0  0  0  0  0  0  0
    5.8735   -0.7479    2.7148 N   0  0  0  0  0  0  0  0  0  0  0  0
    7.2354   -0.4573    2.2799 C   0  0  0  0  0  0  0  0  0  0  0  0
    5.7148   -1.0219    3.6808 H   0  0  0  0  0  0  0  0  0  0  0  0
    7.5310   -1.1300    1.4676 H   0  0  0  0  0  0  0  0  0  0  0  0
    7.3140    0.5764    1.9265 H   0  0  0  0  0  0  0  0  0  0  0  0
    7.9355   -0.5912    3.1106 H   0  0  0  0  0  0  0  0  0  0  0  0
  1  2  2  0  0  0  0
  1  3  1  0  0  0  0
  1  7  1  0  0  0  0
  3  4  1  0  0  0  0
  3  5  1  0  0  0  0
  3  6  1  0  0  0  0
  7  8  1  0  0  0  0
  7 12  1  0  0  0  0
  8  9  1  0  0  0  0
  8 11  1  0  0  0  0
  8 13  1  0  0  0  0
  9 10  2  0  0  0  0
  9 17  1  0  0  0  0
 11 14  1  0  0  0  0
 11 15  1  0  0  0  0
 11 16  1  0  0  0  0
 17 18  1  0  0  0  0
 17 27  1  0  0  0  0
 18 19  1  0  0  0  0
 18 21  1  0  0  0  0
 18 28  1  0  0  0  0
 19 20  2  0  0  0  0
 19 35  1  0  0  0  0
 21 22  1  0  0  0  0
 21 29  1  0  0  0  0
 21 30  1  0  0  0  0
 22 23  1  0  0  0  0
 22 24  2  0  0  0  0
 23 25  2  0  0  0  0
 23 31  1  0  0  0  0
 24 26  1  0  0  0  0
 24 32  1  0  0  0  0
 25 26  1  0  0  0  0
 25 33  1  0  0  0  0
 26 34  1  0  0  0  0
 35 36  1  0  0  0  0
 35 40  1  0  0  0  0
 36 37  1  0  0  0  0
 36 39  1  0  0  0  0
 36 41  1  0  0  0  0
 37 38  2  0  0  0  0
 37 45  1  0  0  0  0
 39 42  1  0  0  0  0
 39 43  1  0  0  0  0
 39 44  1  0  0  0  0
 45 46  1  0  0  0  0
 45 47  1  0  0  0  0
 46 48  1  0  0  0  0
 46 49  1  0  0  0  0
 46 50  1  0  0  0  0
M  CHG  1  23   1
M  END
$$$$

  -OEChem-05262216443D

 50 50  0     1  0  0  0  0  0999 V2000
   -2.9908   -0.2660    2.0903 C   0  0  0  0  0  0  0  0  0  0  0  0
   -3.1429    0.1464    0.9467 O   0  0  0  0  0  0  0  0  0  0  0  0
   -3.2218   -1.7292    2.4143 C   0  0  0  0  0  0  0  0  0  0  0  0
   -3.5667   -2.2646    1.5254 H   0  0  0  0  0  0  0  0  0  0  0  0
   -2.2912   -2.1849    2.7625 H   0  0  0  0  0  0  0  0  0  0  0  0
   -3.9796   -1.8229    3.1963 H   0  0  0  0  0  0  0  0  0  0  0  0
   -2.5248    0.5901    3.0664 N   0  0  0  0  0  0  0  0  0  0  0  0
   -2.1595    1.9952    2.8312 C   0  0  2  0  0  0  0  0  0  0  0  0
   -0.8210    2.1232    2.0654 C   0  0  0  0  0  0  0  0  0  0  0  0
    0.1313    2.7693    2.4870 O   0  0  0  0  0  0  0  0  0  0  0  0
   -2.1270    2.6913    4.1972 C   0  0  0  0  0  0  0  0  0  0  0  0
   -2.2263    0.1618    3.9402 H   0  0  0  0  0  0  0  0  0  0  0  0
   -2.9333    2.4778    2.2252 H   0  0  0  0  0  0  0  0  0  0  0  0
   -1.3613    2.2443    4.8400 H   0  0  0  0  0  0  0  0  0  0  0  0
   -1.8976    3.7552    4.0779 H   0  0  0  0  0  0  0  0  0  0  0  0
   -3.0976    2.6026    4.6949 H   0  0  0  0  0  0  0  0  0  0  0  0
   -0.6943    1.5877    0.7957 N   0  0  0  0  0  0  0  0  0  0  0  0
    0.4476    0.7251    0.4139 C   0  0  2  0  0  0  0  0  0  0  0  0
    1.3061    0.1332    1.5725 C   0  0  0  0  0  0  0  0  0  0  0  0
    0.7714   -0.2145    2.6197 O   0  0  0  0  0  0  0  0  0  0  0  0
    1.3303    1.6136   -0.4909 C   0  0  0  0  0  0  0  0  0  0  0  0
    0.6063    2.0010   -1.7576 C   0  0  0  0  0  0  0  0  0  0  0  0
    0.3483    1.2009   -2.8722 N   0  3  0  0  0  0  0  0  0  0  0  0
    0.0898    3.2454   -2.0131 C   0  0  0  0  0  0  0  0  0  0  0  0
   -0.3033    1.8875   -3.7804 C   0  0  0  0  0  0  0  0  0  0  0  0
   -0.4821    3.1748   -3.2770 N   0  0  0  0  0  0  0  0  0  0  0  0
   -1.5965    1.1969    0.5064 H   0  0  0  0  0  0  0  0  0  0  0  0
    0.0709   -0.1309   -0.1534 H   0  0  0  0  0  0  0  0  0  0  0  0
    2.2544    1.1003   -0.7722 H   0  0  0  0  0  0  0  0  0  0  0  0
    1.6195    2.5121    0.0687 H   0  0  0  0  0  0  0  0  0  0  0  0
    0.6308    0.2195   -2.9349 H   0  0  0  0  0  0  0  0  0  0  0  0
    0.1194    4.1024   -1.3385 H   0  0  0  0  0  0  0  0  0  0  0  0
   -0.6448    1.5200   -4.7501 H   0  0  0  0  0  0  0  0  0  0  0  0
   -0.9651    3.9430   -3.7527 H   0  0  0  0  0  0  0  0  0  0  0  0
    2.5500   -0.4103    1.3091 N   0  0  0  0  0  0  0  0  0  0  0  0
    3.4882   -0.8316    2.3572 C   0  0  2  0  0  0  0  0  0  0  0  0
    4.8959   -0.2840    2.0405 C   0  0  0  0  0  0  0  0  0  0  0  0
    5.1085    0.2189    0.9395 O   0  0  0  0  0  0  0  0  0  0  0  0
    3.4909   -2.3609    2.4211 C   0  0  0  0  0  0  0  0  0  0  0  0
    3.0098   -0.0900    0.4586 H   0  0  0  0  0  0  0  0  0  0  0  0
    3.1864   -0.4271    3.3298 H   0  0  0  0  0  0  0  0  0  0  0  0
    3.8122   -2.7848    1.4642 H   0  0  0  0  0  0  0  0  0  0  0  0
    4.1706   -2.7125    3.2032 H   0  0  0  0  0  0  0  0  0  0  0  0
    2.4855   -2.7305    2.6467 H   0  0  0  0  0  0  0  0  0  0  0  0
    5.9073   -0.3302    2.9805 N   0  0  0  0  0  0  0  0  0  0  0  0
    7.2445    0.2026    2.7442 C   0  0  0  0  0  0  0  0  0  0  0  0
    5.6903   -0.7231    3.8925 H   0  0  0  0  0  0  0  0  0  0  0  0
    7.7107   -0.2960    1.8878 H   0  0  0  0  0  0  0  0  0  0  0  0
    7.1991    1.2784    2.5439 H   0  0  0  0  0  0  0  0  0  0  0  0
    7.8774    0.0415    3.6225 H   0  0  0  0  0  0  0  0  0  0  0  0
  1  2  2  0  0  0  0
  1  3  1  0  0  0  0
  1  7  1  0  0  0  0
  3  4  1  0  0  0  0
  3  5  1  0  0  0  0
  3  6  1  0  0  0  0
  7  8  1  0  0  0  0
  7 12  1  0  0  0  0
  8  9  1  0  0  0  0
  8 11  1  0  0  0  0
  8 13  1  0  0  0  0
  9 10  2  0  0  0  0
  9 17  1  0  0  0  0
 11 14  1  0  0  0  0
 11 15  1  0  0  0  0
 11 16  1  0  0  0  0
 17 18  1  0  0  0  0
 17 27  1  0  0  0  0
 18 19  1  0  0  0  0
 18 21  1  0  0  0  0
 18 28  1  0  0  0  0
 19 20  2  0  0  0  0
 19 35  1  0  0  0  0
 21 22  1  0  0  0  0
 21 29  1  0  0  0  0
 21 30  1  0  0  0  0
 22 23  1  0  0  0  0
 22 24  2  0  0  0  0
 23 25  2  0  0  0  0
 23 31  1  0  0  0  0
 24 26  1  0  0  0  0
 24 32  1  0  0  0  0
 25 26  1  0  0  0  0
 25 33  1  0  0  0  0
 26 34  1  0  0  0  0
 35 36  1  0  0  0  0
 35 40  1  0  0  0  0
 36 37  1  0  0  0  0
 36 39  1  0  0  0  0
 36 41  1  0  0  0  0
 37 38  2  0  0  0  0
 37 45  1  0  0  0  0
 39 42  1  0  0  0  0
 39 43  1  0  0  0  0
 39 44  1  0  0  0  0
 45 46  1  0  0  0  0
 45 47  1  0  0  0  0
 46 48  1  0  0  0  0
 46 49  1  0  0  0  0
 46 50  1  0  0  0  0
M  CHG  1  23   1
M  END
$$$$

  -OEChem-05262216443D

 50 50  0     1  0  0  0  0  0999 V2000
   -2.9123   -0.4193    1.9713 C   0  0  0  0  0  0  0  0  0  0  0  0
   -3.0964   -0.0123    0.8300 O   0  0  0  0  0  0  0  0  0  0  0  0
   -2.9823   -1.9031    2.2742 C   0  0  0  0  0  0  0  0  0  0  0  0
   -3.2884   -2.4575    1.3830 H   0  0  0  0  0  0  0  0  0  0  0  0
   -2.0016   -2.2634    2.5959 H   0  0  0  0  0  0  0  0  0  0  0  0
   -3.7094   -2.0884    3.0686 H   0  0  0  0  0  0  0  0  0  0  0  0
   -2.5452    0.4692    2.9614 N   0  0  0  0  0  0  0  0  0  0  0  0
   -2.2706    1.8943    2.7227 C   0  0  2  0  0  0  0  0  0  0  0  0
   -0.9213    2.0944    1.9929 C   0  0  0  0  0  0  0  0  0  0  0  0
    0.0148    2.7200    2.4766 O   0  0  0  0  0  0  0  0  0  0  0  0
   -2.3220    2.6071    4.0793 C   0  0  0  0  0  0  0  0  0  0  0  0
   -2.1856    0.0565    3.8199 H   0  0  0  0  0  0  0  0  0  0  0  0
   -3.0572    2.3191    2.0899 H   0  0  0  0  0  0  0  0  0  0  0  0
   -1.5452    2.2216    4.7477 H   0  0  0  0  0  0  0  0  0  0  0  0
   -2.1633    3.6825    3.9503 H   0  0  0  0  0  0  0  0  0  0  0  0
   -3.2971    2.4578    4.5531 H   0  0  0  0  0  0  0  0  0  0  0  0
   -0.7463    1.5842    0.7183 N   0  0  0  0  0  0  0  0  0  0  0  0
    0.4210    0.7427    0.3708 C   0  0  2  0  0  0  0  0  0  0  0  0
    1.2194    0.1619    1.5763 C   0  0  0  0  0  0  0  0  0  0  0  0
    0.6039   -0.3687    2.4952 O   0  0  0  0  0  0  0  0  0  0  0  0
    1.3218    1.6319   -0.5143 C   0  0  0  0  0  0  0  0  0  0  0  0
    0.6297    1.9991   -1.8050 C   0  0  0  0  0  0  0  0  0  0  0  0
    0.4141    1.1820   -2.9164 N   0  3  0  0  0  0  0  0  0  0  0  0
    0.1103    3.2351   -2.0936 C   0  0  0  0  0  0  0  0  0  0  0  0
   -0.2181    1.8491   -3.8525 C   0  0  0  0  0  0  0  0  0  0  0  0
   -0.4233    3.1414   -3.3728 N   0  0  0  0  0  0  0  0  0  0  0  0
   -1.6304    1.1759    0.3982 H   0  0  0  0  0  0  0  0  0  0  0  0
    0.0761   -0.1210   -0.2053 H   0  0  0  0  0  0  0  0  0  0  0  0
    2.2547    1.1190   -0.7663 H   0  0  0  0  0  0  0  0  0  0  0  0
    1.5866    2.5376    0.0453 H   0  0  0  0  0  0  0  0  0  0  0  0
    0.7067    0.2023   -2.9561 H   0  0  0  0  0  0  0  0  0  0  0  0
    0.1131    4.1026   -1.4317 H   0  0  0  0  0  0  0  0  0  0  0  0
   -0.5285    1.4646   -4.8260 H   0  0  0  0  0  0  0  0  0  0  0  0
   -0.8979    3.8984   -3.8740 H   0  0  0  0  0  0  0  0  0  0  0  0
    2.5762   -0.0881    1.4931 N   0  0  0  0  0  0  0  0  0  0  0  0
    3.4038   -0.5187    2.6262 C   0  0  2  0  0  0  0  0  0  0  0  0
    4.7985    0.1361    2.5242 C   0  0  0  0  0  0  0  0  0  0  0  0
    5.0968    0.7521    1.5039 O   0  0  0  0  0  0  0  0  0  0  0  0
    3.5105   -2.0464    2.6076 C   0  0  0  0  0  0  0  0  0  0  0  0
    3.0926    0.4254    0.7804 H   0  0  0  0  0  0  0  0  0  0  0  0
    2.9513   -0.1948    3.5703 H   0  0  0  0  0  0  0  0  0  0  0  0
    3.9801   -2.3864    1.6791 H   0  0  0  0  0  0  0  0  0  0  0  0
    4.1102   -2.4005    3.4515 H   0  0  0  0  0  0  0  0  0  0  0  0
    2.5154   -2.4968    2.6802 H   0  0  0  0  0  0  0  0  0  0  0  0
    5.7066    0.0553    3.5626 N   0  0  0  0  0  0  0  0  0  0  0  0
    7.0235    0.6821    3.5222 C   0  0  0  0  0  0  0  0  0  0  0  0
    5.4245   -0.4396    4.4043 H   0  0  0  0  0  0  0  0  0  0  0  0
    7.6089    0.2930    2.6823 H   0  0  0  0  0  0  0  0  0  0  0  0
    6.9286    1.7675    3.4116 H   0  0  0  0  0  0  0  0  0  0  0  0
    7.5705    0.4764    4.4474 H   0  0  0  0  0  0  0  0  0  0  0  0
  1  2  2  0  0  0  0
  1  3  1  0  0  0  0
  1  7  1  0  0  0  0
  3  4  1  0  0  0  0
  3  5  1  0  0  0  0
  3  6  1  0  0  0  0
  7  8  1  0  0  0  0
  7 12  1  0  0  0  0
  8  9  1  0  0  0  0
  8 11  1  0  0  0  0
  8 13  1  0  0  0  0
  9 10  2  0  0  0  0
  9 17  1  0  0  0  0
 11 14  1  0  0  0  0
 11 15  1  0  0  0  0
 11 16  1  0  0  0  0
 17 18  1  0  0  0  0
 17 27  1  0  0  0  0
 18 19  1  0  0  0  0
 18 21  1  0  0  0  0
 18 28  1  0  0  0  0
 19 20  2  0  0  0  0
 19 35  1  0  0  0  0
 21 22  1  0  0  0  0
 21 29  1  0  0  0  0
 21 30  1  0  0  0  0
 22 23  1  0  0  0  0
 22 24  2  0  0  0  0
 23 25  2  0  0  0  0
 23 31  1  0  0  0  0
 24 26  1  0  0  0  0
 24 32  1  0  0  0  0
 25 26  1  0  0  0  0
 25 33  1  0  0  0  0
 26 34  1  0  0  0  0
 35 36  1  0  0  0  0
 35 40  1  0  0  0  0
 36 37  1  0  0  0  0
 36 39  1  0  0  0  0
 36 41  1  0  0  0  0
 37 38  2  0  0  0  0
 37 45  1  0  0  0  0
 39 42  1  0  0  0  0
 39 43  1  0  0  0  0
 39 44  1  0  0  0  0
 45 46  1  0  0  0  0
 45 47  1  0  0  0  0
 46 48  1  0  0  0  0
 46 49  1  0  0  0  0
 46 50  1  0  0  0  0
M  CHG  1  23   1
M  END
$$$$

  -OEChem-05262216443D

 50 50  0     1  0  0  0  0  0999 V2000
   -2.5876   -0.2459    2.3469 C   0  0  0  0  0  0  0  0  0  0  0  0
   -2.8247    0.2250    1.2409 O   0  0  0  0  0  0  0  0  0  0  0  0
   -2.9307   -1.6903    2.6531 C   0  0  0  0  0  0  0  0  0  0  0  0
   -3.4983   -2.1280    1.8274 H   0  0  0  0  0  0  0  0  0  0  0  0
   -2.0139   -2.2680    2.7962 H   0  0  0  0  0  0  0  0  0  0  0  0
   -3.5346   -1.7472    3.5622 H   0  0  0  0  0  0  0  0  0  0  0  0
   -1.9209    0.5188    3.2829 N   0  0  0  0  0  0  0  0  0  0  0  0
   -1.4309    1.8848    3.0413 C   0  0  2  0  0  0  0  0  0  0  0  0
   -0.1870    1.8928    2.1203 C   0  0  0  0  0  0  0  0  0  0  0  0
    0.9033    2.3174    2.4836 O   0  0  0  0  0  0  0  0  0  0  0  0
   -1.1585    2.5234    4.4087 C   0  0  0  0  0  0  0  0  0  0  0  0
   -1.6155    0.0411    4.1280 H   0  0  0  0  0  0  0  0  0  0  0  0
   -2.2124    2.4713    2.5464 H   0  0  0  0  0  0  0  0  0  0  0  0
   -0.3800    1.9715    4.9456 H   0  0  0  0  0  0  0  0  0  0  0  0
   -0.8244    3.5587    4.2852 H   0  0  0  0  0  0  0  0  0  0  0  0
   -2.0683    2.5264    5.0170 H   0  0  0  0  0  0  0  0  0  0  0  0
   -0.2941    1.4190    0.8232 N   0  0  0  0  0  0  0  0  0  0  0  0
    0.6992    0.4994    0.2248 C   0  0  2  0  0  0  0  0  0  0  0  0
    1.6527   -0.1917    1.2411 C   0  0  0  0  0  0  0  0  0  0  0  0
    1.1517   -0.7942    2.1850 O   0  0  0  0  0  0  0  0  0  0  0  0
    1.4686    1.3193   -0.8294 C   0  0  0  0  0  0  0  0  0  0  0  0
    0.5496    1.7664   -1.9423 C   0  0  0  0  0  0  0  0  0  0  0  0
    0.0292    0.9885   -2.9792 N   0  3  0  0  0  0  0  0  0  0  0  0
    0.0818    3.0450   -2.1120 C   0  0  0  0  0  0  0  0  0  0  0  0
   -0.7363    1.7195   -3.7541 C   0  0  0  0  0  0  0  0  0  0  0  0
   -0.7239    3.0160   -3.2436 N   0  0  0  0  0  0  0  0  0  0  0  0
   -1.2637    1.1422    0.6372 H   0  0  0  0  0  0  0  0  0  0  0  0
    0.1629   -0.3149   -0.2724 H   0  0  0  0  0  0  0  0  0  0  0  0
    2.2763    0.7246   -1.2676 H   0  0  0  0  0  0  0  0  0  0  0  0
    1.9230    2.1904   -0.3413 H   0  0  0  0  0  0  0  0  0  0  0  0
    0.2171   -0.0125   -3.0784 H   0  0  0  0  0  0  0  0  0  0  0  0
    0.2956    3.8995   -1.4684 H   0  0  0  0  0  0  0  0  0  0  0  0
   -1.2846    1.3771   -4.6343 H   0  0  0  0  0  0  0  0  0  0  0  0
   -1.2367    3.8157   -3.6281 H   0  0  0  0  0  0  0  0  0  0  0  0
    3.0209   -0.2988    1.0487 N   0  0  0  0  0  0  0  0  0  0  0  0
    3.9203   -0.8839    2.0573 C   0  0  2  0  0  0  0  0  0  0  0  0
    4.2071    0.1204    3.1977 C   0  0  0  0  0  0  0  0  0  0  0  0
    5.3079    0.6399    3.3231 O   0  0  0  0  0  0  0  0  0  0  0  0
    5.1917   -1.3511    1.3368 C   0  0  0  0  0  0  0  0  0  0  0  0
    3.4403    0.3587    0.3990 H   0  0  0  0  0  0  0  0  0  0  0  0
    3.4580   -1.7668    2.5124 H   0  0  0  0  0  0  0  0  0  0  0  0
    5.7040   -0.5060    0.8658 H   0  0  0  0  0  0  0  0  0  0  0  0
    5.8805   -1.8155    2.0502 H   0  0  0  0  0  0  0  0  0  0  0  0
    4.9462   -2.0876    0.5659 H   0  0  0  0  0  0  0  0  0  0  0  0
    3.1695    0.5152    4.0182 N   0  0  0  0  0  0  0  0  0  0  0  0
    3.2701    1.6389    4.9404 C   0  0  0  0  0  0  0  0  0  0  0  0
    2.2408    0.1983    3.7370 H   0  0  0  0  0  0  0  0  0  0  0  0
    4.0933    1.4861    5.6463 H   0  0  0  0  0  0  0  0  0  0  0  0
    3.4449    2.5694    4.3902 H   0  0  0  0  0  0  0  0  0  0  0  0
    2.3423    1.7426    5.5108 H   0  0  0  0  0  0  0  0  0  0  0  0
  1  2  2  0  0  0  0
  1  3  1  0  0  0  0
  1  7  1  0  0  0  0
  3  4  1  0  0  0  0
  3  5  1  0  0  0  0
  3  6  1  0  0  0  0
  7  8  1  0  0  0  0
  7 12  1  0  0  0  0
  8  9  1  0  0  0  0
  8 11  1  0  0  0  0
  8 13  1  0  0  0  0
  9 10  2  0  0  0  0
  9 17  1  0  0  0  0
 11 14  1  0  0  0  0
 11 15  1  0  0  0  0
 11 16  1  0  0  0  0
 17 18  1  0  0  0  0
 17 27  1  0  0  0  0
 18 19  1  0  0  0  0
 18 21  1  0  0  0  0
 18 28  1  0  0  0  0
 19 20  2  0  0  0  0
 19 35  1  0  0  0  0
 21 22  1  0  0  0  0
 21 29  1  0  0  0  0
 21 30  1  0  0  0  0
 22 23  1  0  0  0  0
 22 24  2  0  0  0  0
 23 25  2  0  0  0  0
 23 31  1  0  0  0  0
 24 26  1  0  0  0  0
 24 32  1  0  0  0  0
 25 26  1  0  0  0  0
 25 33  1  0  0  0  0
 26 34  1  0  0  0  0
 35 36  1  0  0  0  0
 35 40  1  0  0  0  0
 36 37  1  0  0  0  0
 36 39  1  0  0  0  0
 36 41  1  0  0  0  0
 37 38  2  0  0  0  0
 37 45  1  0  0  0  0
 39 42  1  0  0  0  0
 39 43  1  0  0  0  0
 39 44  1  0  0  0  0
 45 46  1  0  0  0  0
 45 47  1  0  0  0  0
 46 48  1  0  0  0  0
 46 49  1  0  0  0  0
 46 50  1  0  0  0  0
M  CHG  1  23   1
M  END
$$$$

  -OEChem-05262216443D

 50 50  0     1  0  0  0  0  0999 V2000
   -2.7132   -0.2819    2.3273 C   0  0  0  0  0  0  0  0  0  0  0  0
   -2.8706    0.1785    1.2032 O   0  0  0  0  0  0  0  0  0  0  0  0
   -3.2004   -1.6783    2.6611 C   0  0  0  0  0  0  0  0  0  0  0  0
   -3.7344   -2.1073    1.8087 H   0  0  0  0  0  0  0  0  0  0  0  0
   -2.3512   -2.3222    2.9045 H   0  0  0  0  0  0  0  0  0  0  0  0
   -3.8782   -1.6426    3.5178 H   0  0  0  0  0  0  0  0  0  0  0  0
   -2.0203    0.4515    3.2692 N   0  0  0  0  0  0  0  0  0  0  0  0
   -1.4755    1.7993    3.0415 C   0  0  2  0  0  0  0  0  0  0  0  0
   -0.2040    1.7737    2.1586 C   0  0  0  0  0  0  0  0  0  0  0  0
    0.8695    2.2238    2.5379 O   0  0  0  0  0  0  0  0  0  0  0  0
   -1.2278    2.4307    4.4170 C   0  0  0  0  0  0  0  0  0  0  0  0
   -1.8309   -0.0031    4.1596 H   0  0  0  0  0  0  0  0  0  0  0  0
   -2.2224    2.4103    2.5230 H   0  0  0  0  0  0  0  0  0  0  0  0
   -0.4784    1.8602    4.9749 H   0  0  0  0  0  0  0  0  0  0  0  0
   -0.8656    3.4578    4.3041 H   0  0  0  0  0  0  0  0  0  0  0  0
   -2.1542    2.4560    4.9993 H   0  0  0  0  0  0  0  0  0  0  0  0
   -0.2842    1.2965    0.8614 N   0  0  0  0  0  0  0  0  0  0  0  0
    0.7696    0.4706    0.2345 C   0  0  2  0  0  0  0  0  0  0  0  0
    1.7994   -0.1441    1.2217 C   0  0  0  0  0  0  0  0  0  0  0  0
    1.3875   -0.9561    2.0423 O   0  0  0  0  0  0  0  0  0  0  0  0
    1.4474    1.3506   -0.8332 C   0  0  0  0  0  0  0  0  0  0  0  0
    0.4713    1.7204   -1.9251 C   0  0  0  0  0  0  0  0  0  0  0  0
   -0.0022    0.8979   -2.9497 N   0  3  0  0  0  0  0  0  0  0  0  0
   -0.1051    2.9549   -2.0878 C   0  0  0  0  0  0  0  0  0  0  0  0
   -0.8409    1.5594   -3.7108 C   0  0  0  0  0  0  0  0  0  0  0  0
   -0.9275    2.8541   -3.2030 N   0  0  0  0  0  0  0  0  0  0  0  0
   -1.2382    0.9808    0.6579 H   0  0  0  0  0  0  0  0  0  0  0  0
    0.2928   -0.3838   -0.2564 H   0  0  0  0  0  0  0  0  0  0  0  0
    2.2958    0.8232   -1.2829 H   0  0  0  0  0  0  0  0  0  0  0  0
    1.8350    2.2582   -0.3548 H   0  0  0  0  0  0  0  0  0  0  0  0
    0.2693   -0.0837   -3.0515 H   0  0  0  0  0  0  0  0  0  0  0  0
    0.0494    3.8275   -1.4516 H   0  0  0  0  0  0  0  0  0  0  0  0
   -1.3755    1.1688   -4.5792 H   0  0  0  0  0  0  0  0  0  0  0  0
   -1.5105    3.6076   -3.5809 H   0  0  0  0  0  0  0  0  0  0  0  0
    3.1585    0.1185    1.1652 N   0  0  0  0  0  0  0  0  0  0  0  0
    4.1164   -0.4221    2.1437 C   0  0  2  0  0  0  0  0  0  0  0  0
    4.0900    0.3795    3.4657 C   0  0  0  0  0  0  0  0  0  0  0  0
    5.0221    1.1035    3.7895 O   0  0  0  0  0  0  0  0  0  0  0  0
    5.5003   -0.4364    1.4817 C   0  0  0  0  0  0  0  0  0  0  0  0
    3.4293    0.9769    0.6947 H   0  0  0  0  0  0  0  0  0  0  0  0
    3.8589   -1.4579    2.3906 H   0  0  0  0  0  0  0  0  0  0  0  0
    5.8132    0.5780    1.2142 H   0  0  0  0  0  0  0  0  0  0  0  0
    6.2432   -0.8543    2.1689 H   0  0  0  0  0  0  0  0  0  0  0  0
    5.4851   -1.0500    0.5761 H   0  0  0  0  0  0  0  0  0  0  0  0
    2.9595    0.3267    4.2557 N   0  0  0  0  0  0  0  0  0  0  0  0
    2.7403    1.2233    5.3830 C   0  0  0  0  0  0  0  0  0  0  0  0
    2.1557   -0.1439    3.8380 H   0  0  0  0  0  0  0  0  0  0  0  0
    3.5757    1.1661    6.0890 H   0  0  0  0  0  0  0  0  0  0  0  0
    2.6439    2.2567    5.0336 H   0  0  0  0  0  0  0  0  0  0  0  0
    1.8247    0.9472    5.9139 H   0  0  0  0  0  0  0  0  0  0  0  0
  1  2  2  0  0  0  0
  1  3  1  0  0  0  0
  1  7  1  0  0  0  0
  3  4  1  0  0  0  0
  3  5  1  0  0  0  0
  3  6  1  0  0  0  0
  7  8  1  0  0  0  0
  7 12  1  0  0  0  0
  8  9  1  0  0  0  0
  8 11  1  0  0  0  0
  8 13  1  0  0  0  0
  9 10  2  0  0  0  0
  9 17  1  0  0  0  0
 11 14  1  0  0  0  0
 11 15  1  0  0  0  0
 11 16  1  0  0  0  0
 17 18  1  0  0  0  0
 17 27  1  0  0  0  0
 18 19  1  0  0  0  0
 18 21  1  0  0  0  0
 18 28  1  0  0  0  0
 19 20  2  0  0  0  0
 19 35  1  0  0  0  0
 21 22  1  0  0  0  0
 21 29  1  0  0  0  0
 21 30  1  0  0  0  0
 22 23  1  0  0  0  0
 22 24  2  0  0  0  0
 23 25  2  0  0  0  0
 23 31  1  0  0  0  0
 24 26  1  0  0  0  0
 24 32  1  0  0  0  0
 25 26  1  0  0  0  0
 25 33  1  0  0  0  0
 26 34  1  0  0  0  0
 35 36  1  0  0  0  0
 35 40  1  0  0  0  0
 36 37  1  0  0  0  0
 36 39  1  0  0  0  0
 36 41  1  0  0  0  0
 37 38  2  0  0  0  0
 37 45  1  0  0  0  0
 39 42  1  0  0  0  0
 39 43  1  0  0  0  0
 39 44  1  0  0  0  0
 45 46  1  0  0  0  0
 45 47  1  0  0  0  0
 46 48  1  0  0  0  0
 46 49  1  0  0  0  0
 46 50  1  0  0  0  0
M  CHG  1  23   1
M  END
$$$$

  -OEChem-05262216443D

 50 50  0     1  0  0  0  0  0999 V2000
   -2.1486   -0.3971    2.3293 C   0  0  0  0  0  0  0  0  0  0  0  0
   -2.6653   -0.0795    1.2629 O   0  0  0  0  0  0  0  0  0  0  0  0
   -2.0528   -1.8551    2.7351 C   0  0  0  0  0  0  0  0  0  0  0  0
   -2.3939   -2.4973    1.9190 H   0  0  0  0  0  0  0  0  0  0  0  0
   -1.0176   -2.1108    2.9742 H   0  0  0  0  0  0  0  0  0  0  0  0
   -2.6756   -2.0377    3.6141 H   0  0  0  0  0  0  0  0  0  0  0  0
   -1.6118    0.5851    3.1364 N   0  0  0  0  0  0  0  0  0  0  0  0
   -1.5823    2.0037    2.7636 C   0  0  2  0  0  0  0  0  0  0  0  0
   -0.4878    2.2659    1.7077 C   0  0  0  0  0  0  0  0  0  0  0  0
    0.5150    2.9383    1.9257 O   0  0  0  0  0  0  0  0  0  0  0  0
   -1.3756    2.8143    4.0478 C   0  0  0  0  0  0  0  0  0  0  0  0
   -0.9452    0.2739    3.8448 H   0  0  0  0  0  0  0  0  0  0  0  0
   -2.5455    2.2966    2.3325 H   0  0  0  0  0  0  0  0  0  0  0  0
   -0.4193    2.5590    4.5164 H   0  0  0  0  0  0  0  0  0  0  0  0
   -1.3752    3.8857    3.8254 H   0  0  0  0  0  0  0  0  0  0  0  0
   -2.1792    2.6091    4.7616 H   0  0  0  0  0  0  0  0  0  0  0  0
   -0.5601    1.7351    0.4311 N   0  0  0  0  0  0  0  0  0  0  0  0
    0.4900    0.7854    0.0038 C   0  0  2  0  0  0  0  0  0  0  0  0
    1.3330    0.2053    1.1704 C   0  0  0  0  0  0  0  0  0  0  0  0
    0.9499   -0.8742    1.6044 O   0  0  0  0  0  0  0  0  0  0  0  0
    1.3778    1.5012   -1.0275 C   0  0  0  0  0  0  0  0  0  0  0  0
    0.5820    1.8463   -2.2620 C   0  0  0  0  0  0  0  0  0  0  0  0
    0.1635    0.9729   -3.2672 N   0  3  0  0  0  0  0  0  0  0  0  0
    0.1303    3.0996   -2.5865 C   0  0  0  0  0  0  0  0  0  0  0  0
   -0.5271    1.6240   -4.1725 C   0  0  0  0  0  0  0  0  0  0  0  0
   -0.5638    2.9616   -3.7820 N   0  0  0  0  0  0  0  0  0  0  0  0
   -1.4939    1.3327    0.3028 H   0  0  0  0  0  0  0  0  0  0  0  0
    0.0043   -0.0701   -0.4778 H   0  0  0  0  0  0  0  0  0  0  0  0
    2.2242    0.8634   -1.3055 H   0  0  0  0  0  0  0  0  0  0  0  0
    1.7846    2.4156   -0.5802 H   0  0  0  0  0  0  0  0  0  0  0  0
    0.3539   -0.0327   -3.2492 H   0  0  0  0  0  0  0  0  0  0  0  0
    0.2754    4.0066   -1.9977 H   0  0  0  0  0  0  0  0  0  0  0  0
   -0.9937    1.1974   -5.0628 H   0  0  0  0  0  0  0  0  0  0  0  0
   -1.0446    3.7178   -4.2787 H   0  0  0  0  0  0  0  0  0  0  0  0
    2.6249    0.6010    1.4658 N   0  0  0  0  0  0  0  0  0  0  0  0
    3.3477   -0.0218    2.5918 C   0  0  2  0  0  0  0  0  0  0  0  0
    2.6247    0.0435    3.9677 C   0  0  0  0  0  0  0  0  0  0  0  0
    1.6463    0.7590    4.1565 O   0  0  0  0  0  0  0  0  0  0  0  0
    4.7072    0.6759    2.6893 C   0  0  0  0  0  0  0  0  0  0  0  0
    2.7576    1.6052    1.3599 H   0  0  0  0  0  0  0  0  0  0  0  0
    3.5084   -1.0799    2.3602 H   0  0  0  0  0  0  0  0  0  0  0  0
    4.5764    1.7341    2.9400 H   0  0  0  0  0  0  0  0  0  0  0  0
    5.3245    0.2111    3.4645 H   0  0  0  0  0  0  0  0  0  0  0  0
    5.2422    0.6048    1.7372 H   0  0  0  0  0  0  0  0  0  0  0  0
    3.0747   -0.7385    5.0164 N   0  0  0  0  0  0  0  0  0  0  0  0
    2.4410   -0.7634    6.3304 C   0  0  0  0  0  0  0  0  0  0  0  0
    3.8629   -1.3549    4.8422 H   0  0  0  0  0  0  0  0  0  0  0  0
    2.4231    0.2408    6.7673 H   0  0  0  0  0  0  0  0  0  0  0  0
    1.4128   -1.1322    6.2533 H   0  0  0  0  0  0  0  0  0  0  0  0
    2.9945   -1.4228    7.0062 H   0  0  0  0  0  0  0  0  0  0  0  0
  1  2  2  0  0  0  0
  1  3  1  0  0  0  0
  1  7  1  0  0  0  0
  3  4  1  0  0  0  0
  3  5  1  0  0  0  0
  3  6  1  0  0  0  0
  7  8  1  0  0  0  0
  7 12  1  0  0  0  0
  8  9  1  0  0  0  0
  8 11  1  0  0  0  0
  8 13  1  0  0  0  0
  9 10  2  0  0  0  0
  9 17  1  0  0  0  0
 11 14  1  0  0  0  0
 11 15  1  0  0  0  0
 11 16  1  0  0  0  0
 17 18  1  0  0  0  0
 17 27  1  0  0  0  0
 18 19  1  0  0  0  0
 18 21  1  0  0  0  0
 18 28  1  0  0  0  0
 19 20  2  0  0  0  0
 19 35  1  0  0  0  0
 21 22  1  0  0  0  0
 21 29  1  0  0  0  0
 21 30  1  0  0  0  0
 22 23  1  0  0  0  0
 22 24  2  0  0  0  0
 23 25  2  0  0  0  0
 23 31  1  0  0  0  0
 24 26  1  0  0  0  0
 24 32  1  0  0  0  0
 25 26  1  0  0  0  0
 25 33  1  0  0  0  0
 26 34  1  0  0  0  0
 35 36  1  0  0  0  0
 35 40  1  0  0  0  0
 36 37  1  0  0  0  0
 36 39  1  0  0  0  0
 36 41  1  0  0  0  0
 37 38  2  0  0  0  0
 37 45  1  0  0  0  0
 39 42  1  0  0  0  0
 39 43  1  0  0  0  0
 39 44  1  0  0  0  0
 45 46  1  0  0  0  0
 45 47  1  0  0  0  0
 46 48  1  0  0  0  0
 46 49  1  0  0  0  0
 46 50  1  0  0  0  0
M  CHG  1  23   1
M  END
$$$$

  -OEChem-05262216443D

 50 50  0     1  0  0  0  0  0999 V2000
   -2.0457   -0.3798    2.4888 C   0  0  0  0  0  0  0  0  0  0  0  0
   -2.6092   -0.1211    1.4302 O   0  0  0  0  0  0  0  0  0  0  0  0
   -1.8409   -1.8171    2.9253 C   0  0  0  0  0  0  0  0  0  0  0  0
   -0.8041   -1.9701    3.2353 H   0  0  0  0  0  0  0  0  0  0  0  0
   -2.5001   -2.0474    3.7655 H   0  0  0  0  0  0  0  0  0  0  0  0
   -2.0643   -2.4980    2.1002 H   0  0  0  0  0  0  0  0  0  0  0  0
   -1.5410    0.6527    3.2514 N   0  0  0  0  0  0  0  0  0  0  0  0
   -1.5726    2.0527    2.8171 C   0  0  2  0  0  0  0  0  0  0  0  0
   -0.4882    2.2979    1.7476 C   0  0  0  0  0  0  0  0  0  0  0  0
    0.5514    2.9112    1.9737 O   0  0  0  0  0  0  0  0  0  0  0  0
   -1.3892    2.9264    4.0632 C   0  0  0  0  0  0  0  0  0  0  0  0
   -0.7979    0.3938    3.9097 H   0  0  0  0  0  0  0  0  0  0  0  0
   -2.5470    2.2908    2.3775 H   0  0  0  0  0  0  0  0  0  0  0  0
   -0.4312    2.7109    4.5484 H   0  0  0  0  0  0  0  0  0  0  0  0
   -1.4090    3.9866    3.7926 H   0  0  0  0  0  0  0  0  0  0  0  0
   -2.1924    2.7372    4.7820 H   0  0  0  0  0  0  0  0  0  0  0  0
   -0.5958    1.7755    0.4694 N   0  0  0  0  0  0  0  0  0  0  0  0
    0.4075    0.7862    0.0183 C   0  0  2  0  0  0  0  0  0  0  0  0
    1.2543    0.1520    1.1506 C   0  0  0  0  0  0  0  0  0  0  0  0
    1.0078   -1.0176    1.4156 O   0  0  0  0  0  0  0  0  0  0  0  0
    1.3131    1.4538   -1.0289 C   0  0  0  0  0  0  0  0  0  0  0  0
    0.5182    1.8331   -2.2535 C   0  0  0  0  0  0  0  0  0  0  0  0
    0.0484    0.9682   -3.2430 N   0  3  0  0  0  0  0  0  0  0  0  0
    0.1279    3.1033   -2.5927 C   0  0  0  0  0  0  0  0  0  0  0  0
   -0.6154    1.6399   -4.1529 C   0  0  0  0  0  0  0  0  0  0  0  0
   -0.5818    2.9830   -3.7814 N   0  0  0  0  0  0  0  0  0  0  0  0
   -1.5454    1.4113    0.3489 H   0  0  0  0  0  0  0  0  0  0  0  0
   -0.1298   -0.0420   -0.4564 H   0  0  0  0  0  0  0  0  0  0  0  0
    2.1233    0.7737   -1.3142 H   0  0  0  0  0  0  0  0  0  0  0  0
    1.7726    2.3478   -0.5922 H   0  0  0  0  0  0  0  0  0  0  0  0
    0.1938   -0.0447   -3.2143 H   0  0  0  0  0  0  0  0  0  0  0  0
    0.3258    4.0112   -2.0211 H   0  0  0  0  0  0  0  0  0  0  0  0
   -1.1080    1.2235   -5.0338 H   0  0  0  0  0  0  0  0  0  0  0  0
   -1.0250    3.7554   -4.2881 H   0  0  0  0  0  0  0  0  0  0  0  0
    2.4446    0.6887    1.6028 N   0  0  0  0  0  0  0  0  0  0  0  0
    3.1514    0.0559    2.7315 C   0  0  2  0  0  0  0  0  0  0  0  0
    2.3069   -0.1325    4.0246 C   0  0  0  0  0  0  0  0  0  0  0  0
    1.2294    0.4336    4.1923 O   0  0  0  0  0  0  0  0  0  0  0  0
    4.3732    0.9268    3.0366 C   0  0  0  0  0  0  0  0  0  0  0  0
    2.4176    1.7096    1.6177 H   0  0  0  0  0  0  0  0  0  0  0  0
    3.4916   -0.9359    2.4161 H   0  0  0  0  0  0  0  0  0  0  0  0
    4.0593    1.9213    3.3716 H   0  0  0  0  0  0  0  0  0  0  0  0
    4.9828    0.4733    3.8244 H   0  0  0  0  0  0  0  0  0  0  0  0
    4.9955    1.0391    2.1432 H   0  0  0  0  0  0  0  0  0  0  0  0
    2.7599   -0.9794    5.0195 N   0  0  0  0  0  0  0  0  0  0  0  0
    2.0160   -1.2518    6.2446 C   0  0  0  0  0  0  0  0  0  0  0  0
    3.6246   -1.4853    4.8509 H   0  0  0  0  0  0  0  0  0  0  0  0
    1.8016   -0.3208    6.7803 H   0  0  0  0  0  0  0  0  0  0  0  0
    1.0694   -1.7524    6.0149 H   0  0  0  0  0  0  0  0  0  0  0  0
    2.5991   -1.9005    6.9054 H   0  0  0  0  0  0  0  0  0  0  0  0
  1  2  2  0  0  0  0
  1  3  1  0  0  0  0
  1  7  1  0  0  0  0
  3  4  1  0  0  0  0
  3  5  1  0  0  0  0
  3  6  1  0  0  0  0
  7  8  1  0  0  0  0
  7 12  1  0  0  0  0
  8  9  1  0  0  0  0
  8 11  1  0  0  0  0
  8 13  1  0  0  0  0
  9 10  2  0  0  0  0
  9 17  1  0  0  0  0
 11 14  1  0  0  0  0
 11 15  1  0  0  0  0
 11 16  1  0  0  0  0
 17 18  1  0  0  0  0
 17 27  1  0  0  0  0
 18 19  1  0  0  0  0
 18 21  1  0  0  0  0
 18 28  1  0  0  0  0
 19 20  2  0  0  0  0
 19 35  1  0  0  0  0
 21 22  1  0  0  0  0
 21 29  1  0  0  0  0
 21 30  1  0  0  0  0
 22 23  1  0  0  0  0
 22 24  2  0  0  0  0
 23 25  2  0  0  0  0
 23 31  1  0  0  0  0
 24 26  1  0  0  0  0
 24 32  1  0  0  0  0
 25 26  1  0  0  0  0
 25 33  1  0  0  0  0
 26 34  1  0  0  0  0
 35 36  1  0  0  0  0
 35 40  1  0  0  0  0
 36 37  1  0  0  0  0
 36 39  1  0  0  0  0
 36 41  1  0  0  0  0
 37 38  2  0  0  0  0
 37 45  1  0  0  0  0
 39 42  1  0  0  0  0
 39 43  1  0  0  0  0
 39 44  1  0  0  0  0
 45 46  1  0  0  0  0
 45 47  1  0  0  0  0
 46 48  1  0  0  0  0
 46 49  1  0  0  0  0
 46 50  1  0  0  0  0
M  CHG  1  23   1
M  END
$$$$

  -OEChem-05262216443D

 50 50  0     1  0  0  0  0  0999 V2000
   -2.1542   -0.3319    2.4382 C   0  0  0  0  0  0  0  0  0  0  0  0
   -2.6886   -0.0306    1.3762 O   0  0  0  0  0  0  0  0  0  0  0  0
   -1.9483   -1.7859    2.8133 C   0  0  0  0  0  0  0  0  0  0  0  0
   -0.8873   -1.9774    2.9939 H   0  0  0  0  0  0  0  0  0  0  0  0
   -2.5109   -2.0188    3.7203 H   0  0  0  0  0  0  0  0  0  0  0  0
   -2.2910   -2.4386    2.0061 H   0  0  0  0  0  0  0  0  0  0  0  0
   -1.6418    0.6645    3.2417 N   0  0  0  0  0  0  0  0  0  0  0  0
   -1.5999    2.0756    2.8443 C   0  0  2  0  0  0  0  0  0  0  0  0
   -0.4855    2.2978    1.7998 C   0  0  0  0  0  0  0  0  0  0  0  0
    0.5540    2.9035    2.0423 O   0  0  0  0  0  0  0  0  0  0  0  0
   -1.3980    2.9080    4.1154 C   0  0  0  0  0  0  0  0  0  0  0  0
   -0.9330    0.3600    3.9191 H   0  0  0  0  0  0  0  0  0  0  0  0
   -2.5547    2.3689    2.3949 H   0  0  0  0  0  0  0  0  0  0  0  0
   -0.4567    2.6408    4.6074 H   0  0  0  0  0  0  0  0  0  0  0  0
   -1.3709    3.9747    3.8725 H   0  0  0  0  0  0  0  0  0  0  0  0
   -2.2186    2.7334    4.8181 H   0  0  0  0  0  0  0  0  0  0  0  0
   -0.5901    1.7641    0.5277 N   0  0  0  0  0  0  0  0  0  0  0  0
    0.3890    0.7591    0.0589 C   0  0  2  0  0  0  0  0  0  0  0  0
    1.2610    0.0834    1.1472 C   0  0  0  0  0  0  0  0  0  0  0  0
    1.1429   -1.1278    1.2769 O   0  0  0  0  0  0  0  0  0  0  0  0
    1.2923    1.4210   -0.9930 C   0  0  0  0  0  0  0  0  0  0  0  0
    0.4868    1.8235   -2.2031 C   0  0  0  0  0  0  0  0  0  0  0  0
   -0.0100    0.9746   -3.1933 N   0  3  0  0  0  0  0  0  0  0  0  0
    0.1072    3.1017   -2.5233 C   0  0  0  0  0  0  0  0  0  0  0  0
   -0.6787    1.6640   -4.0862 C   0  0  0  0  0  0  0  0  0  0  0  0
   -0.6224    3.0027   -3.7018 N   0  0  0  0  0  0  0  0  0  0  0  0
   -1.5477    1.4215    0.4013 H   0  0  0  0  0  0  0  0  0  0  0  0
   -0.1744   -0.0505   -0.4177 H   0  0  0  0  0  0  0  0  0  0  0  0
    2.0885    0.7314   -1.2949 H   0  0  0  0  0  0  0  0  0  0  0  0
    1.7723    2.3026   -0.5528 H   0  0  0  0  0  0  0  0  0  0  0  0
    0.1237   -0.0404   -3.1773 H   0  0  0  0  0  0  0  0  0  0  0  0
    0.3248    4.0009   -1.9456 H   0  0  0  0  0  0  0  0  0  0  0  0
   -1.1889    1.2631   -4.9644 H   0  0  0  0  0  0  0  0  0  0  0  0
   -1.0608    3.7860   -4.1957 H   0  0  0  0  0  0  0  0  0  0  0  0
    2.3128    0.7194    1.7788 N   0  0  0  0  0  0  0  0  0  0  0  0
    3.0104    0.0684    2.9012 C   0  0  2  0  0  0  0  0  0  0  0  0
    2.0998   -0.3025    4.1034 C   0  0  0  0  0  0  0  0  0  0  0  0
    0.9942    0.2093    4.2600 O   0  0  0  0  0  0  0  0  0  0  0  0
    4.1115    1.0270    3.3618 C   0  0  0  0  0  0  0  0  0  0  0  0
    2.1586    1.7273    1.8714 H   0  0  0  0  0  0  0  0  0  0  0  0
    3.4731   -0.8560    2.5393 H   0  0  0  0  0  0  0  0  0  0  0  0
    3.6746    1.9590    3.7363 H   0  0  0  0  0  0  0  0  0  0  0  0
    4.7047    0.5763    4.1637 H   0  0  0  0  0  0  0  0  0  0  0  0
    4.7824    1.2651    2.5304 H   0  0  0  0  0  0  0  0  0  0  0  0
    2.5241   -1.2405    5.0265 N   0  0  0  0  0  0  0  0  0  0  0  0
    1.7190   -1.6730    6.1639 C   0  0  0  0  0  0  0  0  0  0  0  0
    3.4221   -1.6878    4.8659 H   0  0  0  0  0  0  0  0  0  0  0  0
    1.5013   -0.8270    6.8245 H   0  0  0  0  0  0  0  0  0  0  0  0
    0.7729   -2.1065    5.8226 H   0  0  0  0  0  0  0  0  0  0  0  0
    2.2563   -2.4314    6.7417 H   0  0  0  0  0  0  0  0  0  0  0  0
  1  2  2  0  0  0  0
  1  3  1  0  0  0  0
  1  7  1  0  0  0  0
  3  4  1  0  0  0  0
  3  5  1  0  0  0  0
  3  6  1  0  0  0  0
  7  8  1  0  0  0  0
  7 12  1  0  0  0  0
  8  9  1  0  0  0  0
  8 11  1  0  0  0  0
  8 13  1  0  0  0  0
  9 10  2  0  0  0  0
  9 17  1  0  0  0  0
 11 14  1  0  0  0  0
 11 15  1  0  0  0  0
 11 16  1  0  0  0  0
 17 18  1  0  0  0  0
 17 27  1  0  0  0  0
 18 19  1  0  0  0  0
 18 21  1  0  0  0  0
 18 28  1  0  0  0  0
 19 20  2  0  0  0  0
 19 35  1  0  0  0  0
 21 22  1  0  0  0  0
 21 29  1  0  0  0  0
 21 30  1  0  0  0  0
 22 23  1  0  0  0  0
 22 24  2  0  0  0  0
 23 25  2  0  0  0  0
 23 31  1  0  0  0  0
 24 26  1  0  0  0  0
 24 32  1  0  0  0  0
 25 26  1  0  0  0  0
 25 33  1  0  0  0  0
 26 34  1  0  0  0  0
 35 36  1  0  0  0  0
 35 40  1  0  0  0  0
 36 37  1  0  0  0  0
 36 39  1  0  0  0  0
 36 41  1  0  0  0  0
 37 38  2  0  0  0  0
 37 45  1  0  0  0  0
 39 42  1  0  0  0  0
 39 43  1  0  0  0  0
 39 44  1  0  0  0  0
 45 46  1  0  0  0  0
 45 47  1  0  0  0  0
 46 48  1  0  0  0  0
 46 49  1  0  0  0  0
 46 50  1  0  0  0  0
M  CHG  1  23   1
M  END
$$$$

  -OEChem-05262216443D

 50 50  0     1  0  0  0  0  0999 V2000
   -2.2412   -0.3596    2.3743 C   0  0  0  0  0  0  0  0  0  0  0  0
   -2.7361   -0.0509    1.2959 O   0  0  0  0  0  0  0  0  0  0  0  0
   -2.0110   -1.8157    2.7272 C   0  0  0  0  0  0  0  0  0  0  0  0
   -0.9381   -2.0228    2.7696 H   0  0  0  0  0  0  0  0  0  0  0  0
   -2.4539   -2.0376    3.7013 H   0  0  0  0  0  0  0  0  0  0  0  0
   -2.4677   -2.4648    1.9755 H   0  0  0  0  0  0  0  0  0  0  0  0
   -1.7590    0.6304    3.2034 N   0  0  0  0  0  0  0  0  0  0  0  0
   -1.6903    2.0461    2.8233 C   0  0  2  0  0  0  0  0  0  0  0  0
   -0.5420    2.2754    1.8153 C   0  0  0  0  0  0  0  0  0  0  0  0
    0.4614    2.9296    2.0780 O   0  0  0  0  0  0  0  0  0  0  0  0
   -1.5198    2.8570    4.1129 C   0  0  0  0  0  0  0  0  0  0  0  0
   -1.0864    0.3132    3.9115 H   0  0  0  0  0  0  0  0  0  0  0  0
   -2.6287    2.3536    2.3494 H   0  0  0  0  0  0  0  0  0  0  0  0
   -0.5965    2.5713    4.6284 H   0  0  0  0  0  0  0  0  0  0  0  0
   -1.4747    3.9274    3.8884 H   0  0  0  0  0  0  0  0  0  0  0  0
   -2.3634    2.6804    4.7874 H   0  0  0  0  0  0  0  0  0  0  0  0
   -0.5977    1.7059    0.5567 N   0  0  0  0  0  0  0  0  0  0  0  0
    0.4113    0.7268    0.0926 C   0  0  2  0  0  0  0  0  0  0  0  0
    1.3324    0.0632    1.1484 C   0  0  0  0  0  0  0  0  0  0  0  0
    1.3964   -1.1586    1.1419 O   0  0  0  0  0  0  0  0  0  0  0  0
    1.2961    1.4142   -0.9582 C   0  0  0  0  0  0  0  0  0  0  0  0
    0.4867    1.7943   -2.1727 C   0  0  0  0  0  0  0  0  0  0  0  0
    0.0177    0.9347   -3.1671 N   0  3  0  0  0  0  0  0  0  0  0  0
    0.0852    3.0642   -2.4982 C   0  0  0  0  0  0  0  0  0  0  0  0
   -0.6567    1.6096   -4.0669 C   0  0  0  0  0  0  0  0  0  0  0  0
   -0.6312    2.9494   -3.6834 N   0  0  0  0  0  0  0  0  0  0  0  0
   -1.5457    1.3426    0.4128 H   0  0  0  0  0  0  0  0  0  0  0  0
   -0.1331   -0.0966   -0.3828 H   0  0  0  0  0  0  0  0  0  0  0  0
    2.1110    0.7462   -1.2594 H   0  0  0  0  0  0  0  0  0  0  0  0
    1.7525    2.3070   -0.5154 H   0  0  0  0  0  0  0  0  0  0  0  0
    0.1730   -0.0771   -3.1489 H   0  0  0  0  0  0  0  0  0  0  0  0
    0.2825    3.9684   -1.9206 H   0  0  0  0  0  0  0  0  0  0  0  0
   -1.1508    1.1987   -4.9496 H   0  0  0  0  0  0  0  0  0  0  0  0
   -1.0790    3.7235   -4.1831 H   0  0  0  0  0  0  0  0  0  0  0  0
    2.1871    0.7657    1.9761 N   0  0  0  0  0  0  0  0  0  0  0  0
    2.8672    0.1075    3.1027 C   0  0  2  0  0  0  0  0  0  0  0  0
    1.9026   -0.4639    4.1729 C   0  0  0  0  0  0  0  0  0  0  0  0
    0.7647   -0.0221    4.3100 O   0  0  0  0  0  0  0  0  0  0  0  0
    3.7988    1.1409    3.7404 C   0  0  0  0  0  0  0  0  0  0  0  0
    1.9222    1.7464    2.1079 H   0  0  0  0  0  0  0  0  0  0  0  0
    3.4703   -0.7217    2.7179 H   0  0  0  0  0  0  0  0  0  0  0  0
    3.2221    1.9819    4.1401 H   0  0  0  0  0  0  0  0  0  0  0  0
    4.3675    0.6904    4.5598 H   0  0  0  0  0  0  0  0  0  0  0  0
    4.5071    1.5242    2.9994 H   0  0  0  0  0  0  0  0  0  0  0  0
    2.3140   -1.4954    4.9958 N   0  0  0  0  0  0  0  0  0  0  0  0
    1.4486   -2.1258    5.9863 C   0  0  0  0  0  0  0  0  0  0  0  0
    3.2371   -1.8883    4.8332 H   0  0  0  0  0  0  0  0  0  0  0  0
    1.0973   -1.3878    6.7154 H   0  0  0  0  0  0  0  0  0  0  0  0
    0.5803   -2.5830    5.5001 H   0  0  0  0  0  0  0  0  0  0  0  0
    1.9946   -2.9072    6.5242 H   0  0  0  0  0  0  0  0  0  0  0  0
  1  2  2  0  0  0  0
  1  3  1  0  0  0  0
  1  7  1  0  0  0  0
  3  4  1  0  0  0  0
  3  5  1  0  0  0  0
  3  6  1  0  0  0  0
  7  8  1  0  0  0  0
  7 12  1  0  0  0  0
  8  9  1  0  0  0  0
  8 11  1  0  0  0  0
  8 13  1  0  0  0  0
  9 10  2  0  0  0  0
  9 17  1  0  0  0  0
 11 14  1  0  0  0  0
 11 15  1  0  0  0  0
 11 16  1  0  0  0  0
 17 18  1  0  0  0  0
 17 27  1  0  0  0  0
 18 19  1  0  0  0  0
 18 21  1  0  0  0  0
 18 28  1  0  0  0  0
 19 20  2  0  0  0  0
 19 35  1  0  0  0  0
 21 22  1  0  0  0  0
 21 29  1  0  0  0  0
 21 30  1  0  0  0  0
 22 23  1  0  0  0  0
 22 24  2  0  0  0  0
 23 25  2  0  0  0  0
 23 31  1  0  0  0  0
 24 26  1  0  0  0  0
 24 32  1  0  0  0  0
 25 26  1  0  0  0  0
 25 33  1  0  0  0  0
 26 34  1  0  0  0  0
 35 36  1  0  0  0  0
 35 40  1  0  0  0  0
 36 37  1  0  0  0  0
 36 39  1  0  0  0  0
 36 41  1  0  0  0  0
 37 38  2  0  0  0  0
 37 45  1  0  0  0  0
 39 42  1  0  0  0  0
 39 43  1  0  0  0  0
 39 44  1  0  0  0  0
 45 46  1  0  0  0  0
 45 47  1  0  0  0  0
 46 48  1  0  0  0  0
 46 49  1  0  0  0  0
 46 50  1  0  0  0  0
M  CHG  1  23   1
M  END
$$$$

  -OEChem-05262216443D

 50 50  0     1  0  0  0  0  0999 V2000
   -2.3740   -0.3928    2.2474 C   0  0  0  0  0  0  0  0  0  0  0  0
   -2.8221   -0.0279    1.1665 O   0  0  0  0  0  0  0  0  0  0  0  0
   -2.2172   -1.8685    2.5557 C   0  0  0  0  0  0  0  0  0  0  0  0
   -1.1574   -2.1370    2.5574 H   0  0  0  0  0  0  0  0  0  0  0  0
   -2.6405   -2.0913    3.5383 H   0  0  0  0  0  0  0  0  0  0  0  0
   -2.7358   -2.4699    1.8044 H   0  0  0  0  0  0  0  0  0  0  0  0
   -1.8686    0.5463    3.1203 N   0  0  0  0  0  0  0  0  0  0  0  0
   -1.7480    1.9751    2.8054 C   0  0  2  0  0  0  0  0  0  0  0  0
   -0.5722    2.2229    1.8335 C   0  0  0  0  0  0  0  0  0  0  0  0
    0.3955    2.9183    2.1196 O   0  0  0  0  0  0  0  0  0  0  0  0
   -1.5860    2.7195    4.1360 C   0  0  0  0  0  0  0  0  0  0  0  0
   -1.2310    0.1742    3.8343 H   0  0  0  0  0  0  0  0  0  0  0  0
   -2.6664    2.3306    2.3260 H   0  0  0  0  0  0  0  0  0  0  0  0
   -0.6788    2.3901    4.6540 H   0  0  0  0  0  0  0  0  0  0  0  0
   -1.5153    3.7983    3.9642 H   0  0  0  0  0  0  0  0  0  0  0  0
   -2.4459    2.5289    4.7857 H   0  0  0  0  0  0  0  0  0  0  0  0
   -0.5781    1.6412    0.5799 N   0  0  0  0  0  0  0  0  0  0  0  0
    0.4762    0.7158    0.1019 C   0  0  2  0  0  0  0  0  0  0  0  0
    1.4607    0.0725    1.1138 C   0  0  0  0  0  0  0  0  0  0  0  0
    1.7263   -1.1102    0.9491 O   0  0  0  0  0  0  0  0  0  0  0  0
    1.3129    1.4652   -0.9467 C   0  0  0  0  0  0  0  0  0  0  0  0
    0.4774    1.8175   -2.1517 C   0  0  0  0  0  0  0  0  0  0  0  0
    0.0528    0.9434   -3.1533 N   0  3  0  0  0  0  0  0  0  0  0  0
    0.0035    3.0663   -2.4610 C   0  0  0  0  0  0  0  0  0  0  0  0
   -0.6611    1.5890   -4.0439 C   0  0  0  0  0  0  0  0  0  0  0  0
   -0.7099    2.9240   -3.6451 N   0  0  0  0  0  0  0  0  0  0  0  0
   -1.5120    1.2526    0.4103 H   0  0  0  0  0  0  0  0  0  0  0  0
   -0.0335   -0.1253   -0.3805 H   0  0  0  0  0  0  0  0  0  0  0  0
    2.1615    0.8480   -1.2640 H   0  0  0  0  0  0  0  0  0  0  0  0
    1.7231    2.3750   -0.4929 H   0  0  0  0  0  0  0  0  0  0  0  0
    0.2700   -0.0573   -3.1494 H   0  0  0  0  0  0  0  0  0  0  0  0
    0.1524    3.9739   -1.8747 H   0  0  0  0  0  0  0  0  0  0  0  0
   -1.1325    1.1605   -4.9307 H   0  0  0  0  0  0  0  0  0  0  0  0
   -1.2010    3.6775   -4.1357 H   0  0  0  0  0  0  0  0  0  0  0  0
    2.0961    0.7505    2.1352 N   0  0  0  0  0  0  0  0  0  0  0  0
    2.7417    0.0462    3.2521 C   0  0  2  0  0  0  0  0  0  0  0  0
    1.7421   -0.6951    4.1741 C   0  0  0  0  0  0  0  0  0  0  0  0
    0.5641   -0.3523    4.2413 O   0  0  0  0  0  0  0  0  0  0  0  0
    3.5221    1.0890    4.0553 C   0  0  0  0  0  0  0  0  0  0  0  0
    1.7346    1.6898    2.3208 H   0  0  0  0  0  0  0  0  0  0  0  0
    3.4464   -0.6914    2.8535 H   0  0  0  0  0  0  0  0  0  0  0  0
    2.8418    1.8401    4.4707 H   0  0  0  0  0  0  0  0  0  0  0  0
    4.0601    0.6137    4.8813 H   0  0  0  0  0  0  0  0  0  0  0  0
    4.2514    1.5954    3.4152 H   0  0  0  0  0  0  0  0  0  0  0  0
    2.1685   -1.7545    4.9526 N   0  0  0  0  0  0  0  0  0  0  0  0
    1.2838   -2.5216    5.8226 C   0  0  0  0  0  0  0  0  0  0  0  0
    3.1341   -2.0551    4.8508 H   0  0  0  0  0  0  0  0  0  0  0  0
    0.7900   -1.8639    6.5455 H   0  0  0  0  0  0  0  0  0  0  0  0
    0.5178   -3.0358    5.2325 H   0  0  0  0  0  0  0  0  0  0  0  0
    1.8551   -3.2725    6.3773 H   0  0  0  0  0  0  0  0  0  0  0  0
  1  2  2  0  0  0  0
  1  3  1  0  0  0  0
  1  7  1  0  0  0  0
  3  4  1  0  0  0  0
  3  5  1  0  0  0  0
  3  6  1  0  0  0  0
  7  8  1  0  0  0  0
  7 12  1  0  0  0  0
  8  9  1  0  0  0  0
  8 11  1  0  0  0  0
  8 13  1  0  0  0  0
  9 10  2  0  0  0  0
  9 17  1  0  0  0  0
 11 14  1  0  0  0  0
 11 15  1  0  0  0  0
 11 16  1  0  0  0  0
 17 18  1  0  0  0  0
 17 27  1  0  0  0  0
 18 19  1  0  0  0  0
 18 21  1  0  0  0  0
 18 28  1  0  0  0  0
 19 20  2  0  0  0  0
 19 35  1  0  0  0  0
 21 22  1  0  0  0  0
 21 29  1  0  0  0  0
 21 30  1  0  0  0  0
 22 23  1  0  0  0  0
 22 24  2  0  0  0  0
 23 25  2  0  0  0  0
 23 31  1  0  0  0  0
 24 26  1  0  0  0  0
 24 32  1  0  0  0  0
 25 26  1  0  0  0  0
 25 33  1  0  0  0  0
 26 34  1  0  0  0  0
 35 36  1  0  0  0  0
 35 40  1  0  0  0  0
 36 37  1  0  0  0  0
 36 39  1  0  0  0  0
 36 41  1  0  0  0  0
 37 38  2  0  0  0  0
 37 45  1  0  0  0  0
 39 42  1  0  0  0  0
 39 43  1  0  0  0  0
 39 44  1  0  0  0  0
 45 46  1  0  0  0  0
 45 47  1  0  0  0  0
 46 48  1  0  0  0  0
 46 49  1  0  0  0  0
 46 50  1  0  0  0  0
M  CHG  1  23   1
M  END
$$$$

  -OEChem-05262216443D

 50 50  0     1  0  0  0  0  0999 V2000
   -1.1685    2.0533    2.9794 C   0  0  0  0  0  0  0  0  0  0  0  0
   -1.5876    2.7036    2.0333 O   0  0  0  0  0  0  0  0  0  0  0  0
   -0.6634    2.7649    4.2190 C   0  0  0  0  0  0  0  0  0  0  0  0
    0.3965    2.5473    4.3715 H   0  0  0  0  0  0  0  0  0  0  0  0
   -0.7922    3.8460    4.1154 H   0  0  0  0  0  0  0  0  0  0  0  0
   -1.2244    2.4281    5.0946 H   0  0  0  0  0  0  0  0  0  0  0  0
   -1.0494    0.6798    2.8943 N   0  0  0  0  0  0  0  0  0  0  0  0
   -1.8221   -0.1864    1.9836 C   0  0  2  0  0  0  0  0  0  0  0  0
   -1.7936    0.1551    0.4657 C   0  0  0  0  0  0  0  0  0  0  0  0
   -2.8192    0.1198   -0.1948 O   0  0  0  0  0  0  0  0  0  0  0  0
   -3.2576   -0.2233    2.5355 C   0  0  0  0  0  0  0  0  0  0  0  0
   -0.7185    0.2231    3.7534 H   0  0  0  0  0  0  0  0  0  0  0  0
   -1.4279   -1.2041    2.0628 H   0  0  0  0  0  0  0  0  0  0  0  0
   -3.7414    0.7525    2.4225 H   0  0  0  0  0  0  0  0  0  0  0  0
   -3.8553   -0.9673    1.9988 H   0  0  0  0  0  0  0  0  0  0  0  0
   -3.2549   -0.4920    3.5966 H   0  0  0  0  0  0  0  0  0  0  0  0
   -0.7824    0.6317   -0.3470 N   0  0  0  0  0  0  0  0  0  0  0  0
    0.7008    0.6192   -0.3595 C   0  0  2  0  0  0  0  0  0  0  0  0
    1.5579   -0.3180    0.5239 C   0  0  0  0  0  0  0  0  0  0  0  0
    2.6607   -0.6197    0.0933 O   0  0  0  0  0  0  0  0  0  0  0  0
    1.1366    2.0571   -0.0229 C   0  0  0  0  0  0  0  0  0  0  0  0
    0.6877    3.0261   -1.0867 C   0  0  0  0  0  0  0  0  0  0  0  0
    1.2257    3.2097   -2.3610 N   0  3  0  0  0  0  0  0  0  0  0  0
   -0.3817    3.8752   -0.9578 C   0  0  0  0  0  0  0  0  0  0  0  0
    0.5428    4.1236   -3.0093 C   0  0  0  0  0  0  0  0  0  0  0  0
   -0.4726    4.5632   -2.1604 N   0  0  0  0  0  0  0  0  0  0  0  0
   -1.2006    0.8409   -1.2509 H   0  0  0  0  0  0  0  0  0  0  0  0
    0.9990    0.3778   -1.3853 H   0  0  0  0  0  0  0  0  0  0  0  0
    2.2283    2.1110    0.0601 H   0  0  0  0  0  0  0  0  0  0  0  0
    0.7301    2.3481    0.9484 H   0  0  0  0  0  0  0  0  0  0  0  0
    2.0372    2.6890   -2.7058 H   0  0  0  0  0  0  0  0  0  0  0  0
   -1.0378    3.9567   -0.0866 H   0  0  0  0  0  0  0  0  0  0  0  0
    0.7314    4.4743   -4.0258 H   0  0  0  0  0  0  0  0  0  0  0  0
   -1.1861    5.2625   -2.3881 H   0  0  0  0  0  0  0  0  0  0  0  0
    1.1872   -0.7863    1.7648 N   0  0  0  0  0  0  0  0  0  0  0  0
    2.0323   -1.5711    2.6818 C   0  0  2  0  0  0  0  0  0  0  0  0
    1.2199   -2.0612    3.8992 C   0  0  0  0  0  0  0  0  0  0  0  0
    0.2648   -1.3966    4.2933 O   0  0  0  0  0  0  0  0  0  0  0  0
    3.2020   -0.7168    3.1943 C   0  0  0  0  0  0  0  0  0  0  0  0
    0.3198   -0.4167    2.1477 H   0  0  0  0  0  0  0  0  0  0  0  0
    2.4226   -2.4464    2.1516 H   0  0  0  0  0  0  0  0  0  0  0  0
    2.8293    0.1843    3.6916 H   0  0  0  0  0  0  0  0  0  0  0  0
    3.8028   -1.2843    3.9120 H   0  0  0  0  0  0  0  0  0  0  0  0
    3.8577   -0.4154    2.3725 H   0  0  0  0  0  0  0  0  0  0  0  0
    1.5746   -3.2115    4.5766 N   0  0  0  0  0  0  0  0  0  0  0  0
    0.8682   -3.6981    5.7571 C   0  0  0  0  0  0  0  0  0  0  0  0
    2.3792   -3.7338    4.2390 H   0  0  0  0  0  0  0  0  0  0  0  0
   -0.1840   -3.8930    5.5235 H   0  0  0  0  0  0  0  0  0  0  0  0
    1.3195   -4.6301    6.1119 H   0  0  0  0  0  0  0  0  0  0  0  0
    0.9185   -2.9613    6.5659 H   0  0  0  0  0  0  0  0  0  0  0  0
  1  2  2  0  0  0  0
  1  3  1  0  0  0  0
  1  7  1  0  0  0  0
  3  4  1  0  0  0  0
  3  5  1  0  0  0  0
  3  6  1  0  0  0  0
  7  8  1  0  0  0  0
  7 12  1  0  0  0  0
  8  9  1  0  0  0  0
  8 11  1  0  0  0  0
  8 13  1  0  0  0  0
  9 10  2  0  0  0  0
  9 17  1  0  0  0  0
 11 14  1  0  0  0  0
 11 15  1  0  0  0  0
 11 16  1  0  0  0  0
 17 18  1  0  0  0  0
 17 27  1  0  0  0  0
 18 19  1  0  0  0  0
 18 21  1  0  0  0  0
 18 28  1  0  0  0  0
 19 20  2  0  0  0  0
 19 35  1  0  0  0  0
 21 22  1  0  0  0  0
 21 29  1  0  0  0  0
 21 30  1  0  0  0  0
 22 23  1  0  0  0  0
 22 24  2  0  0  0  0
 23 25  2  0  0  0  0
 23 31  1  0  0  0  0
 24 26  1  0  0  0  0
 24 32  1  0  0  0  0
 25 26  1  0  0  0  0
 25 33  1  0  0  0  0
 26 34  1  0  0  0  0
 35 36  1  0  0  0  0
 35 40  1  0  0  0  0
 36 37  1  0  0  0  0
 36 39  1  0  0  0  0
 36 41  1  0  0  0  0
 37 38  2  0  0  0  0
 37 45  1  0  0  0  0
 39 42  1  0  0  0  0
 39 43  1  0  0  0  0
 39 44  1  0  0  0  0
 45 46  1  0  0  0  0
 45 47  1  0  0  0  0
 46 48  1  0  0  0  0
 46 49  1  0  0  0  0
 46 50  1  0  0  0  0
M  CHG  1  23   1
M  END
$$$$

  -OEChem-05262216443D

 50 50  0     1  0  0  0  0  0999 V2000
   -2.5204   -0.5046    1.9527 C   0  0  0  0  0  0  0  0  0  0  0  0
   -2.8678   -0.0140    0.8848 O   0  0  0  0  0  0  0  0  0  0  0  0
   -2.5323   -2.0079    2.1479 C   0  0  0  0  0  0  0  0  0  0  0  0
   -1.5120   -2.3753    2.2830 H   0  0  0  0  0  0  0  0  0  0  0  0
   -3.1206   -2.2625    3.0328 H   0  0  0  0  0  0  0  0  0  0  0  0
   -2.9746   -2.5002    1.2779 H   0  0  0  0  0  0  0  0  0  0  0  0
   -1.9983    0.3137    2.9311 N   0  0  0  0  0  0  0  0  0  0  0  0
   -1.8151    1.7647    2.7827 C   0  0  2  0  0  0  0  0  0  0  0  0
   -0.5784    2.0856    1.9120 C   0  0  0  0  0  0  0  0  0  0  0  0
    0.3591    2.7601    2.3181 O   0  0  0  0  0  0  0  0  0  0  0  0
   -1.7212    2.3541    4.1949 C   0  0  0  0  0  0  0  0  0  0  0  0
   -1.4317   -0.1652    3.6407 H   0  0  0  0  0  0  0  0  0  0  0  0
   -2.6917    2.2013    2.2920 H   0  0  0  0  0  0  0  0  0  0  0  0
   -0.8569    1.9436    4.7279 H   0  0  0  0  0  0  0  0  0  0  0  0
   -1.6158    3.4428    4.1483 H   0  0  0  0  0  0  0  0  0  0  0  0
   -2.6255    2.1196    4.7654 H   0  0  0  0  0  0  0  0  0  0  0  0
   -0.4951    1.5681    0.6340 N   0  0  0  0  0  0  0  0  0  0  0  0
    0.6474    0.7956    0.0862 C   0  0  2  0  0  0  0  0  0  0  0  0
    1.7407    0.1829    1.0063 C   0  0  0  0  0  0  0  0  0  0  0  0
    2.3693   -0.7580    0.5412 O   0  0  0  0  0  0  0  0  0  0  0  0
    1.3680    1.7219   -0.9093 C   0  0  0  0  0  0  0  0  0  0  0  0
    0.4753    2.0663   -2.0749 C   0  0  0  0  0  0  0  0  0  0  0  0
    0.1419    1.2273   -3.1385 N   0  3  0  0  0  0  0  0  0  0  0  0
   -0.1463    3.2705   -2.2838 C   0  0  0  0  0  0  0  0  0  0  0  0
   -0.6571    1.8495   -3.9718 C   0  0  0  0  0  0  0  0  0  0  0  0
   -0.8584    3.1342   -3.4694 N   0  0  0  0  0  0  0  0  0  0  0  0
   -1.3978    1.1474    0.3873 H   0  0  0  0  0  0  0  0  0  0  0  0
    0.2228   -0.0580   -0.4523 H   0  0  0  0  0  0  0  0  0  0  0  0
    2.2782    1.2412   -1.2868 H   0  0  0  0  0  0  0  0  0  0  0  0
    1.6770    2.6344   -0.3861 H   0  0  0  0  0  0  0  0  0  0  0  0
    0.4834    0.2652   -3.2173 H   0  0  0  0  0  0  0  0  0  0  0  0
   -0.0926    4.1435   -1.6321 H   0  0  0  0  0  0  0  0  0  0  0  0
   -1.0855    1.4379   -4.8877 H   0  0  0  0  0  0  0  0  0  0  0  0
   -1.4433    3.8588   -3.8964 H   0  0  0  0  0  0  0  0  0  0  0  0
    1.9495    0.5139    2.3296 N   0  0  0  0  0  0  0  0  0  0  0  0
    2.5447   -0.3901    3.3217 C   0  0  2  0  0  0  0  0  0  0  0  0
    1.4911   -1.2999    3.9957 C   0  0  0  0  0  0  0  0  0  0  0  0
    0.2983   -1.0015    3.9851 O   0  0  0  0  0  0  0  0  0  0  0  0
    3.2452    0.4822    4.3661 C   0  0  0  0  0  0  0  0  0  0  0  0
    1.3999    1.2996    2.6812 H   0  0  0  0  0  0  0  0  0  0  0  0
    3.2944   -1.0312    2.8455 H   0  0  0  0  0  0  0  0  0  0  0  0
    2.5218    1.1282    4.8749 H   0  0  0  0  0  0  0  0  0  0  0  0
    3.7429   -0.1401    5.1163 H   0  0  0  0  0  0  0  0  0  0  0  0
    3.9997    1.1145    3.8874 H   0  0  0  0  0  0  0  0  0  0  0  0
    1.8796   -2.4621    4.6346 N   0  0  0  0  0  0  0  0  0  0  0  0
    0.9493   -3.3648    5.3036 C   0  0  0  0  0  0  0  0  0  0  0  0
    2.8680   -2.6998    4.6218 H   0  0  0  0  0  0  0  0  0  0  0  0
    0.4085   -2.8396    6.0981 H   0  0  0  0  0  0  0  0  0  0  0  0
    0.2234   -3.7667    4.5890 H   0  0  0  0  0  0  0  0  0  0  0  0
    1.4915   -4.2027    5.7528 H   0  0  0  0  0  0  0  0  0  0  0  0
  1  2  2  0  0  0  0
  1  3  1  0  0  0  0
  1  7  1  0  0  0  0
  3  4  1  0  0  0  0
  3  5  1  0  0  0  0
  3  6  1  0  0  0  0
  7  8  1  0  0  0  0
  7 12  1  0  0  0  0
  8  9  1  0  0  0  0
  8 11  1  0  0  0  0
  8 13  1  0  0  0  0
  9 10  2  0  0  0  0
  9 17  1  0  0  0  0
 11 14  1  0  0  0  0
 11 15  1  0  0  0  0
 11 16  1  0  0  0  0
 17 18  1  0  0  0  0
 17 27  1  0  0  0  0
 18 19  1  0  0  0  0
 18 21  1  0  0  0  0
 18 28  1  0  0  0  0
 19 20  2  0  0  0  0
 19 35  1  0  0  0  0
 21 22  1  0  0  0  0
 21 29  1  0  0  0  0
 21 30  1  0  0  0  0
 22 23  1  0  0  0  0
 22 24  2  0  0  0  0
 23 25  2  0  0  0  0
 23 31  1  0  0  0  0
 24 26  1  0  0  0  0
 24 32  1  0  0  0  0
 25 26  1  0  0  0  0
 25 33  1  0  0  0  0
 26 34  1  0  0  0  0
 35 36  1  0  0  0  0
 35 40  1  0  0  0  0
 36 37  1  0  0  0  0
 36 39  1  0  0  0  0
 36 41  1  0  0  0  0
 37 38  2  0  0  0  0
 37 45  1  0  0  0  0
 39 42  1  0  0  0  0
 39 43  1  0  0  0  0
 39 44  1  0  0  0  0
 45 46  1  0  0  0  0
 45 47  1  0  0  0  0
 46 48  1  0  0  0  0
 46 49  1  0  0  0  0
 46 50  1  0  0  0  0
M  CHG  1  23   1
M  END
$$$$

  -OEChem-05262216443D

 50 50  0     1  0  0  0  0  0999 V2000
   -2.5375   -0.4715    1.8796 C   0  0  0  0  0  0  0  0  0  0  0  0
   -2.8624    0.0476    0.8183 O   0  0  0  0  0  0  0  0  0  0  0  0
   -2.5914   -1.9771    2.0459 C   0  0  0  0  0  0  0  0  0  0  0  0
   -3.1554   -2.4295    1.2258 H   0  0  0  0  0  0  0  0  0  0  0  0
   -1.5785   -2.3878    2.0515 H   0  0  0  0  0  0  0  0  0  0  0  0
   -3.0806   -2.2292    2.9901 H   0  0  0  0  0  0  0  0  0  0  0  0
   -1.9899    0.3115    2.8726 N   0  0  0  0  0  0  0  0  0  0  0  0
   -1.7634    1.7598    2.7561 C   0  0  2  0  0  0  0  0  0  0  0  0
   -0.5154    2.0662    1.8956 C   0  0  0  0  0  0  0  0  0  0  0  0
    0.4437    2.6903    2.3284 O   0  0  0  0  0  0  0  0  0  0  0  0
   -1.6553    2.3108    4.1826 C   0  0  0  0  0  0  0  0  0  0  0  0
   -1.4543   -0.2001    3.5835 H   0  0  0  0  0  0  0  0  0  0  0  0
   -2.6262    2.2327    2.2747 H   0  0  0  0  0  0  0  0  0  0  0  0
   -0.8069    1.8593    4.7074 H   0  0  0  0  0  0  0  0  0  0  0  0
   -1.5141    3.3961    4.1637 H   0  0  0  0  0  0  0  0  0  0  0  0
   -2.5685    2.0924    4.7449 H   0  0  0  0  0  0  0  0  0  0  0  0
   -0.4277    1.5397    0.6211 N   0  0  0  0  0  0  0  0  0  0  0  0
    0.7272    0.7931    0.0620 C   0  0  2  0  0  0  0  0  0  0  0  0
    1.8495    0.2146    0.9707 C   0  0  0  0  0  0  0  0  0  0  0  0
    2.6037   -0.5933    0.4455 O   0  0  0  0  0  0  0  0  0  0  0  0
    1.4004    1.7339   -0.9557 C   0  0  0  0  0  0  0  0  0  0  0  0
    0.4780    2.0411   -2.1084 C   0  0  0  0  0  0  0  0  0  0  0  0
    0.1545    1.1815   -3.1584 N   0  3  0  0  0  0  0  0  0  0  0  0
   -0.1827    3.2238   -2.3193 C   0  0  0  0  0  0  0  0  0  0  0  0
   -0.6731    1.7715   -3.9868 C   0  0  0  0  0  0  0  0  0  0  0  0
   -0.9071    3.0540   -3.4931 N   0  0  0  0  0  0  0  0  0  0  0  0
   -1.3298    1.1257    0.3619 H   0  0  0  0  0  0  0  0  0  0  0  0
    0.3188   -0.0778   -0.4607 H   0  0  0  0  0  0  0  0  0  0  0  0
    2.3179    1.2811   -1.3486 H   0  0  0  0  0  0  0  0  0  0  0  0
    1.6904    2.6598   -0.4454 H   0  0  0  0  0  0  0  0  0  0  0  0
    0.5285    0.2315   -3.2356 H   0  0  0  0  0  0  0  0  0  0  0  0
   -0.1449    4.1048   -1.6772 H   0  0  0  0  0  0  0  0  0  0  0  0
   -1.0999    1.3387   -4.8937 H   0  0  0  0  0  0  0  0  0  0  0  0
   -1.5184    3.7569   -3.9191 H   0  0  0  0  0  0  0  0  0  0  0  0
    1.8838    0.3360    2.3450 N   0  0  0  0  0  0  0  0  0  0  0  0
    2.4591   -0.6472    3.2709 C   0  0  2  0  0  0  0  0  0  0  0  0
    1.3721   -1.5475    3.9011 C   0  0  0  0  0  0  0  0  0  0  0  0
    0.1960   -1.1889    3.9287 O   0  0  0  0  0  0  0  0  0  0  0  0
    3.2082    0.1303    4.3553 C   0  0  0  0  0  0  0  0  0  0  0  0
    1.2679    1.0468    2.7410 H   0  0  0  0  0  0  0  0  0  0  0  0
    3.1731   -1.2928    2.7486 H   0  0  0  0  0  0  0  0  0  0  0  0
    2.5218    0.7848    4.9029 H   0  0  0  0  0  0  0  0  0  0  0  0
    3.6761   -0.5559    5.0679 H   0  0  0  0  0  0  0  0  0  0  0  0
    3.9923    0.7475    3.9053 H   0  0  0  0  0  0  0  0  0  0  0  0
    1.7087   -2.7707    4.4485 N   0  0  0  0  0  0  0  0  0  0  0  0
    0.7439   -3.6634    5.0818 C   0  0  0  0  0  0  0  0  0  0  0  0
    2.6862   -3.0494    4.4174 H   0  0  0  0  0  0  0  0  0  0  0  0
    0.2794   -3.1753    5.9452 H   0  0  0  0  0  0  0  0  0  0  0  0
   -0.0408   -3.9475    4.3726 H   0  0  0  0  0  0  0  0  0  0  0  0
    1.2415   -4.5748    5.4277 H   0  0  0  0  0  0  0  0  0  0  0  0
  1  2  2  0  0  0  0
  1  3  1  0  0  0  0
  1  7  1  0  0  0  0
  3  4  1  0  0  0  0
  3  5  1  0  0  0  0
  3  6  1  0  0  0  0
  7  8  1  0  0  0  0
  7 12  1  0  0  0  0
  8  9  1  0  0  0  0
  8 11  1  0  0  0  0
  8 13  1  0  0  0  0
  9 10  2  0  0  0  0
  9 17  1  0  0  0  0
 11 14  1  0  0  0  0
 11 15  1  0  0  0  0
 11 16  1  0  0  0  0
 17 18  1  0  0  0  0
 17 27  1  0  0  0  0
 18 19  1  0  0  0  0
 18 21  1  0  0  0  0
 18 28  1  0  0  0  0
 19 20  2  0  0  0  0
 19 35  1  0  0  0  0
 21 22  1  0  0  0  0
 21 29  1  0  0  0  0
 21 30  1  0  0  0  0
 22 23  1  0  0  0  0
 22 24  2  0  0  0  0
 23 25  2  0  0  0  0
 23 31  1  0  0  0  0
 24 26  1  0  0  0  0
 24 32  1  0  0  0  0
 25 26  1  0  0  0  0
 25 33  1  0  0  0  0
 26 34  1  0  0  0  0
 35 36  1  0  0  0  0
 35 40  1  0  0  0  0
 36 37  1  0  0  0  0
 36 39  1  0  0  0  0
 36 41  1  0  0  0  0
 37 38  2  0  0  0  0
 37 45  1  0  0  0  0
 39 42  1  0  0  0  0
 39 43  1  0  0  0  0
 39 44  1  0  0  0  0
 45 46  1  0  0  0  0
 45 47  1  0  0  0  0
 46 48  1  0  0  0  0
 46 49  1  0  0  0  0
 46 50  1  0  0  0  0
M  CHG  1  23   1
M  END
$$$$

  -OEChem-05262216443D

 50 50  0     1  0  0  0  0  0999 V2000
   -2.2083   -0.0087    4.0455 C   0  0  0  0  0  0  0  0  0  0  0  0
   -1.6177   -0.8304    3.3607 O   0  0  0  0  0  0  0  0  0  0  0  0
   -2.3003   -0.1811    5.5488 C   0  0  0  0  0  0  0  0  0  0  0  0
   -1.9457   -1.1749    5.8358 H   0  0  0  0  0  0  0  0  0  0  0  0
   -1.6858    0.5717    6.0489 H   0  0  0  0  0  0  0  0  0  0  0  0
   -3.3371   -0.0719    5.8758 H   0  0  0  0  0  0  0  0  0  0  0  0
   -2.7307    1.1128    3.4352 N   0  0  0  0  0  0  0  0  0  0  0  0
   -2.5023    1.3982    2.0124 C   0  0  2  0  0  0  0  0  0  0  0  0
   -1.0044    1.5831    1.6727 C   0  0  0  0  0  0  0  0  0  0  0  0
   -0.2495    2.1292    2.4647 O   0  0  0  0  0  0  0  0  0  0  0  0
   -3.2934    2.6582    1.6549 C   0  0  0  0  0  0  0  0  0  0  0  0
   -3.0258    1.8696    4.0461 H   0  0  0  0  0  0  0  0  0  0  0  0
   -2.8855    0.5597    1.4205 H   0  0  0  0  0  0  0  0  0  0  0  0
   -2.9281    3.5165    2.2289 H   0  0  0  0  0  0  0  0  0  0  0  0
   -3.1921    2.8846    0.5892 H   0  0  0  0  0  0  0  0  0  0  0  0
   -4.3557    2.5155    1.8776 H   0  0  0  0  0  0  0  0  0  0  0  0
   -0.5178    1.3086    0.4067 N   0  0  0  0  0  0  0  0  0  0  0  0
    0.8353    0.7689    0.1108 C   0  0  2  0  0  0  0  0  0  0  0  0
    1.7300    0.1206    1.2130 C   0  0  0  0  0  0  0  0  0  0  0  0
    2.8934   -0.1253    0.9117 O   0  0  0  0  0  0  0  0  0  0  0  0
    1.6191    1.9480   -0.5151 C   0  0  0  0  0  0  0  0  0  0  0  0
    1.0286    2.3939   -1.8280 C   0  0  0  0  0  0  0  0  0  0  0  0
    1.1443    1.7212   -3.0444 N   0  3  0  0  0  0  0  0  0  0  0  0
    0.3501    3.5625   -2.0590 C   0  0  0  0  0  0  0  0  0  0  0  0
    0.5744    2.4152   -3.9999 C   0  0  0  0  0  0  0  0  0  0  0  0
    0.0572    3.5723   -3.4181 N   0  0  0  0  0  0  0  0  0  0  0  0
   -1.2440    0.9462   -0.2054 H   0  0  0  0  0  0  0  0  0  0  0  0
    0.7146   -0.0264   -0.6312 H   0  0  0  0  0  0  0  0  0  0  0  0
    2.6646    1.6756   -0.6963 H   0  0  0  0  0  0  0  0  0  0  0  0
    1.6292    2.7791    0.1999 H   0  0  0  0  0  0  0  0  0  0  0  0
    1.6501    0.8356   -3.1433 H   0  0  0  0  0  0  0  0  0  0  0  0
    0.1142    4.3258   -1.3164 H   0  0  0  0  0  0  0  0  0  0  0  0
    0.5262    2.1425   -5.0561 H   0  0  0  0  0  0  0  0  0  0  0  0
   -0.4253    4.3268   -3.9157 H   0  0  0  0  0  0  0  0  0  0  0  0
    1.2838   -0.2925    2.4569 N   0  0  0  0  0  0  0  0  0  0  0  0
    2.0013   -1.3289    3.2153 C   0  0  2  0  0  0  0  0  0  0  0  0
    1.7691   -2.7511    2.6461 C   0  0  0  0  0  0  0  0  0  0  0  0
    1.0115   -2.9433    1.6995 O   0  0  0  0  0  0  0  0  0  0  0  0
    1.5523   -1.2405    4.6764 C   0  0  0  0  0  0  0  0  0  0  0  0
    0.2750   -0.2426    2.6073 H   0  0  0  0  0  0  0  0  0  0  0  0
    3.0774   -1.1287    3.1819 H   0  0  0  0  0  0  0  0  0  0  0  0
    0.5046   -1.5377    4.7750 H   0  0  0  0  0  0  0  0  0  0  0  0
    2.1577   -1.9000    5.3054 H   0  0  0  0  0  0  0  0  0  0  0  0
    1.6628   -0.2159    5.0456 H   0  0  0  0  0  0  0  0  0  0  0  0
    2.4475   -3.8309    3.1825 N   0  0  0  0  0  0  0  0  0  0  0  0
    2.3140   -5.1930    2.6786 C   0  0  0  0  0  0  0  0  0  0  0  0
    3.1077   -3.6472    3.9317 H   0  0  0  0  0  0  0  0  0  0  0  0
    1.2649   -5.5072    2.6941 H   0  0  0  0  0  0  0  0  0  0  0  0
    2.6865   -5.2592    1.6510 H   0  0  0  0  0  0  0  0  0  0  0  0
    2.8890   -5.8858    3.3008 H   0  0  0  0  0  0  0  0  0  0  0  0
  1  2  2  0  0  0  0
  1  3  1  0  0  0  0
  1  7  1  0  0  0  0
  3  4  1  0  0  0  0
  3  5  1  0  0  0  0
  3  6  1  0  0  0  0
  7  8  1  0  0  0  0
  7 12  1  0  0  0  0
  8  9  1  0  0  0  0
  8 11  1  0  0  0  0
  8 13  1  0  0  0  0
  9 10  2  0  0  0  0
  9 17  1  0  0  0  0
 11 14  1  0  0  0  0
 11 15  1  0  0  0  0
 11 16  1  0  0  0  0
 17 18  1  0  0  0  0
 17 27  1  0  0  0  0
 18 19  1  0  0  0  0
 18 21  1  0  0  0  0
 18 28  1  0  0  0  0
 19 20  2  0  0  0  0
 19 35  1  0  0  0  0
 21 22  1  0  0  0  0
 21 29  1  0  0  0  0
 21 30  1  0  0  0  0
 22 23  1  0  0  0  0
 22 24  2  0  0  0  0
 23 25  2  0  0  0  0
 23 31  1  0  0  0  0
 24 26  1  0  0  0  0
 24 32  1  0  0  0  0
 25 26  1  0  0  0  0
 25 33  1  0  0  0  0
 26 34  1  0  0  0  0
 35 36  1  0  0  0  0
 35 40  1  0  0  0  0
 36 37  1  0  0  0  0
 36 39  1  0  0  0  0
 36 41  1  0  0  0  0
 37 38  2  0  0  0  0
 37 45  1  0  0  0  0
 39 42  1  0  0  0  0
 39 43  1  0  0  0  0
 39 44  1  0  0  0  0
 45 46  1  0  0  0  0
 45 47  1  0  0  0  0
 46 48  1  0  0  0  0
 46 49  1  0  0  0  0
 46 50  1  0  0  0  0
M  CHG  1  23   1
M  END
$$$$

  -OEChem-05262216443D

 50 50  0     1  0  0  0  0  0999 V2000
   -2.2713   -0.2208    3.7708 C   0  0  0  0  0  0  0  0  0  0  0  0
   -1.7738   -0.8986    2.8828 O   0  0  0  0  0  0  0  0  0  0  0  0
   -2.4250   -0.7746    5.1733 C   0  0  0  0  0  0  0  0  0  0  0  0
   -2.1949   -1.8435    5.1838 H   0  0  0  0  0  0  0  0  0  0  0  0
   -1.7440   -0.2586    5.8542 H   0  0  0  0  0  0  0  0  0  0  0  0
   -3.4517   -0.6353    5.5206 H   0  0  0  0  0  0  0  0  0  0  0  0
   -2.6432    1.0765    3.4877 N   0  0  0  0  0  0  0  0  0  0  0  0
   -2.4189    1.6902    2.1730 C   0  0  2  0  0  0  0  0  0  0  0  0
   -0.9214    1.7451    1.7904 C   0  0  0  0  0  0  0  0  0  0  0  0
   -0.1061    2.2355    2.5577 O   0  0  0  0  0  0  0  0  0  0  0  0
   -3.0206    3.0975    2.2030 C   0  0  0  0  0  0  0  0  0  0  0  0
   -2.8809    1.6731    4.2760 H   0  0  0  0  0  0  0  0  0  0  0  0
   -2.9461    1.1005    1.4159 H   0  0  0  0  0  0  0  0  0  0  0  0
   -2.5182    3.7149    2.9555 H   0  0  0  0  0  0  0  0  0  0  0  0
   -2.9090    3.5816    1.2282 H   0  0  0  0  0  0  0  0  0  0  0  0
   -4.0871    3.0510    2.4453 H   0  0  0  0  0  0  0  0  0  0  0  0
   -0.5023    1.3948    0.5166 N   0  0  0  0  0  0  0  0  0  0  0  0
    0.8188    0.7967    0.1920 C   0  0  2  0  0  0  0  0  0  0  0  0
    1.7086    0.1843    1.3154 C   0  0  0  0  0  0  0  0  0  0  0  0
    2.9170    0.0867    1.1272 O   0  0  0  0  0  0  0  0  0  0  0  0
    1.6123    1.8843   -0.5693 C   0  0  0  0  0  0  0  0  0  0  0  0
    0.9629    2.2346   -1.8832 C   0  0  0  0  0  0  0  0  0  0  0  0
    0.9890    1.4491   -3.0355 N   0  3  0  0  0  0  0  0  0  0  0  0
    0.3037    3.3979   -2.1851 C   0  0  0  0  0  0  0  0  0  0  0  0
    0.3792    2.0673   -4.0178 C   0  0  0  0  0  0  0  0  0  0  0  0
   -0.0720    3.2892   -3.5196 N   0  0  0  0  0  0  0  0  0  0  0  0
   -1.2677    1.0398   -0.0505 H   0  0  0  0  0  0  0  0  0  0  0  0
    0.6356   -0.0480   -0.4792 H   0  0  0  0  0  0  0  0  0  0  0  0
    2.6345    1.5521   -0.7801 H   0  0  0  0  0  0  0  0  0  0  0  0
    1.6916    2.7714    0.0694 H   0  0  0  0  0  0  0  0  0  0  0  0
    1.4593    0.5397   -3.0773 H   0  0  0  0  0  0  0  0  0  0  0  0
    0.1317    4.2340   -1.5061 H   0  0  0  0  0  0  0  0  0  0  0  0
    0.2577    1.6973   -5.0380 H   0  0  0  0  0  0  0  0  0  0  0  0
   -0.5710    4.0055   -4.0561 H   0  0  0  0  0  0  0  0  0  0  0  0
    1.1742   -0.3947    2.4540 N   0  0  0  0  0  0  0  0  0  0  0  0
    1.9076   -1.4537    3.1616 C   0  0  2  0  0  0  0  0  0  0  0  0
    1.9514   -2.7786    2.3596 C   0  0  0  0  0  0  0  0  0  0  0  0
    1.2534   -2.9404    1.3622 O   0  0  0  0  0  0  0  0  0  0  0  0
    1.2339   -1.6676    4.5187 C   0  0  0  0  0  0  0  0  0  0  0  0
    0.1555   -0.4743    2.4614 H   0  0  0  0  0  0  0  0  0  0  0  0
    2.9386   -1.1285    3.3367 H   0  0  0  0  0  0  0  0  0  0  0  0
    0.2278   -2.0760    4.3844 H   0  0  0  0  0  0  0  0  0  0  0  0
    1.8122   -2.3686    5.1281 H   0  0  0  0  0  0  0  0  0  0  0  0
    1.1600   -0.7190    5.0599 H   0  0  0  0  0  0  0  0  0  0  0  0
    2.7931   -3.8020    2.7554 N   0  0  0  0  0  0  0  0  0  0  0  0
    2.9222   -5.0593    2.0273 C   0  0  0  0  0  0  0  0  0  0  0  0
    3.4074   -3.6264    3.5449 H   0  0  0  0  0  0  0  0  0  0  0  0
    1.9471   -5.5482    1.9284 H   0  0  0  0  0  0  0  0  0  0  0  0
    3.3300   -4.8819    1.0267 H   0  0  0  0  0  0  0  0  0  0  0  0
    3.5947   -5.7385    2.5601 H   0  0  0  0  0  0  0  0  0  0  0  0
  1  2  2  0  0  0  0
  1  3  1  0  0  0  0
  1  7  1  0  0  0  0
  3  4  1  0  0  0  0
  3  5  1  0  0  0  0
  3  6  1  0  0  0  0
  7  8  1  0  0  0  0
  7 12  1  0  0  0  0
  8  9  1  0  0  0  0
  8 11  1  0  0  0  0
  8 13  1  0  0  0  0
  9 10  2  0  0  0  0
  9 17  1  0  0  0  0
 11 14  1  0  0  0  0
 11 15  1  0  0  0  0
 11 16  1  0  0  0  0
 17 18  1  0  0  0  0
 17 27  1  0  0  0  0
 18 19  1  0  0  0  0
 18 21  1  0  0  0  0
 18 28  1  0  0  0  0
 19 20  2  0  0  0  0
 19 35  1  0  0  0  0
 21 22  1  0  0  0  0
 21 29  1  0  0  0  0
 21 30  1  0  0  0  0
 22 23  1  0  0  0  0
 22 24  2  0  0  0  0
 23 25  2  0  0  0  0
 23 31  1  0  0  0  0
 24 26  1  0  0  0  0
 24 32  1  0  0  0  0
 25 26  1  0  0  0  0
 25 33  1  0  0  0  0
 26 34  1  0  0  0  0
 35 36  1  0  0  0  0
 35 40  1  0  0  0  0
 36 37  1  0  0  0  0
 36 39  1  0  0  0  0
 36 41  1  0  0  0  0
 37 38  2  0  0  0  0
 37 45  1  0  0  0  0
 39 42  1  0  0  0  0
 39 43  1  0  0  0  0
 39 44  1  0  0  0  0
 45 46  1  0  0  0  0
 45 47  1  0  0  0  0
 46 48  1  0  0  0  0
 46 49  1  0  0  0  0
 46 50  1  0  0  0  0
M  CHG  1  23   1
M  END
$$$$

  -OEChem-05262216443D

 50 50  0     1  0  0  0  0  0999 V2000
   -2.3240   -0.3406    3.5573 C   0  0  0  0  0  0  0  0  0  0  0  0
   -1.8642   -0.9229    2.5841 O   0  0  0  0  0  0  0  0  0  0  0  0
   -2.5056   -1.0648    4.8770 C   0  0  0  0  0  0  0  0  0  0  0  0
   -2.3218   -2.1352    4.7489 H   0  0  0  0  0  0  0  0  0  0  0  0
   -1.8055   -0.6717    5.6183 H   0  0  0  0  0  0  0  0  0  0  0  0
   -3.5265   -0.9273    5.2419 H   0  0  0  0  0  0  0  0  0  0  0  0
   -2.6313    0.9995    3.4500 N   0  0  0  0  0  0  0  0  0  0  0  0
   -2.4008    1.7719    2.2232 C   0  0  2  0  0  0  0  0  0  0  0  0
   -0.9055    1.8258    1.8331 C   0  0  0  0  0  0  0  0  0  0  0  0
   -0.0865    2.3212    2.5932 O   0  0  0  0  0  0  0  0  0  0  0  0
   -2.9603    3.1803    2.4424 C   0  0  0  0  0  0  0  0  0  0  0  0
   -2.8459    1.4981    4.3100 H   0  0  0  0  0  0  0  0  0  0  0  0
   -2.9542    1.3041    1.4026 H   0  0  0  0  0  0  0  0  0  0  0  0
   -2.4357    3.6805    3.2637 H   0  0  0  0  0  0  0  0  0  0  0  0
   -2.8395    3.7839    1.5377 H   0  0  0  0  0  0  0  0  0  0  0  0
   -4.0263    3.1335    2.6867 H   0  0  0  0  0  0  0  0  0  0  0  0
   -0.4925    1.4178    0.5733 N   0  0  0  0  0  0  0  0  0  0  0  0
    0.8319    0.8125    0.2841 C   0  0  2  0  0  0  0  0  0  0  0  0
    1.6856    0.2797    1.4692 C   0  0  0  0  0  0  0  0  0  0  0  0
    2.9100    0.3431    1.4277 O   0  0  0  0  0  0  0  0  0  0  0  0
    1.6388    1.8423   -0.5369 C   0  0  0  0  0  0  0  0  0  0  0  0
    1.0005    2.1130   -1.8744 C   0  0  0  0  0  0  0  0  0  0  0  0
    1.0263    1.2570   -2.9755 N   0  3  0  0  0  0  0  0  0  0  0  0
    0.3587    3.2631   -2.2536 C   0  0  0  0  0  0  0  0  0  0  0  0
    0.4309    1.8199   -3.9990 C   0  0  0  0  0  0  0  0  0  0  0  0
   -0.0068    3.0766   -3.5820 N   0  0  0  0  0  0  0  0  0  0  0  0
   -1.2574    1.0261    0.0297 H   0  0  0  0  0  0  0  0  0  0  0  0
    0.6591   -0.0748   -0.3332 H   0  0  0  0  0  0  0  0  0  0  0  0
    2.6582    1.4833   -0.7164 H   0  0  0  0  0  0  0  0  0  0  0  0
    1.7229    2.7677    0.0447 H   0  0  0  0  0  0  0  0  0  0  0  0
    1.4814    0.3390   -2.9555 H   0  0  0  0  0  0  0  0  0  0  0  0
    0.1928    4.1417   -1.6292 H   0  0  0  0  0  0  0  0  0  0  0  0
    0.3103    1.3876   -4.9943 H   0  0  0  0  0  0  0  0  0  0  0  0
   -0.4892    3.7659   -4.1668 H   0  0  0  0  0  0  0  0  0  0  0  0
    1.0909   -0.4877    2.4561 N   0  0  0  0  0  0  0  0  0  0  0  0
    1.8485   -1.5769    3.0860 C   0  0  2  0  0  0  0  0  0  0  0  0
    2.1505   -2.7297    2.0963 C   0  0  0  0  0  0  0  0  0  0  0  0
    1.5548   -2.8171    1.0248 O   0  0  0  0  0  0  0  0  0  0  0  0
    1.0327   -2.0946    4.2720 C   0  0  0  0  0  0  0  0  0  0  0  0
    0.0909   -0.6544    2.3241 H   0  0  0  0  0  0  0  0  0  0  0  0
    2.8017   -1.1881    3.4607 H   0  0  0  0  0  0  0  0  0  0  0  0
    0.0915   -2.5332    3.9254 H   0  0  0  0  0  0  0  0  0  0  0  0
    1.5919   -2.8619    4.8161 H   0  0  0  0  0  0  0  0  0  0  0  0
    0.8073   -1.2764    4.9628 H   0  0  0  0  0  0  0  0  0  0  0  0
    3.1072   -3.6774    2.4094 N   0  0  0  0  0  0  0  0  0  0  0  0
    3.4889   -4.7595    1.5095 C   0  0  0  0  0  0  0  0  0  0  0  0
    3.6374   -3.5428    3.2654 H   0  0  0  0  0  0  0  0  0  0  0  0
    2.6097   -5.3420    1.2137 H   0  0  0  0  0  0  0  0  0  0  0  0
    3.9647   -4.3578    0.6086 H   0  0  0  0  0  0  0  0  0  0  0  0
    4.1955   -5.4327    2.0049 H   0  0  0  0  0  0  0  0  0  0  0  0
  1  2  2  0  0  0  0
  1  3  1  0  0  0  0
  1  7  1  0  0  0  0
  3  4  1  0  0  0  0
  3  5  1  0  0  0  0
  3  6  1  0  0  0  0
  7  8  1  0  0  0  0
  7 12  1  0  0  0  0
  8  9  1  0  0  0  0
  8 11  1  0  0  0  0
  8 13  1  0  0  0  0
  9 10  2  0  0  0  0
  9 17  1  0  0  0  0
 11 14  1  0  0  0  0
 11 15  1  0  0  0  0
 11 16  1  0  0  0  0
 17 18  1  0  0  0  0
 17 27  1  0  0  0  0
 18 19  1  0  0  0  0
 18 21  1  0  0  0  0
 18 28  1  0  0  0  0
 19 20  2  0  0  0  0
 19 35  1  0  0  0  0
 21 22  1  0  0  0  0
 21 29  1  0  0  0  0
 21 30  1  0  0  0  0
 22 23  1  0  0  0  0
 22 24  2  0  0  0  0
 23 25  2  0  0  0  0
 23 31  1  0  0  0  0
 24 26  1  0  0  0  0
 24 32  1  0  0  0  0
 25 26  1  0  0  0  0
 25 33  1  0  0  0  0
 26 34  1  0  0  0  0
 35 36  1  0  0  0  0
 35 40  1  0  0  0  0
 36 37  1  0  0  0  0
 36 39  1  0  0  0  0
 36 41  1  0  0  0  0
 37 38  2  0  0  0  0
 37 45  1  0  0  0  0
 39 42  1  0  0  0  0
 39 43  1  0  0  0  0
 39 44  1  0  0  0  0
 45 46  1  0  0  0  0
 45 47  1  0  0  0  0
 46 48  1  0  0  0  0
 46 49  1  0  0  0  0
 46 50  1  0  0  0  0
M  CHG  1  23   1
M  END
$$$$

  -OEChem-05262216443D

 50 50  0     1  0  0  0  0  0999 V2000
   -2.3224   -0.4257    3.3451 C   0  0  0  0  0  0  0  0  0  0  0  0
   -1.8613   -0.9109    2.3197 O   0  0  0  0  0  0  0  0  0  0  0  0
   -2.4776   -1.2732    4.5928 C   0  0  0  0  0  0  0  0  0  0  0  0
   -2.3252   -2.3295    4.3535 H   0  0  0  0  0  0  0  0  0  0  0  0
   -1.7432   -0.9703    5.3434 H   0  0  0  0  0  0  0  0  0  0  0  0
   -3.4818   -1.1510    5.0068 H   0  0  0  0  0  0  0  0  0  0  0  0
   -2.6462    0.9152    3.3701 N   0  0  0  0  0  0  0  0  0  0  0  0
   -2.4271    1.8137    2.2293 C   0  0  2  0  0  0  0  0  0  0  0  0
   -0.9314    1.9242    1.8531 C   0  0  0  0  0  0  0  0  0  0  0  0
   -0.1388    2.4566    2.6159 O   0  0  0  0  0  0  0  0  0  0  0  0
   -3.0079    3.1852    2.5882 C   0  0  0  0  0  0  0  0  0  0  0  0
   -2.8668    1.3224    4.2760 H   0  0  0  0  0  0  0  0  0  0  0  0
   -2.9730    1.4269    1.3626 H   0  0  0  0  0  0  0  0  0  0  0  0
   -2.4965    3.6061    3.4607 H   0  0  0  0  0  0  0  0  0  0  0  0
   -2.8883    3.8800    1.7514 H   0  0  0  0  0  0  0  0  0  0  0  0
   -4.0748    3.1007    2.8172 H   0  0  0  0  0  0  0  0  0  0  0  0
   -0.4869    1.4606    0.6233 N   0  0  0  0  0  0  0  0  0  0  0  0
    0.8521    0.8610    0.4056 C   0  0  2  0  0  0  0  0  0  0  0  0
    1.6540    0.4153    1.6565 C   0  0  0  0  0  0  0  0  0  0  0  0
    2.8584    0.6295    1.7468 O   0  0  0  0  0  0  0  0  0  0  0  0
    1.6822    1.8380   -0.4512 C   0  0  0  0  0  0  0  0  0  0  0  0
    1.0813    2.0137   -1.8207 C   0  0  0  0  0  0  0  0  0  0  0  0
    1.1466    1.0807   -2.8552 N   0  3  0  0  0  0  0  0  0  0  0  0
    0.4374    3.1251   -2.2986 C   0  0  0  0  0  0  0  0  0  0  0  0
    0.5718    1.5595   -3.9318 C   0  0  0  0  0  0  0  0  0  0  0  0
    0.1103    2.8379   -3.6192 N   0  0  0  0  0  0  0  0  0  0  0  0
   -1.2329    1.0130    0.0962 H   0  0  0  0  0  0  0  0  0  0  0  0
    0.7102   -0.0637   -0.1628 H   0  0  0  0  0  0  0  0  0  0  0  0
    2.7077    1.4708   -0.5703 H   0  0  0  0  0  0  0  0  0  0  0  0
    1.7435    2.7999    0.0707 H   0  0  0  0  0  0  0  0  0  0  0  0
    1.6011    0.1677   -2.7517 H   0  0  0  0  0  0  0  0  0  0  0  0
    0.2423    4.0434   -1.7436 H   0  0  0  0  0  0  0  0  0  0  0  0
    0.4794    1.0530   -4.8945 H   0  0  0  0  0  0  0  0  0  0  0  0
   -0.3686    3.4746   -4.2633 H   0  0  0  0  0  0  0  0  0  0  0  0
    1.0799   -0.5466    2.4677 N   0  0  0  0  0  0  0  0  0  0  0  0
    1.9010   -1.6568    2.9664 C   0  0  2  0  0  0  0  0  0  0  0  0
    2.3631   -2.6024    1.8285 C   0  0  0  0  0  0  0  0  0  0  0  0
    1.8549   -2.5445    0.7099 O   0  0  0  0  0  0  0  0  0  0  0  0
    1.0674   -2.4234    3.9950 C   0  0  0  0  0  0  0  0  0  0  0  0
    0.1145   -0.7787    2.2232 H   0  0  0  0  0  0  0  0  0  0  0  0
    2.7922   -1.2579    3.4634 H   0  0  0  0  0  0  0  0  0  0  0  0
    0.1733   -2.8454    3.5246 H   0  0  0  0  0  0  0  0  0  0  0  0
    1.6499   -3.2413    4.4299 H   0  0  0  0  0  0  0  0  0  0  0  0
    0.7570   -1.7545    4.8034 H   0  0  0  0  0  0  0  0  0  0  0  0
    3.3665   -3.5248    2.0598 N   0  0  0  0  0  0  0  0  0  0  0  0
    3.8860   -4.4222    1.0344 C   0  0  0  0  0  0  0  0  0  0  0  0
    3.8172   -3.5094    2.9703 H   0  0  0  0  0  0  0  0  0  0  0  0
    3.0805   -5.0367    0.6180 H   0  0  0  0  0  0  0  0  0  0  0  0
    4.3490   -3.8507    0.2231 H   0  0  0  0  0  0  0  0  0  0  0  0
    4.6411   -5.0892    1.4623 H   0  0  0  0  0  0  0  0  0  0  0  0
  1  2  2  0  0  0  0
  1  3  1  0  0  0  0
  1  7  1  0  0  0  0
  3  4  1  0  0  0  0
  3  5  1  0  0  0  0
  3  6  1  0  0  0  0
  7  8  1  0  0  0  0
  7 12  1  0  0  0  0
  8  9  1  0  0  0  0
  8 11  1  0  0  0  0
  8 13  1  0  0  0  0
  9 10  2  0  0  0  0
  9 17  1  0  0  0  0
 11 14  1  0  0  0  0
 11 15  1  0  0  0  0
 11 16  1  0  0  0  0
 17 18  1  0  0  0  0
 17 27  1  0  0  0  0
 18 19  1  0  0  0  0
 18 21  1  0  0  0  0
 18 28  1  0  0  0  0
 19 20  2  0  0  0  0
 19 35  1  0  0  0  0
 21 22  1  0  0  0  0
 21 29  1  0  0  0  0
 21 30  1  0  0  0  0
 22 23  1  0  0  0  0
 22 24  2  0  0  0  0
 23 25  2  0  0  0  0
 23 31  1  0  0  0  0
 24 26  1  0  0  0  0
 24 32  1  0  0  0  0
 25 26  1  0  0  0  0
 25 33  1  0  0  0  0
 26 34  1  0  0  0  0
 35 36  1  0  0  0  0
 35 40  1  0  0  0  0
 36 37  1  0  0  0  0
 36 39  1  0  0  0  0
 36 41  1  0  0  0  0
 37 38  2  0  0  0  0
 37 45  1  0  0  0  0
 39 42  1  0  0  0  0
 39 43  1  0  0  0  0
 39 44  1  0  0  0  0
 45 46  1  0  0  0  0
 45 47  1  0  0  0  0
 46 48  1  0  0  0  0
 46 49  1  0  0  0  0
 46 50  1  0  0  0  0
M  CHG  1  23   1
M  END
$$$$

  -OEChem-05262216443D

 50 50  0     1  0  0  0  0  0999 V2000
   -2.3293   -0.4533    3.1323 C   0  0  0  0  0  0  0  0  0  0  0  0
   -1.9023   -0.8432    2.0522 O   0  0  0  0  0  0  0  0  0  0  0  0
   -2.4278   -1.4108    4.3037 C   0  0  0  0  0  0  0  0  0  0  0  0
   -2.2075   -2.4314    3.9783 H   0  0  0  0  0  0  0  0  0  0  0  0
   -1.7133   -1.1251    5.0798 H   0  0  0  0  0  0  0  0  0  0  0  0
   -3.4371   -1.3878    4.7222 H   0  0  0  0  0  0  0  0  0  0  0  0
   -2.6512    0.8783    3.2985 N   0  0  0  0  0  0  0  0  0  0  0  0
   -2.4661    1.8939    2.2535 C   0  0  2  0  0  0  0  0  0  0  0  0
   -0.9784    2.0578    1.8641 C   0  0  0  0  0  0  0  0  0  0  0  0
   -0.1968    2.6247    2.6127 O   0  0  0  0  0  0  0  0  0  0  0  0
   -3.0580    3.2105    2.7681 C   0  0  0  0  0  0  0  0  0  0  0  0
   -2.8454    1.1913    4.2469 H   0  0  0  0  0  0  0  0  0  0  0  0
   -3.0249    1.5964    1.3604 H   0  0  0  0  0  0  0  0  0  0  0  0
   -2.5441    3.5369    3.6788 H   0  0  0  0  0  0  0  0  0  0  0  0
   -2.9519    3.9955    2.0128 H   0  0  0  0  0  0  0  0  0  0  0  0
   -4.1223    3.0895    2.9932 H   0  0  0  0  0  0  0  0  0  0  0  0
   -0.5192    1.5330    0.6652 N   0  0  0  0  0  0  0  0  0  0  0  0
    0.8013    0.8766    0.5296 C   0  0  2  0  0  0  0  0  0  0  0  0
    1.5280    0.4585    1.8331 C   0  0  0  0  0  0  0  0  0  0  0  0
    2.6883    0.7890    2.0536 O   0  0  0  0  0  0  0  0  0  0  0  0
    1.7173    1.7528   -0.3446 C   0  0  0  0  0  0  0  0  0  0  0  0
    1.1816    1.8670   -1.7457 C   0  0  0  0  0  0  0  0  0  0  0  0
    1.2449    0.8584   -2.7064 N   0  3  0  0  0  0  0  0  0  0  0  0
    0.6214    2.9721   -2.3302 C   0  0  0  0  0  0  0  0  0  0  0  0
    0.7447    1.2852   -3.8403 C   0  0  0  0  0  0  0  0  0  0  0  0
    0.3397    2.6053   -3.6417 N   0  0  0  0  0  0  0  0  0  0  0  0
   -1.2641    1.0561    0.1618 H   0  0  0  0  0  0  0  0  0  0  0  0
    0.6362   -0.0656   -0.0022 H   0  0  0  0  0  0  0  0  0  0  0  0
    2.7248    1.3238   -0.3912 H   0  0  0  0  0  0  0  0  0  0  0  0
    1.8080    2.7424    0.1177 H   0  0  0  0  0  0  0  0  0  0  0  0
    1.6397   -0.0682   -2.5129 H   0  0  0  0  0  0  0  0  0  0  0  0
    0.4522    3.9367   -1.8504 H   0  0  0  0  0  0  0  0  0  0  0  0
    0.6666    0.7136   -4.7671 H   0  0  0  0  0  0  0  0  0  0  0  0
   -0.0740    3.2167   -4.3519 H   0  0  0  0  0  0  0  0  0  0  0  0
    1.0236   -0.6621    2.4663 N   0  0  0  0  0  0  0  0  0  0  0  0
    1.9369   -1.7519    2.8316 C   0  0  2  0  0  0  0  0  0  0  0  0
    2.5810   -2.4231    1.5905 C   0  0  0  0  0  0  0  0  0  0  0  0
    2.1128   -2.2598    0.4634 O   0  0  0  0  0  0  0  0  0  0  0  0
    1.1356   -2.7762    3.6386 C   0  0  0  0  0  0  0  0  0  0  0  0
    0.1024   -0.9452    2.1245 H   0  0  0  0  0  0  0  0  0  0  0  0
    2.7406   -1.3571    3.4631 H   0  0  0  0  0  0  0  0  0  0  0  0
    0.3246   -3.1928    3.0322 H   0  0  0  0  0  0  0  0  0  0  0  0
    1.7814   -3.5971    3.9659 H   0  0  0  0  0  0  0  0  0  0  0  0
    0.7025   -2.3045    4.5260 H   0  0  0  0  0  0  0  0  0  0  0  0
    3.7063   -3.2118    1.7390 N   0  0  0  0  0  0  0  0  0  0  0  0
    4.4044   -3.8369    0.6217 C   0  0  0  0  0  0  0  0  0  0  0  0
    4.1193   -3.2682    2.6661 H   0  0  0  0  0  0  0  0  0  0  0  0
    3.7227   -4.4778    0.0524 H   0  0  0  0  0  0  0  0  0  0  0  0
    4.8148   -3.0743   -0.0483 H   0  0  0  0  0  0  0  0  0  0  0  0
    5.2294   -4.4549    0.9893 H   0  0  0  0  0  0  0  0  0  0  0  0
  1  2  2  0  0  0  0
  1  3  1  0  0  0  0
  1  7  1  0  0  0  0
  3  4  1  0  0  0  0
  3  5  1  0  0  0  0
  3  6  1  0  0  0  0
  7  8  1  0  0  0  0
  7 12  1  0  0  0  0
  8  9  1  0  0  0  0
  8 11  1  0  0  0  0
  8 13  1  0  0  0  0
  9 10  2  0  0  0  0
  9 17  1  0  0  0  0
 11 14  1  0  0  0  0
 11 15  1  0  0  0  0
 11 16  1  0  0  0  0
 17 18  1  0  0  0  0
 17 27  1  0  0  0  0
 18 19  1  0  0  0  0
 18 21  1  0  0  0  0
 18 28  1  0  0  0  0
 19 20  2  0  0  0  0
 19 35  1  0  0  0  0
 21 22  1  0  0  0  0
 21 29  1  0  0  0  0
 21 30  1  0  0  0  0
 22 23  1  0  0  0  0
 22 24  2  0  0  0  0
 23 25  2  0  0  0  0
 23 31  1  0  0  0  0
 24 26  1  0  0  0  0
 24 32  1  0  0  0  0
 25 26  1  0  0  0  0
 25 33  1  0  0  0  0
 26 34  1  0  0  0  0
 35 36  1  0  0  0  0
 35 40  1  0  0  0  0
 36 37  1  0  0  0  0
 36 39  1  0  0  0  0
 36 41  1  0  0  0  0
 37 38  2  0  0  0  0
 37 45  1  0  0  0  0
 39 42  1  0  0  0  0
 39 43  1  0  0  0  0
 39 44  1  0  0  0  0
 45 46  1  0  0  0  0
 45 47  1  0  0  0  0
 46 48  1  0  0  0  0
 46 49  1  0  0  0  0
 46 50  1  0  0  0  0
M  CHG  1  23   1
M  END
$$$$

  -OEChem-05262216443D

 50 50  0     1  0  0  0  0  0999 V2000
   -2.3406   -0.4921    2.9741 C   0  0  0  0  0  0  0  0  0  0  0  0
   -1.9117   -0.8132    1.8718 O   0  0  0  0  0  0  0  0  0  0  0  0
   -2.3754   -1.5089    4.0984 C   0  0  0  0  0  0  0  0  0  0  0  0
   -2.0858   -2.4955    3.7265 H   0  0  0  0  0  0  0  0  0  0  0  0
   -1.6818   -1.2130    4.8898 H   0  0  0  0  0  0  0  0  0  0  0  0
   -3.3841   -1.5741    4.5141 H   0  0  0  0  0  0  0  0  0  0  0  0
   -2.7129    0.8155    3.2149 N   0  0  0  0  0  0  0  0  0  0  0  0
   -2.5595    1.9018    2.2366 C   0  0  2  0  0  0  0  0  0  0  0  0
   -1.0743    2.1528    1.8873 C   0  0  0  0  0  0  0  0  0  0  0  0
   -0.3356    2.7305    2.6698 O   0  0  0  0  0  0  0  0  0  0  0  0
   -3.2193    3.1557    2.8206 C   0  0  0  0  0  0  0  0  0  0  0  0
   -2.9073    1.0658    4.1818 H   0  0  0  0  0  0  0  0  0  0  0  0
   -3.0894    1.6369    1.3159 H   0  0  0  0  0  0  0  0  0  0  0  0
   -2.7354    3.4470    3.7589 H   0  0  0  0  0  0  0  0  0  0  0  0
   -3.1375    3.9908    2.1180 H   0  0  0  0  0  0  0  0  0  0  0  0
   -4.2801    2.9726    3.0178 H   0  0  0  0  0  0  0  0  0  0  0  0
   -0.5540    1.6228    0.7178 N   0  0  0  0  0  0  0  0  0  0  0  0
    0.7487    0.9244    0.6896 C   0  0  2  0  0  0  0  0  0  0  0  0
    1.3735    0.4714    2.0329 C   0  0  0  0  0  0  0  0  0  0  0  0
    2.4524    0.9114    2.4142 O   0  0  0  0  0  0  0  0  0  0  0  0
    1.7719    1.7272   -0.1309 C   0  0  0  0  0  0  0  0  0  0  0  0
    1.3478    1.8139   -1.5686 C   0  0  0  0  0  0  0  0  0  0  0  0
    1.4464    0.7517   -2.4652 N   0  3  0  0  0  0  0  0  0  0  0  0
    0.8772    2.9052   -2.2489 C   0  0  0  0  0  0  0  0  0  0  0  0
    1.0523    1.1330   -3.6557 C   0  0  0  0  0  0  0  0  0  0  0  0
    0.6845    2.4761   -3.5582 N   0  0  0  0  0  0  0  0  0  0  0  0
   -1.2753    1.1461    0.1810 H   0  0  0  0  0  0  0  0  0  0  0  0
    0.5693   -0.0084    0.1473 H   0  0  0  0  0  0  0  0  0  0  0  0
    2.7581    1.2505   -0.0826 H   0  0  0  0  0  0  0  0  0  0  0  0
    1.8716    2.7272    0.3062 H   0  0  0  0  0  0  0  0  0  0  0  0
    1.7893   -0.1758   -2.1868 H   0  0  0  0  0  0  0  0  0  0  0  0
    0.7070    3.8991   -1.8334 H   0  0  0  0  0  0  0  0  0  0  0  0
    1.0241    0.5143   -4.5545 H   0  0  0  0  0  0  0  0  0  0  0  0
    0.3495    3.0610   -4.3296 H   0  0  0  0  0  0  0  0  0  0  0  0
    1.0102   -0.7997    2.4363 N   0  0  0  0  0  0  0  0  0  0  0  0
    2.0542   -1.8139    2.6326 C   0  0  2  0  0  0  0  0  0  0  0  0
    2.8048   -2.1709    1.3202 C   0  0  0  0  0  0  0  0  0  0  0  0
    2.3662   -1.8435    0.2150 O   0  0  0  0  0  0  0  0  0  0  0  0
    1.3771   -3.0547    3.2199 C   0  0  0  0  0  0  0  0  0  0  0  0
    0.1449   -1.1273    2.0026 H   0  0  0  0  0  0  0  0  0  0  0  0
    2.7899   -1.4414    3.3544 H   0  0  0  0  0  0  0  0  0  0  0  0
    0.6422   -3.4601    2.5167 H   0  0  0  0  0  0  0  0  0  0  0  0
    2.1176   -3.8313    3.4352 H   0  0  0  0  0  0  0  0  0  0  0  0
    0.8641   -2.8006    4.1532 H   0  0  0  0  0  0  0  0  0  0  0  0
    3.9961   -2.8695    1.3799 N   0  0  0  0  0  0  0  0  0  0  0  0
    4.7870   -3.2236    0.2067 C   0  0  0  0  0  0  0  0  0  0  0  0
    4.3726   -3.0754    2.3019 H   0  0  0  0  0  0  0  0  0  0  0  0
    4.1949   -3.8288   -0.4880 H   0  0  0  0  0  0  0  0  0  0  0  0
    5.1288   -2.3221   -0.3124 H   0  0  0  0  0  0  0  0  0  0  0  0
    5.6657   -3.8045    0.5041 H   0  0  0  0  0  0  0  0  0  0  0  0
  1  2  2  0  0  0  0
  1  3  1  0  0  0  0
  1  7  1  0  0  0  0
  3  4  1  0  0  0  0
  3  5  1  0  0  0  0
  3  6  1  0  0  0  0
  7  8  1  0  0  0  0
  7 12  1  0  0  0  0
  8  9  1  0  0  0  0
  8 11  1  0  0  0  0
  8 13  1  0  0  0  0
  9 10  2  0  0  0  0
  9 17  1  0  0  0  0
 11 14  1  0  0  0  0
 11 15  1  0  0  0  0
 11 16  1  0  0  0  0
 17 18  1  0  0  0  0
 17 27  1  0  0  0  0
 18 19  1  0  0  0  0
 18 21  1  0  0  0  0
 18 28  1  0  0  0  0
 19 20  2  0  0  0  0
 19 35  1  0  0  0  0
 21 22  1  0  0  0  0
 21 29  1  0  0  0  0
 21 30  1  0  0  0  0
 22 23  1  0  0  0  0
 22 24  2  0  0  0  0
 23 25  2  0  0  0  0
 23 31  1  0  0  0  0
 24 26  1  0  0  0  0
 24 32  1  0  0  0  0
 25 26  1  0  0  0  0
 25 33  1  0  0  0  0
 26 34  1  0  0  0  0
 35 36  1  0  0  0  0
 35 40  1  0  0  0  0
 36 37  1  0  0  0  0
 36 39  1  0  0  0  0
 36 41  1  0  0  0  0
 37 38  2  0  0  0  0
 37 45  1  0  0  0  0
 39 42  1  0  0  0  0
 39 43  1  0  0  0  0
 39 44  1  0  0  0  0
 45 46  1  0  0  0  0
 45 47  1  0  0  0  0
 46 48  1  0  0  0  0
 46 49  1  0  0  0  0
 46 50  1  0  0  0  0
M  CHG  1  23   1
M  END
$$$$

  -OEChem-05262216443D

 50 50  0     1  0  0  0  0  0999 V2000
   -2.4074   -0.4855    2.8468 C   0  0  0  0  0  0  0  0  0  0  0  0
   -1.9294   -0.7536    1.7503 O   0  0  0  0  0  0  0  0  0  0  0  0
   -2.4778   -1.5537    3.9203 C   0  0  0  0  0  0  0  0  0  0  0  0
   -2.2355   -2.5323    3.4969 H   0  0  0  0  0  0  0  0  0  0  0  0
   -1.7656   -1.3273    4.7180 H   0  0  0  0  0  0  0  0  0  0  0  0
   -3.4849   -1.5953    4.3425 H   0  0  0  0  0  0  0  0  0  0  0  0
   -2.8094    0.8048    3.1319 N   0  0  0  0  0  0  0  0  0  0  0  0
   -2.6262    1.9416    2.2177 C   0  0  2  0  0  0  0  0  0  0  0  0
   -1.1290    2.2344    1.9699 C   0  0  0  0  0  0  0  0  0  0  0  0
   -0.4435    2.7658    2.8292 O   0  0  0  0  0  0  0  0  0  0  0  0
   -3.3445    3.1536    2.8206 C   0  0  0  0  0  0  0  0  0  0  0  0
   -3.0438    1.0060    4.1013 H   0  0  0  0  0  0  0  0  0  0  0  0
   -3.0966    1.7123    1.2561 H   0  0  0  0  0  0  0  0  0  0  0  0
   -2.9230    3.4073    3.7992 H   0  0  0  0  0  0  0  0  0  0  0  0
   -3.2385    4.0234    2.1647 H   0  0  0  0  0  0  0  0  0  0  0  0
   -4.4113    2.9425    2.9448 H   0  0  0  0  0  0  0  0  0  0  0  0
   -0.5303    1.7286    0.8292 N   0  0  0  0  0  0  0  0  0  0  0  0
    0.7306    0.9664    0.9119 C   0  0  2  0  0  0  0  0  0  0  0  0
    1.2396    0.4106    2.2638 C   0  0  0  0  0  0  0  0  0  0  0  0
    2.2216    0.8994    2.8093 O   0  0  0  0  0  0  0  0  0  0  0  0
    1.8714    1.6868    0.1745 C   0  0  0  0  0  0  0  0  0  0  0  0
    1.5645    1.7561   -1.2892 C   0  0  0  0  0  0  0  0  0  0  0  0
    1.6861    0.6283   -2.0968 N   0  3  0  0  0  0  0  0  0  0  0  0
    1.1984    2.8164   -2.0723 C   0  0  0  0  0  0  0  0  0  0  0  0
    1.3988    0.9376   -3.3369 C   0  0  0  0  0  0  0  0  0  0  0  0
    1.0863    2.2993   -3.3600 N   0  0  0  0  0  0  0  0  0  0  0  0
   -1.2186    1.2942    0.2189 H   0  0  0  0  0  0  0  0  0  0  0  0
    0.5139    0.0670    0.3294 H   0  0  0  0  0  0  0  0  0  0  0  0
    2.8241    1.1654    0.3189 H   0  0  0  0  0  0  0  0  0  0  0  0
    1.9860    2.6921    0.5957 H   0  0  0  0  0  0  0  0  0  0  0  0
    1.9634   -0.2905   -1.7155 H   0  0  0  0  0  0  0  0  0  0  0  0
    1.0392    3.8419   -1.7379 H   0  0  0  0  0  0  0  0  0  0  0  0
    1.4075    0.2554   -4.1885 H   0  0  0  0  0  0  0  0  0  0  0  0
    0.8314    2.8377   -4.1930 H   0  0  0  0  0  0  0  0  0  0  0  0
    1.0602   -0.9556    2.3924 N   0  0  0  0  0  0  0  0  0  0  0  0
    2.2304   -1.8467    2.3797 C   0  0  2  0  0  0  0  0  0  0  0  0
    2.9582   -1.9066    1.0062 C   0  0  0  0  0  0  0  0  0  0  0  0
    2.4363   -1.5012   -0.0385 O   0  0  0  0  0  0  0  0  0  0  0  0
    1.7416   -3.2406    2.7822 C   0  0  0  0  0  0  0  0  0  0  0  0
    0.2431   -1.2956    1.8836 H   0  0  0  0  0  0  0  0  0  0  0  0
    2.9529   -1.5037    3.1292 H   0  0  0  0  0  0  0  0  0  0  0  0
    1.0240   -3.6244    2.0496 H   0  0  0  0  0  0  0  0  0  0  0  0
    2.5813   -3.9400    2.8447 H   0  0  0  0  0  0  0  0  0  0  0  0
    1.2536   -3.2026    3.7615 H   0  0  0  0  0  0  0  0  0  0  0  0
    4.2402   -2.4179    0.9398 N   0  0  0  0  0  0  0  0  0  0  0  0
    5.0237   -2.4986   -0.2878 C   0  0  0  0  0  0  0  0  0  0  0  0
    4.6758   -2.7026    1.8143 H   0  0  0  0  0  0  0  0  0  0  0  0
    4.5004   -3.0992   -1.0394 H   0  0  0  0  0  0  0  0  0  0  0  0
    5.2040   -1.4982   -0.6949 H   0  0  0  0  0  0  0  0  0  0  0  0
    5.9920   -2.9684   -0.0881 H   0  0  0  0  0  0  0  0  0  0  0  0
  1  2  2  0  0  0  0
  1  3  1  0  0  0  0
  1  7  1  0  0  0  0
  3  4  1  0  0  0  0
  3  5  1  0  0  0  0
  3  6  1  0  0  0  0
  7  8  1  0  0  0  0
  7 12  1  0  0  0  0
  8  9  1  0  0  0  0
  8 11  1  0  0  0  0
  8 13  1  0  0  0  0
  9 10  2  0  0  0  0
  9 17  1  0  0  0  0
 11 14  1  0  0  0  0
 11 15  1  0  0  0  0
 11 16  1  0  0  0  0
 17 18  1  0  0  0  0
 17 27  1  0  0  0  0
 18 19  1  0  0  0  0
 18 21  1  0  0  0  0
 18 28  1  0  0  0  0
 19 20  2  0  0  0  0
 19 35  1  0  0  0  0
 21 22  1  0  0  0  0
 21 29  1  0  0  0  0
 21 30  1  0  0  0  0
 22 23  1  0  0  0  0
 22 24  2  0  0  0  0
 23 25  2  0  0  0  0
 23 31  1  0  0  0  0
 24 26  1  0  0  0  0
 24 32  1  0  0  0  0
 25 26  1  0  0  0  0
 25 33  1  0  0  0  0
 26 34  1  0  0  0  0
 35 36  1  0  0  0  0
 35 40  1  0  0  0  0
 36 37  1  0  0  0  0
 36 39  1  0  0  0  0
 36 41  1  0  0  0  0
 37 38  2  0  0  0  0
 37 45  1  0  0  0  0
 39 42  1  0  0  0  0
 39 43  1  0  0  0  0
 39 44  1  0  0  0  0
 45 46  1  0  0  0  0
 45 47  1  0  0  0  0
 46 48  1  0  0  0  0
 46 49  1  0  0  0  0
 46 50  1  0  0  0  0
M  CHG  1  23   1
M  END
$$$$

  -OEChem-05262216443D

 50 50  0     1  0  0  0  0  0999 V2000
   -2.4438   -0.5685    2.6904 C   0  0  0  0  0  0  0  0  0  0  0  0
   -2.0190   -0.7911    1.5629 O   0  0  0  0  0  0  0  0  0  0  0  0
   -2.4470   -1.6740    3.7279 C   0  0  0  0  0  0  0  0  0  0  0  0
   -2.2237   -2.6356    3.2571 H   0  0  0  0  0  0  0  0  0  0  0  0
   -1.6909   -1.4703    4.4908 H   0  0  0  0  0  0  0  0  0  0  0  0
   -3.4282   -1.7380    4.2052 H   0  0  0  0  0  0  0  0  0  0  0  0
   -2.8339    0.7087    3.0422 N   0  0  0  0  0  0  0  0  0  0  0  0
   -2.6922    1.8782    2.1626 C   0  0  2  0  0  0  0  0  0  0  0  0
   -1.2049    2.2131    1.9065 C   0  0  0  0  0  0  0  0  0  0  0  0
   -0.5386    2.8056    2.7401 O   0  0  0  0  0  0  0  0  0  0  0  0
   -3.4358    3.0495    2.8143 C   0  0  0  0  0  0  0  0  0  0  0  0
   -3.0179    0.8743    4.0294 H   0  0  0  0  0  0  0  0  0  0  0  0
   -3.1683    1.6689    1.1993 H   0  0  0  0  0  0  0  0  0  0  0  0
   -3.0096    3.2816    3.7962 H   0  0  0  0  0  0  0  0  0  0  0  0
   -3.3612    3.9436    2.1874 H   0  0  0  0  0  0  0  0  0  0  0  0
   -4.4948    2.8051    2.9431 H   0  0  0  0  0  0  0  0  0  0  0  0
   -0.5836    1.7077    0.7782 N   0  0  0  0  0  0  0  0  0  0  0  0
    0.6391    0.8898    0.9059 C   0  0  2  0  0  0  0  0  0  0  0  0
    1.0661    0.2836    2.2654 C   0  0  0  0  0  0  0  0  0  0  0  0
    1.8735    0.8606    2.9816 O   0  0  0  0  0  0  0  0  0  0  0  0
    1.8314    1.6656    0.3162 C   0  0  0  0  0  0  0  0  0  0  0  0
    1.6445    1.8743   -1.1544 C   0  0  0  0  0  0  0  0  0  0  0  0
    1.8295    0.8285   -2.0541 N   0  3  0  0  0  0  0  0  0  0  0  0
    1.3312    3.0052   -1.8575 C   0  0  0  0  0  0  0  0  0  0  0  0
    1.6421    1.2576   -3.2778 C   0  0  0  0  0  0  0  0  0  0  0  0
    1.3223    2.6154   -3.1939 N   0  0  0  0  0  0  0  0  0  0  0  0
   -1.2680    1.2830    0.1561 H   0  0  0  0  0  0  0  0  0  0  0  0
    0.4620    0.0259    0.2586 H   0  0  0  0  0  0  0  0  0  0  0  0
    2.7737    1.1380    0.4933 H   0  0  0  0  0  0  0  0  0  0  0  0
    1.9075    2.6313    0.8297 H   0  0  0  0  0  0  0  0  0  0  0  0
    2.1026   -0.1175   -1.7438 H   0  0  0  0  0  0  0  0  0  0  0  0
    1.1369    3.9929   -1.4381 H   0  0  0  0  0  0  0  0  0  0  0  0
    1.7285    0.6628   -4.1884 H   0  0  0  0  0  0  0  0  0  0  0  0
    1.1319    3.2330   -3.9883 H   0  0  0  0  0  0  0  0  0  0  0  0
    1.1342   -1.0993    2.2420 N   0  0  0  0  0  0  0  0  0  0  0  0
    2.4343   -1.7853    2.2784 C   0  0  2  0  0  0  0  0  0  0  0  0
    3.1874   -1.7358    0.9206 C   0  0  0  0  0  0  0  0  0  0  0  0
    2.6310   -1.3827   -0.1251 O   0  0  0  0  0  0  0  0  0  0  0  0
    2.1679   -3.2356    2.6896 C   0  0  0  0  0  0  0  0  0  0  0  0
    0.4478   -1.5153    1.6139 H   0  0  0  0  0  0  0  0  0  0  0  0
    3.0759   -1.3252    3.0387 H   0  0  0  0  0  0  0  0  0  0  0  0
    1.5356   -3.7368    1.9494 H   0  0  0  0  0  0  0  0  0  0  0  0
    3.1071   -3.7907    2.7768 H   0  0  0  0  0  0  0  0  0  0  0  0
    1.6604   -3.2663    3.6593 H   0  0  0  0  0  0  0  0  0  0  0  0
    4.5287   -2.0635    0.8738 N   0  0  0  0  0  0  0  0  0  0  0  0
    5.3339   -2.0421   -0.3421 C   0  0  0  0  0  0  0  0  0  0  0  0
    4.9783   -2.3200    1.7501 H   0  0  0  0  0  0  0  0  0  0  0  0
    4.9021   -2.7024   -1.1018 H   0  0  0  0  0  0  0  0  0  0  0  0
    5.3923   -1.0263   -0.7467 H   0  0  0  0  0  0  0  0  0  0  0  0
    6.3506   -2.3861   -0.1269 H   0  0  0  0  0  0  0  0  0  0  0  0
  1  2  2  0  0  0  0
  1  3  1  0  0  0  0
  1  7  1  0  0  0  0
  3  4  1  0  0  0  0
  3  5  1  0  0  0  0
  3  6  1  0  0  0  0
  7  8  1  0  0  0  0
  7 12  1  0  0  0  0
  8  9  1  0  0  0  0
  8 11  1  0  0  0  0
  8 13  1  0  0  0  0
  9 10  2  0  0  0  0
  9 17  1  0  0  0  0
 11 14  1  0  0  0  0
 11 15  1  0  0  0  0
 11 16  1  0  0  0  0
 17 18  1  0  0  0  0
 17 27  1  0  0  0  0
 18 19  1  0  0  0  0
 18 21  1  0  0  0  0
 18 28  1  0  0  0  0
 19 20  2  0  0  0  0
 19 35  1  0  0  0  0
 21 22  1  0  0  0  0
 21 29  1  0  0  0  0
 21 30  1  0  0  0  0
 22 23  1  0  0  0  0
 22 24  2  0  0  0  0
 23 25  2  0  0  0  0
 23 31  1  0  0  0  0
 24 26  1  0  0  0  0
 24 32  1  0  0  0  0
 25 26  1  0  0  0  0
 25 33  1  0  0  0  0
 26 34  1  0  0  0  0
 35 36  1  0  0  0  0
 35 40  1  0  0  0  0
 36 37  1  0  0  0  0
 36 39  1  0  0  0  0
 36 41  1  0  0  0  0
 37 38  2  0  0  0  0
 37 45  1  0  0  0  0
 39 42  1  0  0  0  0
 39 43  1  0  0  0  0
 39 44  1  0  0  0  0
 45 46  1  0  0  0  0
 45 47  1  0  0  0  0
 46 48  1  0  0  0  0
 46 49  1  0  0  0  0
 46 50  1  0  0  0  0
M  CHG  1  23   1
M  END
$$$$

  -OEChem-05262216443D

 50 50  0     1  0  0  0  0  0999 V2000
   -2.4157   -0.6929    2.2478 C   0  0  0  0  0  0  0  0  0  0  0  0
   -2.3243   -0.7014    1.0272 O   0  0  0  0  0  0  0  0  0  0  0  0
   -2.2788   -1.9833    3.0317 C   0  0  0  0  0  0  0  0  0  0  0  0
   -2.2457   -2.8382    2.3508 H   0  0  0  0  0  0  0  0  0  0  0  0
   -1.3588   -1.9652    3.6216 H   0  0  0  0  0  0  0  0  0  0  0  0
   -3.1316   -2.1051    3.7043 H   0  0  0  0  0  0  0  0  0  0  0  0
   -2.5348    0.5097    2.9131 N   0  0  0  0  0  0  0  0  0  0  0  0
   -2.5845    1.8215    2.2507 C   0  0  2  0  0  0  0  0  0  0  0  0
   -1.2023    2.2396    1.6936 C   0  0  0  0  0  0  0  0  0  0  0  0
   -0.5389    3.1401    2.1857 O   0  0  0  0  0  0  0  0  0  0  0  0
   -3.1396    2.8274    3.2659 C   0  0  0  0  0  0  0  0  0  0  0  0
   -2.4795    0.4860    3.9291 H   0  0  0  0  0  0  0  0  0  0  0  0
   -3.2831    1.7791    1.4083 H   0  0  0  0  0  0  0  0  0  0  0  0
   -2.4761    2.9085    4.1332 H   0  0  0  0  0  0  0  0  0  0  0  0
   -3.2301    3.8177    2.8082 H   0  0  0  0  0  0  0  0  0  0  0  0
   -4.1301    2.5151    3.6106 H   0  0  0  0  0  0  0  0  0  0  0  0
   -0.7261    1.6770    0.5241 N   0  0  0  0  0  0  0  0  0  0  0  0
    0.4655    0.8022    0.5394 C   0  0  2  0  0  0  0  0  0  0  0  0
    0.9640    0.2276    1.8905 C   0  0  0  0  0  0  0  0  0  0  0  0
    1.4257    0.9334    2.7737 O   0  0  0  0  0  0  0  0  0  0  0  0
    1.6296    1.6469   -0.0164 C   0  0  0  0  0  0  0  0  0  0  0  0
    1.4081    2.0399   -1.4501 C   0  0  0  0  0  0  0  0  0  0  0  0
    1.5371    1.2039   -2.5573 N   0  3  0  0  0  0  0  0  0  0  0  0
    1.0421    3.2816   -1.8966 C   0  0  0  0  0  0  0  0  0  0  0  0
    1.2756    1.8720   -3.6551 C   0  0  0  0  0  0  0  0  0  0  0  0
    0.9544    3.1767   -3.2794 N   0  0  0  0  0  0  0  0  0  0  0  0
   -1.5002    1.1971    0.0634 H   0  0  0  0  0  0  0  0  0  0  0  0
    0.2740   -0.0451   -0.1256 H   0  0  0  0  0  0  0  0  0  0  0  0
    2.5732    1.0973    0.0606 H   0  0  0  0  0  0  0  0  0  0  0  0
    1.7357    2.5472    0.6019 H   0  0  0  0  0  0  0  0  0  0  0  0
    1.8446    0.2292   -2.4829 H   0  0  0  0  0  0  0  0  0  0  0  0
    0.8519    4.1554   -1.2711 H   0  0  0  0  0  0  0  0  0  0  0  0
    1.3101    1.4814   -4.6736 H   0  0  0  0  0  0  0  0  0  0  0  0
    0.7019    3.9389   -3.9152 H   0  0  0  0  0  0  0  0  0  0  0  0
    1.2933   -1.1158    1.8931 N   0  0  0  0  0  0  0  0  0  0  0  0
    2.5769   -1.5874    2.4309 C   0  0  2  0  0  0  0  0  0  0  0  0
    3.6580   -1.5921    1.3241 C   0  0  0  0  0  0  0  0  0  0  0  0
    3.3391   -1.4028    0.1494 O   0  0  0  0  0  0  0  0  0  0  0  0
    2.3547   -2.9933    2.9937 C   0  0  0  0  0  0  0  0  0  0  0  0
    0.9870   -1.6098    1.0584 H   0  0  0  0  0  0  0  0  0  0  0  0
    2.9242   -0.9410    3.2448 H   0  0  0  0  0  0  0  0  0  0  0  0
    2.0340   -3.6798    2.2035 H   0  0  0  0  0  0  0  0  0  0  0  0
    3.2772   -3.3806    3.4370 H   0  0  0  0  0  0  0  0  0  0  0  0
    1.5837   -2.9714    3.7705 H   0  0  0  0  0  0  0  0  0  0  0  0
    4.9877   -1.7924    1.6406 N   0  0  0  0  0  0  0  0  0  0  0  0
    6.0584   -1.8147    0.6504 C   0  0  0  0  0  0  0  0  0  0  0  0
    5.2269   -1.9182    2.6211 H   0  0  0  0  0  0  0  0  0  0  0  0
    5.8935   -2.6183   -0.0754 H   0  0  0  0  0  0  0  0  0  0  0  0
    6.1081   -0.8604    0.1158 H   0  0  0  0  0  0  0  0  0  0  0  0
    7.0226   -1.9853    1.1394 H   0  0  0  0  0  0  0  0  0  0  0  0
  1  2  2  0  0  0  0
  1  3  1  0  0  0  0
  1  7  1  0  0  0  0
  3  4  1  0  0  0  0
  3  5  1  0  0  0  0
  3  6  1  0  0  0  0
  7  8  1  0  0  0  0
  7 12  1  0  0  0  0
  8  9  1  0  0  0  0
  8 11  1  0  0  0  0
  8 13  1  0  0  0  0
  9 10  2  0  0  0  0
  9 17  1  0  0  0  0
 11 14  1  0  0  0  0
 11 15  1  0  0  0  0
 11 16  1  0  0  0  0
 17 18  1  0  0  0  0
 17 27  1  0  0  0  0
 18 19  1  0  0  0  0
 18 21  1  0  0  0  0
 18 28  1  0  0  0  0
 19 20  2  0  0  0  0
 19 35  1  0  0  0  0
 21 22  1  0  0  0  0
 21 29  1  0  0  0  0
 21 30  1  0  0  0  0
 22 23  1  0  0  0  0
 22 24  2  0  0  0  0
 23 25  2  0  0  0  0
 23 31  1  0  0  0  0
 24 26  1  0  0  0  0
 24 32  1  0  0  0  0
 25 26  1  0  0  0  0
 25 33  1  0  0  0  0
 26 34  1  0  0  0  0
 35 36  1  0  0  0  0
 35 40  1  0  0  0  0
 36 37  1  0  0  0  0
 36 39  1  0  0  0  0
 36 41  1  0  0  0  0
 37 38  2  0  0  0  0
 37 45  1  0  0  0  0
 39 42  1  0  0  0  0
 39 43  1  0  0  0  0
 39 44  1  0  0  0  0
 45 46  1  0  0  0  0
 45 47  1  0  0  0  0
 46 48  1  0  0  0  0
 46 49  1  0  0  0  0
 46 50  1  0  0  0  0
M  CHG  1  23   1
M  END
$$$$

  -OEChem-05262216443D

 50 50  0     1  0  0  0  0  0999 V2000
   -2.5681   -0.6346    2.0306 C   0  0  0  0  0  0  0  0  0  0  0  0
   -2.6418   -0.4828    0.8180 O   0  0  0  0  0  0  0  0  0  0  0  0
   -2.4789   -2.0275    2.6231 C   0  0  0  0  0  0  0  0  0  0  0  0
   -2.5987   -2.7803    1.8390 H   0  0  0  0  0  0  0  0  0  0  0  0
   -1.5070   -2.1683    3.1033 H   0  0  0  0  0  0  0  0  0  0  0  0
   -3.2677   -2.1683    3.3667 H   0  0  0  0  0  0  0  0  0  0  0  0
   -2.4618    0.4707    2.8485 N   0  0  0  0  0  0  0  0  0  0  0  0
   -2.4691    1.8611    2.3712 C   0  0  2  0  0  0  0  0  0  0  0  0
   -1.1374    2.2492    1.6843 C   0  0  0  0  0  0  0  0  0  0  0  0
   -0.4644    3.2096    2.0340 O   0  0  0  0  0  0  0  0  0  0  0  0
   -2.7904    2.7522    3.5772 C   0  0  0  0  0  0  0  0  0  0  0  0
   -2.2588    0.3035    3.8316 H   0  0  0  0  0  0  0  0  0  0  0  0
   -3.2701    1.9900    1.6356 H   0  0  0  0  0  0  0  0  0  0  0  0
   -2.0012    2.6760    4.3326 H   0  0  0  0  0  0  0  0  0  0  0  0
   -2.8703    3.7990    3.2664 H   0  0  0  0  0  0  0  0  0  0  0  0
   -3.7410    2.4557    4.0312 H   0  0  0  0  0  0  0  0  0  0  0  0
   -0.7578    1.6539    0.4965 N   0  0  0  0  0  0  0  0  0  0  0  0
    0.4018    0.7372    0.4206 C   0  0  2  0  0  0  0  0  0  0  0  0
    1.0014    0.1377    1.7220 C   0  0  0  0  0  0  0  0  0  0  0  0
    1.1092    0.7531    2.7704 O   0  0  0  0  0  0  0  0  0  0  0  0
    1.5439    1.5835   -0.1794 C   0  0  0  0  0  0  0  0  0  0  0  0
    1.2487    2.0379   -1.5848 C   0  0  0  0  0  0  0  0  0  0  0  0
    1.2862    1.2766   -2.7529 N   0  3  0  0  0  0  0  0  0  0  0  0
    0.8756    3.3110   -1.9267 C   0  0  0  0  0  0  0  0  0  0  0  0
    0.9683    2.0216   -3.7850 C   0  0  0  0  0  0  0  0  0  0  0  0
    0.6973    3.3021   -3.3041 N   0  0  0  0  0  0  0  0  0  0  0  0
   -1.5830    1.1857    0.1137 H   0  0  0  0  0  0  0  0  0  0  0  0
    0.1443   -0.0944   -0.2421 H   0  0  0  0  0  0  0  0  0  0  0  0
    2.4791    1.0135   -0.1872 H   0  0  0  0  0  0  0  0  0  0  0  0
    1.7113    2.4555    0.4656 H   0  0  0  0  0  0  0  0  0  0  0  0
    1.5737    0.2946   -2.7691 H   0  0  0  0  0  0  0  0  0  0  0  0
    0.7362    4.1427   -1.2332 H   0  0  0  0  0  0  0  0  0  0  0  0
    0.9295    1.7014   -4.8277 H   0  0  0  0  0  0  0  0  0  0  0  0
    0.4152    4.1087   -3.8690 H   0  0  0  0  0  0  0  0  0  0  0  0
    1.5884   -1.1108    1.6305 N   0  0  0  0  0  0  0  0  0  0  0  0
    2.7761   -1.4729    2.4185 C   0  0  2  0  0  0  0  0  0  0  0  0
    4.0506   -1.2982    1.5619 C   0  0  0  0  0  0  0  0  0  0  0  0
    3.9455   -1.1252    0.3484 O   0  0  0  0  0  0  0  0  0  0  0  0
    2.6129   -2.9241    2.8758 C   0  0  0  0  0  0  0  0  0  0  0  0
    1.5787   -1.5093    0.6947 H   0  0  0  0  0  0  0  0  0  0  0  0
    2.8738   -0.8384    3.3062 H   0  0  0  0  0  0  0  0  0  0  0  0
    2.5411   -3.5950    2.0137 H   0  0  0  0  0  0  0  0  0  0  0  0
    3.4678   -3.2329    3.4855 H   0  0  0  0  0  0  0  0  0  0  0  0
    1.7048   -3.0305    3.4779 H   0  0  0  0  0  0  0  0  0  0  0  0
    5.3051   -1.3176    2.1398 N   0  0  0  0  0  0  0  0  0  0  0  0
    6.5409   -1.1445    1.3838 C   0  0  0  0  0  0  0  0  0  0  0  0
    5.3608   -1.4320    3.1486 H   0  0  0  0  0  0  0  0  0  0  0  0
    6.6430   -1.9312    0.6287 H   0  0  0  0  0  0  0  0  0  0  0  0
    6.5523   -0.1710    0.8821 H   0  0  0  0  0  0  0  0  0  0  0  0
    7.4052   -1.1971    2.0534 H   0  0  0  0  0  0  0  0  0  0  0  0
  1  2  2  0  0  0  0
  1  3  1  0  0  0  0
  1  7  1  0  0  0  0
  3  4  1  0  0  0  0
  3  5  1  0  0  0  0
  3  6  1  0  0  0  0
  7  8  1  0  0  0  0
  7 12  1  0  0  0  0
  8  9  1  0  0  0  0
  8 11  1  0  0  0  0
  8 13  1  0  0  0  0
  9 10  2  0  0  0  0
  9 17  1  0  0  0  0
 11 14  1  0  0  0  0
 11 15  1  0  0  0  0
 11 16  1  0  0  0  0
 17 18  1  0  0  0  0
 17 27  1  0  0  0  0
 18 19  1  0  0  0  0
 18 21  1  0  0  0  0
 18 28  1  0  0  0  0
 19 20  2  0  0  0  0
 19 35  1  0  0  0  0
 21 22  1  0  0  0  0
 21 29  1  0  0  0  0
 21 30  1  0  0  0  0
 22 23  1  0  0  0  0
 22 24  2  0  0  0  0
 23 25  2  0  0  0  0
 23 31  1  0  0  0  0
 24 26  1  0  0  0  0
 24 32  1  0  0  0  0
 25 26  1  0  0  0  0
 25 33  1  0  0  0  0
 26 34  1  0  0  0  0
 35 36  1  0  0  0  0
 35 40  1  0  0  0  0
 36 37  1  0  0  0  0
 36 39  1  0  0  0  0
 36 41  1  0  0  0  0
 37 38  2  0  0  0  0
 37 45  1  0  0  0  0
 39 42  1  0  0  0  0
 39 43  1  0  0  0  0
 39 44  1  0  0  0  0
 45 46  1  0  0  0  0
 45 47  1  0  0  0  0
 46 48  1  0  0  0  0
 46 49  1  0  0  0  0
 46 50  1  0  0  0  0
M  CHG  1  23   1
M  END
$$$$

  -OEChem-05262216443D

 50 50  0     1  0  0  0  0  0999 V2000
   -2.6624   -0.5859    1.9080 C   0  0  0  0  0  0  0  0  0  0  0  0
   -2.8012   -0.3325    0.7174 O   0  0  0  0  0  0  0  0  0  0  0  0
   -2.5202   -2.0224    2.3721 C   0  0  0  0  0  0  0  0  0  0  0  0
   -2.6552   -2.7076    1.5306 H   0  0  0  0  0  0  0  0  0  0  0  0
   -1.5268   -2.1785    2.8007 H   0  0  0  0  0  0  0  0  0  0  0  0
   -3.2746   -2.2461    3.1307 H   0  0  0  0  0  0  0  0  0  0  0  0
   -2.5219    0.4446    2.8139 N   0  0  0  0  0  0  0  0  0  0  0  0
   -2.4682    1.8649    2.4386 C   0  0  2  0  0  0  0  0  0  0  0  0
   -1.1193    2.2237    1.7720 C   0  0  0  0  0  0  0  0  0  0  0  0
   -0.3654    3.0887    2.2001 O   0  0  0  0  0  0  0  0  0  0  0  0
   -2.7384    2.6850    3.7053 C   0  0  0  0  0  0  0  0  0  0  0  0
   -2.1744    0.1887    3.7361 H   0  0  0  0  0  0  0  0  0  0  0  0
   -3.2641    2.0855    1.7195 H   0  0  0  0  0  0  0  0  0  0  0  0
   -1.9606    2.5047    4.4548 H   0  0  0  0  0  0  0  0  0  0  0  0
   -2.7503    3.7543    3.4712 H   0  0  0  0  0  0  0  0  0  0  0  0
   -3.7083    2.4164    4.1353 H   0  0  0  0  0  0  0  0  0  0  0  0
   -0.7669    1.6611    0.5604 N   0  0  0  0  0  0  0  0  0  0  0  0
    0.4192    0.7864    0.4124 C   0  0  2  0  0  0  0  0  0  0  0  0
    1.1083    0.1733    1.6669 C   0  0  0  0  0  0  0  0  0  0  0  0
    0.7554    0.3712    2.8203 O   0  0  0  0  0  0  0  0  0  0  0  0
    1.4878    1.6748   -0.2604 C   0  0  0  0  0  0  0  0  0  0  0  0
    1.0712    2.1063   -1.6443 C   0  0  0  0  0  0  0  0  0  0  0  0
    1.0524    1.3433   -2.8127 N   0  3  0  0  0  0  0  0  0  0  0  0
    0.6260    3.3634   -1.9619 C   0  0  0  0  0  0  0  0  0  0  0  0
    0.6201    2.0677   -3.8174 C   0  0  0  0  0  0  0  0  0  0  0  0
    0.3408    3.3399   -3.3208 N   0  0  0  0  0  0  0  0  0  0  0  0
   -1.5973    1.1955    0.1825 H   0  0  0  0  0  0  0  0  0  0  0  0
    0.1467   -0.0499   -0.2382 H   0  0  0  0  0  0  0  0  0  0  0  0
    2.4458    1.1472   -0.3322 H   0  0  0  0  0  0  0  0  0  0  0  0
    1.6594    2.5567    0.3697 H   0  0  0  0  0  0  0  0  0  0  0  0
    1.3578    0.3676   -2.8487 H   0  0  0  0  0  0  0  0  0  0  0  0
    0.5082    4.1952   -1.2647 H   0  0  0  0  0  0  0  0  0  0  0  0
    0.5025    1.7374   -4.8513 H   0  0  0  0  0  0  0  0  0  0  0  0
   -0.0215    4.1297   -3.8633 H   0  0  0  0  0  0  0  0  0  0  0  0
    1.9938   -0.8657    1.4556 N   0  0  0  0  0  0  0  0  0  0  0  0
    3.0477   -1.2111    2.4189 C   0  0  2  0  0  0  0  0  0  0  0  0
    4.4290   -0.9594    1.7743 C   0  0  0  0  0  0  0  0  0  0  0  0
    4.4879   -0.6591    0.5828 O   0  0  0  0  0  0  0  0  0  0  0  0
    2.8693   -2.6790    2.8138 C   0  0  0  0  0  0  0  0  0  0  0  0
    2.2795   -0.9916    0.4865 H   0  0  0  0  0  0  0  0  0  0  0  0
    2.9822   -0.5890    3.3188 H   0  0  0  0  0  0  0  0  0  0  0  0
    2.9538   -3.3281    1.9362 H   0  0  0  0  0  0  0  0  0  0  0  0
    3.6292   -2.9779    3.5422 H   0  0  0  0  0  0  0  0  0  0  0  0
    1.8832   -2.8294    3.2647 H   0  0  0  0  0  0  0  0  0  0  0  0
    5.5917   -1.0417    2.5159 N   0  0  0  0  0  0  0  0  0  0  0  0
    6.9177   -0.7958    1.9586 C   0  0  0  0  0  0  0  0  0  0  0  0
    5.5103   -1.2647    3.5045 H   0  0  0  0  0  0  0  0  0  0  0  0
    7.1280   -1.4955    1.1425 H   0  0  0  0  0  0  0  0  0  0  0  0
    6.9887    0.2267    1.5728 H   0  0  0  0  0  0  0  0  0  0  0  0
    7.6836   -0.9268    2.7295 H   0  0  0  0  0  0  0  0  0  0  0  0
  1  2  2  0  0  0  0
  1  3  1  0  0  0  0
  1  7  1  0  0  0  0
  3  4  1  0  0  0  0
  3  5  1  0  0  0  0
  3  6  1  0  0  0  0
  7  8  1  0  0  0  0
  7 12  1  0  0  0  0
  8  9  1  0  0  0  0
  8 11  1  0  0  0  0
  8 13  1  0  0  0  0
  9 10  2  0  0  0  0
  9 17  1  0  0  0  0
 11 14  1  0  0  0  0
 11 15  1  0  0  0  0
 11 16  1  0  0  0  0
 17 18  1  0  0  0  0
 17 27  1  0  0  0  0
 18 19  1  0  0  0  0
 18 21  1  0  0  0  0
 18 28  1  0  0  0  0
 19 20  2  0  0  0  0
 19 35  1  0  0  0  0
 21 22  1  0  0  0  0
 21 29  1  0  0  0  0
 21 30  1  0  0  0  0
 22 23  1  0  0  0  0
 22 24  2  0  0  0  0
 23 25  2  0  0  0  0
 23 31  1  0  0  0  0
 24 26  1  0  0  0  0
 24 32  1  0  0  0  0
 25 26  1  0  0  0  0
 25 33  1  0  0  0  0
 26 34  1  0  0  0  0
 35 36  1  0  0  0  0
 35 40  1  0  0  0  0
 36 37  1  0  0  0  0
 36 39  1  0  0  0  0
 36 41  1  0  0  0  0
 37 38  2  0  0  0  0
 37 45  1  0  0  0  0
 39 42  1  0  0  0  0
 39 43  1  0  0  0  0
 39 44  1  0  0  0  0
 45 46  1  0  0  0  0
 45 47  1  0  0  0  0
 46 48  1  0  0  0  0
 46 49  1  0  0  0  0
 46 50  1  0  0  0  0
M  CHG  1  23   1
M  END
$$$$

  -OEChem-05262216443D

 50 50  0     1  0  0  0  0  0999 V2000
   -3.6128   -0.0778    3.9568 C   0  0  0  0  0  0  0  0  0  0  0  0
   -4.5698   -0.2744    3.2246 O   0  0  0  0  0  0  0  0  0  0  0  0
   -3.5588   -0.7140    5.3326 C   0  0  0  0  0  0  0  0  0  0  0  0
   -4.4959   -1.2372    5.5425 H   0  0  0  0  0  0  0  0  0  0  0  0
   -2.7365   -1.4320    5.3785 H   0  0  0  0  0  0  0  0  0  0  0  0
   -3.4075    0.0540    6.0949 H   0  0  0  0  0  0  0  0  0  0  0  0
   -2.5732    0.7179    3.5223 N   0  0  0  0  0  0  0  0  0  0  0  0
   -2.4509    1.2258    2.1511 C   0  0  2  0  0  0  0  0  0  0  0  0
   -0.9760    1.3034    1.7119 C   0  0  0  0  0  0  0  0  0  0  0  0
   -0.1006    1.6034    2.5170 O   0  0  0  0  0  0  0  0  0  0  0  0
   -3.1129    2.6047    2.0818 C   0  0  0  0  0  0  0  0  0  0  0  0
   -1.7425    0.7608    4.1114 H   0  0  0  0  0  0  0  0  0  0  0  0
   -2.9619    0.5460    1.4605 H   0  0  0  0  0  0  0  0  0  0  0  0
   -2.6240    3.2993    2.7721 H   0  0  0  0  0  0  0  0  0  0  0  0
   -3.0470    3.0130    1.0691 H   0  0  0  0  0  0  0  0  0  0  0  0
   -4.1706    2.5295    2.3554 H   0  0  0  0  0  0  0  0  0  0  0  0
   -0.6189    1.1872    0.3758 N   0  0  0  0  0  0  0  0  0  0  0  0
    0.6065    0.4751   -0.0683 C   0  0  2  0  0  0  0  0  0  0  0  0
    1.0946   -0.7151    0.8116 C   0  0  0  0  0  0  0  0  0  0  0  0
    0.3889   -1.2272    1.6691 O   0  0  0  0  0  0  0  0  0  0  0  0
    1.7424    1.5282   -0.0995 C   0  0  0  0  0  0  0  0  0  0  0  0
    1.4896    2.6152   -1.1152 C   0  0  0  0  0  0  0  0  0  0  0  0
    1.6092    2.5405   -2.5045 N   0  3  0  0  0  0  0  0  0  0  0  0
    1.1200    3.8976   -0.8000 C   0  0  0  0  0  0  0  0  0  0  0  0
    1.3367    3.7050   -3.0444 C   0  0  0  0  0  0  0  0  0  0  0  0
    1.0183    4.5790   -2.0062 N   0  0  0  0  0  0  0  0  0  0  0  0
   -1.4319    1.0191   -0.2121 H   0  0  0  0  0  0  0  0  0  0  0  0
    0.4393    0.0742   -1.0721 H   0  0  0  0  0  0  0  0  0  0  0  0
    2.7032    1.0587   -0.3359 H   0  0  0  0  0  0  0  0  0  0  0  0
    1.8530    1.9694    0.8979 H   0  0  0  0  0  0  0  0  0  0  0  0
    1.9073    1.6946   -2.9972 H   0  0  0  0  0  0  0  0  0  0  0  0
    0.9455    4.2849    0.2056 H   0  0  0  0  0  0  0  0  0  0  0  0
    1.3623    3.9492   -4.1086 H   0  0  0  0  0  0  0  0  0  0  0  0
    0.7682    5.5675   -2.1097 H   0  0  0  0  0  0  0  0  0  0  0  0
    2.2322   -1.4037    0.4357 N   0  0  0  0  0  0  0  0  0  0  0  0
    3.0039   -2.2277    1.3753 C   0  0  2  0  0  0  0  0  0  0  0  0
    4.4269   -1.6430    1.5120 C   0  0  0  0  0  0  0  0  0  0  0  0
    4.7755   -0.7350    0.7590 O   0  0  0  0  0  0  0  0  0  0  0  0
    3.0364   -3.6615    0.8414 C   0  0  0  0  0  0  0  0  0  0  0  0
    2.8143   -0.9343   -0.2545 H   0  0  0  0  0  0  0  0  0  0  0  0
    2.5454   -2.2277    2.3706 H   0  0  0  0  0  0  0  0  0  0  0  0
    3.5164   -3.6961   -0.1421 H   0  0  0  0  0  0  0  0  0  0  0  0
    3.5909   -4.3140    1.5229 H   0  0  0  0  0  0  0  0  0  0  0  0
    2.0174   -4.0506    0.7463 H   0  0  0  0  0  0  0  0  0  0  0  0
    5.3022   -2.1069    2.4746 N   0  0  0  0  0  0  0  0  0  0  0  0
    6.6478   -1.5734    2.6565 C   0  0  0  0  0  0  0  0  0  0  0  0
    4.9784   -2.8438    3.0957 H   0  0  0  0  0  0  0  0  0  0  0  0
    7.2307   -1.6786    1.7353 H   0  0  0  0  0  0  0  0  0  0  0  0
    6.6073   -0.5129    2.9276 H   0  0  0  0  0  0  0  0  0  0  0  0
    7.1659   -2.1143    3.4546 H   0  0  0  0  0  0  0  0  0  0  0  0
  1  2  2  0  0  0  0
  1  3  1  0  0  0  0
  1  7  1  0  0  0  0
  3  4  1  0  0  0  0
  3  5  1  0  0  0  0
  3  6  1  0  0  0  0
  7  8  1  0  0  0  0
  7 12  1  0  0  0  0
  8  9  1  0  0  0  0
  8 11  1  0  0  0  0
  8 13  1  0  0  0  0
  9 10  2  0  0  0  0
  9 17  1  0  0  0  0
 11 14  1  0  0  0  0
 11 15  1  0  0  0  0
 11 16  1  0  0  0  0
 17 18  1  0  0  0  0
 17 27  1  0  0  0  0
 18 19  1  0  0  0  0
 18 21  1  0  0  0  0
 18 28  1  0  0  0  0
 19 20  2  0  0  0  0
 19 35  1  0  0  0  0
 21 22  1  0  0  0  0
 21 29  1  0  0  0  0
 21 30  1  0  0  0  0
 22 23  1  0  0  0  0
 22 24  2  0  0  0  0
 23 25  2  0  0  0  0
 23 31  1  0  0  0  0
 24 26  1  0  0  0  0
 24 32  1  0  0  0  0
 25 26  1  0  0  0  0
 25 33  1  0  0  0  0
 26 34  1  0  0  0  0
 35 36  1  0  0  0  0
 35 40  1  0  0  0  0
 36 37  1  0  0  0  0
 36 39  1  0  0  0  0
 36 41  1  0  0  0  0
 37 38  2  0  0  0  0
 37 45  1  0  0  0  0
 39 42  1  0  0  0  0
 39 43  1  0  0  0  0
 39 44  1  0  0  0  0
 45 46  1  0  0  0  0
 45 47  1  0  0  0  0
 46 48  1  0  0  0  0
 46 49  1  0  0  0  0
 46 50  1  0  0  0  0
M  CHG  1  23   1
M  END
$$$$

  -OEChem-05262216443D

 50 50  0     1  0  0  0  0  0999 V2000
   -3.6489   -0.2083    3.8835 C   0  0  0  0  0  0  0  0  0  0  0  0
   -4.5901   -0.4184    3.1350 O   0  0  0  0  0  0  0  0  0  0  0  0
   -3.6286   -0.8112    5.2748 C   0  0  0  0  0  0  0  0  0  0  0  0
   -4.5579   -1.3566    5.4616 H   0  0  0  0  0  0  0  0  0  0  0  0
   -2.7885   -1.5035    5.3691 H   0  0  0  0  0  0  0  0  0  0  0  0
   -3.5283   -0.0214    6.0230 H   0  0  0  0  0  0  0  0  0  0  0  0
   -2.5999    0.5783    3.4549 N   0  0  0  0  0  0  0  0  0  0  0  0
   -2.4620    1.0824    2.0835 C   0  0  2  0  0  0  0  0  0  0  0  0
   -0.9830    1.2285    1.6765 C   0  0  0  0  0  0  0  0  0  0  0  0
   -0.1319    1.5184    2.5112 O   0  0  0  0  0  0  0  0  0  0  0  0
   -3.1839    2.4297    1.9893 C   0  0  0  0  0  0  0  0  0  0  0  0
   -1.7890    0.6541    4.0676 H   0  0  0  0  0  0  0  0  0  0  0  0
   -2.9238    0.3739    1.3869 H   0  0  0  0  0  0  0  0  0  0  0  0
   -2.7402    3.1512    2.6830 H   0  0  0  0  0  0  0  0  0  0  0  0
   -3.1184    2.8322    0.9745 H   0  0  0  0  0  0  0  0  0  0  0  0
   -4.2421    2.3090    2.2438 H   0  0  0  0  0  0  0  0  0  0  0  0
   -0.5993    1.1749    0.3431 N   0  0  0  0  0  0  0  0  0  0  0  0
    0.7009    0.5998   -0.0833 C   0  0  2  0  0  0  0  0  0  0  0  0
    1.2548   -0.5427    0.8202 C   0  0  0  0  0  0  0  0  0  0  0  0
    0.4826   -1.2844    1.4131 O   0  0  0  0  0  0  0  0  0  0  0  0
    1.7131    1.7703   -0.1249 C   0  0  0  0  0  0  0  0  0  0  0  0
    1.3412    2.8025   -1.1615 C   0  0  0  0  0  0  0  0  0  0  0  0
    1.4776    2.7074   -2.5484 N   0  3  0  0  0  0  0  0  0  0  0  0
    0.8260    4.0423   -0.8814 C   0  0  0  0  0  0  0  0  0  0  0  0
    1.0742    3.8174   -3.1200 C   0  0  0  0  0  0  0  0  0  0  0  0
    0.6522    4.6753   -2.1060 N   0  0  0  0  0  0  0  0  0  0  0  0
   -1.3819    0.9478   -0.2660 H   0  0  0  0  0  0  0  0  0  0  0  0
    0.5913    0.1725   -1.0842 H   0  0  0  0  0  0  0  0  0  0  0  0
    2.7191    1.4085   -0.3572 H   0  0  0  0  0  0  0  0  0  0  0  0
    1.7655    2.2361    0.8663 H   0  0  0  0  0  0  0  0  0  0  0  0
    1.8700    1.8871   -3.0184 H   0  0  0  0  0  0  0  0  0  0  0  0
    0.6030    4.4353    0.1122 H   0  0  0  0  0  0  0  0  0  0  0  0
    1.0751    4.0335   -4.1904 H   0  0  0  0  0  0  0  0  0  0  0  0
    0.2880    5.6242   -2.2366 H   0  0  0  0  0  0  0  0  0  0  0  0
    2.5733   -0.9465    0.7247 N   0  0  0  0  0  0  0  0  0  0  0  0
    3.2044   -1.8995    1.6463 C   0  0  2  0  0  0  0  0  0  0  0  0
    4.6329   -1.4227    1.9850 C   0  0  0  0  0  0  0  0  0  0  0  0
    5.1053   -0.4671    1.3734 O   0  0  0  0  0  0  0  0  0  0  0  0
    3.2210   -3.2820    0.9876 C   0  0  0  0  0  0  0  0  0  0  0  0
    3.2261   -0.2899    0.3002 H   0  0  0  0  0  0  0  0  0  0  0  0
    2.6416   -1.9510    2.5852 H   0  0  0  0  0  0  0  0  0  0  0  0
    3.7962   -3.2575    0.0565 H   0  0  0  0  0  0  0  0  0  0  0  0
    3.6713   -4.0221    1.6560 H   0  0  0  0  0  0  0  0  0  0  0  0
    2.1997   -3.6033    0.7585 H   0  0  0  0  0  0  0  0  0  0  0  0
    5.3733   -2.0325    2.9796 N   0  0  0  0  0  0  0  0  0  0  0  0
    6.7149   -1.6015    3.3570 C   0  0  0  0  0  0  0  0  0  0  0  0
    4.9467   -2.8050    3.4839 H   0  0  0  0  0  0  0  0  0  0  0  0
    7.3898   -1.6460    2.4954 H   0  0  0  0  0  0  0  0  0  0  0  0
    6.6950   -0.5741    3.7361 H   0  0  0  0  0  0  0  0  0  0  0  0
    7.1156   -2.2512    4.1414 H   0  0  0  0  0  0  0  0  0  0  0  0
  1  2  2  0  0  0  0
  1  3  1  0  0  0  0
  1  7  1  0  0  0  0
  3  4  1  0  0  0  0
  3  5  1  0  0  0  0
  3  6  1  0  0  0  0
  7  8  1  0  0  0  0
  7 12  1  0  0  0  0
  8  9  1  0  0  0  0
  8 11  1  0  0  0  0
  8 13  1  0  0  0  0
  9 10  2  0  0  0  0
  9 17  1  0  0  0  0
 11 14  1  0  0  0  0
 11 15  1  0  0  0  0
 11 16  1  0  0  0  0
 17 18  1  0  0  0  0
 17 27  1  0  0  0  0
 18 19  1  0  0  0  0
 18 21  1  0  0  0  0
 18 28  1  0  0  0  0
 19 20  2  0  0  0  0
 19 35  1  0  0  0  0
 21 22  1  0  0  0  0
 21 29  1  0  0  0  0
 21 30  1  0  0  0  0
 22 23  1  0  0  0  0
 22 24  2  0  0  0  0
 23 25  2  0  0  0  0
 23 31  1  0  0  0  0
 24 26  1  0  0  0  0
 24 32  1  0  0  0  0
 25 26  1  0  0  0  0
 25 33  1  0  0  0  0
 26 34  1  0  0  0  0
 35 36  1  0  0  0  0
 35 40  1  0  0  0  0
 36 37  1  0  0  0  0
 36 39  1  0  0  0  0
 36 41  1  0  0  0  0
 37 38  2  0  0  0  0
 37 45  1  0  0  0  0
 39 42  1  0  0  0  0
 39 43  1  0  0  0  0
 39 44  1  0  0  0  0
 45 46  1  0  0  0  0
 45 47  1  0  0  0  0
 46 48  1  0  0  0  0
 46 49  1  0  0  0  0
 46 50  1  0  0  0  0
M  CHG  1  23   1
M  END
$$$$

  -OEChem-05262216443D

 50 50  0     1  0  0  0  0  0999 V2000
   -3.6188   -0.2668    3.8596 C   0  0  0  0  0  0  0  0  0  0  0  0
   -4.5900   -0.3747    3.1281 O   0  0  0  0  0  0  0  0  0  0  0  0
   -3.6149   -0.9200    5.2281 C   0  0  0  0  0  0  0  0  0  0  0  0
   -4.5850   -1.3845    5.4256 H   0  0  0  0  0  0  0  0  0  0  0  0
   -2.8408   -1.6897    5.2720 H   0  0  0  0  0  0  0  0  0  0  0  0
   -3.4208   -0.1718    6.0003 H   0  0  0  0  0  0  0  0  0  0  0  0
   -2.5217    0.4513    3.4310 N   0  0  0  0  0  0  0  0  0  0  0  0
   -2.3865    1.0119    2.0814 C   0  0  2  0  0  0  0  0  0  0  0  0
   -0.9121    1.0915    1.6390 C   0  0  0  0  0  0  0  0  0  0  0  0
   -0.0255    1.2782    2.4661 O   0  0  0  0  0  0  0  0  0  0  0  0
   -3.0263    2.4035    2.0711 C   0  0  0  0  0  0  0  0  0  0  0  0
   -1.6956    0.4521    4.0277 H   0  0  0  0  0  0  0  0  0  0  0  0
   -2.9087    0.3672    1.3658 H   0  0  0  0  0  0  0  0  0  0  0  0
   -2.5151    3.0647    2.7782 H   0  0  0  0  0  0  0  0  0  0  0  0
   -2.9692    2.8459    1.0725 H   0  0  0  0  0  0  0  0  0  0  0  0
   -4.0809    2.3378    2.3583 H   0  0  0  0  0  0  0  0  0  0  0  0
   -0.5707    1.1029    0.2928 N   0  0  0  0  0  0  0  0  0  0  0  0
    0.7169    0.5583   -0.2039 C   0  0  2  0  0  0  0  0  0  0  0  0
    1.2849   -0.6188    0.6424 C   0  0  0  0  0  0  0  0  0  0  0  0
    0.5162   -1.4843    1.0394 O   0  0  0  0  0  0  0  0  0  0  0  0
    1.7195    1.7358   -0.2484 C   0  0  0  0  0  0  0  0  0  0  0  0
    1.2953    2.7951   -1.2355 C   0  0  0  0  0  0  0  0  0  0  0  0
    1.3747    2.7395   -2.6287 N   0  3  0  0  0  0  0  0  0  0  0  0
    0.7850    4.0227   -0.8987 C   0  0  0  0  0  0  0  0  0  0  0  0
    0.9370    3.8603   -3.1515 C   0  0  0  0  0  0  0  0  0  0  0  0
    0.5539    4.6872   -2.0970 N   0  0  0  0  0  0  0  0  0  0  0  0
   -1.3721    0.9220   -0.3074 H   0  0  0  0  0  0  0  0  0  0  0  0
    0.5738    0.1638   -1.2141 H   0  0  0  0  0  0  0  0  0  0  0  0
    2.7153    1.3874   -0.5390 H   0  0  0  0  0  0  0  0  0  0  0  0
    1.8105    2.1708    0.7544 H   0  0  0  0  0  0  0  0  0  0  0  0
    1.7462    1.9326   -3.1374 H   0  0  0  0  0  0  0  0  0  0  0  0
    0.6038    4.3863    0.1142 H   0  0  0  0  0  0  0  0  0  0  0  0
    0.8869    4.1039   -4.2148 H   0  0  0  0  0  0  0  0  0  0  0  0
    0.1780    5.6365   -2.1862 H   0  0  0  0  0  0  0  0  0  0  0  0
    2.6427   -0.8518    0.7560 N   0  0  0  0  0  0  0  0  0  0  0  0
    3.2218   -1.7861    1.7294 C   0  0  2  0  0  0  0  0  0  0  0  0
    4.4130   -1.1130    2.4440 C   0  0  0  0  0  0  0  0  0  0  0  0
    4.8439   -0.0452    2.0145 O   0  0  0  0  0  0  0  0  0  0  0  0
    3.6611   -3.0508    0.9876 C   0  0  0  0  0  0  0  0  0  0  0  0
    3.2520   -0.0647    0.5393 H   0  0  0  0  0  0  0  0  0  0  0  0
    2.4850   -2.0520    2.4954 H   0  0  0  0  0  0  0  0  0  0  0  0
    4.4156   -2.8098    0.2320 H   0  0  0  0  0  0  0  0  0  0  0  0
    4.0870   -3.7786    1.6851 H   0  0  0  0  0  0  0  0  0  0  0  0
    2.8029   -3.5134    0.4895 H   0  0  0  0  0  0  0  0  0  0  0  0
    4.9805   -1.6769    3.5704 N   0  0  0  0  0  0  0  0  0  0  0  0
    6.0725   -1.0558    4.3122 C   0  0  0  0  0  0  0  0  0  0  0  0
    4.5814   -2.5442    3.9191 H   0  0  0  0  0  0  0  0  0  0  0  0
    6.9354   -0.8881    3.6588 H   0  0  0  0  0  0  0  0  0  0  0  0
    5.7549   -0.0938    4.7285 H   0  0  0  0  0  0  0  0  0  0  0  0
    6.3873   -1.7023    5.1374 H   0  0  0  0  0  0  0  0  0  0  0  0
  1  2  2  0  0  0  0
  1  3  1  0  0  0  0
  1  7  1  0  0  0  0
  3  4  1  0  0  0  0
  3  5  1  0  0  0  0
  3  6  1  0  0  0  0
  7  8  1  0  0  0  0
  7 12  1  0  0  0  0
  8  9  1  0  0  0  0
  8 11  1  0  0  0  0
  8 13  1  0  0  0  0
  9 10  2  0  0  0  0
  9 17  1  0  0  0  0
 11 14  1  0  0  0  0
 11 15  1  0  0  0  0
 11 16  1  0  0  0  0
 17 18  1  0  0  0  0
 17 27  1  0  0  0  0
 18 19  1  0  0  0  0
 18 21  1  0  0  0  0
 18 28  1  0  0  0  0
 19 20  2  0  0  0  0
 19 35  1  0  0  0  0
 21 22  1  0  0  0  0
 21 29  1  0  0  0  0
 21 30  1  0  0  0  0
 22 23  1  0  0  0  0
 22 24  2  0  0  0  0
 23 25  2  0  0  0  0
 23 31  1  0  0  0  0
 24 26  1  0  0  0  0
 24 32  1  0  0  0  0
 25 26  1  0  0  0  0
 25 33  1  0  0  0  0
 26 34  1  0  0  0  0
 35 36  1  0  0  0  0
 35 40  1  0  0  0  0
 36 37  1  0  0  0  0
 36 39  1  0  0  0  0
 36 41  1  0  0  0  0
 37 38  2  0  0  0  0
 37 45  1  0  0  0  0
 39 42  1  0  0  0  0
 39 43  1  0  0  0  0
 39 44  1  0  0  0  0
 45 46  1  0  0  0  0
 45 47  1  0  0  0  0
 46 48  1  0  0  0  0
 46 49  1  0  0  0  0
 46 50  1  0  0  0  0
M  CHG  1  23   1
M  END
$$$$

  -OEChem-05262216443D

 50 50  0     1  0  0  0  0  0999 V2000
   -3.6721   -0.4825    3.7174 C   0  0  0  0  0  0  0  0  0  0  0  0
   -4.6036   -0.6459    2.9457 O   0  0  0  0  0  0  0  0  0  0  0  0
   -3.6833   -1.1459    5.0811 C   0  0  0  0  0  0  0  0  0  0  0  0
   -4.6162   -1.6995    5.2209 H   0  0  0  0  0  0  0  0  0  0  0  0
   -2.8454   -1.8421    5.1642 H   0  0  0  0  0  0  0  0  0  0  0  0
   -3.6014   -0.3909    5.8667 H   0  0  0  0  0  0  0  0  0  0  0  0
   -2.6046    0.3048    3.3379 N   0  0  0  0  0  0  0  0  0  0  0  0
   -2.4448    0.8743    1.9943 C   0  0  2  0  0  0  0  0  0  0  0  0
   -0.9607    1.0158    1.6009 C   0  0  0  0  0  0  0  0  0  0  0  0
   -0.1054    1.2047    2.4595 O   0  0  0  0  0  0  0  0  0  0  0  0
   -3.1433    2.2369    1.9641 C   0  0  0  0  0  0  0  0  0  0  0  0
   -1.8075    0.3553    3.9709 H   0  0  0  0  0  0  0  0  0  0  0  0
   -2.9145    0.2113    1.2594 H   0  0  0  0  0  0  0  0  0  0  0  0
   -2.6898    2.9151    2.6938 H   0  0  0  0  0  0  0  0  0  0  0  0
   -3.0664    2.6875    0.9705 H   0  0  0  0  0  0  0  0  0  0  0  0
   -4.2048    2.1232    2.2086 H   0  0  0  0  0  0  0  0  0  0  0  0
   -0.5826    1.0609    0.2654 N   0  0  0  0  0  0  0  0  0  0  0  0
    0.7420    0.5881   -0.2033 C   0  0  2  0  0  0  0  0  0  0  0  0
    1.3363   -0.5684    0.6508 C   0  0  0  0  0  0  0  0  0  0  0  0
    0.6392   -1.5500    0.8665 O   0  0  0  0  0  0  0  0  0  0  0  0
    1.6910    1.8081   -0.2238 C   0  0  0  0  0  0  0  0  0  0  0  0
    1.2427    2.8512   -1.2175 C   0  0  0  0  0  0  0  0  0  0  0  0
    1.3564    2.8005   -2.6084 N   0  3  0  0  0  0  0  0  0  0  0  0
    0.6810    4.0595   -0.8922 C   0  0  0  0  0  0  0  0  0  0  0  0
    0.8920    3.9059   -3.1409 C   0  0  0  0  0  0  0  0  0  0  0  0
    0.4544    4.7171   -2.0952 N   0  0  0  0  0  0  0  0  0  0  0  0
   -1.3577    0.8633   -0.3637 H   0  0  0  0  0  0  0  0  0  0  0  0
    0.6414    0.1918   -1.2182 H   0  0  0  0  0  0  0  0  0  0  0  0
    2.7062    1.4987   -0.4940 H   0  0  0  0  0  0  0  0  0  0  0  0
    1.7404    2.2439    0.7817 H   0  0  0  0  0  0  0  0  0  0  0  0
    1.7714    2.0094   -3.1082 H   0  0  0  0  0  0  0  0  0  0  0  0
    0.4659    4.4178    0.1158 H   0  0  0  0  0  0  0  0  0  0  0  0
    0.8601    4.1504   -4.2049 H   0  0  0  0  0  0  0  0  0  0  0  0
    0.0488    5.6534   -2.1923 H   0  0  0  0  0  0  0  0  0  0  0  0
    2.6554   -0.5849    1.0626 N   0  0  0  0  0  0  0  0  0  0  0  0
    3.1961   -1.5204    2.0551 C   0  0  2  0  0  0  0  0  0  0  0  0
    4.3001   -0.8167    2.8738 C   0  0  0  0  0  0  0  0  0  0  0  0
    4.6897    0.2952    2.5248 O   0  0  0  0  0  0  0  0  0  0  0  0
    3.7447   -2.7543    1.3314 C   0  0  0  0  0  0  0  0  0  0  0  0
    3.1614    0.2986    1.0123 H   0  0  0  0  0  0  0  0  0  0  0  0
    2.4081   -1.8262    2.7525 H   0  0  0  0  0  0  0  0  0  0  0  0
    4.5411   -2.4694    0.6365 H   0  0  0  0  0  0  0  0  0  0  0  0
    4.1498   -3.4742    2.0490 H   0  0  0  0  0  0  0  0  0  0  0  0
    2.9476   -3.2470    0.7653 H   0  0  0  0  0  0  0  0  0  0  0  0
    4.8402   -1.4043    4.0018 N   0  0  0  0  0  0  0  0  0  0  0  0
    5.8726   -0.7709    4.8151 C   0  0  0  0  0  0  0  0  0  0  0  0
    4.4901   -2.3182    4.2761 H   0  0  0  0  0  0  0  0  0  0  0  0
    6.7790   -0.6043    4.2233 H   0  0  0  0  0  0  0  0  0  0  0  0
    5.5216    0.1931    5.1989 H   0  0  0  0  0  0  0  0  0  0  0  0
    6.1288   -1.4080    5.6673 H   0  0  0  0  0  0  0  0  0  0  0  0
  1  2  2  0  0  0  0
  1  3  1  0  0  0  0
  1  7  1  0  0  0  0
  3  4  1  0  0  0  0
  3  5  1  0  0  0  0
  3  6  1  0  0  0  0
  7  8  1  0  0  0  0
  7 12  1  0  0  0  0
  8  9  1  0  0  0  0
  8 11  1  0  0  0  0
  8 13  1  0  0  0  0
  9 10  2  0  0  0  0
  9 17  1  0  0  0  0
 11 14  1  0  0  0  0
 11 15  1  0  0  0  0
 11 16  1  0  0  0  0
 17 18  1  0  0  0  0
 17 27  1  0  0  0  0
 18 19  1  0  0  0  0
 18 21  1  0  0  0  0
 18 28  1  0  0  0  0
 19 20  2  0  0  0  0
 19 35  1  0  0  0  0
 21 22  1  0  0  0  0
 21 29  1  0  0  0  0
 21 30  1  0  0  0  0
 22 23  1  0  0  0  0
 22 24  2  0  0  0  0
 23 25  2  0  0  0  0
 23 31  1  0  0  0  0
 24 26  1  0  0  0  0
 24 32  1  0  0  0  0
 25 26  1  0  0  0  0
 25 33  1  0  0  0  0
 26 34  1  0  0  0  0
 35 36  1  0  0  0  0
 35 40  1  0  0  0  0
 36 37  1  0  0  0  0
 36 39  1  0  0  0  0
 36 41  1  0  0  0  0
 37 38  2  0  0  0  0
 37 45  1  0  0  0  0
 39 42  1  0  0  0  0
 39 43  1  0  0  0  0
 39 44  1  0  0  0  0
 45 46  1  0  0  0  0
 45 47  1  0  0  0  0
 46 48  1  0  0  0  0
 46 49  1  0  0  0  0
 46 50  1  0  0  0  0
M  CHG  1  23   1
M  END
$$$$

  -OEChem-05262216443D

 50 50  0     1  0  0  0  0  0999 V2000
   -2.0268   -0.2217    4.4206 C   0  0  0  0  0  0  0  0  0  0  0  0
   -3.1796   -0.4775    4.1096 O   0  0  0  0  0  0  0  0  0  0  0  0
   -1.4521   -0.7846    5.7045 C   0  0  0  0  0  0  0  0  0  0  0  0
   -1.6071   -1.8656    5.7376 H   0  0  0  0  0  0  0  0  0  0  0  0
   -0.3815   -0.5757    5.7643 H   0  0  0  0  0  0  0  0  0  0  0  0
   -1.9483   -0.3247    6.5627 H   0  0  0  0  0  0  0  0  0  0  0  0
   -1.2665    0.6034    3.6214 N   0  0  0  0  0  0  0  0  0  0  0  0
   -1.7250    1.1670    2.3453 C   0  0  2  0  0  0  0  0  0  0  0  0
   -0.5219    1.6181    1.4995 C   0  0  0  0  0  0  0  0  0  0  0  0
    0.4632    2.1291    2.0231 O   0  0  0  0  0  0  0  0  0  0  0  0
   -2.6561    2.3551    2.6124 C   0  0  0  0  0  0  0  0  0  0  0  0
   -0.2595    0.6274    3.8176 H   0  0  0  0  0  0  0  0  0  0  0  0
   -2.2663    0.3967    1.7857 H   0  0  0  0  0  0  0  0  0  0  0  0
   -2.1359    3.1251    3.1910 H   0  0  0  0  0  0  0  0  0  0  0  0
   -2.9971    2.7944    1.6707 H   0  0  0  0  0  0  0  0  0  0  0  0
   -3.5360    2.0333    3.1784 H   0  0  0  0  0  0  0  0  0  0  0  0
   -0.4607    1.4673    0.1212 N   0  0  0  0  0  0  0  0  0  0  0  0
    0.7277    0.7909   -0.4494 C   0  0  2  0  0  0  0  0  0  0  0  0
    1.3112   -0.2669    0.5272 C   0  0  0  0  0  0  0  0  0  0  0  0
    0.6699   -1.3030    0.6325 O   0  0  0  0  0  0  0  0  0  0  0  0
    1.7778    1.8543   -0.8340 C   0  0  0  0  0  0  0  0  0  0  0  0
    1.2642    2.7612   -1.9245 C   0  0  0  0  0  0  0  0  0  0  0  0
    1.1253    2.4715   -3.2834 N   0  3  0  0  0  0  0  0  0  0  0  0
    0.8504    4.0546   -1.7327 C   0  0  0  0  0  0  0  0  0  0  0  0
    0.6514    3.5154   -3.9217 C   0  0  0  0  0  0  0  0  0  0  0  0
    0.4642    4.5266   -2.9809 N   0  0  0  0  0  0  0  0  0  0  0  0
   -1.3430    1.1220   -0.2518 H   0  0  0  0  0  0  0  0  0  0  0  0
    0.4301    0.2465   -1.3512 H   0  0  0  0  0  0  0  0  0  0  0  0
    2.6945    1.3655   -1.1817 H   0  0  0  0  0  0  0  0  0  0  0  0
    2.0421    2.4502    0.0465 H   0  0  0  0  0  0  0  0  0  0  0  0
    1.3733    1.5663   -3.6918 H   0  0  0  0  0  0  0  0  0  0  0  0
    0.8243    4.5856   -0.7794 H   0  0  0  0  0  0  0  0  0  0  0  0
    0.4431    3.5826   -4.9916 H   0  0  0  0  0  0  0  0  0  0  0  0
    0.1002    5.4652   -3.1732 H   0  0  0  0  0  0  0  0  0  0  0  0
    2.5955   -0.2245    1.0404 N   0  0  0  0  0  0  0  0  0  0  0  0
    3.0631   -1.2786    1.9575 C   0  0  2  0  0  0  0  0  0  0  0  0
    2.3030   -1.3488    3.3089 C   0  0  0  0  0  0  0  0  0  0  0  0
    1.6261   -0.4098    3.7199 O   0  0  0  0  0  0  0  0  0  0  0  0
    4.5536   -1.0338    2.2080 C   0  0  0  0  0  0  0  0  0  0  0  0
    2.9184    0.7172    1.2484 H   0  0  0  0  0  0  0  0  0  0  0  0
    2.9472   -2.2508    1.4662 H   0  0  0  0  0  0  0  0  0  0  0  0
    4.7048   -0.0784    2.7214 H   0  0  0  0  0  0  0  0  0  0  0  0
    4.9746   -1.8299    2.8300 H   0  0  0  0  0  0  0  0  0  0  0  0
    5.1013   -1.0135    1.2607 H   0  0  0  0  0  0  0  0  0  0  0  0
    2.4130   -2.4886    4.0847 N   0  0  0  0  0  0  0  0  0  0  0  0
    1.7121   -2.6822    5.3480 C   0  0  0  0  0  0  0  0  0  0  0  0
    2.9141   -3.2772    3.6858 H   0  0  0  0  0  0  0  0  0  0  0  0
    1.8347   -1.8097    5.9987 H   0  0  0  0  0  0  0  0  0  0  0  0
    0.6450   -2.8455    5.1688 H   0  0  0  0  0  0  0  0  0  0  0  0
    2.1129   -3.5553    5.8722 H   0  0  0  0  0  0  0  0  0  0  0  0
  1  2  2  0  0  0  0
  1  3  1  0  0  0  0
  1  7  1  0  0  0  0
  3  4  1  0  0  0  0
  3  5  1  0  0  0  0
  3  6  1  0  0  0  0
  7  8  1  0  0  0  0
  7 12  1  0  0  0  0
  8  9  1  0  0  0  0
  8 11  1  0  0  0  0
  8 13  1  0  0  0  0
  9 10  2  0  0  0  0
  9 17  1  0  0  0  0
 11 14  1  0  0  0  0
 11 15  1  0  0  0  0
 11 16  1  0  0  0  0
 17 18  1  0  0  0  0
 17 27  1  0  0  0  0
 18 19  1  0  0  0  0
 18 21  1  0  0  0  0
 18 28  1  0  0  0  0
 19 20  2  0  0  0  0
 19 35  1  0  0  0  0
 21 22  1  0  0  0  0
 21 29  1  0  0  0  0
 21 30  1  0  0  0  0
 22 23  1  0  0  0  0
 22 24  2  0  0  0  0
 23 25  2  0  0  0  0
 23 31  1  0  0  0  0
 24 26  1  0  0  0  0
 24 32  1  0  0  0  0
 25 26  1  0  0  0  0
 25 33  1  0  0  0  0
 26 34  1  0  0  0  0
 35 36  1  0  0  0  0
 35 40  1  0  0  0  0
 36 37  1  0  0  0  0
 36 39  1  0  0  0  0
 36 41  1  0  0  0  0
 37 38  2  0  0  0  0
 37 45  1  0  0  0  0
 39 42  1  0  0  0  0
 39 43  1  0  0  0  0
 39 44  1  0  0  0  0
 45 46  1  0  0  0  0
 45 47  1  0  0  0  0
 46 48  1  0  0  0  0
 46 49  1  0  0  0  0
 46 50  1  0  0  0  0
M  CHG  1  23   1
M  END
$$$$

  -OEChem-05262216443D

 50 50  0     1  0  0  0  0  0999 V2000
   -2.2642   -0.2109    4.3632 C   0  0  0  0  0  0  0  0  0  0  0  0
   -3.4295   -0.3030    4.0094 O   0  0  0  0  0  0  0  0  0  0  0  0
   -1.7907   -0.9587    5.5938 C   0  0  0  0  0  0  0  0  0  0  0  0
   -1.8934   -2.0348    5.4349 H   0  0  0  0  0  0  0  0  0  0  0  0
   -0.7434   -0.7269    5.8010 H   0  0  0  0  0  0  0  0  0  0  0  0
   -2.3922   -0.6656    6.4580 H   0  0  0  0  0  0  0  0  0  0  0  0
   -1.3932    0.5782    3.6438 N   0  0  0  0  0  0  0  0  0  0  0  0
   -1.7552    1.2920    2.4132 C   0  0  2  0  0  0  0  0  0  0  0  0
   -0.5004    1.6001    1.5772 C   0  0  0  0  0  0  0  0  0  0  0  0
    0.5034    2.0800    2.0961 O   0  0  0  0  0  0  0  0  0  0  0  0
   -2.4846    2.5892    2.7789 C   0  0  0  0  0  0  0  0  0  0  0  0
   -0.3962    0.4925    3.8775 H   0  0  0  0  0  0  0  0  0  0  0  0
   -2.4186    0.6622    1.8108 H   0  0  0  0  0  0  0  0  0  0  0  0
   -1.8477    3.2234    3.4042 H   0  0  0  0  0  0  0  0  0  0  0  0
   -2.7544    3.1453    1.8765 H   0  0  0  0  0  0  0  0  0  0  0  0
   -3.4023    2.3674    3.3329 H   0  0  0  0  0  0  0  0  0  0  0  0
   -0.4405    1.4006    0.2047 N   0  0  0  0  0  0  0  0  0  0  0  0
    0.7548    0.7373   -0.3646 C   0  0  2  0  0  0  0  0  0  0  0  0
    1.3962   -0.2788    0.6177 C   0  0  0  0  0  0  0  0  0  0  0  0
    0.9584   -1.4198    0.5817 O   0  0  0  0  0  0  0  0  0  0  0  0
    1.7720    1.8068   -0.8122 C   0  0  0  0  0  0  0  0  0  0  0  0
    1.2169    2.6568   -1.9280 C   0  0  0  0  0  0  0  0  0  0  0  0
    1.0643    2.2962   -3.2683 N   0  3  0  0  0  0  0  0  0  0  0  0
    0.7812    3.9507   -1.7947 C   0  0  0  0  0  0  0  0  0  0  0  0
    0.5599    3.2963   -3.9511 C   0  0  0  0  0  0  0  0  0  0  0  0
    0.3666    4.3502   -3.0596 N   0  0  0  0  0  0  0  0  0  0  0  0
   -1.3239    1.0555   -0.1658 H   0  0  0  0  0  0  0  0  0  0  0  0
    0.4479    0.1600   -1.2427 H   0  0  0  0  0  0  0  0  0  0  0  0
    2.6945    1.3234   -1.1521 H   0  0  0  0  0  0  0  0  0  0  0  0
    2.0356    2.4452    0.0380 H   0  0  0  0  0  0  0  0  0  0  0  0
    1.3284    1.3775   -3.6347 H   0  0  0  0  0  0  0  0  0  0  0  0
    0.7625    4.5315   -0.8708 H   0  0  0  0  0  0  0  0  0  0  0  0
    0.3351    3.3044   -5.0199 H   0  0  0  0  0  0  0  0  0  0  0  0
   -0.0152    5.2716   -3.2951 H   0  0  0  0  0  0  0  0  0  0  0  0
    2.5629   -0.0284    1.3175 N   0  0  0  0  0  0  0  0  0  0  0  0
    3.0855   -1.0298    2.2622 C   0  0  2  0  0  0  0  0  0  0  0  0
    2.1412   -1.3331    3.4543 C   0  0  0  0  0  0  0  0  0  0  0  0
    1.3452   -0.4952    3.8706 O   0  0  0  0  0  0  0  0  0  0  0  0
    4.4287   -0.5126    2.7823 C   0  0  0  0  0  0  0  0  0  0  0  0
    2.6333    0.9415    1.6238 H   0  0  0  0  0  0  0  0  0  0  0  0
    3.2555   -1.9689    1.7247 H   0  0  0  0  0  0  0  0  0  0  0  0
    4.2897    0.4208    3.3382 H   0  0  0  0  0  0  0  0  0  0  0  0
    4.8893   -1.2475    3.4503 H   0  0  0  0  0  0  0  0  0  0  0  0
    5.1146   -0.3264    1.9500 H   0  0  0  0  0  0  0  0  0  0  0  0
    2.2093   -2.5639    4.0805 N   0  0  0  0  0  0  0  0  0  0  0  0
    1.3184   -2.9695    5.1608 C   0  0  0  0  0  0  0  0  0  0  0  0
    2.8125   -3.2666    3.6622 H   0  0  0  0  0  0  0  0  0  0  0  0
    1.3422   -2.2388    5.9763 H   0  0  0  0  0  0  0  0  0  0  0  0
    0.2912   -3.0596    4.7935 H   0  0  0  0  0  0  0  0  0  0  0  0
    1.6283   -3.9393    5.5626 H   0  0  0  0  0  0  0  0  0  0  0  0
  1  2  2  0  0  0  0
  1  3  1  0  0  0  0
  1  7  1  0  0  0  0
  3  4  1  0  0  0  0
  3  5  1  0  0  0  0
  3  6  1  0  0  0  0
  7  8  1  0  0  0  0
  7 12  1  0  0  0  0
  8  9  1  0  0  0  0
  8 11  1  0  0  0  0
  8 13  1  0  0  0  0
  9 10  2  0  0  0  0
  9 17  1  0  0  0  0
 11 14  1  0  0  0  0
 11 15  1  0  0  0  0
 11 16  1  0  0  0  0
 17 18  1  0  0  0  0
 17 27  1  0  0  0  0
 18 19  1  0  0  0  0
 18 21  1  0  0  0  0
 18 28  1  0  0  0  0
 19 20  2  0  0  0  0
 19 35  1  0  0  0  0
 21 22  1  0  0  0  0
 21 29  1  0  0  0  0
 21 30  1  0  0  0  0
 22 23  1  0  0  0  0
 22 24  2  0  0  0  0
 23 25  2  0  0  0  0
 23 31  1  0  0  0  0
 24 26  1  0  0  0  0
 24 32  1  0  0  0  0
 25 26  1  0  0  0  0
 25 33  1  0  0  0  0
 26 34  1  0  0  0  0
 35 36  1  0  0  0  0
 35 40  1  0  0  0  0
 36 37  1  0  0  0  0
 36 39  1  0  0  0  0
 36 41  1  0  0  0  0
 37 38  2  0  0  0  0
 37 45  1  0  0  0  0
 39 42  1  0  0  0  0
 39 43  1  0  0  0  0
 39 44  1  0  0  0  0
 45 46  1  0  0  0  0
 45 47  1  0  0  0  0
 46 48  1  0  0  0  0
 46 49  1  0  0  0  0
 46 50  1  0  0  0  0
M  CHG  1  23   1
M  END
$$$$

  -OEChem-05262216443D

 50 50  0     1  0  0  0  0  0999 V2000
   -2.3283   -0.2718    2.4540 C   0  0  0  0  0  0  0  0  0  0  0  0
   -2.8453    0.1831    1.4395 O   0  0  0  0  0  0  0  0  0  0  0  0
   -2.3589   -1.7607    2.7372 C   0  0  0  0  0  0  0  0  0  0  0  0
   -1.3395   -2.1469    2.8157 H   0  0  0  0  0  0  0  0  0  0  0  0
   -2.8837   -1.9497    3.6764 H   0  0  0  0  0  0  0  0  0  0  0  0
   -2.8744   -2.2885    1.9306 H   0  0  0  0  0  0  0  0  0  0  0  0
   -1.6405    0.5774    3.2949 N   0  0  0  0  0  0  0  0  0  0  0  0
   -1.4056    1.9927    2.9887 C   0  0  2  0  0  0  0  0  0  0  0  0
   -0.2996    2.1275    1.9203 C   0  0  0  0  0  0  0  0  0  0  0  0
    0.8258    2.5500    2.1741 O   0  0  0  0  0  0  0  0  0  0  0  0
   -1.0548    2.6963    4.3044 C   0  0  0  0  0  0  0  0  0  0  0  0
   -0.9598    0.1239    3.9151 H   0  0  0  0  0  0  0  0  0  0  0  0
   -2.3196    2.4498    2.5943 H   0  0  0  0  0  0  0  0  0  0  0  0
   -0.1528    2.2603    4.7467 H   0  0  0  0  0  0  0  0  0  0  0  0
   -0.8759    3.7619    4.1310 H   0  0  0  0  0  0  0  0  0  0  0  0
   -1.8762    2.5953    5.0206 H   0  0  0  0  0  0  0  0  0  0  0  0
   -0.5166    1.6875    0.6239 N   0  0  0  0  0  0  0  0  0  0  0  0
    0.4258    0.7251    0.0151 C   0  0  2  0  0  0  0  0  0  0  0  0
    1.0852   -0.2320    1.0403 C   0  0  0  0  0  0  0  0  0  0  0  0
    0.6550   -1.3764    1.0897 O   0  0  0  0  0  0  0  0  0  0  0  0
    1.4891    1.4868   -0.7969 C   0  0  0  0  0  0  0  0  0  0  0  0
    0.8529    2.2177   -1.9524 C   0  0  0  0  0  0  0  0  0  0  0  0
    0.3815    1.6604   -3.1423 N   0  3  0  0  0  0  0  0  0  0  0  0
    0.6344    3.5699   -2.0127 C   0  0  0  0  0  0  0  0  0  0  0  0
   -0.1191    2.5962   -3.9128 C   0  0  0  0  0  0  0  0  0  0  0  0
    0.0263    3.8077   -3.2393 N   0  0  0  0  0  0  0  0  0  0  0  0
   -1.4936    1.3886    0.5285 H   0  0  0  0  0  0  0  0  0  0  0  0
   -0.1437    0.0881   -0.6699 H   0  0  0  0  0  0  0  0  0  0  0  0
    2.2405    0.7866   -1.1778 H   0  0  0  0  0  0  0  0  0  0  0  0
    2.0089    2.2006   -0.1486 H   0  0  0  0  0  0  0  0  0  0  0  0
    0.4128    0.6565   -3.3401 H   0  0  0  0  0  0  0  0  0  0  0  0
    0.8772    4.2947   -1.2344 H   0  0  0  0  0  0  0  0  0  0  0  0
   -0.5706    2.4530   -4.8966 H   0  0  0  0  0  0  0  0  0  0  0  0
   -0.2820    4.7232   -3.5806 H   0  0  0  0  0  0  0  0  0  0  0  0
    2.2685    0.0639    1.6917 N   0  0  0  0  0  0  0  0  0  0  0  0
    2.8074   -0.8533    2.7120 C   0  0  2  0  0  0  0  0  0  0  0  0
    1.8788   -1.0814    3.9355 C   0  0  0  0  0  0  0  0  0  0  0  0
    0.9318   -0.3378    4.1760 O   0  0  0  0  0  0  0  0  0  0  0  0
    4.1477   -0.2775    3.1767 C   0  0  0  0  0  0  0  0  0  0  0  0
    2.3614    1.0624    1.8913 H   0  0  0  0  0  0  0  0  0  0  0  0
    2.9855   -1.8291    2.2479 H   0  0  0  0  0  0  0  0  0  0  0  0
    3.9997    0.6917    3.6650 H   0  0  0  0  0  0  0  0  0  0  0  0
    4.6305   -0.9535    3.8892 H   0  0  0  0  0  0  0  0  0  0  0  0
    4.8208   -0.1404    2.3246 H   0  0  0  0  0  0  0  0  0  0  0  0
    2.1026   -2.1504    4.7835 N   0  0  0  0  0  0  0  0  0  0  0  0
    1.2593   -2.4536    5.9352 C   0  0  0  0  0  0  0  0  0  0  0  0
    2.8617   -2.7854    4.5527 H   0  0  0  0  0  0  0  0  0  0  0  0
    1.2143   -1.5963    6.6155 H   0  0  0  0  0  0  0  0  0  0  0  0
    0.2426   -2.7000    5.6115 H   0  0  0  0  0  0  0  0  0  0  0  0
    1.6631   -3.3082    6.4868 H   0  0  0  0  0  0  0  0  0  0  0  0
  1  2  2  0  0  0  0
  1  3  1  0  0  0  0
  1  7  1  0  0  0  0
  3  4  1  0  0  0  0
  3  5  1  0  0  0  0
  3  6  1  0  0  0  0
  7  8  1  0  0  0  0
  7 12  1  0  0  0  0
  8  9  1  0  0  0  0
  8 11  1  0  0  0  0
  8 13  1  0  0  0  0
  9 10  2  0  0  0  0
  9 17  1  0  0  0  0
 11 14  1  0  0  0  0
 11 15  1  0  0  0  0
 11 16  1  0  0  0  0
 17 18  1  0  0  0  0
 17 27  1  0  0  0  0
 18 19  1  0  0  0  0
 18 21  1  0  0  0  0
 18 28  1  0  0  0  0
 19 20  2  0  0  0  0
 19 35  1  0  0  0  0
 21 22  1  0  0  0  0
 21 29  1  0  0  0  0
 21 30  1  0  0  0  0
 22 23  1  0  0  0  0
 22 24  2  0  0  0  0
 23 25  2  0  0  0  0
 23 31  1  0  0  0  0
 24 26  1  0  0  0  0
 24 32  1  0  0  0  0
 25 26  1  0  0  0  0
 25 33  1  0  0  0  0
 26 34  1  0  0  0  0
 35 36  1  0  0  0  0
 35 40  1  0  0  0  0
 36 37  1  0  0  0  0
 36 39  1  0  0  0  0
 36 41  1  0  0  0  0
 37 38  2  0  0  0  0
 37 45  1  0  0  0  0
 39 42  1  0  0  0  0
 39 43  1  0  0  0  0
 39 44  1  0  0  0  0
 45 46  1  0  0  0  0
 45 47  1  0  0  0  0
 46 48  1  0  0  0  0
 46 49  1  0  0  0  0
 46 50  1  0  0  0  0
M  CHG  1  23   1
M  END
$$$$

  -OEChem-05262216443D

 50 50  0     1  0  0  0  0  0999 V2000
   -2.4204   -0.3008    2.3678 C   0  0  0  0  0  0  0  0  0  0  0  0
   -2.9039    0.1747    1.3468 O   0  0  0  0  0  0  0  0  0  0  0  0
   -2.3950   -1.8008    2.5836 C   0  0  0  0  0  0  0  0  0  0  0  0
   -2.8701   -2.0486    3.5358 H   0  0  0  0  0  0  0  0  0  0  0  0
   -2.9317   -2.3085    1.7780 H   0  0  0  0  0  0  0  0  0  0  0  0
   -1.3614   -2.1568    2.5981 H   0  0  0  0  0  0  0  0  0  0  0  0
   -1.7737    0.5315    3.2562 N   0  0  0  0  0  0  0  0  0  0  0  0
   -1.5103    1.9504    2.9908 C   0  0  2  0  0  0  0  0  0  0  0  0
   -0.3671    2.0979    1.9620 C   0  0  0  0  0  0  0  0  0  0  0  0
    0.7402    2.5429    2.2504 O   0  0  0  0  0  0  0  0  0  0  0  0
   -1.1925    2.6142    4.3353 C   0  0  0  0  0  0  0  0  0  0  0  0
   -1.1299    0.0607    3.9026 H   0  0  0  0  0  0  0  0  0  0  0  0
   -2.4056    2.4282    2.5788 H   0  0  0  0  0  0  0  0  0  0  0  0
   -0.3091    2.1563    4.7930 H   0  0  0  0  0  0  0  0  0  0  0  0
   -0.9975    3.6821    4.1974 H   0  0  0  0  0  0  0  0  0  0  0  0
   -2.0365    2.5029    5.0230 H   0  0  0  0  0  0  0  0  0  0  0  0
   -0.5440    1.6493    0.6642 N   0  0  0  0  0  0  0  0  0  0  0  0
    0.4116    0.7084    0.0415 C   0  0  2  0  0  0  0  0  0  0  0  0
    1.1122   -0.2708    1.0168 C   0  0  0  0  0  0  0  0  0  0  0  0
    0.8488   -1.4604    0.9097 O   0  0  0  0  0  0  0  0  0  0  0  0
    1.4660    1.5023   -0.7493 C   0  0  0  0  0  0  0  0  0  0  0  0
    0.8235    2.2481   -1.8915 C   0  0  0  0  0  0  0  0  0  0  0  0
    0.3664    1.7046   -3.0929 N   0  3  0  0  0  0  0  0  0  0  0  0
    0.5890    3.5986   -1.9305 C   0  0  0  0  0  0  0  0  0  0  0  0
   -0.1433    2.6463   -3.8500 C   0  0  0  0  0  0  0  0  0  0  0  0
   -0.0170    3.8484   -3.1556 N   0  0  0  0  0  0  0  0  0  0  0  0
   -1.5182    1.3508    0.5406 H   0  0  0  0  0  0  0  0  0  0  0  0
   -0.1517    0.0824   -0.6587 H   0  0  0  0  0  0  0  0  0  0  0  0
    2.2306    0.8226   -1.1415 H   0  0  0  0  0  0  0  0  0  0  0  0
    1.9719    2.2085   -0.0816 H   0  0  0  0  0  0  0  0  0  0  0  0
    0.4145    0.7047   -3.3075 H   0  0  0  0  0  0  0  0  0  0  0  0
    0.8220    4.3145   -1.1411 H   0  0  0  0  0  0  0  0  0  0  0  0
   -0.5881    2.5126   -4.8381 H   0  0  0  0  0  0  0  0  0  0  0  0
   -0.3328    4.7658   -3.4846 H   0  0  0  0  0  0  0  0  0  0  0  0
    2.1259    0.1147    1.8738 N   0  0  0  0  0  0  0  0  0  0  0  0
    2.6673   -0.8152    2.8782 C   0  0  2  0  0  0  0  0  0  0  0  0
    1.6582   -1.2068    3.9874 C   0  0  0  0  0  0  0  0  0  0  0  0
    0.6692   -0.5196    4.2249 O   0  0  0  0  0  0  0  0  0  0  0  0
    3.8975   -0.1491    3.4986 C   0  0  0  0  0  0  0  0  0  0  0  0
    2.0769    1.1021    2.1411 H   0  0  0  0  0  0  0  0  0  0  0  0
    2.9836   -1.7363    2.3769 H   0  0  0  0  0  0  0  0  0  0  0  0
    3.6137    0.7734    4.0160 H   0  0  0  0  0  0  0  0  0  0  0  0
    4.3735   -0.8191    4.2212 H   0  0  0  0  0  0  0  0  0  0  0  0
    4.6297    0.0964    2.7231 H   0  0  0  0  0  0  0  0  0  0  0  0
    1.8601   -2.3498    4.7381 N   0  0  0  0  0  0  0  0  0  0  0  0
    0.9582   -2.7876    5.7980 C   0  0  0  0  0  0  0  0  0  0  0  0
    2.6627   -2.9294    4.5090 H   0  0  0  0  0  0  0  0  0  0  0  0
    0.9136   -2.0394    6.5966 H   0  0  0  0  0  0  0  0  0  0  0  0
   -0.0516   -2.9440    5.4039 H   0  0  0  0  0  0  0  0  0  0  0  0
    1.3089   -3.7306    6.2287 H   0  0  0  0  0  0  0  0  0  0  0  0
  1  2  2  0  0  0  0
  1  3  1  0  0  0  0
  1  7  1  0  0  0  0
  3  4  1  0  0  0  0
  3  5  1  0  0  0  0
  3  6  1  0  0  0  0
  7  8  1  0  0  0  0
  7 12  1  0  0  0  0
  8  9  1  0  0  0  0
  8 11  1  0  0  0  0
  8 13  1  0  0  0  0
  9 10  2  0  0  0  0
  9 17  1  0  0  0  0
 11 14  1  0  0  0  0
 11 15  1  0  0  0  0
 11 16  1  0  0  0  0
 17 18  1  0  0  0  0
 17 27  1  0  0  0  0
 18 19  1  0  0  0  0
 18 21  1  0  0  0  0
 18 28  1  0  0  0  0
 19 20  2  0  0  0  0
 19 35  1  0  0  0  0
 21 22  1  0  0  0  0
 21 29  1  0  0  0  0
 21 30  1  0  0  0  0
 22 23  1  0  0  0  0
 22 24  2  0  0  0  0
 23 25  2  0  0  0  0
 23 31  1  0  0  0  0
 24 26  1  0  0  0  0
 24 32  1  0  0  0  0
 25 26  1  0  0  0  0
 25 33  1  0  0  0  0
 26 34  1  0  0  0  0
 35 36  1  0  0  0  0
 35 40  1  0  0  0  0
 36 37  1  0  0  0  0
 36 39  1  0  0  0  0
 36 41  1  0  0  0  0
 37 38  2  0  0  0  0
 37 45  1  0  0  0  0
 39 42  1  0  0  0  0
 39 43  1  0  0  0  0
 39 44  1  0  0  0  0
 45 46  1  0  0  0  0
 45 47  1  0  0  0  0
 46 48  1  0  0  0  0
 46 49  1  0  0  0  0
 46 50  1  0  0  0  0
M  CHG  1  23   1
M  END
$$$$

  -OEChem-05262216443D

 50 50  0     1  0  0  0  0  0999 V2000
   -2.5642   -0.2484    2.3002 C   0  0  0  0  0  0  0  0  0  0  0  0
   -2.9958    0.2682    1.2765 O   0  0  0  0  0  0  0  0  0  0  0  0
   -2.6177   -1.7518    2.4852 C   0  0  0  0  0  0  0  0  0  0  0  0
   -3.2190   -2.2100    1.6955 H   0  0  0  0  0  0  0  0  0  0  0  0
   -1.6066   -2.1666    2.4477 H   0  0  0  0  0  0  0  0  0  0  0  0
   -3.0642   -1.9925    3.4530 H   0  0  0  0  0  0  0  0  0  0  0  0
   -1.8881    0.5310    3.2141 N   0  0  0  0  0  0  0  0  0  0  0  0
   -1.5438    1.9399    2.9869 C   0  0  2  0  0  0  0  0  0  0  0  0
   -0.3719    2.0566    1.9858 C   0  0  0  0  0  0  0  0  0  0  0  0
    0.7219    2.5225    2.2885 O   0  0  0  0  0  0  0  0  0  0  0  0
   -1.2253    2.5562    4.3538 C   0  0  0  0  0  0  0  0  0  0  0  0
   -1.2896    0.0103    3.8661 H   0  0  0  0  0  0  0  0  0  0  0  0
   -2.4039    2.4720    2.5665 H   0  0  0  0  0  0  0  0  0  0  0  0
   -0.3757    2.0449    4.8191 H   0  0  0  0  0  0  0  0  0  0  0  0
   -0.9762    3.6165    4.2461 H   0  0  0  0  0  0  0  0  0  0  0  0
   -2.0895    2.4704    5.0200 H   0  0  0  0  0  0  0  0  0  0  0  0
   -0.5280    1.5855    0.6944 N   0  0  0  0  0  0  0  0  0  0  0  0
    0.4340    0.6666    0.0460 C   0  0  2  0  0  0  0  0  0  0  0  0
    1.1999   -0.3182    0.9661 C   0  0  0  0  0  0  0  0  0  0  0  0
    1.1241   -1.5099    0.7029 O   0  0  0  0  0  0  0  0  0  0  0  0
    1.4572    1.4959   -0.7480 C   0  0  0  0  0  0  0  0  0  0  0  0
    0.7806    2.2449   -1.8679 C   0  0  0  0  0  0  0  0  0  0  0  0
    0.3161    1.7126   -3.0714 N   0  3  0  0  0  0  0  0  0  0  0  0
    0.5128    3.5895   -1.8770 C   0  0  0  0  0  0  0  0  0  0  0  0
   -0.2304    2.6553   -3.8012 C   0  0  0  0  0  0  0  0  0  0  0  0
   -0.1211    3.8472   -3.0863 N   0  0  0  0  0  0  0  0  0  0  0  0
   -1.5028    1.2955    0.5544 H   0  0  0  0  0  0  0  0  0  0  0  0
   -0.1328    0.0423   -0.6529 H   0  0  0  0  0  0  0  0  0  0  0  0
    2.2295    0.8397   -1.1644 H   0  0  0  0  0  0  0  0  0  0  0  0
    1.9591    2.2003   -0.0752 H   0  0  0  0  0  0  0  0  0  0  0  0
    0.3853    0.7184   -3.3060 H   0  0  0  0  0  0  0  0  0  0  0  0
    0.7412    4.2951   -1.0769 H   0  0  0  0  0  0  0  0  0  0  0  0
   -0.6904    2.5296   -4.7834 H   0  0  0  0  0  0  0  0  0  0  0  0
   -0.4676    4.7620   -3.3909 H   0  0  0  0  0  0  0  0  0  0  0  0
    2.0264    0.0814    1.9987 N   0  0  0  0  0  0  0  0  0  0  0  0
    2.5445   -0.8702    2.9932 C   0  0  2  0  0  0  0  0  0  0  0  0
    1.4637   -1.4014    3.9661 C   0  0  0  0  0  0  0  0  0  0  0  0
    0.4219   -0.7810    4.1607 O   0  0  0  0  0  0  0  0  0  0  0  0
    3.6499   -0.1555    3.7742 C   0  0  0  0  0  0  0  0  0  0  0  0
    1.8840    1.0474    2.3069 H   0  0  0  0  0  0  0  0  0  0  0  0
    2.9820   -1.7305    2.4754 H   0  0  0  0  0  0  0  0  0  0  0  0
    3.2422    0.7060    4.3138 H   0  0  0  0  0  0  0  0  0  0  0  0
    4.1072   -0.8343    4.5008 H   0  0  0  0  0  0  0  0  0  0  0  0
    4.4309    0.1967    3.0933 H   0  0  0  0  0  0  0  0  0  0  0  0
    1.6648   -2.5849    4.6509 N   0  0  0  0  0  0  0  0  0  0  0  0
    0.6996   -3.1450    5.5906 C   0  0  0  0  0  0  0  0  0  0  0  0
    2.5167   -3.1040    4.4568 H   0  0  0  0  0  0  0  0  0  0  0  0
    0.5308   -2.4546    6.4241 H   0  0  0  0  0  0  0  0  0  0  0  0
   -0.2562   -3.3365    5.0914 H   0  0  0  0  0  0  0  0  0  0  0  0
    1.0712   -4.0907    5.9974 H   0  0  0  0  0  0  0  0  0  0  0  0
  1  2  2  0  0  0  0
  1  3  1  0  0  0  0
  1  7  1  0  0  0  0
  3  4  1  0  0  0  0
  3  5  1  0  0  0  0
  3  6  1  0  0  0  0
  7  8  1  0  0  0  0
  7 12  1  0  0  0  0
  8  9  1  0  0  0  0
  8 11  1  0  0  0  0
  8 13  1  0  0  0  0
  9 10  2  0  0  0  0
  9 17  1  0  0  0  0
 11 14  1  0  0  0  0
 11 15  1  0  0  0  0
 11 16  1  0  0  0  0
 17 18  1  0  0  0  0
 17 27  1  0  0  0  0
 18 19  1  0  0  0  0
 18 21  1  0  0  0  0
 18 28  1  0  0  0  0
 19 20  2  0  0  0  0
 19 35  1  0  0  0  0
 21 22  1  0  0  0  0
 21 29  1  0  0  0  0
 21 30  1  0  0  0  0
 22 23  1  0  0  0  0
 22 24  2  0  0  0  0
 23 25  2  0  0  0  0
 23 31  1  0  0  0  0
 24 26  1  0  0  0  0
 24 32  1  0  0  0  0
 25 26  1  0  0  0  0
 25 33  1  0  0  0  0
 26 34  1  0  0  0  0
 35 36  1  0  0  0  0
 35 40  1  0  0  0  0
 36 37  1  0  0  0  0
 36 39  1  0  0  0  0
 36 41  1  0  0  0  0
 37 38  2  0  0  0  0
 37 45  1  0  0  0  0
 39 42  1  0  0  0  0
 39 43  1  0  0  0  0
 39 44  1  0  0  0  0
 45 46  1  0  0  0  0
 45 47  1  0  0  0  0
 46 48  1  0  0  0  0
 46 49  1  0  0  0  0
 46 50  1  0  0  0  0
M  CHG  1  23   1
M  END
$$$$

  -OEChem-05262216443D

 50 50  0     1  0  0  0  0  0999 V2000
   -2.7084   -0.2568    2.1373 C   0  0  0  0  0  0  0  0  0  0  0  0
   -3.0530    0.3048    1.1044 O   0  0  0  0  0  0  0  0  0  0  0  0
   -2.8872   -1.7536    2.2955 C   0  0  0  0  0  0  0  0  0  0  0  0
   -3.4151   -1.9689    3.2278 H   0  0  0  0  0  0  0  0  0  0  0  0
   -3.4673   -2.1565    1.4609 H   0  0  0  0  0  0  0  0  0  0  0  0
   -1.9106   -2.2441    2.3189 H   0  0  0  0  0  0  0  0  0  0  0  0
   -2.0214    0.4580    3.0946 N   0  0  0  0  0  0  0  0  0  0  0  0
   -1.6172    1.8616    2.9377 C   0  0  2  0  0  0  0  0  0  0  0  0
   -0.3966    1.9837    1.9968 C   0  0  0  0  0  0  0  0  0  0  0  0
    0.6609    2.4969    2.3452 O   0  0  0  0  0  0  0  0  0  0  0  0
   -1.3453    2.4138    4.3417 C   0  0  0  0  0  0  0  0  0  0  0  0
   -1.4753   -0.1126    3.7504 H   0  0  0  0  0  0  0  0  0  0  0  0
   -2.4388    2.4386    2.4996 H   0  0  0  0  0  0  0  0  0  0  0  0
   -0.5302    1.8613    4.8216 H   0  0  0  0  0  0  0  0  0  0  0  0
   -1.0657    3.4708    4.2897 H   0  0  0  0  0  0  0  0  0  0  0  0
   -2.2408    2.3246    4.9646 H   0  0  0  0  0  0  0  0  0  0  0  0
   -0.4774    1.4928    0.7065 N   0  0  0  0  0  0  0  0  0  0  0  0
    0.5554    0.6516    0.0578 C   0  0  2  0  0  0  0  0  0  0  0  0
    1.4106   -0.2917    0.9437 C   0  0  0  0  0  0  0  0  0  0  0  0
    1.5869   -1.4304    0.5344 O   0  0  0  0  0  0  0  0  0  0  0  0
    1.5129    1.5745   -0.7139 C   0  0  0  0  0  0  0  0  0  0  0  0
    0.7855    2.2836   -1.8279 C   0  0  0  0  0  0  0  0  0  0  0  0
    0.3778    1.7294   -3.0418 N   0  3  0  0  0  0  0  0  0  0  0  0
    0.3999    3.5992   -1.8205 C   0  0  0  0  0  0  0  0  0  0  0  0
   -0.2434    2.6306   -3.7639 C   0  0  0  0  0  0  0  0  0  0  0  0
   -0.2467    3.8165   -3.0312 N   0  0  0  0  0  0  0  0  0  0  0  0
   -1.4343    1.1729    0.5182 H   0  0  0  0  0  0  0  0  0  0  0  0
    0.0390   -0.0009   -0.6543 H   0  0  0  0  0  0  0  0  0  0  0  0
    2.3399    0.9913   -1.1345 H   0  0  0  0  0  0  0  0  0  0  0  0
    1.9498    2.3051   -0.0237 H   0  0  0  0  0  0  0  0  0  0  0  0
    0.5420    0.7501   -3.2913 H   0  0  0  0  0  0  0  0  0  0  0  0
    0.5587    4.3102   -1.0084 H   0  0  0  0  0  0  0  0  0  0  0  0
   -0.6798    2.4790   -4.7531 H   0  0  0  0  0  0  0  0  0  0  0  0
   -0.6707    4.7012   -3.3262 H   0  0  0  0  0  0  0  0  0  0  0  0
    1.9863    0.0725    2.1449 N   0  0  0  0  0  0  0  0  0  0  0  0
    2.4516   -0.9158    3.1282 C   0  0  2  0  0  0  0  0  0  0  0  0
    1.2953   -1.5912    3.9039 C   0  0  0  0  0  0  0  0  0  0  0  0
    0.1949   -1.0526    3.9991 O   0  0  0  0  0  0  0  0  0  0  0  0
    3.3884   -0.1912    4.0974 C   0  0  0  0  0  0  0  0  0  0  0  0
    1.7132    0.9933    2.4968 H   0  0  0  0  0  0  0  0  0  0  0  0
    3.0205   -1.7001    2.6175 H   0  0  0  0  0  0  0  0  0  0  0  0
    2.8498    0.5956    4.6362 H   0  0  0  0  0  0  0  0  0  0  0  0
    3.8008   -0.8928    4.8293 H   0  0  0  0  0  0  0  0  0  0  0  0
    4.2200    0.2665    3.5521 H   0  0  0  0  0  0  0  0  0  0  0  0
    1.4913   -2.8123    4.5209 N   0  0  0  0  0  0  0  0  0  0  0  0
    0.4500   -3.5198    5.2586 C   0  0  0  0  0  0  0  0  0  0  0  0
    2.3946   -3.2622    4.3985 H   0  0  0  0  0  0  0  0  0  0  0  0
    0.0569   -2.8933    6.0665 H   0  0  0  0  0  0  0  0  0  0  0  0
   -0.3742   -3.7937    4.5916 H   0  0  0  0  0  0  0  0  0  0  0  0
    0.8546   -4.4351    5.7020 H   0  0  0  0  0  0  0  0  0  0  0  0
  1  2  2  0  0  0  0
  1  3  1  0  0  0  0
  1  7  1  0  0  0  0
  3  4  1  0  0  0  0
  3  5  1  0  0  0  0
  3  6  1  0  0  0  0
  7  8  1  0  0  0  0
  7 12  1  0  0  0  0
  8  9  1  0  0  0  0
  8 11  1  0  0  0  0
  8 13  1  0  0  0  0
  9 10  2  0  0  0  0
  9 17  1  0  0  0  0
 11 14  1  0  0  0  0
 11 15  1  0  0  0  0
 11 16  1  0  0  0  0
 17 18  1  0  0  0  0
 17 27  1  0  0  0  0
 18 19  1  0  0  0  0
 18 21  1  0  0  0  0
 18 28  1  0  0  0  0
 19 20  2  0  0  0  0
 19 35  1  0  0  0  0
 21 22  1  0  0  0  0
 21 29  1  0  0  0  0
 21 30  1  0  0  0  0
 22 23  1  0  0  0  0
 22 24  2  0  0  0  0
 23 25  2  0  0  0  0
 23 31  1  0  0  0  0
 24 26  1  0  0  0  0
 24 32  1  0  0  0  0
 25 26  1  0  0  0  0
 25 33  1  0  0  0  0
 26 34  1  0  0  0  0
 35 36  1  0  0  0  0
 35 40  1  0  0  0  0
 36 37  1  0  0  0  0
 36 39  1  0  0  0  0
 36 41  1  0  0  0  0
 37 38  2  0  0  0  0
 37 45  1  0  0  0  0
 39 42  1  0  0  0  0
 39 43  1  0  0  0  0
 39 44  1  0  0  0  0
 45 46  1  0  0  0  0
 45 47  1  0  0  0  0
 46 48  1  0  0  0  0
 46 49  1  0  0  0  0
 46 50  1  0  0  0  0
M  CHG  1  23   1
M  END
$$$$

  -OEChem-05262216443D

 50 50  0     1  0  0  0  0  0999 V2000
   -2.7619   -0.2108    2.0990 C   0  0  0  0  0  0  0  0  0  0  0  0
   -3.0686    0.3637    1.0615 O   0  0  0  0  0  0  0  0  0  0  0  0
   -3.0239   -1.6948    2.2618 C   0  0  0  0  0  0  0  0  0  0  0  0
   -2.0782   -2.2427    2.2575 H   0  0  0  0  0  0  0  0  0  0  0  0
   -3.5366   -1.8804    3.2088 H   0  0  0  0  0  0  0  0  0  0  0  0
   -3.6510   -2.0614    1.4447 H   0  0  0  0  0  0  0  0  0  0  0  0
   -2.0496    0.4737    3.0601 N   0  0  0  0  0  0  0  0  0  0  0  0
   -1.6070    1.8685    2.9202 C   0  0  2  0  0  0  0  0  0  0  0  0
   -0.3730    1.9734    1.9943 C   0  0  0  0  0  0  0  0  0  0  0  0
    0.6890    2.4619    2.3613 O   0  0  0  0  0  0  0  0  0  0  0  0
   -1.3399    2.4013    4.3329 C   0  0  0  0  0  0  0  0  0  0  0  0
   -1.5386   -0.1203    3.7232 H   0  0  0  0  0  0  0  0  0  0  0  0
   -2.4093    2.4693    2.4781 H   0  0  0  0  0  0  0  0  0  0  0  0
   -0.5388    1.8309    4.8145 H   0  0  0  0  0  0  0  0  0  0  0  0
   -1.0421    3.4539    4.2942 H   0  0  0  0  0  0  0  0  0  0  0  0
   -2.2421    2.3213    4.9475 H   0  0  0  0  0  0  0  0  0  0  0  0
   -0.4414    1.4597    0.7127 N   0  0  0  0  0  0  0  0  0  0  0  0
    0.6003    0.6364    0.0534 C   0  0  2  0  0  0  0  0  0  0  0  0
    1.5056   -0.2873    0.9113 C   0  0  0  0  0  0  0  0  0  0  0  0
    1.8567   -1.3408    0.3991 O   0  0  0  0  0  0  0  0  0  0  0  0
    1.5239    1.5778   -0.7375 C   0  0  0  0  0  0  0  0  0  0  0  0
    0.7662    2.2655   -1.8447 C   0  0  0  0  0  0  0  0  0  0  0  0
    0.3550    1.6955   -3.0501 N   0  3  0  0  0  0  0  0  0  0  0  0
    0.3645    3.5762   -1.8454 C   0  0  0  0  0  0  0  0  0  0  0  0
   -0.2856    2.5820   -3.7736 C   0  0  0  0  0  0  0  0  0  0  0  0
   -0.2970    3.7744   -3.0514 N   0  0  0  0  0  0  0  0  0  0  0  0
   -1.3976    1.1446    0.5133 H   0  0  0  0  0  0  0  0  0  0  0  0
    0.0851   -0.0299   -0.6461 H   0  0  0  0  0  0  0  0  0  0  0  0
    2.3582    1.0129   -1.1691 H   0  0  0  0  0  0  0  0  0  0  0  0
    1.9544    2.3206   -0.0557 H   0  0  0  0  0  0  0  0  0  0  0  0
    0.5302    0.7162   -3.2921 H   0  0  0  0  0  0  0  0  0  0  0  0
    0.5267    4.2982   -1.0441 H   0  0  0  0  0  0  0  0  0  0  0  0
   -0.7295    2.4167   -4.7572 H   0  0  0  0  0  0  0  0  0  0  0  0
   -0.7303    4.6525   -3.3527 H   0  0  0  0  0  0  0  0  0  0  0  0
    1.8713   -0.0392    2.2190 N   0  0  0  0  0  0  0  0  0  0  0  0
    2.3017   -1.0872    3.1532 C   0  0  2  0  0  0  0  0  0  0  0  0
    1.1088   -1.8239    3.8043 C   0  0  0  0  0  0  0  0  0  0  0  0
    0.0176   -1.2715    3.9274 O   0  0  0  0  0  0  0  0  0  0  0  0
    3.1634   -0.4187    4.2263 C   0  0  0  0  0  0  0  0  0  0  0  0
    1.5245    0.8357    2.6173 H   0  0  0  0  0  0  0  0  0  0  0  0
    2.9149   -1.8266    2.6269 H   0  0  0  0  0  0  0  0  0  0  0  0
    2.5788    0.3230    4.7809 H   0  0  0  0  0  0  0  0  0  0  0  0
    3.5404   -1.1632    4.9345 H   0  0  0  0  0  0  0  0  0  0  0  0
    4.0197    0.0852    3.7668 H   0  0  0  0  0  0  0  0  0  0  0  0
    1.2602   -3.1141    4.2752 N   0  0  0  0  0  0  0  0  0  0  0  0
    0.1820   -3.8802    4.8904 C   0  0  0  0  0  0  0  0  0  0  0  0
    2.1614   -3.5636    4.1360 H   0  0  0  0  0  0  0  0  0  0  0  0
   -0.2128   -3.3542    5.7661 H   0  0  0  0  0  0  0  0  0  0  0  0
   -0.6331   -4.0379    4.1762 H   0  0  0  0  0  0  0  0  0  0  0  0
    0.5508   -4.8584    5.2149 H   0  0  0  0  0  0  0  0  0  0  0  0
  1  2  2  0  0  0  0
  1  3  1  0  0  0  0
  1  7  1  0  0  0  0
  3  4  1  0  0  0  0
  3  5  1  0  0  0  0
  3  6  1  0  0  0  0
  7  8  1  0  0  0  0
  7 12  1  0  0  0  0
  8  9  1  0  0  0  0
  8 11  1  0  0  0  0
  8 13  1  0  0  0  0
  9 10  2  0  0  0  0
  9 17  1  0  0  0  0
 11 14  1  0  0  0  0
 11 15  1  0  0  0  0
 11 16  1  0  0  0  0
 17 18  1  0  0  0  0
 17 27  1  0  0  0  0
 18 19  1  0  0  0  0
 18 21  1  0  0  0  0
 18 28  1  0  0  0  0
 19 20  2  0  0  0  0
 19 35  1  0  0  0  0
 21 22  1  0  0  0  0
 21 29  1  0  0  0  0
 21 30  1  0  0  0  0
 22 23  1  0  0  0  0
 22 24  2  0  0  0  0
 23 25  2  0  0  0  0
 23 31  1  0  0  0  0
 24 26  1  0  0  0  0
 24 32  1  0  0  0  0
 25 26  1  0  0  0  0
 25 33  1  0  0  0  0
 26 34  1  0  0  0  0
 35 36  1  0  0  0  0
 35 40  1  0  0  0  0
 36 37  1  0  0  0  0
 36 39  1  0  0  0  0
 36 41  1  0  0  0  0
 37 38  2  0  0  0  0
 37 45  1  0  0  0  0
 39 42  1  0  0  0  0
 39 43  1  0  0  0  0
 39 44  1  0  0  0  0
 45 46  1  0  0  0  0
 45 47  1  0  0  0  0
 46 48  1  0  0  0  0
 46 49  1  0  0  0  0
 46 50  1  0  0  0  0
M  CHG  1  23   1
M  END
$$$$

  -OEChem-05262216443D

 50 50  0     1  0  0  0  0  0999 V2000
   -1.8182   -0.1173    4.5958 C   0  0  0  0  0  0  0  0  0  0  0  0
   -1.1989   -1.1318    4.3207 O   0  0  0  0  0  0  0  0  0  0  0  0
   -2.0295    0.2673    6.0469 C   0  0  0  0  0  0  0  0  0  0  0  0
   -1.5834   -0.4842    6.7044 H   0  0  0  0  0  0  0  0  0  0  0  0
   -1.5615    1.2337    6.2490 H   0  0  0  0  0  0  0  0  0  0  0  0
   -3.0981    0.3334    6.2645 H   0  0  0  0  0  0  0  0  0  0  0  0
   -2.3012    0.6965    3.5909 N   0  0  0  0  0  0  0  0  0  0  0  0
   -1.9892    0.4896    2.1672 C   0  0  2  0  0  0  0  0  0  0  0  0
   -0.6142    1.0679    1.7481 C   0  0  0  0  0  0  0  0  0  0  0  0
    0.0642    1.7179    2.5358 O   0  0  0  0  0  0  0  0  0  0  0  0
   -3.1253    1.1269    1.3624 C   0  0  0  0  0  0  0  0  0  0  0  0
   -2.6512    1.6045    3.8814 H   0  0  0  0  0  0  0  0  0  0  0  0
   -1.9777   -0.5849    1.9503 H   0  0  0  0  0  0  0  0  0  0  0  0
   -3.1547    2.2087    1.5274 H   0  0  0  0  0  0  0  0  0  0  0  0
   -2.9934    0.9390    0.2927 H   0  0  0  0  0  0  0  0  0  0  0  0
   -4.0876    0.7013    1.6665 H   0  0  0  0  0  0  0  0  0  0  0  0
   -0.1530    0.9817    0.4439 N   0  0  0  0  0  0  0  0  0  0  0  0
    1.2713    0.8009    0.0536 C   0  0  2  0  0  0  0  0  0  0  0  0
    2.2489    0.0212    0.9726 C   0  0  0  0  0  0  0  0  0  0  0  0
    3.2189   -0.4845    0.4238 O   0  0  0  0  0  0  0  0  0  0  0  0
    1.8974    2.1895   -0.1721 C   0  0  0  0  0  0  0  0  0  0  0  0
    1.2507    2.9108   -1.3254 C   0  0  0  0  0  0  0  0  0  0  0  0
    1.4503    2.6344   -2.6779 N   0  3  0  0  0  0  0  0  0  0  0  0
    0.4036    3.9848   -1.2385 C   0  0  0  0  0  0  0  0  0  0  0  0
    0.7682    3.4761   -3.4164 C   0  0  0  0  0  0  0  0  0  0  0  0
    0.0952    4.3351   -2.5481 N   0  0  0  0  0  0  0  0  0  0  0  0
   -0.7883    0.4217   -0.1216 H   0  0  0  0  0  0  0  0  0  0  0  0
    1.2731    0.2473   -0.8909 H   0  0  0  0  0  0  0  0  0  0  0  0
    2.9704    2.0902   -0.3740 H   0  0  0  0  0  0  0  0  0  0  0  0
    1.7984    2.7811    0.7452 H   0  0  0  0  0  0  0  0  0  0  0  0
    2.0664    1.8849   -3.0071 H   0  0  0  0  0  0  0  0  0  0  0  0
    0.0588    4.4577   -0.3182 H   0  0  0  0  0  0  0  0  0  0  0  0
    0.7391    3.5032   -4.5075 H   0  0  0  0  0  0  0  0  0  0  0  0
   -0.5117    5.1119   -2.8271 H   0  0  0  0  0  0  0  0  0  0  0  0
    1.9975   -0.2926    2.2921 N   0  0  0  0  0  0  0  0  0  0  0  0
    2.0642   -1.6995    2.7107 C   0  0  2  0  0  0  0  0  0  0  0  0
    0.8000   -2.4886    2.2696 C   0  0  0  0  0  0  0  0  0  0  0  0
    0.0938   -2.0750    1.3490 O   0  0  0  0  0  0  0  0  0  0  0  0
    2.2706   -1.7099    4.2293 C   0  0  0  0  0  0  0  0  0  0  0  0
    1.2264    0.2406    2.6956 H   0  0  0  0  0  0  0  0  0  0  0  0
    2.9294   -2.1904    2.2517 H   0  0  0  0  0  0  0  0  0  0  0  0
    1.4102   -1.2679    4.7403 H   0  0  0  0  0  0  0  0  0  0  0  0
    2.4089   -2.7311    4.5959 H   0  0  0  0  0  0  0  0  0  0  0  0
    3.1623   -1.1314    4.4907 H   0  0  0  0  0  0  0  0  0  0  0  0
    0.4653   -3.6870    2.8720 N   0  0  0  0  0  0  0  0  0  0  0  0
   -0.7893   -4.3798    2.6053 C   0  0  0  0  0  0  0  0  0  0  0  0
    0.9794   -3.9332    3.7121 H   0  0  0  0  0  0  0  0  0  0  0  0
   -1.6408   -3.7415    2.8650 H   0  0  0  0  0  0  0  0  0  0  0  0
   -0.8607   -4.6517    1.5469 H   0  0  0  0  0  0  0  0  0  0  0  0
   -0.8495   -5.2962    3.2003 H   0  0  0  0  0  0  0  0  0  0  0  0
  1  2  2  0  0  0  0
  1  3  1  0  0  0  0
  1  7  1  0  0  0  0
  3  4  1  0  0  0  0
  3  5  1  0  0  0  0
  3  6  1  0  0  0  0
  7  8  1  0  0  0  0
  7 12  1  0  0  0  0
  8  9  1  0  0  0  0
  8 11  1  0  0  0  0
  8 13  1  0  0  0  0
  9 10  2  0  0  0  0
  9 17  1  0  0  0  0
 11 14  1  0  0  0  0
 11 15  1  0  0  0  0
 11 16  1  0  0  0  0
 17 18  1  0  0  0  0
 17 27  1  0  0  0  0
 18 19  1  0  0  0  0
 18 21  1  0  0  0  0
 18 28  1  0  0  0  0
 19 20  2  0  0  0  0
 19 35  1  0  0  0  0
 21 22  1  0  0  0  0
 21 29  1  0  0  0  0
 21 30  1  0  0  0  0
 22 23  1  0  0  0  0
 22 24  2  0  0  0  0
 23 25  2  0  0  0  0
 23 31  1  0  0  0  0
 24 26  1  0  0  0  0
 24 32  1  0  0  0  0
 25 26  1  0  0  0  0
 25 33  1  0  0  0  0
 26 34  1  0  0  0  0
 35 36  1  0  0  0  0
 35 40  1  0  0  0  0
 36 37  1  0  0  0  0
 36 39  1  0  0  0  0
 36 41  1  0  0  0  0
 37 38  2  0  0  0  0
 37 45  1  0  0  0  0
 39 42  1  0  0  0  0
 39 43  1  0  0  0  0
 39 44  1  0  0  0  0
 45 46  1  0  0  0  0
 45 47  1  0  0  0  0
 46 48  1  0  0  0  0
 46 49  1  0  0  0  0
 46 50  1  0  0  0  0
M  CHG  1  23   1
M  END
$$$$

  -OEChem-05262216443D

 50 50  0     1  0  0  0  0  0999 V2000
   -2.0917   -0.2664    4.3363 C   0  0  0  0  0  0  0  0  0  0  0  0
   -1.4167   -1.2421    4.0493 O   0  0  0  0  0  0  0  0  0  0  0  0
   -2.4033    0.0410    5.7878 C   0  0  0  0  0  0  0  0  0  0  0  0
   -2.0259   -0.7576    6.4324 H   0  0  0  0  0  0  0  0  0  0  0  0
   -1.9301    0.9818    6.0797 H   0  0  0  0  0  0  0  0  0  0  0  0
   -3.4835    0.1244    5.9291 H   0  0  0  0  0  0  0  0  0  0  0  0
   -2.5312    0.5861    3.3439 N   0  0  0  0  0  0  0  0  0  0  0  0
   -2.0884    0.4745    1.9454 C   0  0  2  0  0  0  0  0  0  0  0  0
   -0.6866    1.0824    1.6976 C   0  0  0  0  0  0  0  0  0  0  0  0
   -0.1196    1.7409    2.5613 O   0  0  0  0  0  0  0  0  0  0  0  0
   -3.1437    1.1635    1.0767 C   0  0  0  0  0  0  0  0  0  0  0  0
   -2.9199    1.4709    3.6569 H   0  0  0  0  0  0  0  0  0  0  0  0
   -2.0468   -0.5834    1.6611 H   0  0  0  0  0  0  0  0  0  0  0  0
   -3.1998    2.2308    1.3132 H   0  0  0  0  0  0  0  0  0  0  0  0
   -2.9009    1.0526    0.0156 H   0  0  0  0  0  0  0  0  0  0  0  0
   -4.1273    0.7148    1.2509 H   0  0  0  0  0  0  0  0  0  0  0  0
   -0.0574    0.9605    0.4705 N   0  0  0  0  0  0  0  0  0  0  0  0
    1.4120    0.8487    0.2769 C   0  0  2  0  0  0  0  0  0  0  0  0
    2.3000    0.1768    1.3593 C   0  0  0  0  0  0  0  0  0  0  0  0
    3.4226   -0.1556    1.0012 O   0  0  0  0  0  0  0  0  0  0  0  0
    1.9769    2.2646    0.0509 C   0  0  0  0  0  0  0  0  0  0  0  0
    1.4432    2.8807   -1.2157 C   0  0  0  0  0  0  0  0  0  0  0  0
    1.8342    2.5500   -2.5130 N   0  3  0  0  0  0  0  0  0  0  0  0
    0.5294    3.8988   -1.3011 C   0  0  0  0  0  0  0  0  0  0  0  0
    1.2061    3.3062   -3.3806 C   0  0  0  0  0  0  0  0  0  0  0  0
    0.3746    4.1608   -2.6578 N   0  0  0  0  0  0  0  0  0  0  0  0
   -0.5849    0.3406   -0.1423 H   0  0  0  0  0  0  0  0  0  0  0  0
    1.5695    0.2483   -0.6247 H   0  0  0  0  0  0  0  0  0  0  0  0
    3.0712    2.2313   -0.0079 H   0  0  0  0  0  0  0  0  0  0  0  0
    1.7229    2.8929    0.9124 H   0  0  0  0  0  0  0  0  0  0  0  0
    2.5333    1.8292   -2.7161 H   0  0  0  0  0  0  0  0  0  0  0  0
    0.0396    4.3941   -0.4619 H   0  0  0  0  0  0  0  0  0  0  0  0
    1.3193    3.2758   -4.4661 H   0  0  0  0  0  0  0  0  0  0  0  0
   -0.2343    4.8817   -3.0570 H   0  0  0  0  0  0  0  0  0  0  0  0
    1.8056   -0.3457    2.5370 N   0  0  0  0  0  0  0  0  0  0  0  0
    1.9122   -1.7907    2.7796 C   0  0  2  0  0  0  0  0  0  0  0  0
    0.7397   -2.5603    2.1137 C   0  0  0  0  0  0  0  0  0  0  0  0
    0.1366   -2.0695    1.1580 O   0  0  0  0  0  0  0  0  0  0  0  0
    1.9843   -1.9966    4.2968 C   0  0  0  0  0  0  0  0  0  0  0  0
    0.9175    0.0685    2.8195 H   0  0  0  0  0  0  0  0  0  0  0  0
    2.8394   -2.1827    2.3481 H   0  0  0  0  0  0  0  0  0  0  0  0
    1.0611   -1.6641    4.7794 H   0  0  0  0  0  0  0  0  0  0  0  0
    2.1456   -3.0510    4.5389 H   0  0  0  0  0  0  0  0  0  0  0  0
    2.8175   -1.4213    4.7129 H   0  0  0  0  0  0  0  0  0  0  0  0
    0.3860   -3.8267    2.5413 N   0  0  0  0  0  0  0  0  0  0  0  0
   -0.7948   -4.5273    2.0512 C   0  0  0  0  0  0  0  0  0  0  0  0
    0.8162   -4.1539    3.4011 H   0  0  0  0  0  0  0  0  0  0  0  0
   -1.7039   -3.9866    2.3357 H   0  0  0  0  0  0  0  0  0  0  0  0
   -0.7648   -4.6189    0.9604 H   0  0  0  0  0  0  0  0  0  0  0  0
   -0.8410   -5.5341    2.4778 H   0  0  0  0  0  0  0  0  0  0  0  0
  1  2  2  0  0  0  0
  1  3  1  0  0  0  0
  1  7  1  0  0  0  0
  3  4  1  0  0  0  0
  3  5  1  0  0  0  0
  3  6  1  0  0  0  0
  7  8  1  0  0  0  0
  7 12  1  0  0  0  0
  8  9  1  0  0  0  0
  8 11  1  0  0  0  0
  8 13  1  0  0  0  0
  9 10  2  0  0  0  0
  9 17  1  0  0  0  0
 11 14  1  0  0  0  0
 11 15  1  0  0  0  0
 11 16  1  0  0  0  0
 17 18  1  0  0  0  0
 17 27  1  0  0  0  0
 18 19  1  0  0  0  0
 18 21  1  0  0  0  0
 18 28  1  0  0  0  0
 19 20  2  0  0  0  0
 19 35  1  0  0  0  0
 21 22  1  0  0  0  0
 21 29  1  0  0  0  0
 21 30  1  0  0  0  0
 22 23  1  0  0  0  0
 22 24  2  0  0  0  0
 23 25  2  0  0  0  0
 23 31  1  0  0  0  0
 24 26  1  0  0  0  0
 24 32  1  0  0  0  0
 25 26  1  0  0  0  0
 25 33  1  0  0  0  0
 26 34  1  0  0  0  0
 35 36  1  0  0  0  0
 35 40  1  0  0  0  0
 36 37  1  0  0  0  0
 36 39  1  0  0  0  0
 36 41  1  0  0  0  0
 37 38  2  0  0  0  0
 37 45  1  0  0  0  0
 39 42  1  0  0  0  0
 39 43  1  0  0  0  0
 39 44  1  0  0  0  0
 45 46  1  0  0  0  0
 45 47  1  0  0  0  0
 46 48  1  0  0  0  0
 46 49  1  0  0  0  0
 46 50  1  0  0  0  0
M  CHG  1  23   1
M  END
$$$$

  -OEChem-05262216443D

 50 50  0     1  0  0  0  0  0999 V2000
   -2.6971    2.7922    2.9333 C   0  0  0  0  0  0  0  0  0  0  0  0
   -2.2101    3.0388    1.8371 O   0  0  0  0  0  0  0  0  0  0  0  0
   -3.3067    3.9122    3.7545 C   0  0  0  0  0  0  0  0  0  0  0  0
   -2.7346    4.0551    4.6750 H   0  0  0  0  0  0  0  0  0  0  0  0
   -3.3005    4.8466    3.1869 H   0  0  0  0  0  0  0  0  0  0  0  0
   -4.3401    3.6666    4.0125 H   0  0  0  0  0  0  0  0  0  0  0  0
   -2.6687    1.5120    3.4515 N   0  0  0  0  0  0  0  0  0  0  0  0
   -2.0757    0.3307    2.8002 C   0  0  2  0  0  0  0  0  0  0  0  0
   -0.5708    0.4967    2.4784 C   0  0  0  0  0  0  0  0  0  0  0  0
    0.2412    0.4887    3.3904 O   0  0  0  0  0  0  0  0  0  0  0  0
   -2.9149   -0.0734    1.5773 C   0  0  0  0  0  0  0  0  0  0  0  0
   -3.0228    1.4012    4.3990 H   0  0  0  0  0  0  0  0  0  0  0  0
   -2.1316   -0.5019    3.5097 H   0  0  0  0  0  0  0  0  0  0  0  0
   -2.9143    0.7100    0.8139 H   0  0  0  0  0  0  0  0  0  0  0  0
   -2.5192   -0.9937    1.1342 H   0  0  0  0  0  0  0  0  0  0  0  0
   -3.9510   -0.2576    1.8779 H   0  0  0  0  0  0  0  0  0  0  0  0
   -0.1240    0.6935    1.1820 N   0  0  0  0  0  0  0  0  0  0  0  0
    1.2491    0.5341    0.6404 C   0  0  2  0  0  0  0  0  0  0  0  0
    2.2127   -0.5095    1.2664 C   0  0  0  0  0  0  0  0  0  0  0  0
    3.3063   -0.6454    0.7332 O   0  0  0  0  0  0  0  0  0  0  0  0
    1.9181    1.9205    0.7413 C   0  0  0  0  0  0  0  0  0  0  0  0
    1.2142    2.9264   -0.1324 C   0  0  0  0  0  0  0  0  0  0  0  0
    1.2891    3.0281   -1.5215 N   0  3  0  0  0  0  0  0  0  0  0  0
    0.3443    3.8876    0.3077 C   0  0  0  0  0  0  0  0  0  0  0  0
    0.5059    3.9914   -1.9460 C   0  0  0  0  0  0  0  0  0  0  0  0
   -0.1062    4.5498   -0.8251 N   0  0  0  0  0  0  0  0  0  0  0  0
   -0.8762    0.7658    0.5012 H   0  0  0  0  0  0  0  0  0  0  0  0
    1.1606    0.2428   -0.4106 H   0  0  0  0  0  0  0  0  0  0  0  0
    2.9702    1.8662    0.4395 H   0  0  0  0  0  0  0  0  0  0  0  0
    1.9015    2.2488    1.7871 H   0  0  0  0  0  0  0  0  0  0  0  0
    1.8878    2.4246   -2.0918 H   0  0  0  0  0  0  0  0  0  0  0  0
    0.0360    4.0530    1.3409 H   0  0  0  0  0  0  0  0  0  0  0  0
    0.3580    4.2982   -2.9830 H   0  0  0  0  0  0  0  0  0  0  0  0
   -0.8085    5.2951   -0.8300 H   0  0  0  0  0  0  0  0  0  0  0  0
    1.7611   -1.5043    2.1066 N   0  0  0  0  0  0  0  0  0  0  0  0
    2.1790   -2.9079    2.0377 C   0  0  2  0  0  0  0  0  0  0  0  0
    1.0400   -3.7810    1.4663 C   0  0  0  0  0  0  0  0  0  0  0  0
   -0.0891   -3.3136    1.3330 O   0  0  0  0  0  0  0  0  0  0  0  0
    2.5533   -3.3498    3.4542 C   0  0  0  0  0  0  0  0  0  0  0  0
    0.8335   -1.3361    2.4918 H   0  0  0  0  0  0  0  0  0  0  0  0
    3.0528   -3.0241    1.3880 H   0  0  0  0  0  0  0  0  0  0  0  0
    1.6894   -3.2695    4.1223 H   0  0  0  0  0  0  0  0  0  0  0  0
    3.3558   -2.7169    3.8465 H   0  0  0  0  0  0  0  0  0  0  0  0
    2.9002   -4.3875    3.4565 H   0  0  0  0  0  0  0  0  0  0  0  0
    1.2783   -5.0902    1.0929 N   0  0  0  0  0  0  0  0  0  0  0  0
    0.2435   -5.9776    0.5741 C   0  0  0  0  0  0  0  0  0  0  0  0
    2.2186   -5.4546    1.2204 H   0  0  0  0  0  0  0  0  0  0  0  0
   -0.5317   -6.1452    1.3293 H   0  0  0  0  0  0  0  0  0  0  0  0
   -0.2217   -5.5454   -0.3182 H   0  0  0  0  0  0  0  0  0  0  0  0
    0.6761   -6.9453    0.3019 H   0  0  0  0  0  0  0  0  0  0  0  0
  1  2  2  0  0  0  0
  1  3  1  0  0  0  0
  1  7  1  0  0  0  0
  3  4  1  0  0  0  0
  3  5  1  0  0  0  0
  3  6  1  0  0  0  0
  7  8  1  0  0  0  0
  7 12  1  0  0  0  0
  8  9  1  0  0  0  0
  8 11  1  0  0  0  0
  8 13  1  0  0  0  0
  9 10  2  0  0  0  0
  9 17  1  0  0  0  0
 11 14  1  0  0  0  0
 11 15  1  0  0  0  0
 11 16  1  0  0  0  0
 17 18  1  0  0  0  0
 17 27  1  0  0  0  0
 18 19  1  0  0  0  0
 18 21  1  0  0  0  0
 18 28  1  0  0  0  0
 19 20  2  0  0  0  0
 19 35  1  0  0  0  0
 21 22  1  0  0  0  0
 21 29  1  0  0  0  0
 21 30  1  0  0  0  0
 22 23  1  0  0  0  0
 22 24  2  0  0  0  0
 23 25  2  0  0  0  0
 23 31  1  0  0  0  0
 24 26  1  0  0  0  0
 24 32  1  0  0  0  0
 25 26  1  0  0  0  0
 25 33  1  0  0  0  0
 26 34  1  0  0  0  0
 35 36  1  0  0  0  0
 35 40  1  0  0  0  0
 36 37  1  0  0  0  0
 36 39  1  0  0  0  0
 36 41  1  0  0  0  0
 37 38  2  0  0  0  0
 37 45  1  0  0  0  0
 39 42  1  0  0  0  0
 39 43  1  0  0  0  0
 39 44  1  0  0  0  0
 45 46  1  0  0  0  0
 45 47  1  0  0  0  0
 46 48  1  0  0  0  0
 46 49  1  0  0  0  0
 46 50  1  0  0  0  0
M  CHG  1  23   1
M  END
$$$$

  -OEChem-05262216443D

 50 50  0     1  0  0  0  0  0999 V2000
   -2.5181   -0.2180    3.6228 C   0  0  0  0  0  0  0  0  0  0  0  0
   -2.1843   -0.8774    2.6479 O   0  0  0  0  0  0  0  0  0  0  0  0
   -2.7435   -0.8797    4.9680 C   0  0  0  0  0  0  0  0  0  0  0  0
   -2.7219   -1.9679    4.8622 H   0  0  0  0  0  0  0  0  0  0  0  0
   -1.9617   -0.5767    5.6688 H   0  0  0  0  0  0  0  0  0  0  0  0
   -3.7167   -0.5873    5.3707 H   0  0  0  0  0  0  0  0  0  0  0  0
   -2.6289    1.1499    3.4910 N   0  0  0  0  0  0  0  0  0  0  0  0
   -2.3156    1.8462    2.2379 C   0  0  2  0  0  0  0  0  0  0  0  0
   -0.8282    1.7010    1.8418 C   0  0  0  0  0  0  0  0  0  0  0  0
    0.0531    2.0763    2.6022 O   0  0  0  0  0  0  0  0  0  0  0  0
   -2.6927    3.3201    2.4101 C   0  0  0  0  0  0  0  0  0  0  0  0
   -2.7224    1.6934    4.3454 H   0  0  0  0  0  0  0  0  0  0  0  0
   -2.9294    1.4233    1.4356 H   0  0  0  0  0  0  0  0  0  0  0  0
   -2.1082    3.7755    3.2166 H   0  0  0  0  0  0  0  0  0  0  0  0
   -2.4983    3.8741    1.4867 H   0  0  0  0  0  0  0  0  0  0  0  0
   -3.7559    3.4159    2.6529 H   0  0  0  0  0  0  0  0  0  0  0  0
   -0.4717    1.2833    0.5684 N   0  0  0  0  0  0  0  0  0  0  0  0
    0.8252    0.6399    0.2444 C   0  0  2  0  0  0  0  0  0  0  0  0
    1.5188   -0.2196    1.3394 C   0  0  0  0  0  0  0  0  0  0  0  0
    2.7243   -0.4308    1.2556 O   0  0  0  0  0  0  0  0  0  0  0  0
    1.7875    1.7521   -0.2334 C   0  0  0  0  0  0  0  0  0  0  0  0
    1.3096    2.3946   -1.5091 C   0  0  0  0  0  0  0  0  0  0  0  0
    1.3791    1.8295   -2.7821 N   0  3  0  0  0  0  0  0  0  0  0  0
    0.7932    3.6574   -1.6396 C   0  0  0  0  0  0  0  0  0  0  0  0
    0.9287    2.6752   -3.6770 C   0  0  0  0  0  0  0  0  0  0  0  0
    0.5455    3.8306   -2.9967 N   0  0  0  0  0  0  0  0  0  0  0  0
   -1.2654    0.9436    0.0293 H   0  0  0  0  0  0  0  0  0  0  0  0
    0.6514   -0.0604   -0.5781 H   0  0  0  0  0  0  0  0  0  0  0  0
    2.7899    1.3488   -0.4136 H   0  0  0  0  0  0  0  0  0  0  0  0
    1.8850    2.5022    0.5598 H   0  0  0  0  0  0  0  0  0  0  0  0
    1.7595    0.8940   -2.9543 H   0  0  0  0  0  0  0  0  0  0  0  0
    0.6305    4.3707   -0.8308 H   0  0  0  0  0  0  0  0  0  0  0  0
    0.8727    2.5080   -4.7545 H   0  0  0  0  0  0  0  0  0  0  0  0
    0.1695    4.6809   -3.4271 H   0  0  0  0  0  0  0  0  0  0  0  0
    0.7920   -0.9067    2.2982 N   0  0  0  0  0  0  0  0  0  0  0  0
    1.3166   -2.1696    2.8386 C   0  0  2  0  0  0  0  0  0  0  0  0
    1.3363   -3.2969    1.7764 C   0  0  0  0  0  0  0  0  0  0  0  0
    0.6898   -3.1954    0.7369 O   0  0  0  0  0  0  0  0  0  0  0  0
    0.4494   -2.5782    4.0305 C   0  0  0  0  0  0  0  0  0  0  0  0
   -0.2238   -0.8533    2.1952 H   0  0  0  0  0  0  0  0  0  0  0  0
    2.3412   -2.0150    3.1935 H   0  0  0  0  0  0  0  0  0  0  0  0
   -0.5670   -2.8136    3.7000 H   0  0  0  0  0  0  0  0  0  0  0  0
    0.8655   -3.4633    4.5210 H   0  0  0  0  0  0  0  0  0  0  0  0
    0.4038   -1.7661    4.7624 H   0  0  0  0  0  0  0  0  0  0  0  0
    2.0980   -4.4328    1.9804 N   0  0  0  0  0  0  0  0  0  0  0  0
    2.2200   -5.5007    0.9944 C   0  0  0  0  0  0  0  0  0  0  0  0
    2.6838   -4.4626    2.8096 H   0  0  0  0  0  0  0  0  0  0  0  0
    1.2336   -5.9021    0.7383 H   0  0  0  0  0  0  0  0  0  0  0  0
    2.6956   -5.1261    0.0818 H   0  0  0  0  0  0  0  0  0  0  0  0
    2.8299   -6.3175    1.3925 H   0  0  0  0  0  0  0  0  0  0  0  0
  1  2  2  0  0  0  0
  1  3  1  0  0  0  0
  1  7  1  0  0  0  0
  3  4  1  0  0  0  0
  3  5  1  0  0  0  0
  3  6  1  0  0  0  0
  7  8  1  0  0  0  0
  7 12  1  0  0  0  0
  8  9  1  0  0  0  0
  8 11  1  0  0  0  0
  8 13  1  0  0  0  0
  9 10  2  0  0  0  0
  9 17  1  0  0  0  0
 11 14  1  0  0  0  0
 11 15  1  0  0  0  0
 11 16  1  0  0  0  0
 17 18  1  0  0  0  0
 17 27  1  0  0  0  0
 18 19  1  0  0  0  0
 18 21  1  0  0  0  0
 18 28  1  0  0  0  0
 19 20  2  0  0  0  0
 19 35  1  0  0  0  0
 21 22  1  0  0  0  0
 21 29  1  0  0  0  0
 21 30  1  0  0  0  0
 22 23  1  0  0  0  0
 22 24  2  0  0  0  0
 23 25  2  0  0  0  0
 23 31  1  0  0  0  0
 24 26  1  0  0  0  0
 24 32  1  0  0  0  0
 25 26  1  0  0  0  0
 25 33  1  0  0  0  0
 26 34  1  0  0  0  0
 35 36  1  0  0  0  0
 35 40  1  0  0  0  0
 36 37  1  0  0  0  0
 36 39  1  0  0  0  0
 36 41  1  0  0  0  0
 37 38  2  0  0  0  0
 37 45  1  0  0  0  0
 39 42  1  0  0  0  0
 39 43  1  0  0  0  0
 39 44  1  0  0  0  0
 45 46  1  0  0  0  0
 45 47  1  0  0  0  0
 46 48  1  0  0  0  0
 46 49  1  0  0  0  0
 46 50  1  0  0  0  0
M  CHG  1  23   1
M  END
$$$$

  -OEChem-05262216443D

 50 50  0     1  0  0  0  0  0999 V2000
   -2.5400   -0.3562    3.3143 C   0  0  0  0  0  0  0  0  0  0  0  0
   -2.1735   -0.8713    2.2660 O   0  0  0  0  0  0  0  0  0  0  0  0
   -2.8279   -1.2073    4.5356 C   0  0  0  0  0  0  0  0  0  0  0  0
   -2.8094   -2.2678    4.2700 H   0  0  0  0  0  0  0  0  0  0  0  0
   -2.0755   -1.0219    5.3064 H   0  0  0  0  0  0  0  0  0  0  0  0
   -3.8154   -0.9656    4.9361 H   0  0  0  0  0  0  0  0  0  0  0  0
   -2.6337    1.0176    3.3856 N   0  0  0  0  0  0  0  0  0  0  0  0
   -2.2954    1.8986    2.2620 C   0  0  2  0  0  0  0  0  0  0  0  0
   -0.8019    1.8035    1.8728 C   0  0  0  0  0  0  0  0  0  0  0  0
    0.0653    2.2407    2.6156 O   0  0  0  0  0  0  0  0  0  0  0  0
   -2.6788    3.3292    2.6524 C   0  0  0  0  0  0  0  0  0  0  0  0
   -2.7850    1.4292    4.3035 H   0  0  0  0  0  0  0  0  0  0  0  0
   -2.8947    1.6114    1.3918 H   0  0  0  0  0  0  0  0  0  0  0  0
   -2.1180    3.6524    3.5361 H   0  0  0  0  0  0  0  0  0  0  0  0
   -2.4584    4.0197    1.8324 H   0  0  0  0  0  0  0  0  0  0  0  0
   -3.7485    3.3888    2.8769 H   0  0  0  0  0  0  0  0  0  0  0  0
   -0.4344    1.3114    0.6292 N   0  0  0  0  0  0  0  0  0  0  0  0
    0.8793    0.6820    0.3556 C   0  0  2  0  0  0  0  0  0  0  0  0
    1.5556   -0.0699    1.5329 C   0  0  0  0  0  0  0  0  0  0  0  0
    2.7781   -0.1343    1.6057 O   0  0  0  0  0  0  0  0  0  0  0  0
    1.8252    1.7684   -0.2006 C   0  0  0  0  0  0  0  0  0  0  0  0
    1.3378    2.2989   -1.5232 C   0  0  0  0  0  0  0  0  0  0  0  0
    1.4207    1.6352   -2.7469 N   0  3  0  0  0  0  0  0  0  0  0  0
    0.7951    3.5361   -1.7539 C   0  0  0  0  0  0  0  0  0  0  0  0
    0.9522    2.3964   -3.7061 C   0  0  0  0  0  0  0  0  0  0  0  0
    0.5452    3.5948   -3.1204 N   0  0  0  0  0  0  0  0  0  0  0  0
   -1.2188    0.8950    0.1309 H   0  0  0  0  0  0  0  0  0  0  0  0
    0.7312   -0.0851   -0.4112 H   0  0  0  0  0  0  0  0  0  0  0  0
    2.8341    1.3658   -0.3437 H   0  0  0  0  0  0  0  0  0  0  0  0
    1.9058    2.5785    0.5332 H   0  0  0  0  0  0  0  0  0  0  0  0
    1.8156    0.6947   -2.8432 H   0  0  0  0  0  0  0  0  0  0  0  0
    0.6149    4.3076   -1.0045 H   0  0  0  0  0  0  0  0  0  0  0  0
    0.8996    2.1414   -4.7663 H   0  0  0  0  0  0  0  0  0  0  0  0
    0.1518    4.3996   -3.6173 H   0  0  0  0  0  0  0  0  0  0  0  0
    0.7927   -0.9223    2.3120 N   0  0  0  0  0  0  0  0  0  0  0  0
    1.3631   -2.2057    2.7445 C   0  0  2  0  0  0  0  0  0  0  0  0
    1.5705   -3.1800    1.5577 C   0  0  0  0  0  0  0  0  0  0  0  0
    1.0536   -2.9612    0.4642 O   0  0  0  0  0  0  0  0  0  0  0  0
    0.4154   -2.8174    3.7776 C   0  0  0  0  0  0  0  0  0  0  0  0
   -0.2008   -0.9381    2.0705 H   0  0  0  0  0  0  0  0  0  0  0  0
    2.3344   -2.0343    3.2211 H   0  0  0  0  0  0  0  0  0  0  0  0
   -0.5535   -3.0431    3.3208 H   0  0  0  0  0  0  0  0  0  0  0  0
    0.8326   -3.7456    4.1799 H   0  0  0  0  0  0  0  0  0  0  0  0
    0.2603   -2.1215    4.6076 H   0  0  0  0  0  0  0  0  0  0  0  0
    2.3482   -4.3123    1.7141 N   0  0  0  0  0  0  0  0  0  0  0  0
    2.6168   -5.2552    0.6344 C   0  0  0  0  0  0  0  0  0  0  0  0
    2.8185   -4.4407    2.6055 H   0  0  0  0  0  0  0  0  0  0  0  0
    1.6794   -5.6472    0.2252 H   0  0  0  0  0  0  0  0  0  0  0  0
    3.1754   -4.7662   -0.1705 H   0  0  0  0  0  0  0  0  0  0  0  0
    3.2092   -6.0978    1.0043 H   0  0  0  0  0  0  0  0  0  0  0  0
  1  2  2  0  0  0  0
  1  3  1  0  0  0  0
  1  7  1  0  0  0  0
  3  4  1  0  0  0  0
  3  5  1  0  0  0  0
  3  6  1  0  0  0  0
  7  8  1  0  0  0  0
  7 12  1  0  0  0  0
  8  9  1  0  0  0  0
  8 11  1  0  0  0  0
  8 13  1  0  0  0  0
  9 10  2  0  0  0  0
  9 17  1  0  0  0  0
 11 14  1  0  0  0  0
 11 15  1  0  0  0  0
 11 16  1  0  0  0  0
 17 18  1  0  0  0  0
 17 27  1  0  0  0  0
 18 19  1  0  0  0  0
 18 21  1  0  0  0  0
 18 28  1  0  0  0  0
 19 20  2  0  0  0  0
 19 35  1  0  0  0  0
 21 22  1  0  0  0  0
 21 29  1  0  0  0  0
 21 30  1  0  0  0  0
 22 23  1  0  0  0  0
 22 24  2  0  0  0  0
 23 25  2  0  0  0  0
 23 31  1  0  0  0  0
 24 26  1  0  0  0  0
 24 32  1  0  0  0  0
 25 26  1  0  0  0  0
 25 33  1  0  0  0  0
 26 34  1  0  0  0  0
 35 36  1  0  0  0  0
 35 40  1  0  0  0  0
 36 37  1  0  0  0  0
 36 39  1  0  0  0  0
 36 41  1  0  0  0  0
 37 38  2  0  0  0  0
 37 45  1  0  0  0  0
 39 42  1  0  0  0  0
 39 43  1  0  0  0  0
 39 44  1  0  0  0  0
 45 46  1  0  0  0  0
 45 47  1  0  0  0  0
 46 48  1  0  0  0  0
 46 49  1  0  0  0  0
 46 50  1  0  0  0  0
M  CHG  1  23   1
M  END
$$$$

  -OEChem-05262216443D

 50 50  0     1  0  0  0  0  0999 V2000
   -2.5573   -0.4361    2.9299 C   0  0  0  0  0  0  0  0  0  0  0  0
   -2.1712   -0.7719    1.8175 O   0  0  0  0  0  0  0  0  0  0  0  0
   -2.9180   -1.4827    3.9656 C   0  0  0  0  0  0  0  0  0  0  0  0
   -2.8850   -2.4814    3.5212 H   0  0  0  0  0  0  0  0  0  0  0  0
   -2.2126   -1.4428    4.7993 H   0  0  0  0  0  0  0  0  0  0  0  0
   -3.9272   -1.3017    4.3439 H   0  0  0  0  0  0  0  0  0  0  0  0
   -2.6082    0.9045    3.2503 N   0  0  0  0  0  0  0  0  0  0  0  0
   -2.2679    1.9821    2.3119 C   0  0  2  0  0  0  0  0  0  0  0  0
   -0.7814    1.9460    1.8830 C   0  0  0  0  0  0  0  0  0  0  0  0
    0.0904    2.4581    2.5700 O   0  0  0  0  0  0  0  0  0  0  0  0
   -2.6356    3.3131    2.9772 C   0  0  0  0  0  0  0  0  0  0  0  0
   -2.8279    1.1473    4.2135 H   0  0  0  0  0  0  0  0  0  0  0  0
   -2.8803    1.8776    1.4103 H   0  0  0  0  0  0  0  0  0  0  0  0
   -2.0724    3.4511    3.9064 H   0  0  0  0  0  0  0  0  0  0  0  0
   -2.4062    4.1483    2.3080 H   0  0  0  0  0  0  0  0  0  0  0  0
   -3.7047    3.3413    3.2100 H   0  0  0  0  0  0  0  0  0  0  0  0
   -0.4321    1.3788    0.6668 N   0  0  0  0  0  0  0  0  0  0  0  0
    0.8690    0.7121    0.4343 C   0  0  2  0  0  0  0  0  0  0  0  0
    1.5023    0.0311    1.6739 C   0  0  0  0  0  0  0  0  0  0  0  0
    2.7067    0.1025    1.8926 O   0  0  0  0  0  0  0  0  0  0  0  0
    1.8460    1.7341   -0.1820 C   0  0  0  0  0  0  0  0  0  0  0  0
    1.3739    2.1910   -1.5364 C   0  0  0  0  0  0  0  0  0  0  0  0
    1.4388    1.4514   -2.7168 N   0  3  0  0  0  0  0  0  0  0  0  0
    0.8520    3.4209   -1.8397 C   0  0  0  0  0  0  0  0  0  0  0  0
    0.9763    2.1602   -3.7180 C   0  0  0  0  0  0  0  0  0  0  0  0
    0.5962    3.4003   -3.2058 N   0  0  0  0  0  0  0  0  0  0  0  0
   -1.2255    0.8999    0.2413 H   0  0  0  0  0  0  0  0  0  0  0  0
    0.7116   -0.0975   -0.2855 H   0  0  0  0  0  0  0  0  0  0  0  0
    2.8430    1.2929   -0.2920 H   0  0  0  0  0  0  0  0  0  0  0  0
    1.9466    2.5876    0.4987 H   0  0  0  0  0  0  0  0  0  0  0  0
    1.8063    0.4957   -2.7544 H   0  0  0  0  0  0  0  0  0  0  0  0
    0.6844    4.2367   -1.1356 H   0  0  0  0  0  0  0  0  0  0  0  0
    0.9068    1.8394   -4.7590 H   0  0  0  0  0  0  0  0  0  0  0  0
    0.2076    4.1776   -3.7477 H   0  0  0  0  0  0  0  0  0  0  0  0
    0.7679   -0.9737    2.2771 N   0  0  0  0  0  0  0  0  0  0  0  0
    1.4320   -2.2282    2.6552 C   0  0  2  0  0  0  0  0  0  0  0  0
    1.8395   -3.0613    1.4141 C   0  0  0  0  0  0  0  0  0  0  0  0
    1.4009   -2.7844    0.2993 O   0  0  0  0  0  0  0  0  0  0  0  0
    0.4670   -3.0177    3.5420 C   0  0  0  0  0  0  0  0  0  0  0  0
   -0.1793   -1.0683    1.9035 H   0  0  0  0  0  0  0  0  0  0  0  0
    2.3367   -2.0088    3.2329 H   0  0  0  0  0  0  0  0  0  0  0  0
   -0.4423   -3.2715    2.9873 H   0  0  0  0  0  0  0  0  0  0  0  0
    0.9334   -3.9458    3.8867 H   0  0  0  0  0  0  0  0  0  0  0  0
    0.1903   -2.4260    4.4201 H   0  0  0  0  0  0  0  0  0  0  0  0
    2.7098   -4.1276    1.5435 N   0  0  0  0  0  0  0  0  0  0  0  0
    3.1657   -4.9312    0.4148 C   0  0  0  0  0  0  0  0  0  0  0  0
    3.1113   -4.2991    2.4613 H   0  0  0  0  0  0  0  0  0  0  0  0
    2.3142   -5.3908   -0.0985 H   0  0  0  0  0  0  0  0  0  0  0  0
    3.7143   -4.3100   -0.3008 H   0  0  0  0  0  0  0  0  0  0  0  0
    3.8303   -5.7289    0.7606 H   0  0  0  0  0  0  0  0  0  0  0  0
  1  2  2  0  0  0  0
  1  3  1  0  0  0  0
  1  7  1  0  0  0  0
  3  4  1  0  0  0  0
  3  5  1  0  0  0  0
  3  6  1  0  0  0  0
  7  8  1  0  0  0  0
  7 12  1  0  0  0  0
  8  9  1  0  0  0  0
  8 11  1  0  0  0  0
  8 13  1  0  0  0  0
  9 10  2  0  0  0  0
  9 17  1  0  0  0  0
 11 14  1  0  0  0  0
 11 15  1  0  0  0  0
 11 16  1  0  0  0  0
 17 18  1  0  0  0  0
 17 27  1  0  0  0  0
 18 19  1  0  0  0  0
 18 21  1  0  0  0  0
 18 28  1  0  0  0  0
 19 20  2  0  0  0  0
 19 35  1  0  0  0  0
 21 22  1  0  0  0  0
 21 29  1  0  0  0  0
 21 30  1  0  0  0  0
 22 23  1  0  0  0  0
 22 24  2  0  0  0  0
 23 25  2  0  0  0  0
 23 31  1  0  0  0  0
 24 26  1  0  0  0  0
 24 32  1  0  0  0  0
 25 26  1  0  0  0  0
 25 33  1  0  0  0  0
 26 34  1  0  0  0  0
 35 36  1  0  0  0  0
 35 40  1  0  0  0  0
 36 37  1  0  0  0  0
 36 39  1  0  0  0  0
 36 41  1  0  0  0  0
 37 38  2  0  0  0  0
 37 45  1  0  0  0  0
 39 42  1  0  0  0  0
 39 43  1  0  0  0  0
 39 44  1  0  0  0  0
 45 46  1  0  0  0  0
 45 47  1  0  0  0  0
 46 48  1  0  0  0  0
 46 49  1  0  0  0  0
 46 50  1  0  0  0  0
M  CHG  1  23   1
M  END
$$$$

  -OEChem-05262216443D

 50 50  0     1  0  0  0  0  0999 V2000
   -2.5755   -0.4457    2.7720 C   0  0  0  0  0  0  0  0  0  0  0  0
   -2.2344   -0.7136    1.6263 O   0  0  0  0  0  0  0  0  0  0  0  0
   -2.8533   -1.5569    3.7651 C   0  0  0  0  0  0  0  0  0  0  0  0
   -2.7642   -2.5318    3.2780 H   0  0  0  0  0  0  0  0  0  0  0  0
   -2.1381   -1.5080    4.5900 H   0  0  0  0  0  0  0  0  0  0  0  0
   -3.8657   -1.4562    4.1642 H   0  0  0  0  0  0  0  0  0  0  0  0
   -2.6382    0.8726    3.1749 N   0  0  0  0  0  0  0  0  0  0  0  0
   -2.3399    2.0169    2.3025 C   0  0  2  0  0  0  0  0  0  0  0  0
   -0.8564    2.0477    1.8641 C   0  0  0  0  0  0  0  0  0  0  0  0
   -0.0002    2.5986    2.5402 O   0  0  0  0  0  0  0  0  0  0  0  0
   -2.7435    3.2912    3.0537 C   0  0  0  0  0  0  0  0  0  0  0  0
   -2.8125    1.0494    4.1617 H   0  0  0  0  0  0  0  0  0  0  0  0
   -2.9554    1.9510    1.3992 H   0  0  0  0  0  0  0  0  0  0  0  0
   -2.1745    3.3911    3.9841 H   0  0  0  0  0  0  0  0  0  0  0  0
   -2.5499    4.1739    2.4362 H   0  0  0  0  0  0  0  0  0  0  0  0
   -3.8100    3.2687    3.2983 H   0  0  0  0  0  0  0  0  0  0  0  0
   -0.4865    1.4378    0.6764 N   0  0  0  0  0  0  0  0  0  0  0  0
    0.7920    0.7111    0.5269 C   0  0  2  0  0  0  0  0  0  0  0  0
    1.3303    0.0410    1.8156 C   0  0  0  0  0  0  0  0  0  0  0  0
    2.4763    0.2291    2.2075 O   0  0  0  0  0  0  0  0  0  0  0  0
    1.8492    1.6574   -0.0740 C   0  0  0  0  0  0  0  0  0  0  0  0
    1.4649    2.0836   -1.4645 C   0  0  0  0  0  0  0  0  0  0  0  0
    1.5504    1.2885   -2.6064 N   0  3  0  0  0  0  0  0  0  0  0  0
    1.0202    3.3219   -1.8452 C   0  0  0  0  0  0  0  0  0  0  0  0
    1.1754    1.9729   -3.6597 C   0  0  0  0  0  0  0  0  0  0  0  0
    0.8336    3.2523   -3.2212 N   0  0  0  0  0  0  0  0  0  0  0  0
   -1.2805    0.9513    0.2590 H   0  0  0  0  0  0  0  0  0  0  0  0
    0.6301   -0.1083   -0.1806 H   0  0  0  0  0  0  0  0  0  0  0  0
    2.8245    1.1594   -0.1156 H   0  0  0  0  0  0  0  0  0  0  0  0
    1.9611    2.5307    0.5792 H   0  0  0  0  0  0  0  0  0  0  0  0
    1.8667    0.3138   -2.5810 H   0  0  0  0  0  0  0  0  0  0  0  0
    0.8576    4.1751   -1.1857 H   0  0  0  0  0  0  0  0  0  0  0  0
    1.1417    1.6083   -4.6878 H   0  0  0  0  0  0  0  0  0  0  0  0
    0.5114    4.0220   -3.8153 H   0  0  0  0  0  0  0  0  0  0  0  0
    0.6774   -1.1132    2.2067 N   0  0  0  0  0  0  0  0  0  0  0  0
    1.4565   -2.3245    2.4944 C   0  0  2  0  0  0  0  0  0  0  0  0
    2.1394   -2.8960    1.2257 C   0  0  0  0  0  0  0  0  0  0  0  0
    1.7930   -2.5312    0.1026 O   0  0  0  0  0  0  0  0  0  0  0  0
    0.5006   -3.3555    3.0990 C   0  0  0  0  0  0  0  0  0  0  0  0
   -0.2139   -1.2584    1.7286 H   0  0  0  0  0  0  0  0  0  0  0  0
    2.2367   -2.0953    3.2288 H   0  0  0  0  0  0  0  0  0  0  0  0
   -0.2958   -3.6027    2.3892 H   0  0  0  0  0  0  0  0  0  0  0  0
    1.0368   -4.2753    3.3527 H   0  0  0  0  0  0  0  0  0  0  0  0
    0.0462   -2.9600    4.0126 H   0  0  0  0  0  0  0  0  0  0  0  0
    3.1544   -3.8267    1.3445 N   0  0  0  0  0  0  0  0  0  0  0  0
    3.8648   -4.3944    0.2044 C   0  0  0  0  0  0  0  0  0  0  0  0
    3.4655   -4.0656    2.2822 H   0  0  0  0  0  0  0  0  0  0  0  0
    3.1663   -4.9013   -0.4699 H   0  0  0  0  0  0  0  0  0  0  0  0
    4.3863   -3.6090   -0.3525 H   0  0  0  0  0  0  0  0  0  0  0  0
    4.6044   -5.1256    0.5451 H   0  0  0  0  0  0  0  0  0  0  0  0
  1  2  2  0  0  0  0
  1  3  1  0  0  0  0
  1  7  1  0  0  0  0
  3  4  1  0  0  0  0
  3  5  1  0  0  0  0
  3  6  1  0  0  0  0
  7  8  1  0  0  0  0
  7 12  1  0  0  0  0
  8  9  1  0  0  0  0
  8 11  1  0  0  0  0
  8 13  1  0  0  0  0
  9 10  2  0  0  0  0
  9 17  1  0  0  0  0
 11 14  1  0  0  0  0
 11 15  1  0  0  0  0
 11 16  1  0  0  0  0
 17 18  1  0  0  0  0
 17 27  1  0  0  0  0
 18 19  1  0  0  0  0
 18 21  1  0  0  0  0
 18 28  1  0  0  0  0
 19 20  2  0  0  0  0
 19 35  1  0  0  0  0
 21 22  1  0  0  0  0
 21 29  1  0  0  0  0
 21 30  1  0  0  0  0
 22 23  1  0  0  0  0
 22 24  2  0  0  0  0
 23 25  2  0  0  0  0
 23 31  1  0  0  0  0
 24 26  1  0  0  0  0
 24 32  1  0  0  0  0
 25 26  1  0  0  0  0
 25 33  1  0  0  0  0
 26 34  1  0  0  0  0
 35 36  1  0  0  0  0
 35 40  1  0  0  0  0
 36 37  1  0  0  0  0
 36 39  1  0  0  0  0
 36 41  1  0  0  0  0
 37 38  2  0  0  0  0
 37 45  1  0  0  0  0
 39 42  1  0  0  0  0
 39 43  1  0  0  0  0
 39 44  1  0  0  0  0
 45 46  1  0  0  0  0
 45 47  1  0  0  0  0
 46 48  1  0  0  0  0
 46 49  1  0  0  0  0
 46 50  1  0  0  0  0
M  CHG  1  23   1
M  END
$$$$

  -OEChem-05262216443D

 50 50  0     1  0  0  0  0  0999 V2000
   -2.6053   -0.4427    2.6636 C   0  0  0  0  0  0  0  0  0  0  0  0
   -2.3098   -0.6650    1.4954 O   0  0  0  0  0  0  0  0  0  0  0  0
   -2.7729   -1.5929    3.6369 C   0  0  0  0  0  0  0  0  0  0  0  0
   -2.7032   -2.5483    3.1100 H   0  0  0  0  0  0  0  0  0  0  0  0
   -1.9909   -1.5533    4.3994 H   0  0  0  0  0  0  0  0  0  0  0  0
   -3.7496   -1.5315    4.1234 H   0  0  0  0  0  0  0  0  0  0  0  0
   -2.6971    0.8591    3.1133 N   0  0  0  0  0  0  0  0  0  0  0  0
   -2.4373    2.0412    2.2791 C   0  0  2  0  0  0  0  0  0  0  0  0
   -0.9523    2.1304    1.8559 C   0  0  0  0  0  0  0  0  0  0  0  0
   -0.1187    2.6899    2.5522 O   0  0  0  0  0  0  0  0  0  0  0  0
   -2.8854    3.2755    3.0699 C   0  0  0  0  0  0  0  0  0  0  0  0
   -2.8116    0.9939    4.1154 H   0  0  0  0  0  0  0  0  0  0  0  0
   -3.0453    1.9852    1.3699 H   0  0  0  0  0  0  0  0  0  0  0  0
   -2.3270    3.3593    4.0083 H   0  0  0  0  0  0  0  0  0  0  0  0
   -2.7131    4.1845    2.4849 H   0  0  0  0  0  0  0  0  0  0  0  0
   -3.9527    3.2123    3.3041 H   0  0  0  0  0  0  0  0  0  0  0  0
   -0.5452    1.5057    0.6897 N   0  0  0  0  0  0  0  0  0  0  0  0
    0.6982    0.7117    0.6350 C   0  0  2  0  0  0  0  0  0  0  0  0
    1.1225    0.0086    1.9478 C   0  0  0  0  0  0  0  0  0  0  0  0
    2.1643    0.2970    2.5246 O   0  0  0  0  0  0  0  0  0  0  0  0
    1.8563    1.5687    0.0943 C   0  0  0  0  0  0  0  0  0  0  0  0
    1.5977    1.9833   -1.3257 C   0  0  0  0  0  0  0  0  0  0  0  0
    1.7128    1.1374   -2.4269 N   0  3  0  0  0  0  0  0  0  0  0  0
    1.2651    3.2313   -1.7800 C   0  0  0  0  0  0  0  0  0  0  0  0
    1.4597    1.8005   -3.5290 C   0  0  0  0  0  0  0  0  0  0  0  0
    1.1721    3.1162   -3.1627 N   0  0  0  0  0  0  0  0  0  0  0  0
   -1.3349    1.0377    0.2441 H   0  0  0  0  0  0  0  0  0  0  0  0
    0.5268   -0.0948   -0.0842 H   0  0  0  0  0  0  0  0  0  0  0  0
    2.7952    1.0044    0.1346 H   0  0  0  0  0  0  0  0  0  0  0  0
    1.9798    2.4491    0.7354 H   0  0  0  0  0  0  0  0  0  0  0  0
    1.9658    0.1468   -2.3392 H   0  0  0  0  0  0  0  0  0  0  0  0
    1.1134    4.1188   -1.1645 H   0  0  0  0  0  0  0  0  0  0  0  0
    1.4759    1.3969   -4.5429 H   0  0  0  0  0  0  0  0  0  0  0  0
    0.9438    3.8797   -3.8062 H   0  0  0  0  0  0  0  0  0  0  0  0
    0.6191   -1.2678    2.1150 N   0  0  0  0  0  0  0  0  0  0  0  0
    1.5509   -2.3881    2.3024 C   0  0  2  0  0  0  0  0  0  0  0  0
    2.4208   -2.6563    1.0451 C   0  0  0  0  0  0  0  0  0  0  0  0
    2.1449   -2.1484   -0.0433 O   0  0  0  0  0  0  0  0  0  0  0  0
    0.7167   -3.6226    2.6531 C   0  0  0  0  0  0  0  0  0  0  0  0
   -0.1962   -1.4596    1.5320 H   0  0  0  0  0  0  0  0  0  0  0  0
    2.2222   -2.1696    3.1406 H   0  0  0  0  0  0  0  0  0  0  0  0
    0.0493   -3.8843    1.8254 H   0  0  0  0  0  0  0  0  0  0  0  0
    1.3658   -4.4794    2.8587 H   0  0  0  0  0  0  0  0  0  0  0  0
    0.1098   -3.4300    3.5435 H   0  0  0  0  0  0  0  0  0  0  0  0
    3.5285   -3.4782    1.1351 N   0  0  0  0  0  0  0  0  0  0  0  0
    4.4135   -3.7700    0.0132 C   0  0  0  0  0  0  0  0  0  0  0  0
    3.7705   -3.8407    2.0538 H   0  0  0  0  0  0  0  0  0  0  0  0
    3.8516   -4.2176   -0.8136 H   0  0  0  0  0  0  0  0  0  0  0  0
    4.8973   -2.8544   -0.3426 H   0  0  0  0  0  0  0  0  0  0  0  0
    5.1926   -4.4751    0.3199 H   0  0  0  0  0  0  0  0  0  0  0  0
  1  2  2  0  0  0  0
  1  3  1  0  0  0  0
  1  7  1  0  0  0  0
  3  4  1  0  0  0  0
  3  5  1  0  0  0  0
  3  6  1  0  0  0  0
  7  8  1  0  0  0  0
  7 12  1  0  0  0  0
  8  9  1  0  0  0  0
  8 11  1  0  0  0  0
  8 13  1  0  0  0  0
  9 10  2  0  0  0  0
  9 17  1  0  0  0  0
 11 14  1  0  0  0  0
 11 15  1  0  0  0  0
 11 16  1  0  0  0  0
 17 18  1  0  0  0  0
 17 27  1  0  0  0  0
 18 19  1  0  0  0  0
 18 21  1  0  0  0  0
 18 28  1  0  0  0  0
 19 20  2  0  0  0  0
 19 35  1  0  0  0  0
 21 22  1  0  0  0  0
 21 29  1  0  0  0  0
 21 30  1  0  0  0  0
 22 23  1  0  0  0  0
 22 24  2  0  0  0  0
 23 25  2  0  0  0  0
 23 31  1  0  0  0  0
 24 26  1  0  0  0  0
 24 32  1  0  0  0  0
 25 26  1  0  0  0  0
 25 33  1  0  0  0  0
 26 34  1  0  0  0  0
 35 36  1  0  0  0  0
 35 40  1  0  0  0  0
 36 37  1  0  0  0  0
 36 39  1  0  0  0  0
 36 41  1  0  0  0  0
 37 38  2  0  0  0  0
 37 45  1  0  0  0  0
 39 42  1  0  0  0  0
 39 43  1  0  0  0  0
 39 44  1  0  0  0  0
 45 46  1  0  0  0  0
 45 47  1  0  0  0  0
 46 48  1  0  0  0  0
 46 49  1  0  0  0  0
 46 50  1  0  0  0  0
M  CHG  1  23   1
M  END
$$$$

  -OEChem-05262216443D

 50 50  0     1  0  0  0  0  0999 V2000
   -2.6693   -0.4574    2.5376 C   0  0  0  0  0  0  0  0  0  0  0  0
   -2.3769   -0.6361    1.3611 O   0  0  0  0  0  0  0  0  0  0  0  0
   -2.8153   -1.6420    3.4726 C   0  0  0  0  0  0  0  0  0  0  0  0
   -2.7798   -2.5773    2.9074 H   0  0  0  0  0  0  0  0  0  0  0  0
   -2.0031   -1.6407    4.2042 H   0  0  0  0  0  0  0  0  0  0  0  0
   -3.7711   -1.5877    3.9998 H   0  0  0  0  0  0  0  0  0  0  0  0
   -2.7751    0.8274    3.0315 N   0  0  0  0  0  0  0  0  0  0  0  0
   -2.5265    2.0398    2.2382 C   0  0  2  0  0  0  0  0  0  0  0  0
   -1.0341    2.1729    1.8564 C   0  0  0  0  0  0  0  0  0  0  0  0
   -0.2328    2.7481    2.5770 O   0  0  0  0  0  0  0  0  0  0  0  0
   -3.0242    3.2400    3.0512 C   0  0  0  0  0  0  0  0  0  0  0  0
   -2.8776    0.9263    4.0391 H   0  0  0  0  0  0  0  0  0  0  0  0
   -3.1107    1.9958    1.3128 H   0  0  0  0  0  0  0  0  0  0  0  0
   -2.4860    3.3149    4.0021 H   0  0  0  0  0  0  0  0  0  0  0  0
   -2.8672    4.1683    2.4928 H   0  0  0  0  0  0  0  0  0  0  0  0
   -4.0935    3.1406    3.2624 H   0  0  0  0  0  0  0  0  0  0  0  0
   -0.5763    1.5529    0.7079 N   0  0  0  0  0  0  0  0  0  0  0  0
    0.6204    0.6914    0.7467 C   0  0  2  0  0  0  0  0  0  0  0  0
    0.9243   -0.0721    2.0584 C   0  0  0  0  0  0  0  0  0  0  0  0
    1.8142    0.2879    2.8179 O   0  0  0  0  0  0  0  0  0  0  0  0
    1.8694    1.4804    0.3150 C   0  0  0  0  0  0  0  0  0  0  0  0
    1.7517    1.9113   -1.1155 C   0  0  0  0  0  0  0  0  0  0  0  0
    1.9136    1.0367   -2.1865 N   0  3  0  0  0  0  0  0  0  0  0  0
    1.5175    3.1645   -1.6127 C   0  0  0  0  0  0  0  0  0  0  0  0
    1.7845    1.6883   -3.3165 C   0  0  0  0  0  0  0  0  0  0  0  0
    1.5313    3.0239   -2.9966 N   0  0  0  0  0  0  0  0  0  0  0  0
   -1.3542    1.1132    0.2153 H   0  0  0  0  0  0  0  0  0  0  0  0
    0.4529   -0.0819   -0.0081 H   0  0  0  0  0  0  0  0  0  0  0  0
    2.7696    0.8670    0.4340 H   0  0  0  0  0  0  0  0  0  0  0  0
    1.9851    2.3531    0.9686 H   0  0  0  0  0  0  0  0  0  0  0  0
    2.1172    0.0377   -2.0543 H   0  0  0  0  0  0  0  0  0  0  0  0
    1.3564    4.0691   -1.0251 H   0  0  0  0  0  0  0  0  0  0  0  0
    1.8654    1.2638   -4.3184 H   0  0  0  0  0  0  0  0  0  0  0  0
    1.3911    3.7834   -3.6690 H   0  0  0  0  0  0  0  0  0  0  0  0
    0.6339   -1.4235    2.0101 N   0  0  0  0  0  0  0  0  0  0  0  0
    1.7295   -2.3973    2.1223 C   0  0  2  0  0  0  0  0  0  0  0  0
    2.6722   -2.3886    0.8876 C   0  0  0  0  0  0  0  0  0  0  0  0
    2.3642   -1.8085   -0.1574 O   0  0  0  0  0  0  0  0  0  0  0  0
    1.0941   -3.7781    2.3067 C   0  0  0  0  0  0  0  0  0  0  0  0
   -0.0827   -1.6523    1.3226 H   0  0  0  0  0  0  0  0  0  0  0  0
    2.3319   -2.1722    3.0097 H   0  0  0  0  0  0  0  0  0  0  0  0
    0.4886   -4.0438    1.4341 H   0  0  0  0  0  0  0  0  0  0  0  0
    1.8659   -4.5427    2.4387 H   0  0  0  0  0  0  0  0  0  0  0  0
    0.4509   -3.7839    3.1927 H   0  0  0  0  0  0  0  0  0  0  0  0
    3.8933   -3.0324    0.9523 N   0  0  0  0  0  0  0  0  0  0  0  0
    4.8537   -3.0667   -0.1447 C   0  0  0  0  0  0  0  0  0  0  0  0
    4.1513   -3.4605    1.8383 H   0  0  0  0  0  0  0  0  0  0  0  0
    4.3974   -3.4978   -1.0422 H   0  0  0  0  0  0  0  0  0  0  0  0
    5.2074   -2.0568   -0.3771 H   0  0  0  0  0  0  0  0  0  0  0  0
    5.7180   -3.6804    0.1285 H   0  0  0  0  0  0  0  0  0  0  0  0
  1  2  2  0  0  0  0
  1  3  1  0  0  0  0
  1  7  1  0  0  0  0
  3  4  1  0  0  0  0
  3  5  1  0  0  0  0
  3  6  1  0  0  0  0
  7  8  1  0  0  0  0
  7 12  1  0  0  0  0
  8  9  1  0  0  0  0
  8 11  1  0  0  0  0
  8 13  1  0  0  0  0
  9 10  2  0  0  0  0
  9 17  1  0  0  0  0
 11 14  1  0  0  0  0
 11 15  1  0  0  0  0
 11 16  1  0  0  0  0
 17 18  1  0  0  0  0
 17 27  1  0  0  0  0
 18 19  1  0  0  0  0
 18 21  1  0  0  0  0
 18 28  1  0  0  0  0
 19 20  2  0  0  0  0
 19 35  1  0  0  0  0
 21 22  1  0  0  0  0
 21 29  1  0  0  0  0
 21 30  1  0  0  0  0
 22 23  1  0  0  0  0
 22 24  2  0  0  0  0
 23 25  2  0  0  0  0
 23 31  1  0  0  0  0
 24 26  1  0  0  0  0
 24 32  1  0  0  0  0
 25 26  1  0  0  0  0
 25 33  1  0  0  0  0
 26 34  1  0  0  0  0
 35 36  1  0  0  0  0
 35 40  1  0  0  0  0
 36 37  1  0  0  0  0
 36 39  1  0  0  0  0
 36 41  1  0  0  0  0
 37 38  2  0  0  0  0
 37 45  1  0  0  0  0
 39 42  1  0  0  0  0
 39 43  1  0  0  0  0
 39 44  1  0  0  0  0
 45 46  1  0  0  0  0
 45 47  1  0  0  0  0
 46 48  1  0  0  0  0
 46 49  1  0  0  0  0
 46 50  1  0  0  0  0
M  CHG  1  23   1
M  END
$$$$

  -OEChem-05262216443D

 50 50  0     1  0  0  0  0  0999 V2000
   -2.8387   -0.4574    2.2012 C   0  0  0  0  0  0  0  0  0  0  0  0
   -2.5696   -0.4979    1.0075 O   0  0  0  0  0  0  0  0  0  0  0  0
   -3.0765   -1.7407    2.9727 C   0  0  0  0  0  0  0  0  0  0  0  0
   -3.1307   -2.5905    2.2864 H   0  0  0  0  0  0  0  0  0  0  0  0
   -2.2590   -1.9080    3.6787 H   0  0  0  0  0  0  0  0  0  0  0  0
   -4.0176   -1.6771    3.5249 H   0  0  0  0  0  0  0  0  0  0  0  0
   -2.8358    0.7547    2.8610 N   0  0  0  0  0  0  0  0  0  0  0  0
   -2.5448    2.0471    2.2227 C   0  0  2  0  0  0  0  0  0  0  0  0
   -1.0517    2.1747    1.8366 C   0  0  0  0  0  0  0  0  0  0  0  0
   -0.2579    2.8196    2.5051 O   0  0  0  0  0  0  0  0  0  0  0  0
   -2.9972    3.1490    3.1882 C   0  0  0  0  0  0  0  0  0  0  0  0
   -2.9525    0.7329    3.8718 H   0  0  0  0  0  0  0  0  0  0  0  0
   -3.1362    2.1421    1.3058 H   0  0  0  0  0  0  0  0  0  0  0  0
   -2.4431    3.0894    4.1310 H   0  0  0  0  0  0  0  0  0  0  0  0
   -2.8213    4.1356    2.7477 H   0  0  0  0  0  0  0  0  0  0  0  0
   -4.0658    3.0536    3.4044 H   0  0  0  0  0  0  0  0  0  0  0  0
   -0.5911    1.5473    0.6931 N   0  0  0  0  0  0  0  0  0  0  0  0
    0.5657    0.6332    0.7515 C   0  0  2  0  0  0  0  0  0  0  0  0
    0.8140   -0.1657    2.0531 C   0  0  0  0  0  0  0  0  0  0  0  0
    1.4925    0.2849    2.9648 O   0  0  0  0  0  0  0  0  0  0  0  0
    1.8511    1.4162    0.4180 C   0  0  0  0  0  0  0  0  0  0  0  0
    1.8184    1.9236   -0.9914 C   0  0  0  0  0  0  0  0  0  0  0  0
    2.0177    1.1100   -2.1033 N   0  3  0  0  0  0  0  0  0  0  0  0
    1.6202    3.2065   -1.4235 C   0  0  0  0  0  0  0  0  0  0  0  0
    1.9502    1.8293   -3.1972 C   0  0  0  0  0  0  0  0  0  0  0  0
    1.6977    3.1474   -2.8108 N   0  0  0  0  0  0  0  0  0  0  0  0
   -1.3806    1.1212    0.2031 H   0  0  0  0  0  0  0  0  0  0  0  0
    0.4134   -0.1087   -0.0379 H   0  0  0  0  0  0  0  0  0  0  0  0
    2.7363    0.7882    0.5573 H   0  0  0  0  0  0  0  0  0  0  0  0
    1.9490    2.2562    1.1158 H   0  0  0  0  0  0  0  0  0  0  0  0
    2.2159    0.1049   -2.0208 H   0  0  0  0  0  0  0  0  0  0  0  0
    1.4364    4.0752   -0.7897 H   0  0  0  0  0  0  0  0  0  0  0  0
    2.0742    1.4645   -4.2181 H   0  0  0  0  0  0  0  0  0  0  0  0
    1.5953    3.9467   -3.4426 H   0  0  0  0  0  0  0  0  0  0  0  0
    0.7865   -1.5399    1.8936 N   0  0  0  0  0  0  0  0  0  0  0  0
    2.0111   -2.3219    2.1125 C   0  0  2  0  0  0  0  0  0  0  0  0
    2.9908   -2.2042    0.9162 C   0  0  0  0  0  0  0  0  0  0  0  0
    2.6322   -1.7068   -0.1549 O   0  0  0  0  0  0  0  0  0  0  0  0
    1.5948   -3.7783    2.3297 C   0  0  0  0  0  0  0  0  0  0  0  0
    0.2465   -1.8327    1.0825 H   0  0  0  0  0  0  0  0  0  0  0  0
    2.5278   -1.9738    3.0141 H   0  0  0  0  0  0  0  0  0  0  0  0
    1.0906   -4.1722    1.4413 H   0  0  0  0  0  0  0  0  0  0  0  0
    2.4699   -4.4020    2.5373 H   0  0  0  0  0  0  0  0  0  0  0  0
    0.9107   -3.8526    3.1811 H   0  0  0  0  0  0  0  0  0  0  0  0
    4.2966   -2.6350    1.0486 N   0  0  0  0  0  0  0  0  0  0  0  0
    5.2913   -2.5525   -0.0145 C   0  0  0  0  0  0  0  0  0  0  0  0
    4.5781   -3.0113    1.9510 H   0  0  0  0  0  0  0  0  0  0  0  0
    4.9636   -3.1190   -0.8925 H   0  0  0  0  0  0  0  0  0  0  0  0
    5.4562   -1.5102   -0.3065 H   0  0  0  0  0  0  0  0  0  0  0  0
    6.2440   -2.9695    0.3271 H   0  0  0  0  0  0  0  0  0  0  0  0
  1  2  2  0  0  0  0
  1  3  1  0  0  0  0
  1  7  1  0  0  0  0
  3  4  1  0  0  0  0
  3  5  1  0  0  0  0
  3  6  1  0  0  0  0
  7  8  1  0  0  0  0
  7 12  1  0  0  0  0
  8  9  1  0  0  0  0
  8 11  1  0  0  0  0
  8 13  1  0  0  0  0
  9 10  2  0  0  0  0
  9 17  1  0  0  0  0
 11 14  1  0  0  0  0
 11 15  1  0  0  0  0
 11 16  1  0  0  0  0
 17 18  1  0  0  0  0
 17 27  1  0  0  0  0
 18 19  1  0  0  0  0
 18 21  1  0  0  0  0
 18 28  1  0  0  0  0
 19 20  2  0  0  0  0
 19 35  1  0  0  0  0
 21 22  1  0  0  0  0
 21 29  1  0  0  0  0
 21 30  1  0  0  0  0
 22 23  1  0  0  0  0
 22 24  2  0  0  0  0
 23 25  2  0  0  0  0
 23 31  1  0  0  0  0
 24 26  1  0  0  0  0
 24 32  1  0  0  0  0
 25 26  1  0  0  0  0
 25 33  1  0  0  0  0
 26 34  1  0  0  0  0
 35 36  1  0  0  0  0
 35 40  1  0  0  0  0
 36 37  1  0  0  0  0
 36 39  1  0  0  0  0
 36 41  1  0  0  0  0
 37 38  2  0  0  0  0
 37 45  1  0  0  0  0
 39 42  1  0  0  0  0
 39 43  1  0  0  0  0
 39 44  1  0  0  0  0
 45 46  1  0  0  0  0
 45 47  1  0  0  0  0
 46 48  1  0  0  0  0
 46 49  1  0  0  0  0
 46 50  1  0  0  0  0
M  CHG  1  23   1
M  END
$$$$

  -OEChem-05262216443D

 50 50  0     1  0  0  0  0  0999 V2000
   -2.6528   -0.5338    2.1047 C   0  0  0  0  0  0  0  0  0  0  0  0
   -2.6816   -0.4384    0.8845 O   0  0  0  0  0  0  0  0  0  0  0  0
   -2.6235   -1.8976    2.7662 C   0  0  0  0  0  0  0  0  0  0  0  0
   -2.7091   -2.6856    2.0130 H   0  0  0  0  0  0  0  0  0  0  0  0
   -1.6842   -2.0286    3.3099 H   0  0  0  0  0  0  0  0  0  0  0  0
   -3.4572   -1.9899    3.4666 H   0  0  0  0  0  0  0  0  0  0  0  0
   -2.5324    0.6058    2.8723 N   0  0  0  0  0  0  0  0  0  0  0  0
   -2.4216    1.9638    2.3208 C   0  0  2  0  0  0  0  0  0  0  0  0
   -1.0345    2.2132    1.6809 C   0  0  0  0  0  0  0  0  0  0  0  0
   -0.2393    3.0306    2.1256 O   0  0  0  0  0  0  0  0  0  0  0  0
   -2.7340    2.9447    3.4570 C   0  0  0  0  0  0  0  0  0  0  0  0
   -2.3438    0.4752    3.8638 H   0  0  0  0  0  0  0  0  0  0  0  0
   -3.1771    2.1045    1.5404 H   0  0  0  0  0  0  0  0  0  0  0  0
   -2.0009    2.8461    4.2645 H   0  0  0  0  0  0  0  0  0  0  0  0
   -2.7044    3.9750    3.0883 H   0  0  0  0  0  0  0  0  0  0  0  0
   -3.7316    2.7535    3.8642 H   0  0  0  0  0  0  0  0  0  0  0  0
   -0.7064    1.6162    0.4766 N   0  0  0  0  0  0  0  0  0  0  0  0
    0.4130    0.6543    0.3757 C   0  0  2  0  0  0  0  0  0  0  0  0
    0.7319   -0.2065    1.6254 C   0  0  0  0  0  0  0  0  0  0  0  0
    1.0186    0.2757    2.7107 O   0  0  0  0  0  0  0  0  0  0  0  0
    1.6982    1.4595    0.0896 C   0  0  0  0  0  0  0  0  0  0  0  0
    1.6413    2.1645   -1.2372 C   0  0  0  0  0  0  0  0  0  0  0  0
    1.7807    1.5936   -2.5009 N   0  3  0  0  0  0  0  0  0  0  0  0
    1.4243    3.5067   -1.4019 C   0  0  0  0  0  0  0  0  0  0  0  0
    1.6731    2.5191   -3.4244 C   0  0  0  0  0  0  0  0  0  0  0  0
    1.4417    3.7306   -2.7727 N   0  0  0  0  0  0  0  0  0  0  0  0
   -1.5575    1.2032    0.0875 H   0  0  0  0  0  0  0  0  0  0  0  0
    0.2084   -0.0254   -0.4564 H   0  0  0  0  0  0  0  0  0  0  0  0
    2.5686    0.7952    0.0983 H   0  0  0  0  0  0  0  0  0  0  0  0
    1.8563    2.1904    0.8913 H   0  0  0  0  0  0  0  0  0  0  0  0
    1.9899    0.6013   -2.6421 H   0  0  0  0  0  0  0  0  0  0  0  0
    1.2569    4.2277   -0.5991 H   0  0  0  0  0  0  0  0  0  0  0  0
    1.7562    2.3703   -4.5024 H   0  0  0  0  0  0  0  0  0  0  0  0
    1.3088    4.6399   -3.2247 H   0  0  0  0  0  0  0  0  0  0  0  0
    0.9578   -1.5550    1.4215 N   0  0  0  0  0  0  0  0  0  0  0  0
    2.0633   -2.2517    2.0945 C   0  0  2  0  0  0  0  0  0  0  0  0
    3.3485   -2.1754    1.2376 C   0  0  0  0  0  0  0  0  0  0  0  0
    3.2909   -1.7502    0.0840 O   0  0  0  0  0  0  0  0  0  0  0  0
    1.6340   -3.7042    2.3159 C   0  0  0  0  0  0  0  0  0  0  0  0
    0.7972   -1.8583    0.4641 H   0  0  0  0  0  0  0  0  0  0  0  0
    2.2768   -1.8008    3.0700 H   0  0  0  0  0  0  0  0  0  0  0  0
    1.4263   -4.1957    1.3597 H   0  0  0  0  0  0  0  0  0  0  0  0
    2.4214   -4.2644    2.8294 H   0  0  0  0  0  0  0  0  0  0  0  0
    0.7292   -3.7412    2.9308 H   0  0  0  0  0  0  0  0  0  0  0  0
    4.5670   -2.5717    1.7542 N   0  0  0  0  0  0  0  0  0  0  0  0
    5.8131   -2.5332    0.9969 C   0  0  0  0  0  0  0  0  0  0  0  0
    4.5912   -2.8919    2.7190 H   0  0  0  0  0  0  0  0  0  0  0  0
    5.7303   -3.1409    0.0895 H   0  0  0  0  0  0  0  0  0  0  0  0
    6.0579   -1.5047    0.7115 H   0  0  0  0  0  0  0  0  0  0  0  0
    6.6358   -2.9290    1.6009 H   0  0  0  0  0  0  0  0  0  0  0  0
  1  2  2  0  0  0  0
  1  3  1  0  0  0  0
  1  7  1  0  0  0  0
  3  4  1  0  0  0  0
  3  5  1  0  0  0  0
  3  6  1  0  0  0  0
  7  8  1  0  0  0  0
  7 12  1  0  0  0  0
  8  9  1  0  0  0  0
  8 11  1  0  0  0  0
  8 13  1  0  0  0  0
  9 10  2  0  0  0  0
  9 17  1  0  0  0  0
 11 14  1  0  0  0  0
 11 15  1  0  0  0  0
 11 16  1  0  0  0  0
 17 18  1  0  0  0  0
 17 27  1  0  0  0  0
 18 19  1  0  0  0  0
 18 21  1  0  0  0  0
 18 28  1  0  0  0  0
 19 20  2  0  0  0  0
 19 35  1  0  0  0  0
 21 22  1  0  0  0  0
 21 29  1  0  0  0  0
 21 30  1  0  0  0  0
 22 23  1  0  0  0  0
 22 24  2  0  0  0  0
 23 25  2  0  0  0  0
 23 31  1  0  0  0  0
 24 26  1  0  0  0  0
 24 32  1  0  0  0  0
 25 26  1  0  0  0  0
 25 33  1  0  0  0  0
 26 34  1  0  0  0  0
 35 36  1  0  0  0  0
 35 40  1  0  0  0  0
 36 37  1  0  0  0  0
 36 39  1  0  0  0  0
 36 41  1  0  0  0  0
 37 38  2  0  0  0  0
 37 45  1  0  0  0  0
 39 42  1  0  0  0  0
 39 43  1  0  0  0  0
 39 44  1  0  0  0  0
 45 46  1  0  0  0  0
 45 47  1  0  0  0  0
 46 48  1  0  0  0  0
 46 49  1  0  0  0  0
 46 50  1  0  0  0  0
M  CHG  1  23   1
M  END
$$$$

  -OEChem-05262216443D

 50 50  0     1  0  0  0  0  0999 V2000
   -2.7881   -0.4426    1.9365 C   0  0  0  0  0  0  0  0  0  0  0  0
   -2.9169   -0.1757    0.7484 O   0  0  0  0  0  0  0  0  0  0  0  0
   -2.7865   -1.8864    2.3990 C   0  0  0  0  0  0  0  0  0  0  0  0
   -3.0403   -2.5505    1.5681 H   0  0  0  0  0  0  0  0  0  0  0  0
   -1.7969   -2.1544    2.7778 H   0  0  0  0  0  0  0  0  0  0  0  0
   -3.5227   -2.0242    3.1948 H   0  0  0  0  0  0  0  0  0  0  0  0
   -2.5231    0.5688    2.8359 N   0  0  0  0  0  0  0  0  0  0  0  0
   -2.3416    1.9777    2.4580 C   0  0  2  0  0  0  0  0  0  0  0  0
   -0.9811    2.2135    1.7595 C   0  0  0  0  0  0  0  0  0  0  0  0
   -0.1453    3.0040    2.1807 O   0  0  0  0  0  0  0  0  0  0  0  0
   -2.5036    2.8141    3.7325 C   0  0  0  0  0  0  0  0  0  0  0  0
   -2.2042    0.2818    3.7590 H   0  0  0  0  0  0  0  0  0  0  0  0
   -3.1300    2.2745    1.7579 H   0  0  0  0  0  0  0  0  0  0  0  0
   -1.7274    2.5587    4.4614 H   0  0  0  0  0  0  0  0  0  0  0  0
   -2.4214    3.8806    3.5003 H   0  0  0  0  0  0  0  0  0  0  0  0
   -3.4835    2.6348    4.1857 H   0  0  0  0  0  0  0  0  0  0  0  0
   -0.7159    1.6297    0.5335 N   0  0  0  0  0  0  0  0  0  0  0  0
    0.3971    0.6713    0.3412 C   0  0  2  0  0  0  0  0  0  0  0  0
    0.8177   -0.2267    1.5375 C   0  0  0  0  0  0  0  0  0  0  0  0
    0.7184    0.0988    2.7111 O   0  0  0  0  0  0  0  0  0  0  0  0
    1.6538    1.5000   -0.0021 C   0  0  0  0  0  0  0  0  0  0  0  0
    1.5039    2.2403   -1.3044 C   0  0  0  0  0  0  0  0  0  0  0  0
    1.5648    1.7253   -2.5992 N   0  3  0  0  0  0  0  0  0  0  0  0
    1.2475    3.5828   -1.3993 C   0  0  0  0  0  0  0  0  0  0  0  0
    1.3702    2.6842   -3.4731 C   0  0  0  0  0  0  0  0  0  0  0  0
    1.1627    3.8626   -2.7569 N   0  0  0  0  0  0  0  0  0  0  0  0
   -1.5919    1.2340    0.1790 H   0  0  0  0  0  0  0  0  0  0  0  0
    0.1385    0.0105   -0.4913 H   0  0  0  0  0  0  0  0  0  0  0  0
    2.5313    0.8475   -0.0715 H   0  0  0  0  0  0  0  0  0  0  0  0
    1.8564    2.2088    0.8092 H   0  0  0  0  0  0  0  0  0  0  0  0
    1.7743    0.7443   -2.8004 H   0  0  0  0  0  0  0  0  0  0  0  0
    1.1162    4.2669   -0.5583 H   0  0  0  0  0  0  0  0  0  0  0  0
    1.3739    2.5810   -4.5597 H   0  0  0  0  0  0  0  0  0  0  0  0
    0.9737    4.7851   -3.1598 H   0  0  0  0  0  0  0  0  0  0  0  0
    1.3431   -1.4712    1.2466 N   0  0  0  0  0  0  0  0  0  0  0  0
    2.3534   -2.1101    2.1026 C   0  0  2  0  0  0  0  0  0  0  0  0
    3.7497   -1.9724    1.4551 C   0  0  0  0  0  0  0  0  0  0  0  0
    3.8442   -1.5275    0.3122 O   0  0  0  0  0  0  0  0  0  0  0  0
    1.9633   -3.5796    2.2773 C   0  0  0  0  0  0  0  0  0  0  0  0
    1.4817   -1.6449    0.2536 H   0  0  0  0  0  0  0  0  0  0  0  0
    2.3948   -1.6398    3.0913 H   0  0  0  0  0  0  0  0  0  0  0  0
    1.9406   -4.0905    1.3092 H   0  0  0  0  0  0  0  0  0  0  0  0
    2.6801   -4.0939    2.9249 H   0  0  0  0  0  0  0  0  0  0  0  0
    0.9719   -3.6550    2.7351 H   0  0  0  0  0  0  0  0  0  0  0  0
    4.8926   -2.3271    2.1453 N   0  0  0  0  0  0  0  0  0  0  0  0
    6.2353   -2.2163    1.5858 C   0  0  0  0  0  0  0  0  0  0  0  0
    4.7858   -2.6704    3.0964 H   0  0  0  0  0  0  0  0  0  0  0  0
    6.3242   -2.8225    0.6780 H   0  0  0  0  0  0  0  0  0  0  0  0
    6.4635   -1.1743    1.3375 H   0  0  0  0  0  0  0  0  0  0  0  0
    6.9775   -2.5690    2.3088 H   0  0  0  0  0  0  0  0  0  0  0  0
  1  2  2  0  0  0  0
  1  3  1  0  0  0  0
  1  7  1  0  0  0  0
  3  4  1  0  0  0  0
  3  5  1  0  0  0  0
  3  6  1  0  0  0  0
  7  8  1  0  0  0  0
  7 12  1  0  0  0  0
  8  9  1  0  0  0  0
  8 11  1  0  0  0  0
  8 13  1  0  0  0  0
  9 10  2  0  0  0  0
  9 17  1  0  0  0  0
 11 14  1  0  0  0  0
 11 15  1  0  0  0  0
 11 16  1  0  0  0  0
 17 18  1  0  0  0  0
 17 27  1  0  0  0  0
 18 19  1  0  0  0  0
 18 21  1  0  0  0  0
 18 28  1  0  0  0  0
 19 20  2  0  0  0  0
 19 35  1  0  0  0  0
 21 22  1  0  0  0  0
 21 29  1  0  0  0  0
 21 30  1  0  0  0  0
 22 23  1  0  0  0  0
 22 24  2  0  0  0  0
 23 25  2  0  0  0  0
 23 31  1  0  0  0  0
 24 26  1  0  0  0  0
 24 32  1  0  0  0  0
 25 26  1  0  0  0  0
 25 33  1  0  0  0  0
 26 34  1  0  0  0  0
 35 36  1  0  0  0  0
 35 40  1  0  0  0  0
 36 37  1  0  0  0  0
 36 39  1  0  0  0  0
 36 41  1  0  0  0  0
 37 38  2  0  0  0  0
 37 45  1  0  0  0  0
 39 42  1  0  0  0  0
 39 43  1  0  0  0  0
 39 44  1  0  0  0  0
 45 46  1  0  0  0  0
 45 47  1  0  0  0  0
 46 48  1  0  0  0  0
 46 49  1  0  0  0  0
 46 50  1  0  0  0  0
M  CHG  1  23   1
M  END
$$$$

  -OEChem-05262216443D

 50 50  0     1  0  0  0  0  0999 V2000
   -2.9160   -0.1429    2.1821 C   0  0  0  0  0  0  0  0  0  0  0  0
   -3.1266    0.2285    1.0340 O   0  0  0  0  0  0  0  0  0  0  0  0
   -3.0547   -1.6065    2.5502 C   0  0  0  0  0  0  0  0  0  0  0  0
   -3.5094   -2.1624    1.7258 H   0  0  0  0  0  0  0  0  0  0  0  0
   -2.0701   -2.0304    2.7644 H   0  0  0  0  0  0  0  0  0  0  0  0
   -3.6881   -1.7107    3.4345 H   0  0  0  0  0  0  0  0  0  0  0  0
   -2.4387    0.7564    3.1124 N   0  0  0  0  0  0  0  0  0  0  0  0
   -2.0723    2.1436    2.7930 C   0  0  2  0  0  0  0  0  0  0  0  0
   -0.7486    2.2101    1.9948 C   0  0  0  0  0  0  0  0  0  0  0  0
    0.2398    2.8143    2.3944 O   0  0  0  0  0  0  0  0  0  0  0  0
   -2.0047    2.9134    4.1169 C   0  0  0  0  0  0  0  0  0  0  0  0
   -2.0455    0.3516    3.9597 H   0  0  0  0  0  0  0  0  0  0  0  0
   -2.8555    2.5988    2.1776 H   0  0  0  0  0  0  0  0  0  0  0  0
   -1.2270    2.4969    4.7657 H   0  0  0  0  0  0  0  0  0  0  0  0
   -1.7725    3.9671    3.9327 H   0  0  0  0  0  0  0  0  0  0  0  0
   -2.9643    2.8580    4.6400 H   0  0  0  0  0  0  0  0  0  0  0  0
   -0.6694    1.6399    0.7359 N   0  0  0  0  0  0  0  0  0  0  0  0
    0.3788    0.6562    0.3770 C   0  0  2  0  0  0  0  0  0  0  0  0
    0.9319   -0.2724    1.4974 C   0  0  0  0  0  0  0  0  0  0  0  0
    0.5666   -0.2272    2.6645 O   0  0  0  0  0  0  0  0  0  0  0  0
    1.5845    1.4576   -0.1636 C   0  0  0  0  0  0  0  0  0  0  0  0
    1.2402    2.1968   -1.4312 C   0  0  0  0  0  0  0  0  0  0  0  0
    1.0807    1.6800   -2.7178 N   0  3  0  0  0  0  0  0  0  0  0  0
    1.0173    3.5475   -1.4949 C   0  0  0  0  0  0  0  0  0  0  0  0
    0.7759    2.6429   -3.5550 C   0  0  0  0  0  0  0  0  0  0  0  0
    0.7254    3.8284   -2.8232 N   0  0  0  0  0  0  0  0  0  0  0  0
   -1.6037    1.3145    0.4667 H   0  0  0  0  0  0  0  0  0  0  0  0
   -0.0211    0.0046   -0.4056 H   0  0  0  0  0  0  0  0  0  0  0  0
    2.4305    0.7916   -0.3670 H   0  0  0  0  0  0  0  0  0  0  0  0
    1.9245    2.1655    0.6008 H   0  0  0  0  0  0  0  0  0  0  0  0
    1.2085    0.6907   -2.9437 H   0  0  0  0  0  0  0  0  0  0  0  0
    1.0499    4.2400   -0.6515 H   0  0  0  0  0  0  0  0  0  0  0  0
    0.5966    2.5377   -4.6267 H   0  0  0  0  0  0  0  0  0  0  0  0
    0.5043    4.7560   -3.1975 H   0  0  0  0  0  0  0  0  0  0  0  0
    1.6625   -1.3790    1.1101 N   0  0  0  0  0  0  0  0  0  0  0  0
    2.6180   -2.0428    2.0078 C   0  0  2  0  0  0  0  0  0  0  0  0
    4.0542   -1.8174    1.4852 C   0  0  0  0  0  0  0  0  0  0  0  0
    4.2154   -1.3020    0.3802 O   0  0  0  0  0  0  0  0  0  0  0  0
    2.2674   -3.5318    2.0566 C   0  0  0  0  0  0  0  0  0  0  0  0
    1.9663   -1.3675    0.1388 H   0  0  0  0  0  0  0  0  0  0  0  0
    2.5641   -1.6315    3.0219 H   0  0  0  0  0  0  0  0  0  0  0  0
    2.3398   -3.9777    1.0593 H   0  0  0  0  0  0  0  0  0  0  0  0
    2.9474   -4.0666    2.7271 H   0  0  0  0  0  0  0  0  0  0  0  0
    1.2452   -3.6657    2.4251 H   0  0  0  0  0  0  0  0  0  0  0  0
    5.1547   -2.1644    2.2451 N   0  0  0  0  0  0  0  0  0  0  0  0
    6.5304   -1.9564    1.8060 C   0  0  0  0  0  0  0  0  0  0  0  0
    4.9899   -2.5644    3.1652 H   0  0  0  0  0  0  0  0  0  0  0  0
    6.7171   -2.4821    0.8634 H   0  0  0  0  0  0  0  0  0  0  0  0
    6.7297   -0.8895    1.6601 H   0  0  0  0  0  0  0  0  0  0  0  0
    7.2298   -2.3380    2.5565 H   0  0  0  0  0  0  0  0  0  0  0  0
  1  2  2  0  0  0  0
  1  3  1  0  0  0  0
  1  7  1  0  0  0  0
  3  4  1  0  0  0  0
  3  5  1  0  0  0  0
  3  6  1  0  0  0  0
  7  8  1  0  0  0  0
  7 12  1  0  0  0  0
  8  9  1  0  0  0  0
  8 11  1  0  0  0  0
  8 13  1  0  0  0  0
  9 10  2  0  0  0  0
  9 17  1  0  0  0  0
 11 14  1  0  0  0  0
 11 15  1  0  0  0  0
 11 16  1  0  0  0  0
 17 18  1  0  0  0  0
 17 27  1  0  0  0  0
 18 19  1  0  0  0  0
 18 21  1  0  0  0  0
 18 28  1  0  0  0  0
 19 20  2  0  0  0  0
 19 35  1  0  0  0  0
 21 22  1  0  0  0  0
 21 29  1  0  0  0  0
 21 30  1  0  0  0  0
 22 23  1  0  0  0  0
 22 24  2  0  0  0  0
 23 25  2  0  0  0  0
 23 31  1  0  0  0  0
 24 26  1  0  0  0  0
 24 32  1  0  0  0  0
 25 26  1  0  0  0  0
 25 33  1  0  0  0  0
 26 34  1  0  0  0  0
 35 36  1  0  0  0  0
 35 40  1  0  0  0  0
 36 37  1  0  0  0  0
 36 39  1  0  0  0  0
 36 41  1  0  0  0  0
 37 38  2  0  0  0  0
 37 45  1  0  0  0  0
 39 42  1  0  0  0  0
 39 43  1  0  0  0  0
 39 44  1  0  0  0  0
 45 46  1  0  0  0  0
 45 47  1  0  0  0  0
 46 48  1  0  0  0  0
 46 49  1  0  0  0  0
 46 50  1  0  0  0  0
M  CHG  1  23   1
M  END
$$$$

  -OEChem-05262216443D

 50 50  0     1  0  0  0  0  0999 V2000
   -3.6122    0.2256    4.0913 C   0  0  0  0  0  0  0  0  0  0  0  0
   -4.6272    0.2620    3.4143 O   0  0  0  0  0  0  0  0  0  0  0  0
   -3.6358   -0.4069    5.4695 C   0  0  0  0  0  0  0  0  0  0  0  0
   -4.6505   -0.7322    5.7159 H   0  0  0  0  0  0  0  0  0  0  0  0
   -2.9720   -1.2745    5.4933 H   0  0  0  0  0  0  0  0  0  0  0  0
   -3.3075    0.3163    6.2198 H   0  0  0  0  0  0  0  0  0  0  0  0
   -2.4420    0.7598    3.5929 N   0  0  0  0  0  0  0  0  0  0  0  0
   -2.2903    1.2564    2.2198 C   0  0  2  0  0  0  0  0  0  0  0  0
   -0.8363    1.1358    1.7214 C   0  0  0  0  0  0  0  0  0  0  0  0
    0.0924    1.1591    2.5220 O   0  0  0  0  0  0  0  0  0  0  0  0
   -2.7521    2.7165    2.1765 C   0  0  0  0  0  0  0  0  0  0  0  0
   -1.5922    0.6213    4.1382 H   0  0  0  0  0  0  0  0  0  0  0  0
   -2.9148    0.6572    1.5479 H   0  0  0  0  0  0  0  0  0  0  0  0
   -2.1458    3.3285    2.8518 H   0  0  0  0  0  0  0  0  0  0  0  0
   -2.6648    3.1189    1.1632 H   0  0  0  0  0  0  0  0  0  0  0  0
   -3.7997    2.7915    2.4858 H   0  0  0  0  0  0  0  0  0  0  0  0
   -0.5612    1.1139    0.3591 N   0  0  0  0  0  0  0  0  0  0  0  0
    0.6025    0.4077   -0.2336 C   0  0  2  0  0  0  0  0  0  0  0  0
    0.8330   -1.0282    0.3174 C   0  0  0  0  0  0  0  0  0  0  0  0
    0.0104   -1.5769    1.0374 O   0  0  0  0  0  0  0  0  0  0  0  0
    1.8881    1.2404    0.0063 C   0  0  0  0  0  0  0  0  0  0  0  0
    1.8316    2.5723   -0.6972 C   0  0  0  0  0  0  0  0  0  0  0  0
    1.9833    2.8405   -2.0590 N   0  3  0  0  0  0  0  0  0  0  0  0
    1.6395    3.7694   -0.0576 C   0  0  0  0  0  0  0  0  0  0  0  0
    1.8937    4.1313   -2.2768 C   0  0  0  0  0  0  0  0  0  0  0  0
    1.6724    4.7454   -1.0452 N   0  0  0  0  0  0  0  0  0  0  0  0
   -1.4115    1.0744   -0.1987 H   0  0  0  0  0  0  0  0  0  0  0  0
    0.4345    0.3056   -1.3094 H   0  0  0  0  0  0  0  0  0  0  0  0
    2.7680    0.7017   -0.3588 H   0  0  0  0  0  0  0  0  0  0  0  0
    2.0517    1.3881    1.0785 H   0  0  0  0  0  0  0  0  0  0  0  0
    2.1691    2.1153   -2.7561 H   0  0  0  0  0  0  0  0  0  0  0  0
    1.4911    3.9036    1.0156 H   0  0  0  0  0  0  0  0  0  0  0  0
    1.9827    4.6343   -3.2419 H   0  0  0  0  0  0  0  0  0  0  0  0
    1.5669    5.7523   -0.8872 H   0  0  0  0  0  0  0  0  0  0  0  0
    1.8889   -1.7835   -0.1592 N   0  0  0  0  0  0  0  0  0  0  0  0
    2.4756   -2.8728    0.6343 C   0  0  2  0  0  0  0  0  0  0  0  0
    3.7910   -2.3892    1.2818 C   0  0  0  0  0  0  0  0  0  0  0  0
    4.3224   -1.3616    0.8649 O   0  0  0  0  0  0  0  0  0  0  0  0
    2.7230   -4.0611   -0.2974 C   0  0  0  0  0  0  0  0  0  0  0  0
    2.5756   -1.2618   -0.6970 H   0  0  0  0  0  0  0  0  0  0  0  0
    1.8001   -3.1916    1.4359 H   0  0  0  0  0  0  0  0  0  0  0  0
    3.4181   -3.7862   -1.0972 H   0  0  0  0  0  0  0  0  0  0  0  0
    3.1480   -4.9026    0.2583 H   0  0  0  0  0  0  0  0  0  0  0  0
    1.7814   -4.3883   -0.7497 H   0  0  0  0  0  0  0  0  0  0  0  0
    4.3671   -3.0843    2.3271 N   0  0  0  0  0  0  0  0  0  0  0  0
    5.5819   -2.6477    3.0063 C   0  0  0  0  0  0  0  0  0  0  0  0
    3.8805   -3.9064    2.6747 H   0  0  0  0  0  0  0  0  0  0  0  0
    6.4120   -2.5673    2.2962 H   0  0  0  0  0  0  0  0  0  0  0  0
    5.4274   -1.6721    3.4797 H   0  0  0  0  0  0  0  0  0  0  0  0
    5.8622   -3.3673    3.7820 H   0  0  0  0  0  0  0  0  0  0  0  0
  1  2  2  0  0  0  0
  1  3  1  0  0  0  0
  1  7  1  0  0  0  0
  3  4  1  0  0  0  0
  3  5  1  0  0  0  0
  3  6  1  0  0  0  0
  7  8  1  0  0  0  0
  7 12  1  0  0  0  0
  8  9  1  0  0  0  0
  8 11  1  0  0  0  0
  8 13  1  0  0  0  0
  9 10  2  0  0  0  0
  9 17  1  0  0  0  0
 11 14  1  0  0  0  0
 11 15  1  0  0  0  0
 11 16  1  0  0  0  0
 17 18  1  0  0  0  0
 17 27  1  0  0  0  0
 18 19  1  0  0  0  0
 18 21  1  0  0  0  0
 18 28  1  0  0  0  0
 19 20  2  0  0  0  0
 19 35  1  0  0  0  0
 21 22  1  0  0  0  0
 21 29  1  0  0  0  0
 21 30  1  0  0  0  0
 22 23  1  0  0  0  0
 22 24  2  0  0  0  0
 23 25  2  0  0  0  0
 23 31  1  0  0  0  0
 24 26  1  0  0  0  0
 24 32  1  0  0  0  0
 25 26  1  0  0  0  0
 25 33  1  0  0  0  0
 26 34  1  0  0  0  0
 35 36  1  0  0  0  0
 35 40  1  0  0  0  0
 36 37  1  0  0  0  0
 36 39  1  0  0  0  0
 36 41  1  0  0  0  0
 37 38  2  0  0  0  0
 37 45  1  0  0  0  0
 39 42  1  0  0  0  0
 39 43  1  0  0  0  0
 39 44  1  0  0  0  0
 45 46  1  0  0  0  0
 45 47  1  0  0  0  0
 46 48  1  0  0  0  0
 46 49  1  0  0  0  0
 46 50  1  0  0  0  0
M  CHG  1  23   1
M  END
$$$$

  -OEChem-05262216443D

 50 50  0     1  0  0  0  0  0999 V2000
   -3.7825    0.1018    3.8608 C   0  0  0  0  0  0  0  0  0  0  0  0
   -4.7541    0.1326    3.1229 O   0  0  0  0  0  0  0  0  0  0  0  0
   -3.8771   -0.5603    5.2216 C   0  0  0  0  0  0  0  0  0  0  0  0
   -4.9001   -0.9016    5.4027 H   0  0  0  0  0  0  0  0  0  0  0  0
   -3.2059   -1.4213    5.2661 H   0  0  0  0  0  0  0  0  0  0  0  0
   -3.6008    0.1509    6.0035 H   0  0  0  0  0  0  0  0  0  0  0  0
   -2.5967    0.6741    3.4490 N   0  0  0  0  0  0  0  0  0  0  0  0
   -2.3741    1.2143    2.1022 C   0  0  2  0  0  0  0  0  0  0  0  0
   -0.8943    1.1183    1.6796 C   0  0  0  0  0  0  0  0  0  0  0  0
   -0.0089    1.1328    2.5283 O   0  0  0  0  0  0  0  0  0  0  0  0
   -2.8424    2.6727    2.0827 C   0  0  0  0  0  0  0  0  0  0  0  0
   -1.7807    0.5481    4.0463 H   0  0  0  0  0  0  0  0  0  0  0  0
   -2.9586    0.6358    1.3780 H   0  0  0  0  0  0  0  0  0  0  0  0
   -2.2729    3.2668    2.8045 H   0  0  0  0  0  0  0  0  0  0  0  0
   -2.7101    3.1071    1.0875 H   0  0  0  0  0  0  0  0  0  0  0  0
   -3.9038    2.7322    2.3452 H   0  0  0  0  0  0  0  0  0  0  0  0
   -0.5470    1.1159    0.3341 N   0  0  0  0  0  0  0  0  0  0  0  0
    0.7045    0.5087   -0.1810 C   0  0  2  0  0  0  0  0  0  0  0  0
    0.9955   -0.8962    0.4196 C   0  0  0  0  0  0  0  0  0  0  0  0
    0.0780   -1.5877    0.8408 O   0  0  0  0  0  0  0  0  0  0  0  0
    1.8894    1.4712    0.0882 C   0  0  0  0  0  0  0  0  0  0  0  0
    1.7314    2.7672   -0.6660 C   0  0  0  0  0  0  0  0  0  0  0  0
    1.9210    2.9958   -2.0305 N   0  3  0  0  0  0  0  0  0  0  0  0
    1.3971    3.9645   -0.0875 C   0  0  0  0  0  0  0  0  0  0  0  0
    1.7166    4.2615   -2.3083 C   0  0  0  0  0  0  0  0  0  0  0  0
    1.3821    4.8991   -1.1149 N   0  0  0  0  0  0  0  0  0  0  0  0
   -1.3569    1.0202   -0.2749 H   0  0  0  0  0  0  0  0  0  0  0  0
    0.6045    0.3625   -1.2602 H   0  0  0  0  0  0  0  0  0  0  0  0
    2.8342    1.0159   -0.2229 H   0  0  0  0  0  0  0  0  0  0  0  0
    1.9810    1.6683    1.1615 H   0  0  0  0  0  0  0  0  0  0  0  0
    2.2000    2.2637   -2.6889 H   0  0  0  0  0  0  0  0  0  0  0  0
    1.1879    4.1287    0.9711 H   0  0  0  0  0  0  0  0  0  0  0  0
    1.7984    4.7313   -3.2905 H   0  0  0  0  0  0  0  0  0  0  0  0
    1.1738    5.8964   -1.0059 H   0  0  0  0  0  0  0  0  0  0  0  0
    2.2452   -1.4742    0.3020 N   0  0  0  0  0  0  0  0  0  0  0  0
    2.6847   -2.6121    1.1198 C   0  0  2  0  0  0  0  0  0  0  0  0
    4.0427   -2.2774    1.7728 C   0  0  0  0  0  0  0  0  0  0  0  0
    4.6407   -1.2618    1.4233 O   0  0  0  0  0  0  0  0  0  0  0  0
    2.7897   -3.8460    0.2204 C   0  0  0  0  0  0  0  0  0  0  0  0
    3.0041   -0.8470    0.0422 H   0  0  0  0  0  0  0  0  0  0  0  0
    1.9696   -2.8123    1.9257 H   0  0  0  0  0  0  0  0  0  0  0  0
    3.5179   -3.6791   -0.5798 H   0  0  0  0  0  0  0  0  0  0  0  0
    3.1040   -4.7196    0.7997 H   0  0  0  0  0  0  0  0  0  0  0  0
    1.8172   -4.0649   -0.2323 H   0  0  0  0  0  0  0  0  0  0  0  0
    4.5834   -3.0879    2.7521 N   0  0  0  0  0  0  0  0  0  0  0  0
    5.8475   -2.8002    3.4201 C   0  0  0  0  0  0  0  0  0  0  0  0
    4.0533   -3.9070    3.0372 H   0  0  0  0  0  0  0  0  0  0  0  0
    6.6552   -2.6986    2.6872 H   0  0  0  0  0  0  0  0  0  0  0  0
    5.7747   -1.8708    3.9949 H   0  0  0  0  0  0  0  0  0  0  0  0
    6.1069   -3.6120    4.1069 H   0  0  0  0  0  0  0  0  0  0  0  0
  1  2  2  0  0  0  0
  1  3  1  0  0  0  0
  1  7  1  0  0  0  0
  3  4  1  0  0  0  0
  3  5  1  0  0  0  0
  3  6  1  0  0  0  0
  7  8  1  0  0  0  0
  7 12  1  0  0  0  0
  8  9  1  0  0  0  0
  8 11  1  0  0  0  0
  8 13  1  0  0  0  0
  9 10  2  0  0  0  0
  9 17  1  0  0  0  0
 11 14  1  0  0  0  0
 11 15  1  0  0  0  0
 11 16  1  0  0  0  0
 17 18  1  0  0  0  0
 17 27  1  0  0  0  0
 18 19  1  0  0  0  0
 18 21  1  0  0  0  0
 18 28  1  0  0  0  0
 19 20  2  0  0  0  0
 19 35  1  0  0  0  0
 21 22  1  0  0  0  0
 21 29  1  0  0  0  0
 21 30  1  0  0  0  0
 22 23  1  0  0  0  0
 22 24  2  0  0  0  0
 23 25  2  0  0  0  0
 23 31  1  0  0  0  0
 24 26  1  0  0  0  0
 24 32  1  0  0  0  0
 25 26  1  0  0  0  0
 25 33  1  0  0  0  0
 26 34  1  0  0  0  0
 35 36  1  0  0  0  0
 35 40  1  0  0  0  0
 36 37  1  0  0  0  0
 36 39  1  0  0  0  0
 36 41  1  0  0  0  0
 37 38  2  0  0  0  0
 37 45  1  0  0  0  0
 39 42  1  0  0  0  0
 39 43  1  0  0  0  0
 39 44  1  0  0  0  0
 45 46  1  0  0  0  0
 45 47  1  0  0  0  0
 46 48  1  0  0  0  0
 46 49  1  0  0  0  0
 46 50  1  0  0  0  0
M  CHG  1  23   1
M  END
$$$$

  -OEChem-05262216443D

 50 50  0     1  0  0  0  0  0999 V2000
   -3.9027   -0.0350    3.6616 C   0  0  0  0  0  0  0  0  0  0  0  0
   -4.8406    0.0354    2.8837 O   0  0  0  0  0  0  0  0  0  0  0  0
   -4.0630   -0.7519    4.9883 C   0  0  0  0  0  0  0  0  0  0  0  0
   -5.1050   -1.0537    5.1286 H   0  0  0  0  0  0  0  0  0  0  0  0
   -3.4319   -1.6436    5.0090 H   0  0  0  0  0  0  0  0  0  0  0  0
   -3.7761   -0.0903    5.8090 H   0  0  0  0  0  0  0  0  0  0  0  0
   -2.6942    0.5389    3.3230 N   0  0  0  0  0  0  0  0  0  0  0  0
   -2.4167    1.1491    2.0166 C   0  0  2  0  0  0  0  0  0  0  0  0
   -0.9247    1.0616    1.6384 C   0  0  0  0  0  0  0  0  0  0  0  0
   -0.0647    1.0743    2.5124 O   0  0  0  0  0  0  0  0  0  0  0  0
   -2.8690    2.6121    2.0610 C   0  0  0  0  0  0  0  0  0  0  0  0
   -1.9092    0.3965    3.9569 H   0  0  0  0  0  0  0  0  0  0  0  0
   -2.9815    0.6181    1.2420 H   0  0  0  0  0  0  0  0  0  0  0  0
   -2.3236    3.1574    2.8379 H   0  0  0  0  0  0  0  0  0  0  0  0
   -2.6902    3.0999    1.0986 H   0  0  0  0  0  0  0  0  0  0  0  0
   -3.9397    2.6708    2.2821 H   0  0  0  0  0  0  0  0  0  0  0  0
   -0.5389    1.0713    0.3041 N   0  0  0  0  0  0  0  0  0  0  0  0
    0.7630    0.5426   -0.1666 C   0  0  2  0  0  0  0  0  0  0  0  0
    1.1077   -0.8342    0.4687 C   0  0  0  0  0  0  0  0  0  0  0  0
    0.2117   -1.6456    0.6579 O   0  0  0  0  0  0  0  0  0  0  0  0
    1.8722    1.5879    0.1067 C   0  0  0  0  0  0  0  0  0  0  0  0
    1.6451    2.8536   -0.6819 C   0  0  0  0  0  0  0  0  0  0  0  0
    1.8532    3.0602   -2.0473 N   0  3  0  0  0  0  0  0  0  0  0  0
    1.2233    4.0422   -0.1431 C   0  0  0  0  0  0  0  0  0  0  0  0
    1.5764    4.3031   -2.3635 C   0  0  0  0  0  0  0  0  0  0  0  0
    1.1723    4.9477   -1.1956 N   0  0  0  0  0  0  0  0  0  0  0  0
   -1.3216    0.9428   -0.3342 H   0  0  0  0  0  0  0  0  0  0  0  0
    0.7023    0.3694   -1.2449 H   0  0  0  0  0  0  0  0  0  0  0  0
    2.8510    1.1880   -0.1764 H   0  0  0  0  0  0  0  0  0  0  0  0
    1.9202    1.8136    1.1775 H   0  0  0  0  0  0  0  0  0  0  0  0
    2.1929    2.3307   -2.6797 H   0  0  0  0  0  0  0  0  0  0  0  0
    0.9826    4.2213    0.9062 H   0  0  0  0  0  0  0  0  0  0  0  0
    1.6537    4.7527   -3.3557 H   0  0  0  0  0  0  0  0  0  0  0  0
    0.8966    5.9317   -1.1188 H   0  0  0  0  0  0  0  0  0  0  0  0
    2.4132   -1.2295    0.6911 N   0  0  0  0  0  0  0  0  0  0  0  0
    2.7917   -2.3964    1.4966 C   0  0  2  0  0  0  0  0  0  0  0  0
    4.0800   -2.0806    2.2871 C   0  0  0  0  0  0  0  0  0  0  0  0
    4.6915   -1.0421    2.0469 O   0  0  0  0  0  0  0  0  0  0  0  0
    2.9903   -3.5962    0.5656 C   0  0  0  0  0  0  0  0  0  0  0  0
    3.1269   -0.5031    0.6567 H   0  0  0  0  0  0  0  0  0  0  0  0
    2.0044   -2.6259    2.2233 H   0  0  0  0  0  0  0  0  0  0  0  0
    3.7832   -3.3919   -0.1608 H   0  0  0  0  0  0  0  0  0  0  0  0
    3.2635   -4.4874    1.1386 H   0  0  0  0  0  0  0  0  0  0  0  0
    2.0649   -3.8091    0.0207 H   0  0  0  0  0  0  0  0  0  0  0  0
    4.5394   -2.9297    3.2757 N   0  0  0  0  0  0  0  0  0  0  0  0
    5.7385   -2.6652    4.0638 C   0  0  0  0  0  0  0  0  0  0  0  0
    4.0041   -3.7728    3.4646 H   0  0  0  0  0  0  0  0  0  0  0  0
    6.6178   -2.5951    3.4144 H   0  0  0  0  0  0  0  0  0  0  0  0
    5.6350   -1.7261    4.6180 H   0  0  0  0  0  0  0  0  0  0  0  0
    5.9055   -3.4730    4.7834 H   0  0  0  0  0  0  0  0  0  0  0  0
  1  2  2  0  0  0  0
  1  3  1  0  0  0  0
  1  7  1  0  0  0  0
  3  4  1  0  0  0  0
  3  5  1  0  0  0  0
  3  6  1  0  0  0  0
  7  8  1  0  0  0  0
  7 12  1  0  0  0  0
  8  9  1  0  0  0  0
  8 11  1  0  0  0  0
  8 13  1  0  0  0  0
  9 10  2  0  0  0  0
  9 17  1  0  0  0  0
 11 14  1  0  0  0  0
 11 15  1  0  0  0  0
 11 16  1  0  0  0  0
 17 18  1  0  0  0  0
 17 27  1  0  0  0  0
 18 19  1  0  0  0  0
 18 21  1  0  0  0  0
 18 28  1  0  0  0  0
 19 20  2  0  0  0  0
 19 35  1  0  0  0  0
 21 22  1  0  0  0  0
 21 29  1  0  0  0  0
 21 30  1  0  0  0  0
 22 23  1  0  0  0  0
 22 24  2  0  0  0  0
 23 25  2  0  0  0  0
 23 31  1  0  0  0  0
 24 26  1  0  0  0  0
 24 32  1  0  0  0  0
 25 26  1  0  0  0  0
 25 33  1  0  0  0  0
 26 34  1  0  0  0  0
 35 36  1  0  0  0  0
 35 40  1  0  0  0  0
 36 37  1  0  0  0  0
 36 39  1  0  0  0  0
 36 41  1  0  0  0  0
 37 38  2  0  0  0  0
 37 45  1  0  0  0  0
 39 42  1  0  0  0  0
 39 43  1  0  0  0  0
 39 44  1  0  0  0  0
 45 46  1  0  0  0  0
 45 47  1  0  0  0  0
 46 48  1  0  0  0  0
 46 49  1  0  0  0  0
 46 50  1  0  0  0  0
M  CHG  1  23   1
M  END
$$$$

  -OEChem-05262216443D

 50 50  0     1  0  0  0  0  0999 V2000
   -3.8226   -0.1000    3.6700 C   0  0  0  0  0  0  0  0  0  0  0  0
   -4.7563   -0.1907    2.8897 O   0  0  0  0  0  0  0  0  0  0  0  0
   -3.9256   -0.6979    5.0598 C   0  0  0  0  0  0  0  0  0  0  0  0
   -4.9270   -1.1074    5.2190 H   0  0  0  0  0  0  0  0  0  0  0  0
   -3.1941   -1.5011    5.1760 H   0  0  0  0  0  0  0  0  0  0  0  0
   -3.7368    0.0707    5.8128 H   0  0  0  0  0  0  0  0  0  0  0  0
   -2.6689    0.5471    3.2779 N   0  0  0  0  0  0  0  0  0  0  0  0
   -2.4261    1.0338    1.9138 C   0  0  2  0  0  0  0  0  0  0  0  0
   -0.9250    1.0359    1.5591 C   0  0  0  0  0  0  0  0  0  0  0  0
   -0.0794    1.0524    2.4473 O   0  0  0  0  0  0  0  0  0  0  0  0
   -3.0086    2.4459    1.7941 C   0  0  0  0  0  0  0  0  0  0  0  0
   -1.8758    0.5228    3.9172 H   0  0  0  0  0  0  0  0  0  0  0  0
   -2.9283    0.3725    1.1985 H   0  0  0  0  0  0  0  0  0  0  0  0
   -2.5162    3.1242    2.4979 H   0  0  0  0  0  0  0  0  0  0  0  0
   -2.8751    2.8333    0.7800 H   0  0  0  0  0  0  0  0  0  0  0  0
   -4.0806    2.4332    2.0173 H   0  0  0  0  0  0  0  0  0  0  0  0
   -0.5141    1.0881    0.2339 N   0  0  0  0  0  0  0  0  0  0  0  0
    0.8072    0.5938   -0.2157 C   0  0  2  0  0  0  0  0  0  0  0  0
    1.1452   -0.7898    0.4028 C   0  0  0  0  0  0  0  0  0  0  0  0
    0.3029   -1.6743    0.3421 O   0  0  0  0  0  0  0  0  0  0  0  0
    1.8974    1.6465    0.0960 C   0  0  0  0  0  0  0  0  0  0  0  0
    1.6720    2.9226   -0.6756 C   0  0  0  0  0  0  0  0  0  0  0  0
    1.9063    3.1509   -2.0331 N   0  3  0  0  0  0  0  0  0  0  0  0
    1.2248    4.0983   -0.1293 C   0  0  0  0  0  0  0  0  0  0  0  0
    1.6246    4.3957   -2.3374 C   0  0  0  0  0  0  0  0  0  0  0  0
    1.1891    5.0191   -1.1692 N   0  0  0  0  0  0  0  0  0  0  0  0
   -1.2795    0.9473   -0.4227 H   0  0  0  0  0  0  0  0  0  0  0  0
    0.7739    0.4379   -1.2981 H   0  0  0  0  0  0  0  0  0  0  0  0
    2.8846    1.2567   -0.1737 H   0  0  0  0  0  0  0  0  0  0  0  0
    1.9206    1.8581    1.1705 H   0  0  0  0  0  0  0  0  0  0  0  0
    2.2667    2.4333   -2.6679 H   0  0  0  0  0  0  0  0  0  0  0  0
    0.9569    4.2591    0.9163 H   0  0  0  0  0  0  0  0  0  0  0  0
    1.7194    4.8602   -3.3213 H   0  0  0  0  0  0  0  0  0  0  0  0
    0.9038    5.9998   -1.0836 H   0  0  0  0  0  0  0  0  0  0  0  0
    2.3849   -1.0805    0.9396 N   0  0  0  0  0  0  0  0  0  0  0  0
    2.6860   -2.2919    1.7109 C   0  0  2  0  0  0  0  0  0  0  0  0
    3.7676   -1.9800    2.7673 C   0  0  0  0  0  0  0  0  0  0  0  0
    4.3421   -0.8948    2.7363 O   0  0  0  0  0  0  0  0  0  0  0  0
    3.1570   -3.3879    0.7495 C   0  0  0  0  0  0  0  0  0  0  0  0
    2.9952   -0.2909    1.1479 H   0  0  0  0  0  0  0  0  0  0  0  0
    1.7897   -2.6315    2.2420 H   0  0  0  0  0  0  0  0  0  0  0  0
    4.0605   -3.0702    0.2193 H   0  0  0  0  0  0  0  0  0  0  0  0
    3.3798   -4.3093    1.2959 H   0  0  0  0  0  0  0  0  0  0  0  0
    2.3780   -3.6064    0.0119 H   0  0  0  0  0  0  0  0  0  0  0  0
    4.0881   -2.8939    3.7529 N   0  0  0  0  0  0  0  0  0  0  0  0
    5.1061   -2.6494    4.7689 C   0  0  0  0  0  0  0  0  0  0  0  0
    3.5959   -3.7831    3.7546 H   0  0  0  0  0  0  0  0  0  0  0  0
    6.0848   -2.4961    4.3017 H   0  0  0  0  0  0  0  0  0  0  0  0
    4.8551   -1.7615    5.3591 H   0  0  0  0  0  0  0  0  0  0  0  0
    5.1782   -3.5047    5.4478 H   0  0  0  0  0  0  0  0  0  0  0  0
  1  2  2  0  0  0  0
  1  3  1  0  0  0  0
  1  7  1  0  0  0  0
  3  4  1  0  0  0  0
  3  5  1  0  0  0  0
  3  6  1  0  0  0  0
  7  8  1  0  0  0  0
  7 12  1  0  0  0  0
  8  9  1  0  0  0  0
  8 11  1  0  0  0  0
  8 13  1  0  0  0  0
  9 10  2  0  0  0  0
  9 17  1  0  0  0  0
 11 14  1  0  0  0  0
 11 15  1  0  0  0  0
 11 16  1  0  0  0  0
 17 18  1  0  0  0  0
 17 27  1  0  0  0  0
 18 19  1  0  0  0  0
 18 21  1  0  0  0  0
 18 28  1  0  0  0  0
 19 20  2  0  0  0  0
 19 35  1  0  0  0  0
 21 22  1  0  0  0  0
 21 29  1  0  0  0  0
 21 30  1  0  0  0  0
 22 23  1  0  0  0  0
 22 24  2  0  0  0  0
 23 25  2  0  0  0  0
 23 31  1  0  0  0  0
 24 26  1  0  0  0  0
 24 32  1  0  0  0  0
 25 26  1  0  0  0  0
 25 33  1  0  0  0  0
 26 34  1  0  0  0  0
 35 36  1  0  0  0  0
 35 40  1  0  0  0  0
 36 37  1  0  0  0  0
 36 39  1  0  0  0  0
 36 41  1  0  0  0  0
 37 38  2  0  0  0  0
 37 45  1  0  0  0  0
 39 42  1  0  0  0  0
 39 43  1  0  0  0  0
 39 44  1  0  0  0  0
 45 46  1  0  0  0  0
 45 47  1  0  0  0  0
 46 48  1  0  0  0  0
 46 49  1  0  0  0  0
 46 50  1  0  0  0  0
M  CHG  1  23   1
M  END
$$$$

  -OEChem-05262216443D

 50 50  0     1  0  0  0  0  0999 V2000
   -2.2750   -0.3808    4.3040 C   0  0  0  0  0  0  0  0  0  0  0  0
   -3.4448   -0.4152    3.9559 O   0  0  0  0  0  0  0  0  0  0  0  0
   -1.8347   -1.1463    5.5358 C   0  0  0  0  0  0  0  0  0  0  0  0
   -2.2326   -2.1634    5.5032 H   0  0  0  0  0  0  0  0  0  0  0  0
   -0.7446   -1.1915    5.5849 H   0  0  0  0  0  0  0  0  0  0  0  0
   -2.2064   -0.6454    6.4330 H   0  0  0  0  0  0  0  0  0  0  0  0
   -1.3697    0.3787    3.5952 N   0  0  0  0  0  0  0  0  0  0  0  0
   -1.6984    1.1340    2.3794 C   0  0  2  0  0  0  0  0  0  0  0  0
   -0.4188    1.4701    1.5921 C   0  0  0  0  0  0  0  0  0  0  0  0
    0.5977    1.8216    2.1818 O   0  0  0  0  0  0  0  0  0  0  0  0
   -2.4348    2.4236    2.7605 C   0  0  0  0  0  0  0  0  0  0  0  0
   -0.3779    0.2150    3.8011 H   0  0  0  0  0  0  0  0  0  0  0  0
   -2.3438    0.5227    1.7394 H   0  0  0  0  0  0  0  0  0  0  0  0
   -1.8168    3.0327    3.4280 H   0  0  0  0  0  0  0  0  0  0  0  0
   -2.6694    3.0099    1.8674 H   0  0  0  0  0  0  0  0  0  0  0  0
   -3.3735    2.1920    3.2738 H   0  0  0  0  0  0  0  0  0  0  0  0
   -0.3499    1.3561    0.2088 N   0  0  0  0  0  0  0  0  0  0  0  0
    0.8595    0.7618   -0.4039 C   0  0  2  0  0  0  0  0  0  0  0  0
    1.2544   -0.5206    0.3707 C   0  0  0  0  0  0  0  0  0  0  0  0
    0.5228   -1.4906    0.2290 O   0  0  0  0  0  0  0  0  0  0  0  0
    2.0203    1.7766   -0.5134 C   0  0  0  0  0  0  0  0  0  0  0  0
    1.6590    2.9126   -1.4360 C   0  0  0  0  0  0  0  0  0  0  0  0
    1.5956    2.8964   -2.8308 N   0  3  0  0  0  0  0  0  0  0  0  0
    1.3399    4.1801   -1.0212 C   0  0  0  0  0  0  0  0  0  0  0  0
    1.2528    4.0802   -3.2807 C   0  0  0  0  0  0  0  0  0  0  0  0
    1.0842    4.9113   -2.1744 N   0  0  0  0  0  0  0  0  0  0  0  0
   -1.2276    1.0276   -0.1909 H   0  0  0  0  0  0  0  0  0  0  0  0
    0.6050    0.4342   -1.4168 H   0  0  0  0  0  0  0  0  0  0  0  0
    2.9106    1.2735   -0.9053 H   0  0  0  0  0  0  0  0  0  0  0  0
    2.2884    2.1724    0.4702 H   0  0  0  0  0  0  0  0  0  0  0  0
    1.7950    2.0637   -3.3915 H   0  0  0  0  0  0  0  0  0  0  0  0
    1.2900    4.5229    0.0139 H   0  0  0  0  0  0  0  0  0  0  0  0
    1.1236    4.3636   -4.3273 H   0  0  0  0  0  0  0  0  0  0  0  0
    0.8136    5.8993   -2.2024 H   0  0  0  0  0  0  0  0  0  0  0  0
    2.4694   -0.6830    1.0120 N   0  0  0  0  0  0  0  0  0  0  0  0
    2.7325   -1.9042    1.7914 C   0  0  2  0  0  0  0  0  0  0  0  0
    1.7965   -2.0904    3.0137 C   0  0  0  0  0  0  0  0  0  0  0  0
    1.2517   -1.1317    3.5558 O   0  0  0  0  0  0  0  0  0  0  0  0
    4.1906   -1.8509    2.2535 C   0  0  0  0  0  0  0  0  0  0  0  0
    2.8419    0.1791    1.4033 H   0  0  0  0  0  0  0  0  0  0  0  0
    2.6046   -2.7752    1.1392 H   0  0  0  0  0  0  0  0  0  0  0  0
    4.3510   -0.9969    2.9200 H   0  0  0  0  0  0  0  0  0  0  0  0
    4.4544   -2.7655    2.7944 H   0  0  0  0  0  0  0  0  0  0  0  0
    4.8604   -1.7553    1.3932 H   0  0  0  0  0  0  0  0  0  0  0  0
    1.5907   -3.3599    3.5216 N   0  0  0  0  0  0  0  0  0  0  0  0
    0.6822   -3.6529    4.6228 C   0  0  0  0  0  0  0  0  0  0  0  0
    1.9828   -4.1387    2.9997 H   0  0  0  0  0  0  0  0  0  0  0  0
    0.9231   -3.0382    5.4965 H   0  0  0  0  0  0  0  0  0  0  0  0
   -0.3526   -3.4584    4.3237 H   0  0  0  0  0  0  0  0  0  0  0  0
    0.7663   -4.7047    4.9132 H   0  0  0  0  0  0  0  0  0  0  0  0
  1  2  2  0  0  0  0
  1  3  1  0  0  0  0
  1  7  1  0  0  0  0
  3  4  1  0  0  0  0
  3  5  1  0  0  0  0
  3  6  1  0  0  0  0
  7  8  1  0  0  0  0
  7 12  1  0  0  0  0
  8  9  1  0  0  0  0
  8 11  1  0  0  0  0
  8 13  1  0  0  0  0
  9 10  2  0  0  0  0
  9 17  1  0  0  0  0
 11 14  1  0  0  0  0
 11 15  1  0  0  0  0
 11 16  1  0  0  0  0
 17 18  1  0  0  0  0
 17 27  1  0  0  0  0
 18 19  1  0  0  0  0
 18 21  1  0  0  0  0
 18 28  1  0  0  0  0
 19 20  2  0  0  0  0
 19 35  1  0  0  0  0
 21 22  1  0  0  0  0
 21 29  1  0  0  0  0
 21 30  1  0  0  0  0
 22 23  1  0  0  0  0
 22 24  2  0  0  0  0
 23 25  2  0  0  0  0
 23 31  1  0  0  0  0
 24 26  1  0  0  0  0
 24 32  1  0  0  0  0
 25 26  1  0  0  0  0
 25 33  1  0  0  0  0
 26 34  1  0  0  0  0
 35 36  1  0  0  0  0
 35 40  1  0  0  0  0
 36 37  1  0  0  0  0
 36 39  1  0  0  0  0
 36 41  1  0  0  0  0
 37 38  2  0  0  0  0
 37 45  1  0  0  0  0
 39 42  1  0  0  0  0
 39 43  1  0  0  0  0
 39 44  1  0  0  0  0
 45 46  1  0  0  0  0
 45 47  1  0  0  0  0
 46 48  1  0  0  0  0
 46 49  1  0  0  0  0
 46 50  1  0  0  0  0
M  CHG  1  23   1
M  END
$$$$

  -OEChem-05262216443D

 50 50  0     1  0  0  0  0  0999 V2000
   -2.5402   -0.3268    4.1720 C   0  0  0  0  0  0  0  0  0  0  0  0
   -3.6845   -0.1449    3.7865 O   0  0  0  0  0  0  0  0  0  0  0  0
   -2.2714   -1.3093    5.2947 C   0  0  0  0  0  0  0  0  0  0  0  0
   -2.5646   -2.3147    4.9846 H   0  0  0  0  0  0  0  0  0  0  0  0
   -1.2097   -1.3106    5.5534 H   0  0  0  0  0  0  0  0  0  0  0  0
   -2.8477   -1.0265    6.1791 H   0  0  0  0  0  0  0  0  0  0  0  0
   -1.5056    0.3705    3.5867 N   0  0  0  0  0  0  0  0  0  0  0  0
   -1.6747    1.3182    2.4792 C   0  0  2  0  0  0  0  0  0  0  0  0
   -0.3649    1.4700    1.6847 C   0  0  0  0  0  0  0  0  0  0  0  0
    0.6804    1.7654    2.2559 O   0  0  0  0  0  0  0  0  0  0  0  0
   -2.1225    2.6702    3.0457 C   0  0  0  0  0  0  0  0  0  0  0  0
   -0.5538    0.0671    3.8260 H   0  0  0  0  0  0  0  0  0  0  0  0
   -2.4442    0.9450    1.7951 H   0  0  0  0  0  0  0  0  0  0  0  0
   -1.3800    3.0549    3.7523 H   0  0  0  0  0  0  0  0  0  0  0  0
   -2.2513    3.3995    2.2409 H   0  0  0  0  0  0  0  0  0  0  0  0
   -3.0775    2.5655    3.5705 H   0  0  0  0  0  0  0  0  0  0  0  0
   -0.3186    1.2907    0.3073 N   0  0  0  0  0  0  0  0  0  0  0  0
    0.8759    0.6829   -0.3191 C   0  0  2  0  0  0  0  0  0  0  0  0
    1.3264   -0.5655    0.4783 C   0  0  0  0  0  0  0  0  0  0  0  0
    0.7787   -1.6256    0.2104 O   0  0  0  0  0  0  0  0  0  0  0  0
    2.0152    1.7090   -0.5095 C   0  0  0  0  0  0  0  0  0  0  0  0
    1.5993    2.7953   -1.4685 C   0  0  0  0  0  0  0  0  0  0  0  0
    1.4910    2.7059   -2.8575 N   0  3  0  0  0  0  0  0  0  0  0  0
    1.2650    4.0754   -1.1077 C   0  0  0  0  0  0  0  0  0  0  0  0
    1.1027    3.8558   -3.3553 C   0  0  0  0  0  0  0  0  0  0  0  0
    0.9508    4.7390   -2.2875 N   0  0  0  0  0  0  0  0  0  0  0  0
   -1.2107    0.9844   -0.0780 H   0  0  0  0  0  0  0  0  0  0  0  0
    0.5894    0.3165   -1.3102 H   0  0  0  0  0  0  0  0  0  0  0  0
    2.9040    1.2035   -0.9025 H   0  0  0  0  0  0  0  0  0  0  0  0
    2.3016    2.1539    0.4480 H   0  0  0  0  0  0  0  0  0  0  0  0
    1.6933    1.8497   -3.3808 H   0  0  0  0  0  0  0  0  0  0  0  0
    1.2443    4.4716   -0.0910 H   0  0  0  0  0  0  0  0  0  0  0  0
    0.9309    4.0810   -4.4098 H   0  0  0  0  0  0  0  0  0  0  0  0
    0.6532    5.7172   -2.3566 H   0  0  0  0  0  0  0  0  0  0  0  0
    2.4289   -0.5631    1.3134 N   0  0  0  0  0  0  0  0  0  0  0  0
    2.7282   -1.7459    2.1367 C   0  0  2  0  0  0  0  0  0  0  0  0
    1.6199   -2.0797    3.1673 C   0  0  0  0  0  0  0  0  0  0  0  0
    0.9578   -1.1904    3.6964 O   0  0  0  0  0  0  0  0  0  0  0  0
    4.0505   -1.4864    2.8625 C   0  0  0  0  0  0  0  0  0  0  0  0
    2.5724    0.3370    1.7712 H   0  0  0  0  0  0  0  0  0  0  0  0
    2.8523   -2.6142    1.4807 H   0  0  0  0  0  0  0  0  0  0  0  0
    3.9560   -0.6282    3.5364 H   0  0  0  0  0  0  0  0  0  0  0  0
    4.3386   -2.3605    3.4553 H   0  0  0  0  0  0  0  0  0  0  0  0
    4.8487   -1.2803    2.1425 H   0  0  0  0  0  0  0  0  0  0  0  0
    1.3745   -3.3962    3.5099 N   0  0  0  0  0  0  0  0  0  0  0  0
    0.2864   -3.8084    4.3879 C   0  0  0  0  0  0  0  0  0  0  0  0
    1.8670   -4.1124    2.9835 H   0  0  0  0  0  0  0  0  0  0  0  0
    0.3754   -3.3222    5.3651 H   0  0  0  0  0  0  0  0  0  0  0  0
   -0.6801   -3.5460    3.9455 H   0  0  0  0  0  0  0  0  0  0  0  0
    0.3127   -4.8918    4.5409 H   0  0  0  0  0  0  0  0  0  0  0  0
  1  2  2  0  0  0  0
  1  3  1  0  0  0  0
  1  7  1  0  0  0  0
  3  4  1  0  0  0  0
  3  5  1  0  0  0  0
  3  6  1  0  0  0  0
  7  8  1  0  0  0  0
  7 12  1  0  0  0  0
  8  9  1  0  0  0  0
  8 11  1  0  0  0  0
  8 13  1  0  0  0  0
  9 10  2  0  0  0  0
  9 17  1  0  0  0  0
 11 14  1  0  0  0  0
 11 15  1  0  0  0  0
 11 16  1  0  0  0  0
 17 18  1  0  0  0  0
 17 27  1  0  0  0  0
 18 19  1  0  0  0  0
 18 21  1  0  0  0  0
 18 28  1  0  0  0  0
 19 20  2  0  0  0  0
 19 35  1  0  0  0  0
 21 22  1  0  0  0  0
 21 29  1  0  0  0  0
 21 30  1  0  0  0  0
 22 23  1  0  0  0  0
 22 24  2  0  0  0  0
 23 25  2  0  0  0  0
 23 31  1  0  0  0  0
 24 26  1  0  0  0  0
 24 32  1  0  0  0  0
 25 26  1  0  0  0  0
 25 33  1  0  0  0  0
 26 34  1  0  0  0  0
 35 36  1  0  0  0  0
 35 40  1  0  0  0  0
 36 37  1  0  0  0  0
 36 39  1  0  0  0  0
 36 41  1  0  0  0  0
 37 38  2  0  0  0  0
 37 45  1  0  0  0  0
 39 42  1  0  0  0  0
 39 43  1  0  0  0  0
 39 44  1  0  0  0  0
 45 46  1  0  0  0  0
 45 47  1  0  0  0  0
 46 48  1  0  0  0  0
 46 49  1  0  0  0  0
 46 50  1  0  0  0  0
M  CHG  1  23   1
M  END
$$$$

  -OEChem-05262216443D

 50 50  0     1  0  0  0  0  0999 V2000
   -2.6792   -0.2822    4.2242 C   0  0  0  0  0  0  0  0  0  0  0  0
   -3.8023   -0.1519    3.7623 O   0  0  0  0  0  0  0  0  0  0  0  0
   -2.4544   -1.1699    5.4329 C   0  0  0  0  0  0  0  0  0  0  0  0
   -3.2111   -1.9583    5.4649 H   0  0  0  0  0  0  0  0  0  0  0  0
   -1.4654   -1.6300    5.3861 H   0  0  0  0  0  0  0  0  0  0  0  0
   -2.5222   -0.5738    6.3459 H   0  0  0  0  0  0  0  0  0  0  0  0
   -1.6256    0.3996    3.6541 N   0  0  0  0  0  0  0  0  0  0  0  0
   -1.7472    1.2494    2.4631 C   0  0  2  0  0  0  0  0  0  0  0  0
   -0.4042    1.3592    1.7162 C   0  0  0  0  0  0  0  0  0  0  0  0
    0.6237    1.6559    2.3174 O   0  0  0  0  0  0  0  0  0  0  0  0
   -2.2381    2.6363    2.8930 C   0  0  0  0  0  0  0  0  0  0  0  0
   -0.6859    0.1007    3.9403 H   0  0  0  0  0  0  0  0  0  0  0  0
   -2.4785    0.8094    1.7768 H   0  0  0  0  0  0  0  0  0  0  0  0
   -1.5362    3.0885    3.6011 H   0  0  0  0  0  0  0  0  0  0  0  0
   -2.3348    3.2959    2.0259 H   0  0  0  0  0  0  0  0  0  0  0  0
   -3.2172    2.5597    3.3769 H   0  0  0  0  0  0  0  0  0  0  0  0
   -0.3204    1.1765    0.3416 N   0  0  0  0  0  0  0  0  0  0  0  0
    0.8942    0.6127   -0.2895 C   0  0  2  0  0  0  0  0  0  0  0  0
    1.4163   -0.6271    0.4757 C   0  0  0  0  0  0  0  0  0  0  0  0
    1.0861   -1.7300    0.0647 O   0  0  0  0  0  0  0  0  0  0  0  0
    2.0023    1.6752   -0.4538 C   0  0  0  0  0  0  0  0  0  0  0  0
    1.5711    2.7721   -1.3940 C   0  0  0  0  0  0  0  0  0  0  0  0
    1.4805    2.7074   -2.7857 N   0  3  0  0  0  0  0  0  0  0  0  0
    1.2134    4.0401   -1.0134 C   0  0  0  0  0  0  0  0  0  0  0  0
    1.0857    3.8620   -3.2668 C   0  0  0  0  0  0  0  0  0  0  0  0
    0.9058    4.7216   -2.1845 N   0  0  0  0  0  0  0  0  0  0  0  0
   -1.2032    0.8831   -0.0743 H   0  0  0  0  0  0  0  0  0  0  0  0
    0.6196    0.2571   -1.2879 H   0  0  0  0  0  0  0  0  0  0  0  0
    2.9086    1.2012   -0.8462 H   0  0  0  0  0  0  0  0  0  0  0  0
    2.2680    2.1069    0.5158 H   0  0  0  0  0  0  0  0  0  0  0  0
    1.7078    1.8663   -3.3232 H   0  0  0  0  0  0  0  0  0  0  0  0
    1.1773    4.4180    0.0098 H   0  0  0  0  0  0  0  0  0  0  0  0
    0.9298    4.1062   -4.3196 H   0  0  0  0  0  0  0  0  0  0  0  0
    0.6008    5.6982   -2.2398 H   0  0  0  0  0  0  0  0  0  0  0  0
    2.3281   -0.5294    1.5109 N   0  0  0  0  0  0  0  0  0  0  0  0
    2.6288   -1.7050    2.3416 C   0  0  2  0  0  0  0  0  0  0  0  0
    1.4243   -2.1308    3.2139 C   0  0  0  0  0  0  0  0  0  0  0  0
    0.7370   -1.2871    3.7836 O   0  0  0  0  0  0  0  0  0  0  0  0
    3.8297   -1.3675    3.2283 C   0  0  0  0  0  0  0  0  0  0  0  0
    2.2550    0.3576    2.0155 H   0  0  0  0  0  0  0  0  0  0  0  0
    2.9014   -2.5472    1.6964 H   0  0  0  0  0  0  0  0  0  0  0  0
    3.5930   -0.5300    3.8931 H   0  0  0  0  0  0  0  0  0  0  0  0
    4.1038   -2.2306    3.8437 H   0  0  0  0  0  0  0  0  0  0  0  0
    4.6932   -1.0938    2.6142 H   0  0  0  0  0  0  0  0  0  0  0  0
    1.1094   -3.4684    3.3590 N   0  0  0  0  0  0  0  0  0  0  0  0
   -0.0592   -3.9435    4.0898 C   0  0  0  0  0  0  0  0  0  0  0  0
    1.6225   -4.1311    2.7838 H   0  0  0  0  0  0  0  0  0  0  0  0
    0.0011   -3.6477    5.1425 H   0  0  0  0  0  0  0  0  0  0  0  0
   -0.9768   -3.5317    3.6562 H   0  0  0  0  0  0  0  0  0  0  0  0
   -0.1165   -5.0355    4.0433 H   0  0  0  0  0  0  0  0  0  0  0  0
  1  2  2  0  0  0  0
  1  3  1  0  0  0  0
  1  7  1  0  0  0  0
  3  4  1  0  0  0  0
  3  5  1  0  0  0  0
  3  6  1  0  0  0  0
  7  8  1  0  0  0  0
  7 12  1  0  0  0  0
  8  9  1  0  0  0  0
  8 11  1  0  0  0  0
  8 13  1  0  0  0  0
  9 10  2  0  0  0  0
  9 17  1  0  0  0  0
 11 14  1  0  0  0  0
 11 15  1  0  0  0  0
 11 16  1  0  0  0  0
 17 18  1  0  0  0  0
 17 27  1  0  0  0  0
 18 19  1  0  0  0  0
 18 21  1  0  0  0  0
 18 28  1  0  0  0  0
 19 20  2  0  0  0  0
 19 35  1  0  0  0  0
 21 22  1  0  0  0  0
 21 29  1  0  0  0  0
 21 30  1  0  0  0  0
 22 23  1  0  0  0  0
 22 24  2  0  0  0  0
 23 25  2  0  0  0  0
 23 31  1  0  0  0  0
 24 26  1  0  0  0  0
 24 32  1  0  0  0  0
 25 26  1  0  0  0  0
 25 33  1  0  0  0  0
 26 34  1  0  0  0  0
 35 36  1  0  0  0  0
 35 40  1  0  0  0  0
 36 37  1  0  0  0  0
 36 39  1  0  0  0  0
 36 41  1  0  0  0  0
 37 38  2  0  0  0  0
 37 45  1  0  0  0  0
 39 42  1  0  0  0  0
 39 43  1  0  0  0  0
 39 44  1  0  0  0  0
 45 46  1  0  0  0  0
 45 47  1  0  0  0  0
 46 48  1  0  0  0  0
 46 49  1  0  0  0  0
 46 50  1  0  0  0  0
M  CHG  1  23   1
M  END
$$$$

  -OEChem-05262216443D

 50 50  0     1  0  0  0  0  0999 V2000
   -1.3924    0.2310    4.7625 C   0  0  0  0  0  0  0  0  0  0  0  0
   -0.6824   -0.7378    4.5483 O   0  0  0  0  0  0  0  0  0  0  0  0
   -1.5638    0.7305    6.1844 C   0  0  0  0  0  0  0  0  0  0  0  0
   -2.6173    0.6884    6.4705 H   0  0  0  0  0  0  0  0  0  0  0  0
   -0.9878    0.1070    6.8739 H   0  0  0  0  0  0  0  0  0  0  0  0
   -1.2100    1.7610    6.2642 H   0  0  0  0  0  0  0  0  0  0  0  0
   -2.0317    0.8892    3.7279 N   0  0  0  0  0  0  0  0  0  0  0  0
   -1.8789    0.5315    2.3067 C   0  0  2  0  0  0  0  0  0  0  0  0
   -0.5313    0.9884    1.6842 C   0  0  0  0  0  0  0  0  0  0  0  0
    0.3744    1.4193    2.3935 O   0  0  0  0  0  0  0  0  0  0  0  0
   -3.0761    1.1326    1.5632 C   0  0  0  0  0  0  0  0  0  0  0  0
   -2.5396    1.7335    3.9696 H   0  0  0  0  0  0  0  0  0  0  0  0
   -1.9355   -0.5575    2.2098 H   0  0  0  0  0  0  0  0  0  0  0  0
   -3.0374    2.2262    1.5892 H   0  0  0  0  0  0  0  0  0  0  0  0
   -3.0866    0.8058    0.5192 H   0  0  0  0  0  0  0  0  0  0  0  0
   -4.0119    0.8046    2.0276 H   0  0  0  0  0  0  0  0  0  0  0  0
   -0.3122    1.0685    0.3103 N   0  0  0  0  0  0  0  0  0  0  0  0
    1.0032    0.7095   -0.2792 C   0  0  2  0  0  0  0  0  0  0  0  0
    1.5733   -0.6081    0.2860 C   0  0  0  0  0  0  0  0  0  0  0  0
    1.7619   -1.5210   -0.5059 O   0  0  0  0  0  0  0  0  0  0  0  0
    2.0519    1.8331   -0.1546 C   0  0  0  0  0  0  0  0  0  0  0  0
    1.6348    3.0507   -0.9353 C   0  0  0  0  0  0  0  0  0  0  0  0
    1.6759    3.2051   -2.3214 N   0  3  0  0  0  0  0  0  0  0  0  0
    1.1711    4.2228   -0.3977 C   0  0  0  0  0  0  0  0  0  0  0  0
    1.2628    4.4044   -2.6540 C   0  0  0  0  0  0  0  0  0  0  0  0
    0.9343    5.0704   -1.4738 N   0  0  0  0  0  0  0  0  0  0  0  0
   -1.1093    0.7184   -0.2177 H   0  0  0  0  0  0  0  0  0  0  0  0
    0.8380    0.5285   -1.3462 H   0  0  0  0  0  0  0  0  0  0  0  0
    3.0155    1.4753   -0.5344 H   0  0  0  0  0  0  0  0  0  0  0  0
    2.2090    2.0998    0.8946 H   0  0  0  0  0  0  0  0  0  0  0  0
    2.0029    2.4700   -2.9550 H   0  0  0  0  0  0  0  0  0  0  0  0
    1.0223    4.4257    0.6640 H   0  0  0  0  0  0  0  0  0  0  0  0
    1.1940    4.8075   -3.6664 H   0  0  0  0  0  0  0  0  0  0  0  0
    0.5877    6.0323   -1.4060 H   0  0  0  0  0  0  0  0  0  0  0  0
    2.1152   -0.6894    1.5539 N   0  0  0  0  0  0  0  0  0  0  0  0
    2.1925   -2.0081    2.2056 C   0  0  2  0  0  0  0  0  0  0  0  0
    0.8153   -2.7146    2.3836 C   0  0  0  0  0  0  0  0  0  0  0  0
   -0.1975   -2.3029    1.8227 O   0  0  0  0  0  0  0  0  0  0  0  0
    2.8615   -1.7777    3.5652 C   0  0  0  0  0  0  0  0  0  0  0  0
    1.7972    0.0701    2.1613 H   0  0  0  0  0  0  0  0  0  0  0  0
    2.8262   -2.6713    1.6066 H   0  0  0  0  0  0  0  0  0  0  0  0
    2.2158   -1.1708    4.2094 H   0  0  0  0  0  0  0  0  0  0  0  0
    3.0584   -2.7291    4.0678 H   0  0  0  0  0  0  0  0  0  0  0  0
    3.8156   -1.2572    3.4368 H   0  0  0  0  0  0  0  0  0  0  0  0
    0.7149   -3.8660    3.1436 N   0  0  0  0  0  0  0  0  0  0  0  0
   -0.5581   -4.5147    3.4353 C   0  0  0  0  0  0  0  0  0  0  0  0
    1.5393   -4.1575    3.6584 H   0  0  0  0  0  0  0  0  0  0  0  0
   -1.2211   -3.8283    3.9735 H   0  0  0  0  0  0  0  0  0  0  0  0
   -1.0508   -4.8276    2.5085 H   0  0  0  0  0  0  0  0  0  0  0  0
   -0.3990   -5.4015    4.0562 H   0  0  0  0  0  0  0  0  0  0  0  0
  1  2  2  0  0  0  0
  1  3  1  0  0  0  0
  1  7  1  0  0  0  0
  3  4  1  0  0  0  0
  3  5  1  0  0  0  0
  3  6  1  0  0  0  0
  7  8  1  0  0  0  0
  7 12  1  0  0  0  0
  8  9  1  0  0  0  0
  8 11  1  0  0  0  0
  8 13  1  0  0  0  0
  9 10  2  0  0  0  0
  9 17  1  0  0  0  0
 11 14  1  0  0  0  0
 11 15  1  0  0  0  0
 11 16  1  0  0  0  0
 17 18  1  0  0  0  0
 17 27  1  0  0  0  0
 18 19  1  0  0  0  0
 18 21  1  0  0  0  0
 18 28  1  0  0  0  0
 19 20  2  0  0  0  0
 19 35  1  0  0  0  0
 21 22  1  0  0  0  0
 21 29  1  0  0  0  0
 21 30  1  0  0  0  0
 22 23  1  0  0  0  0
 22 24  2  0  0  0  0
 23 25  2  0  0  0  0
 23 31  1  0  0  0  0
 24 26  1  0  0  0  0
 24 32  1  0  0  0  0
 25 26  1  0  0  0  0
 25 33  1  0  0  0  0
 26 34  1  0  0  0  0
 35 36  1  0  0  0  0
 35 40  1  0  0  0  0
 36 37  1  0  0  0  0
 36 39  1  0  0  0  0
 36 41  1  0  0  0  0
 37 38  2  0  0  0  0
 37 45  1  0  0  0  0
 39 42  1  0  0  0  0
 39 43  1  0  0  0  0
 39 44  1  0  0  0  0
 45 46  1  0  0  0  0
 45 47  1  0  0  0  0
 46 48  1  0  0  0  0
 46 49  1  0  0  0  0
 46 50  1  0  0  0  0
M  CHG  1  23   1
M  END
$$$$

  -OEChem-05262216443D

 50 50  0     1  0  0  0  0  0999 V2000
   -2.8101   -0.1399    2.2002 C   0  0  0  0  0  0  0  0  0  0  0  0
   -3.1241    0.5238    1.2200 O   0  0  0  0  0  0  0  0  0  0  0  0
   -3.1461   -1.6164    2.2689 C   0  0  0  0  0  0  0  0  0  0  0  0
   -3.7824   -1.8998    1.4260 H   0  0  0  0  0  0  0  0  0  0  0  0
   -2.2279   -2.2084    2.2341 H   0  0  0  0  0  0  0  0  0  0  0  0
   -3.6755   -1.8347    3.1995 H   0  0  0  0  0  0  0  0  0  0  0  0
   -2.0161    0.4314    3.1711 N   0  0  0  0  0  0  0  0  0  0  0  0
   -1.4503    1.7836    3.0753 C   0  0  2  0  0  0  0  0  0  0  0  0
   -0.2465    1.8103    2.1048 C   0  0  0  0  0  0  0  0  0  0  0  0
    0.8873    2.1055    2.4690 O   0  0  0  0  0  0  0  0  0  0  0  0
   -1.0817    2.2196    4.4981 C   0  0  0  0  0  0  0  0  0  0  0  0
   -1.5169   -0.2383    3.7679 H   0  0  0  0  0  0  0  0  0  0  0  0
   -2.2067    2.4779    2.6935 H   0  0  0  0  0  0  0  0  0  0  0  0
   -0.3321    1.5453    4.9255 H   0  0  0  0  0  0  0  0  0  0  0  0
   -0.6732    3.2351    4.4938 H   0  0  0  0  0  0  0  0  0  0  0  0
   -1.9677    2.2068    5.1405 H   0  0  0  0  0  0  0  0  0  0  0  0
   -0.4334    1.4179    0.7897 N   0  0  0  0  0  0  0  0  0  0  0  0
    0.5330    0.6156    0.0078 C   0  0  2  0  0  0  0  0  0  0  0  0
    1.1220   -0.6042    0.7568 C   0  0  0  0  0  0  0  0  0  0  0  0
    0.9747   -1.7108    0.2589 O   0  0  0  0  0  0  0  0  0  0  0  0
    1.6798    1.4962   -0.5211 C   0  0  0  0  0  0  0  0  0  0  0  0
    1.1499    2.5240   -1.4882 C   0  0  0  0  0  0  0  0  0  0  0  0
    0.7395    2.3074   -2.8045 N   0  3  0  0  0  0  0  0  0  0  0  0
    0.9880    3.8579   -1.2162 C   0  0  0  0  0  0  0  0  0  0  0  0
    0.3246    3.4312   -3.3385 C   0  0  0  0  0  0  0  0  0  0  0  0
    0.4696    4.4265   -2.3734 N   0  0  0  0  0  0  0  0  0  0  0  0
   -1.4180    1.1841    0.6160 H   0  0  0  0  0  0  0  0  0  0  0  0
   -0.0084    0.2054   -0.8514 H   0  0  0  0  0  0  0  0  0  0  0  0
    2.4237    0.8718   -1.0285 H   0  0  0  0  0  0  0  0  0  0  0  0
    2.1929    1.9902    0.3101 H   0  0  0  0  0  0  0  0  0  0  0  0
    0.7507    1.3849   -3.2485 H   0  0  0  0  0  0  0  0  0  0  0  0
    1.2095    4.3508   -0.2685 H   0  0  0  0  0  0  0  0  0  0  0  0
   -0.0661    3.5622   -4.3495 H   0  0  0  0  0  0  0  0  0  0  0  0
    0.2202    5.4136   -2.4888 H   0  0  0  0  0  0  0  0  0  0  0  0
    1.8426   -0.4872    1.9298 N   0  0  0  0  0  0  0  0  0  0  0  0
    2.1499   -1.6461    2.7806 C   0  0  2  0  0  0  0  0  0  0  0  0
    0.9320   -2.1448    3.5940 C   0  0  0  0  0  0  0  0  0  0  0  0
    0.0187   -1.3817    3.8969 O   0  0  0  0  0  0  0  0  0  0  0  0
    3.2820   -1.2343    3.7243 C   0  0  0  0  0  0  0  0  0  0  0  0
    1.7699    0.4252    2.3883 H   0  0  0  0  0  0  0  0  0  0  0  0
    2.5024   -2.4739    2.1556 H   0  0  0  0  0  0  0  0  0  0  0  0
    2.9614   -0.4124    4.3731 H   0  0  0  0  0  0  0  0  0  0  0  0
    3.5807   -2.0772    4.3554 H   0  0  0  0  0  0  0  0  0  0  0  0
    4.1547   -0.9060    3.1511 H   0  0  0  0  0  0  0  0  0  0  0  0
    0.8616   -3.4596    4.0135 N   0  0  0  0  0  0  0  0  0  0  0  0
   -0.2552   -4.0018    4.7800 C   0  0  0  0  0  0  0  0  0  0  0  0
    1.6063   -4.0879    3.7240 H   0  0  0  0  0  0  0  0  0  0  0  0
   -0.3545   -3.4783    5.7370 H   0  0  0  0  0  0  0  0  0  0  0  0
   -1.1917   -3.8963    4.2221 H   0  0  0  0  0  0  0  0  0  0  0  0
   -0.0943   -5.0650    4.9841 H   0  0  0  0  0  0  0  0  0  0  0  0
  1  2  2  0  0  0  0
  1  3  1  0  0  0  0
  1  7  1  0  0  0  0
  3  4  1  0  0  0  0
  3  5  1  0  0  0  0
  3  6  1  0  0  0  0
  7  8  1  0  0  0  0
  7 12  1  0  0  0  0
  8  9  1  0  0  0  0
  8 11  1  0  0  0  0
  8 13  1  0  0  0  0
  9 10  2  0  0  0  0
  9 17  1  0  0  0  0
 11 14  1  0  0  0  0
 11 15  1  0  0  0  0
 11 16  1  0  0  0  0
 17 18  1  0  0  0  0
 17 27  1  0  0  0  0
 18 19  1  0  0  0  0
 18 21  1  0  0  0  0
 18 28  1  0  0  0  0
 19 20  2  0  0  0  0
 19 35  1  0  0  0  0
 21 22  1  0  0  0  0
 21 29  1  0  0  0  0
 21 30  1  0  0  0  0
 22 23  1  0  0  0  0
 22 24  2  0  0  0  0
 23 25  2  0  0  0  0
 23 31  1  0  0  0  0
 24 26  1  0  0  0  0
 24 32  1  0  0  0  0
 25 26  1  0  0  0  0
 25 33  1  0  0  0  0
 26 34  1  0  0  0  0
 35 36  1  0  0  0  0
 35 40  1  0  0  0  0
 36 37  1  0  0  0  0
 36 39  1  0  0  0  0
 36 41  1  0  0  0  0
 37 38  2  0  0  0  0
 37 45  1  0  0  0  0
 39 42  1  0  0  0  0
 39 43  1  0  0  0  0
 39 44  1  0  0  0  0
 45 46  1  0  0  0  0
 45 47  1  0  0  0  0
 46 48  1  0  0  0  0
 46 49  1  0  0  0  0
 46 50  1  0  0  0  0
M  CHG  1  23   1
M  END
$$$$

  -OEChem-05262216443D

 50 50  0     1  0  0  0  0  0999 V2000
   -2.9454   -0.0597    1.9670 C   0  0  0  0  0  0  0  0  0  0  0  0
   -3.1478    0.6448    0.9862 O   0  0  0  0  0  0  0  0  0  0  0  0
   -3.4122   -1.5015    1.9881 C   0  0  0  0  0  0  0  0  0  0  0  0
   -4.0496   -1.7058    1.1236 H   0  0  0  0  0  0  0  0  0  0  0  0
   -2.5499   -2.1729    1.9606 H   0  0  0  0  0  0  0  0  0  0  0  0
   -3.9836   -1.6944    2.8993 H   0  0  0  0  0  0  0  0  0  0  0  0
   -2.1643    0.4281    2.9920 N   0  0  0  0  0  0  0  0  0  0  0  0
   -1.5249    1.7514    2.9811 C   0  0  2  0  0  0  0  0  0  0  0  0
   -0.2636    1.7591    2.0853 C   0  0  0  0  0  0  0  0  0  0  0  0
    0.8434    2.0633    2.5154 O   0  0  0  0  0  0  0  0  0  0  0  0
   -1.2238    2.1130    4.4405 C   0  0  0  0  0  0  0  0  0  0  0  0
   -1.7438   -0.2908    3.5920 H   0  0  0  0  0  0  0  0  0  0  0  0
   -2.2215    2.4976    2.5838 H   0  0  0  0  0  0  0  0  0  0  0  0
   -0.5290    1.3902    4.8813 H   0  0  0  0  0  0  0  0  0  0  0  0
   -0.7747    3.1092    4.5032 H   0  0  0  0  0  0  0  0  0  0  0  0
   -2.1459    2.1127    5.0300 H   0  0  0  0  0  0  0  0  0  0  0  0
   -0.3681    1.3446    0.7685 N   0  0  0  0  0  0  0  0  0  0  0  0
    0.6544    0.5843    0.0135 C   0  0  2  0  0  0  0  0  0  0  0  0
    1.2981   -0.6158    0.7507 C   0  0  0  0  0  0  0  0  0  0  0  0
    1.4041   -1.6676    0.1370 O   0  0  0  0  0  0  0  0  0  0  0  0
    1.7729    1.5236   -0.4712 C   0  0  0  0  0  0  0  0  0  0  0  0
    1.2248    2.5325   -1.4471 C   0  0  0  0  0  0  0  0  0  0  0  0
    0.8696    2.3024   -2.7765 N   0  3  0  0  0  0  0  0  0  0  0  0
    0.9853    3.8545   -1.1744 C   0  0  0  0  0  0  0  0  0  0  0  0
    0.4172    3.4065   -3.3204 C   0  0  0  0  0  0  0  0  0  0  0  0
    0.4779    4.4021   -2.3463 N   0  0  0  0  0  0  0  0  0  0  0  0
   -1.3398    1.1161    0.5298 H   0  0  0  0  0  0  0  0  0  0  0  0
    0.1554    0.1594   -0.8636 H   0  0  0  0  0  0  0  0  0  0  0  0
    2.5634    0.9414   -0.9586 H   0  0  0  0  0  0  0  0  0  0  0  0
    2.2322    2.0336    0.3820 H   0  0  0  0  0  0  0  0  0  0  0  0
    0.9474    1.3848   -3.2239 H   0  0  0  0  0  0  0  0  0  0  0  0
    1.1495    4.3522   -0.2174 H   0  0  0  0  0  0  0  0  0  0  0  0
    0.0568    3.5236   -4.3444 H   0  0  0  0  0  0  0  0  0  0  0  0
    0.1833    5.3759   -2.4662 H   0  0  0  0  0  0  0  0  0  0  0  0
    1.7345   -0.5574    2.0595 N   0  0  0  0  0  0  0  0  0  0  0  0
    1.9689   -1.7513    2.8828 C   0  0  2  0  0  0  0  0  0  0  0  0
    0.6719   -2.3099    3.5133 C   0  0  0  0  0  0  0  0  0  0  0  0
   -0.3057   -1.5877    3.6948 O   0  0  0  0  0  0  0  0  0  0  0  0
    2.9655   -1.3607    3.9765 C   0  0  0  0  0  0  0  0  0  0  0  0
    1.5375    0.3198    2.5471 H   0  0  0  0  0  0  0  0  0  0  0  0
    2.4169   -2.5420    2.2712 H   0  0  0  0  0  0  0  0  0  0  0  0
    2.5449   -0.5790    4.6180 H   0  0  0  0  0  0  0  0  0  0  0  0
    3.2104   -2.2262    4.6000 H   0  0  0  0  0  0  0  0  0  0  0  0
    3.8912   -0.9843    3.5300 H   0  0  0  0  0  0  0  0  0  0  0  0
    0.6031   -3.6324    3.9085 N   0  0  0  0  0  0  0  0  0  0  0  0
   -0.5781   -4.2326    4.5189 C   0  0  0  0  0  0  0  0  0  0  0  0
    1.4110   -4.2218    3.7254 H   0  0  0  0  0  0  0  0  0  0  0  0
   -0.8564   -3.6918    5.4298 H   0  0  0  0  0  0  0  0  0  0  0  0
   -1.4233   -4.2111    3.8229 H   0  0  0  0  0  0  0  0  0  0  0  0
   -0.3775   -5.2748    4.7863 H   0  0  0  0  0  0  0  0  0  0  0  0
  1  2  2  0  0  0  0
  1  3  1  0  0  0  0
  1  7  1  0  0  0  0
  3  4  1  0  0  0  0
  3  5  1  0  0  0  0
  3  6  1  0  0  0  0
  7  8  1  0  0  0  0
  7 12  1  0  0  0  0
  8  9  1  0  0  0  0
  8 11  1  0  0  0  0
  8 13  1  0  0  0  0
  9 10  2  0  0  0  0
  9 17  1  0  0  0  0
 11 14  1  0  0  0  0
 11 15  1  0  0  0  0
 11 16  1  0  0  0  0
 17 18  1  0  0  0  0
 17 27  1  0  0  0  0
 18 19  1  0  0  0  0
 18 21  1  0  0  0  0
 18 28  1  0  0  0  0
 19 20  2  0  0  0  0
 19 35  1  0  0  0  0
 21 22  1  0  0  0  0
 21 29  1  0  0  0  0
 21 30  1  0  0  0  0
 22 23  1  0  0  0  0
 22 24  2  0  0  0  0
 23 25  2  0  0  0  0
 23 31  1  0  0  0  0
 24 26  1  0  0  0  0
 24 32  1  0  0  0  0
 25 26  1  0  0  0  0
 25 33  1  0  0  0  0
 26 34  1  0  0  0  0
 35 36  1  0  0  0  0
 35 40  1  0  0  0  0
 36 37  1  0  0  0  0
 36 39  1  0  0  0  0
 36 41  1  0  0  0  0
 37 38  2  0  0  0  0
 37 45  1  0  0  0  0
 39 42  1  0  0  0  0
 39 43  1  0  0  0  0
 39 44  1  0  0  0  0
 45 46  1  0  0  0  0
 45 47  1  0  0  0  0
 46 48  1  0  0  0  0
 46 49  1  0  0  0  0
 46 50  1  0  0  0  0
M  CHG  1  23   1
M  END
$$$$

  -OEChem-05262216443D

 50 50  0     1  0  0  0  0  0999 V2000
   -1.9674   -0.2025    4.4934 C   0  0  0  0  0  0  0  0  0  0  0  0
   -1.4612   -1.2631    4.1651 O   0  0  0  0  0  0  0  0  0  0  0  0
   -2.1432    0.1284    5.9630 C   0  0  0  0  0  0  0  0  0  0  0  0
   -3.1943    0.3385    6.1762 H   0  0  0  0  0  0  0  0  0  0  0  0
   -1.8218   -0.7150    6.5808 H   0  0  0  0  0  0  0  0  0  0  0  0
   -1.5427    1.0036    6.2232 H   0  0  0  0  0  0  0  0  0  0  0  0
   -2.3474    0.7140    3.5332 N   0  0  0  0  0  0  0  0  0  0  0  0
   -2.0449    0.5510    2.1016 C   0  0  2  0  0  0  0  0  0  0  0  0
   -0.6034    0.9754    1.7219 C   0  0  0  0  0  0  0  0  0  0  0  0
    0.1428    1.4804    2.5544 O   0  0  0  0  0  0  0  0  0  0  0  0
   -3.0803    1.3696    1.3258 C   0  0  0  0  0  0  0  0  0  0  0  0
   -2.6058    1.6360    3.8712 H   0  0  0  0  0  0  0  0  0  0  0  0
   -2.1667   -0.5023    1.8245 H   0  0  0  0  0  0  0  0  0  0  0  0
   -2.9720    2.4362    1.5468 H   0  0  0  0  0  0  0  0  0  0  0  0
   -2.9607    1.2208    0.2483 H   0  0  0  0  0  0  0  0  0  0  0  0
   -4.0926    1.0567    1.6023 H   0  0  0  0  0  0  0  0  0  0  0  0
   -0.1390    0.8784    0.4175 N   0  0  0  0  0  0  0  0  0  0  0  0
    1.2813    0.6629    0.0319 C   0  0  2  0  0  0  0  0  0  0  0  0
    2.0734   -0.4233    0.7983 C   0  0  0  0  0  0  0  0  0  0  0  0
    2.8974   -1.0617    0.1579 O   0  0  0  0  0  0  0  0  0  0  0  0
    2.0875    1.9719    0.1190 C   0  0  0  0  0  0  0  0  0  0  0  0
    1.5828    2.9929   -0.8654 C   0  0  0  0  0  0  0  0  0  0  0  0
    1.7979    2.9856   -2.2436 N   0  3  0  0  0  0  0  0  0  0  0  0
    0.8672    4.1210   -0.5597 C   0  0  0  0  0  0  0  0  0  0  0  0
    1.2489    4.0427   -2.7917 C   0  0  0  0  0  0  0  0  0  0  0  0
    0.6527    4.7766   -1.7668 N   0  0  0  0  0  0  0  0  0  0  0  0
   -0.7977    0.3629   -0.1650 H   0  0  0  0  0  0  0  0  0  0  0  0
    1.2756    0.3302   -1.0109 H   0  0  0  0  0  0  0  0  0  0  0  0
    3.1441    1.7679   -0.0898 H   0  0  0  0  0  0  0  0  0  0  0  0
    2.0384    2.3734    1.1364 H   0  0  0  0  0  0  0  0  0  0  0  0
    2.3269    2.2497   -2.7207 H   0  0  0  0  0  0  0  0  0  0  0  0
    0.5445    4.4246    0.4371 H   0  0  0  0  0  0  0  0  0  0  0  0
    1.2613    4.3016   -3.8522 H   0  0  0  0  0  0  0  0  0  0  0  0
    0.1521    5.6635   -1.8794 H   0  0  0  0  0  0  0  0  0  0  0  0
    1.8219   -0.7697    2.1101 N   0  0  0  0  0  0  0  0  0  0  0  0
    1.7042   -2.1939    2.4537 C   0  0  2  0  0  0  0  0  0  0  0  0
    0.3528   -2.7947    1.9759 C   0  0  0  0  0  0  0  0  0  0  0  0
   -0.3423   -2.2012    1.1504 O   0  0  0  0  0  0  0  0  0  0  0  0
    1.8930   -2.3118    3.9695 C   0  0  0  0  0  0  0  0  0  0  0  0
    1.1515   -0.1542    2.5733 H   0  0  0  0  0  0  0  0  0  0  0  0
    2.5044   -2.7649    1.9701 H   0  0  0  0  0  0  0  0  0  0  0  0
    1.0944   -1.7865    4.5011 H   0  0  0  0  0  0  0  0  0  0  0  0
    1.8884   -3.3601    4.2810 H   0  0  0  0  0  0  0  0  0  0  0  0
    2.8514   -1.8731    4.2648 H   0  0  0  0  0  0  0  0  0  0  0  0
   -0.0665   -4.0344    2.4220 N   0  0  0  0  0  0  0  0  0  0  0  0
   -1.3777   -4.5884    2.1058 C   0  0  0  0  0  0  0  0  0  0  0  0
    0.4697   -4.4597    3.1721 H   0  0  0  0  0  0  0  0  0  0  0  0
   -2.1692   -3.9481    2.5097 H   0  0  0  0  0  0  0  0  0  0  0  0
   -1.5099   -4.6725    1.0219 H   0  0  0  0  0  0  0  0  0  0  0  0
   -1.4825   -5.5864    2.5420 H   0  0  0  0  0  0  0  0  0  0  0  0
  1  2  2  0  0  0  0
  1  3  1  0  0  0  0
  1  7  1  0  0  0  0
  3  4  1  0  0  0  0
  3  5  1  0  0  0  0
  3  6  1  0  0  0  0
  7  8  1  0  0  0  0
  7 12  1  0  0  0  0
  8  9  1  0  0  0  0
  8 11  1  0  0  0  0
  8 13  1  0  0  0  0
  9 10  2  0  0  0  0
  9 17  1  0  0  0  0
 11 14  1  0  0  0  0
 11 15  1  0  0  0  0
 11 16  1  0  0  0  0
 17 18  1  0  0  0  0
 17 27  1  0  0  0  0
 18 19  1  0  0  0  0
 18 21  1  0  0  0  0
 18 28  1  0  0  0  0
 19 20  2  0  0  0  0
 19 35  1  0  0  0  0
 21 22  1  0  0  0  0
 21 29  1  0  0  0  0
 21 30  1  0  0  0  0
 22 23  1  0  0  0  0
 22 24  2  0  0  0  0
 23 25  2  0  0  0  0
 23 31  1  0  0  0  0
 24 26  1  0  0  0  0
 24 32  1  0  0  0  0
 25 26  1  0  0  0  0
 25 33  1  0  0  0  0
 26 34  1  0  0  0  0
 35 36  1  0  0  0  0
 35 40  1  0  0  0  0
 36 37  1  0  0  0  0
 36 39  1  0  0  0  0
 36 41  1  0  0  0  0
 37 38  2  0  0  0  0
 37 45  1  0  0  0  0
 39 42  1  0  0  0  0
 39 43  1  0  0  0  0
 39 44  1  0  0  0  0
 45 46  1  0  0  0  0
 45 47  1  0  0  0  0
 46 48  1  0  0  0  0
 46 49  1  0  0  0  0
 46 50  1  0  0  0  0
M  CHG  1  23   1
M  END
$$$$

  -OEChem-05262216443D

 50 50  0     1  0  0  0  0  0999 V2000
   -2.2077   -0.4430    3.9823 C   0  0  0  0  0  0  0  0  0  0  0  0
   -2.0650   -1.5755    4.4060 O   0  0  0  0  0  0  0  0  0  0  0  0
   -2.1935    0.7312    4.9470 C   0  0  0  0  0  0  0  0  0  0  0  0
   -1.3862    1.4228    4.6989 H   0  0  0  0  0  0  0  0  0  0  0  0
   -3.1500    1.2570    4.9119 H   0  0  0  0  0  0  0  0  0  0  0  0
   -2.0357    0.3715    5.9675 H   0  0  0  0  0  0  0  0  0  0  0  0
   -2.3675   -0.3825    2.6151 N   0  0  0  0  0  0  0  0  0  0  0  0
   -2.1962    0.7712    1.7176 C   0  0  2  0  0  0  0  0  0  0  0  0
   -0.7028    1.1116    1.5127 C   0  0  0  0  0  0  0  0  0  0  0  0
   -0.0272    1.5471    2.4347 O   0  0  0  0  0  0  0  0  0  0  0  0
   -3.0214    1.9988    2.1283 C   0  0  0  0  0  0  0  0  0  0  0  0
   -2.2067   -1.3021    2.1916 H   0  0  0  0  0  0  0  0  0  0  0  0
   -2.5883    0.4550    0.7459 H   0  0  0  0  0  0  0  0  0  0  0  0
   -2.5706    2.5211    2.9758 H   0  0  0  0  0  0  0  0  0  0  0  0
   -3.0803    2.7055    1.2949 H   0  0  0  0  0  0  0  0  0  0  0  0
   -4.0394    1.6998    2.3978 H   0  0  0  0  0  0  0  0  0  0  0  0
   -0.0848    0.8629    0.2975 N   0  0  0  0  0  0  0  0  0  0  0  0
    1.3523    0.5335    0.1065 C   0  0  2  0  0  0  0  0  0  0  0  0
    1.9896   -0.5149    1.0534 C   0  0  0  0  0  0  0  0  0  0  0  0
    2.9416   -1.1413    0.6104 O   0  0  0  0  0  0  0  0  0  0  0  0
    2.2141    1.8082    0.2015 C   0  0  0  0  0  0  0  0  0  0  0  0
    1.8952    2.7790   -0.9048 C   0  0  0  0  0  0  0  0  0  0  0  0
    2.2762    2.6636   -2.2421 N   0  3  0  0  0  0  0  0  0  0  0  0
    1.2209    3.9640   -0.7633 C   0  0  0  0  0  0  0  0  0  0  0  0
    1.8691    3.7103   -2.9192 C   0  0  0  0  0  0  0  0  0  0  0  0
    1.1971    4.5443   -2.0263 N   0  0  0  0  0  0  0  0  0  0  0  0
   -0.7070    0.3901   -0.3564 H   0  0  0  0  0  0  0  0  0  0  0  0
    1.4542    0.1148   -0.9000 H   0  0  0  0  0  0  0  0  0  0  0  0
    3.2761    1.5421    0.1422 H   0  0  0  0  0  0  0  0  0  0  0  0
    2.0640    2.2855    1.1755 H   0  0  0  0  0  0  0  0  0  0  0  0
    2.8214    1.8735   -2.6000 H   0  0  0  0  0  0  0  0  0  0  0  0
    0.8036    4.3589    0.1640 H   0  0  0  0  0  0  0  0  0  0  0  0
    2.0338    3.8980   -3.9822 H   0  0  0  0  0  0  0  0  0  0  0  0
    0.7754    5.4496   -2.2553 H   0  0  0  0  0  0  0  0  0  0  0  0
    1.3998   -0.9274    2.2304 N   0  0  0  0  0  0  0  0  0  0  0  0
    1.2806   -2.3491    2.5810 C   0  0  2  0  0  0  0  0  0  0  0  0
   -0.0464   -2.9503    2.0509 C   0  0  0  0  0  0  0  0  0  0  0  0
   -0.7501   -2.3128    1.2656 O   0  0  0  0  0  0  0  0  0  0  0  0
    1.3971   -2.4520    4.1054 C   0  0  0  0  0  0  0  0  0  0  0  0
    0.6416   -0.3252    2.5483 H   0  0  0  0  0  0  0  0  0  0  0  0
    2.1007   -2.9253    2.1383 H   0  0  0  0  0  0  0  0  0  0  0  0
    2.3470   -2.0228    4.4398 H   0  0  0  0  0  0  0  0  0  0  0  0
    0.5821   -1.9100    4.5941 H   0  0  0  0  0  0  0  0  0  0  0  0
    1.3627   -3.4964    4.4290 H   0  0  0  0  0  0  0  0  0  0  0  0
   -0.4614   -4.2093    2.4406 N   0  0  0  0  0  0  0  0  0  0  0  0
   -1.7679   -4.7596    2.0979 C   0  0  0  0  0  0  0  0  0  0  0  0
    0.0764   -4.6668    3.1713 H   0  0  0  0  0  0  0  0  0  0  0  0
   -2.5648   -4.1654    2.5579 H   0  0  0  0  0  0  0  0  0  0  0  0
   -1.9119   -4.7651    1.0122 H   0  0  0  0  0  0  0  0  0  0  0  0
   -1.8514   -5.7896    2.4583 H   0  0  0  0  0  0  0  0  0  0  0  0
  1  2  2  0  0  0  0
  1  3  1  0  0  0  0
  1  7  1  0  0  0  0
  3  4  1  0  0  0  0
  3  5  1  0  0  0  0
  3  6  1  0  0  0  0
  7  8  1  0  0  0  0
  7 12  1  0  0  0  0
  8  9  1  0  0  0  0
  8 11  1  0  0  0  0
  8 13  1  0  0  0  0
  9 10  2  0  0  0  0
  9 17  1  0  0  0  0
 11 14  1  0  0  0  0
 11 15  1  0  0  0  0
 11 16  1  0  0  0  0
 17 18  1  0  0  0  0
 17 27  1  0  0  0  0
 18 19  1  0  0  0  0
 18 21  1  0  0  0  0
 18 28  1  0  0  0  0
 19 20  2  0  0  0  0
 19 35  1  0  0  0  0
 21 22  1  0  0  0  0
 21 29  1  0  0  0  0
 21 30  1  0  0  0  0
 22 23  1  0  0  0  0
 22 24  2  0  0  0  0
 23 25  2  0  0  0  0
 23 31  1  0  0  0  0
 24 26  1  0  0  0  0
 24 32  1  0  0  0  0
 25 26  1  0  0  0  0
 25 33  1  0  0  0  0
 26 34  1  0  0  0  0
 35 36  1  0  0  0  0
 35 40  1  0  0  0  0
 36 37  1  0  0  0  0
 36 39  1  0  0  0  0
 36 41  1  0  0  0  0
 37 38  2  0  0  0  0
 37 45  1  0  0  0  0
 39 42  1  0  0  0  0
 39 43  1  0  0  0  0
 39 44  1  0  0  0  0
 45 46  1  0  0  0  0
 45 47  1  0  0  0  0
 46 48  1  0  0  0  0
 46 49  1  0  0  0  0
 46 50  1  0  0  0  0
M  CHG  1  23   1
M  END
$$$$

  -OEChem-05262216443D

 50 50  0     1  0  0  0  0  0999 V2000
   -2.4252   -0.1633    3.8812 C   0  0  0  0  0  0  0  0  0  0  0  0
   -2.0469   -0.9763    3.0517 O   0  0  0  0  0  0  0  0  0  0  0  0
   -2.6084   -0.5667    5.3309 C   0  0  0  0  0  0  0  0  0  0  0  0
   -3.6184   -0.3153    5.6642 H   0  0  0  0  0  0  0  0  0  0  0  0
   -2.4602   -1.6443    5.4428 H   0  0  0  0  0  0  0  0  0  0  0  0
   -1.8835   -0.0437    5.9593 H   0  0  0  0  0  0  0  0  0  0  0  0
   -2.6270    1.1414    3.4832 N   0  0  0  0  0  0  0  0  0  0  0  0
   -2.3239    1.5903    2.1183 C   0  0  2  0  0  0  0  0  0  0  0  0
   -0.8199    1.4850    1.7736 C   0  0  0  0  0  0  0  0  0  0  0  0
    0.0291    1.7881    2.6012 O   0  0  0  0  0  0  0  0  0  0  0  0
   -2.8083    3.0350    1.9792 C   0  0  0  0  0  0  0  0  0  0  0  0
   -2.7488    1.8347    4.2166 H   0  0  0  0  0  0  0  0  0  0  0  0
   -2.8807    0.9648    1.4118 H   0  0  0  0  0  0  0  0  0  0  0  0
   -2.2679    3.6898    2.6710 H   0  0  0  0  0  0  0  0  0  0  0  0
   -2.6458    3.3959    0.9592 H   0  0  0  0  0  0  0  0  0  0  0  0
   -3.8785    3.0994    2.2010 H   0  0  0  0  0  0  0  0  0  0  0  0
   -0.4144    1.1606    0.4885 N   0  0  0  0  0  0  0  0  0  0  0  0
    0.9157    0.6064    0.1364 C   0  0  2  0  0  0  0  0  0  0  0  0
    1.4933   -0.5471    0.9998 C   0  0  0  0  0  0  0  0  0  0  0  0
    2.5642   -1.0180    0.6328 O   0  0  0  0  0  0  0  0  0  0  0  0
    1.9549    1.7509    0.0976 C   0  0  0  0  0  0  0  0  0  0  0  0
    1.6421    2.7472   -0.9862 C   0  0  0  0  0  0  0  0  0  0  0  0
    1.8403    2.5641   -2.3543 N   0  3  0  0  0  0  0  0  0  0  0  0
    1.1671    4.0185   -0.7975 C   0  0  0  0  0  0  0  0  0  0  0  0
    1.5088    3.6519   -3.0072 C   0  0  0  0  0  0  0  0  0  0  0  0
    1.0748    4.5835   -2.0643 N   0  0  0  0  0  0  0  0  0  0  0  0
   -1.1811    0.8443   -0.1025 H   0  0  0  0  0  0  0  0  0  0  0  0
    0.8288    0.1790   -0.8672 H   0  0  0  0  0  0  0  0  0  0  0  0
    2.9574    1.3489   -0.0860 H   0  0  0  0  0  0  0  0  0  0  0  0
    1.9939    2.2491    1.0717 H   0  0  0  0  0  0  0  0  0  0  0  0
    2.2213    1.6992   -2.7497 H   0  0  0  0  0  0  0  0  0  0  0  0
    0.9274    4.4766    0.1630 H   0  0  0  0  0  0  0  0  0  0  0  0
    1.5705    3.8024   -4.0868 H   0  0  0  0  0  0  0  0  0  0  0  0
    0.7660    5.5392   -2.2662 H   0  0  0  0  0  0  0  0  0  0  0  0
    0.8532   -1.1124    2.0899 N   0  0  0  0  0  0  0  0  0  0  0  0
    1.1454   -2.4997    2.4852 C   0  0  2  0  0  0  0  0  0  0  0  0
    0.4094   -3.5256    1.5873 C   0  0  0  0  0  0  0  0  0  0  0  0
   -0.3036   -3.1574    0.6577 O   0  0  0  0  0  0  0  0  0  0  0  0
    0.7660   -2.6711    3.9590 C   0  0  0  0  0  0  0  0  0  0  0  0
   -0.1081   -0.8045    2.2449 H   0  0  0  0  0  0  0  0  0  0  0  0
    2.2195   -2.6942    2.3964 H   0  0  0  0  0  0  0  0  0  0  0  0
   -0.3178   -2.6130    4.0891 H   0  0  0  0  0  0  0  0  0  0  0  0
    1.1047   -3.6425    4.3314 H   0  0  0  0  0  0  0  0  0  0  0  0
    1.2344   -1.8887    4.5645 H   0  0  0  0  0  0  0  0  0  0  0  0
    0.5853   -4.8823    1.7920 N   0  0  0  0  0  0  0  0  0  0  0  0
   -0.0398   -5.9062    0.9621 C   0  0  0  0  0  0  0  0  0  0  0  0
    1.2111   -5.1689    2.5386 H   0  0  0  0  0  0  0  0  0  0  0  0
   -1.1287   -5.7894    0.9635 H   0  0  0  0  0  0  0  0  0  0  0  0
    0.3201   -5.8352   -0.0698 H   0  0  0  0  0  0  0  0  0  0  0  0
    0.1996   -6.9032    1.3447 H   0  0  0  0  0  0  0  0  0  0  0  0
  1  2  2  0  0  0  0
  1  3  1  0  0  0  0
  1  7  1  0  0  0  0
  3  4  1  0  0  0  0
  3  5  1  0  0  0  0
  3  6  1  0  0  0  0
  7  8  1  0  0  0  0
  7 12  1  0  0  0  0
  8  9  1  0  0  0  0
  8 11  1  0  0  0  0
  8 13  1  0  0  0  0
  9 10  2  0  0  0  0
  9 17  1  0  0  0  0
 11 14  1  0  0  0  0
 11 15  1  0  0  0  0
 11 16  1  0  0  0  0
 17 18  1  0  0  0  0
 17 27  1  0  0  0  0
 18 19  1  0  0  0  0
 18 21  1  0  0  0  0
 18 28  1  0  0  0  0
 19 20  2  0  0  0  0
 19 35  1  0  0  0  0
 21 22  1  0  0  0  0
 21 29  1  0  0  0  0
 21 30  1  0  0  0  0
 22 23  1  0  0  0  0
 22 24  2  0  0  0  0
 23 25  2  0  0  0  0
 23 31  1  0  0  0  0
 24 26  1  0  0  0  0
 24 32  1  0  0  0  0
 25 26  1  0  0  0  0
 25 33  1  0  0  0  0
 26 34  1  0  0  0  0
 35 36  1  0  0  0  0
 35 40  1  0  0  0  0
 36 37  1  0  0  0  0
 36 39  1  0  0  0  0
 36 41  1  0  0  0  0
 37 38  2  0  0  0  0
 37 45  1  0  0  0  0
 39 42  1  0  0  0  0
 39 43  1  0  0  0  0
 39 44  1  0  0  0  0
 45 46  1  0  0  0  0
 45 47  1  0  0  0  0
 46 48  1  0  0  0  0
 46 49  1  0  0  0  0
 46 50  1  0  0  0  0
M  CHG  1  23   1
M  END
$$$$

  -OEChem-05262216443D

 50 50  0     1  0  0  0  0  0999 V2000
   -2.6050   -0.1806    3.6242 C   0  0  0  0  0  0  0  0  0  0  0  0
   -2.3454   -0.8603    2.6416 O   0  0  0  0  0  0  0  0  0  0  0  0
   -2.8481   -0.8278    4.9736 C   0  0  0  0  0  0  0  0  0  0  0  0
   -2.9257   -1.9130    4.8633 H   0  0  0  0  0  0  0  0  0  0  0  0
   -2.0219   -0.5995    5.6514 H   0  0  0  0  0  0  0  0  0  0  0  0
   -3.7794   -0.4540    5.4062 H   0  0  0  0  0  0  0  0  0  0  0  0
   -2.6088    1.1919    3.4942 N   0  0  0  0  0  0  0  0  0  0  0  0
   -2.2395    1.8540    2.2377 C   0  0  2  0  0  0  0  0  0  0  0  0
   -0.7607    1.6084    1.8605 C   0  0  0  0  0  0  0  0  0  0  0  0
    0.1287    1.8579    2.6628 O   0  0  0  0  0  0  0  0  0  0  0  0
   -2.5243    3.3504    2.3883 C   0  0  0  0  0  0  0  0  0  0  0  0
   -2.6273    1.7382    4.3518 H   0  0  0  0  0  0  0  0  0  0  0  0
   -2.8696    1.4623    1.4319 H   0  0  0  0  0  0  0  0  0  0  0  0
   -1.9193    3.7790    3.1943 H   0  0  0  0  0  0  0  0  0  0  0  0
   -2.2892    3.8785    1.4592 H   0  0  0  0  0  0  0  0  0  0  0  0
   -3.5816    3.5145    2.6202 H   0  0  0  0  0  0  0  0  0  0  0  0
   -0.4179    1.2070    0.5776 N   0  0  0  0  0  0  0  0  0  0  0  0
    0.8718    0.5669    0.2240 C   0  0  2  0  0  0  0  0  0  0  0  0
    1.3859   -0.5699    1.1472 C   0  0  0  0  0  0  0  0  0  0  0  0
    2.5206   -0.9928    0.9547 O   0  0  0  0  0  0  0  0  0  0  0  0
    1.9636    1.6548    0.0843 C   0  0  0  0  0  0  0  0  0  0  0  0
    1.6632    2.5957   -1.0517 C   0  0  0  0  0  0  0  0  0  0  0  0
    1.8102    2.3148   -2.4097 N   0  3  0  0  0  0  0  0  0  0  0  0
    1.2494    3.8966   -0.9351 C   0  0  0  0  0  0  0  0  0  0  0  0
    1.5034    3.3703   -3.1243 C   0  0  0  0  0  0  0  0  0  0  0  0
    1.1407    4.3804   -2.2338 N   0  0  0  0  0  0  0  0  0  0  0  0
   -1.2186    0.9139    0.0205 H   0  0  0  0  0  0  0  0  0  0  0  0
    0.7359    0.0844   -0.7485 H   0  0  0  0  0  0  0  0  0  0  0  0
    2.9409    1.1965   -0.1023 H   0  0  0  0  0  0  0  0  0  0  0  0
    2.0539    2.2090    1.0241 H   0  0  0  0  0  0  0  0  0  0  0  0
    2.1396    1.4092   -2.7573 H   0  0  0  0  0  0  0  0  0  0  0  0
    1.0591    4.4272   -0.0014 H   0  0  0  0  0  0  0  0  0  0  0  0
    1.5344    3.4455   -4.2131 H   0  0  0  0  0  0  0  0  0  0  0  0
    0.8631    5.3324   -2.4905 H   0  0  0  0  0  0  0  0  0  0  0  0
    0.5844   -1.2124    2.0767 N   0  0  0  0  0  0  0  0  0  0  0  0
    0.8747   -2.6068    2.4467 C   0  0  2  0  0  0  0  0  0  0  0  0
    0.5162   -3.5975    1.3112 C   0  0  0  0  0  0  0  0  0  0  0  0
   -0.1289   -3.2306    0.3328 O   0  0  0  0  0  0  0  0  0  0  0  0
    0.0961   -2.9437    3.7204 C   0  0  0  0  0  0  0  0  0  0  0  0
   -0.4053   -0.9579    2.0514 H   0  0  0  0  0  0  0  0  0  0  0  0
    1.9429   -2.7128    2.6644 H   0  0  0  0  0  0  0  0  0  0  0  0
   -0.9788   -2.9599    3.5186 H   0  0  0  0  0  0  0  0  0  0  0  0
    0.3886   -3.9279    4.0985 H   0  0  0  0  0  0  0  0  0  0  0  0
    0.2981   -2.2006    4.4981 H   0  0  0  0  0  0  0  0  0  0  0  0
    0.9352   -4.9137    1.3773 N   0  0  0  0  0  0  0  0  0  0  0  0
    0.6625   -5.8941    0.3323 C   0  0  0  0  0  0  0  0  0  0  0  0
    1.5093   -5.1868    2.1694 H   0  0  0  0  0  0  0  0  0  0  0  0
   -0.4166   -5.9983    0.1770 H   0  0  0  0  0  0  0  0  0  0  0  0
    1.1259   -5.5875   -0.6113 H   0  0  0  0  0  0  0  0  0  0  0  0
    1.0658   -6.8716    0.6142 H   0  0  0  0  0  0  0  0  0  0  0  0
  1  2  2  0  0  0  0
  1  3  1  0  0  0  0
  1  7  1  0  0  0  0
  3  4  1  0  0  0  0
  3  5  1  0  0  0  0
  3  6  1  0  0  0  0
  7  8  1  0  0  0  0
  7 12  1  0  0  0  0
  8  9  1  0  0  0  0
  8 11  1  0  0  0  0
  8 13  1  0  0  0  0
  9 10  2  0  0  0  0
  9 17  1  0  0  0  0
 11 14  1  0  0  0  0
 11 15  1  0  0  0  0
 11 16  1  0  0  0  0
 17 18  1  0  0  0  0
 17 27  1  0  0  0  0
 18 19  1  0  0  0  0
 18 21  1  0  0  0  0
 18 28  1  0  0  0  0
 19 20  2  0  0  0  0
 19 35  1  0  0  0  0
 21 22  1  0  0  0  0
 21 29  1  0  0  0  0
 21 30  1  0  0  0  0
 22 23  1  0  0  0  0
 22 24  2  0  0  0  0
 23 25  2  0  0  0  0
 23 31  1  0  0  0  0
 24 26  1  0  0  0  0
 24 32  1  0  0  0  0
 25 26  1  0  0  0  0
 25 33  1  0  0  0  0
 26 34  1  0  0  0  0
 35 36  1  0  0  0  0
 35 40  1  0  0  0  0
 36 37  1  0  0  0  0
 36 39  1  0  0  0  0
 36 41  1  0  0  0  0
 37 38  2  0  0  0  0
 37 45  1  0  0  0  0
 39 42  1  0  0  0  0
 39 43  1  0  0  0  0
 39 44  1  0  0  0  0
 45 46  1  0  0  0  0
 45 47  1  0  0  0  0
 46 48  1  0  0  0  0
 46 49  1  0  0  0  0
 46 50  1  0  0  0  0
M  CHG  1  23   1
M  END
$$$$

  -OEChem-05262216443D

 50 50  0     1  0  0  0  0  0999 V2000
   -2.7121   -0.2974    3.2184 C   0  0  0  0  0  0  0  0  0  0  0  0
   -2.4163   -0.7809    2.1341 O   0  0  0  0  0  0  0  0  0  0  0  0
   -3.1322   -1.1840    4.3744 C   0  0  0  0  0  0  0  0  0  0  0  0
   -3.3120   -2.2033    4.0219 H   0  0  0  0  0  0  0  0  0  0  0  0
   -2.3470   -1.2046    5.1342 H   0  0  0  0  0  0  0  0  0  0  0  0
   -4.0529   -0.8035    4.8231 H   0  0  0  0  0  0  0  0  0  0  0  0
   -2.6007    1.0662    3.3880 N   0  0  0  0  0  0  0  0  0  0  0  0
   -2.1483    1.9662    2.3210 C   0  0  2  0  0  0  0  0  0  0  0  0
   -0.6802    1.7017    1.9112 C   0  0  0  0  0  0  0  0  0  0  0  0
    0.2370    1.9832    2.6699 O   0  0  0  0  0  0  0  0  0  0  0  0
   -2.3392    3.4071    2.8054 C   0  0  0  0  0  0  0  0  0  0  0  0
   -2.7092    1.4330    4.3305 H   0  0  0  0  0  0  0  0  0  0  0  0
   -2.7811    1.8179    1.4393 H   0  0  0  0  0  0  0  0  0  0  0  0
   -1.7385    3.5968    3.7014 H   0  0  0  0  0  0  0  0  0  0  0  0
   -2.0319    4.1130    2.0276 H   0  0  0  0  0  0  0  0  0  0  0  0
   -3.3910    3.5933    3.0451 H   0  0  0  0  0  0  0  0  0  0  0  0
   -0.3861    1.2295    0.6396 N   0  0  0  0  0  0  0  0  0  0  0  0
    0.8941    0.5755    0.2793 C   0  0  2  0  0  0  0  0  0  0  0  0
    1.4098   -0.4943    1.2761 C   0  0  0  0  0  0  0  0  0  0  0  0
    2.5922   -0.8180    1.2520 O   0  0  0  0  0  0  0  0  0  0  0  0
    1.9801    1.6509    0.0407 C   0  0  0  0  0  0  0  0  0  0  0  0
    1.6400    2.5252   -1.1364 C   0  0  0  0  0  0  0  0  0  0  0  0
    1.7394    2.1674   -2.4806 N   0  3  0  0  0  0  0  0  0  0  0  0
    1.2319    3.8320   -1.0796 C   0  0  0  0  0  0  0  0  0  0  0  0
    1.4077    3.1813   -3.2428 C   0  0  0  0  0  0  0  0  0  0  0  0
    1.0770    4.2415   -2.3991 N   0  0  0  0  0  0  0  0  0  0  0  0
   -1.2079    0.8864    0.1436 H   0  0  0  0  0  0  0  0  0  0  0  0
    0.7344    0.0289   -0.6552 H   0  0  0  0  0  0  0  0  0  0  0  0
    2.9494    1.1787   -0.1540 H   0  0  0  0  0  0  0  0  0  0  0  0
    2.1024    2.2569    0.9446 H   0  0  0  0  0  0  0  0  0  0  0  0
    2.0546    1.2423   -2.7873 H   0  0  0  0  0  0  0  0  0  0  0  0
    1.0761    4.4154   -0.1712 H   0  0  0  0  0  0  0  0  0  0  0  0
    1.3997    3.1937   -4.3345 H   0  0  0  0  0  0  0  0  0  0  0  0
    0.7890    5.1775   -2.6997 H   0  0  0  0  0  0  0  0  0  0  0  0
    0.5234   -1.2437    2.0303 N   0  0  0  0  0  0  0  0  0  0  0  0
    0.8488   -2.6378    2.3657 C   0  0  2  0  0  0  0  0  0  0  0  0
    0.7475   -3.5707    1.1337 C   0  0  0  0  0  0  0  0  0  0  0  0
    0.2191   -3.1849    0.0942 O   0  0  0  0  0  0  0  0  0  0  0  0
   -0.1097   -3.0978    3.4653 C   0  0  0  0  0  0  0  0  0  0  0  0
   -0.4635   -1.0506    1.8446 H   0  0  0  0  0  0  0  0  0  0  0  0
    1.8715   -2.6946    2.7542 H   0  0  0  0  0  0  0  0  0  0  0  0
   -1.1365   -3.1266    3.0882 H   0  0  0  0  0  0  0  0  0  0  0  0
    0.1587   -4.0999    3.8132 H   0  0  0  0  0  0  0  0  0  0  0  0
   -0.0653   -2.4135    4.3182 H   0  0  0  0  0  0  0  0  0  0  0  0
    1.2500   -4.8577    1.1896 N   0  0  0  0  0  0  0  0  0  0  0  0
    1.1952   -5.7885    0.0677 C   0  0  0  0  0  0  0  0  0  0  0  0
    1.7248   -5.1424    2.0415 H   0  0  0  0  0  0  0  0  0  0  0  0
    0.1569   -5.9665   -0.2325 H   0  0  0  0  0  0  0  0  0  0  0  0
    1.7461   -5.3881   -0.7900 H   0  0  0  0  0  0  0  0  0  0  0  0
    1.6418   -6.7476    0.3480 H   0  0  0  0  0  0  0  0  0  0  0  0
  1  2  2  0  0  0  0
  1  3  1  0  0  0  0
  1  7  1  0  0  0  0
  3  4  1  0  0  0  0
  3  5  1  0  0  0  0
  3  6  1  0  0  0  0
  7  8  1  0  0  0  0
  7 12  1  0  0  0  0
  8  9  1  0  0  0  0
  8 11  1  0  0  0  0
  8 13  1  0  0  0  0
  9 10  2  0  0  0  0
  9 17  1  0  0  0  0
 11 14  1  0  0  0  0
 11 15  1  0  0  0  0
 11 16  1  0  0  0  0
 17 18  1  0  0  0  0
 17 27  1  0  0  0  0
 18 19  1  0  0  0  0
 18 21  1  0  0  0  0
 18 28  1  0  0  0  0
 19 20  2  0  0  0  0
 19 35  1  0  0  0  0
 21 22  1  0  0  0  0
 21 29  1  0  0  0  0
 21 30  1  0  0  0  0
 22 23  1  0  0  0  0
 22 24  2  0  0  0  0
 23 25  2  0  0  0  0
 23 31  1  0  0  0  0
 24 26  1  0  0  0  0
 24 32  1  0  0  0  0
 25 26  1  0  0  0  0
 25 33  1  0  0  0  0
 26 34  1  0  0  0  0
 35 36  1  0  0  0  0
 35 40  1  0  0  0  0
 36 37  1  0  0  0  0
 36 39  1  0  0  0  0
 36 41  1  0  0  0  0
 37 38  2  0  0  0  0
 37 45  1  0  0  0  0
 39 42  1  0  0  0  0
 39 43  1  0  0  0  0
 39 44  1  0  0  0  0
 45 46  1  0  0  0  0
 45 47  1  0  0  0  0
 46 48  1  0  0  0  0
 46 49  1  0  0  0  0
 46 50  1  0  0  0  0
M  CHG  1  23   1
M  END
$$$$

  -OEChem-05262216443D

 50 50  0     1  0  0  0  0  0999 V2000
   -2.7842   -0.3221    2.7317 C   0  0  0  0  0  0  0  0  0  0  0  0
   -2.4405   -0.5627    1.5820 O   0  0  0  0  0  0  0  0  0  0  0  0
   -3.4127   -1.4018    3.5908 C   0  0  0  0  0  0  0  0  0  0  0  0
   -3.5472   -2.3176    3.0083 H   0  0  0  0  0  0  0  0  0  0  0  0
   -2.7716   -1.6187    4.4487 H   0  0  0  0  0  0  0  0  0  0  0  0
   -4.3900   -1.0710    3.9513 H   0  0  0  0  0  0  0  0  0  0  0  0
   -2.5559    0.9344    3.2521 N   0  0  0  0  0  0  0  0  0  0  0  0
   -2.0395    2.0669    2.4711 C   0  0  2  0  0  0  0  0  0  0  0  0
   -0.5889    1.8479    1.9742 C   0  0  0  0  0  0  0  0  0  0  0  0
    0.3718    2.2125    2.6375 O   0  0  0  0  0  0  0  0  0  0  0  0
   -2.1642    3.3193    3.3473 C   0  0  0  0  0  0  0  0  0  0  0  0
   -2.7932    1.0855    4.2297 H   0  0  0  0  0  0  0  0  0  0  0  0
   -2.6724    2.2116    1.5892 H   0  0  0  0  0  0  0  0  0  0  0  0
   -1.5763    3.2098    4.2650 H   0  0  0  0  0  0  0  0  0  0  0  0
   -1.7995    4.1990    2.8080 H   0  0  0  0  0  0  0  0  0  0  0  0
   -3.2098    3.4918    3.6209 H   0  0  0  0  0  0  0  0  0  0  0  0
   -0.3750    1.2940    0.7201 N   0  0  0  0  0  0  0  0  0  0  0  0
    0.8740    0.5948    0.3437 C   0  0  2  0  0  0  0  0  0  0  0  0
    1.3836   -0.4064    1.4086 C   0  0  0  0  0  0  0  0  0  0  0  0
    2.5826   -0.6227    1.5421 O   0  0  0  0  0  0  0  0  0  0  0  0
    1.9737    1.6145   -0.0287 C   0  0  0  0  0  0  0  0  0  0  0  0
    1.5952    2.4091   -1.2500 C   0  0  0  0  0  0  0  0  0  0  0  0
    1.6127    1.9528   -2.5678 N   0  3  0  0  0  0  0  0  0  0  0  0
    1.2281    3.7291   -1.2691 C   0  0  0  0  0  0  0  0  0  0  0  0
    1.2717    2.9199   -3.3847 C   0  0  0  0  0  0  0  0  0  0  0  0
    1.0185    4.0483   -2.6056 N   0  0  0  0  0  0  0  0  0  0  0  0
   -1.2294    0.8786    0.3428 H   0  0  0  0  0  0  0  0  0  0  0  0
    0.6606   -0.0172   -0.5383 H   0  0  0  0  0  0  0  0  0  0  0  0
    2.9166    1.0957   -0.2332 H   0  0  0  0  0  0  0  0  0  0  0  0
    2.1606    2.2822    0.8188 H   0  0  0  0  0  0  0  0  0  0  0  0
    1.8729    0.9951   -2.8211 H   0  0  0  0  0  0  0  0  0  0  0  0
    1.1340    4.3798   -0.3988 H   0  0  0  0  0  0  0  0  0  0  0  0
    1.2047    2.8544   -4.4724 H   0  0  0  0  0  0  0  0  0  0  0  0
    0.7433    4.9694   -2.9591 H   0  0  0  0  0  0  0  0  0  0  0  0
    0.4702   -1.2632    1.9969 N   0  0  0  0  0  0  0  0  0  0  0  0
    0.8661   -2.6429    2.3120 C   0  0  2  0  0  0  0  0  0  0  0  0
    1.0375   -3.5009    1.0346 C   0  0  0  0  0  0  0  0  0  0  0  0
    0.5838   -3.1184   -0.0409 O   0  0  0  0  0  0  0  0  0  0  0  0
   -0.2068   -3.2454    3.2202 C   0  0  0  0  0  0  0  0  0  0  0  0
   -0.4872   -1.1391    1.6612 H   0  0  0  0  0  0  0  0  0  0  0  0
    1.8185   -2.6393    2.8533 H   0  0  0  0  0  0  0  0  0  0  0  0
   -1.1651   -3.2993    2.6941 H   0  0  0  0  0  0  0  0  0  0  0  0
    0.0760   -4.2567    3.5292 H   0  0  0  0  0  0  0  0  0  0  0  0
   -0.3310   -2.6327    4.1185 H   0  0  0  0  0  0  0  0  0  0  0  0
    1.6992   -4.7134    1.0916 N   0  0  0  0  0  0  0  0  0  0  0  0
    1.9239   -5.5600   -0.0748 C   0  0  0  0  0  0  0  0  0  0  0  0
    2.1219   -4.9777    1.9770 H   0  0  0  0  0  0  0  0  0  0  0  0
    0.9719   -5.8246   -0.5478 H   0  0  0  0  0  0  0  0  0  0  0  0
    2.5504   -5.0429   -0.8092 H   0  0  0  0  0  0  0  0  0  0  0  0
    2.4293   -6.4848    0.2203 H   0  0  0  0  0  0  0  0  0  0  0  0
  1  2  2  0  0  0  0
  1  3  1  0  0  0  0
  1  7  1  0  0  0  0
  3  4  1  0  0  0  0
  3  5  1  0  0  0  0
  3  6  1  0  0  0  0
  7  8  1  0  0  0  0
  7 12  1  0  0  0  0
  8  9  1  0  0  0  0
  8 11  1  0  0  0  0
  8 13  1  0  0  0  0
  9 10  2  0  0  0  0
  9 17  1  0  0  0  0
 11 14  1  0  0  0  0
 11 15  1  0  0  0  0
 11 16  1  0  0  0  0
 17 18  1  0  0  0  0
 17 27  1  0  0  0  0
 18 19  1  0  0  0  0
 18 21  1  0  0  0  0
 18 28  1  0  0  0  0
 19 20  2  0  0  0  0
 19 35  1  0  0  0  0
 21 22  1  0  0  0  0
 21 29  1  0  0  0  0
 21 30  1  0  0  0  0
 22 23  1  0  0  0  0
 22 24  2  0  0  0  0
 23 25  2  0  0  0  0
 23 31  1  0  0  0  0
 24 26  1  0  0  0  0
 24 32  1  0  0  0  0
 25 26  1  0  0  0  0
 25 33  1  0  0  0  0
 26 34  1  0  0  0  0
 35 36  1  0  0  0  0
 35 40  1  0  0  0  0
 36 37  1  0  0  0  0
 36 39  1  0  0  0  0
 36 41  1  0  0  0  0
 37 38  2  0  0  0  0
 37 45  1  0  0  0  0
 39 42  1  0  0  0  0
 39 43  1  0  0  0  0
 39 44  1  0  0  0  0
 45 46  1  0  0  0  0
 45 47  1  0  0  0  0
 46 48  1  0  0  0  0
 46 49  1  0  0  0  0
 46 50  1  0  0  0  0
M  CHG  1  23   1
M  END
$$$$

  -OEChem-05262216443D

 50 50  0     1  0  0  0  0  0999 V2000
   -2.7745   -0.3174    2.6700 C   0  0  0  0  0  0  0  0  0  0  0  0
   -2.4675   -0.5310    1.5039 O   0  0  0  0  0  0  0  0  0  0  0  0
   -3.2925   -1.4416    3.5450 C   0  0  0  0  0  0  0  0  0  0  0  0
   -3.3680   -2.3669    2.9674 H   0  0  0  0  0  0  0  0  0  0  0  0
   -2.6139   -1.6046    4.3858 H   0  0  0  0  0  0  0  0  0  0  0  0
   -4.2832   -1.1885    3.9307 H   0  0  0  0  0  0  0  0  0  0  0  0
   -2.5913    0.9430    3.2005 N   0  0  0  0  0  0  0  0  0  0  0  0
   -2.1198    2.1044    2.4329 C   0  0  2  0  0  0  0  0  0  0  0  0
   -0.6550    1.9490    1.9564 C   0  0  0  0  0  0  0  0  0  0  0  0
    0.2807    2.3811    2.6140 O   0  0  0  0  0  0  0  0  0  0  0  0
   -2.3117    3.3448    3.3140 C   0  0  0  0  0  0  0  0  0  0  0  0
   -2.7760    1.0612    4.1941 H   0  0  0  0  0  0  0  0  0  0  0  0
   -2.7469    2.2259    1.5432 H   0  0  0  0  0  0  0  0  0  0  0  0
   -1.7242    3.2615    4.2347 H   0  0  0  0  0  0  0  0  0  0  0  0
   -1.9884    4.2440    2.7800 H   0  0  0  0  0  0  0  0  0  0  0  0
   -3.3660    3.4636    3.5825 H   0  0  0  0  0  0  0  0  0  0  0  0
   -0.4024    1.3253    0.7446 N   0  0  0  0  0  0  0  0  0  0  0  0
    0.8471    0.5872    0.4631 C   0  0  2  0  0  0  0  0  0  0  0  0
    1.2785   -0.3552    1.6110 C   0  0  0  0  0  0  0  0  0  0  0  0
    2.4544   -0.4609    1.9392 O   0  0  0  0  0  0  0  0  0  0  0  0
    1.9850    1.5558    0.0763 C   0  0  0  0  0  0  0  0  0  0  0  0
    1.6659    2.2740   -1.2065 C   0  0  0  0  0  0  0  0  0  0  0  0
    1.7223    1.7255   -2.4871 N   0  3  0  0  0  0  0  0  0  0  0  0
    1.3190    3.5935   -1.3293 C   0  0  0  0  0  0  0  0  0  0  0  0
    1.4179    2.6357   -3.3804 C   0  0  0  0  0  0  0  0  0  0  0  0
    1.1579    3.8200   -2.6913 N   0  0  0  0  0  0  0  0  0  0  0  0
   -1.2468    0.8839    0.3733 H   0  0  0  0  0  0  0  0  0  0  0  0
    0.6602   -0.0709   -0.3915 H   0  0  0  0  0  0  0  0  0  0  0  0
    2.9221    1.0036   -0.0552 H   0  0  0  0  0  0  0  0  0  0  0  0
    2.1526    2.2733    0.8862 H   0  0  0  0  0  0  0  0  0  0  0  0
    1.9685    0.7464   -2.6614 H   0  0  0  0  0  0  0  0  0  0  0  0
    1.2031    4.3036   -0.5095 H   0  0  0  0  0  0  0  0  0  0  0  0
    1.3788    2.4918   -4.4616 H   0  0  0  0  0  0  0  0  0  0  0  0
    0.9042    4.7163   -3.1167 H   0  0  0  0  0  0  0  0  0  0  0  0
    0.3904   -1.3550    1.9631 N   0  0  0  0  0  0  0  0  0  0  0  0
    0.8822   -2.7270    2.1470 C   0  0  2  0  0  0  0  0  0  0  0  0
    1.3354   -3.3642    0.8094 C   0  0  0  0  0  0  0  0  0  0  0  0
    1.0247   -2.8549   -0.2658 O   0  0  0  0  0  0  0  0  0  0  0  0
   -0.2469   -3.5466    2.7751 C   0  0  0  0  0  0  0  0  0  0  0  0
   -0.5238   -1.2668    1.5152 H   0  0  0  0  0  0  0  0  0  0  0  0
    1.7371   -2.7247    2.8324 H   0  0  0  0  0  0  0  0  0  0  0  0
   -1.1157   -3.5764    2.1093 H   0  0  0  0  0  0  0  0  0  0  0  0
    0.0819   -4.5737    2.9614 H   0  0  0  0  0  0  0  0  0  0  0  0
   -0.5498   -3.1044    3.7290 H   0  0  0  0  0  0  0  0  0  0  0  0
    2.0966   -4.5181    0.8095 N   0  0  0  0  0  0  0  0  0  0  0  0
    2.5772   -5.1632   -0.4071 C   0  0  0  0  0  0  0  0  0  0  0  0
    2.3869   -4.8914    1.7092 H   0  0  0  0  0  0  0  0  0  0  0  0
    1.7353   -5.4695   -1.0373 H   0  0  0  0  0  0  0  0  0  0  0  0
    3.2146   -4.4796   -0.9778 H   0  0  0  0  0  0  0  0  0  0  0  0
    3.1626   -6.0538   -0.1578 H   0  0  0  0  0  0  0  0  0  0  0  0
  1  2  2  0  0  0  0
  1  3  1  0  0  0  0
  1  7  1  0  0  0  0
  3  4  1  0  0  0  0
  3  5  1  0  0  0  0
  3  6  1  0  0  0  0
  7  8  1  0  0  0  0
  7 12  1  0  0  0  0
  8  9  1  0  0  0  0
  8 11  1  0  0  0  0
  8 13  1  0  0  0  0
  9 10  2  0  0  0  0
  9 17  1  0  0  0  0
 11 14  1  0  0  0  0
 11 15  1  0  0  0  0
 11 16  1  0  0  0  0
 17 18  1  0  0  0  0
 17 27  1  0  0  0  0
 18 19  1  0  0  0  0
 18 21  1  0  0  0  0
 18 28  1  0  0  0  0
 19 20  2  0  0  0  0
 19 35  1  0  0  0  0
 21 22  1  0  0  0  0
 21 29  1  0  0  0  0
 21 30  1  0  0  0  0
 22 23  1  0  0  0  0
 22 24  2  0  0  0  0
 23 25  2  0  0  0  0
 23 31  1  0  0  0  0
 24 26  1  0  0  0  0
 24 32  1  0  0  0  0
 25 26  1  0  0  0  0
 25 33  1  0  0  0  0
 26 34  1  0  0  0  0
 35 36  1  0  0  0  0
 35 40  1  0  0  0  0
 36 37  1  0  0  0  0
 36 39  1  0  0  0  0
 36 41  1  0  0  0  0
 37 38  2  0  0  0  0
 37 45  1  0  0  0  0
 39 42  1  0  0  0  0
 39 43  1  0  0  0  0
 39 44  1  0  0  0  0
 45 46  1  0  0  0  0
 45 47  1  0  0  0  0
 46 48  1  0  0  0  0
 46 49  1  0  0  0  0
 46 50  1  0  0  0  0
M  CHG  1  23   1
M  END
$$$$

  -OEChem-05262216443D

 50 50  0     1  0  0  0  0  0999 V2000
   -2.8063   -0.3388    2.4740 C   0  0  0  0  0  0  0  0  0  0  0  0
   -2.5403   -0.4741    1.2860 O   0  0  0  0  0  0  0  0  0  0  0  0
   -3.2181   -1.5390    3.3033 C   0  0  0  0  0  0  0  0  0  0  0  0
   -3.2830   -2.4302    2.6729 H   0  0  0  0  0  0  0  0  0  0  0  0
   -2.4826   -1.7174    4.0918 H   0  0  0  0  0  0  0  0  0  0  0  0
   -4.1950   -1.3611    3.7600 H   0  0  0  0  0  0  0  0  0  0  0  0
   -2.6553    0.8957    3.0729 N   0  0  0  0  0  0  0  0  0  0  0  0
   -2.2337    2.1169    2.3703 C   0  0  2  0  0  0  0  0  0  0  0  0
   -0.7593    2.0471    1.9030 C   0  0  0  0  0  0  0  0  0  0  0  0
    0.1488    2.5307    2.5630 O   0  0  0  0  0  0  0  0  0  0  0  0
   -2.4900    3.2990    3.3130 C   0  0  0  0  0  0  0  0  0  0  0  0
   -2.7927    0.9418    4.0802 H   0  0  0  0  0  0  0  0  0  0  0  0
   -2.8583    2.2561    1.4814 H   0  0  0  0  0  0  0  0  0  0  0  0
   -1.9012    3.1977    4.2309 H   0  0  0  0  0  0  0  0  0  0  0  0
   -2.2112    4.2396    2.8279 H   0  0  0  0  0  0  0  0  0  0  0  0
   -3.5495    3.3511    3.5823 H   0  0  0  0  0  0  0  0  0  0  0  0
   -0.4659    1.3910    0.7193 N   0  0  0  0  0  0  0  0  0  0  0  0
    0.7647    0.5971    0.5298 C   0  0  2  0  0  0  0  0  0  0  0  0
    1.0803   -0.3355    1.7231 C   0  0  0  0  0  0  0  0  0  0  0  0
    2.1731   -0.3215    2.2767 O   0  0  0  0  0  0  0  0  0  0  0  0
    1.9723    1.4973    0.1961 C   0  0  0  0  0  0  0  0  0  0  0  0
    1.7728    2.2003   -1.1180 C   0  0  0  0  0  0  0  0  0  0  0  0
    1.8818    1.6176   -2.3796 N   0  3  0  0  0  0  0  0  0  0  0  0
    1.5015    3.5317   -1.2904 C   0  0  0  0  0  0  0  0  0  0  0  0
    1.6822    2.5197   -3.3098 C   0  0  0  0  0  0  0  0  0  0  0  0
    1.4385    3.7322   -2.6645 N   0  0  0  0  0  0  0  0  0  0  0  0
   -1.3047    0.9467    0.3371 H   0  0  0  0  0  0  0  0  0  0  0  0
    0.6033   -0.0657   -0.3258 H   0  0  0  0  0  0  0  0  0  0  0  0
    2.8835    0.8915    0.1378 H   0  0  0  0  0  0  0  0  0  0  0  0
    2.1274    2.2246    1.0002 H   0  0  0  0  0  0  0  0  0  0  0  0
    2.0901    0.6234   -2.5155 H   0  0  0  0  0  0  0  0  0  0  0  0
    1.3693    4.2658   -0.4942 H   0  0  0  0  0  0  0  0  0  0  0  0
    1.7060    2.3519   -4.3880 H   0  0  0  0  0  0  0  0  0  0  0  0
    1.2553    4.6288   -3.1244 H   0  0  0  0  0  0  0  0  0  0  0  0
    0.2966   -1.4692    1.8323 N   0  0  0  0  0  0  0  0  0  0  0  0
    0.9358   -2.7827    1.9870 C   0  0  2  0  0  0  0  0  0  0  0  0
    1.6664   -3.2277    0.6948 C   0  0  0  0  0  0  0  0  0  0  0  0
    1.4784   -2.6390   -0.3693 O   0  0  0  0  0  0  0  0  0  0  0  0
   -0.1546   -3.7882    2.3650 C   0  0  0  0  0  0  0  0  0  0  0  0
   -0.5375   -1.4466    1.2445 H   0  0  0  0  0  0  0  0  0  0  0  0
    1.6713   -2.7443    2.7983 H   0  0  0  0  0  0  0  0  0  0  0  0
   -0.9091   -3.8532    1.5741 H   0  0  0  0  0  0  0  0  0  0  0  0
    0.2756   -4.7831    2.5162 H   0  0  0  0  0  0  0  0  0  0  0  0
   -0.6458   -3.4823    3.2937 H   0  0  0  0  0  0  0  0  0  0  0  0
    2.5458   -4.2937    0.7252 N   0  0  0  0  0  0  0  0  0  0  0  0
    3.2978   -4.7501   -0.4384 C   0  0  0  0  0  0  0  0  0  0  0  0
    2.7371   -4.7202    1.6280 H   0  0  0  0  0  0  0  0  0  0  0  0
    2.6223   -4.9672   -1.2729 H   0  0  0  0  0  0  0  0  0  0  0  0
    4.0151   -3.9855   -0.7545 H   0  0  0  0  0  0  0  0  0  0  0  0
    3.8493   -5.6646   -0.1980 H   0  0  0  0  0  0  0  0  0  0  0  0
  1  2  2  0  0  0  0
  1  3  1  0  0  0  0
  1  7  1  0  0  0  0
  3  4  1  0  0  0  0
  3  5  1  0  0  0  0
  3  6  1  0  0  0  0
  7  8  1  0  0  0  0
  7 12  1  0  0  0  0
  8  9  1  0  0  0  0
  8 11  1  0  0  0  0
  8 13  1  0  0  0  0
  9 10  2  0  0  0  0
  9 17  1  0  0  0  0
 11 14  1  0  0  0  0
 11 15  1  0  0  0  0
 11 16  1  0  0  0  0
 17 18  1  0  0  0  0
 17 27  1  0  0  0  0
 18 19  1  0  0  0  0
 18 21  1  0  0  0  0
 18 28  1  0  0  0  0
 19 20  2  0  0  0  0
 19 35  1  0  0  0  0
 21 22  1  0  0  0  0
 21 29  1  0  0  0  0
 21 30  1  0  0  0  0
 22 23  1  0  0  0  0
 22 24  2  0  0  0  0
 23 25  2  0  0  0  0
 23 31  1  0  0  0  0
 24 26  1  0  0  0  0
 24 32  1  0  0  0  0
 25 26  1  0  0  0  0
 25 33  1  0  0  0  0
 26 34  1  0  0  0  0
 35 36  1  0  0  0  0
 35 40  1  0  0  0  0
 36 37  1  0  0  0  0
 36 39  1  0  0  0  0
 36 41  1  0  0  0  0
 37 38  2  0  0  0  0
 37 45  1  0  0  0  0
 39 42  1  0  0  0  0
 39 43  1  0  0  0  0
 39 44  1  0  0  0  0
 45 46  1  0  0  0  0
 45 47  1  0  0  0  0
 46 48  1  0  0  0  0
 46 49  1  0  0  0  0
 46 50  1  0  0  0  0
M  CHG  1  23   1
M  END
$$$$

  -OEChem-05262216443D

 50 50  0     1  0  0  0  0  0999 V2000
   -2.8518   -0.3052    2.3779 C   0  0  0  0  0  0  0  0  0  0  0  0
   -2.6483   -0.3888    1.1728 O   0  0  0  0  0  0  0  0  0  0  0  0
   -3.1669   -1.5501    3.1834 C   0  0  0  0  0  0  0  0  0  0  0  0
   -3.2828   -2.4111    2.5194 H   0  0  0  0  0  0  0  0  0  0  0  0
   -2.3551   -1.7534    3.8863 H   0  0  0  0  0  0  0  0  0  0  0  0
   -4.0962   -1.4109    3.7414 H   0  0  0  0  0  0  0  0  0  0  0  0
   -2.6991    0.9096    3.0160 N   0  0  0  0  0  0  0  0  0  0  0  0
   -2.3074    2.1585    2.3450 C   0  0  2  0  0  0  0  0  0  0  0  0
   -0.8336    2.1218    1.8742 C   0  0  0  0  0  0  0  0  0  0  0  0
    0.0668    2.6287    2.5270 O   0  0  0  0  0  0  0  0  0  0  0  0
   -2.5832    3.3115    3.3177 C   0  0  0  0  0  0  0  0  0  0  0  0
   -2.7623    0.9090    4.0318 H   0  0  0  0  0  0  0  0  0  0  0  0
   -2.9366    2.3092    1.4613 H   0  0  0  0  0  0  0  0  0  0  0  0
   -1.9887    3.1999    4.2306 H   0  0  0  0  0  0  0  0  0  0  0  0
   -2.3256    4.2690    2.8543 H   0  0  0  0  0  0  0  0  0  0  0  0
   -3.6424    3.3354    3.5921 H   0  0  0  0  0  0  0  0  0  0  0  0
   -0.5288    1.4470    0.7048 N   0  0  0  0  0  0  0  0  0  0  0  0
    0.6520    0.5704    0.5887 C   0  0  2  0  0  0  0  0  0  0  0  0
    0.8499   -0.3841    1.7893 C   0  0  0  0  0  0  0  0  0  0  0  0
    1.8075   -0.2782    2.5448 O   0  0  0  0  0  0  0  0  0  0  0  0
    1.9426    1.3697    0.3236 C   0  0  0  0  0  0  0  0  0  0  0  0
    1.8743    2.0725   -1.0015 C   0  0  0  0  0  0  0  0  0  0  0  0
    2.0119    1.4604   -2.2455 N   0  3  0  0  0  0  0  0  0  0  0  0
    1.7105    3.4166   -1.2039 C   0  0  0  0  0  0  0  0  0  0  0  0
    1.9362    2.3592   -3.1968 C   0  0  0  0  0  0  0  0  0  0  0  0
    1.7456    3.5973   -2.5818 N   0  0  0  0  0  0  0  0  0  0  0  0
   -1.3756    1.0319    0.3077 H   0  0  0  0  0  0  0  0  0  0  0  0
    0.4893   -0.0731   -0.2809 H   0  0  0  0  0  0  0  0  0  0  0  0
    2.8043    0.6925    0.3239 H   0  0  0  0  0  0  0  0  0  0  0  0
    2.1074    2.0917    1.1304 H   0  0  0  0  0  0  0  0  0  0  0  0
    2.1529    0.4505   -2.3530 H   0  0  0  0  0  0  0  0  0  0  0  0
    1.5813    4.1695   -0.4248 H   0  0  0  0  0  0  0  0  0  0  0  0
    2.0113    2.1716   -4.2693 H   0  0  0  0  0  0  0  0  0  0  0  0
    1.6575    4.4971   -3.0626 H   0  0  0  0  0  0  0  0  0  0  0  0
    0.2294   -1.6150    1.6871 N   0  0  0  0  0  0  0  0  0  0  0  0
    1.0386   -2.8358    1.8057 C   0  0  2  0  0  0  0  0  0  0  0  0
    1.9882   -3.0258    0.5939 C   0  0  0  0  0  0  0  0  0  0  0  0
    1.8703   -2.3331   -0.4179 O   0  0  0  0  0  0  0  0  0  0  0  0
    0.0735   -4.0174    1.9313 C   0  0  0  0  0  0  0  0  0  0  0  0
   -0.5012   -1.6411    0.9772 H   0  0  0  0  0  0  0  0  0  0  0  0
    1.6511   -2.7896    2.7134 H   0  0  0  0  0  0  0  0  0  0  0  0
   -0.5444   -4.1077    1.0319 H   0  0  0  0  0  0  0  0  0  0  0  0
    0.6266   -4.9519    2.0679 H   0  0  0  0  0  0  0  0  0  0  0  0
   -0.5851   -3.8792    2.7948 H   0  0  0  0  0  0  0  0  0  0  0  0
    2.9920   -3.9745    0.6407 N   0  0  0  0  0  0  0  0  0  0  0  0
    3.9418   -4.1990   -0.4433 C   0  0  0  0  0  0  0  0  0  0  0  0
    3.1049   -4.4983    1.5048 H   0  0  0  0  0  0  0  0  0  0  0  0
    3.4152   -4.4545   -1.3689 H   0  0  0  0  0  0  0  0  0  0  0  0
    4.5455   -3.3020   -0.6161 H   0  0  0  0  0  0  0  0  0  0  0  0
    4.6147   -5.0250   -0.1924 H   0  0  0  0  0  0  0  0  0  0  0  0
  1  2  2  0  0  0  0
  1  3  1  0  0  0  0
  1  7  1  0  0  0  0
  3  4  1  0  0  0  0
  3  5  1  0  0  0  0
  3  6  1  0  0  0  0
  7  8  1  0  0  0  0
  7 12  1  0  0  0  0
  8  9  1  0  0  0  0
  8 11  1  0  0  0  0
  8 13  1  0  0  0  0
  9 10  2  0  0  0  0
  9 17  1  0  0  0  0
 11 14  1  0  0  0  0
 11 15  1  0  0  0  0
 11 16  1  0  0  0  0
 17 18  1  0  0  0  0
 17 27  1  0  0  0  0
 18 19  1  0  0  0  0
 18 21  1  0  0  0  0
 18 28  1  0  0  0  0
 19 20  2  0  0  0  0
 19 35  1  0  0  0  0
 21 22  1  0  0  0  0
 21 29  1  0  0  0  0
 21 30  1  0  0  0  0
 22 23  1  0  0  0  0
 22 24  2  0  0  0  0
 23 25  2  0  0  0  0
 23 31  1  0  0  0  0
 24 26  1  0  0  0  0
 24 32  1  0  0  0  0
 25 26  1  0  0  0  0
 25 33  1  0  0  0  0
 26 34  1  0  0  0  0
 35 36  1  0  0  0  0
 35 40  1  0  0  0  0
 36 37  1  0  0  0  0
 36 39  1  0  0  0  0
 36 41  1  0  0  0  0
 37 38  2  0  0  0  0
 37 45  1  0  0  0  0
 39 42  1  0  0  0  0
 39 43  1  0  0  0  0
 39 44  1  0  0  0  0
 45 46  1  0  0  0  0
 45 47  1  0  0  0  0
 46 48  1  0  0  0  0
 46 49  1  0  0  0  0
 46 50  1  0  0  0  0
M  CHG  1  23   1
M  END
$$$$

  -OEChem-05262216443D

 50 50  0     1  0  0  0  0  0999 V2000
   -2.8875   -0.3027    2.2296 C   0  0  0  0  0  0  0  0  0  0  0  0
   -2.7504   -0.2991    1.0125 O   0  0  0  0  0  0  0  0  0  0  0  0
   -3.1411   -1.6043    2.9648 C   0  0  0  0  0  0  0  0  0  0  0  0
   -3.3006   -2.4175    2.2514 H   0  0  0  0  0  0  0  0  0  0  0  0
   -2.2812   -1.8502    3.5935 H   0  0  0  0  0  0  0  0  0  0  0  0
   -4.0292   -1.5124    3.5950 H   0  0  0  0  0  0  0  0  0  0  0  0
   -2.7031    0.8664    2.9403 N   0  0  0  0  0  0  0  0  0  0  0  0
   -2.3407    2.1579    2.3364 C   0  0  2  0  0  0  0  0  0  0  0  0
   -0.8777    2.1638    1.8311 C   0  0  0  0  0  0  0  0  0  0  0  0
    0.0196    2.7224    2.4454 O   0  0  0  0  0  0  0  0  0  0  0  0
   -2.6076    3.2462    3.3833 C   0  0  0  0  0  0  0  0  0  0  0  0
   -2.7032    0.7942    3.9554 H   0  0  0  0  0  0  0  0  0  0  0  0
   -2.9904    2.3550    1.4769 H   0  0  0  0  0  0  0  0  0  0  0  0
   -1.9900    3.0876    4.2736 H   0  0  0  0  0  0  0  0  0  0  0  0
   -2.3728    4.2335    2.9730 H   0  0  0  0  0  0  0  0  0  0  0  0
   -3.6603    3.2391    3.6826 H   0  0  0  0  0  0  0  0  0  0  0  0
   -0.5763    1.5020    0.6532 N   0  0  0  0  0  0  0  0  0  0  0  0
    0.5443    0.5454    0.5680 C   0  0  2  0  0  0  0  0  0  0  0  0
    0.6286   -0.4549    1.7440 C   0  0  0  0  0  0  0  0  0  0  0  0
    1.3797   -0.2741    2.6925 O   0  0  0  0  0  0  0  0  0  0  0  0
    1.9031    1.2574    0.4107 C   0  0  0  0  0  0  0  0  0  0  0  0
    1.9642    2.0114   -0.8848 C   0  0  0  0  0  0  0  0  0  0  0  0
    2.1329    1.4377   -2.1427 N   0  3  0  0  0  0  0  0  0  0  0  0
    1.8809    3.3684   -1.0413 C   0  0  0  0  0  0  0  0  0  0  0  0
    2.1560    2.3740   -3.0604 C   0  0  0  0  0  0  0  0  0  0  0  0
    1.9973    3.5974   -2.4073 N   0  0  0  0  0  0  0  0  0  0  0  0
   -1.4358    1.1251    0.2445 H   0  0  0  0  0  0  0  0  0  0  0  0
    0.3872   -0.0529   -0.3345 H   0  0  0  0  0  0  0  0  0  0  0  0
    2.7136    0.5205    0.4356 H   0  0  0  0  0  0  0  0  0  0  0  0
    2.0724    1.9367    1.2524 H   0  0  0  0  0  0  0  0  0  0  0  0
    2.2397    0.4266   -2.2789 H   0  0  0  0  0  0  0  0  0  0  0  0
    1.7421    4.0959   -0.2398 H   0  0  0  0  0  0  0  0  0  0  0  0
    2.2808    2.2232   -4.1339 H   0  0  0  0  0  0  0  0  0  0  0  0
    1.9760    4.5175   -2.8560 H   0  0  0  0  0  0  0  0  0  0  0  0
    0.2195   -1.7467    1.4696 N   0  0  0  0  0  0  0  0  0  0  0  0
    1.1711   -2.8497    1.6600 C   0  0  2  0  0  0  0  0  0  0  0  0
    2.2910   -2.8347    0.5872 C   0  0  0  0  0  0  0  0  0  0  0  0
    2.2095   -2.1032   -0.4019 O   0  0  0  0  0  0  0  0  0  0  0  0
    0.3793   -4.1585    1.6013 C   0  0  0  0  0  0  0  0  0  0  0  0
   -0.3550   -1.8165    0.6324 H   0  0  0  0  0  0  0  0  0  0  0  0
    1.6418   -2.7732    2.6467 H   0  0  0  0  0  0  0  0  0  0  0  0
   -0.0868   -4.2834    0.6185 H   0  0  0  0  0  0  0  0  0  0  0  0
    1.0364   -5.0143    1.7849 H   0  0  0  0  0  0  0  0  0  0  0  0
   -0.4069   -4.1605    2.3631 H   0  0  0  0  0  0  0  0  0  0  0  0
    3.4063   -3.6365    0.7378 N   0  0  0  0  0  0  0  0  0  0  0  0
    4.5144   -3.6678   -0.2101 C   0  0  0  0  0  0  0  0  0  0  0  0
    3.4738   -4.1952    1.5850 H   0  0  0  0  0  0  0  0  0  0  0  0
    4.1572   -3.9361   -1.2100 H   0  0  0  0  0  0  0  0  0  0  0  0
    5.0050   -2.6902   -0.2600 H   0  0  0  0  0  0  0  0  0  0  0  0
    5.2563   -4.4105    0.1000 H   0  0  0  0  0  0  0  0  0  0  0  0
  1  2  2  0  0  0  0
  1  3  1  0  0  0  0
  1  7  1  0  0  0  0
  3  4  1  0  0  0  0
  3  5  1  0  0  0  0
  3  6  1  0  0  0  0
  7  8  1  0  0  0  0
  7 12  1  0  0  0  0
  8  9  1  0  0  0  0
  8 11  1  0  0  0  0
  8 13  1  0  0  0  0
  9 10  2  0  0  0  0
  9 17  1  0  0  0  0
 11 14  1  0  0  0  0
 11 15  1  0  0  0  0
 11 16  1  0  0  0  0
 17 18  1  0  0  0  0
 17 27  1  0  0  0  0
 18 19  1  0  0  0  0
 18 21  1  0  0  0  0
 18 28  1  0  0  0  0
 19 20  2  0  0  0  0
 19 35  1  0  0  0  0
 21 22  1  0  0  0  0
 21 29  1  0  0  0  0
 21 30  1  0  0  0  0
 22 23  1  0  0  0  0
 22 24  2  0  0  0  0
 23 25  2  0  0  0  0
 23 31  1  0  0  0  0
 24 26  1  0  0  0  0
 24 32  1  0  0  0  0
 25 26  1  0  0  0  0
 25 33  1  0  0  0  0
 26 34  1  0  0  0  0
 35 36  1  0  0  0  0
 35 40  1  0  0  0  0
 36 37  1  0  0  0  0
 36 39  1  0  0  0  0
 36 41  1  0  0  0  0
 37 38  2  0  0  0  0
 37 45  1  0  0  0  0
 39 42  1  0  0  0  0
 39 43  1  0  0  0  0
 39 44  1  0  0  0  0
 45 46  1  0  0  0  0
 45 47  1  0  0  0  0
 46 48  1  0  0  0  0
 46 49  1  0  0  0  0
 46 50  1  0  0  0  0
M  CHG  1  23   1
M  END
$$$$

  -OEChem-05262216443D

 50 50  0     1  0  0  0  0  0999 V2000
   -2.8849   -0.2991    2.0910 C   0  0  0  0  0  0  0  0  0  0  0  0
   -2.8775   -0.1520    0.8757 O   0  0  0  0  0  0  0  0  0  0  0  0
   -3.1046   -1.6729    2.6928 C   0  0  0  0  0  0  0  0  0  0  0  0
   -3.3389   -2.3966    1.9073 H   0  0  0  0  0  0  0  0  0  0  0  0
   -2.2022   -1.9989    3.2162 H   0  0  0  0  0  0  0  0  0  0  0  0
   -3.9367   -1.6422    3.4005 H   0  0  0  0  0  0  0  0  0  0  0  0
   -2.5845    0.7728    2.9064 N   0  0  0  0  0  0  0  0  0  0  0  0
   -2.2620    2.1224    2.4182 C   0  0  2  0  0  0  0  0  0  0  0  0
   -0.8504    2.1858    1.7853 C   0  0  0  0  0  0  0  0  0  0  0  0
    0.0551    2.8518    2.2697 O   0  0  0  0  0  0  0  0  0  0  0  0
   -2.4276    3.0873    3.5986 C   0  0  0  0  0  0  0  0  0  0  0  0
   -2.4620    0.5784    3.8979 H   0  0  0  0  0  0  0  0  0  0  0  0
   -2.9831    2.4126    1.6465 H   0  0  0  0  0  0  0  0  0  0  0  0
   -1.7236    2.8414    4.4005 H   0  0  0  0  0  0  0  0  0  0  0  0
   -2.2381    4.1166    3.2775 H   0  0  0  0  0  0  0  0  0  0  0  0
   -3.4454    3.0328    3.9974 H   0  0  0  0  0  0  0  0  0  0  0  0
   -0.6211    1.5530    0.5752 N   0  0  0  0  0  0  0  0  0  0  0  0
    0.4532    0.5512    0.4129 C   0  0  2  0  0  0  0  0  0  0  0  0
    0.5359   -0.4954    1.5484 C   0  0  0  0  0  0  0  0  0  0  0  0
    1.0122   -0.2315    2.6429 O   0  0  0  0  0  0  0  0  0  0  0  0
    1.8352    1.2309    0.3102 C   0  0  0  0  0  0  0  0  0  0  0  0
    1.9281    2.0878   -0.9182 C   0  0  0  0  0  0  0  0  0  0  0  0
    2.0836    1.6456   -2.2300 N   0  3  0  0  0  0  0  0  0  0  0  0
    1.8515    3.4541   -0.9355 C   0  0  0  0  0  0  0  0  0  0  0  0
    2.1119    2.6718   -3.0461 C   0  0  0  0  0  0  0  0  0  0  0  0
    1.9653    3.8225   -2.2702 N   0  0  0  0  0  0  0  0  0  0  0  0
   -1.5130    1.2008    0.2149 H   0  0  0  0  0  0  0  0  0  0  0  0
    0.2675    0.0081   -0.5184 H   0  0  0  0  0  0  0  0  0  0  0  0
    2.6213    0.4698    0.2722 H   0  0  0  0  0  0  0  0  0  0  0  0
    2.0319    1.8308    1.2047 H   0  0  0  0  0  0  0  0  0  0  0  0
    2.1919    0.6560   -2.4721 H   0  0  0  0  0  0  0  0  0  0  0  0
    1.7079    4.0942   -0.0624 H   0  0  0  0  0  0  0  0  0  0  0  0
    2.2319    2.6323   -4.1301 H   0  0  0  0  0  0  0  0  0  0  0  0
    1.9393    4.7839   -2.6216 H   0  0  0  0  0  0  0  0  0  0  0  0
    0.3746   -1.8220    1.1958 N   0  0  0  0  0  0  0  0  0  0  0  0
    1.3730   -2.8130    1.6193 C   0  0  2  0  0  0  0  0  0  0  0  0
    2.6183   -2.7663    0.6999 C   0  0  0  0  0  0  0  0  0  0  0  0
    2.5919   -2.1146   -0.3449 O   0  0  0  0  0  0  0  0  0  0  0  0
    0.7083   -4.1911    1.5744 C   0  0  0  0  0  0  0  0  0  0  0  0
    0.0370   -1.9489    0.2448 H   0  0  0  0  0  0  0  0  0  0  0  0
    1.6979   -2.6184    2.6477 H   0  0  0  0  0  0  0  0  0  0  0  0
    0.3881   -4.4326    0.5556 H   0  0  0  0  0  0  0  0  0  0  0  0
    1.4044   -4.9654    1.9117 H   0  0  0  0  0  0  0  0  0  0  0  0
   -0.1690   -4.2094    2.2289 H   0  0  0  0  0  0  0  0  0  0  0  0
    3.7758   -3.4353    1.0486 N   0  0  0  0  0  0  0  0  0  0  0  0
    4.9897   -3.4231    0.2397 C   0  0  0  0  0  0  0  0  0  0  0  0
    3.7829   -3.9388    1.9321 H   0  0  0  0  0  0  0  0  0  0  0  0
    4.7901   -3.8264   -0.7588 H   0  0  0  0  0  0  0  0  0  0  0  0
    5.3738   -2.4028    0.1381 H   0  0  0  0  0  0  0  0  0  0  0  0
    5.7643   -4.0373    0.7097 H   0  0  0  0  0  0  0  0  0  0  0  0
  1  2  2  0  0  0  0
  1  3  1  0  0  0  0
  1  7  1  0  0  0  0
  3  4  1  0  0  0  0
  3  5  1  0  0  0  0
  3  6  1  0  0  0  0
  7  8  1  0  0  0  0
  7 12  1  0  0  0  0
  8  9  1  0  0  0  0
  8 11  1  0  0  0  0
  8 13  1  0  0  0  0
  9 10  2  0  0  0  0
  9 17  1  0  0  0  0
 11 14  1  0  0  0  0
 11 15  1  0  0  0  0
 11 16  1  0  0  0  0
 17 18  1  0  0  0  0
 17 27  1  0  0  0  0
 18 19  1  0  0  0  0
 18 21  1  0  0  0  0
 18 28  1  0  0  0  0
 19 20  2  0  0  0  0
 19 35  1  0  0  0  0
 21 22  1  0  0  0  0
 21 29  1  0  0  0  0
 21 30  1  0  0  0  0
 22 23  1  0  0  0  0
 22 24  2  0  0  0  0
 23 25  2  0  0  0  0
 23 31  1  0  0  0  0
 24 26  1  0  0  0  0
 24 32  1  0  0  0  0
 25 26  1  0  0  0  0
 25 33  1  0  0  0  0
 26 34  1  0  0  0  0
 35 36  1  0  0  0  0
 35 40  1  0  0  0  0
 36 37  1  0  0  0  0
 36 39  1  0  0  0  0
 36 41  1  0  0  0  0
 37 38  2  0  0  0  0
 37 45  1  0  0  0  0
 39 42  1  0  0  0  0
 39 43  1  0  0  0  0
 39 44  1  0  0  0  0
 45 46  1  0  0  0  0
 45 47  1  0  0  0  0
 46 48  1  0  0  0  0
 46 49  1  0  0  0  0
 46 50  1  0  0  0  0
M  CHG  1  23   1
M  END
$$$$

  -OEChem-05262216443D

 50 50  0     1  0  0  0  0  0999 V2000
   -2.8756   -0.2698    1.9715 C   0  0  0  0  0  0  0  0  0  0  0  0
   -3.0089    0.0339    0.7932 O   0  0  0  0  0  0  0  0  0  0  0  0
   -3.0205   -1.7141    2.4090 C   0  0  0  0  0  0  0  0  0  0  0  0
   -3.3636   -2.3297    1.5730 H   0  0  0  0  0  0  0  0  0  0  0  0
   -2.0575   -2.0961    2.7578 H   0  0  0  0  0  0  0  0  0  0  0  0
   -3.7489   -1.7873    3.2206 H   0  0  0  0  0  0  0  0  0  0  0  0
   -2.4707    0.6885    2.8772 N   0  0  0  0  0  0  0  0  0  0  0  0
   -2.1522    2.0789    2.5194 C   0  0  2  0  0  0  0  0  0  0  0  0
   -0.7980    2.1886    1.7766 C   0  0  0  0  0  0  0  0  0  0  0  0
    0.1244    2.8803    2.1921 O   0  0  0  0  0  0  0  0  0  0  0  0
   -2.1848    2.8997    3.8144 C   0  0  0  0  0  0  0  0  0  0  0  0
   -2.1762    0.3532    3.7920 H   0  0  0  0  0  0  0  0  0  0  0  0
   -2.9276    2.4721    1.8532 H   0  0  0  0  0  0  0  0  0  0  0  0
   -1.4136    2.5527    4.5100 H   0  0  0  0  0  0  0  0  0  0  0  0
   -2.0041    3.9575    3.5989 H   0  0  0  0  0  0  0  0  0  0  0  0
   -3.1612    2.8098    4.3005 H   0  0  0  0  0  0  0  0  0  0  0  0
   -0.6496    1.6089    0.5271 N   0  0  0  0  0  0  0  0  0  0  0  0
    0.3932    0.5978    0.2384 C   0  0  2  0  0  0  0  0  0  0  0  0
    0.5390   -0.5190    1.3028 C   0  0  0  0  0  0  0  0  0  0  0  0
    0.6796   -0.2823    2.4944 O   0  0  0  0  0  0  0  0  0  0  0  0
    1.7788    1.2721    0.1440 C   0  0  0  0  0  0  0  0  0  0  0  0
    1.8469    2.2390   -1.0057 C   0  0  0  0  0  0  0  0  0  0  0  0
    1.9546    1.9560   -2.3666 N   0  3  0  0  0  0  0  0  0  0  0  0
    1.7686    3.5988   -0.8638 C   0  0  0  0  0  0  0  0  0  0  0  0
    1.9615    3.0719   -3.0565 C   0  0  0  0  0  0  0  0  0  0  0  0
    1.8415    4.1230   -2.1475 N   0  0  0  0  0  0  0  0  0  0  0  0
   -1.5700    1.2852    0.2124 H   0  0  0  0  0  0  0  0  0  0  0  0
    0.1537    0.1245   -0.7180 H   0  0  0  0  0  0  0  0  0  0  0  0
    2.5530    0.5095    0.0049 H   0  0  0  0  0  0  0  0  0  0  0  0
    2.0193    1.7809    1.0830 H   0  0  0  0  0  0  0  0  0  0  0  0
    2.0547    1.0055   -2.7320 H   0  0  0  0  0  0  0  0  0  0  0  0
    1.6449    4.1321    0.0817 H   0  0  0  0  0  0  0  0  0  0  0  0
    2.0487    3.1623   -4.1407 H   0  0  0  0  0  0  0  0  0  0  0  0
    1.8052    5.1192   -2.3820 H   0  0  0  0  0  0  0  0  0  0  0  0
    0.6525   -1.8250    0.8655 N   0  0  0  0  0  0  0  0  0  0  0  0
    1.5296   -2.7823    1.5551 C   0  0  2  0  0  0  0  0  0  0  0  0
    2.9620   -2.7168    0.9755 C   0  0  0  0  0  0  0  0  0  0  0  0
    3.1680   -2.1019   -0.0696 O   0  0  0  0  0  0  0  0  0  0  0  0
    0.9276   -4.1784    1.3777 C   0  0  0  0  0  0  0  0  0  0  0  0
    0.6334   -1.9278   -0.1459 H   0  0  0  0  0  0  0  0  0  0  0  0
    1.5841   -2.5624    2.6270 H   0  0  0  0  0  0  0  0  0  0  0  0
    0.8894   -4.4506    0.3179 H   0  0  0  0  0  0  0  0  0  0  0  0
    1.5278   -4.9257    1.9059 H   0  0  0  0  0  0  0  0  0  0  0  0
   -0.0895   -4.2064    1.7816 H   0  0  0  0  0  0  0  0  0  0  0  0
    4.0171   -3.3337    1.6200 N   0  0  0  0  0  0  0  0  0  0  0  0
    5.3901   -3.3003    1.1277 C   0  0  0  0  0  0  0  0  0  0  0  0
    3.8248   -3.8070    2.4990 H   0  0  0  0  0  0  0  0  0  0  0  0
    5.4492   -3.7350    0.1241 H   0  0  0  0  0  0  0  0  0  0  0  0
    5.7593   -2.2700    1.0880 H   0  0  0  0  0  0  0  0  0  0  0  0
    6.0446   -3.8758    1.7900 H   0  0  0  0  0  0  0  0  0  0  0  0
  1  2  2  0  0  0  0
  1  3  1  0  0  0  0
  1  7  1  0  0  0  0
  3  4  1  0  0  0  0
  3  5  1  0  0  0  0
  3  6  1  0  0  0  0
  7  8  1  0  0  0  0
  7 12  1  0  0  0  0
  8  9  1  0  0  0  0
  8 11  1  0  0  0  0
  8 13  1  0  0  0  0
  9 10  2  0  0  0  0
  9 17  1  0  0  0  0
 11 14  1  0  0  0  0
 11 15  1  0  0  0  0
 11 16  1  0  0  0  0
 17 18  1  0  0  0  0
 17 27  1  0  0  0  0
 18 19  1  0  0  0  0
 18 21  1  0  0  0  0
 18 28  1  0  0  0  0
 19 20  2  0  0  0  0
 19 35  1  0  0  0  0
 21 22  1  0  0  0  0
 21 29  1  0  0  0  0
 21 30  1  0  0  0  0
 22 23  1  0  0  0  0
 22 24  2  0  0  0  0
 23 25  2  0  0  0  0
 23 31  1  0  0  0  0
 24 26  1  0  0  0  0
 24 32  1  0  0  0  0
 25 26  1  0  0  0  0
 25 33  1  0  0  0  0
 26 34  1  0  0  0  0
 35 36  1  0  0  0  0
 35 40  1  0  0  0  0
 36 37  1  0  0  0  0
 36 39  1  0  0  0  0
 36 41  1  0  0  0  0
 37 38  2  0  0  0  0
 37 45  1  0  0  0  0
 39 42  1  0  0  0  0
 39 43  1  0  0  0  0
 39 44  1  0  0  0  0
 45 46  1  0  0  0  0
 45 47  1  0  0  0  0
 46 48  1  0  0  0  0
 46 49  1  0  0  0  0
 46 50  1  0  0  0  0
M  CHG  1  23   1
M  END
$$$$

  -OEChem-05262216443D

 50 50  0     1  0  0  0  0  0999 V2000
   -2.9105   -0.0709    2.2318 C   0  0  0  0  0  0  0  0  0  0  0  0
   -3.1192    0.2971    1.0827 O   0  0  0  0  0  0  0  0  0  0  0  0
   -3.1275   -1.5191    2.6237 C   0  0  0  0  0  0  0  0  0  0  0  0
   -2.1709   -1.9830    2.8775 H   0  0  0  0  0  0  0  0  0  0  0  0
   -3.7925   -1.5753    3.4892 H   0  0  0  0  0  0  0  0  0  0  0  0
   -3.5808   -2.0719    1.7964 H   0  0  0  0  0  0  0  0  0  0  0  0
   -2.3697    0.8141    3.1412 N   0  0  0  0  0  0  0  0  0  0  0  0
   -1.9504    2.1814    2.8017 C   0  0  2  0  0  0  0  0  0  0  0  0
   -0.6400    2.1880    1.9770 C   0  0  0  0  0  0  0  0  0  0  0  0
    0.3712    2.7670    2.3570 O   0  0  0  0  0  0  0  0  0  0  0  0
   -1.8307    2.9612    4.1164 C   0  0  0  0  0  0  0  0  0  0  0  0
   -1.9954    0.4043    3.9944 H   0  0  0  0  0  0  0  0  0  0  0  0
   -2.7261    2.6627    2.1963 H   0  0  0  0  0  0  0  0  0  0  0  0
   -1.0568    2.5232    4.7552 H   0  0  0  0  0  0  0  0  0  0  0  0
   -1.5652    4.0042    3.9172 H   0  0  0  0  0  0  0  0  0  0  0  0
   -2.7818    2.9455    4.6575 H   0  0  0  0  0  0  0  0  0  0  0  0
   -0.6285    1.6297    0.7086 N   0  0  0  0  0  0  0  0  0  0  0  0
    0.3512    0.6041    0.2786 C   0  0  2  0  0  0  0  0  0  0  0  0
    0.6012   -0.5575    1.2775 C   0  0  0  0  0  0  0  0  0  0  0  0
    0.5068   -0.4364    2.4912 O   0  0  0  0  0  0  0  0  0  0  0  0
    1.7303    1.2600    0.0430 C   0  0  0  0  0  0  0  0  0  0  0  0
    1.6858    2.2568   -1.0833 C   0  0  0  0  0  0  0  0  0  0  0  0
    1.6328    2.0173   -2.4564 N   0  3  0  0  0  0  0  0  0  0  0  0
    1.6564    3.6129   -0.8930 C   0  0  0  0  0  0  0  0  0  0  0  0
    1.5831    3.1552   -3.1079 C   0  0  0  0  0  0  0  0  0  0  0  0
    1.5925    4.1779   -2.1597 N   0  0  0  0  0  0  0  0  0  0  0  0
   -1.5870    1.3579    0.4657 H   0  0  0  0  0  0  0  0  0  0  0  0
   -0.0116    0.1634   -0.6542 H   0  0  0  0  0  0  0  0  0  0  0  0
    2.4712    0.4924   -0.2052 H   0  0  0  0  0  0  0  0  0  0  0  0
    2.0872    1.7387    0.9604 H   0  0  0  0  0  0  0  0  0  0  0  0
    1.6671    1.0787   -2.8619 H   0  0  0  0  0  0  0  0  0  0  0  0
    1.6572    4.1182    0.0756 H   0  0  0  0  0  0  0  0  0  0  0  0
    1.5443    3.2805   -4.1915 H   0  0  0  0  0  0  0  0  0  0  0  0
    1.5514    5.1820   -2.3576 H   0  0  0  0  0  0  0  0  0  0  0  0
    0.9511   -1.7904    0.7605 N   0  0  0  0  0  0  0  0  0  0  0  0
    1.8074   -2.7317    1.4964 C   0  0  2  0  0  0  0  0  0  0  0  0
    3.2551   -2.6567    0.9612 C   0  0  0  0  0  0  0  0  0  0  0  0
    3.4888   -2.0136   -0.0607 O   0  0  0  0  0  0  0  0  0  0  0  0
    1.2249   -4.1354    1.3174 C   0  0  0  0  0  0  0  0  0  0  0  0
    1.1054   -1.7950   -0.2449 H   0  0  0  0  0  0  0  0  0  0  0  0
    1.8299   -2.4965    2.5662 H   0  0  0  0  0  0  0  0  0  0  0  0
    1.2279   -4.4225    0.2609 H   0  0  0  0  0  0  0  0  0  0  0  0
    1.8118   -4.8692    1.8783 H   0  0  0  0  0  0  0  0  0  0  0  0
    0.1939   -4.1664    1.6841 H   0  0  0  0  0  0  0  0  0  0  0  0
    4.2902   -3.2952    1.6166 N   0  0  0  0  0  0  0  0  0  0  0  0
    5.6762   -3.2508    1.1630 C   0  0  0  0  0  0  0  0  0  0  0  0
    4.0707   -3.8028    2.4696 H   0  0  0  0  0  0  0  0  0  0  0  0
    5.7606   -3.6451    0.1447 H   0  0  0  0  0  0  0  0  0  0  0  0
    6.0514   -2.2220    1.1747 H   0  0  0  0  0  0  0  0  0  0  0  0
    6.3096   -3.8560    1.8193 H   0  0  0  0  0  0  0  0  0  0  0  0
  1  2  2  0  0  0  0
  1  3  1  0  0  0  0
  1  7  1  0  0  0  0
  3  4  1  0  0  0  0
  3  5  1  0  0  0  0
  3  6  1  0  0  0  0
  7  8  1  0  0  0  0
  7 12  1  0  0  0  0
  8  9  1  0  0  0  0
  8 11  1  0  0  0  0
  8 13  1  0  0  0  0
  9 10  2  0  0  0  0
  9 17  1  0  0  0  0
 11 14  1  0  0  0  0
 11 15  1  0  0  0  0
 11 16  1  0  0  0  0
 17 18  1  0  0  0  0
 17 27  1  0  0  0  0
 18 19  1  0  0  0  0
 18 21  1  0  0  0  0
 18 28  1  0  0  0  0
 19 20  2  0  0  0  0
 19 35  1  0  0  0  0
 21 22  1  0  0  0  0
 21 29  1  0  0  0  0
 21 30  1  0  0  0  0
 22 23  1  0  0  0  0
 22 24  2  0  0  0  0
 23 25  2  0  0  0  0
 23 31  1  0  0  0  0
 24 26  1  0  0  0  0
 24 32  1  0  0  0  0
 25 26  1  0  0  0  0
 25 33  1  0  0  0  0
 26 34  1  0  0  0  0
 35 36  1  0  0  0  0
 35 40  1  0  0  0  0
 36 37  1  0  0  0  0
 36 39  1  0  0  0  0
 36 41  1  0  0  0  0
 37 38  2  0  0  0  0
 37 45  1  0  0  0  0
 39 42  1  0  0  0  0
 39 43  1  0  0  0  0
 39 44  1  0  0  0  0
 45 46  1  0  0  0  0
 45 47  1  0  0  0  0
 46 48  1  0  0  0  0
 46 49  1  0  0  0  0
 46 50  1  0  0  0  0
M  CHG  1  23   1
M  END
$$$$

  -OEChem-05262216443D

 50 50  0     1  0  0  0  0  0999 V2000
   -3.6201    0.2884    4.0858 C   0  0  0  0  0  0  0  0  0  0  0  0
   -4.6186    0.2551    3.3844 O   0  0  0  0  0  0  0  0  0  0  0  0
   -3.6279   -0.3576    5.4577 C   0  0  0  0  0  0  0  0  0  0  0  0
   -4.6125   -0.7861    5.6658 H   0  0  0  0  0  0  0  0  0  0  0  0
   -2.8816   -1.1548    5.4991 H   0  0  0  0  0  0  0  0  0  0  0  0
   -3.3997    0.3878    6.2233 H   0  0  0  0  0  0  0  0  0  0  0  0
   -2.4802    0.9098    3.6198 N   0  0  0  0  0  0  0  0  0  0  0  0
   -2.3244    1.4062    2.2476 C   0  0  2  0  0  0  0  0  0  0  0  0
   -0.8661    1.2856    1.7635 C   0  0  0  0  0  0  0  0  0  0  0  0
    0.0570    1.4333    2.5567 O   0  0  0  0  0  0  0  0  0  0  0  0
   -2.7909    2.8640    2.2038 C   0  0  0  0  0  0  0  0  0  0  0  0
   -1.6359    0.8228    4.1840 H   0  0  0  0  0  0  0  0  0  0  0  0
   -2.9438    0.8085    1.5699 H   0  0  0  0  0  0  0  0  0  0  0  0
   -2.1903    3.4783    2.8823 H   0  0  0  0  0  0  0  0  0  0  0  0
   -2.6996    3.2668    1.1911 H   0  0  0  0  0  0  0  0  0  0  0  0
   -3.8402    2.9341    2.5087 H   0  0  0  0  0  0  0  0  0  0  0  0
   -0.5831    1.1595    0.4091 N   0  0  0  0  0  0  0  0  0  0  0  0
    0.5584    0.3795   -0.1345 C   0  0  2  0  0  0  0  0  0  0  0  0
    0.7709   -1.0291    0.4872 C   0  0  0  0  0  0  0  0  0  0  0  0
    0.1524   -1.4195    1.4662 O   0  0  0  0  0  0  0  0  0  0  0  0
    1.8754    1.1661    0.0785 C   0  0  0  0  0  0  0  0  0  0  0  0
    1.8886    2.4641   -0.6870 C   0  0  0  0  0  0  0  0  0  0  0  0
    2.0674    2.6648   -2.0569 N   0  3  0  0  0  0  0  0  0  0  0  0
    1.7240    3.6939   -0.1050 C   0  0  0  0  0  0  0  0  0  0  0  0
    2.0302    3.9472   -2.3324 C   0  0  0  0  0  0  0  0  0  0  0  0
    1.8070    4.6230   -1.1338 N   0  0  0  0  0  0  0  0  0  0  0  0
   -1.4341    1.0960   -0.1451 H   0  0  0  0  0  0  0  0  0  0  0  0
    0.3910    0.2318   -1.2052 H   0  0  0  0  0  0  0  0  0  0  0  0
    2.7309    0.5661   -0.2498 H   0  0  0  0  0  0  0  0  0  0  0  0
    2.0369    1.3567    1.1440 H   0  0  0  0  0  0  0  0  0  0  0  0
    2.2523    1.9040   -2.7153 H   0  0  0  0  0  0  0  0  0  0  0  0
    1.5564    3.8783    0.9581 H   0  0  0  0  0  0  0  0  0  0  0  0
    2.1595    4.4038   -3.3156 H   0  0  0  0  0  0  0  0  0  0  0  0
    1.7313    5.6387   -1.0223 H   0  0  0  0  0  0  0  0  0  0  0  0
    1.5969   -1.9242   -0.1675 N   0  0  0  0  0  0  0  0  0  0  0  0
    2.2710   -3.0193    0.5448 C   0  0  2  0  0  0  0  0  0  0  0  0
    3.7264   -2.6168    0.8676 C   0  0  0  0  0  0  0  0  0  0  0  0
    4.2277   -1.6567    0.2856 O   0  0  0  0  0  0  0  0  0  0  0  0
    2.2288   -4.2603   -0.3496 C   0  0  0  0  0  0  0  0  0  0  0  0
    2.1511   -1.5210   -0.9178 H   0  0  0  0  0  0  0  0  0  0  0  0
    1.7648   -3.2522    1.4880 H   0  0  0  0  0  0  0  0  0  0  0  0
    2.7491   -4.0726   -1.2945 H   0  0  0  0  0  0  0  0  0  0  0  0
    2.7085   -5.1088    0.1484 H   0  0  0  0  0  0  0  0  0  0  0  0
    1.1913   -4.5318   -0.5702 H   0  0  0  0  0  0  0  0  0  0  0  0
    4.4656   -3.3111    1.8053 N   0  0  0  0  0  0  0  0  0  0  0  0
    5.8312   -2.9542    2.1731 C   0  0  0  0  0  0  0  0  0  0  0  0
    4.0092   -4.0741    2.2984 H   0  0  0  0  0  0  0  0  0  0  0  0
    6.4929   -3.0179    1.3026 H   0  0  0  0  0  0  0  0  0  0  0  0
    5.8674   -1.9340    2.5699 H   0  0  0  0  0  0  0  0  0  0  0  0
    6.2071   -3.6366    2.9419 H   0  0  0  0  0  0  0  0  0  0  0  0
  1  2  2  0  0  0  0
  1  3  1  0  0  0  0
  1  7  1  0  0  0  0
  3  4  1  0  0  0  0
  3  5  1  0  0  0  0
  3  6  1  0  0  0  0
  7  8  1  0  0  0  0
  7 12  1  0  0  0  0
  8  9  1  0  0  0  0
  8 11  1  0  0  0  0
  8 13  1  0  0  0  0
  9 10  2  0  0  0  0
  9 17  1  0  0  0  0
 11 14  1  0  0  0  0
 11 15  1  0  0  0  0
 11 16  1  0  0  0  0
 17 18  1  0  0  0  0
 17 27  1  0  0  0  0
 18 19  1  0  0  0  0
 18 21  1  0  0  0  0
 18 28  1  0  0  0  0
 19 20  2  0  0  0  0
 19 35  1  0  0  0  0
 21 22  1  0  0  0  0
 21 29  1  0  0  0  0
 21 30  1  0  0  0  0
 22 23  1  0  0  0  0
 22 24  2  0  0  0  0
 23 25  2  0  0  0  0
 23 31  1  0  0  0  0
 24 26  1  0  0  0  0
 24 32  1  0  0  0  0
 25 26  1  0  0  0  0
 25 33  1  0  0  0  0
 26 34  1  0  0  0  0
 35 36  1  0  0  0  0
 35 40  1  0  0  0  0
 36 37  1  0  0  0  0
 36 39  1  0  0  0  0
 36 41  1  0  0  0  0
 37 38  2  0  0  0  0
 37 45  1  0  0  0  0
 39 42  1  0  0  0  0
 39 43  1  0  0  0  0
 39 44  1  0  0  0  0
 45 46  1  0  0  0  0
 45 47  1  0  0  0  0
 46 48  1  0  0  0  0
 46 49  1  0  0  0  0
 46 50  1  0  0  0  0
M  CHG  1  23   1
M  END
$$$$

  -OEChem-05262216443D

 50 50  0     1  0  0  0  0  0999 V2000
   -3.5330    0.2973    4.1257 C   0  0  0  0  0  0  0  0  0  0  0  0
   -4.5596    0.3300    3.4667 O   0  0  0  0  0  0  0  0  0  0  0  0
   -3.5348   -0.3096    5.5153 C   0  0  0  0  0  0  0  0  0  0  0  0
   -4.5435   -0.6391    5.7798 H   0  0  0  0  0  0  0  0  0  0  0  0
   -2.8633   -1.1709    5.5471 H   0  0  0  0  0  0  0  0  0  0  0  0
   -3.2034    0.4308    6.2472 H   0  0  0  0  0  0  0  0  0  0  0  0
   -2.3665    0.8118    3.5991 N   0  0  0  0  0  0  0  0  0  0  0  0
   -2.2275    1.2681    2.2104 C   0  0  2  0  0  0  0  0  0  0  0  0
   -0.7783    1.1299    1.6992 C   0  0  0  0  0  0  0  0  0  0  0  0
    0.1475    1.0819    2.5018 O   0  0  0  0  0  0  0  0  0  0  0  0
   -2.6909    2.7266    2.1306 C   0  0  0  0  0  0  0  0  0  0  0  0
   -1.5098    0.6682    4.1315 H   0  0  0  0  0  0  0  0  0  0  0  0
   -2.8594    0.6501    1.5621 H   0  0  0  0  0  0  0  0  0  0  0  0
   -2.0741    3.3600    2.7756 H   0  0  0  0  0  0  0  0  0  0  0  0
   -2.6229    3.0979    1.1041 H   0  0  0  0  0  0  0  0  0  0  0  0
   -3.7330    2.8106    2.4561 H   0  0  0  0  0  0  0  0  0  0  0  0
   -0.5242    1.1500    0.3326 N   0  0  0  0  0  0  0  0  0  0  0  0
    0.6073    0.4607   -0.3406 C   0  0  2  0  0  0  0  0  0  0  0  0
    0.5633   -1.0760   -0.1153 C   0  0  0  0  0  0  0  0  0  0  0  0
   -0.3482   -1.5950    0.5145 O   0  0  0  0  0  0  0  0  0  0  0  0
    1.9875    0.9854    0.1358 C   0  0  0  0  0  0  0  0  0  0  0  0
    2.1811    2.4360   -0.2208 C   0  0  0  0  0  0  0  0  0  0  0  0
    2.4636    3.0062   -1.4632 N   0  3  0  0  0  0  0  0  0  0  0  0
    2.1147    3.4512    0.6971 C   0  0  0  0  0  0  0  0  0  0  0  0
    2.5741    4.3086   -1.3454 C   0  0  0  0  0  0  0  0  0  0  0  0
    2.3564    4.6245   -0.0051 N   0  0  0  0  0  0  0  0  0  0  0  0
   -1.3874    1.1587   -0.2071 H   0  0  0  0  0  0  0  0  0  0  0  0
    0.5191    0.6296   -1.4177 H   0  0  0  0  0  0  0  0  0  0  0  0
    2.7912    0.4167   -0.3422 H   0  0  0  0  0  0  0  0  0  0  0  0
    2.1239    0.8278    1.2090 H   0  0  0  0  0  0  0  0  0  0  0  0
    2.5890    2.4572   -2.3170 H   0  0  0  0  0  0  0  0  0  0  0  0
    1.9041    3.3324    1.7623 H   0  0  0  0  0  0  0  0  0  0  0  0
    2.8007    5.0156   -2.1459 H   0  0  0  0  0  0  0  0  0  0  0  0
    2.3799    5.5645    0.4019 H   0  0  0  0  0  0  0  0  0  0  0  0
    1.5369   -1.8896   -0.6665 N   0  0  0  0  0  0  0  0  0  0  0  0
    1.9084   -3.1682   -0.0428 C   0  0  2  0  0  0  0  0  0  0  0  0
    3.1369   -2.9674    0.8707 C   0  0  0  0  0  0  0  0  0  0  0  0
    3.8310   -1.9622    0.7319 O   0  0  0  0  0  0  0  0  0  0  0  0
    2.2151   -4.1680   -1.1595 C   0  0  0  0  0  0  0  0  0  0  0  0
    2.3202   -1.3935   -1.0816 H   0  0  0  0  0  0  0  0  0  0  0  0
    1.0896   -3.5675    0.5660 H   0  0  0  0  0  0  0  0  0  0  0  0
    3.0510   -3.8166   -1.7730 H   0  0  0  0  0  0  0  0  0  0  0  0
    2.4798   -5.1429   -0.7384 H   0  0  0  0  0  0  0  0  0  0  0  0
    1.3391   -4.2971   -1.8032 H   0  0  0  0  0  0  0  0  0  0  0  0
    3.4608   -3.8959    1.8408 N   0  0  0  0  0  0  0  0  0  0  0  0
    4.5859   -3.7383    2.7556 C   0  0  0  0  0  0  0  0  0  0  0  0
    2.8379   -4.6900    1.9633 H   0  0  0  0  0  0  0  0  0  0  0  0
    5.5253   -3.6514    2.1991 H   0  0  0  0  0  0  0  0  0  0  0  0
    4.4573   -2.8417    3.3713 H   0  0  0  0  0  0  0  0  0  0  0  0
    4.6592   -4.6054    3.4196 H   0  0  0  0  0  0  0  0  0  0  0  0
  1  2  2  0  0  0  0
  1  3  1  0  0  0  0
  1  7  1  0  0  0  0
  3  4  1  0  0  0  0
  3  5  1  0  0  0  0
  3  6  1  0  0  0  0
  7  8  1  0  0  0  0
  7 12  1  0  0  0  0
  8  9  1  0  0  0  0
  8 11  1  0  0  0  0
  8 13  1  0  0  0  0
  9 10  2  0  0  0  0
  9 17  1  0  0  0  0
 11 14  1  0  0  0  0
 11 15  1  0  0  0  0
 11 16  1  0  0  0  0
 17 18  1  0  0  0  0
 17 27  1  0  0  0  0
 18 19  1  0  0  0  0
 18 21  1  0  0  0  0
 18 28  1  0  0  0  0
 19 20  2  0  0  0  0
 19 35  1  0  0  0  0
 21 22  1  0  0  0  0
 21 29  1  0  0  0  0
 21 30  1  0  0  0  0
 22 23  1  0  0  0  0
 22 24  2  0  0  0  0
 23 25  2  0  0  0  0
 23 31  1  0  0  0  0
 24 26  1  0  0  0  0
 24 32  1  0  0  0  0
 25 26  1  0  0  0  0
 25 33  1  0  0  0  0
 26 34  1  0  0  0  0
 35 36  1  0  0  0  0
 35 40  1  0  0  0  0
 36 37  1  0  0  0  0
 36 39  1  0  0  0  0
 36 41  1  0  0  0  0
 37 38  2  0  0  0  0
 37 45  1  0  0  0  0
 39 42  1  0  0  0  0
 39 43  1  0  0  0  0
 39 44  1  0  0  0  0
 45 46  1  0  0  0  0
 45 47  1  0  0  0  0
 46 48  1  0  0  0  0
 46 49  1  0  0  0  0
 46 50  1  0  0  0  0
M  CHG  1  23   1
M  END
$$$$

  -OEChem-05262216443D

 50 50  0     1  0  0  0  0  0999 V2000
   -3.7203    0.2801    3.9493 C   0  0  0  0  0  0  0  0  0  0  0  0
   -4.7164    0.4037    3.2556 O   0  0  0  0  0  0  0  0  0  0  0  0
   -3.8172   -0.3695    5.3162 C   0  0  0  0  0  0  0  0  0  0  0  0
   -4.8616   -0.5926    5.5526 H   0  0  0  0  0  0  0  0  0  0  0  0
   -3.2465   -1.3011    5.3276 H   0  0  0  0  0  0  0  0  0  0  0  0
   -3.4208    0.3032    6.0802 H   0  0  0  0  0  0  0  0  0  0  0  0
   -2.5029    0.7292    3.4806 N   0  0  0  0  0  0  0  0  0  0  0  0
   -2.2835    1.2233    2.1148 C   0  0  2  0  0  0  0  0  0  0  0  0
   -0.8243    1.0243    1.6542 C   0  0  0  0  0  0  0  0  0  0  0  0
    0.0585    0.8541    2.4876 O   0  0  0  0  0  0  0  0  0  0  0  0
   -2.6622    2.7080    2.0661 C   0  0  0  0  0  0  0  0  0  0  0  0
   -1.6775    0.5093    4.0363 H   0  0  0  0  0  0  0  0  0  0  0  0
   -2.9211    0.6625    1.4217 H   0  0  0  0  0  0  0  0  0  0  0  0
   -2.0408    3.2841    2.7588 H   0  0  0  0  0  0  0  0  0  0  0  0
   -2.5276    3.1079    1.0569 H   0  0  0  0  0  0  0  0  0  0  0  0
   -3.7115    2.8417    2.3490 H   0  0  0  0  0  0  0  0  0  0  0  0
   -0.5102    1.1041    0.3030 N   0  0  0  0  0  0  0  0  0  0  0  0
    0.6737    0.4795   -0.3387 C   0  0  2  0  0  0  0  0  0  0  0  0
    0.6573   -1.0639   -0.1572 C   0  0  0  0  0  0  0  0  0  0  0  0
   -0.3730   -1.6372    0.1703 O   0  0  0  0  0  0  0  0  0  0  0  0
    2.0066    1.0653    0.2008 C   0  0  0  0  0  0  0  0  0  0  0  0
    2.1383    2.5287   -0.1275 C   0  0  0  0  0  0  0  0  0  0  0  0
    2.4393    3.1239   -1.3536 N   0  3  0  0  0  0  0  0  0  0  0  0
    2.0000    3.5293    0.7986 C   0  0  0  0  0  0  0  0  0  0  0  0
    2.4902    4.4282   -1.2195 C   0  0  0  0  0  0  0  0  0  0  0  0
    2.2140    4.7194    0.1156 N   0  0  0  0  0  0  0  0  0  0  0  0
   -1.3423    1.1403   -0.2827 H   0  0  0  0  0  0  0  0  0  0  0  0
    0.6225    0.6683   -1.4147 H   0  0  0  0  0  0  0  0  0  0  0  0
    2.8574    0.5509   -0.2549 H   0  0  0  0  0  0  0  0  0  0  0  0
    2.1074    0.9007    1.2771 H   0  0  0  0  0  0  0  0  0  0  0  0
    2.6177    2.5903   -2.2080 H   0  0  0  0  0  0  0  0  0  0  0  0
    1.7661    3.3913    1.8565 H   0  0  0  0  0  0  0  0  0  0  0  0
    2.7142    5.1529   -2.0050 H   0  0  0  0  0  0  0  0  0  0  0  0
    2.1880    5.6548    0.5329 H   0  0  0  0  0  0  0  0  0  0  0  0
    1.7897   -1.8204   -0.3944 N   0  0  0  0  0  0  0  0  0  0  0  0
    2.0548   -3.0706    0.3297 C   0  0  2  0  0  0  0  0  0  0  0  0
    3.2491   -2.8572    1.2852 C   0  0  0  0  0  0  0  0  0  0  0  0
    3.9324   -1.8407    1.1722 O   0  0  0  0  0  0  0  0  0  0  0  0
    2.3537   -4.1665   -0.6957 C   0  0  0  0  0  0  0  0  0  0  0  0
    2.6335   -1.2804   -0.5699 H   0  0  0  0  0  0  0  0  0  0  0  0
    1.1915   -3.3744    0.9321 H   0  0  0  0  0  0  0  0  0  0  0  0
    3.2302   -3.9039   -1.2967 H   0  0  0  0  0  0  0  0  0  0  0  0
    2.5491   -5.1192   -0.1939 H   0  0  0  0  0  0  0  0  0  0  0  0
    1.4980   -4.2995   -1.3655 H   0  0  0  0  0  0  0  0  0  0  0  0
    3.5517   -3.7784    2.2688 N   0  0  0  0  0  0  0  0  0  0  0  0
    4.6545   -3.6103    3.2084 C   0  0  0  0  0  0  0  0  0  0  0  0
    2.9509   -4.5937    2.3576 H   0  0  0  0  0  0  0  0  0  0  0  0
    5.6049   -3.5158    2.6723 H   0  0  0  0  0  0  0  0  0  0  0  0
    4.5042   -2.7139    3.8192 H   0  0  0  0  0  0  0  0  0  0  0  0
    4.7205   -4.4758    3.8749 H   0  0  0  0  0  0  0  0  0  0  0  0
  1  2  2  0  0  0  0
  1  3  1  0  0  0  0
  1  7  1  0  0  0  0
  3  4  1  0  0  0  0
  3  5  1  0  0  0  0
  3  6  1  0  0  0  0
  7  8  1  0  0  0  0
  7 12  1  0  0  0  0
  8  9  1  0  0  0  0
  8 11  1  0  0  0  0
  8 13  1  0  0  0  0
  9 10  2  0  0  0  0
  9 17  1  0  0  0  0
 11 14  1  0  0  0  0
 11 15  1  0  0  0  0
 11 16  1  0  0  0  0
 17 18  1  0  0  0  0
 17 27  1  0  0  0  0
 18 19  1  0  0  0  0
 18 21  1  0  0  0  0
 18 28  1  0  0  0  0
 19 20  2  0  0  0  0
 19 35  1  0  0  0  0
 21 22  1  0  0  0  0
 21 29  1  0  0  0  0
 21 30  1  0  0  0  0
 22 23  1  0  0  0  0
 22 24  2  0  0  0  0
 23 25  2  0  0  0  0
 23 31  1  0  0  0  0
 24 26  1  0  0  0  0
 24 32  1  0  0  0  0
 25 26  1  0  0  0  0
 25 33  1  0  0  0  0
 26 34  1  0  0  0  0
 35 36  1  0  0  0  0
 35 40  1  0  0  0  0
 36 37  1  0  0  0  0
 36 39  1  0  0  0  0
 36 41  1  0  0  0  0
 37 38  2  0  0  0  0
 37 45  1  0  0  0  0
 39 42  1  0  0  0  0
 39 43  1  0  0  0  0
 39 44  1  0  0  0  0
 45 46  1  0  0  0  0
 45 47  1  0  0  0  0
 46 48  1  0  0  0  0
 46 49  1  0  0  0  0
 46 50  1  0  0  0  0
M  CHG  1  23   1
M  END
$$$$

  -OEChem-05262216443D

 50 50  0     1  0  0  0  0  0999 V2000
   -3.9637    0.3135    3.7010 C   0  0  0  0  0  0  0  0  0  0  0  0
   -4.8931    0.3983    2.9150 O   0  0  0  0  0  0  0  0  0  0  0  0
   -4.1729   -0.3079    5.0685 C   0  0  0  0  0  0  0  0  0  0  0  0
   -5.2256   -0.5716    5.2042 H   0  0  0  0  0  0  0  0  0  0  0  0
   -3.5684   -1.2130    5.1640 H   0  0  0  0  0  0  0  0  0  0  0  0
   -3.8846    0.3998    5.8493 H   0  0  0  0  0  0  0  0  0  0  0  0
   -2.7187    0.7835    3.3364 N   0  0  0  0  0  0  0  0  0  0  0  0
   -2.3905    1.2767    1.9922 C   0  0  2  0  0  0  0  0  0  0  0  0
   -0.8953    1.0980    1.6565 C   0  0  0  0  0  0  0  0  0  0  0  0
   -0.0737    0.9923    2.5600 O   0  0  0  0  0  0  0  0  0  0  0  0
   -2.7819    2.7560    1.9085 C   0  0  0  0  0  0  0  0  0  0  0  0
   -1.9458    0.6124    3.9780 H   0  0  0  0  0  0  0  0  0  0  0  0
   -2.9614    0.7081    1.2492 H   0  0  0  0  0  0  0  0  0  0  0  0
   -2.2300    3.3404    2.6516 H   0  0  0  0  0  0  0  0  0  0  0  0
   -2.5647    3.1562    0.9138 H   0  0  0  0  0  0  0  0  0  0  0  0
   -3.8537    2.8758    2.0990 H   0  0  0  0  0  0  0  0  0  0  0  0
   -0.4758    1.1004    0.3329 N   0  0  0  0  0  0  0  0  0  0  0  0
    0.8166    0.5482   -0.1365 C   0  0  2  0  0  0  0  0  0  0  0  0
    0.9160   -0.9633    0.1969 C   0  0  0  0  0  0  0  0  0  0  0  0
   -0.0928   -1.6523    0.1320 O   0  0  0  0  0  0  0  0  0  0  0  0
    2.0310    1.3488    0.3983 C   0  0  0  0  0  0  0  0  0  0  0  0
    2.0221    2.7615   -0.1265 C   0  0  0  0  0  0  0  0  0  0  0  0
    2.3511    3.2018   -1.4102 N   0  3  0  0  0  0  0  0  0  0  0  0
    1.7092    3.8655    0.6235 C   0  0  0  0  0  0  0  0  0  0  0  0
    2.2509    4.5081   -1.4784 C   0  0  0  0  0  0  0  0  0  0  0  0
    1.8465    4.9586   -0.2229 N   0  0  0  0  0  0  0  0  0  0  0  0
   -1.2484    1.0205   -0.3262 H   0  0  0  0  0  0  0  0  0  0  0  0
    0.8330    0.6094   -1.2284 H   0  0  0  0  0  0  0  0  0  0  0  0
    2.9638    0.8781    0.0725 H   0  0  0  0  0  0  0  0  0  0  0  0
    2.0525    1.3485    1.4919 H   0  0  0  0  0  0  0  0  0  0  0  0
    2.6419    2.5713   -2.1622 H   0  0  0  0  0  0  0  0  0  0  0  0
    1.4135    3.8630    1.6743 H   0  0  0  0  0  0  0  0  0  0  0  0
    2.4520    5.1294   -2.3535 H   0  0  0  0  0  0  0  0  0  0  0  0
    1.6884    5.9360    0.0407 H   0  0  0  0  0  0  0  0  0  0  0  0
    2.1265   -1.5812    0.4467 N   0  0  0  0  0  0  0  0  0  0  0  0
    2.2622   -2.9565    0.9404 C   0  0  2  0  0  0  0  0  0  0  0  0
    3.4604   -3.0486    1.9082 C   0  0  0  0  0  0  0  0  0  0  0  0
    4.2274   -2.0941    2.0060 O   0  0  0  0  0  0  0  0  0  0  0  0
    2.4508   -3.8902   -0.2586 C   0  0  0  0  0  0  0  0  0  0  0  0
    2.9203   -0.9793    0.6620 H   0  0  0  0  0  0  0  0  0  0  0  0
    1.3643   -3.2509    1.4950 H   0  0  0  0  0  0  0  0  0  0  0  0
    3.3522   -3.6197   -0.8177 H   0  0  0  0  0  0  0  0  0  0  0  0
    2.5457   -4.9286    0.0728 H   0  0  0  0  0  0  0  0  0  0  0  0
    1.5893   -3.8214   -0.9305 H   0  0  0  0  0  0  0  0  0  0  0  0
    3.6691   -4.1772    2.6773 N   0  0  0  0  0  0  0  0  0  0  0  0
    4.7784   -4.3130    3.6148 C   0  0  0  0  0  0  0  0  0  0  0  0
    3.0110   -4.9459    2.5812 H   0  0  0  0  0  0  0  0  0  0  0  0
    5.7362   -4.2517    3.0871 H   0  0  0  0  0  0  0  0  0  0  0  0
    4.7416   -3.5213    4.3708 H   0  0  0  0  0  0  0  0  0  0  0  0
    4.7271   -5.2797    4.1255 H   0  0  0  0  0  0  0  0  0  0  0  0
  1  2  2  0  0  0  0
  1  3  1  0  0  0  0
  1  7  1  0  0  0  0
  3  4  1  0  0  0  0
  3  5  1  0  0  0  0
  3  6  1  0  0  0  0
  7  8  1  0  0  0  0
  7 12  1  0  0  0  0
  8  9  1  0  0  0  0
  8 11  1  0  0  0  0
  8 13  1  0  0  0  0
  9 10  2  0  0  0  0
  9 17  1  0  0  0  0
 11 14  1  0  0  0  0
 11 15  1  0  0  0  0
 11 16  1  0  0  0  0
 17 18  1  0  0  0  0
 17 27  1  0  0  0  0
 18 19  1  0  0  0  0
 18 21  1  0  0  0  0
 18 28  1  0  0  0  0
 19 20  2  0  0  0  0
 19 35  1  0  0  0  0
 21 22  1  0  0  0  0
 21 29  1  0  0  0  0
 21 30  1  0  0  0  0
 22 23  1  0  0  0  0
 22 24  2  0  0  0  0
 23 25  2  0  0  0  0
 23 31  1  0  0  0  0
 24 26  1  0  0  0  0
 24 32  1  0  0  0  0
 25 26  1  0  0  0  0
 25 33  1  0  0  0  0
 26 34  1  0  0  0  0
 35 36  1  0  0  0  0
 35 40  1  0  0  0  0
 36 37  1  0  0  0  0
 36 39  1  0  0  0  0
 36 41  1  0  0  0  0
 37 38  2  0  0  0  0
 37 45  1  0  0  0  0
 39 42  1  0  0  0  0
 39 43  1  0  0  0  0
 39 44  1  0  0  0  0
 45 46  1  0  0  0  0
 45 47  1  0  0  0  0
 46 48  1  0  0  0  0
 46 49  1  0  0  0  0
 46 50  1  0  0  0  0
M  CHG  1  23   1
M  END
$$$$

  -OEChem-05262216443D

 50 50  0     1  0  0  0  0  0999 V2000
   -1.8784   -0.6899    4.2146 C   0  0  0  0  0  0  0  0  0  0  0  0
   -2.7308   -1.3797    3.6773 O   0  0  0  0  0  0  0  0  0  0  0  0
   -1.3392   -1.0691    5.5800 C   0  0  0  0  0  0  0  0  0  0  0  0
   -1.8196   -1.9852    5.9343 H   0  0  0  0  0  0  0  0  0  0  0  0
   -0.2606   -1.2344    5.5192 H   0  0  0  0  0  0  0  0  0  0  0  0
   -1.5384   -0.2677    6.2953 H   0  0  0  0  0  0  0  0  0  0  0  0
   -1.4114    0.4475    3.5925 N   0  0  0  0  0  0  0  0  0  0  0  0
   -1.6907    0.7854    2.1917 C   0  0  2  0  0  0  0  0  0  0  0  0
   -0.4588    1.4376    1.5326 C   0  0  0  0  0  0  0  0  0  0  0  0
    0.4113    1.9571    2.2247 O   0  0  0  0  0  0  0  0  0  0  0  0
   -2.9011    1.7203    2.1477 C   0  0  0  0  0  0  0  0  0  0  0  0
   -0.5799    0.8685    4.0050 H   0  0  0  0  0  0  0  0  0  0  0  0
   -1.9170   -0.1275    1.6278 H   0  0  0  0  0  0  0  0  0  0  0  0
   -2.6987    2.6368    2.7110 H   0  0  0  0  0  0  0  0  0  0  0  0
   -3.1441    1.9885    1.1154 H   0  0  0  0  0  0  0  0  0  0  0  0
   -3.7729    1.2263    2.5892 H   0  0  0  0  0  0  0  0  0  0  0  0
   -0.2866    1.4262    0.1554 N   0  0  0  0  0  0  0  0  0  0  0  0
    0.9374    0.8486   -0.4487 C   0  0  2  0  0  0  0  0  0  0  0  0
    1.0104   -0.6421   -0.0368 C   0  0  0  0  0  0  0  0  0  0  0  0
    0.0137   -1.3210   -0.2445 O   0  0  0  0  0  0  0  0  0  0  0  0
    2.2364    1.6103   -0.0953 C   0  0  0  0  0  0  0  0  0  0  0  0
    2.1952    3.0110   -0.6478 C   0  0  0  0  0  0  0  0  0  0  0  0
    2.3580    3.4348   -1.9680 N   0  3  0  0  0  0  0  0  0  0  0  0
    1.9508    4.1208    0.1184 C   0  0  0  0  0  0  0  0  0  0  0  0
    2.2279    4.7386   -2.0406 C   0  0  0  0  0  0  0  0  0  0  0  0
    1.9741    5.2034   -0.7508 N   0  0  0  0  0  0  0  0  0  0  0  0
   -1.1315    1.0846   -0.3031 H   0  0  0  0  0  0  0  0  0  0  0  0
    0.8245    0.8649   -1.5371 H   0  0  0  0  0  0  0  0  0  0  0  0
    3.0935    1.0945   -0.5401 H   0  0  0  0  0  0  0  0  0  0  0  0
    2.4144    1.6253    0.9835 H   0  0  0  0  0  0  0  0  0  0  0  0
    2.5455    2.7949   -2.7440 H   0  0  0  0  0  0  0  0  0  0  0  0
    1.7506    4.1220    1.1926 H   0  0  0  0  0  0  0  0  0  0  0  0
    2.3010    5.3487   -2.9431 H   0  0  0  0  0  0  0  0  0  0  0  0
    1.8123    6.1796   -0.4847 H   0  0  0  0  0  0  0  0  0  0  0  0
    2.1609   -1.2630    0.4182 N   0  0  0  0  0  0  0  0  0  0  0  0
    2.0923   -2.6260    0.9701 C   0  0  2  0  0  0  0  0  0  0  0  0
    1.3528   -2.6887    2.3281 C   0  0  0  0  0  0  0  0  0  0  0  0
    1.3185   -1.7038    3.0605 O   0  0  0  0  0  0  0  0  0  0  0  0
    3.5246   -3.1424    1.1254 C   0  0  0  0  0  0  0  0  0  0  0  0
    2.8404   -0.6453    0.8517 H   0  0  0  0  0  0  0  0  0  0  0  0
    1.5627   -3.2781    0.2666 H   0  0  0  0  0  0  0  0  0  0  0  0
    4.0799   -2.5267    1.8407 H   0  0  0  0  0  0  0  0  0  0  0  0
    3.5208   -4.1749    1.4890 H   0  0  0  0  0  0  0  0  0  0  0  0
    4.0453   -3.1190    0.1630 H   0  0  0  0  0  0  0  0  0  0  0  0
    0.7635   -3.8716    2.7335 N   0  0  0  0  0  0  0  0  0  0  0  0
   -0.0252   -4.0044    3.9522 C   0  0  0  0  0  0  0  0  0  0  0  0
    0.7159   -4.6218    2.0498 H   0  0  0  0  0  0  0  0  0  0  0  0
    0.4907   -3.5455    4.8021 H   0  0  0  0  0  0  0  0  0  0  0  0
   -1.0015   -3.5261    3.8276 H   0  0  0  0  0  0  0  0  0  0  0  0
   -0.1852   -5.0619    4.1840 H   0  0  0  0  0  0  0  0  0  0  0  0
  1  2  2  0  0  0  0
  1  3  1  0  0  0  0
  1  7  1  0  0  0  0
  3  4  1  0  0  0  0
  3  5  1  0  0  0  0
  3  6  1  0  0  0  0
  7  8  1  0  0  0  0
  7 12  1  0  0  0  0
  8  9  1  0  0  0  0
  8 11  1  0  0  0  0
  8 13  1  0  0  0  0
  9 10  2  0  0  0  0
  9 17  1  0  0  0  0
 11 14  1  0  0  0  0
 11 15  1  0  0  0  0
 11 16  1  0  0  0  0
 17 18  1  0  0  0  0
 17 27  1  0  0  0  0
 18 19  1  0  0  0  0
 18 21  1  0  0  0  0
 18 28  1  0  0  0  0
 19 20  2  0  0  0  0
 19 35  1  0  0  0  0
 21 22  1  0  0  0  0
 21 29  1  0  0  0  0
 21 30  1  0  0  0  0
 22 23  1  0  0  0  0
 22 24  2  0  0  0  0
 23 25  2  0  0  0  0
 23 31  1  0  0  0  0
 24 26  1  0  0  0  0
 24 32  1  0  0  0  0
 25 26  1  0  0  0  0
 25 33  1  0  0  0  0
 26 34  1  0  0  0  0
 35 36  1  0  0  0  0
 35 40  1  0  0  0  0
 36 37  1  0  0  0  0
 36 39  1  0  0  0  0
 36 41  1  0  0  0  0
 37 38  2  0  0  0  0
 37 45  1  0  0  0  0
 39 42  1  0  0  0  0
 39 43  1  0  0  0  0
 39 44  1  0  0  0  0
 45 46  1  0  0  0  0
 45 47  1  0  0  0  0
 46 48  1  0  0  0  0
 46 49  1  0  0  0  0
 46 50  1  0  0  0  0
M  CHG  1  23   1
M  END
$$$$

  -OEChem-05262216443D

 50 50  0     1  0  0  0  0  0999 V2000
   -2.4233   -0.5726    4.1482 C   0  0  0  0  0  0  0  0  0  0  0  0
   -3.5588   -0.6193    3.7022 O   0  0  0  0  0  0  0  0  0  0  0  0
   -2.0636   -1.3636    5.3902 C   0  0  0  0  0  0  0  0  0  0  0  0
   -2.6495   -2.2854    5.4297 H   0  0  0  0  0  0  0  0  0  0  0  0
   -1.0014   -1.6179    5.3812 H   0  0  0  0  0  0  0  0  0  0  0  0
   -2.2763   -0.7674    6.2806 H   0  0  0  0  0  0  0  0  0  0  0  0
   -1.4791    0.2276    3.5436 N   0  0  0  0  0  0  0  0  0  0  0  0
   -1.7139    0.9942    2.3140 C   0  0  2  0  0  0  0  0  0  0  0  0
   -0.3798    1.3308    1.6213 C   0  0  0  0  0  0  0  0  0  0  0  0
    0.6050    1.6144    2.2934 O   0  0  0  0  0  0  0  0  0  0  0  0
   -2.4743    2.2806    2.6544 C   0  0  0  0  0  0  0  0  0  0  0  0
   -0.5063    0.0531    3.8098 H   0  0  0  0  0  0  0  0  0  0  0  0
   -2.3130    0.3907    1.6233 H   0  0  0  0  0  0  0  0  0  0  0  0
   -1.9021    2.8858    3.3649 H   0  0  0  0  0  0  0  0  0  0  0  0
   -2.6509    2.8721    1.7515 H   0  0  0  0  0  0  0  0  0  0  0  0
   -3.4441    2.0436    3.1037 H   0  0  0  0  0  0  0  0  0  0  0  0
   -0.2518    1.2668    0.2398 N   0  0  0  0  0  0  0  0  0  0  0  0
    0.9758    0.7370   -0.3951 C   0  0  2  0  0  0  0  0  0  0  0  0
    1.1448   -0.7245    0.0791 C   0  0  0  0  0  0  0  0  0  0  0  0
    0.2997   -1.5310   -0.2836 O   0  0  0  0  0  0  0  0  0  0  0  0
    2.2491    1.5905   -0.1805 C   0  0  0  0  0  0  0  0  0  0  0  0
    2.0893    2.9437   -0.8221 C   0  0  0  0  0  0  0  0  0  0  0  0
    2.1428    3.2737   -2.1775 N   0  3  0  0  0  0  0  0  0  0  0  0
    1.8529    4.0981   -0.1216 C   0  0  0  0  0  0  0  0  0  0  0  0
    1.9489    4.5619   -2.3346 C   0  0  0  0  0  0  0  0  0  0  0  0
    1.7652    5.1119   -1.0668 N   0  0  0  0  0  0  0  0  0  0  0  0
   -1.1155    0.9663   -0.2113 H   0  0  0  0  0  0  0  0  0  0  0  0
    0.7994    0.6855   -1.4743 H   0  0  0  0  0  0  0  0  0  0  0  0
    3.1041    1.0843   -0.6415 H   0  0  0  0  0  0  0  0  0  0  0  0
    2.4958    1.7023    0.8777 H   0  0  0  0  0  0  0  0  0  0  0  0
    2.3051    2.5850   -2.9168 H   0  0  0  0  0  0  0  0  0  0  0  0
    1.7414    4.1772    0.9620 H   0  0  0  0  0  0  0  0  0  0  0  0
    1.9326    5.1042   -3.2820 H   0  0  0  0  0  0  0  0  0  0  0  0
    1.5851    6.0994   -0.8615 H   0  0  0  0  0  0  0  0  0  0  0  0
    2.2489   -1.1701    0.7837 N   0  0  0  0  0  0  0  0  0  0  0  0
    2.2434   -2.5155    1.3803 C   0  0  2  0  0  0  0  0  0  0  0  0
    1.2284   -2.6639    2.5414 C   0  0  0  0  0  0  0  0  0  0  0  0
    0.9152   -1.6973    3.2325 O   0  0  0  0  0  0  0  0  0  0  0  0
    3.6613   -2.8128    1.8741 C   0  0  0  0  0  0  0  0  0  0  0  0
    2.7121   -0.4484    1.3303 H   0  0  0  0  0  0  0  0  0  0  0  0
    1.9839   -3.2510    0.6107 H   0  0  0  0  0  0  0  0  0  0  0  0
    3.9511   -2.1070    2.6597 H   0  0  0  0  0  0  0  0  0  0  0  0
    3.7190   -3.8270    2.2822 H   0  0  0  0  0  0  0  0  0  0  0  0
    4.3764   -2.7328    1.0491 H   0  0  0  0  0  0  0  0  0  0  0  0
    0.6819   -3.9035    2.8177 N   0  0  0  0  0  0  0  0  0  0  0  0
   -0.3331   -4.1294    3.8391 C   0  0  0  0  0  0  0  0  0  0  0  0
    0.8854   -4.6565    2.1662 H   0  0  0  0  0  0  0  0  0  0  0  0
    0.0097   -3.7597    4.8112 H   0  0  0  0  0  0  0  0  0  0  0  0
   -1.2646   -3.6199    3.5711 H   0  0  0  0  0  0  0  0  0  0  0  0
   -0.5400   -5.1998    3.9362 H   0  0  0  0  0  0  0  0  0  0  0  0
  1  2  2  0  0  0  0
  1  3  1  0  0  0  0
  1  7  1  0  0  0  0
  3  4  1  0  0  0  0
  3  5  1  0  0  0  0
  3  6  1  0  0  0  0
  7  8  1  0  0  0  0
  7 12  1  0  0  0  0
  8  9  1  0  0  0  0
  8 11  1  0  0  0  0
  8 13  1  0  0  0  0
  9 10  2  0  0  0  0
  9 17  1  0  0  0  0
 11 14  1  0  0  0  0
 11 15  1  0  0  0  0
 11 16  1  0  0  0  0
 17 18  1  0  0  0  0
 17 27  1  0  0  0  0
 18 19  1  0  0  0  0
 18 21  1  0  0  0  0
 18 28  1  0  0  0  0
 19 20  2  0  0  0  0
 19 35  1  0  0  0  0
 21 22  1  0  0  0  0
 21 29  1  0  0  0  0
 21 30  1  0  0  0  0
 22 23  1  0  0  0  0
 22 24  2  0  0  0  0
 23 25  2  0  0  0  0
 23 31  1  0  0  0  0
 24 26  1  0  0  0  0
 24 32  1  0  0  0  0
 25 26  1  0  0  0  0
 25 33  1  0  0  0  0
 26 34  1  0  0  0  0
 35 36  1  0  0  0  0
 35 40  1  0  0  0  0
 36 37  1  0  0  0  0
 36 39  1  0  0  0  0
 36 41  1  0  0  0  0
 37 38  2  0  0  0  0
 37 45  1  0  0  0  0
 39 42  1  0  0  0  0
 39 43  1  0  0  0  0
 39 44  1  0  0  0  0
 45 46  1  0  0  0  0
 45 47  1  0  0  0  0
 46 48  1  0  0  0  0
 46 49  1  0  0  0  0
 46 50  1  0  0  0  0
M  CHG  1  23   1
M  END
$$$$

  -OEChem-05262216443D

 50 50  0     1  0  0  0  0  0999 V2000
   -2.6121   -0.2286    2.2954 C   0  0  0  0  0  0  0  0  0  0  0  0
   -3.0435    0.5468    1.4512 O   0  0  0  0  0  0  0  0  0  0  0  0
   -2.9709   -1.7007    2.2485 C   0  0  0  0  0  0  0  0  0  0  0  0
   -2.0619   -2.3039    2.1847 H   0  0  0  0  0  0  0  0  0  0  0  0
   -3.5214   -1.9786    3.1502 H   0  0  0  0  0  0  0  0  0  0  0  0
   -3.5937   -1.9091    1.3744 H   0  0  0  0  0  0  0  0  0  0  0  0
   -1.7168    0.2369    3.2353 N   0  0  0  0  0  0  0  0  0  0  0  0
   -1.1791    1.6037    3.2361 C   0  0  2  0  0  0  0  0  0  0  0  0
   -0.0673    1.7509    2.1723 C   0  0  0  0  0  0  0  0  0  0  0  0
    1.0999    1.9673    2.4805 O   0  0  0  0  0  0  0  0  0  0  0  0
   -0.6931    1.8943    4.6608 C   0  0  0  0  0  0  0  0  0  0  0  0
   -1.1440   -0.4837    3.6882 H   0  0  0  0  0  0  0  0  0  0  0  0
   -1.9722    2.3200    2.9963 H   0  0  0  0  0  0  0  0  0  0  0  0
    0.0969    1.1924    4.9489 H   0  0  0  0  0  0  0  0  0  0  0  0
   -0.2959    2.9117    4.7292 H   0  0  0  0  0  0  0  0  0  0  0  0
   -1.5198    1.7973    5.3713 H   0  0  0  0  0  0  0  0  0  0  0  0
   -0.3705    1.4922    0.8431 N   0  0  0  0  0  0  0  0  0  0  0  0
    0.5405    0.7312   -0.0338 C   0  0  2  0  0  0  0  0  0  0  0  0
    0.7372   -0.6757    0.5718 C   0  0  0  0  0  0  0  0  0  0  0  0
   -0.1073   -1.5285    0.3344 O   0  0  0  0  0  0  0  0  0  0  0  0
    1.8716    1.4425   -0.3648 C   0  0  0  0  0  0  0  0  0  0  0  0
    1.5983    2.7003   -1.1473 C   0  0  0  0  0  0  0  0  0  0  0  0
    1.2313    2.8138   -2.4892 N   0  3  0  0  0  0  0  0  0  0  0  0
    1.6542    3.9654   -0.6225 C   0  0  0  0  0  0  0  0  0  0  0  0
    1.0515    4.0752   -2.8015 C   0  0  0  0  0  0  0  0  0  0  0  0
    1.3141    4.8273   -1.6574 N   0  0  0  0  0  0  0  0  0  0  0  0
   -1.3646    1.2571    0.7322 H   0  0  0  0  0  0  0  0  0  0  0  0
    0.0173    0.5739   -0.9826 H   0  0  0  0  0  0  0  0  0  0  0  0
    2.4979    0.7763   -0.9676 H   0  0  0  0  0  0  0  0  0  0  0  0
    2.4460    1.6752    0.5346 H   0  0  0  0  0  0  0  0  0  0  0  0
    1.0980    2.0060   -3.1035 H   0  0  0  0  0  0  0  0  0  0  0  0
    1.8931    4.2185    0.4124 H   0  0  0  0  0  0  0  0  0  0  0  0
    0.7450    4.4644   -3.7743 H   0  0  0  0  0  0  0  0  0  0  0  0
    1.2425    5.8464   -1.5803 H   0  0  0  0  0  0  0  0  0  0  0  0
    1.8978   -1.0408    1.2300 N   0  0  0  0  0  0  0  0  0  0  0  0
    1.9905   -2.3436    1.9115 C   0  0  2  0  0  0  0  0  0  0  0  0
    1.0371   -2.4909    3.1253 C   0  0  0  0  0  0  0  0  0  0  0  0
    0.5108   -1.5134    3.6489 O   0  0  0  0  0  0  0  0  0  0  0  0
    3.4428   -2.5294    2.3587 C   0  0  0  0  0  0  0  0  0  0  0  0
    2.3738   -0.2611    1.6813 H   0  0  0  0  0  0  0  0  0  0  0  0
    1.7418   -3.1366    1.1976 H   0  0  0  0  0  0  0  0  0  0  0  0
    3.7212   -1.7616    3.0881 H   0  0  0  0  0  0  0  0  0  0  0  0
    3.5790   -3.5118    2.8221 H   0  0  0  0  0  0  0  0  0  0  0  0
    4.1182   -2.4582    1.5003 H   0  0  0  0  0  0  0  0  0  0  0  0
    0.7533   -3.7430    3.6371 N   0  0  0  0  0  0  0  0  0  0  0  0
   -0.1375   -3.9683    4.7704 C   0  0  0  0  0  0  0  0  0  0  0  0
    1.1696   -4.5471    3.1758 H   0  0  0  0  0  0  0  0  0  0  0  0
    0.2152   -3.4215    5.6515 H   0  0  0  0  0  0  0  0  0  0  0  0
   -1.1535   -3.6359    4.5323 H   0  0  0  0  0  0  0  0  0  0  0  0
   -0.1718   -5.0336    5.0192 H   0  0  0  0  0  0  0  0  0  0  0  0
  1  2  2  0  0  0  0
  1  3  1  0  0  0  0
  1  7  1  0  0  0  0
  3  4  1  0  0  0  0
  3  5  1  0  0  0  0
  3  6  1  0  0  0  0
  7  8  1  0  0  0  0
  7 12  1  0  0  0  0
  8  9  1  0  0  0  0
  8 11  1  0  0  0  0
  8 13  1  0  0  0  0
  9 10  2  0  0  0  0
  9 17  1  0  0  0  0
 11 14  1  0  0  0  0
 11 15  1  0  0  0  0
 11 16  1  0  0  0  0
 17 18  1  0  0  0  0
 17 27  1  0  0  0  0
 18 19  1  0  0  0  0
 18 21  1  0  0  0  0
 18 28  1  0  0  0  0
 19 20  2  0  0  0  0
 19 35  1  0  0  0  0
 21 22  1  0  0  0  0
 21 29  1  0  0  0  0
 21 30  1  0  0  0  0
 22 23  1  0  0  0  0
 22 24  2  0  0  0  0
 23 25  2  0  0  0  0
 23 31  1  0  0  0  0
 24 26  1  0  0  0  0
 24 32  1  0  0  0  0
 25 26  1  0  0  0  0
 25 33  1  0  0  0  0
 26 34  1  0  0  0  0
 35 36  1  0  0  0  0
 35 40  1  0  0  0  0
 36 37  1  0  0  0  0
 36 39  1  0  0  0  0
 36 41  1  0  0  0  0
 37 38  2  0  0  0  0
 37 45  1  0  0  0  0
 39 42  1  0  0  0  0
 39 43  1  0  0  0  0
 39 44  1  0  0  0  0
 45 46  1  0  0  0  0
 45 47  1  0  0  0  0
 46 48  1  0  0  0  0
 46 49  1  0  0  0  0
 46 50  1  0  0  0  0
M  CHG  1  23   1
M  END
$$$$

  -OEChem-05262216443D

 50 50  0     1  0  0  0  0  0999 V2000
   -0.5806    0.4871    4.2521 C   0  0  0  0  0  0  0  0  0  0  0  0
    0.5168    0.5880    3.7154 O   0  0  0  0  0  0  0  0  0  0  0  0
   -0.6602    0.2538    5.7479 C   0  0  0  0  0  0  0  0  0  0  0  0
   -1.2935    1.0131    6.2128 H   0  0  0  0  0  0  0  0  0  0  0  0
   -1.0813   -0.7355    5.9449 H   0  0  0  0  0  0  0  0  0  0  0  0
    0.3368    0.3070    6.1931 H   0  0  0  0  0  0  0  0  0  0  0  0
   -1.7509    0.5677    3.5190 N   0  0  0  0  0  0  0  0  0  0  0  0
   -1.8195    0.5193    2.0485 C   0  0  2  0  0  0  0  0  0  0  0  0
   -0.9334    1.5591    1.3222 C   0  0  0  0  0  0  0  0  0  0  0  0
   -0.6422    2.6365    1.8284 O   0  0  0  0  0  0  0  0  0  0  0  0
   -3.2842    0.7355    1.6614 C   0  0  0  0  0  0  0  0  0  0  0  0
   -2.6008    0.3616    4.0352 H   0  0  0  0  0  0  0  0  0  0  0  0
   -1.5143   -0.4768    1.7159 H   0  0  0  0  0  0  0  0  0  0  0  0
   -3.6213    1.7278    1.9798 H   0  0  0  0  0  0  0  0  0  0  0  0
   -3.4119    0.6555    0.5775 H   0  0  0  0  0  0  0  0  0  0  0  0
   -3.9195   -0.0187    2.1368 H   0  0  0  0  0  0  0  0  0  0  0  0
   -0.4687    1.3829    0.0300 N   0  0  0  0  0  0  0  0  0  0  0  0
    0.8516    0.7609   -0.2131 C   0  0  2  0  0  0  0  0  0  0  0  0
    0.9821   -0.6839    0.3288 C   0  0  0  0  0  0  0  0  0  0  0  0
    0.7397   -1.5879   -0.4565 O   0  0  0  0  0  0  0  0  0  0  0  0
    1.9787    1.6305    0.3896 C   0  0  0  0  0  0  0  0  0  0  0  0
    2.0575    2.9778   -0.2843 C   0  0  0  0  0  0  0  0  0  0  0  0
    2.5702    3.2774   -1.5475 N   0  3  0  0  0  0  0  0  0  0  0  0
    1.6167    4.1509    0.2711 C   0  0  0  0  0  0  0  0  0  0  0  0
    2.4544    4.5621   -1.7884 C   0  0  0  0  0  0  0  0  0  0  0  0
    1.8607    5.1420   -0.6687 N   0  0  0  0  0  0  0  0  0  0  0  0
   -1.1823    0.9219   -0.5321 H   0  0  0  0  0  0  0  0  0  0  0  0
    1.0042    0.7031   -1.2957 H   0  0  0  0  0  0  0  0  0  0  0  0
    2.9411    1.1195    0.2777 H   0  0  0  0  0  0  0  0  0  0  0  0
    1.8162    1.7667    1.4652 H   0  0  0  0  0  0  0  0  0  0  0  0
    2.9611    2.5701   -2.1746 H   0  0  0  0  0  0  0  0  0  0  0  0
    1.1395    4.2554    1.2485 H   0  0  0  0  0  0  0  0  0  0  0  0
    2.7615    5.0824   -2.6974 H   0  0  0  0  0  0  0  0  0  0  0  0
    1.6174    6.1309   -0.5594 H   0  0  0  0  0  0  0  0  0  0  0  0
    1.4216   -1.0122    1.5968 N   0  0  0  0  0  0  0  0  0  0  0  0
    1.5420   -2.4044    2.0584 C   0  0  2  0  0  0  0  0  0  0  0  0
    0.1922   -3.0550    2.4389 C   0  0  0  0  0  0  0  0  0  0  0  0
   -0.6389   -2.4421    3.0991 O   0  0  0  0  0  0  0  0  0  0  0  0
    2.4849   -2.4081    3.2637 C   0  0  0  0  0  0  0  0  0  0  0  0
    1.3063   -0.2959    2.3217 H   0  0  0  0  0  0  0  0  0  0  0  0
    1.9965   -3.0094    1.2670 H   0  0  0  0  0  0  0  0  0  0  0  0
    2.0604   -1.8195    4.0839 H   0  0  0  0  0  0  0  0  0  0  0  0
    2.6462   -3.4307    3.6190 H   0  0  0  0  0  0  0  0  0  0  0  0
    3.4542   -1.9792    2.9921 H   0  0  0  0  0  0  0  0  0  0  0  0
   -0.0749   -4.3636    2.0834 N   0  0  0  0  0  0  0  0  0  0  0  0
   -1.3248   -5.0427    2.4066 C   0  0  0  0  0  0  0  0  0  0  0  0
    0.5943   -4.8323    1.4790 H   0  0  0  0  0  0  0  0  0  0  0  0
   -1.4743   -5.0771    3.4911 H   0  0  0  0  0  0  0  0  0  0  0  0
   -2.1732   -4.5218    1.9507 H   0  0  0  0  0  0  0  0  0  0  0  0
   -1.3065   -6.0700    2.0297 H   0  0  0  0  0  0  0  0  0  0  0  0
  1  2  2  0  0  0  0
  1  3  1  0  0  0  0
  1  7  1  0  0  0  0
  3  4  1  0  0  0  0
  3  5  1  0  0  0  0
  3  6  1  0  0  0  0
  7  8  1  0  0  0  0
  7 12  1  0  0  0  0
  8  9  1  0  0  0  0
  8 11  1  0  0  0  0
  8 13  1  0  0  0  0
  9 10  2  0  0  0  0
  9 17  1  0  0  0  0
 11 14  1  0  0  0  0
 11 15  1  0  0  0  0
 11 16  1  0  0  0  0
 17 18  1  0  0  0  0
 17 27  1  0  0  0  0
 18 19  1  0  0  0  0
 18 21  1  0  0  0  0
 18 28  1  0  0  0  0
 19 20  2  0  0  0  0
 19 35  1  0  0  0  0
 21 22  1  0  0  0  0
 21 29  1  0  0  0  0
 21 30  1  0  0  0  0
 22 23  1  0  0  0  0
 22 24  2  0  0  0  0
 23 25  2  0  0  0  0
 23 31  1  0  0  0  0
 24 26  1  0  0  0  0
 24 32  1  0  0  0  0
 25 26  1  0  0  0  0
 25 33  1  0  0  0  0
 26 34  1  0  0  0  0
 35 36  1  0  0  0  0
 35 40  1  0  0  0  0
 36 37  1  0  0  0  0
 36 39  1  0  0  0  0
 36 41  1  0  0  0  0
 37 38  2  0  0  0  0
 37 45  1  0  0  0  0
 39 42  1  0  0  0  0
 39 43  1  0  0  0  0
 39 44  1  0  0  0  0
 45 46  1  0  0  0  0
 45 47  1  0  0  0  0
 46 48  1  0  0  0  0
 46 49  1  0  0  0  0
 46 50  1  0  0  0  0
M  CHG  1  23   1
M  END
$$$$

  -OEChem-05262216443D

 50 50  0     1  0  0  0  0  0999 V2000
   -1.1634    0.0915    4.3639 C   0  0  0  0  0  0  0  0  0  0  0  0
   -0.1185   -0.3331    3.8931 O   0  0  0  0  0  0  0  0  0  0  0  0
   -1.4154   -0.0248    5.8545 C   0  0  0  0  0  0  0  0  0  0  0  0
   -2.3188   -0.6122    6.0355 H   0  0  0  0  0  0  0  0  0  0  0  0
   -0.5710   -0.5199    6.3421 H   0  0  0  0  0  0  0  0  0  0  0  0
   -1.5401    0.9690    6.2911 H   0  0  0  0  0  0  0  0  0  0  0  0
   -2.1121    0.6909    3.5569 N   0  0  0  0  0  0  0  0  0  0  0  0
   -2.0353    0.7441    2.0873 C   0  0  2  0  0  0  0  0  0  0  0  0
   -0.7551    1.4135    1.5272 C   0  0  0  0  0  0  0  0  0  0  0  0
   -0.0611    2.1551    2.2142 O   0  0  0  0  0  0  0  0  0  0  0  0
   -3.2756    1.4981    1.6009 C   0  0  0  0  0  0  0  0  0  0  0  0
   -2.9674    0.9971    4.0100 H   0  0  0  0  0  0  0  0  0  0  0  0
   -2.0730   -0.2774    1.6982 H   0  0  0  0  0  0  0  0  0  0  0  0
   -3.2675    2.5292    1.9699 H   0  0  0  0  0  0  0  0  0  0  0  0
   -3.3091    1.5194    0.5074 H   0  0  0  0  0  0  0  0  0  0  0  0
   -4.1847    1.0048    1.9596 H   0  0  0  0  0  0  0  0  0  0  0  0
   -0.4031    1.3177    0.1895 N   0  0  0  0  0  0  0  0  0  0  0  0
    0.9006    0.7573   -0.2380 C   0  0  2  0  0  0  0  0  0  0  0  0
    1.0986   -0.7085    0.2082 C   0  0  0  0  0  0  0  0  0  0  0  0
    1.1942   -1.5313   -0.6914 O   0  0  0  0  0  0  0  0  0  0  0  0
    2.1192    1.5725    0.2442 C   0  0  0  0  0  0  0  0  0  0  0  0
    2.1171    2.9515   -0.3586 C   0  0  0  0  0  0  0  0  0  0  0  0
    2.4422    3.3168   -1.6650 N   0  3  0  0  0  0  0  0  0  0  0  0
    1.7643    4.0890    0.3180 C   0  0  0  0  0  0  0  0  0  0  0  0
    2.3088    4.6132   -1.8154 C   0  0  0  0  0  0  0  0  0  0  0  0
    1.8864    5.1312   -0.5914 N   0  0  0  0  0  0  0  0  0  0  0  0
   -1.1735    0.9351   -0.3563 H   0  0  0  0  0  0  0  0  0  0  0  0
    0.9103    0.7568   -1.3330 H   0  0  0  0  0  0  0  0  0  0  0  0
    3.0393    1.0593   -0.0561 H   0  0  0  0  0  0  0  0  0  0  0  0
    2.1459    1.6316    1.3364 H   0  0  0  0  0  0  0  0  0  0  0  0
    2.7374    2.6424   -2.3761 H   0  0  0  0  0  0  0  0  0  0  0  0
    1.4306    4.1324    1.3575 H   0  0  0  0  0  0  0  0  0  0  0  0
    2.4922    5.1814   -2.7292 H   0  0  0  0  0  0  0  0  0  0  0  0
    1.6850    6.1155   -0.3925 H   0  0  0  0  0  0  0  0  0  0  0  0
    1.3859   -1.0895    1.5078 N   0  0  0  0  0  0  0  0  0  0  0  0
    1.4305   -2.5156    1.8769 C   0  0  2  0  0  0  0  0  0  0  0  0
    0.0243   -3.1461    2.0547 C   0  0  0  0  0  0  0  0  0  0  0  0
   -0.9967   -2.5282    1.7672 O   0  0  0  0  0  0  0  0  0  0  0  0
    2.2698   -2.6351    3.1543 C   0  0  0  0  0  0  0  0  0  0  0  0
    1.0434   -0.4593    2.2408 H   0  0  0  0  0  0  0  0  0  0  0  0
    1.9401   -3.0845    1.0920 H   0  0  0  0  0  0  0  0  0  0  0  0
    1.7708   -2.1425    3.9941 H   0  0  0  0  0  0  0  0  0  0  0  0
    2.4298   -3.6852    3.4153 H   0  0  0  0  0  0  0  0  0  0  0  0
    3.2482   -2.1668    3.0088 H   0  0  0  0  0  0  0  0  0  0  0  0
   -0.1022   -4.4545    2.4862 N   0  0  0  0  0  0  0  0  0  0  0  0
   -1.3835   -5.1411    2.6074 C   0  0  0  0  0  0  0  0  0  0  0  0
    0.7511   -4.9738    2.6681 H   0  0  0  0  0  0  0  0  0  0  0  0
   -2.0555   -4.5867    3.2710 H   0  0  0  0  0  0  0  0  0  0  0  0
   -1.8596   -5.2394    1.6261 H   0  0  0  0  0  0  0  0  0  0  0  0
   -1.2388   -6.1425    3.0242 H   0  0  0  0  0  0  0  0  0  0  0  0
  1  2  2  0  0  0  0
  1  3  1  0  0  0  0
  1  7  1  0  0  0  0
  3  4  1  0  0  0  0
  3  5  1  0  0  0  0
  3  6  1  0  0  0  0
  7  8  1  0  0  0  0
  7 12  1  0  0  0  0
  8  9  1  0  0  0  0
  8 11  1  0  0  0  0
  8 13  1  0  0  0  0
  9 10  2  0  0  0  0
  9 17  1  0  0  0  0
 11 14  1  0  0  0  0
 11 15  1  0  0  0  0
 11 16  1  0  0  0  0
 17 18  1  0  0  0  0
 17 27  1  0  0  0  0
 18 19  1  0  0  0  0
 18 21  1  0  0  0  0
 18 28  1  0  0  0  0
 19 20  2  0  0  0  0
 19 35  1  0  0  0  0
 21 22  1  0  0  0  0
 21 29  1  0  0  0  0
 21 30  1  0  0  0  0
 22 23  1  0  0  0  0
 22 24  2  0  0  0  0
 23 25  2  0  0  0  0
 23 31  1  0  0  0  0
 24 26  1  0  0  0  0
 24 32  1  0  0  0  0
 25 26  1  0  0  0  0
 25 33  1  0  0  0  0
 26 34  1  0  0  0  0
 35 36  1  0  0  0  0
 35 40  1  0  0  0  0
 36 37  1  0  0  0  0
 36 39  1  0  0  0  0
 36 41  1  0  0  0  0
 37 38  2  0  0  0  0
 37 45  1  0  0  0  0
 39 42  1  0  0  0  0
 39 43  1  0  0  0  0
 39 44  1  0  0  0  0
 45 46  1  0  0  0  0
 45 47  1  0  0  0  0
 46 48  1  0  0  0  0
 46 49  1  0  0  0  0
 46 50  1  0  0  0  0
M  CHG  1  23   1
M  END
$$$$

  -OEChem-05262216443D

 50 50  0     1  0  0  0  0  0999 V2000
   -1.7898   -0.2514    4.4994 C   0  0  0  0  0  0  0  0  0  0  0  0
   -1.2896   -1.2966    4.1171 O   0  0  0  0  0  0  0  0  0  0  0  0
   -1.9354    0.0132    5.9854 C   0  0  0  0  0  0  0  0  0  0  0  0
   -2.9804    0.2205    6.2283 H   0  0  0  0  0  0  0  0  0  0  0  0
   -1.6095   -0.8603    6.5571 H   0  0  0  0  0  0  0  0  0  0  0  0
   -1.3224    0.8704    6.2732 H   0  0  0  0  0  0  0  0  0  0  0  0
   -2.2018    0.7036    3.5902 N   0  0  0  0  0  0  0  0  0  0  0  0
   -1.9951    0.5820    2.1372 C   0  0  2  0  0  0  0  0  0  0  0  0
   -0.5433    0.8848    1.6799 C   0  0  0  0  0  0  0  0  0  0  0  0
    0.3187    1.1863    2.4998 O   0  0  0  0  0  0  0  0  0  0  0  0
   -2.9946    1.5232    1.4590 C   0  0  0  0  0  0  0  0  0  0  0  0
   -2.5021    1.5953    3.9705 H   0  0  0  0  0  0  0  0  0  0  0  0
   -2.2341   -0.4420    1.8319 H   0  0  0  0  0  0  0  0  0  0  0  0
   -2.7744    2.5658    1.7089 H   0  0  0  0  0  0  0  0  0  0  0  0
   -2.9552    1.4078    0.3717 H   0  0  0  0  0  0  0  0  0  0  0  0
   -4.0132    1.2922    1.7877 H   0  0  0  0  0  0  0  0  0  0  0  0
   -0.1853    0.8750    0.3351 N   0  0  0  0  0  0  0  0  0  0  0  0
    1.1859    0.5830   -0.1581 C   0  0  2  0  0  0  0  0  0  0  0  0
    1.6573   -0.8241    0.2521 C   0  0  0  0  0  0  0  0  0  0  0  0
    2.0272   -1.5898   -0.6265 O   0  0  0  0  0  0  0  0  0  0  0  0
    2.2625    1.6183    0.2269 C   0  0  0  0  0  0  0  0  0  0  0  0
    1.9670    2.9556   -0.3962 C   0  0  0  0  0  0  0  0  0  0  0  0
    2.1425    3.3111   -1.7336 N   0  3  0  0  0  0  0  0  0  0  0  0
    1.5035    4.0578    0.2727 C   0  0  0  0  0  0  0  0  0  0  0  0
    1.8065    4.5657   -1.9139 C   0  0  0  0  0  0  0  0  0  0  0  0
    1.3992    5.0665   -0.6779 N   0  0  0  0  0  0  0  0  0  0  0  0
   -0.9280    0.4914   -0.2489 H   0  0  0  0  0  0  0  0  0  0  0  0
    1.1276    0.5684   -1.2512 H   0  0  0  0  0  0  0  0  0  0  0  0
    3.2393    1.2694   -0.1267 H   0  0  0  0  0  0  0  0  0  0  0  0
    2.3481    1.7165    1.3121 H   0  0  0  0  0  0  0  0  0  0  0  0
    2.4926    2.6599   -2.4423 H   0  0  0  0  0  0  0  0  0  0  0  0
    1.2686    4.1077    1.3373 H   0  0  0  0  0  0  0  0  0  0  0  0
    1.8428    5.1160   -2.8561 H   0  0  0  0  0  0  0  0  0  0  0  0
    1.0861    6.0243   -0.4943 H   0  0  0  0  0  0  0  0  0  0  0  0
    1.7491   -1.1925    1.5798 N   0  0  0  0  0  0  0  0  0  0  0  0
    1.4911   -2.5963    1.9350 C   0  0  2  0  0  0  0  0  0  0  0  0
    0.0116   -3.0169    1.6994 C   0  0  0  0  0  0  0  0  0  0  0  0
   -0.7552   -2.3093    1.0471 O   0  0  0  0  0  0  0  0  0  0  0  0
    1.9032   -2.7677    3.4008 C   0  0  0  0  0  0  0  0  0  0  0  0
    1.3493   -0.5011    2.2188 H   0  0  0  0  0  0  0  0  0  0  0  0
    2.1188   -3.2527    1.3225 H   0  0  0  0  0  0  0  0  0  0  0  0
    1.2683   -2.1594    4.0528 H   0  0  0  0  0  0  0  0  0  0  0  0
    1.8179   -3.8138    3.7086 H   0  0  0  0  0  0  0  0  0  0  0  0
    2.9430   -2.4559    3.5399 H   0  0  0  0  0  0  0  0  0  0  0  0
   -0.4573   -4.2298    2.1701 N   0  0  0  0  0  0  0  0  0  0  0  0
   -1.8548   -4.6332    2.0704 C   0  0  0  0  0  0  0  0  0  0  0  0
    0.1611   -4.7652    2.7709 H   0  0  0  0  0  0  0  0  0  0  0  0
   -2.4953   -3.9253    2.6075 H   0  0  0  0  0  0  0  0  0  0  0  0
   -2.1700   -4.6701    1.0222 H   0  0  0  0  0  0  0  0  0  0  0  0
   -1.9948   -5.6270    2.5068 H   0  0  0  0  0  0  0  0  0  0  0  0
  1  2  2  0  0  0  0
  1  3  1  0  0  0  0
  1  7  1  0  0  0  0
  3  4  1  0  0  0  0
  3  5  1  0  0  0  0
  3  6  1  0  0  0  0
  7  8  1  0  0  0  0
  7 12  1  0  0  0  0
  8  9  1  0  0  0  0
  8 11  1  0  0  0  0
  8 13  1  0  0  0  0
  9 10  2  0  0  0  0
  9 17  1  0  0  0  0
 11 14  1  0  0  0  0
 11 15  1  0  0  0  0
 11 16  1  0  0  0  0
 17 18  1  0  0  0  0
 17 27  1  0  0  0  0
 18 19  1  0  0  0  0
 18 21  1  0  0  0  0
 18 28  1  0  0  0  0
 19 20  2  0  0  0  0
 19 35  1  0  0  0  0
 21 22  1  0  0  0  0
 21 29  1  0  0  0  0
 21 30  1  0  0  0  0
 22 23  1  0  0  0  0
 22 24  2  0  0  0  0
 23 25  2  0  0  0  0
 23 31  1  0  0  0  0
 24 26  1  0  0  0  0
 24 32  1  0  0  0  0
 25 26  1  0  0  0  0
 25 33  1  0  0  0  0
 26 34  1  0  0  0  0
 35 36  1  0  0  0  0
 35 40  1  0  0  0  0
 36 37  1  0  0  0  0
 36 39  1  0  0  0  0
 36 41  1  0  0  0  0
 37 38  2  0  0  0  0
 37 45  1  0  0  0  0
 39 42  1  0  0  0  0
 39 43  1  0  0  0  0
 39 44  1  0  0  0  0
 45 46  1  0  0  0  0
 45 47  1  0  0  0  0
 46 48  1  0  0  0  0
 46 49  1  0  0  0  0
 46 50  1  0  0  0  0
M  CHG  1  23   1
M  END
$$$$

  -OEChem-05262216443D

 50 50  0     1  0  0  0  0  0999 V2000
   -1.9949   -0.3550    4.3597 C   0  0  0  0  0  0  0  0  0  0  0  0
   -1.5316   -1.4037    3.9416 O   0  0  0  0  0  0  0  0  0  0  0  0
   -2.1823   -0.1521    5.8507 C   0  0  0  0  0  0  0  0  0  0  0  0
   -3.2319    0.0587    6.0698 H   0  0  0  0  0  0  0  0  0  0  0  0
   -1.8847   -1.0536    6.3935 H   0  0  0  0  0  0  0  0  0  0  0  0
   -1.5683    0.6838    6.1946 H   0  0  0  0  0  0  0  0  0  0  0  0
   -2.3263    0.6592    3.4831 N   0  0  0  0  0  0  0  0  0  0  0  0
   -2.0493    0.5981    2.0387 C   0  0  2  0  0  0  0  0  0  0  0  0
   -0.5678    0.8759    1.6738 C   0  0  0  0  0  0  0  0  0  0  0  0
    0.2395    1.1972    2.5394 O   0  0  0  0  0  0  0  0  0  0  0  0
   -2.9771    1.6076    1.3572 C   0  0  0  0  0  0  0  0  0  0  0  0
   -2.5732    1.5531    3.8962 H   0  0  0  0  0  0  0  0  0  0  0  0
   -2.3040   -0.4013    1.6696 H   0  0  0  0  0  0  0  0  0  0  0  0
   -2.7381    2.6269    1.6768 H   0  0  0  0  0  0  0  0  0  0  0  0
   -2.8764    1.5493    0.2691 H   0  0  0  0  0  0  0  0  0  0  0  0
   -4.0204    1.3959    1.6141 H   0  0  0  0  0  0  0  0  0  0  0  0
   -0.1282    0.8066    0.3574 N   0  0  0  0  0  0  0  0  0  0  0  0
    1.2727    0.5496   -0.0685 C   0  0  2  0  0  0  0  0  0  0  0  0
    1.8219   -0.8067    0.4167 C   0  0  0  0  0  0  0  0  0  0  0  0
    2.4145   -1.5070   -0.3916 O   0  0  0  0  0  0  0  0  0  0  0  0
    2.2754    1.6511    0.3281 C   0  0  0  0  0  0  0  0  0  0  0  0
    1.9480    2.9513   -0.3550 C   0  0  0  0  0  0  0  0  0  0  0  0
    2.1734    3.2693   -1.6942 N   0  3  0  0  0  0  0  0  0  0  0  0
    1.4037    4.0529    0.2514 C   0  0  0  0  0  0  0  0  0  0  0  0
    1.7922    4.5008   -1.9347 C   0  0  0  0  0  0  0  0  0  0  0  0
    1.3011    5.0230   -0.7385 N   0  0  0  0  0  0  0  0  0  0  0  0
   -0.8285    0.3743   -0.2457 H   0  0  0  0  0  0  0  0  0  0  0  0
    1.2615    0.4911   -1.1618 H   0  0  0  0  0  0  0  0  0  0  0  0
    3.2848    1.3418    0.0340 H   0  0  0  0  0  0  0  0  0  0  0  0
    2.3008    1.7863    1.4128 H   0  0  0  0  0  0  0  0  0  0  0  0
    2.5882    2.6121   -2.3612 H   0  0  0  0  0  0  0  0  0  0  0  0
    1.1168    4.1284    1.3014 H   0  0  0  0  0  0  0  0  0  0  0  0
    1.8526    5.0209   -2.8927 H   0  0  0  0  0  0  0  0  0  0  0  0
    0.9363    5.9708   -0.6047 H   0  0  0  0  0  0  0  0  0  0  0  0
    1.6321   -1.2482    1.7112 N   0  0  0  0  0  0  0  0  0  0  0  0
    1.3219   -2.6670    1.9376 C   0  0  2  0  0  0  0  0  0  0  0  0
   -0.1378   -3.0155    1.5336 C   0  0  0  0  0  0  0  0  0  0  0  0
   -0.7891   -2.2600    0.8116 O   0  0  0  0  0  0  0  0  0  0  0  0
    1.6054   -2.9612    3.4145 C   0  0  0  0  0  0  0  0  0  0  0  0
    1.1137   -0.5895    2.2959 H   0  0  0  0  0  0  0  0  0  0  0  0
    1.9851   -3.2973    1.3350 H   0  0  0  0  0  0  0  0  0  0  0  0
    0.9295   -2.3911    4.0590 H   0  0  0  0  0  0  0  0  0  0  0  0
    1.4784   -4.0260    3.6303 H   0  0  0  0  0  0  0  0  0  0  0  0
    2.6350   -2.6844    3.6623 H   0  0  0  0  0  0  0  0  0  0  0  0
   -0.7144   -4.2072    1.9327 N   0  0  0  0  0  0  0  0  0  0  0  0
   -2.1151   -4.5314    1.6900 C   0  0  0  0  0  0  0  0  0  0  0  0
   -0.1986   -4.7653    2.6059 H   0  0  0  0  0  0  0  0  0  0  0  0
   -2.7664   -3.8221    2.2120 H   0  0  0  0  0  0  0  0  0  0  0  0
   -2.3395   -4.4944    0.6187 H   0  0  0  0  0  0  0  0  0  0  0  0
   -2.3384   -5.5396    2.0523 H   0  0  0  0  0  0  0  0  0  0  0  0
  1  2  2  0  0  0  0
  1  3  1  0  0  0  0
  1  7  1  0  0  0  0
  3  4  1  0  0  0  0
  3  5  1  0  0  0  0
  3  6  1  0  0  0  0
  7  8  1  0  0  0  0
  7 12  1  0  0  0  0
  8  9  1  0  0  0  0
  8 11  1  0  0  0  0
  8 13  1  0  0  0  0
  9 10  2  0  0  0  0
  9 17  1  0  0  0  0
 11 14  1  0  0  0  0
 11 15  1  0  0  0  0
 11 16  1  0  0  0  0
 17 18  1  0  0  0  0
 17 27  1  0  0  0  0
 18 19  1  0  0  0  0
 18 21  1  0  0  0  0
 18 28  1  0  0  0  0
 19 20  2  0  0  0  0
 19 35  1  0  0  0  0
 21 22  1  0  0  0  0
 21 29  1  0  0  0  0
 21 30  1  0  0  0  0
 22 23  1  0  0  0  0
 22 24  2  0  0  0  0
 23 25  2  0  0  0  0
 23 31  1  0  0  0  0
 24 26  1  0  0  0  0
 24 32  1  0  0  0  0
 25 26  1  0  0  0  0
 25 33  1  0  0  0  0
 26 34  1  0  0  0  0
 35 36  1  0  0  0  0
 35 40  1  0  0  0  0
 36 37  1  0  0  0  0
 36 39  1  0  0  0  0
 36 41  1  0  0  0  0
 37 38  2  0  0  0  0
 37 45  1  0  0  0  0
 39 42  1  0  0  0  0
 39 43  1  0  0  0  0
 39 44  1  0  0  0  0
 45 46  1  0  0  0  0
 45 47  1  0  0  0  0
 46 48  1  0  0  0  0
 46 49  1  0  0  0  0
 46 50  1  0  0  0  0
M  CHG  1  23   1
M  END
$$$$

  -OEChem-05262216443D

 50 50  0     1  0  0  0  0  0999 V2000
   -2.0725    2.5156    3.7211 C   0  0  0  0  0  0  0  0  0  0  0  0
   -1.6026    3.0758    2.7384 O   0  0  0  0  0  0  0  0  0  0  0  0
   -2.4239    3.3300    4.9512 C   0  0  0  0  0  0  0  0  0  0  0  0
   -1.8127    3.0090    5.7984 H   0  0  0  0  0  0  0  0  0  0  0  0
   -2.2422    4.3926    4.7680 H   0  0  0  0  0  0  0  0  0  0  0  0
   -3.4791    3.1935    5.2010 H   0  0  0  0  0  0  0  0  0  0  0  0
   -2.2658    1.1475    3.7380 N   0  0  0  0  0  0  0  0  0  0  0  0
   -1.9489    0.2236    2.6340 C   0  0  2  0  0  0  0  0  0  0  0  0
   -0.4678    0.2882    2.1830 C   0  0  0  0  0  0  0  0  0  0  0  0
    0.4232    0.1743    3.0164 O   0  0  0  0  0  0  0  0  0  0  0  0
   -2.9476    0.4415    1.4865 C   0  0  0  0  0  0  0  0  0  0  0  0
   -2.5866    0.7458    4.6155 H   0  0  0  0  0  0  0  0  0  0  0  0
   -2.0990   -0.7988    2.9973 H   0  0  0  0  0  0  0  0  0  0  0  0
   -2.8107    1.4238    1.0243 H   0  0  0  0  0  0  0  0  0  0  0  0
   -2.8194   -0.3301    0.7204 H   0  0  0  0  0  0  0  0  0  0  0  0
   -3.9733    0.3772    1.8628 H   0  0  0  0  0  0  0  0  0  0  0  0
   -0.1251    0.4575    0.8484 N   0  0  0  0  0  0  0  0  0  0  0  0
    1.2082    0.3126    0.2132 C   0  0  2  0  0  0  0  0  0  0  0  0
    1.8398   -1.0904    0.3483 C   0  0  0  0  0  0  0  0  0  0  0  0
    2.4160   -1.5502   -0.6269 O   0  0  0  0  0  0  0  0  0  0  0  0
    2.1998    1.3568    0.7609 C   0  0  0  0  0  0  0  0  0  0  0  0
    1.7380    2.7442    0.4019 C   0  0  0  0  0  0  0  0  0  0  0  0
    1.8003    3.3787   -0.8392 N   0  3  0  0  0  0  0  0  0  0  0  0
    1.0934    3.5870    1.2668 C   0  0  0  0  0  0  0  0  0  0  0  0
    1.2193    4.5536   -0.7728 C   0  0  0  0  0  0  0  0  0  0  0  0
    0.7636    4.7170    0.5345 N   0  0  0  0  0  0  0  0  0  0  0  0
   -0.9260    0.4326    0.2211 H   0  0  0  0  0  0  0  0  0  0  0  0
    1.0816    0.4848   -0.8606 H   0  0  0  0  0  0  0  0  0  0  0  0
    3.1930    1.1847    0.3310 H   0  0  0  0  0  0  0  0  0  0  0  0
    2.3069    1.2592    1.8455 H   0  0  0  0  0  0  0  0  0  0  0  0
    2.2296    2.9506   -1.6637 H   0  0  0  0  0  0  0  0  0  0  0  0
    0.8387    3.3716    2.3059 H   0  0  0  0  0  0  0  0  0  0  0  0
    1.1044    5.2681   -1.5895 H   0  0  0  0  0  0  0  0  0  0  0  0
    0.2111    5.5035    0.8884 H   0  0  0  0  0  0  0  0  0  0  0  0
    1.5797   -1.8992    1.4349 N   0  0  0  0  0  0  0  0  0  0  0  0
    1.3119   -3.3338    1.2836 C   0  0  2  0  0  0  0  0  0  0  0  0
   -0.1918   -3.6034    1.0380 C   0  0  0  0  0  0  0  0  0  0  0  0
   -1.0277   -2.7238    1.2387 O   0  0  0  0  0  0  0  0  0  0  0  0
    1.7874   -4.0274    2.5624 C   0  0  0  0  0  0  0  0  0  0  0  0
    1.0553   -1.4271    2.1745 H   0  0  0  0  0  0  0  0  0  0  0  0
    1.8740   -3.7411    0.4363 H   0  0  0  0  0  0  0  0  0  0  0  0
    1.2334   -3.6547    3.4302 H   0  0  0  0  0  0  0  0  0  0  0  0
    1.6379   -5.1092    2.4928 H   0  0  0  0  0  0  0  0  0  0  0  0
    2.8535   -3.8367    2.7222 H   0  0  0  0  0  0  0  0  0  0  0  0
   -0.6146   -4.8403    0.5892 N   0  0  0  0  0  0  0  0  0  0  0  0
   -2.0129   -5.1715    0.3384 C   0  0  0  0  0  0  0  0  0  0  0  0
    0.0962   -5.5430    0.4029 H   0  0  0  0  0  0  0  0  0  0  0  0
   -2.6130   -5.0152    1.2411 H   0  0  0  0  0  0  0  0  0  0  0  0
   -2.4175   -4.5482   -0.4661 H   0  0  0  0  0  0  0  0  0  0  0  0
   -2.1052   -6.2211    0.0422 H   0  0  0  0  0  0  0  0  0  0  0  0
  1  2  2  0  0  0  0
  1  3  1  0  0  0  0
  1  7  1  0  0  0  0
  3  4  1  0  0  0  0
  3  5  1  0  0  0  0
  3  6  1  0  0  0  0
  7  8  1  0  0  0  0
  7 12  1  0  0  0  0
  8  9  1  0  0  0  0
  8 11  1  0  0  0  0
  8 13  1  0  0  0  0
  9 10  2  0  0  0  0
  9 17  1  0  0  0  0
 11 14  1  0  0  0  0
 11 15  1  0  0  0  0
 11 16  1  0  0  0  0
 17 18  1  0  0  0  0
 17 27  1  0  0  0  0
 18 19  1  0  0  0  0
 18 21  1  0  0  0  0
 18 28  1  0  0  0  0
 19 20  2  0  0  0  0
 19 35  1  0  0  0  0
 21 22  1  0  0  0  0
 21 29  1  0  0  0  0
 21 30  1  0  0  0  0
 22 23  1  0  0  0  0
 22 24  2  0  0  0  0
 23 25  2  0  0  0  0
 23 31  1  0  0  0  0
 24 26  1  0  0  0  0
 24 32  1  0  0  0  0
 25 26  1  0  0  0  0
 25 33  1  0  0  0  0
 26 34  1  0  0  0  0
 35 36  1  0  0  0  0
 35 40  1  0  0  0  0
 36 37  1  0  0  0  0
 36 39  1  0  0  0  0
 36 41  1  0  0  0  0
 37 38  2  0  0  0  0
 37 45  1  0  0  0  0
 39 42  1  0  0  0  0
 39 43  1  0  0  0  0
 39 44  1  0  0  0  0
 45 46  1  0  0  0  0
 45 47  1  0  0  0  0
 46 48  1  0  0  0  0
 46 49  1  0  0  0  0
 46 50  1  0  0  0  0
M  CHG  1  23   1
M  END
$$$$

  -OEChem-05262216443D

 50 50  0     1  0  0  0  0  0999 V2000
   -2.1917   -0.4733    4.0641 C   0  0  0  0  0  0  0  0  0  0  0  0
   -1.6078   -1.4239    3.5679 O   0  0  0  0  0  0  0  0  0  0  0  0
   -2.4563   -0.4340    5.5563 C   0  0  0  0  0  0  0  0  0  0  0  0
   -2.1459   -1.3753    6.0185 H   0  0  0  0  0  0  0  0  0  0  0  0
   -1.8945    0.3843    6.0134 H   0  0  0  0  0  0  0  0  0  0  0  0
   -3.5224   -0.2860    5.7441 H   0  0  0  0  0  0  0  0  0  0  0  0
   -2.5647    0.5872    3.2641 N   0  0  0  0  0  0  0  0  0  0  0  0
   -2.1603    0.6847    1.8536 C   0  0  2  0  0  0  0  0  0  0  0  0
   -0.6524    0.9829    1.6674 C   0  0  0  0  0  0  0  0  0  0  0  0
    0.0172    1.4218    2.5938 O   0  0  0  0  0  0  0  0  0  0  0  0
   -3.0102    1.7767    1.2006 C   0  0  0  0  0  0  0  0  0  0  0  0
   -2.8791    1.4267    3.7413 H   0  0  0  0  0  0  0  0  0  0  0  0
   -2.3795   -0.2665    1.3553 H   0  0  0  0  0  0  0  0  0  0  0  0
   -2.8118    2.7479    1.6646 H   0  0  0  0  0  0  0  0  0  0  0  0
   -2.7864    1.8476    0.1317 H   0  0  0  0  0  0  0  0  0  0  0  0
   -4.0746    1.5463    1.3129 H   0  0  0  0  0  0  0  0  0  0  0  0
   -0.0410    0.7667    0.4428 N   0  0  0  0  0  0  0  0  0  0  0  0
    1.4074    0.5191    0.2321 C   0  0  2  0  0  0  0  0  0  0  0  0
    1.9661   -0.7348    0.9404 C   0  0  0  0  0  0  0  0  0  0  0  0
    2.9474   -1.2602    0.4325 O   0  0  0  0  0  0  0  0  0  0  0  0
    2.3022    1.7200    0.6041 C   0  0  0  0  0  0  0  0  0  0  0  0
    2.0175    2.9009   -0.2831 C   0  0  0  0  0  0  0  0  0  0  0  0
    2.4098    3.0567   -1.6122 N   0  3  0  0  0  0  0  0  0  0  0  0
    1.3477    4.0353    0.0928 C   0  0  0  0  0  0  0  0  0  0  0  0
    2.0127    4.2216   -2.0649 C   0  0  0  0  0  0  0  0  0  0  0  0
    1.3395    4.8618   -1.0246 N   0  0  0  0  0  0  0  0  0  0  0  0
   -0.6399    0.2122   -0.1734 H   0  0  0  0  0  0  0  0  0  0  0  0
    1.5356    0.3258   -0.8376 H   0  0  0  0  0  0  0  0  0  0  0  0
    3.3550    1.4388    0.4861 H   0  0  0  0  0  0  0  0  0  0  0  0
    2.1758    1.9923    1.6555 H   0  0  0  0  0  0  0  0  0  0  0  0
    2.9438    2.3467   -2.1217 H   0  0  0  0  0  0  0  0  0  0  0  0
    0.9167    4.2262    1.0769 H   0  0  0  0  0  0  0  0  0  0  0  0
    2.1823    4.6176   -3.0680 H   0  0  0  0  0  0  0  0  0  0  0  0
    0.9195    5.7950   -1.0686 H   0  0  0  0  0  0  0  0  0  0  0  0
    1.2817   -1.3960    1.9422 N   0  0  0  0  0  0  0  0  0  0  0  0
    0.9809   -2.8244    1.7666 C   0  0  2  0  0  0  0  0  0  0  0  0
   -0.3933   -3.0077    1.0688 C   0  0  0  0  0  0  0  0  0  0  0  0
   -0.8322   -2.1278    0.3255 O   0  0  0  0  0  0  0  0  0  0  0  0
    1.0693   -3.5029    3.1389 C   0  0  0  0  0  0  0  0  0  0  0  0
    0.5188   -0.8569    2.3518 H   0  0  0  0  0  0  0  0  0  0  0  0
    1.7280   -3.2996    1.1218 H   0  0  0  0  0  0  0  0  0  0  0  0
    0.2928   -3.1307    3.8122 H   0  0  0  0  0  0  0  0  0  0  0  0
    0.9575   -4.5868    3.0423 H   0  0  0  0  0  0  0  0  0  0  0  0
    2.0445   -3.3009    3.5934 H   0  0  0  0  0  0  0  0  0  0  0  0
   -1.1284   -4.1679    1.2252 N   0  0  0  0  0  0  0  0  0  0  0  0
   -2.4619   -4.3491    0.6641 C   0  0  0  0  0  0  0  0  0  0  0  0
   -0.7983   -4.8328    1.9185 H   0  0  0  0  0  0  0  0  0  0  0  0
   -3.1545   -3.6079    1.0768 H   0  0  0  0  0  0  0  0  0  0  0  0
   -2.4380   -4.2424   -0.4256 H   0  0  0  0  0  0  0  0  0  0  0  0
   -2.8409   -5.3476    0.9021 H   0  0  0  0  0  0  0  0  0  0  0  0
  1  2  2  0  0  0  0
  1  3  1  0  0  0  0
  1  7  1  0  0  0  0
  3  4  1  0  0  0  0
  3  5  1  0  0  0  0
  3  6  1  0  0  0  0
  7  8  1  0  0  0  0
  7 12  1  0  0  0  0
  8  9  1  0  0  0  0
  8 11  1  0  0  0  0
  8 13  1  0  0  0  0
  9 10  2  0  0  0  0
  9 17  1  0  0  0  0
 11 14  1  0  0  0  0
 11 15  1  0  0  0  0
 11 16  1  0  0  0  0
 17 18  1  0  0  0  0
 17 27  1  0  0  0  0
 18 19  1  0  0  0  0
 18 21  1  0  0  0  0
 18 28  1  0  0  0  0
 19 20  2  0  0  0  0
 19 35  1  0  0  0  0
 21 22  1  0  0  0  0
 21 29  1  0  0  0  0
 21 30  1  0  0  0  0
 22 23  1  0  0  0  0
 22 24  2  0  0  0  0
 23 25  2  0  0  0  0
 23 31  1  0  0  0  0
 24 26  1  0  0  0  0
 24 32  1  0  0  0  0
 25 26  1  0  0  0  0
 25 33  1  0  0  0  0
 26 34  1  0  0  0  0
 35 36  1  0  0  0  0
 35 40  1  0  0  0  0
 36 37  1  0  0  0  0
 36 39  1  0  0  0  0
 36 41  1  0  0  0  0
 37 38  2  0  0  0  0
 37 45  1  0  0  0  0
 39 42  1  0  0  0  0
 39 43  1  0  0  0  0
 39 44  1  0  0  0  0
 45 46  1  0  0  0  0
 45 47  1  0  0  0  0
 46 48  1  0  0  0  0
 46 49  1  0  0  0  0
 46 50  1  0  0  0  0
M  CHG  1  23   1
M  END
$$$$

  -OEChem-05262216443D

 50 50  0     1  0  0  0  0  0999 V2000
   -2.6228   -0.1758    3.6854 C   0  0  0  0  0  0  0  0  0  0  0  0
   -2.3678   -0.9069    2.7400 O   0  0  0  0  0  0  0  0  0  0  0  0
   -2.8561   -0.7522    5.0682 C   0  0  0  0  0  0  0  0  0  0  0  0
   -2.8818   -1.8444    5.0215 H   0  0  0  0  0  0  0  0  0  0  0  0
   -2.0506   -0.4469    5.7405 H   0  0  0  0  0  0  0  0  0  0  0  0
   -3.8094   -0.3965    5.4669 H   0  0  0  0  0  0  0  0  0  0  0  0
   -2.6191    1.1881    3.4823 N   0  0  0  0  0  0  0  0  0  0  0  0
   -2.2146    1.7736    2.1981 C   0  0  2  0  0  0  0  0  0  0  0  0
   -0.7310    1.4899    1.8658 C   0  0  0  0  0  0  0  0  0  0  0  0
    0.1307    1.6760    2.7142 O   0  0  0  0  0  0  0  0  0  0  0  0
   -2.4802    3.2795    2.2572 C   0  0  0  0  0  0  0  0  0  0  0  0
   -2.6288    1.7772    4.3107 H   0  0  0  0  0  0  0  0  0  0  0  0
   -2.8339    1.3438    1.4030 H   0  0  0  0  0  0  0  0  0  0  0  0
   -1.8761    3.7474    3.0415 H   0  0  0  0  0  0  0  0  0  0  0  0
   -2.2315    3.7479    1.3001 H   0  0  0  0  0  0  0  0  0  0  0  0
   -3.5370    3.4704    2.4700 H   0  0  0  0  0  0  0  0  0  0  0  0
   -0.3651    1.0968    0.5867 N   0  0  0  0  0  0  0  0  0  0  0  0
    0.9307    0.4807    0.2119 C   0  0  2  0  0  0  0  0  0  0  0  0
    1.2725   -0.8632    0.9000 C   0  0  0  0  0  0  0  0  0  0  0  0
    2.3008   -1.4253    0.5402 O   0  0  0  0  0  0  0  0  0  0  0  0
    2.1186    1.4563    0.3950 C   0  0  0  0  0  0  0  0  0  0  0  0
    1.9991    2.6408   -0.5242 C   0  0  0  0  0  0  0  0  0  0  0  0
    2.2412    2.6519   -1.8970 N   0  3  0  0  0  0  0  0  0  0  0  0
    1.6786    3.9168   -0.1434 C   0  0  0  0  0  0  0  0  0  0  0  0
    2.0802    3.8632   -2.3724 C   0  0  0  0  0  0  0  0  0  0  0  0
    1.7221    4.6830   -1.3024 N   0  0  0  0  0  0  0  0  0  0  0  0
   -1.1572    0.8352    0.0009 H   0  0  0  0  0  0  0  0  0  0  0  0
    0.8617    0.2325   -0.8516 H   0  0  0  0  0  0  0  0  0  0  0  0
    3.0611    0.9446    0.1708 H   0  0  0  0  0  0  0  0  0  0  0  0
    2.1932    1.7842    1.4352 H   0  0  0  0  0  0  0  0  0  0  0  0
    2.5236    1.8167   -2.4184 H   0  0  0  0  0  0  0  0  0  0  0  0
    1.4466    4.2417    0.8722 H   0  0  0  0  0  0  0  0  0  0  0  0
    2.2093    4.1727   -3.4114 H   0  0  0  0  0  0  0  0  0  0  0  0
    1.5418    5.6901   -1.3545 H   0  0  0  0  0  0  0  0  0  0  0  0
    0.4457   -1.4919    1.8162 N   0  0  0  0  0  0  0  0  0  0  0  0
    0.4877   -2.9572    1.9497 C   0  0  2  0  0  0  0  0  0  0  0  0
   -0.2345   -3.6640    0.7757 C   0  0  0  0  0  0  0  0  0  0  0  0
   -0.8507   -3.0175   -0.0675 O   0  0  0  0  0  0  0  0  0  0  0  0
   -0.1375   -3.3436    3.2927 C   0  0  0  0  0  0  0  0  0  0  0  0
   -0.4740   -1.0653    1.9450 H   0  0  0  0  0  0  0  0  0  0  0  0
    1.5286   -3.2979    1.9571 H   0  0  0  0  0  0  0  0  0  0  0  0
   -1.2138   -3.1511    3.2881 H   0  0  0  0  0  0  0  0  0  0  0  0
    0.0188   -4.4073    3.4949 H   0  0  0  0  0  0  0  0  0  0  0  0
    0.3193   -2.7676    4.1035 H   0  0  0  0  0  0  0  0  0  0  0  0
   -0.1627   -5.0383    0.6382 N   0  0  0  0  0  0  0  0  0  0  0  0
   -0.7789   -5.7658   -0.4659 C   0  0  0  0  0  0  0  0  0  0  0  0
    0.3904   -5.5521    1.3175 H   0  0  0  0  0  0  0  0  0  0  0  0
   -1.8601   -5.5915   -0.4840 H   0  0  0  0  0  0  0  0  0  0  0  0
   -0.3542   -5.4422   -1.4221 H   0  0  0  0  0  0  0  0  0  0  0  0
   -0.6053   -6.8408   -0.3569 H   0  0  0  0  0  0  0  0  0  0  0  0
  1  2  2  0  0  0  0
  1  3  1  0  0  0  0
  1  7  1  0  0  0  0
  3  4  1  0  0  0  0
  3  5  1  0  0  0  0
  3  6  1  0  0  0  0
  7  8  1  0  0  0  0
  7 12  1  0  0  0  0
  8  9  1  0  0  0  0
  8 11  1  0  0  0  0
  8 13  1  0  0  0  0
  9 10  2  0  0  0  0
  9 17  1  0  0  0  0
 11 14  1  0  0  0  0
 11 15  1  0  0  0  0
 11 16  1  0  0  0  0
 17 18  1  0  0  0  0
 17 27  1  0  0  0  0
 18 19  1  0  0  0  0
 18 21  1  0  0  0  0
 18 28  1  0  0  0  0
 19 20  2  0  0  0  0
 19 35  1  0  0  0  0
 21 22  1  0  0  0  0
 21 29  1  0  0  0  0
 21 30  1  0  0  0  0
 22 23  1  0  0  0  0
 22 24  2  0  0  0  0
 23 25  2  0  0  0  0
 23 31  1  0  0  0  0
 24 26  1  0  0  0  0
 24 32  1  0  0  0  0
 25 26  1  0  0  0  0
 25 33  1  0  0  0  0
 26 34  1  0  0  0  0
 35 36  1  0  0  0  0
 35 40  1  0  0  0  0
 36 37  1  0  0  0  0
 36 39  1  0  0  0  0
 36 41  1  0  0  0  0
 37 38  2  0  0  0  0
 37 45  1  0  0  0  0
 39 42  1  0  0  0  0
 39 43  1  0  0  0  0
 39 44  1  0  0  0  0
 45 46  1  0  0  0  0
 45 47  1  0  0  0  0
 46 48  1  0  0  0  0
 46 49  1  0  0  0  0
 46 50  1  0  0  0  0
M  CHG  1  23   1
M  END
$$$$

  -OEChem-05262216443D

 50 50  0     1  0  0  0  0  0999 V2000
   -2.7944   -0.2424    3.2959 C   0  0  0  0  0  0  0  0  0  0  0  0
   -2.5540   -0.7824    2.2253 O   0  0  0  0  0  0  0  0  0  0  0  0
   -3.1856   -1.0627    4.5090 C   0  0  0  0  0  0  0  0  0  0  0  0
   -3.4100   -2.0912    4.2135 H   0  0  0  0  0  0  0  0  0  0  0  0
   -2.3660   -1.0723    5.2319 H   0  0  0  0  0  0  0  0  0  0  0  0
   -4.0733   -0.6344    4.9811 H   0  0  0  0  0  0  0  0  0  0  0  0
   -2.6308    1.1224    3.3979 N   0  0  0  0  0  0  0  0  0  0  0  0
   -2.1254    1.9359    2.2867 C   0  0  2  0  0  0  0  0  0  0  0  0
   -0.6598    1.5918    1.9350 C   0  0  0  0  0  0  0  0  0  0  0  0
    0.2263    1.7784    2.7569 O   0  0  0  0  0  0  0  0  0  0  0  0
   -2.2716    3.4098    2.6742 C   0  0  0  0  0  0  0  0  0  0  0  0
   -2.6575    1.5260    4.3309 H   0  0  0  0  0  0  0  0  0  0  0  0
   -2.7434    1.7539    1.4008 H   0  0  0  0  0  0  0  0  0  0  0  0
   -1.6770    3.6362    3.5655 H   0  0  0  0  0  0  0  0  0  0  0  0
   -1.9313    4.0534    1.8574 H   0  0  0  0  0  0  0  0  0  0  0  0
   -3.3197    3.6448    2.8854 H   0  0  0  0  0  0  0  0  0  0  0  0
   -0.3410    1.1255    0.6674 N   0  0  0  0  0  0  0  0  0  0  0  0
    0.9373    0.4738    0.2948 C   0  0  2  0  0  0  0  0  0  0  0  0
    1.2580   -0.8300    1.0653 C   0  0  0  0  0  0  0  0  0  0  0  0
    2.3571   -1.3474    0.9012 O   0  0  0  0  0  0  0  0  0  0  0  0
    2.1370    1.4494    0.3762 C   0  0  0  0  0  0  0  0  0  0  0  0
    1.9936    2.5702   -0.6173 C   0  0  0  0  0  0  0  0  0  0  0  0
    2.1915    2.4850   -1.9949 N   0  3  0  0  0  0  0  0  0  0  0  0
    1.6948    3.8728   -0.3157 C   0  0  0  0  0  0  0  0  0  0  0  0
    2.0233    3.6621   -2.5475 C   0  0  0  0  0  0  0  0  0  0  0  0
    1.7057    4.5568   -1.5258 N   0  0  0  0  0  0  0  0  0  0  0  0
   -1.1549    0.8465    0.1196 H   0  0  0  0  0  0  0  0  0  0  0  0
    0.8362    0.1543   -0.7469 H   0  0  0  0  0  0  0  0  0  0  0  0
    3.0698    0.9181    0.1570 H   0  0  0  0  0  0  0  0  0  0  0  0
    2.2440    1.8453    1.3898 H   0  0  0  0  0  0  0  0  0  0  0  0
    2.4497    1.6131   -2.4664 H   0  0  0  0  0  0  0  0  0  0  0  0
    1.4994    4.2694    0.6817 H   0  0  0  0  0  0  0  0  0  0  0  0
    2.1215    3.8981   -3.6087 H   0  0  0  0  0  0  0  0  0  0  0  0
    1.5318    5.5597   -1.6418 H   0  0  0  0  0  0  0  0  0  0  0  0
    0.2960   -1.5083    1.7942 N   0  0  0  0  0  0  0  0  0  0  0  0
    0.3602   -2.9746    1.8874 C   0  0  2  0  0  0  0  0  0  0  0  0
   -0.0470   -3.6549    0.5567 C   0  0  0  0  0  0  0  0  0  0  0  0
   -0.5238   -2.9994   -0.3663 O   0  0  0  0  0  0  0  0  0  0  0  0
   -0.5556   -3.4257    3.0275 C   0  0  0  0  0  0  0  0  0  0  0  0
   -0.6456   -1.1145    1.7345 H   0  0  0  0  0  0  0  0  0  0  0  0
    1.3823   -3.2853    2.1292 H   0  0  0  0  0  0  0  0  0  0  0  0
   -1.6028   -3.2354    2.7748 H   0  0  0  0  0  0  0  0  0  0  0  0
   -0.4357   -4.4972    3.2141 H   0  0  0  0  0  0  0  0  0  0  0  0
   -0.3110   -2.8862    3.9477 H   0  0  0  0  0  0  0  0  0  0  0  0
    0.1341   -5.0148    0.3846 N   0  0  0  0  0  0  0  0  0  0  0  0
   -0.2114   -5.7193   -0.8450 C   0  0  0  0  0  0  0  0  0  0  0  0
    0.5689   -5.5329    1.1424 H   0  0  0  0  0  0  0  0  0  0  0  0
   -1.2782   -5.6052   -1.0654 H   0  0  0  0  0  0  0  0  0  0  0  0
    0.3663   -5.3255   -1.6880 H   0  0  0  0  0  0  0  0  0  0  0  0
    0.0072   -6.7870   -0.7450 H   0  0  0  0  0  0  0  0  0  0  0  0
  1  2  2  0  0  0  0
  1  3  1  0  0  0  0
  1  7  1  0  0  0  0
  3  4  1  0  0  0  0
  3  5  1  0  0  0  0
  3  6  1  0  0  0  0
  7  8  1  0  0  0  0
  7 12  1  0  0  0  0
  8  9  1  0  0  0  0
  8 11  1  0  0  0  0
  8 13  1  0  0  0  0
  9 10  2  0  0  0  0
  9 17  1  0  0  0  0
 11 14  1  0  0  0  0
 11 15  1  0  0  0  0
 11 16  1  0  0  0  0
 17 18  1  0  0  0  0
 17 27  1  0  0  0  0
 18 19  1  0  0  0  0
 18 21  1  0  0  0  0
 18 28  1  0  0  0  0
 19 20  2  0  0  0  0
 19 35  1  0  0  0  0
 21 22  1  0  0  0  0
 21 29  1  0  0  0  0
 21 30  1  0  0  0  0
 22 23  1  0  0  0  0
 22 24  2  0  0  0  0
 23 25  2  0  0  0  0
 23 31  1  0  0  0  0
 24 26  1  0  0  0  0
 24 32  1  0  0  0  0
 25 26  1  0  0  0  0
 25 33  1  0  0  0  0
 26 34  1  0  0  0  0
 35 36  1  0  0  0  0
 35 40  1  0  0  0  0
 36 37  1  0  0  0  0
 36 39  1  0  0  0  0
 36 41  1  0  0  0  0
 37 38  2  0  0  0  0
 37 45  1  0  0  0  0
 39 42  1  0  0  0  0
 39 43  1  0  0  0  0
 39 44  1  0  0  0  0
 45 46  1  0  0  0  0
 45 47  1  0  0  0  0
 46 48  1  0  0  0  0
 46 49  1  0  0  0  0
 46 50  1  0  0  0  0
M  CHG  1  23   1
M  END
$$$$

  -OEChem-05262216443D

 50 50  0     1  0  0  0  0  0999 V2000
   -2.9502   -0.1841    2.6109 C   0  0  0  0  0  0  0  0  0  0  0  0
   -2.6308   -0.3546    1.4423 O   0  0  0  0  0  0  0  0  0  0  0  0
   -3.7564   -1.2321    3.3529 C   0  0  0  0  0  0  0  0  0  0  0  0
   -4.0498   -2.0353    2.6707 H   0  0  0  0  0  0  0  0  0  0  0  0
   -3.1616   -1.6574    4.1651 H   0  0  0  0  0  0  0  0  0  0  0  0
   -4.6604   -0.7820    3.7713 H   0  0  0  0  0  0  0  0  0  0  0  0
   -2.5331    0.9604    3.2571 N   0  0  0  0  0  0  0  0  0  0  0  0
   -1.8678    2.0856    2.5852 C   0  0  2  0  0  0  0  0  0  0  0  0
   -0.4535    1.7338    2.0580 C   0  0  0  0  0  0  0  0  0  0  0  0
    0.5425    1.9547    2.7320 O   0  0  0  0  0  0  0  0  0  0  0  0
   -1.8409    3.2545    3.5785 C   0  0  0  0  0  0  0  0  0  0  0  0
   -2.7770    1.0562    4.2401 H   0  0  0  0  0  0  0  0  0  0  0  0
   -2.4709    2.3938    1.7244 H   0  0  0  0  0  0  0  0  0  0  0  0
   -1.2776    2.9852    4.4784 H   0  0  0  0  0  0  0  0  0  0  0  0
   -1.3659    4.1296    3.1242 H   0  0  0  0  0  0  0  0  0  0  0  0
   -2.8585    3.5294    3.8736 H   0  0  0  0  0  0  0  0  0  0  0  0
   -0.3196    1.2272    0.7726 N   0  0  0  0  0  0  0  0  0  0  0  0
    0.8734    0.5110    0.2638 C   0  0  2  0  0  0  0  0  0  0  0  0
    1.1920   -0.7788    1.0566 C   0  0  0  0  0  0  0  0  0  0  0  0
    2.3221   -1.2521    1.0299 O   0  0  0  0  0  0  0  0  0  0  0  0
    2.1215    1.4213    0.1621 C   0  0  0  0  0  0  0  0  0  0  0  0
    1.9121    2.5241   -0.8393 C   0  0  0  0  0  0  0  0  0  0  0  0
    1.9280    2.3997   -2.2281 N   0  3  0  0  0  0  0  0  0  0  0  0
    1.7267    3.8476   -0.5388 C   0  0  0  0  0  0  0  0  0  0  0  0
    1.7566    3.5734   -2.7873 C   0  0  0  0  0  0  0  0  0  0  0  0
    1.6224    4.5056   -1.7588 N   0  0  0  0  0  0  0  0  0  0  0  0
   -1.2156    0.9089    0.3934 H   0  0  0  0  0  0  0  0  0  0  0  0
    0.6323    0.1647   -0.7457 H   0  0  0  0  0  0  0  0  0  0  0  0
    2.9878    0.8324   -0.1585 H   0  0  0  0  0  0  0  0  0  0  0  0
    2.3800    1.8341    1.1412 H   0  0  0  0  0  0  0  0  0  0  0  0
    2.0711    1.5046   -2.7046 H   0  0  0  0  0  0  0  0  0  0  0  0
    1.6809    4.2745    0.4641 H   0  0  0  0  0  0  0  0  0  0  0  0
    1.7302    3.7814   -3.8587 H   0  0  0  0  0  0  0  0  0  0  0  0
    1.4918    5.5143   -1.8788 H   0  0  0  0  0  0  0  0  0  0  0  0
    0.1702   -1.4974    1.6521 N   0  0  0  0  0  0  0  0  0  0  0  0
    0.3053   -2.9487    1.8427 C   0  0  2  0  0  0  0  0  0  0  0  0
    0.1894   -3.7225    0.5080 C   0  0  0  0  0  0  0  0  0  0  0  0
   -0.3199   -3.1940   -0.4757 O   0  0  0  0  0  0  0  0  0  0  0  0
   -0.7841   -3.4011    2.8158 C   0  0  0  0  0  0  0  0  0  0  0  0
   -0.7669   -1.1590    1.4247 H   0  0  0  0  0  0  0  0  0  0  0  0
    1.2818   -3.1735    2.2857 H   0  0  0  0  0  0  0  0  0  0  0  0
   -1.7746   -3.2391    2.3800 H   0  0  0  0  0  0  0  0  0  0  0  0
   -0.6767   -4.4664    3.0427 H   0  0  0  0  0  0  0  0  0  0  0  0
   -0.7134   -2.8399    3.7527 H   0  0  0  0  0  0  0  0  0  0  0  0
    0.6430   -5.0250    0.4132 N   0  0  0  0  0  0  0  0  0  0  0  0
    0.5818   -5.8053   -0.8177 C   0  0  0  0  0  0  0  0  0  0  0  0
    1.1183   -5.4188    1.2202 H   0  0  0  0  0  0  0  0  0  0  0  0
   -0.4537   -5.8980   -1.1623 H   0  0  0  0  0  0  0  0  0  0  0  0
    1.1736   -5.3264   -1.6051 H   0  0  0  0  0  0  0  0  0  0  0  0
    0.9791   -6.8110   -0.6495 H   0  0  0  0  0  0  0  0  0  0  0  0
  1  2  2  0  0  0  0
  1  3  1  0  0  0  0
  1  7  1  0  0  0  0
  3  4  1  0  0  0  0
  3  5  1  0  0  0  0
  3  6  1  0  0  0  0
  7  8  1  0  0  0  0
  7 12  1  0  0  0  0
  8  9  1  0  0  0  0
  8 11  1  0  0  0  0
  8 13  1  0  0  0  0
  9 10  2  0  0  0  0
  9 17  1  0  0  0  0
 11 14  1  0  0  0  0
 11 15  1  0  0  0  0
 11 16  1  0  0  0  0
 17 18  1  0  0  0  0
 17 27  1  0  0  0  0
 18 19  1  0  0  0  0
 18 21  1  0  0  0  0
 18 28  1  0  0  0  0
 19 20  2  0  0  0  0
 19 35  1  0  0  0  0
 21 22  1  0  0  0  0
 21 29  1  0  0  0  0
 21 30  1  0  0  0  0
 22 23  1  0  0  0  0
 22 24  2  0  0  0  0
 23 25  2  0  0  0  0
 23 31  1  0  0  0  0
 24 26  1  0  0  0  0
 24 32  1  0  0  0  0
 25 26  1  0  0  0  0
 25 33  1  0  0  0  0
 26 34  1  0  0  0  0
 35 36  1  0  0  0  0
 35 40  1  0  0  0  0
 36 37  1  0  0  0  0
 36 39  1  0  0  0  0
 36 41  1  0  0  0  0
 37 38  2  0  0  0  0
 37 45  1  0  0  0  0
 39 42  1  0  0  0  0
 39 43  1  0  0  0  0
 39 44  1  0  0  0  0
 45 46  1  0  0  0  0
 45 47  1  0  0  0  0
 46 48  1  0  0  0  0
 46 49  1  0  0  0  0
 46 50  1  0  0  0  0
M  CHG  1  23   1
M  END
$$$$

  -OEChem-05262216443D

 50 50  0     1  0  0  0  0  0999 V2000
   -2.9258   -0.2302    2.5975 C   0  0  0  0  0  0  0  0  0  0  0  0
   -2.6222   -0.4141    1.4258 O   0  0  0  0  0  0  0  0  0  0  0  0
   -3.6030   -1.3251    3.3984 C   0  0  0  0  0  0  0  0  0  0  0  0
   -3.8429   -2.1737    2.7519 H   0  0  0  0  0  0  0  0  0  0  0  0
   -2.9428   -1.6660    4.1996 H   0  0  0  0  0  0  0  0  0  0  0  0
   -4.5303   -0.9485    3.8372 H   0  0  0  0  0  0  0  0  0  0  0  0
   -2.5987    0.9676    3.1983 N   0  0  0  0  0  0  0  0  0  0  0  0
   -1.9978    2.1081    2.4922 C   0  0  2  0  0  0  0  0  0  0  0  0
   -0.5439    1.8311    2.0355 C   0  0  0  0  0  0  0  0  0  0  0  0
    0.4107    2.1681    2.7209 O   0  0  0  0  0  0  0  0  0  0  0  0
   -2.0943    3.3242    3.4217 C   0  0  0  0  0  0  0  0  0  0  0  0
   -2.8022    1.0621    4.1908 H   0  0  0  0  0  0  0  0  0  0  0  0
   -2.5890    2.3269    1.5964 H   0  0  0  0  0  0  0  0  0  0  0  0
   -1.5437    3.1463    4.3518 H   0  0  0  0  0  0  0  0  0  0  0  0
   -1.6720    4.2089    2.9350 H   0  0  0  0  0  0  0  0  0  0  0  0
   -3.1395    3.5341    3.6698 H   0  0  0  0  0  0  0  0  0  0  0  0
   -0.3335    1.2152    0.8112 N   0  0  0  0  0  0  0  0  0  0  0  0
    0.8955    0.4840    0.4296 C   0  0  2  0  0  0  0  0  0  0  0  0
    1.1802   -0.7168    1.3601 C   0  0  0  0  0  0  0  0  0  0  0  0
    2.3289   -1.0915    1.5641 O   0  0  0  0  0  0  0  0  0  0  0  0
    2.1326    1.4025    0.2990 C   0  0  0  0  0  0  0  0  0  0  0  0
    1.9465    2.3969   -0.8140 C   0  0  0  0  0  0  0  0  0  0  0  0
    2.0256    2.1371   -2.1817 N   0  3  0  0  0  0  0  0  0  0  0  0
    1.7161    3.7374   -0.6537 C   0  0  0  0  0  0  0  0  0  0  0  0
    1.8459    3.2441   -2.8610 C   0  0  0  0  0  0  0  0  0  0  0  0
    1.6463    4.2688   -1.9360 N   0  0  0  0  0  0  0  0  0  0  0  0
   -1.2014    0.8379    0.4220 H   0  0  0  0  0  0  0  0  0  0  0  0
    0.7127    0.0369   -0.5527 H   0  0  0  0  0  0  0  0  0  0  0  0
    3.0213    0.8015    0.0774 H   0  0  0  0  0  0  0  0  0  0  0  0
    2.3362    1.9127    1.2446 H   0  0  0  0  0  0  0  0  0  0  0  0
    2.2019    1.2021   -2.5608 H   0  0  0  0  0  0  0  0  0  0  0  0
    1.6147    4.2583    0.2996 H   0  0  0  0  0  0  0  0  0  0  0  0
    1.8551    3.3443   -3.9479 H   0  0  0  0  0  0  0  0  0  0  0  0
    1.4882    5.2555   -2.1604 H   0  0  0  0  0  0  0  0  0  0  0  0
    0.1289   -1.5523    1.6919 N   0  0  0  0  0  0  0  0  0  0  0  0
    0.3370   -3.0069    1.6959 C   0  0  2  0  0  0  0  0  0  0  0  0
    0.5221   -3.5670    0.2636 C   0  0  0  0  0  0  0  0  0  0  0  0
    0.2467   -2.8803   -0.7177 O   0  0  0  0  0  0  0  0  0  0  0  0
   -0.8750   -3.6508    2.3712 C   0  0  0  0  0  0  0  0  0  0  0  0
   -0.7763   -1.2370    1.3370 H   0  0  0  0  0  0  0  0  0  0  0  0
    1.2321   -3.2523    2.2780 H   0  0  0  0  0  0  0  0  0  0  0  0
   -1.7865   -3.4409    1.8022 H   0  0  0  0  0  0  0  0  0  0  0  0
   -0.7475   -4.7358    2.4338 H   0  0  0  0  0  0  0  0  0  0  0  0
   -0.9951   -3.2595    3.3861 H   0  0  0  0  0  0  0  0  0  0  0  0
    1.0009   -4.8494    0.0701 N   0  0  0  0  0  0  0  0  0  0  0  0
    1.2200   -5.4328   -1.2489 C   0  0  0  0  0  0  0  0  0  0  0  0
    1.2754   -5.3797    0.8923 H   0  0  0  0  0  0  0  0  0  0  0  0
    0.2870   -5.4466   -1.8224 H   0  0  0  0  0  0  0  0  0  0  0  0
    1.9666   -4.8556   -1.8046 H   0  0  0  0  0  0  0  0  0  0  0  0
    1.5800   -6.4620   -1.1539 H   0  0  0  0  0  0  0  0  0  0  0  0
  1  2  2  0  0  0  0
  1  3  1  0  0  0  0
  1  7  1  0  0  0  0
  3  4  1  0  0  0  0
  3  5  1  0  0  0  0
  3  6  1  0  0  0  0
  7  8  1  0  0  0  0
  7 12  1  0  0  0  0
  8  9  1  0  0  0  0
  8 11  1  0  0  0  0
  8 13  1  0  0  0  0
  9 10  2  0  0  0  0
  9 17  1  0  0  0  0
 11 14  1  0  0  0  0
 11 15  1  0  0  0  0
 11 16  1  0  0  0  0
 17 18  1  0  0  0  0
 17 27  1  0  0  0  0
 18 19  1  0  0  0  0
 18 21  1  0  0  0  0
 18 28  1  0  0  0  0
 19 20  2  0  0  0  0
 19 35  1  0  0  0  0
 21 22  1  0  0  0  0
 21 29  1  0  0  0  0
 21 30  1  0  0  0  0
 22 23  1  0  0  0  0
 22 24  2  0  0  0  0
 23 25  2  0  0  0  0
 23 31  1  0  0  0  0
 24 26  1  0  0  0  0
 24 32  1  0  0  0  0
 25 26  1  0  0  0  0
 25 33  1  0  0  0  0
 26 34  1  0  0  0  0
 35 36  1  0  0  0  0
 35 40  1  0  0  0  0
 36 37  1  0  0  0  0
 36 39  1  0  0  0  0
 36 41  1  0  0  0  0
 37 38  2  0  0  0  0
 37 45  1  0  0  0  0
 39 42  1  0  0  0  0
 39 43  1  0  0  0  0
 39 44  1  0  0  0  0
 45 46  1  0  0  0  0
 45 47  1  0  0  0  0
 46 48  1  0  0  0  0
 46 49  1  0  0  0  0
 46 50  1  0  0  0  0
M  CHG  1  23   1
M  END
$$$$

  -OEChem-05262216443D

 50 50  0     1  0  0  0  0  0999 V2000
   -2.9557   -0.2151    2.3907 C   0  0  0  0  0  0  0  0  0  0  0  0
   -2.6824   -0.3106    1.2007 O   0  0  0  0  0  0  0  0  0  0  0  0
   -3.5679   -1.3884    3.1296 C   0  0  0  0  0  0  0  0  0  0  0  0
   -3.7506   -2.2166    2.4393 H   0  0  0  0  0  0  0  0  0  0  0  0
   -2.8912   -1.7277    3.9176 H   0  0  0  0  0  0  0  0  0  0  0  0
   -4.5185   -1.0919    3.5796 H   0  0  0  0  0  0  0  0  0  0  0  0
   -2.6419    0.9437    3.0716 N   0  0  0  0  0  0  0  0  0  0  0  0
   -2.0705    2.1478    2.4493 C   0  0  2  0  0  0  0  0  0  0  0  0
   -0.6048    1.9431    1.9916 C   0  0  0  0  0  0  0  0  0  0  0  0
    0.3362    2.3490    2.6581 O   0  0  0  0  0  0  0  0  0  0  0  0
   -2.2153    3.2955    3.4564 C   0  0  0  0  0  0  0  0  0  0  0  0
   -2.8162    0.9542    4.0741 H   0  0  0  0  0  0  0  0  0  0  0  0
   -2.6586    2.4077    1.5625 H   0  0  0  0  0  0  0  0  0  0  0  0
   -1.6607    3.0772    4.3752 H   0  0  0  0  0  0  0  0  0  0  0  0
   -1.8253    4.2257    3.0308 H   0  0  0  0  0  0  0  0  0  0  0  0
   -3.2683    3.4489    3.7126 H   0  0  0  0  0  0  0  0  0  0  0  0
   -0.3761    1.2818    0.7959 N   0  0  0  0  0  0  0  0  0  0  0  0
    0.8358    0.4971    0.4795 C   0  0  2  0  0  0  0  0  0  0  0  0
    1.0261   -0.6758    1.4677 C   0  0  0  0  0  0  0  0  0  0  0  0
    2.1314   -0.9558    1.9149 O   0  0  0  0  0  0  0  0  0  0  0  0
    2.1153    1.3579    0.3709 C   0  0  0  0  0  0  0  0  0  0  0  0
    2.0132    2.3283   -0.7729 C   0  0  0  0  0  0  0  0  0  0  0  0
    2.1298    2.0287   -2.1294 N   0  3  0  0  0  0  0  0  0  0  0  0
    1.8320    3.6807   -0.6541 C   0  0  0  0  0  0  0  0  0  0  0  0
    2.0216    3.1241   -2.8420 C   0  0  0  0  0  0  0  0  0  0  0  0
    1.8319    4.1804   -1.9509 N   0  0  0  0  0  0  0  0  0  0  0  0
   -1.2449    0.8954    0.4149 H   0  0  0  0  0  0  0  0  0  0  0  0
    0.6760    0.0280   -0.4965 H   0  0  0  0  0  0  0  0  0  0  0  0
    2.9820    0.7104    0.1982 H   0  0  0  0  0  0  0  0  0  0  0  0
    2.3098    1.8847    1.3092 H   0  0  0  0  0  0  0  0  0  0  0  0
    2.2774    1.0769   -2.4777 H   0  0  0  0  0  0  0  0  0  0  0  0
    1.7152    4.2286    0.2824 H   0  0  0  0  0  0  0  0  0  0  0  0
    2.0736    3.1951   -3.9301 H   0  0  0  0  0  0  0  0  0  0  0  0
    1.7228    5.1664   -2.2055 H   0  0  0  0  0  0  0  0  0  0  0  0
    0.0178   -1.6201    1.5345 N   0  0  0  0  0  0  0  0  0  0  0  0
    0.3556   -3.0499    1.5250 C   0  0  2  0  0  0  0  0  0  0  0  0
    0.8626   -3.5118    0.1360 C   0  0  0  0  0  0  0  0  0  0  0  0
    0.7342   -2.7882   -0.8497 O   0  0  0  0  0  0  0  0  0  0  0  0
   -0.9002   -3.8266    1.9275 C   0  0  0  0  0  0  0  0  0  0  0  0
   -0.8279   -1.3598    1.0245 H   0  0  0  0  0  0  0  0  0  0  0  0
    1.1420   -3.2523    2.2607 H   0  0  0  0  0  0  0  0  0  0  0  0
   -1.7054   -3.6557    1.2052 H   0  0  0  0  0  0  0  0  0  0  0  0
   -0.6917   -4.9002    1.9672 H   0  0  0  0  0  0  0  0  0  0  0  0
   -1.2420   -3.5068    2.9164 H   0  0  0  0  0  0  0  0  0  0  0  0
    1.4679   -4.7456   -0.0125 N   0  0  0  0  0  0  0  0  0  0  0  0
    1.9810   -5.2406   -1.2849 C   0  0  0  0  0  0  0  0  0  0  0  0
    1.6099   -5.3055    0.8236 H   0  0  0  0  0  0  0  0  0  0  0  0
    1.1809   -5.2813   -2.0317 H   0  0  0  0  0  0  0  0  0  0  0  0
    2.7778   -4.5881   -1.6572 H   0  0  0  0  0  0  0  0  0  0  0  0
    2.3889   -6.2489   -1.1630 H   0  0  0  0  0  0  0  0  0  0  0  0
  1  2  2  0  0  0  0
  1  3  1  0  0  0  0
  1  7  1  0  0  0  0
  3  4  1  0  0  0  0
  3  5  1  0  0  0  0
  3  6  1  0  0  0  0
  7  8  1  0  0  0  0
  7 12  1  0  0  0  0
  8  9  1  0  0  0  0
  8 11  1  0  0  0  0
  8 13  1  0  0  0  0
  9 10  2  0  0  0  0
  9 17  1  0  0  0  0
 11 14  1  0  0  0  0
 11 15  1  0  0  0  0
 11 16  1  0  0  0  0
 17 18  1  0  0  0  0
 17 27  1  0  0  0  0
 18 19  1  0  0  0  0
 18 21  1  0  0  0  0
 18 28  1  0  0  0  0
 19 20  2  0  0  0  0
 19 35  1  0  0  0  0
 21 22  1  0  0  0  0
 21 29  1  0  0  0  0
 21 30  1  0  0  0  0
 22 23  1  0  0  0  0
 22 24  2  0  0  0  0
 23 25  2  0  0  0  0
 23 31  1  0  0  0  0
 24 26  1  0  0  0  0
 24 32  1  0  0  0  0
 25 26  1  0  0  0  0
 25 33  1  0  0  0  0
 26 34  1  0  0  0  0
 35 36  1  0  0  0  0
 35 40  1  0  0  0  0
 36 37  1  0  0  0  0
 36 39  1  0  0  0  0
 36 41  1  0  0  0  0
 37 38  2  0  0  0  0
 37 45  1  0  0  0  0
 39 42  1  0  0  0  0
 39 43  1  0  0  0  0
 39 44  1  0  0  0  0
 45 46  1  0  0  0  0
 45 47  1  0  0  0  0
 46 48  1  0  0  0  0
 46 49  1  0  0  0  0
 46 50  1  0  0  0  0
M  CHG  1  23   1
M  END
$$$$

  -OEChem-05262216443D

 50 50  0     1  0  0  0  0  0999 V2000
   -2.9642   -0.1748    2.2620 C   0  0  0  0  0  0  0  0  0  0  0  0
   -2.7797   -0.1745    1.0512 O   0  0  0  0  0  0  0  0  0  0  0  0
   -3.4679   -1.4258    2.9545 C   0  0  0  0  0  0  0  0  0  0  0  0
   -3.7003   -2.1991    2.2170 H   0  0  0  0  0  0  0  0  0  0  0  0
   -2.7044   -1.8074    3.6373 H   0  0  0  0  0  0  0  0  0  0  0  0
   -4.3743   -1.2008    3.5220 H   0  0  0  0  0  0  0  0  0  0  0  0
   -2.6304    0.9404    3.0046 N   0  0  0  0  0  0  0  0  0  0  0  0
   -2.1126    2.1978    2.4415 C   0  0  2  0  0  0  0  0  0  0  0  0
   -0.6550    2.0586    1.9364 C   0  0  0  0  0  0  0  0  0  0  0  0
    0.2884    2.5287    2.5558 O   0  0  0  0  0  0  0  0  0  0  0  0
   -2.2627    3.2777    3.5208 C   0  0  0  0  0  0  0  0  0  0  0  0
   -2.7182    0.8657    4.0157 H   0  0  0  0  0  0  0  0  0  0  0  0
   -2.7308    2.4927    1.5865 H   0  0  0  0  0  0  0  0  0  0  0  0
   -1.6654    3.0293    4.4046 H   0  0  0  0  0  0  0  0  0  0  0  0
   -1.9249    4.2460    3.1383 H   0  0  0  0  0  0  0  0  0  0  0  0
   -3.3103    3.3733    3.8232 H   0  0  0  0  0  0  0  0  0  0  0  0
   -0.4367    1.3664    0.7572 N   0  0  0  0  0  0  0  0  0  0  0  0
    0.7312    0.5011    0.4941 C   0  0  2  0  0  0  0  0  0  0  0  0
    0.8075   -0.6622    1.5088 C   0  0  0  0  0  0  0  0  0  0  0  0
    1.8048   -0.8512    2.1936 O   0  0  0  0  0  0  0  0  0  0  0  0
    2.0723    1.2647    0.4283 C   0  0  0  0  0  0  0  0  0  0  0  0
    2.0852    2.2272   -0.7252 C   0  0  0  0  0  0  0  0  0  0  0  0
    2.2316    1.9071   -2.0738 N   0  3  0  0  0  0  0  0  0  0  0  0
    1.9824    3.5886   -0.6223 C   0  0  0  0  0  0  0  0  0  0  0  0
    2.2208    3.0007   -2.7974 C   0  0  0  0  0  0  0  0  0  0  0  0
    2.0650    4.0754   -1.9213 N   0  0  0  0  0  0  0  0  0  0  0  0
   -1.3182    0.9930    0.3919 H   0  0  0  0  0  0  0  0  0  0  0  0
    0.5807    0.0336   -0.4841 H   0  0  0  0  0  0  0  0  0  0  0  0
    2.8919    0.5500    0.2958 H   0  0  0  0  0  0  0  0  0  0  0  0
    2.2711    1.7858    1.3691 H   0  0  0  0  0  0  0  0  0  0  0  0
    2.3311    0.9439   -2.4086 H   0  0  0  0  0  0  0  0  0  0  0  0
    1.8565    4.1500    0.3053 H   0  0  0  0  0  0  0  0  0  0  0  0
    2.3168    3.0583   -3.8830 H   0  0  0  0  0  0  0  0  0  0  0  0
    2.0238    5.0638   -2.1865 H   0  0  0  0  0  0  0  0  0  0  0  0
   -0.0903   -1.7001    1.3411 N   0  0  0  0  0  0  0  0  0  0  0  0
    0.3958   -3.0865    1.3398 C   0  0  2  0  0  0  0  0  0  0  0  0
    1.1909   -3.4132    0.0506 C   0  0  0  0  0  0  0  0  0  0  0  0
    1.1813   -2.6377   -0.9043 O   0  0  0  0  0  0  0  0  0  0  0  0
   -0.8202   -4.0063    1.4762 C   0  0  0  0  0  0  0  0  0  0  0  0
   -0.8383   -1.4933    0.6796 H   0  0  0  0  0  0  0  0  0  0  0  0
    1.0558   -3.2527    2.1988 H   0  0  0  0  0  0  0  0  0  0  0  0
   -1.5009   -3.8742    0.6287 H   0  0  0  0  0  0  0  0  0  0  0  0
   -0.5071   -5.0544    1.5092 H   0  0  0  0  0  0  0  0  0  0  0  0
   -1.3632   -3.7820    2.3995 H   0  0  0  0  0  0  0  0  0  0  0  0
    1.9241   -4.5811   -0.0415 N   0  0  0  0  0  0  0  0  0  0  0  0
    2.6911   -4.9589   -1.2234 C   0  0  0  0  0  0  0  0  0  0  0  0
    1.9537   -5.1857    0.7749 H   0  0  0  0  0  0  0  0  0  0  0  0
    2.0325   -5.0541   -2.0933 H   0  0  0  0  0  0  0  0  0  0  0  0
    3.4568   -4.2070   -1.4412 H   0  0  0  0  0  0  0  0  0  0  0  0
    3.1884   -5.9204   -1.0615 H   0  0  0  0  0  0  0  0  0  0  0  0
  1  2  2  0  0  0  0
  1  3  1  0  0  0  0
  1  7  1  0  0  0  0
  3  4  1  0  0  0  0
  3  5  1  0  0  0  0
  3  6  1  0  0  0  0
  7  8  1  0  0  0  0
  7 12  1  0  0  0  0
  8  9  1  0  0  0  0
  8 11  1  0  0  0  0
  8 13  1  0  0  0  0
  9 10  2  0  0  0  0
  9 17  1  0  0  0  0
 11 14  1  0  0  0  0
 11 15  1  0  0  0  0
 11 16  1  0  0  0  0
 17 18  1  0  0  0  0
 17 27  1  0  0  0  0
 18 19  1  0  0  0  0
 18 21  1  0  0  0  0
 18 28  1  0  0  0  0
 19 20  2  0  0  0  0
 19 35  1  0  0  0  0
 21 22  1  0  0  0  0
 21 29  1  0  0  0  0
 21 30  1  0  0  0  0
 22 23  1  0  0  0  0
 22 24  2  0  0  0  0
 23 25  2  0  0  0  0
 23 31  1  0  0  0  0
 24 26  1  0  0  0  0
 24 32  1  0  0  0  0
 25 26  1  0  0  0  0
 25 33  1  0  0  0  0
 26 34  1  0  0  0  0
 35 36  1  0  0  0  0
 35 40  1  0  0  0  0
 36 37  1  0  0  0  0
 36 39  1  0  0  0  0
 36 41  1  0  0  0  0
 37 38  2  0  0  0  0
 37 45  1  0  0  0  0
 39 42  1  0  0  0  0
 39 43  1  0  0  0  0
 39 44  1  0  0  0  0
 45 46  1  0  0  0  0
 45 47  1  0  0  0  0
 46 48  1  0  0  0  0
 46 49  1  0  0  0  0
 46 50  1  0  0  0  0
M  CHG  1  23   1
M  END
$$$$

  -OEChem-05262216443D

 50 50  0     1  0  0  0  0  0999 V2000
   -3.0231   -0.1334    2.1213 C   0  0  0  0  0  0  0  0  0  0  0  0
   -2.8935   -0.0564    0.9061 O   0  0  0  0  0  0  0  0  0  0  0  0
   -3.4730   -1.4327    2.7591 C   0  0  0  0  0  0  0  0  0  0  0  0
   -3.7465   -2.1579    1.9877 H   0  0  0  0  0  0  0  0  0  0  0  0
   -2.6641   -1.8498    3.3643 H   0  0  0  0  0  0  0  0  0  0  0  0
   -4.3423   -1.2551    3.3972 H   0  0  0  0  0  0  0  0  0  0  0  0
   -2.6675    0.9387    2.9153 N   0  0  0  0  0  0  0  0  0  0  0  0
   -2.1721    2.2292    2.4093 C   0  0  2  0  0  0  0  0  0  0  0  0
   -0.7219    2.1280    1.8755 C   0  0  0  0  0  0  0  0  0  0  0  0
    0.2193    2.6542    2.4528 O   0  0  0  0  0  0  0  0  0  0  0  0
   -2.3155    3.2494    3.5455 C   0  0  0  0  0  0  0  0  0  0  0  0
   -2.7060    0.7995    3.9226 H   0  0  0  0  0  0  0  0  0  0  0  0
   -2.8059    2.5620    1.5799 H   0  0  0  0  0  0  0  0  0  0  0  0
   -1.7087    2.9553    4.4083 H   0  0  0  0  0  0  0  0  0  0  0  0
   -1.9843    4.2383    3.2127 H   0  0  0  0  0  0  0  0  0  0  0  0
   -3.3604    3.3247    3.8621 H   0  0  0  0  0  0  0  0  0  0  0  0
   -0.5062    1.4307    0.6992 N   0  0  0  0  0  0  0  0  0  0  0  0
    0.6098    0.4860    0.4939 C   0  0  2  0  0  0  0  0  0  0  0  0
    0.5601   -0.6849    1.5005 C   0  0  0  0  0  0  0  0  0  0  0  0
    1.3693   -0.7843    2.4132 O   0  0  0  0  0  0  0  0  0  0  0  0
    2.0070    1.1413    0.5163 C   0  0  0  0  0  0  0  0  0  0  0  0
    2.1566    2.1070   -0.6231 C   0  0  0  0  0  0  0  0  0  0  0  0
    2.3533    1.7826   -1.9637 N   0  3  0  0  0  0  0  0  0  0  0  0
    2.1289    3.4711   -0.5152 C   0  0  0  0  0  0  0  0  0  0  0  0
    2.4455    2.8779   -2.6792 C   0  0  0  0  0  0  0  0  0  0  0  0
    2.3091    3.9568   -1.8047 N   0  0  0  0  0  0  0  0  0  0  0  0
   -1.3978    1.0811    0.3335 H   0  0  0  0  0  0  0  0  0  0  0  0
    0.4838    0.0443   -0.4993 H   0  0  0  0  0  0  0  0  0  0  0  0
    2.7733    0.3633    0.4242 H   0  0  0  0  0  0  0  0  0  0  0  0
    2.1913    1.6395    1.4727 H   0  0  0  0  0  0  0  0  0  0  0  0
    2.4116    0.8154   -2.2974 H   0  0  0  0  0  0  0  0  0  0  0  0
    1.9792    4.0329    0.4092 H   0  0  0  0  0  0  0  0  0  0  0  0
    2.5995    2.9337   -3.7581 H   0  0  0  0  0  0  0  0  0  0  0  0
    2.3336    4.9467   -2.0654 H   0  0  0  0  0  0  0  0  0  0  0  0
   -0.1544   -1.8057    1.1218 N   0  0  0  0  0  0  0  0  0  0  0  0
    0.5033   -3.1186    1.1691 C   0  0  2  0  0  0  0  0  0  0  0  0
    1.5688   -3.2628    0.0521 C   0  0  0  0  0  0  0  0  0  0  0  0
    1.6609   -2.4185   -0.8395 O   0  0  0  0  0  0  0  0  0  0  0  0
   -0.5846   -4.1866    1.0294 C   0  0  0  0  0  0  0  0  0  0  0  0
   -0.7544   -1.6509    0.3139 H   0  0  0  0  0  0  0  0  0  0  0  0
    1.0018   -3.2550    2.1356 H   0  0  0  0  0  0  0  0  0  0  0  0
   -1.0931   -4.0950    0.0641 H   0  0  0  0  0  0  0  0  0  0  0  0
   -0.1509   -5.1891    1.0988 H   0  0  0  0  0  0  0  0  0  0  0  0
   -1.3269   -4.0777    1.8266 H   0  0  0  0  0  0  0  0  0  0  0  0
    2.4370   -4.3377    0.0484 N   0  0  0  0  0  0  0  0  0  0  0  0
    3.4667   -4.5377   -0.9651 C   0  0  0  0  0  0  0  0  0  0  0  0
    2.3691   -5.0024    0.8146 H   0  0  0  0  0  0  0  0  0  0  0  0
    3.0150   -4.6274   -1.9588 H   0  0  0  0  0  0  0  0  0  0  0  0
    4.1686   -3.6971   -0.9708 H   0  0  0  0  0  0  0  0  0  0  0  0
    4.0283   -5.4542   -0.7588 H   0  0  0  0  0  0  0  0  0  0  0  0
  1  2  2  0  0  0  0
  1  3  1  0  0  0  0
  1  7  1  0  0  0  0
  3  4  1  0  0  0  0
  3  5  1  0  0  0  0
  3  6  1  0  0  0  0
  7  8  1  0  0  0  0
  7 12  1  0  0  0  0
  8  9  1  0  0  0  0
  8 11  1  0  0  0  0
  8 13  1  0  0  0  0
  9 10  2  0  0  0  0
  9 17  1  0  0  0  0
 11 14  1  0  0  0  0
 11 15  1  0  0  0  0
 11 16  1  0  0  0  0
 17 18  1  0  0  0  0
 17 27  1  0  0  0  0
 18 19  1  0  0  0  0
 18 21  1  0  0  0  0
 18 28  1  0  0  0  0
 19 20  2  0  0  0  0
 19 35  1  0  0  0  0
 21 22  1  0  0  0  0
 21 29  1  0  0  0  0
 21 30  1  0  0  0  0
 22 23  1  0  0  0  0
 22 24  2  0  0  0  0
 23 25  2  0  0  0  0
 23 31  1  0  0  0  0
 24 26  1  0  0  0  0
 24 32  1  0  0  0  0
 25 26  1  0  0  0  0
 25 33  1  0  0  0  0
 26 34  1  0  0  0  0
 35 36  1  0  0  0  0
 35 40  1  0  0  0  0
 36 37  1  0  0  0  0
 36 39  1  0  0  0  0
 36 41  1  0  0  0  0
 37 38  2  0  0  0  0
 37 45  1  0  0  0  0
 39 42  1  0  0  0  0
 39 43  1  0  0  0  0
 39 44  1  0  0  0  0
 45 46  1  0  0  0  0
 45 47  1  0  0  0  0
 46 48  1  0  0  0  0
 46 49  1  0  0  0  0
 46 50  1  0  0  0  0
M  CHG  1  23   1
M  END
$$$$

  -OEChem-05262216443D

 50 50  0     1  0  0  0  0  0999 V2000
   -3.0298   -0.1067    2.0433 C   0  0  0  0  0  0  0  0  0  0  0  0
   -3.0071    0.0801    0.8337 O   0  0  0  0  0  0  0  0  0  0  0  0
   -3.4285   -1.4587    2.6011 C   0  0  0  0  0  0  0  0  0  0  0  0
   -3.7595   -2.1178    1.7937 H   0  0  0  0  0  0  0  0  0  0  0  0
   -2.5759   -1.9199    3.1063 H   0  0  0  0  0  0  0  0  0  0  0  0
   -4.2472   -1.3414    3.3154 H   0  0  0  0  0  0  0  0  0  0  0  0
   -2.5974    0.8920    2.8920 N   0  0  0  0  0  0  0  0  0  0  0  0
   -2.1348    2.2184    2.4533 C   0  0  2  0  0  0  0  0  0  0  0  0
   -0.7261    2.1611    1.8112 C   0  0  0  0  0  0  0  0  0  0  0  0
    0.2354    2.7377    2.3039 O   0  0  0  0  0  0  0  0  0  0  0  0
   -2.1956    3.1457    3.6734 C   0  0  0  0  0  0  0  0  0  0  0  0
   -2.5256    0.6590    3.8801 H   0  0  0  0  0  0  0  0  0  0  0  0
   -2.8241    2.6141    1.6993 H   0  0  0  0  0  0  0  0  0  0  0  0
   -1.5155    2.7971    4.4576 H   0  0  0  0  0  0  0  0  0  0  0  0
   -1.9058    4.1633    3.3926 H   0  0  0  0  0  0  0  0  0  0  0  0
   -3.2114    3.1776    4.0795 H   0  0  0  0  0  0  0  0  0  0  0  0
   -0.5712    1.5025    0.6022 N   0  0  0  0  0  0  0  0  0  0  0  0
    0.4737    0.4837    0.3709 C   0  0  2  0  0  0  0  0  0  0  0  0
    0.3363   -0.7198    1.3286 C   0  0  0  0  0  0  0  0  0  0  0  0
    0.8950   -0.7452    2.4167 O   0  0  0  0  0  0  0  0  0  0  0  0
    1.9164    1.0254    0.4697 C   0  0  0  0  0  0  0  0  0  0  0  0
    2.1820    2.0404   -0.6033 C   0  0  0  0  0  0  0  0  0  0  0  0
    2.4008    1.7873   -1.9556 N   0  3  0  0  0  0  0  0  0  0  0  0
    2.2299    3.3944   -0.4105 C   0  0  0  0  0  0  0  0  0  0  0  0
    2.5869    2.9169   -2.5959 C   0  0  0  0  0  0  0  0  0  0  0  0
    2.4842    3.9465   -1.6595 N   0  0  0  0  0  0  0  0  0  0  0  0
   -1.4896    1.1967    0.2640 H   0  0  0  0  0  0  0  0  0  0  0  0
    0.3406    0.1009   -0.6453 H   0  0  0  0  0  0  0  0  0  0  0  0
    2.6241    0.1970    0.3550 H   0  0  0  0  0  0  0  0  0  0  0  0
    2.1074    1.4522    1.4586 H   0  0  0  0  0  0  0  0  0  0  0  0
    2.4265    0.8401   -2.3453 H   0  0  0  0  0  0  0  0  0  0  0  0
    2.0720    3.9058    0.5419 H   0  0  0  0  0  0  0  0  0  0  0  0
    2.7866    3.0297   -3.6627 H   0  0  0  0  0  0  0  0  0  0  0  0
    2.5746    4.9475   -1.8551 H   0  0  0  0  0  0  0  0  0  0  0  0
   -0.1693   -1.8965    0.8101 N   0  0  0  0  0  0  0  0  0  0  0  0
    0.5941   -3.1363    1.0054 C   0  0  2  0  0  0  0  0  0  0  0  0
    1.8734   -3.1510    0.1302 C   0  0  0  0  0  0  0  0  0  0  0  0
    2.0331   -2.3086   -0.7542 O   0  0  0  0  0  0  0  0  0  0  0  0
   -0.3240   -4.3084    0.6502 C   0  0  0  0  0  0  0  0  0  0  0  0
   -0.5765   -1.7894   -0.1157 H   0  0  0  0  0  0  0  0  0  0  0  0
    0.8941   -3.2350    2.0549 H   0  0  0  0  0  0  0  0  0  0  0  0
   -0.6265   -4.2562   -0.4008 H   0  0  0  0  0  0  0  0  0  0  0  0
    0.1872   -5.2618    0.8168 H   0  0  0  0  0  0  0  0  0  0  0  0
   -1.2237   -4.2877    1.2736 H   0  0  0  0  0  0  0  0  0  0  0  0
    2.8588   -4.0958    0.3437 N   0  0  0  0  0  0  0  0  0  0  0  0
    4.1013   -4.1493   -0.4186 C   0  0  0  0  0  0  0  0  0  0  0  0
    2.7281   -4.7502    1.1109 H   0  0  0  0  0  0  0  0  0  0  0  0
    3.8918   -4.2527   -1.4886 H   0  0  0  0  0  0  0  0  0  0  0  0
    4.6881   -3.2385   -0.2604 H   0  0  0  0  0  0  0  0  0  0  0  0
    4.7032   -5.0070   -0.1024 H   0  0  0  0  0  0  0  0  0  0  0  0
  1  2  2  0  0  0  0
  1  3  1  0  0  0  0
  1  7  1  0  0  0  0
  3  4  1  0  0  0  0
  3  5  1  0  0  0  0
  3  6  1  0  0  0  0
  7  8  1  0  0  0  0
  7 12  1  0  0  0  0
  8  9  1  0  0  0  0
  8 11  1  0  0  0  0
  8 13  1  0  0  0  0
  9 10  2  0  0  0  0
  9 17  1  0  0  0  0
 11 14  1  0  0  0  0
 11 15  1  0  0  0  0
 11 16  1  0  0  0  0
 17 18  1  0  0  0  0
 17 27  1  0  0  0  0
 18 19  1  0  0  0  0
 18 21  1  0  0  0  0
 18 28  1  0  0  0  0
 19 20  2  0  0  0  0
 19 35  1  0  0  0  0
 21 22  1  0  0  0  0
 21 29  1  0  0  0  0
 21 30  1  0  0  0  0
 22 23  1  0  0  0  0
 22 24  2  0  0  0  0
 23 25  2  0  0  0  0
 23 31  1  0  0  0  0
 24 26  1  0  0  0  0
 24 32  1  0  0  0  0
 25 26  1  0  0  0  0
 25 33  1  0  0  0  0
 26 34  1  0  0  0  0
 35 36  1  0  0  0  0
 35 40  1  0  0  0  0
 36 37  1  0  0  0  0
 36 39  1  0  0  0  0
 36 41  1  0  0  0  0
 37 38  2  0  0  0  0
 37 45  1  0  0  0  0
 39 42  1  0  0  0  0
 39 43  1  0  0  0  0
 39 44  1  0  0  0  0
 45 46  1  0  0  0  0
 45 47  1  0  0  0  0
 46 48  1  0  0  0  0
 46 49  1  0  0  0  0
 46 50  1  0  0  0  0
M  CHG  1  23   1
M  END
$$$$

  -OEChem-05262216443D

 50 50  0     1  0  0  0  0  0999 V2000
   -2.9385   -0.1363    2.0648 C   0  0  0  0  0  0  0  0  0  0  0  0
   -3.0587    0.1672    0.8850 O   0  0  0  0  0  0  0  0  0  0  0  0
   -3.2028   -1.5578    2.5202 C   0  0  0  0  0  0  0  0  0  0  0  0
   -3.5642   -2.1616    1.6832 H   0  0  0  0  0  0  0  0  0  0  0  0
   -2.2814   -2.0027    2.9051 H   0  0  0  0  0  0  0  0  0  0  0  0
   -3.9593   -1.5621    3.3089 H   0  0  0  0  0  0  0  0  0  0  0  0
   -2.4522    0.7963    2.9578 N   0  0  0  0  0  0  0  0  0  0  0  0
   -2.0427    2.1596    2.5876 C   0  0  2  0  0  0  0  0  0  0  0  0
   -0.6875    2.1701    1.8381 C   0  0  0  0  0  0  0  0  0  0  0  0
    0.2959    2.7502    2.2839 O   0  0  0  0  0  0  0  0  0  0  0  0
   -2.0202    2.9931    3.8749 C   0  0  0  0  0  0  0  0  0  0  0  0
   -2.1986    0.4542    3.8821 H   0  0  0  0  0  0  0  0  0  0  0  0
   -2.7922    2.5973    1.9193 H   0  0  0  0  0  0  0  0  0  0  0  0
   -1.2818    2.5960    4.5793 H   0  0  0  0  0  0  0  0  0  0  0  0
   -1.7597    4.0325    3.6513 H   0  0  0  0  0  0  0  0  0  0  0  0
   -3.0037    2.9810    4.3548 H   0  0  0  0  0  0  0  0  0  0  0  0
   -0.6109    1.5884    0.5819 N   0  0  0  0  0  0  0  0  0  0  0  0
    0.3952    0.5629    0.2283 C   0  0  2  0  0  0  0  0  0  0  0  0
    0.2782   -0.7008    1.1102 C   0  0  0  0  0  0  0  0  0  0  0  0
    0.5734   -0.6851    2.2977 O   0  0  0  0  0  0  0  0  0  0  0  0
    1.8525    1.0616    0.3423 C   0  0  0  0  0  0  0  0  0  0  0  0
    2.1338    2.1702   -0.6326 C   0  0  0  0  0  0  0  0  0  0  0  0
    2.3284    2.0642   -2.0088 N   0  3  0  0  0  0  0  0  0  0  0  0
    2.2159    3.4949   -0.2964 C   0  0  0  0  0  0  0  0  0  0  0  0
    2.5378    3.2525   -2.5238 C   0  0  0  0  0  0  0  0  0  0  0  0
    2.4695    4.1752   -1.4800 N   0  0  0  0  0  0  0  0  0  0  0  0
   -1.5532    1.3092    0.2890 H   0  0  0  0  0  0  0  0  0  0  0  0
    0.2172    0.2639   -0.8086 H   0  0  0  0  0  0  0  0  0  0  0  0
    2.5373    0.2323    0.1345 H   0  0  0  0  0  0  0  0  0  0  0  0
    2.0742    1.3840    1.3640 H   0  0  0  0  0  0  0  0  0  0  0  0
    2.3400    1.1667   -2.5012 H   0  0  0  0  0  0  0  0  0  0  0  0
    2.0786    3.9048    0.7070 H   0  0  0  0  0  0  0  0  0  0  0  0
    2.7338    3.4777   -3.5734 H   0  0  0  0  0  0  0  0  0  0  0  0
    2.5811    5.1896   -1.5656 H   0  0  0  0  0  0  0  0  0  0  0  0
    0.0218   -1.9118    0.4966 N   0  0  0  0  0  0  0  0  0  0  0  0
    0.7685   -3.1109    0.9007 C   0  0  2  0  0  0  0  0  0  0  0  0
    2.1524   -3.1497    0.2085 C   0  0  0  0  0  0  0  0  0  0  0  0
    2.4141   -2.3482   -0.6880 O   0  0  0  0  0  0  0  0  0  0  0  0
   -0.0727   -4.3329    0.5239 C   0  0  0  0  0  0  0  0  0  0  0  0
   -0.1475   -1.8380   -0.5032 H   0  0  0  0  0  0  0  0  0  0  0  0
    0.9278   -3.1210    1.9848 H   0  0  0  0  0  0  0  0  0  0  0  0
   -0.2285   -4.3741   -0.5590 H   0  0  0  0  0  0  0  0  0  0  0  0
    0.4258   -5.2552    0.8378 H   0  0  0  0  0  0  0  0  0  0  0  0
   -1.0500   -4.2865    1.0151 H   0  0  0  0  0  0  0  0  0  0  0  0
    3.1104   -4.0661    0.5971 N   0  0  0  0  0  0  0  0  0  0  0  0
    4.4383   -4.1453   -0.0020 C   0  0  0  0  0  0  0  0  0  0  0  0
    2.8804   -4.6968    1.3606 H   0  0  0  0  0  0  0  0  0  0  0  0
    4.3648   -4.3620   -1.0732 H   0  0  0  0  0  0  0  0  0  0  0  0
    4.9771   -3.2011    0.1307 H   0  0  0  0  0  0  0  0  0  0  0  0
    5.0198   -4.9429    0.4713 H   0  0  0  0  0  0  0  0  0  0  0  0
  1  2  2  0  0  0  0
  1  3  1  0  0  0  0
  1  7  1  0  0  0  0
  3  4  1  0  0  0  0
  3  5  1  0  0  0  0
  3  6  1  0  0  0  0
  7  8  1  0  0  0  0
  7 12  1  0  0  0  0
  8  9  1  0  0  0  0
  8 11  1  0  0  0  0
  8 13  1  0  0  0  0
  9 10  2  0  0  0  0
  9 17  1  0  0  0  0
 11 14  1  0  0  0  0
 11 15  1  0  0  0  0
 11 16  1  0  0  0  0
 17 18  1  0  0  0  0
 17 27  1  0  0  0  0
 18 19  1  0  0  0  0
 18 21  1  0  0  0  0
 18 28  1  0  0  0  0
 19 20  2  0  0  0  0
 19 35  1  0  0  0  0
 21 22  1  0  0  0  0
 21 29  1  0  0  0  0
 21 30  1  0  0  0  0
 22 23  1  0  0  0  0
 22 24  2  0  0  0  0
 23 25  2  0  0  0  0
 23 31  1  0  0  0  0
 24 26  1  0  0  0  0
 24 32  1  0  0  0  0
 25 26  1  0  0  0  0
 25 33  1  0  0  0  0
 26 34  1  0  0  0  0
 35 36  1  0  0  0  0
 35 40  1  0  0  0  0
 36 37  1  0  0  0  0
 36 39  1  0  0  0  0
 36 41  1  0  0  0  0
 37 38  2  0  0  0  0
 37 45  1  0  0  0  0
 39 42  1  0  0  0  0
 39 43  1  0  0  0  0
 39 44  1  0  0  0  0
 45 46  1  0  0  0  0
 45 47  1  0  0  0  0
 46 48  1  0  0  0  0
 46 49  1  0  0  0  0
 46 50  1  0  0  0  0
M  CHG  1  23   1
M  END
$$$$

  -OEChem-05262216443D

 50 50  0     1  0  0  0  0  0999 V2000
   -2.8533   -0.0523    2.3253 C   0  0  0  0  0  0  0  0  0  0  0  0
   -3.0999    0.3478    1.1946 O   0  0  0  0  0  0  0  0  0  0  0  0
   -3.1038   -1.5009    2.6964 C   0  0  0  0  0  0  0  0  0  0  0  0
   -2.1586   -1.9902    2.9451 H   0  0  0  0  0  0  0  0  0  0  0  0
   -3.7718   -1.5547    3.5595 H   0  0  0  0  0  0  0  0  0  0  0  0
   -3.5660   -2.0313    1.8594 H   0  0  0  0  0  0  0  0  0  0  0  0
   -2.2377    0.7941    3.2243 N   0  0  0  0  0  0  0  0  0  0  0  0
   -1.7894    2.1546    2.8926 C   0  0  2  0  0  0  0  0  0  0  0  0
   -0.5145    2.1375    2.0131 C   0  0  0  0  0  0  0  0  0  0  0  0
    0.5380    2.6426    2.3879 O   0  0  0  0  0  0  0  0  0  0  0  0
   -1.5962    2.9061    4.2155 C   0  0  0  0  0  0  0  0  0  0  0  0
   -1.8544    0.3582    4.0601 H   0  0  0  0  0  0  0  0  0  0  0  0
   -2.5732    2.6706    2.3273 H   0  0  0  0  0  0  0  0  0  0  0  0
   -0.8143    2.4322    4.8177 H   0  0  0  0  0  0  0  0  0  0  0  0
   -1.3046    3.9439    4.0249 H   0  0  0  0  0  0  0  0  0  0  0  0
   -2.5271    2.9107    4.7912 H   0  0  0  0  0  0  0  0  0  0  0  0
   -0.5966    1.6292    0.7250 N   0  0  0  0  0  0  0  0  0  0  0  0
    0.3244    0.6048    0.1810 C   0  0  2  0  0  0  0  0  0  0  0  0
    0.2849   -0.7206    0.9782 C   0  0  0  0  0  0  0  0  0  0  0  0
    0.4318   -0.7485    2.1933 O   0  0  0  0  0  0  0  0  0  0  0  0
    1.8010    1.0602    0.1691 C   0  0  0  0  0  0  0  0  0  0  0  0
    2.0113    2.2386   -0.7422 C   0  0  0  0  0  0  0  0  0  0  0  0
    2.0538    2.2531   -2.1359 N   0  3  0  0  0  0  0  0  0  0  0  0
    2.1734    3.5264   -0.3051 C   0  0  0  0  0  0  0  0  0  0  0  0
    2.2425    3.4782   -2.5660 C   0  0  0  0  0  0  0  0  0  0  0  0
    2.3172    4.3048   -1.4455 N   0  0  0  0  0  0  0  0  0  0  0  0
   -1.5764    1.4023    0.5230 H   0  0  0  0  0  0  0  0  0  0  0  0
    0.0141    0.3898   -0.8453 H   0  0  0  0  0  0  0  0  0  0  0  0
    2.4345    0.2374   -0.1794 H   0  0  0  0  0  0  0  0  0  0  0  0
    2.1430    1.2908    1.1827 H   0  0  0  0  0  0  0  0  0  0  0  0
    1.9835    1.4053   -2.7044 H   0  0  0  0  0  0  0  0  0  0  0  0
    2.1597    3.8491    0.7387 H   0  0  0  0  0  0  0  0  0  0  0  0
    2.3286    3.7935   -3.6072 H   0  0  0  0  0  0  0  0  0  0  0  0
    2.4478    5.3204   -1.4547 H   0  0  0  0  0  0  0  0  0  0  0  0
    0.2313   -1.9114    0.2795 N   0  0  0  0  0  0  0  0  0  0  0  0
    0.9266   -3.1120    0.7640 C   0  0  2  0  0  0  0  0  0  0  0  0
    2.3751   -3.1514    0.2253 C   0  0  0  0  0  0  0  0  0  0  0  0
    2.7164   -2.3735   -0.6640 O   0  0  0  0  0  0  0  0  0  0  0  0
    0.1323   -4.3338    0.2956 C   0  0  0  0  0  0  0  0  0  0  0  0
    0.2295   -1.8045   -0.7315 H   0  0  0  0  0  0  0  0  0  0  0  0
    0.9686   -3.1261    1.8587 H   0  0  0  0  0  0  0  0  0  0  0  0
    0.0935   -4.3730   -0.7979 H   0  0  0  0  0  0  0  0  0  0  0  0
    0.5962   -5.2562    0.6590 H   0  0  0  0  0  0  0  0  0  0  0  0
   -0.8921   -4.2896    0.6791 H   0  0  0  0  0  0  0  0  0  0  0  0
    3.2962   -4.0448    0.7366 N   0  0  0  0  0  0  0  0  0  0  0  0
    4.6822   -4.1133    0.2870 C   0  0  0  0  0  0  0  0  0  0  0  0
    2.9973   -4.6517    1.4954 H   0  0  0  0  0  0  0  0  0  0  0  0
    4.7294   -4.2701   -0.7960 H   0  0  0  0  0  0  0  0  0  0  0  0
    5.2102   -3.1857    0.5317 H   0  0  0  0  0  0  0  0  0  0  0  0
    5.1985   -4.9451    0.7764 H   0  0  0  0  0  0  0  0  0  0  0  0
  1  2  2  0  0  0  0
  1  3  1  0  0  0  0
  1  7  1  0  0  0  0
  3  4  1  0  0  0  0
  3  5  1  0  0  0  0
  3  6  1  0  0  0  0
  7  8  1  0  0  0  0
  7 12  1  0  0  0  0
  8  9  1  0  0  0  0
  8 11  1  0  0  0  0
  8 13  1  0  0  0  0
  9 10  2  0  0  0  0
  9 17  1  0  0  0  0
 11 14  1  0  0  0  0
 11 15  1  0  0  0  0
 11 16  1  0  0  0  0
 17 18  1  0  0  0  0
 17 27  1  0  0  0  0
 18 19  1  0  0  0  0
 18 21  1  0  0  0  0
 18 28  1  0  0  0  0
 19 20  2  0  0  0  0
 19 35  1  0  0  0  0
 21 22  1  0  0  0  0
 21 29  1  0  0  0  0
 21 30  1  0  0  0  0
 22 23  1  0  0  0  0
 22 24  2  0  0  0  0
 23 25  2  0  0  0  0
 23 31  1  0  0  0  0
 24 26  1  0  0  0  0
 24 32  1  0  0  0  0
 25 26  1  0  0  0  0
 25 33  1  0  0  0  0
 26 34  1  0  0  0  0
 35 36  1  0  0  0  0
 35 40  1  0  0  0  0
 36 37  1  0  0  0  0
 36 39  1  0  0  0  0
 36 41  1  0  0  0  0
 37 38  2  0  0  0  0
 37 45  1  0  0  0  0
 39 42  1  0  0  0  0
 39 43  1  0  0  0  0
 39 44  1  0  0  0  0
 45 46  1  0  0  0  0
 45 47  1  0  0  0  0
 46 48  1  0  0  0  0
 46 49  1  0  0  0  0
 46 50  1  0  0  0  0
M  CHG  1  23   1
M  END
$$$$

  -OEChem-05262216443D

 50 50  0     1  0  0  0  0  0999 V2000
   -3.5331    0.3731    4.0905 C   0  0  0  0  0  0  0  0  0  0  0  0
   -4.5292    0.3188    3.3873 O   0  0  0  0  0  0  0  0  0  0  0  0
   -3.5283   -0.2744    5.4617 C   0  0  0  0  0  0  0  0  0  0  0  0
   -4.5178   -0.6806    5.6896 H   0  0  0  0  0  0  0  0  0  0  0  0
   -2.7996   -1.0882    5.4867 H   0  0  0  0  0  0  0  0  0  0  0  0
   -3.2673    0.4640    6.2237 H   0  0  0  0  0  0  0  0  0  0  0  0
   -2.4063    1.0225    3.6307 N   0  0  0  0  0  0  0  0  0  0  0  0
   -2.2590    1.5379    2.2644 C   0  0  2  0  0  0  0  0  0  0  0  0
   -0.8134    1.3821    1.7521 C   0  0  0  0  0  0  0  0  0  0  0  0
    0.1225    1.5338    2.5296 O   0  0  0  0  0  0  0  0  0  0  0  0
   -2.6833    3.0090    2.2575 C   0  0  0  0  0  0  0  0  0  0  0  0
   -1.5626    0.9483    4.1969 H   0  0  0  0  0  0  0  0  0  0  0  0
   -2.9080    0.9728    1.5862 H   0  0  0  0  0  0  0  0  0  0  0  0
   -2.0574    3.5911    2.9413 H   0  0  0  0  0  0  0  0  0  0  0  0
   -2.5916    3.4315    1.2526 H   0  0  0  0  0  0  0  0  0  0  0  0
   -3.7267    3.1017    2.5768 H   0  0  0  0  0  0  0  0  0  0  0  0
   -0.5741    1.2164    0.3928 N   0  0  0  0  0  0  0  0  0  0  0  0
    0.5182    0.3974   -0.1948 C   0  0  2  0  0  0  0  0  0  0  0  0
    0.4372   -1.0981    0.2033 C   0  0  0  0  0  0  0  0  0  0  0  0
    0.0207   -1.4471    1.2980 O   0  0  0  0  0  0  0  0  0  0  0  0
    1.9269    0.8721    0.2349 C   0  0  0  0  0  0  0  0  0  0  0  0
    2.2270    2.2616   -0.2586 C   0  0  0  0  0  0  0  0  0  0  0  0
    2.5535    2.6818   -1.5484 N   0  3  0  0  0  0  0  0  0  0  0  0
    2.2102    3.3676    0.5493 C   0  0  0  0  0  0  0  0  0  0  0  0
    2.7486    3.9795   -1.5615 C   0  0  0  0  0  0  0  0  0  0  0  0
    2.5335    4.4449   -0.2648 N   0  0  0  0  0  0  0  0  0  0  0  0
   -1.4438    1.1848   -0.1350 H   0  0  0  0  0  0  0  0  0  0  0  0
    0.4380    0.4584   -1.2838 H   0  0  0  0  0  0  0  0  0  0  0  0
    2.6822    0.1957   -0.1801 H   0  0  0  0  0  0  0  0  0  0  0  0
    2.0487    0.8118    1.3200 H   0  0  0  0  0  0  0  0  0  0  0  0
    2.6692    2.0373   -2.3343 H   0  0  0  0  0  0  0  0  0  0  0  0
    1.9717    3.3714    1.6157 H   0  0  0  0  0  0  0  0  0  0  0  0
    3.0338    4.5838   -2.4247 H   0  0  0  0  0  0  0  0  0  0  0  0
    2.6084    5.4187    0.0445 H   0  0  0  0  0  0  0  0  0  0  0  0
    0.9180   -2.0546   -0.6721 N   0  0  0  0  0  0  0  0  0  0  0  0
    1.4498   -3.3380   -0.1898 C   0  0  2  0  0  0  0  0  0  0  0  0
    2.9718   -3.2321    0.0521 C   0  0  0  0  0  0  0  0  0  0  0  0
    3.5980   -2.2920   -0.4338 O   0  0  0  0  0  0  0  0  0  0  0  0
    1.1346   -4.4040   -1.2414 C   0  0  0  0  0  0  0  0  0  0  0  0
    1.3864   -1.6868   -1.4952 H   0  0  0  0  0  0  0  0  0  0  0  0
    0.9738   -3.6327    0.7520 H   0  0  0  0  0  0  0  0  0  0  0  0
    1.6117   -4.1583   -2.1957 H   0  0  0  0  0  0  0  0  0  0  0  0
    1.4968   -5.3840   -0.9146 H   0  0  0  0  0  0  0  0  0  0  0  0
    0.0534   -4.4722   -1.3990 H   0  0  0  0  0  0  0  0  0  0  0  0
    3.6358   -4.1736    0.8146 N   0  0  0  0  0  0  0  0  0  0  0  0
    5.0628   -4.1057    1.1100 C   0  0  0  0  0  0  0  0  0  0  0  0
    3.0830   -4.9136    1.2396 H   0  0  0  0  0  0  0  0  0  0  0  0
    5.6455   -4.0666    0.1836 H   0  0  0  0  0  0  0  0  0  0  0  0
    5.2891   -3.2159    1.7069 H   0  0  0  0  0  0  0  0  0  0  0  0
    5.3753   -4.9893    1.6752 H   0  0  0  0  0  0  0  0  0  0  0  0
  1  2  2  0  0  0  0
  1  3  1  0  0  0  0
  1  7  1  0  0  0  0
  3  4  1  0  0  0  0
  3  5  1  0  0  0  0
  3  6  1  0  0  0  0
  7  8  1  0  0  0  0
  7 12  1  0  0  0  0
  8  9  1  0  0  0  0
  8 11  1  0  0  0  0
  8 13  1  0  0  0  0
  9 10  2  0  0  0  0
  9 17  1  0  0  0  0
 11 14  1  0  0  0  0
 11 15  1  0  0  0  0
 11 16  1  0  0  0  0
 17 18  1  0  0  0  0
 17 27  1  0  0  0  0
 18 19  1  0  0  0  0
 18 21  1  0  0  0  0
 18 28  1  0  0  0  0
 19 20  2  0  0  0  0
 19 35  1  0  0  0  0
 21 22  1  0  0  0  0
 21 29  1  0  0  0  0
 21 30  1  0  0  0  0
 22 23  1  0  0  0  0
 22 24  2  0  0  0  0
 23 25  2  0  0  0  0
 23 31  1  0  0  0  0
 24 26  1  0  0  0  0
 24 32  1  0  0  0  0
 25 26  1  0  0  0  0
 25 33  1  0  0  0  0
 26 34  1  0  0  0  0
 35 36  1  0  0  0  0
 35 40  1  0  0  0  0
 36 37  1  0  0  0  0
 36 39  1  0  0  0  0
 36 41  1  0  0  0  0
 37 38  2  0  0  0  0
 37 45  1  0  0  0  0
 39 42  1  0  0  0  0
 39 43  1  0  0  0  0
 39 44  1  0  0  0  0
 45 46  1  0  0  0  0
 45 47  1  0  0  0  0
 46 48  1  0  0  0  0
 46 49  1  0  0  0  0
 46 50  1  0  0  0  0
M  CHG  1  23   1
M  END
$$$$

  -OEChem-05262216443D

 50 50  0     1  0  0  0  0  0999 V2000
   -3.5431    0.4096    4.1688 C   0  0  0  0  0  0  0  0  0  0  0  0
   -4.5640    0.3955    3.5003 O   0  0  0  0  0  0  0  0  0  0  0  0
   -3.5411   -0.1670    5.5715 C   0  0  0  0  0  0  0  0  0  0  0  0
   -4.5399   -0.5307    5.8294 H   0  0  0  0  0  0  0  0  0  0  0  0
   -2.8372   -1.0006    5.6322 H   0  0  0  0  0  0  0  0  0  0  0  0
   -3.2503    0.6016    6.2915 H   0  0  0  0  0  0  0  0  0  0  0  0
   -2.3895    0.9517    3.6409 N   0  0  0  0  0  0  0  0  0  0  0  0
   -2.2540    1.3801    2.2429 C   0  0  2  0  0  0  0  0  0  0  0  0
   -0.8038    1.2432    1.7359 C   0  0  0  0  0  0  0  0  0  0  0  0
    0.1261    1.3050    2.5330 O   0  0  0  0  0  0  0  0  0  0  0  0
   -2.7266    2.8331    2.1323 C   0  0  0  0  0  0  0  0  0  0  0  0
   -1.5334    0.8488    4.1836 H   0  0  0  0  0  0  0  0  0  0  0  0
   -2.8810    0.7445    1.6070 H   0  0  0  0  0  0  0  0  0  0  0  0
   -2.1136    3.4839    2.7636 H   0  0  0  0  0  0  0  0  0  0  0  0
   -2.6594    3.1827    1.0980 H   0  0  0  0  0  0  0  0  0  0  0  0
   -3.7692    2.9174    2.4559 H   0  0  0  0  0  0  0  0  0  0  0  0
   -0.5530    1.1780    0.3699 N   0  0  0  0  0  0  0  0  0  0  0  0
    0.5584    0.4231   -0.2668 C   0  0  2  0  0  0  0  0  0  0  0  0
    0.4977   -1.0991    0.0293 C   0  0  0  0  0  0  0  0  0  0  0  0
   -0.2201   -1.5513    0.9098 O   0  0  0  0  0  0  0  0  0  0  0  0
    1.9536    0.9123    0.1963 C   0  0  0  0  0  0  0  0  0  0  0  0
    2.2118    2.3384   -0.2119 C   0  0  0  0  0  0  0  0  0  0  0  0
    2.5263    2.8477   -1.4725 N   0  3  0  0  0  0  0  0  0  0  0  0
    2.1731    3.3903    0.6652 C   0  0  0  0  0  0  0  0  0  0  0  0
    2.6871    4.1482   -1.4036 C   0  0  0  0  0  0  0  0  0  0  0  0
    2.4678    4.5247   -0.0791 N   0  0  0  0  0  0  0  0  0  0  0  0
   -1.4194    1.1669   -0.1645 H   0  0  0  0  0  0  0  0  0  0  0  0
    0.4780    0.5488   -1.3502 H   0  0  0  0  0  0  0  0  0  0  0  0
    2.7328    0.2896   -0.2557 H   0  0  0  0  0  0  0  0  0  0  0  0
    2.0774    0.7892    1.2756 H   0  0  0  0  0  0  0  0  0  0  0  0
    2.6471    2.2597   -2.3006 H   0  0  0  0  0  0  0  0  0  0  0  0
    1.9416    3.3210    1.7308 H   0  0  0  0  0  0  0  0  0  0  0  0
    2.9504    4.8135   -2.2280 H   0  0  0  0  0  0  0  0  0  0  0  0
    2.5223    5.4782    0.2919 H   0  0  0  0  0  0  0  0  0  0  0  0
    1.2585   -1.9718   -0.7279 N   0  0  0  0  0  0  0  0  0  0  0  0
    1.7080   -3.2646   -0.1898 C   0  0  2  0  0  0  0  0  0  0  0  0
    3.1228   -3.1268    0.4130 C   0  0  0  0  0  0  0  0  0  0  0  0
    3.8115   -2.1524    0.1169 O   0  0  0  0  0  0  0  0  0  0  0  0
    1.6974   -4.2838   -1.3313 C   0  0  0  0  0  0  0  0  0  0  0  0
    1.9243   -1.5275   -1.3536 H   0  0  0  0  0  0  0  0  0  0  0  0
    1.0347   -3.6211    0.5977 H   0  0  0  0  0  0  0  0  0  0  0  0
    2.3797   -3.9766   -2.1304 H   0  0  0  0  0  0  0  0  0  0  0  0
    2.0095   -5.2682   -0.9687 H   0  0  0  0  0  0  0  0  0  0  0  0
    0.6891   -4.3743   -1.7480 H   0  0  0  0  0  0  0  0  0  0  0  0
    3.6180   -4.0748    1.2870 N   0  0  0  0  0  0  0  0  0  0  0  0
    4.9254   -3.9695    1.9247 C   0  0  0  0  0  0  0  0  0  0  0  0
    3.0061   -4.8434    1.5489 H   0  0  0  0  0  0  0  0  0  0  0  0
    5.7184   -3.9270    1.1705 H   0  0  0  0  0  0  0  0  0  0  0  0
    4.9784   -3.0674    2.5433 H   0  0  0  0  0  0  0  0  0  0  0  0
    5.1062   -4.8381    2.5654 H   0  0  0  0  0  0  0  0  0  0  0  0
  1  2  2  0  0  0  0
  1  3  1  0  0  0  0
  1  7  1  0  0  0  0
  3  4  1  0  0  0  0
  3  5  1  0  0  0  0
  3  6  1  0  0  0  0
  7  8  1  0  0  0  0
  7 12  1  0  0  0  0
  8  9  1  0  0  0  0
  8 11  1  0  0  0  0
  8 13  1  0  0  0  0
  9 10  2  0  0  0  0
  9 17  1  0  0  0  0
 11 14  1  0  0  0  0
 11 15  1  0  0  0  0
 11 16  1  0  0  0  0
 17 18  1  0  0  0  0
 17 27  1  0  0  0  0
 18 19  1  0  0  0  0
 18 21  1  0  0  0  0
 18 28  1  0  0  0  0
 19 20  2  0  0  0  0
 19 35  1  0  0  0  0
 21 22  1  0  0  0  0
 21 29  1  0  0  0  0
 21 30  1  0  0  0  0
 22 23  1  0  0  0  0
 22 24  2  0  0  0  0
 23 25  2  0  0  0  0
 23 31  1  0  0  0  0
 24 26  1  0  0  0  0
 24 32  1  0  0  0  0
 25 26  1  0  0  0  0
 25 33  1  0  0  0  0
 26 34  1  0  0  0  0
 35 36  1  0  0  0  0
 35 40  1  0  0  0  0
 36 37  1  0  0  0  0
 36 39  1  0  0  0  0
 36 41  1  0  0  0  0
 37 38  2  0  0  0  0
 37 45  1  0  0  0  0
 39 42  1  0  0  0  0
 39 43  1  0  0  0  0
 39 44  1  0  0  0  0
 45 46  1  0  0  0  0
 45 47  1  0  0  0  0
 46 48  1  0  0  0  0
 46 49  1  0  0  0  0
 46 50  1  0  0  0  0
M  CHG  1  23   1
M  END
$$$$

  -OEChem-05262216443D

 50 50  0     1  0  0  0  0  0999 V2000
   -3.5113    0.3301    4.1132 C   0  0  0  0  0  0  0  0  0  0  0  0
   -4.5344    0.3999    3.4524 O   0  0  0  0  0  0  0  0  0  0  0  0
   -3.5327   -0.3094    5.4878 C   0  0  0  0  0  0  0  0  0  0  0  0
   -4.5565   -0.5818    5.7592 H   0  0  0  0  0  0  0  0  0  0  0  0
   -2.9157   -1.2111    5.4891 H   0  0  0  0  0  0  0  0  0  0  0  0
   -3.1467    0.3906    6.2323 H   0  0  0  0  0  0  0  0  0  0  0  0
   -2.3308    0.8269    3.6000 N   0  0  0  0  0  0  0  0  0  0  0  0
   -2.1771    1.3091    2.2206 C   0  0  2  0  0  0  0  0  0  0  0  0
   -0.7280    1.1567    1.7113 C   0  0  0  0  0  0  0  0  0  0  0  0
    0.1867    1.0560    2.5224 O   0  0  0  0  0  0  0  0  0  0  0  0
   -2.6155    2.7767    2.1662 C   0  0  0  0  0  0  0  0  0  0  0  0
   -1.4801    0.6558    4.1337 H   0  0  0  0  0  0  0  0  0  0  0  0
   -2.8173    0.7153    1.5577 H   0  0  0  0  0  0  0  0  0  0  0  0
   -1.9919    3.3882    2.8260 H   0  0  0  0  0  0  0  0  0  0  0  0
   -2.5359    3.1657    1.1469 H   0  0  0  0  0  0  0  0  0  0  0  0
   -3.6579    2.8729    2.4874 H   0  0  0  0  0  0  0  0  0  0  0  0
   -0.4783    1.2034    0.3447 N   0  0  0  0  0  0  0  0  0  0  0  0
    0.6364    0.5355   -0.3782 C   0  0  2  0  0  0  0  0  0  0  0  0
    0.3626   -0.9873   -0.5019 C   0  0  0  0  0  0  0  0  0  0  0  0
   -0.6478   -1.4768   -0.0149 O   0  0  0  0  0  0  0  0  0  0  0  0
    2.0363    0.7400    0.2598 C   0  0  0  0  0  0  0  0  0  0  0  0
    2.4513    2.1894    0.2422 C   0  0  0  0  0  0  0  0  0  0  0  0
    2.8981    2.9547   -0.8367 N   0  3  0  0  0  0  0  0  0  0  0  0
    2.4746    2.9901    1.3544 C   0  0  0  0  0  0  0  0  0  0  0  0
    3.1866    4.1713   -0.4382 C   0  0  0  0  0  0  0  0  0  0  0  0
    2.9291    4.2314    0.9303 N   0  0  0  0  0  0  0  0  0  0  0  0
   -1.3458    1.2437   -0.1882 H   0  0  0  0  0  0  0  0  0  0  0  0
    0.6622    0.9374   -1.3949 H   0  0  0  0  0  0  0  0  0  0  0  0
    2.7889    0.1769   -0.3003 H   0  0  0  0  0  0  0  0  0  0  0  0
    2.0719    0.3310    1.2736 H   0  0  0  0  0  0  0  0  0  0  0  0
    2.9938    2.5843   -1.7851 H   0  0  0  0  0  0  0  0  0  0  0  0
    2.1787    2.6886    2.3619 H   0  0  0  0  0  0  0  0  0  0  0  0
    3.5621    4.9863   -1.0603 H   0  0  0  0  0  0  0  0  0  0  0  0
    3.0598    5.0505    1.5315 H   0  0  0  0  0  0  0  0  0  0  0  0
    1.2668   -1.8173   -1.1408 N   0  0  0  0  0  0  0  0  0  0  0  0
    1.4098   -3.2287   -0.7538 C   0  0  2  0  0  0  0  0  0  0  0  0
    2.5148   -3.3718    0.3152 C   0  0  0  0  0  0  0  0  0  0  0  0
    3.3267   -2.4611    0.4657 O   0  0  0  0  0  0  0  0  0  0  0  0
    1.7575   -4.0343   -2.0074 C   0  0  0  0  0  0  0  0  0  0  0  0
    2.1408   -1.3721   -1.4045 H   0  0  0  0  0  0  0  0  0  0  0  0
    0.4755   -3.6224   -0.3385 H   0  0  0  0  0  0  0  0  0  0  0  0
    2.7018   -3.6878   -2.4397 H   0  0  0  0  0  0  0  0  0  0  0  0
    1.8573   -5.0968   -1.7641 H   0  0  0  0  0  0  0  0  0  0  0  0
    0.9682   -3.9257   -2.7581 H   0  0  0  0  0  0  0  0  0  0  0  0
    2.5985   -4.5016    1.1054 N   0  0  0  0  0  0  0  0  0  0  0  0
    3.5887   -4.6646    2.1639 C   0  0  0  0  0  0  0  0  0  0  0  0
    1.8815   -5.2135    0.9916 H   0  0  0  0  0  0  0  0  0  0  0  0
    4.6017   -4.5450    1.7651 H   0  0  0  0  0  0  0  0  0  0  0  0
    3.4314   -3.9222    2.9534 H   0  0  0  0  0  0  0  0  0  0  0  0
    3.5103   -5.6624    2.6064 H   0  0  0  0  0  0  0  0  0  0  0  0
  1  2  2  0  0  0  0
  1  3  1  0  0  0  0
  1  7  1  0  0  0  0
  3  4  1  0  0  0  0
  3  5  1  0  0  0  0
  3  6  1  0  0  0  0
  7  8  1  0  0  0  0
  7 12  1  0  0  0  0
  8  9  1  0  0  0  0
  8 11  1  0  0  0  0
  8 13  1  0  0  0  0
  9 10  2  0  0  0  0
  9 17  1  0  0  0  0
 11 14  1  0  0  0  0
 11 15  1  0  0  0  0
 11 16  1  0  0  0  0
 17 18  1  0  0  0  0
 17 27  1  0  0  0  0
 18 19  1  0  0  0  0
 18 21  1  0  0  0  0
 18 28  1  0  0  0  0
 19 20  2  0  0  0  0
 19 35  1  0  0  0  0
 21 22  1  0  0  0  0
 21 29  1  0  0  0  0
 21 30  1  0  0  0  0
 22 23  1  0  0  0  0
 22 24  2  0  0  0  0
 23 25  2  0  0  0  0
 23 31  1  0  0  0  0
 24 26  1  0  0  0  0
 24 32  1  0  0  0  0
 25 26  1  0  0  0  0
 25 33  1  0  0  0  0
 26 34  1  0  0  0  0
 35 36  1  0  0  0  0
 35 40  1  0  0  0  0
 36 37  1  0  0  0  0
 36 39  1  0  0  0  0
 36 41  1  0  0  0  0
 37 38  2  0  0  0  0
 37 45  1  0  0  0  0
 39 42  1  0  0  0  0
 39 43  1  0  0  0  0
 39 44  1  0  0  0  0
 45 46  1  0  0  0  0
 45 47  1  0  0  0  0
 46 48  1  0  0  0  0
 46 49  1  0  0  0  0
 46 50  1  0  0  0  0
M  CHG  1  23   1
M  END
$$$$

  -OEChem-05262216443D

 50 50  0     1  0  0  0  0  0999 V2000
   -3.7777    0.3747    3.8607 C   0  0  0  0  0  0  0  0  0  0  0  0
   -4.7419    0.5291    3.1294 O   0  0  0  0  0  0  0  0  0  0  0  0
   -3.9406   -0.3118    5.2029 C   0  0  0  0  0  0  0  0  0  0  0  0
   -4.9850   -0.5996    5.3528 H   0  0  0  0  0  0  0  0  0  0  0  0
   -3.3203   -1.2104    5.2417 H   0  0  0  0  0  0  0  0  0  0  0  0
   -3.6434    0.3648    6.0075 H   0  0  0  0  0  0  0  0  0  0  0  0
   -2.5364    0.8224    3.4566 N   0  0  0  0  0  0  0  0  0  0  0  0
   -2.2570    1.3543    2.1156 C   0  0  2  0  0  0  0  0  0  0  0  0
   -0.7937    1.1197    1.6869 C   0  0  0  0  0  0  0  0  0  0  0  0
    0.0672    0.9649    2.5462 O   0  0  0  0  0  0  0  0  0  0  0  0
   -2.5796    2.8523    2.1093 C   0  0  0  0  0  0  0  0  0  0  0  0
   -1.7394    0.5939    4.0485 H   0  0  0  0  0  0  0  0  0  0  0  0
   -2.8942    0.8438    1.3841 H   0  0  0  0  0  0  0  0  0  0  0  0
   -1.9584    3.3807    2.8394 H   0  0  0  0  0  0  0  0  0  0  0  0
   -2.3995    3.2812    1.1190 H   0  0  0  0  0  0  0  0  0  0  0  0
   -3.6316    3.0140    2.3663 H   0  0  0  0  0  0  0  0  0  0  0  0
   -0.4670    1.1642    0.3374 N   0  0  0  0  0  0  0  0  0  0  0  0
    0.7071    0.5361   -0.3219 C   0  0  2  0  0  0  0  0  0  0  0  0
    0.4825   -0.9959   -0.4423 C   0  0  0  0  0  0  0  0  0  0  0  0
   -0.6329   -1.4677   -0.2670 O   0  0  0  0  0  0  0  0  0  0  0  0
    2.0611    0.8184    0.3831 C   0  0  0  0  0  0  0  0  0  0  0  0
    2.4002    2.2858    0.3576 C   0  0  0  0  0  0  0  0  0  0  0  0
    2.8615    3.0572   -0.7104 N   0  3  0  0  0  0  0  0  0  0  0  0
    2.3132    3.1036    1.4535 C   0  0  0  0  0  0  0  0  0  0  0  0
    3.0601    4.2938   -0.3191 C   0  0  0  0  0  0  0  0  0  0  0  0
    2.7231    4.3612    1.0319 N   0  0  0  0  0  0  0  0  0  0  0  0
   -1.2998    1.1978   -0.2492 H   0  0  0  0  0  0  0  0  0  0  0  0
    0.7696    0.9253   -1.3422 H   0  0  0  0  0  0  0  0  0  0  0  0
    2.8698    0.2940   -0.1341 H   0  0  0  0  0  0  0  0  0  0  0  0
    2.0700    0.4271    1.4042 H   0  0  0  0  0  0  0  0  0  0  0  0
    3.0326    2.6768   -1.6445 H   0  0  0  0  0  0  0  0  0  0  0  0
    1.9760    2.8010    2.4477 H   0  0  0  0  0  0  0  0  0  0  0  0
    3.4262    5.1180   -0.9344 H   0  0  0  0  0  0  0  0  0  0  0  0
    2.7762    5.1958    1.6238 H   0  0  0  0  0  0  0  0  0  0  0  0
    1.5289   -1.8512   -0.7322 N   0  0  0  0  0  0  0  0  0  0  0  0
    1.5591   -3.2471   -0.2752 C   0  0  2  0  0  0  0  0  0  0  0  0
    2.7075   -3.4222    0.7429 C   0  0  0  0  0  0  0  0  0  0  0  0
    3.5216   -2.5122    0.8888 O   0  0  0  0  0  0  0  0  0  0  0  0
    1.7558   -4.1463   -1.4977 C   0  0  0  0  0  0  0  0  0  0  0  0
    2.4492   -1.4172   -0.7417 H   0  0  0  0  0  0  0  0  0  0  0  0
    0.6240   -3.5248    0.2238 H   0  0  0  0  0  0  0  0  0  0  0  0
    2.6960   -3.9071   -2.0052 H   0  0  0  0  0  0  0  0  0  0  0  0
    1.7782   -5.1997   -1.2013 H   0  0  0  0  0  0  0  0  0  0  0  0
    0.9320   -4.0053   -2.2050 H   0  0  0  0  0  0  0  0  0  0  0  0
    2.8218   -4.5693    1.5041 N   0  0  0  0  0  0  0  0  0  0  0  0
    3.8682   -4.7669    2.5013 C   0  0  0  0  0  0  0  0  0  0  0  0
    2.1183   -5.2930    1.3818 H   0  0  0  0  0  0  0  0  0  0  0  0
    4.8590   -4.6700    2.0448 H   0  0  0  0  0  0  0  0  0  0  0  0
    3.7772   -4.0280    3.3043 H   0  0  0  0  0  0  0  0  0  0  0  0
    3.7891   -5.7658    2.9414 H   0  0  0  0  0  0  0  0  0  0  0  0
  1  2  2  0  0  0  0
  1  3  1  0  0  0  0
  1  7  1  0  0  0  0
  3  4  1  0  0  0  0
  3  5  1  0  0  0  0
  3  6  1  0  0  0  0
  7  8  1  0  0  0  0
  7 12  1  0  0  0  0
  8  9  1  0  0  0  0
  8 11  1  0  0  0  0
  8 13  1  0  0  0  0
  9 10  2  0  0  0  0
  9 17  1  0  0  0  0
 11 14  1  0  0  0  0
 11 15  1  0  0  0  0
 11 16  1  0  0  0  0
 17 18  1  0  0  0  0
 17 27  1  0  0  0  0
 18 19  1  0  0  0  0
 18 21  1  0  0  0  0
 18 28  1  0  0  0  0
 19 20  2  0  0  0  0
 19 35  1  0  0  0  0
 21 22  1  0  0  0  0
 21 29  1  0  0  0  0
 21 30  1  0  0  0  0
 22 23  1  0  0  0  0
 22 24  2  0  0  0  0
 23 25  2  0  0  0  0
 23 31  1  0  0  0  0
 24 26  1  0  0  0  0
 24 32  1  0  0  0  0
 25 26  1  0  0  0  0
 25 33  1  0  0  0  0
 26 34  1  0  0  0  0
 35 36  1  0  0  0  0
 35 40  1  0  0  0  0
 36 37  1  0  0  0  0
 36 39  1  0  0  0  0
 36 41  1  0  0  0  0
 37 38  2  0  0  0  0
 37 45  1  0  0  0  0
 39 42  1  0  0  0  0
 39 43  1  0  0  0  0
 39 44  1  0  0  0  0
 45 46  1  0  0  0  0
 45 47  1  0  0  0  0
 46 48  1  0  0  0  0
 46 49  1  0  0  0  0
 46 50  1  0  0  0  0
M  CHG  1  23   1
M  END
$$$$

  -OEChem-05262216443D

 50 50  0     1  0  0  0  0  0999 V2000
   -3.9568    0.4701    3.6910 C   0  0  0  0  0  0  0  0  0  0  0  0
   -4.8625    0.4694    2.8738 O   0  0  0  0  0  0  0  0  0  0  0  0
   -4.1965   -0.0496    5.0956 C   0  0  0  0  0  0  0  0  0  0  0  0
   -5.2346   -0.3771    5.2022 H   0  0  0  0  0  0  0  0  0  0  0  0
   -3.5383   -0.8975    5.2992 H   0  0  0  0  0  0  0  0  0  0  0  0
   -4.0008    0.7401    5.8249 H   0  0  0  0  0  0  0  0  0  0  0  0
   -2.7127    0.9455    3.3285 N   0  0  0  0  0  0  0  0  0  0  0  0
   -2.3585    1.3551    1.9621 C   0  0  2  0  0  0  0  0  0  0  0  0
   -0.8527    1.1858    1.6691 C   0  0  0  0  0  0  0  0  0  0  0  0
   -0.0560    1.1378    2.5995 O   0  0  0  0  0  0  0  0  0  0  0  0
   -2.7773    2.8166    1.7700 C   0  0  0  0  0  0  0  0  0  0  0  0
   -1.9570    0.8481    4.0046 H   0  0  0  0  0  0  0  0  0  0  0  0
   -2.9003    0.7269    1.2454 H   0  0  0  0  0  0  0  0  0  0  0  0
   -2.2592    3.4607    2.4875 H   0  0  0  0  0  0  0  0  0  0  0  0
   -2.5398    3.1557    0.7572 H   0  0  0  0  0  0  0  0  0  0  0  0
   -3.8564    2.9252    1.9221 H   0  0  0  0  0  0  0  0  0  0  0  0
   -0.4129    1.1460    0.3527 N   0  0  0  0  0  0  0  0  0  0  0  0
    0.8544    0.5525   -0.1417 C   0  0  2  0  0  0  0  0  0  0  0  0
    0.7228   -0.9929   -0.1362 C   0  0  0  0  0  0  0  0  0  0  0  0
   -0.3684   -1.4936   -0.3720 O   0  0  0  0  0  0  0  0  0  0  0  0
    2.1276    1.0203    0.6095 C   0  0  0  0  0  0  0  0  0  0  0  0
    2.3528    2.4992    0.4275 C   0  0  0  0  0  0  0  0  0  0  0  0
    2.8296    3.1729   -0.6986 N   0  3  0  0  0  0  0  0  0  0  0  0
    2.1204    3.4337    1.4027 C   0  0  0  0  0  0  0  0  0  0  0  0
    2.9016    4.4606   -0.4564 C   0  0  0  0  0  0  0  0  0  0  0  0
    2.4619    4.6620    0.8511 N   0  0  0  0  0  0  0  0  0  0  0  0
   -1.1879    1.0731   -0.3065 H   0  0  0  0  0  0  0  0  0  0  0  0
    0.9698    0.8408   -1.1907 H   0  0  0  0  0  0  0  0  0  0  0  0
    3.0037    0.5056    0.2033 H   0  0  0  0  0  0  0  0  0  0  0  0
    2.0905    0.7551    1.6696 H   0  0  0  0  0  0  0  0  0  0  0  0
    3.0940    2.6988   -1.5659 H   0  0  0  0  0  0  0  0  0  0  0  0
    1.7333    3.2272    2.4030 H   0  0  0  0  0  0  0  0  0  0  0  0
    3.2453    5.2328   -1.1476 H   0  0  0  0  0  0  0  0  0  0  0  0
    2.4039    5.5647    1.3324 H   0  0  0  0  0  0  0  0  0  0  0  0
    1.8077   -1.8273    0.0553 N   0  0  0  0  0  0  0  0  0  0  0  0
    1.7065   -3.2734    0.2899 C   0  0  2  0  0  0  0  0  0  0  0  0
    2.7867   -3.7134    1.3010 C   0  0  0  0  0  0  0  0  0  0  0  0
    3.6452   -2.9067    1.6492 O   0  0  0  0  0  0  0  0  0  0  0  0
    1.8712   -4.0004   -1.0485 C   0  0  0  0  0  0  0  0  0  0  0  0
    2.6615   -1.4045    0.4175 H   0  0  0  0  0  0  0  0  0  0  0  0
    0.7303   -3.5218    0.7213 H   0  0  0  0  0  0  0  0  0  0  0  0
    2.8466   -3.7746   -1.4914 H   0  0  0  0  0  0  0  0  0  0  0  0
    1.7941   -5.0833   -0.9112 H   0  0  0  0  0  0  0  0  0  0  0  0
    1.0895   -3.6867   -1.7480 H   0  0  0  0  0  0  0  0  0  0  0  0
    2.7865   -4.9865    1.8379 N   0  0  0  0  0  0  0  0  0  0  0  0
    3.7752   -5.4459    2.8072 C   0  0  0  0  0  0  0  0  0  0  0  0
    2.0560   -5.6277    1.5404 H   0  0  0  0  0  0  0  0  0  0  0  0
    4.7845   -5.3802    2.3866 H   0  0  0  0  0  0  0  0  0  0  0  0
    3.7324   -4.8382    3.7173 H   0  0  0  0  0  0  0  0  0  0  0  0
    3.5831   -6.4883    3.0800 H   0  0  0  0  0  0  0  0  0  0  0  0
  1  2  2  0  0  0  0
  1  3  1  0  0  0  0
  1  7  1  0  0  0  0
  3  4  1  0  0  0  0
  3  5  1  0  0  0  0
  3  6  1  0  0  0  0
  7  8  1  0  0  0  0
  7 12  1  0  0  0  0
  8  9  1  0  0  0  0
  8 11  1  0  0  0  0
  8 13  1  0  0  0  0
  9 10  2  0  0  0  0
  9 17  1  0  0  0  0
 11 14  1  0  0  0  0
 11 15  1  0  0  0  0
 11 16  1  0  0  0  0
 17 18  1  0  0  0  0
 17 27  1  0  0  0  0
 18 19  1  0  0  0  0
 18 21  1  0  0  0  0
 18 28  1  0  0  0  0
 19 20  2  0  0  0  0
 19 35  1  0  0  0  0
 21 22  1  0  0  0  0
 21 29  1  0  0  0  0
 21 30  1  0  0  0  0
 22 23  1  0  0  0  0
 22 24  2  0  0  0  0
 23 25  2  0  0  0  0
 23 31  1  0  0  0  0
 24 26  1  0  0  0  0
 24 32  1  0  0  0  0
 25 26  1  0  0  0  0
 25 33  1  0  0  0  0
 26 34  1  0  0  0  0
 35 36  1  0  0  0  0
 35 40  1  0  0  0  0
 36 37  1  0  0  0  0
 36 39  1  0  0  0  0
 36 41  1  0  0  0  0
 37 38  2  0  0  0  0
 37 45  1  0  0  0  0
 39 42  1  0  0  0  0
 39 43  1  0  0  0  0
 39 44  1  0  0  0  0
 45 46  1  0  0  0  0
 45 47  1  0  0  0  0
 46 48  1  0  0  0  0
 46 49  1  0  0  0  0
 46 50  1  0  0  0  0
M  CHG  1  23   1
M  END
$$$$

  -OEChem-05262216443D

 50 50  0     1  0  0  0  0  0999 V2000
   -2.1452   -0.9216    3.7467 C   0  0  0  0  0  0  0  0  0  0  0  0
   -2.8334   -1.5861    2.9885 O   0  0  0  0  0  0  0  0  0  0  0  0
   -1.7089   -1.4979    5.0797 C   0  0  0  0  0  0  0  0  0  0  0  0
   -2.1942   -2.4624    5.2505 H   0  0  0  0  0  0  0  0  0  0  0  0
   -0.6251   -1.6400    5.0840 H   0  0  0  0  0  0  0  0  0  0  0  0
   -1.9853   -0.8191    5.8898 H   0  0  0  0  0  0  0  0  0  0  0  0
   -1.7698    0.3619    3.4072 N   0  0  0  0  0  0  0  0  0  0  0  0
   -1.8911    0.9162    2.0517 C   0  0  2  0  0  0  0  0  0  0  0  0
   -0.5243    1.4149    1.5404 C   0  0  0  0  0  0  0  0  0  0  0  0
    0.3203    1.8028    2.3418 O   0  0  0  0  0  0  0  0  0  0  0  0
   -2.9146    2.0516    2.0891 C   0  0  0  0  0  0  0  0  0  0  0  0
   -1.0652    0.7846    4.0086 H   0  0  0  0  0  0  0  0  0  0  0  0
   -2.2405    0.1472    1.3534 H   0  0  0  0  0  0  0  0  0  0  0  0
   -2.5863    2.8440    2.7693 H   0  0  0  0  0  0  0  0  0  0  0  0
   -3.0509    2.4791    1.0913 H   0  0  0  0  0  0  0  0  0  0  0  0
   -3.8814    1.6728    2.4363 H   0  0  0  0  0  0  0  0  0  0  0  0
   -0.2386    1.4118    0.1824 N   0  0  0  0  0  0  0  0  0  0  0  0
    1.0077    0.8355   -0.3742 C   0  0  2  0  0  0  0  0  0  0  0  0
    0.8563   -0.7032   -0.3265 C   0  0  0  0  0  0  0  0  0  0  0  0
   -0.1840   -1.1744   -0.7657 O   0  0  0  0  0  0  0  0  0  0  0  0
    2.3335    1.3229    0.2589 C   0  0  0  0  0  0  0  0  0  0  0  0
    2.5315    2.7997    0.0222 C   0  0  0  0  0  0  0  0  0  0  0  0
    2.9093    3.4355   -1.1623 N   0  3  0  0  0  0  0  0  0  0  0  0
    2.3722    3.7701    0.9776 C   0  0  0  0  0  0  0  0  0  0  0  0
    2.9785    4.7327   -0.9773 C   0  0  0  0  0  0  0  0  0  0  0  0
    2.6483    4.9794    0.3539 N   0  0  0  0  0  0  0  0  0  0  0  0
   -1.0585    1.1301   -0.3572 H   0  0  0  0  0  0  0  0  0  0  0  0
    1.0460    1.0999   -1.4353 H   0  0  0  0  0  0  0  0  0  0  0  0
    3.1736    0.7919   -0.2002 H   0  0  0  0  0  0  0  0  0  0  0  0
    2.3707    1.0915    1.3276 H   0  0  0  0  0  0  0  0  0  0  0  0
    3.0897    2.9332   -2.0352 H   0  0  0  0  0  0  0  0  0  0  0  0
    2.0641    3.6028    2.0122 H   0  0  0  0  0  0  0  0  0  0  0  0
    3.2434    5.4815   -1.7264 H   0  0  0  0  0  0  0  0  0  0  0  0
    2.6008    5.8999    0.8008 H   0  0  0  0  0  0  0  0  0  0  0  0
    1.8526   -1.5549    0.1183 N   0  0  0  0  0  0  0  0  0  0  0  0
    1.5441   -2.9606    0.4271 C   0  0  2  0  0  0  0  0  0  0  0  0
    0.8585   -3.1182    1.8040 C   0  0  0  0  0  0  0  0  0  0  0  0
    0.9767   -2.2381    2.6525 O   0  0  0  0  0  0  0  0  0  0  0  0
    2.8567   -3.7470    0.3912 C   0  0  0  0  0  0  0  0  0  0  0  0
    2.5420   -1.1221    0.7257 H   0  0  0  0  0  0  0  0  0  0  0  0
    0.8747   -3.3763   -0.3344 H   0  0  0  0  0  0  0  0  0  0  0  0
    3.5472   -3.3793    1.1571 H   0  0  0  0  0  0  0  0  0  0  0  0
    2.6702   -4.8100    0.5755 H   0  0  0  0  0  0  0  0  0  0  0  0
    3.3340   -3.6469   -0.5888 H   0  0  0  0  0  0  0  0  0  0  0  0
    0.1567   -4.2727    2.0952 N   0  0  0  0  0  0  0  0  0  0  0  0
   -0.5851   -4.4783    3.3334 C   0  0  0  0  0  0  0  0  0  0  0  0
   -0.0050   -4.9204    1.3292 H   0  0  0  0  0  0  0  0  0  0  0  0
   -0.0075   -4.1362    4.1988 H   0  0  0  0  0  0  0  0  0  0  0  0
   -1.5340   -3.9349    3.3023 H   0  0  0  0  0  0  0  0  0  0  0  0
   -0.8004   -5.5424    3.4705 H   0  0  0  0  0  0  0  0  0  0  0  0
  1  2  2  0  0  0  0
  1  3  1  0  0  0  0
  1  7  1  0  0  0  0
  3  4  1  0  0  0  0
  3  5  1  0  0  0  0
  3  6  1  0  0  0  0
  7  8  1  0  0  0  0
  7 12  1  0  0  0  0
  8  9  1  0  0  0  0
  8 11  1  0  0  0  0
  8 13  1  0  0  0  0
  9 10  2  0  0  0  0
  9 17  1  0  0  0  0
 11 14  1  0  0  0  0
 11 15  1  0  0  0  0
 11 16  1  0  0  0  0
 17 18  1  0  0  0  0
 17 27  1  0  0  0  0
 18 19  1  0  0  0  0
 18 21  1  0  0  0  0
 18 28  1  0  0  0  0
 19 20  2  0  0  0  0
 19 35  1  0  0  0  0
 21 22  1  0  0  0  0
 21 29  1  0  0  0  0
 21 30  1  0  0  0  0
 22 23  1  0  0  0  0
 22 24  2  0  0  0  0
 23 25  2  0  0  0  0
 23 31  1  0  0  0  0
 24 26  1  0  0  0  0
 24 32  1  0  0  0  0
 25 26  1  0  0  0  0
 25 33  1  0  0  0  0
 26 34  1  0  0  0  0
 35 36  1  0  0  0  0
 35 40  1  0  0  0  0
 36 37  1  0  0  0  0
 36 39  1  0  0  0  0
 36 41  1  0  0  0  0
 37 38  2  0  0  0  0
 37 45  1  0  0  0  0
 39 42  1  0  0  0  0
 39 43  1  0  0  0  0
 39 44  1  0  0  0  0
 45 46  1  0  0  0  0
 45 47  1  0  0  0  0
 46 48  1  0  0  0  0
 46 49  1  0  0  0  0
 46 50  1  0  0  0  0
M  CHG  1  23   1
M  END
$$$$

  -OEChem-05262216443D

 50 50  0     1  0  0  0  0  0999 V2000
   -2.3986   -0.8118    3.9362 C   0  0  0  0  0  0  0  0  0  0  0  0
   -3.3418   -1.2251    3.2796 O   0  0  0  0  0  0  0  0  0  0  0  0
   -2.0140   -1.4965    5.2333 C   0  0  0  0  0  0  0  0  0  0  0  0
   -2.6617   -2.3592    5.4107 H   0  0  0  0  0  0  0  0  0  0  0  0
   -0.9772   -1.8382    5.1798 H   0  0  0  0  0  0  0  0  0  0  0  0
   -2.1184   -0.7993    6.0678 H   0  0  0  0  0  0  0  0  0  0  0  0
   -1.6842    0.2867    3.5083 N   0  0  0  0  0  0  0  0  0  0  0  0
   -1.8063    0.8597    2.1625 C   0  0  2  0  0  0  0  0  0  0  0  0
   -0.4231    1.2536    1.6069 C   0  0  0  0  0  0  0  0  0  0  0  0
    0.4748    1.5740    2.3793 O   0  0  0  0  0  0  0  0  0  0  0  0
   -2.7377    2.0713    2.2317 C   0  0  0  0  0  0  0  0  0  0  0  0
   -0.8059    0.4567    3.9963 H   0  0  0  0  0  0  0  0  0  0  0  0
   -2.2330    0.1165    1.4792 H   0  0  0  0  0  0  0  0  0  0  0  0
   -2.3303    2.8307    2.9066 H   0  0  0  0  0  0  0  0  0  0  0  0
   -2.8657    2.5148    1.2399 H   0  0  0  0  0  0  0  0  0  0  0  0
   -3.7222    1.7678    2.6027 H   0  0  0  0  0  0  0  0  0  0  0  0
   -0.1852    1.2298    0.2394 N   0  0  0  0  0  0  0  0  0  0  0  0
    1.0682    0.7274   -0.3684 C   0  0  2  0  0  0  0  0  0  0  0  0
    1.0161   -0.8134   -0.2774 C   0  0  0  0  0  0  0  0  0  0  0  0
    0.0956   -1.3781   -0.8519 O   0  0  0  0  0  0  0  0  0  0  0  0
    2.3916    1.3089    0.1834 C   0  0  0  0  0  0  0  0  0  0  0  0
    2.4758    2.7892   -0.0898 C   0  0  0  0  0  0  0  0  0  0  0  0
    2.7442    3.4324   -1.2997 N   0  3  0  0  0  0  0  0  0  0  0  0
    2.2870    3.7584    0.8612 C   0  0  0  0  0  0  0  0  0  0  0  0
    2.7222    4.7337   -1.1330 C   0  0  0  0  0  0  0  0  0  0  0  0
    2.4411    4.9752    0.2107 N   0  0  0  0  0  0  0  0  0  0  0  0
   -1.0177    0.9494   -0.2805 H   0  0  0  0  0  0  0  0  0  0  0  0
    1.0353    0.9689   -1.4352 H   0  0  0  0  0  0  0  0  0  0  0  0
    3.2354    0.8186   -0.3138 H   0  0  0  0  0  0  0  0  0  0  0  0
    2.5086    1.1058    1.2510 H   0  0  0  0  0  0  0  0  0  0  0  0
    2.9134    2.9316   -2.1756 H   0  0  0  0  0  0  0  0  0  0  0  0
    2.0393    3.5832    1.9110 H   0  0  0  0  0  0  0  0  0  0  0  0
    2.8891    5.4894   -1.9032 H   0  0  0  0  0  0  0  0  0  0  0  0
    2.3472    5.8965    0.6489 H   0  0  0  0  0  0  0  0  0  0  0  0
    1.9548   -1.5651    0.4079 N   0  0  0  0  0  0  0  0  0  0  0  0
    1.6535   -2.9608    0.7642 C   0  0  2  0  0  0  0  0  0  0  0  0
    0.6054   -3.0585    1.8978 C   0  0  0  0  0  0  0  0  0  0  0  0
    0.5125   -2.1588    2.7287 O   0  0  0  0  0  0  0  0  0  0  0  0
    2.9599   -3.6343    1.1898 C   0  0  0  0  0  0  0  0  0  0  0  0
    2.4860   -1.0459    1.1014 H   0  0  0  0  0  0  0  0  0  0  0  0
    1.2609   -3.4904   -0.1111 H   0  0  0  0  0  0  0  0  0  0  0  0
    3.3735   -3.1452    2.0779 H   0  0  0  0  0  0  0  0  0  0  0  0
    2.7858   -4.6890    1.4261 H   0  0  0  0  0  0  0  0  0  0  0  0
    3.6976   -3.5797    0.3832 H   0  0  0  0  0  0  0  0  0  0  0  0
   -0.2160   -4.1662    1.9876 N   0  0  0  0  0  0  0  0  0  0  0  0
   -1.2998   -4.2875    2.9556 C   0  0  0  0  0  0  0  0  0  0  0  0
   -0.1824   -4.8314    1.2201 H   0  0  0  0  0  0  0  0  0  0  0  0
   -0.9353   -4.1015    3.9710 H   0  0  0  0  0  0  0  0  0  0  0  0
   -2.0977   -3.5739    2.7275 H   0  0  0  0  0  0  0  0  0  0  0  0
   -1.7214   -5.2969    2.9262 H   0  0  0  0  0  0  0  0  0  0  0  0
  1  2  2  0  0  0  0
  1  3  1  0  0  0  0
  1  7  1  0  0  0  0
  3  4  1  0  0  0  0
  3  5  1  0  0  0  0
  3  6  1  0  0  0  0
  7  8  1  0  0  0  0
  7 12  1  0  0  0  0
  8  9  1  0  0  0  0
  8 11  1  0  0  0  0
  8 13  1  0  0  0  0
  9 10  2  0  0  0  0
  9 17  1  0  0  0  0
 11 14  1  0  0  0  0
 11 15  1  0  0  0  0
 11 16  1  0  0  0  0
 17 18  1  0  0  0  0
 17 27  1  0  0  0  0
 18 19  1  0  0  0  0
 18 21  1  0  0  0  0
 18 28  1  0  0  0  0
 19 20  2  0  0  0  0
 19 35  1  0  0  0  0
 21 22  1  0  0  0  0
 21 29  1  0  0  0  0
 21 30  1  0  0  0  0
 22 23  1  0  0  0  0
 22 24  2  0  0  0  0
 23 25  2  0  0  0  0
 23 31  1  0  0  0  0
 24 26  1  0  0  0  0
 24 32  1  0  0  0  0
 25 26  1  0  0  0  0
 25 33  1  0  0  0  0
 26 34  1  0  0  0  0
 35 36  1  0  0  0  0
 35 40  1  0  0  0  0
 36 37  1  0  0  0  0
 36 39  1  0  0  0  0
 36 41  1  0  0  0  0
 37 38  2  0  0  0  0
 37 45  1  0  0  0  0
 39 42  1  0  0  0  0
 39 43  1  0  0  0  0
 39 44  1  0  0  0  0
 45 46  1  0  0  0  0
 45 47  1  0  0  0  0
 46 48  1  0  0  0  0
 46 49  1  0  0  0  0
 46 50  1  0  0  0  0
M  CHG  1  23   1
M  END
$$$$

  -OEChem-05262216443D

 50 50  0     1  0  0  0  0  0999 V2000
   -0.6205    0.0067    4.0494 C   0  0  0  0  0  0  0  0  0  0  0  0
    0.4776    0.0560    3.5064 O   0  0  0  0  0  0  0  0  0  0  0  0
   -0.7148   -0.4030    5.5059 C   0  0  0  0  0  0  0  0  0  0  0  0
   -1.1620    0.4025    6.0932 H   0  0  0  0  0  0  0  0  0  0  0  0
   -1.3313   -1.3008    5.5992 H   0  0  0  0  0  0  0  0  0  0  0  0
    0.2808   -0.6189    5.9028 H   0  0  0  0  0  0  0  0  0  0  0  0
   -1.7771    0.3193    3.3588 N   0  0  0  0  0  0  0  0  0  0  0  0
   -1.8520    0.4635    1.8958 C   0  0  2  0  0  0  0  0  0  0  0  0
   -0.8939    1.5215    1.2995 C   0  0  0  0  0  0  0  0  0  0  0  0
   -0.5681    2.5227    1.9262 O   0  0  0  0  0  0  0  0  0  0  0  0
   -3.2974    0.8238    1.5466 C   0  0  0  0  0  0  0  0  0  0  0  0
   -2.6445    0.1560    3.8607 H   0  0  0  0  0  0  0  0  0  0  0  0
   -1.6135   -0.5018    1.4387 H   0  0  0  0  0  0  0  0  0  0  0  0
   -3.5722    1.7839    1.9962 H   0  0  0  0  0  0  0  0  0  0  0  0
   -3.4233    0.8991    0.4620 H   0  0  0  0  0  0  0  0  0  0  0  0
   -3.9821    0.0547    1.9181 H   0  0  0  0  0  0  0  0  0  0  0  0
   -0.3515    1.3655    0.0339 N   0  0  0  0  0  0  0  0  0  0  0  0
    0.9976    0.7800   -0.1137 C   0  0  2  0  0  0  0  0  0  0  0  0
    0.9583   -0.7492    0.1147 C   0  0  0  0  0  0  0  0  0  0  0  0
    0.5341   -1.4361   -0.8034 O   0  0  0  0  0  0  0  0  0  0  0  0
    2.0929    1.4682    0.7357 C   0  0  0  0  0  0  0  0  0  0  0  0
    2.3049    2.9014    0.3083 C   0  0  0  0  0  0  0  0  0  0  0  0
    2.9660    3.3524   -0.8357 N   0  3  0  0  0  0  0  0  0  0  0  0
    1.9061    4.0086    1.0122 C   0  0  0  0  0  0  0  0  0  0  0  0
    2.9658    4.6639   -0.8736 C   0  0  0  0  0  0  0  0  0  0  0  0
    2.3100    5.1101    0.2716 N   0  0  0  0  0  0  0  0  0  0  0  0
   -1.0118    0.8855   -0.5770 H   0  0  0  0  0  0  0  0  0  0  0  0
    1.2869    0.9097   -1.1612 H   0  0  0  0  0  0  0  0  0  0  0  0
    3.0368    0.9226    0.6329 H   0  0  0  0  0  0  0  0  0  0  0  0
    1.8253    1.4392    1.7966 H   0  0  0  0  0  0  0  0  0  0  0  0
    3.3617    2.7210   -1.5364 H   0  0  0  0  0  0  0  0  0  0  0  0
    1.3539    4.0038    1.9546 H   0  0  0  0  0  0  0  0  0  0  0  0
    3.3956    5.2907   -1.6570 H   0  0  0  0  0  0  0  0  0  0  0  0
    2.1294    6.0867    0.5211 H   0  0  0  0  0  0  0  0  0  0  0  0
    1.4149   -1.3715    1.2606 N   0  0  0  0  0  0  0  0  0  0  0  0
    1.3223   -2.8288    1.4432 C   0  0  2  0  0  0  0  0  0  0  0  0
   -0.1106   -3.3304    1.7380 C   0  0  0  0  0  0  0  0  0  0  0  0
   -0.8433   -2.7243    2.5114 O   0  0  0  0  0  0  0  0  0  0  0  0
    2.2549   -3.2072    2.5957 C   0  0  0  0  0  0  0  0  0  0  0  0
    1.3604   -0.8046    2.1138 H   0  0  0  0  0  0  0  0  0  0  0  0
    1.6755   -3.3293    0.5354 H   0  0  0  0  0  0  0  0  0  0  0  0
    1.9307   -2.7254    3.5245 H   0  0  0  0  0  0  0  0  0  0  0  0
    2.2522   -4.2912    2.7484 H   0  0  0  0  0  0  0  0  0  0  0  0
    3.2798   -2.8918    2.3774 H   0  0  0  0  0  0  0  0  0  0  0  0
   -0.5679   -4.5035    1.1681 N   0  0  0  0  0  0  0  0  0  0  0  0
   -1.9094   -5.0318    1.3891 C   0  0  0  0  0  0  0  0  0  0  0  0
    0.0216   -4.9447    0.4678 H   0  0  0  0  0  0  0  0  0  0  0  0
   -2.0945   -5.1747    2.4591 H   0  0  0  0  0  0  0  0  0  0  0  0
   -2.6624   -4.3445    0.9898 H   0  0  0  0  0  0  0  0  0  0  0  0
   -2.0228   -5.9989    0.8897 H   0  0  0  0  0  0  0  0  0  0  0  0
  1  2  2  0  0  0  0
  1  3  1  0  0  0  0
  1  7  1  0  0  0  0
  3  4  1  0  0  0  0
  3  5  1  0  0  0  0
  3  6  1  0  0  0  0
  7  8  1  0  0  0  0
  7 12  1  0  0  0  0
  8  9  1  0  0  0  0
  8 11  1  0  0  0  0
  8 13  1  0  0  0  0
  9 10  2  0  0  0  0
  9 17  1  0  0  0  0
 11 14  1  0  0  0  0
 11 15  1  0  0  0  0
 11 16  1  0  0  0  0
 17 18  1  0  0  0  0
 17 27  1  0  0  0  0
 18 19  1  0  0  0  0
 18 21  1  0  0  0  0
 18 28  1  0  0  0  0
 19 20  2  0  0  0  0
 19 35  1  0  0  0  0
 21 22  1  0  0  0  0
 21 29  1  0  0  0  0
 21 30  1  0  0  0  0
 22 23  1  0  0  0  0
 22 24  2  0  0  0  0
 23 25  2  0  0  0  0
 23 31  1  0  0  0  0
 24 26  1  0  0  0  0
 24 32  1  0  0  0  0
 25 26  1  0  0  0  0
 25 33  1  0  0  0  0
 26 34  1  0  0  0  0
 35 36  1  0  0  0  0
 35 40  1  0  0  0  0
 36 37  1  0  0  0  0
 36 39  1  0  0  0  0
 36 41  1  0  0  0  0
 37 38  2  0  0  0  0
 37 45  1  0  0  0  0
 39 42  1  0  0  0  0
 39 43  1  0  0  0  0
 39 44  1  0  0  0  0
 45 46  1  0  0  0  0
 45 47  1  0  0  0  0
 46 48  1  0  0  0  0
 46 49  1  0  0  0  0
 46 50  1  0  0  0  0
M  CHG  1  23   1
M  END
$$$$

  -OEChem-05262216443D

 50 50  0     1  0  0  0  0  0999 V2000
   -0.8393   -0.0193    4.1512 C   0  0  0  0  0  0  0  0  0  0  0  0
    0.2597   -0.1239    3.6205 O   0  0  0  0  0  0  0  0  0  0  0  0
   -1.0083   -0.4392    5.5982 C   0  0  0  0  0  0  0  0  0  0  0  0
   -1.7039   -1.2799    5.6614 H   0  0  0  0  0  0  0  0  0  0  0  0
   -0.0465   -0.7464    6.0178 H   0  0  0  0  0  0  0  0  0  0  0  0
   -1.3984    0.3945    6.1868 H   0  0  0  0  0  0  0  0  0  0  0  0
   -1.9288    0.4810    3.4613 N   0  0  0  0  0  0  0  0  0  0  0  0
   -1.9706    0.6968    2.0045 C   0  0  2  0  0  0  0  0  0  0  0  0
   -0.8093    1.5428    1.4324 C   0  0  0  0  0  0  0  0  0  0  0  0
   -0.2862    2.4373    2.0865 O   0  0  0  0  0  0  0  0  0  0  0  0
   -3.3031    1.3807    1.6900 C   0  0  0  0  0  0  0  0  0  0  0  0
   -2.8130    0.4591    3.9602 H   0  0  0  0  0  0  0  0  0  0  0  0
   -1.9487   -0.2762    1.5055 H   0  0  0  0  0  0  0  0  0  0  0  0
   -3.3595    2.3556    2.1861 H   0  0  0  0  0  0  0  0  0  0  0  0
   -3.4122    1.5331    0.6118 H   0  0  0  0  0  0  0  0  0  0  0  0
   -4.1391    0.7639    2.0347 H   0  0  0  0  0  0  0  0  0  0  0  0
   -0.3598    1.3585    0.1338 N   0  0  0  0  0  0  0  0  0  0  0  0
    0.9482    0.7209   -0.1358 C   0  0  2  0  0  0  0  0  0  0  0  0
    0.8989   -0.8084    0.0821 C   0  0  0  0  0  0  0  0  0  0  0  0
    0.6683   -1.5030   -0.8968 O   0  0  0  0  0  0  0  0  0  0  0  0
    2.1444    1.3358    0.6272 C   0  0  0  0  0  0  0  0  0  0  0  0
    2.3903    2.7670    0.2123 C   0  0  0  0  0  0  0  0  0  0  0  0
    2.9732    3.2054   -0.9781 N   0  3  0  0  0  0  0  0  0  0  0  0
    2.1202    3.8785    0.9680 C   0  0  0  0  0  0  0  0  0  0  0  0
    3.0454    4.5152   -0.9938 C   0  0  0  0  0  0  0  0  0  0  0  0
    2.5196    4.9719    0.2129 N   0  0  0  0  0  0  0  0  0  0  0  0
   -1.0914    0.9438   -0.4421 H   0  0  0  0  0  0  0  0  0  0  0  0
    1.1507    0.8617   -1.2025 H   0  0  0  0  0  0  0  0  0  0  0  0
    3.0471    0.7477    0.4303 H   0  0  0  0  0  0  0  0  0  0  0  0
    1.9674    1.2859    1.7077 H   0  0  0  0  0  0  0  0  0  0  0  0
    3.2698    2.5678   -1.7211 H   0  0  0  0  0  0  0  0  0  0  0  0
    1.6573    3.8822    1.9570 H   0  0  0  0  0  0  0  0  0  0  0  0
    3.4408    5.1334   -1.8016 H   0  0  0  0  0  0  0  0  0  0  0  0
    2.4209    5.9514    0.4952 H   0  0  0  0  0  0  0  0  0  0  0  0
    1.1709   -1.4207    1.2900 N   0  0  0  0  0  0  0  0  0  0  0  0
    1.0290   -2.8728    1.4799 C   0  0  2  0  0  0  0  0  0  0  0  0
   -0.4377   -3.3393    1.6307 C   0  0  0  0  0  0  0  0  0  0  0  0
   -1.2834   -2.6134    2.1416 O   0  0  0  0  0  0  0  0  0  0  0  0
    1.8294   -3.2529    2.7277 C   0  0  0  0  0  0  0  0  0  0  0  0
    1.0391   -0.8398    2.1250 H   0  0  0  0  0  0  0  0  0  0  0  0
    1.4612   -3.3949    0.6197 H   0  0  0  0  0  0  0  0  0  0  0  0
    1.4231   -2.7493    3.6112 H   0  0  0  0  0  0  0  0  0  0  0  0
    1.7870   -4.3337    2.8949 H   0  0  0  0  0  0  0  0  0  0  0  0
    2.8780   -2.9616    2.6124 H   0  0  0  0  0  0  0  0  0  0  0  0
   -0.8069   -4.6073    1.2218 N   0  0  0  0  0  0  0  0  0  0  0  0
   -2.1741   -5.1095    1.3015 C   0  0  0  0  0  0  0  0  0  0  0  0
   -0.1074   -5.1694    0.7453 H   0  0  0  0  0  0  0  0  0  0  0  0
   -2.5309   -5.0905    2.3367 H   0  0  0  0  0  0  0  0  0  0  0  0
   -2.8432   -4.4985    0.6865 H   0  0  0  0  0  0  0  0  0  0  0  0
   -2.2204   -6.1419    0.9413 H   0  0  0  0  0  0  0  0  0  0  0  0
  1  2  2  0  0  0  0
  1  3  1  0  0  0  0
  1  7  1  0  0  0  0
  3  4  1  0  0  0  0
  3  5  1  0  0  0  0
  3  6  1  0  0  0  0
  7  8  1  0  0  0  0
  7 12  1  0  0  0  0
  8  9  1  0  0  0  0
  8 11  1  0  0  0  0
  8 13  1  0  0  0  0
  9 10  2  0  0  0  0
  9 17  1  0  0  0  0
 11 14  1  0  0  0  0
 11 15  1  0  0  0  0
 11 16  1  0  0  0  0
 17 18  1  0  0  0  0
 17 27  1  0  0  0  0
 18 19  1  0  0  0  0
 18 21  1  0  0  0  0
 18 28  1  0  0  0  0
 19 20  2  0  0  0  0
 19 35  1  0  0  0  0
 21 22  1  0  0  0  0
 21 29  1  0  0  0  0
 21 30  1  0  0  0  0
 22 23  1  0  0  0  0
 22 24  2  0  0  0  0
 23 25  2  0  0  0  0
 23 31  1  0  0  0  0
 24 26  1  0  0  0  0
 24 32  1  0  0  0  0
 25 26  1  0  0  0  0
 25 33  1  0  0  0  0
 26 34  1  0  0  0  0
 35 36  1  0  0  0  0
 35 40  1  0  0  0  0
 36 37  1  0  0  0  0
 36 39  1  0  0  0  0
 36 41  1  0  0  0  0
 37 38  2  0  0  0  0
 37 45  1  0  0  0  0
 39 42  1  0  0  0  0
 39 43  1  0  0  0  0
 39 44  1  0  0  0  0
 45 46  1  0  0  0  0
 45 47  1  0  0  0  0
 46 48  1  0  0  0  0
 46 49  1  0  0  0  0
 46 50  1  0  0  0  0
M  CHG  1  23   1
M  END
$$$$

  -OEChem-05262216443D

 50 50  0     1  0  0  0  0  0999 V2000
   -1.2736   -0.1252    4.2657 C   0  0  0  0  0  0  0  0  0  0  0  0
   -0.3027   -0.6340    3.7232 O   0  0  0  0  0  0  0  0  0  0  0  0
   -1.4818   -0.3036    5.7571 C   0  0  0  0  0  0  0  0  0  0  0  0
   -2.4310   -0.8122    5.9432 H   0  0  0  0  0  0  0  0  0  0  0  0
   -0.6721   -0.9042    6.1811 H   0  0  0  0  0  0  0  0  0  0  0  0
   -1.4932    0.6703    6.2525 H   0  0  0  0  0  0  0  0  0  0  0  0
   -2.1694    0.6310    3.5342 N   0  0  0  0  0  0  0  0  0  0  0  0
   -2.0924    0.8112    2.0752 C   0  0  2  0  0  0  0  0  0  0  0  0
   -0.7471    1.3947    1.5770 C   0  0  0  0  0  0  0  0  0  0  0  0
   -0.0425    2.0744    2.3157 O   0  0  0  0  0  0  0  0  0  0  0  0
   -3.2458    1.7293    1.6642 C   0  0  0  0  0  0  0  0  0  0  0  0
   -2.9546    1.0328    4.0373 H   0  0  0  0  0  0  0  0  0  0  0  0
   -2.2334   -0.1621    1.5965 H   0  0  0  0  0  0  0  0  0  0  0  0
   -3.1391    2.7132    2.1325 H   0  0  0  0  0  0  0  0  0  0  0  0
   -3.2632    1.8608    0.5778 H   0  0  0  0  0  0  0  0  0  0  0  0
   -4.2037    1.2972    1.9709 H   0  0  0  0  0  0  0  0  0  0  0  0
   -0.3414    1.2316    0.2601 N   0  0  0  0  0  0  0  0  0  0  0  0
    0.9752    0.6605   -0.1101 C   0  0  2  0  0  0  0  0  0  0  0  0
    1.0092   -0.8688    0.0854 C   0  0  0  0  0  0  0  0  0  0  0  0
    1.1037   -1.5469   -0.9282 O   0  0  0  0  0  0  0  0  0  0  0  0
    2.2148    1.2808    0.5699 C   0  0  0  0  0  0  0  0  0  0  0  0
    2.3892    2.7270    0.1805 C   0  0  0  0  0  0  0  0  0  0  0  0
    2.8588    3.2162   -1.0391 N   0  3  0  0  0  0  0  0  0  0  0  0
    2.1389    3.8047    0.9890 C   0  0  0  0  0  0  0  0  0  0  0  0
    2.8928    4.5273   -1.0178 C   0  0  0  0  0  0  0  0  0  0  0  0
    2.4479    4.9317    0.2397 N   0  0  0  0  0  0  0  0  0  0  0  0
   -1.0964    0.8480   -0.3078 H   0  0  0  0  0  0  0  0  0  0  0  0
    1.0897    0.8303   -1.1857 H   0  0  0  0  0  0  0  0  0  0  0  0
    3.1085    0.7242    0.2676 H   0  0  0  0  0  0  0  0  0  0  0  0
    2.1463    1.1830    1.6581 H   0  0  0  0  0  0  0  0  0  0  0  0
    3.1190    2.6083   -1.8200 H   0  0  0  0  0  0  0  0  0  0  0  0
    1.7516    3.7600    2.0089 H   0  0  0  0  0  0  0  0  0  0  0  0
    3.2092    5.1806   -1.8327 H   0  0  0  0  0  0  0  0  0  0  0  0
    2.3512    5.8992    0.5613 H   0  0  0  0  0  0  0  0  0  0  0  0
    1.0945   -1.4820    1.3231 N   0  0  0  0  0  0  0  0  0  0  0  0
    0.8965   -2.9364    1.4416 C   0  0  2  0  0  0  0  0  0  0  0  0
   -0.5881   -3.3554    1.2970 C   0  0  0  0  0  0  0  0  0  0  0  0
   -1.4845   -2.5187    1.2346 O   0  0  0  0  0  0  0  0  0  0  0  0
    1.4639   -3.3859    2.7913 C   0  0  0  0  0  0  0  0  0  0  0  0
    0.7648   -0.9264    2.1198 H   0  0  0  0  0  0  0  0  0  0  0  0
    1.4613   -3.4469    0.6542 H   0  0  0  0  0  0  0  0  0  0  0  0
    0.8825   -2.9635    3.6160 H   0  0  0  0  0  0  0  0  0  0  0  0
    1.4367   -4.4764    2.8746 H   0  0  0  0  0  0  0  0  0  0  0  0
    2.5031   -3.0587    2.8949 H   0  0  0  0  0  0  0  0  0  0  0  0
   -0.9233   -4.6931    1.1919 N   0  0  0  0  0  0  0  0  0  0  0  0
   -2.2865   -5.1627    0.9698 C   0  0  0  0  0  0  0  0  0  0  0  0
   -0.1640   -5.3675    1.1728 H   0  0  0  0  0  0  0  0  0  0  0  0
   -2.9471   -4.8202    1.7734 H   0  0  0  0  0  0  0  0  0  0  0  0
   -2.6707   -4.7880    0.0150 H   0  0  0  0  0  0  0  0  0  0  0  0
   -2.3114   -6.2566    0.9472 H   0  0  0  0  0  0  0  0  0  0  0  0
  1  2  2  0  0  0  0
  1  3  1  0  0  0  0
  1  7  1  0  0  0  0
  3  4  1  0  0  0  0
  3  5  1  0  0  0  0
  3  6  1  0  0  0  0
  7  8  1  0  0  0  0
  7 12  1  0  0  0  0
  8  9  1  0  0  0  0
  8 11  1  0  0  0  0
  8 13  1  0  0  0  0
  9 10  2  0  0  0  0
  9 17  1  0  0  0  0
 11 14  1  0  0  0  0
 11 15  1  0  0  0  0
 11 16  1  0  0  0  0
 17 18  1  0  0  0  0
 17 27  1  0  0  0  0
 18 19  1  0  0  0  0
 18 21  1  0  0  0  0
 18 28  1  0  0  0  0
 19 20  2  0  0  0  0
 19 35  1  0  0  0  0
 21 22  1  0  0  0  0
 21 29  1  0  0  0  0
 21 30  1  0  0  0  0
 22 23  1  0  0  0  0
 22 24  2  0  0  0  0
 23 25  2  0  0  0  0
 23 31  1  0  0  0  0
 24 26  1  0  0  0  0
 24 32  1  0  0  0  0
 25 26  1  0  0  0  0
 25 33  1  0  0  0  0
 26 34  1  0  0  0  0
 35 36  1  0  0  0  0
 35 40  1  0  0  0  0
 36 37  1  0  0  0  0
 36 39  1  0  0  0  0
 36 41  1  0  0  0  0
 37 38  2  0  0  0  0
 37 45  1  0  0  0  0
 39 42  1  0  0  0  0
 39 43  1  0  0  0  0
 39 44  1  0  0  0  0
 45 46  1  0  0  0  0
 45 47  1  0  0  0  0
 46 48  1  0  0  0  0
 46 49  1  0  0  0  0
 46 50  1  0  0  0  0
M  CHG  1  23   1
M  END
$$$$

  -OEChem-05262216443D

 50 50  0     1  0  0  0  0  0999 V2000
   -1.6034   -0.2467    4.1902 C   0  0  0  0  0  0  0  0  0  0  0  0
   -0.7249   -0.9167    3.6674 O   0  0  0  0  0  0  0  0  0  0  0  0
   -1.8563   -0.3592    5.6811 C   0  0  0  0  0  0  0  0  0  0  0  0
   -2.8799   -0.6957    5.8627 H   0  0  0  0  0  0  0  0  0  0  0  0
   -1.1648   -1.0798    6.1269 H   0  0  0  0  0  0  0  0  0  0  0  0
   -1.7080    0.6120    6.1595 H   0  0  0  0  0  0  0  0  0  0  0  0
   -2.3455    0.6345    3.4285 N   0  0  0  0  0  0  0  0  0  0  0  0
   -2.1517    0.8169    1.9814 C   0  0  2  0  0  0  0  0  0  0  0  0
   -0.7168    1.2484    1.5871 C   0  0  0  0  0  0  0  0  0  0  0  0
    0.0101    1.8175    2.3943 O   0  0  0  0  0  0  0  0  0  0  0  0
   -3.1642    1.8624    1.5077 C   0  0  0  0  0  0  0  0  0  0  0  0
   -3.0377    1.2000    3.9102 H   0  0  0  0  0  0  0  0  0  0  0  0
   -2.3681   -0.1316    1.4802 H   0  0  0  0  0  0  0  0  0  0  0  0
   -2.9768    2.8261    1.9923 H   0  0  0  0  0  0  0  0  0  0  0  0
   -3.0958    1.9984    0.4240 H   0  0  0  0  0  0  0  0  0  0  0  0
   -4.1830    1.5412    1.7477 H   0  0  0  0  0  0  0  0  0  0  0  0
   -0.2629    1.0871    0.2858 N   0  0  0  0  0  0  0  0  0  0  0  0
    1.0890    0.5966   -0.0785 C   0  0  2  0  0  0  0  0  0  0  0  0
    1.2246   -0.9243    0.1277 C   0  0  0  0  0  0  0  0  0  0  0  0
    1.5892   -1.5754   -0.8416 O   0  0  0  0  0  0  0  0  0  0  0  0
    2.2888    1.2834    0.6070 C   0  0  0  0  0  0  0  0  0  0  0  0
    2.3753    2.7366    0.2201 C   0  0  0  0  0  0  0  0  0  0  0  0
    2.8157    3.2574   -0.9967 N   0  3  0  0  0  0  0  0  0  0  0  0
    2.0442    3.7919    1.0286 C   0  0  0  0  0  0  0  0  0  0  0  0
    2.7633    4.5679   -0.9716 C   0  0  0  0  0  0  0  0  0  0  0  0
    2.2831    4.9390    0.2834 N   0  0  0  0  0  0  0  0  0  0  0  0
   -0.9938    0.6994   -0.3109 H   0  0  0  0  0  0  0  0  0  0  0  0
    1.1956    0.7689   -1.1544 H   0  0  0  0  0  0  0  0  0  0  0  0
    3.2137    0.7834    0.2985 H   0  0  0  0  0  0  0  0  0  0  0  0
    2.2340    1.1722    1.6942 H   0  0  0  0  0  0  0  0  0  0  0  0
    3.1250    2.6692   -1.7753 H   0  0  0  0  0  0  0  0  0  0  0  0
    1.6525    3.7167    2.0452 H   0  0  0  0  0  0  0  0  0  0  0  0
    3.0431    5.2428   -1.7824 H   0  0  0  0  0  0  0  0  0  0  0  0
    2.1243    5.8977    0.6067 H   0  0  0  0  0  0  0  0  0  0  0  0
    1.0509   -1.5515    1.3500 N   0  0  0  0  0  0  0  0  0  0  0  0
    0.7537   -2.9937    1.3892 C   0  0  2  0  0  0  0  0  0  0  0  0
   -0.7395   -3.2861    1.0922 C   0  0  0  0  0  0  0  0  0  0  0  0
   -1.5058   -2.3884    0.7479 O   0  0  0  0  0  0  0  0  0  0  0  0
    1.1846   -3.5393    2.7548 C   0  0  0  0  0  0  0  0  0  0  0  0
    0.5947   -0.9936    2.0784 H   0  0  0  0  0  0  0  0  0  0  0  0
    1.3433   -3.5184    0.6300 H   0  0  0  0  0  0  0  0  0  0  0  0
    0.5605   -3.1307    3.5541 H   0  0  0  0  0  0  0  0  0  0  0  0
    1.1005   -4.6296    2.7768 H   0  0  0  0  0  0  0  0  0  0  0  0
    2.2267   -3.2724    2.9563 H   0  0  0  0  0  0  0  0  0  0  0  0
   -1.2201   -4.5822    1.1415 N   0  0  0  0  0  0  0  0  0  0  0  0
   -2.5934   -4.9450    0.8093 C   0  0  0  0  0  0  0  0  0  0  0  0
   -0.5624   -5.3186    1.3793 H   0  0  0  0  0  0  0  0  0  0  0  0
   -3.2989   -4.4114    1.4550 H   0  0  0  0  0  0  0  0  0  0  0  0
   -2.8138   -4.6967   -0.2344 H   0  0  0  0  0  0  0  0  0  0  0  0
   -2.7456   -6.0199    0.9482 H   0  0  0  0  0  0  0  0  0  0  0  0
  1  2  2  0  0  0  0
  1  3  1  0  0  0  0
  1  7  1  0  0  0  0
  3  4  1  0  0  0  0
  3  5  1  0  0  0  0
  3  6  1  0  0  0  0
  7  8  1  0  0  0  0
  7 12  1  0  0  0  0
  8  9  1  0  0  0  0
  8 11  1  0  0  0  0
  8 13  1  0  0  0  0
  9 10  2  0  0  0  0
  9 17  1  0  0  0  0
 11 14  1  0  0  0  0
 11 15  1  0  0  0  0
 11 16  1  0  0  0  0
 17 18  1  0  0  0  0
 17 27  1  0  0  0  0
 18 19  1  0  0  0  0
 18 21  1  0  0  0  0
 18 28  1  0  0  0  0
 19 20  2  0  0  0  0
 19 35  1  0  0  0  0
 21 22  1  0  0  0  0
 21 29  1  0  0  0  0
 21 30  1  0  0  0  0
 22 23  1  0  0  0  0
 22 24  2  0  0  0  0
 23 25  2  0  0  0  0
 23 31  1  0  0  0  0
 24 26  1  0  0  0  0
 24 32  1  0  0  0  0
 25 26  1  0  0  0  0
 25 33  1  0  0  0  0
 26 34  1  0  0  0  0
 35 36  1  0  0  0  0
 35 40  1  0  0  0  0
 36 37  1  0  0  0  0
 36 39  1  0  0  0  0
 36 41  1  0  0  0  0
 37 38  2  0  0  0  0
 37 45  1  0  0  0  0
 39 42  1  0  0  0  0
 39 43  1  0  0  0  0
 39 44  1  0  0  0  0
 45 46  1  0  0  0  0
 45 47  1  0  0  0  0
 46 48  1  0  0  0  0
 46 49  1  0  0  0  0
 46 50  1  0  0  0  0
M  CHG  1  23   1
M  END
$$$$

  -OEChem-05262216443D

 50 50  0     1  0  0  0  0  0999 V2000
   -1.9222   -0.3736    4.0582 C   0  0  0  0  0  0  0  0  0  0  0  0
   -1.1561   -1.1752    3.5453 O   0  0  0  0  0  0  0  0  0  0  0  0
   -2.2160   -0.4429    5.5443 C   0  0  0  0  0  0  0  0  0  0  0  0
   -3.2841   -0.6073    5.7065 H   0  0  0  0  0  0  0  0  0  0  0  0
   -1.6600   -1.2669    6.0001 H   0  0  0  0  0  0  0  0  0  0  0  0
   -1.9190    0.4906    6.0282 H   0  0  0  0  0  0  0  0  0  0  0  0
   -2.4942    0.6150    3.2830 N   0  0  0  0  0  0  0  0  0  0  0  0
   -2.1875    0.7878    1.8547 C   0  0  2  0  0  0  0  0  0  0  0  0
   -0.6958    1.0965    1.5703 C   0  0  0  0  0  0  0  0  0  0  0  0
    0.0086    1.6009    2.4378 O   0  0  0  0  0  0  0  0  0  0  0  0
   -3.0729    1.9178    1.3245 C   0  0  0  0  0  0  0  0  0  0  0  0
   -3.0416    1.3238    3.7616 H   0  0  0  0  0  0  0  0  0  0  0  0
   -2.4498   -0.1351    1.3278 H   0  0  0  0  0  0  0  0  0  0  0  0
   -2.8369    2.8603    1.8290 H   0  0  0  0  0  0  0  0  0  0  0  0
   -2.9208    2.0507    0.2487 H   0  0  0  0  0  0  0  0  0  0  0  0
   -4.1290    1.6839    1.4939 H   0  0  0  0  0  0  0  0  0  0  0  0
   -0.1676    0.9006    0.3020 N   0  0  0  0  0  0  0  0  0  0  0  0
    1.2283    0.4990   -0.0085 C   0  0  2  0  0  0  0  0  0  0  0  0
    1.4829   -0.9933    0.2733 C   0  0  0  0  0  0  0  0  0  0  0  0
    2.1018   -1.6168   -0.5778 O   0  0  0  0  0  0  0  0  0  0  0  0
    2.3512    1.2981    0.6849 C   0  0  0  0  0  0  0  0  0  0  0  0
    2.3420    2.7391    0.2506 C   0  0  0  0  0  0  0  0  0  0  0  0
    2.7797    3.2537   -0.9695 N   0  3  0  0  0  0  0  0  0  0  0  0
    1.9086    3.7894    1.0158 C   0  0  0  0  0  0  0  0  0  0  0  0
    2.6356    4.5575   -0.9859 C   0  0  0  0  0  0  0  0  0  0  0  0
    2.0899    4.9289    0.2422 N   0  0  0  0  0  0  0  0  0  0  0  0
   -0.8536    0.4653   -0.3168 H   0  0  0  0  0  0  0  0  0  0  0  0
    1.3540    0.6312   -1.0881 H   0  0  0  0  0  0  0  0  0  0  0  0
    3.3195    0.8613    0.4151 H   0  0  0  0  0  0  0  0  0  0  0  0
    2.2791    1.2163    1.7730 H   0  0  0  0  0  0  0  0  0  0  0  0
    3.1596    2.6662   -1.7170 H   0  0  0  0  0  0  0  0  0  0  0  0
    1.4946    3.7142    2.0236 H   0  0  0  0  0  0  0  0  0  0  0  0
    2.8961    5.2273   -1.8074 H   0  0  0  0  0  0  0  0  0  0  0  0
    1.8596    5.8836    0.5321 H   0  0  0  0  0  0  0  0  0  0  0  0
    1.0526   -1.6314    1.4231 N   0  0  0  0  0  0  0  0  0  0  0  0
    0.6510   -3.0452    1.3429 C   0  0  2  0  0  0  0  0  0  0  0  0
   -0.8235   -3.1767    0.8803 C   0  0  0  0  0  0  0  0  0  0  0  0
   -1.4030   -2.2257    0.3555 O   0  0  0  0  0  0  0  0  0  0  0  0
    0.9124   -3.7013    2.7033 C   0  0  0  0  0  0  0  0  0  0  0  0
    0.4816   -1.0620    2.0521 H   0  0  0  0  0  0  0  0  0  0  0  0
    1.2644   -3.5768    0.6076 H   0  0  0  0  0  0  0  0  0  0  0  0
    0.2562   -3.2873    3.4729 H   0  0  0  0  0  0  0  0  0  0  0  0
    0.7429   -4.7805    2.6487 H   0  0  0  0  0  0  0  0  0  0  0  0
    1.9505   -3.5339    3.0072 H   0  0  0  0  0  0  0  0  0  0  0  0
   -1.4896   -4.3849    0.9751 N   0  0  0  0  0  0  0  0  0  0  0  0
   -2.8607   -4.5861    0.5204 C   0  0  0  0  0  0  0  0  0  0  0  0
   -0.9930   -5.1636    1.3978 H   0  0  0  0  0  0  0  0  0  0  0  0
   -3.5431   -3.9121    1.0492 H   0  0  0  0  0  0  0  0  0  0  0  0
   -2.9395   -4.3952   -0.5552 H   0  0  0  0  0  0  0  0  0  0  0  0
   -3.1765   -5.6164    0.7119 H   0  0  0  0  0  0  0  0  0  0  0  0
  1  2  2  0  0  0  0
  1  3  1  0  0  0  0
  1  7  1  0  0  0  0
  3  4  1  0  0  0  0
  3  5  1  0  0  0  0
  3  6  1  0  0  0  0
  7  8  1  0  0  0  0
  7 12  1  0  0  0  0
  8  9  1  0  0  0  0
  8 11  1  0  0  0  0
  8 13  1  0  0  0  0
  9 10  2  0  0  0  0
  9 17  1  0  0  0  0
 11 14  1  0  0  0  0
 11 15  1  0  0  0  0
 11 16  1  0  0  0  0
 17 18  1  0  0  0  0
 17 27  1  0  0  0  0
 18 19  1  0  0  0  0
 18 21  1  0  0  0  0
 18 28  1  0  0  0  0
 19 20  2  0  0  0  0
 19 35  1  0  0  0  0
 21 22  1  0  0  0  0
 21 29  1  0  0  0  0
 21 30  1  0  0  0  0
 22 23  1  0  0  0  0
 22 24  2  0  0  0  0
 23 25  2  0  0  0  0
 23 31  1  0  0  0  0
 24 26  1  0  0  0  0
 24 32  1  0  0  0  0
 25 26  1  0  0  0  0
 25 33  1  0  0  0  0
 26 34  1  0  0  0  0
 35 36  1  0  0  0  0
 35 40  1  0  0  0  0
 36 37  1  0  0  0  0
 36 39  1  0  0  0  0
 36 41  1  0  0  0  0
 37 38  2  0  0  0  0
 37 45  1  0  0  0  0
 39 42  1  0  0  0  0
 39 43  1  0  0  0  0
 39 44  1  0  0  0  0
 45 46  1  0  0  0  0
 45 47  1  0  0  0  0
 46 48  1  0  0  0  0
 46 49  1  0  0  0  0
 46 50  1  0  0  0  0
M  CHG  1  23   1
M  END
$$$$

  -OEChem-05262216443D

 50 50  0     1  0  0  0  0  0999 V2000
   -2.1001   -0.3711    3.9833 C   0  0  0  0  0  0  0  0  0  0  0  0
   -1.3873   -1.2204    3.4704 O   0  0  0  0  0  0  0  0  0  0  0  0
   -2.4082   -0.4237    5.4668 C   0  0  0  0  0  0  0  0  0  0  0  0
   -1.9321   -1.2981    5.9193 H   0  0  0  0  0  0  0  0  0  0  0  0
   -2.0303    0.4756    5.9589 H   0  0  0  0  0  0  0  0  0  0  0  0
   -3.4875   -0.4911    5.6227 H   0  0  0  0  0  0  0  0  0  0  0  0
   -2.5864    0.6597    3.2058 N   0  0  0  0  0  0  0  0  0  0  0  0
   -2.2056    0.8284    1.7957 C   0  0  2  0  0  0  0  0  0  0  0  0
   -0.6884    1.0679    1.5934 C   0  0  0  0  0  0  0  0  0  0  0  0
   -0.0292    1.6061    2.4755 O   0  0  0  0  0  0  0  0  0  0  0  0
   -3.0079    2.0030    1.2319 C   0  0  0  0  0  0  0  0  0  0  0  0
   -3.0568    1.4209    3.6861 H   0  0  0  0  0  0  0  0  0  0  0  0
   -2.4849   -0.0779    1.2483 H   0  0  0  0  0  0  0  0  0  0  0  0
   -2.7530    2.9301    1.7553 H   0  0  0  0  0  0  0  0  0  0  0  0
   -2.7943    2.1341    0.1665 H   0  0  0  0  0  0  0  0  0  0  0  0
   -4.0812    1.8196    1.3459 H   0  0  0  0  0  0  0  0  0  0  0  0
   -0.0926    0.7798    0.3740 N   0  0  0  0  0  0  0  0  0  0  0  0
    1.3229    0.3864    0.1513 C   0  0  2  0  0  0  0  0  0  0  0  0
    1.6188   -1.0707    0.5566 C   0  0  0  0  0  0  0  0  0  0  0  0
    2.4239   -1.6790   -0.1352 O   0  0  0  0  0  0  0  0  0  0  0  0
    2.3904    1.2752    0.8229 C   0  0  0  0  0  0  0  0  0  0  0  0
    2.3587    2.6725    0.2669 C   0  0  0  0  0  0  0  0  0  0  0  0
    2.8361    3.0961   -0.9728 N   0  3  0  0  0  0  0  0  0  0  0  0
    1.8532    3.7661    0.9178 C   0  0  0  0  0  0  0  0  0  0  0  0
    2.6495    4.3871   -1.1089 C   0  0  0  0  0  0  0  0  0  0  0  0
    2.0334    4.8414    0.0571 N   0  0  0  0  0  0  0  0  0  0  0  0
   -0.7423    0.2751   -0.2349 H   0  0  0  0  0  0  0  0  0  0  0  0
    1.4879    0.4357   -0.9298 H   0  0  0  0  0  0  0  0  0  0  0  0
    3.3825    0.8505    0.6321 H   0  0  0  0  0  0  0  0  0  0  0  0
    2.2727    1.2818    1.9100 H   0  0  0  0  0  0  0  0  0  0  0  0
    3.2707    2.4614   -1.6484 H   0  0  0  0  0  0  0  0  0  0  0  0
    1.3930    3.7596    1.9082 H   0  0  0  0  0  0  0  0  0  0  0  0
    2.9267    4.9930   -1.9734 H   0  0  0  0  0  0  0  0  0  0  0  0
    1.7590    5.8083    0.2531 H   0  0  0  0  0  0  0  0  0  0  0  0
    0.9415   -1.7320    1.5652 N   0  0  0  0  0  0  0  0  0  0  0  0
    0.4694   -3.1016    1.3053 C   0  0  2  0  0  0  0  0  0  0  0  0
   -0.9203   -3.0771    0.6170 C   0  0  0  0  0  0  0  0  0  0  0  0
   -1.3427   -2.0443    0.0944 O   0  0  0  0  0  0  0  0  0  0  0  0
    0.4706   -3.8821    2.6250 C   0  0  0  0  0  0  0  0  0  0  0  0
    0.2842   -1.1577    2.0975 H   0  0  0  0  0  0  0  0  0  0  0  0
    1.1533   -3.6213    0.6257 H   0  0  0  0  0  0  0  0  0  0  0  0
   -0.2822   -3.4925    3.3144 H   0  0  0  0  0  0  0  0  0  0  0  0
    0.2590   -4.9402    2.4463 H   0  0  0  0  0  0  0  0  0  0  0  0
    1.4512   -3.8067    3.1053 H   0  0  0  0  0  0  0  0  0  0  0  0
   -1.6777   -4.2285    0.5092 N   0  0  0  0  0  0  0  0  0  0  0  0
   -2.9796   -4.2779   -0.1462 C   0  0  0  0  0  0  0  0  0  0  0  0
   -1.3166   -5.0707    0.9475 H   0  0  0  0  0  0  0  0  0  0  0  0
   -3.6908   -3.6202    0.3649 H   0  0  0  0  0  0  0  0  0  0  0  0
   -2.8959   -3.9626   -1.1917 H   0  0  0  0  0  0  0  0  0  0  0  0
   -3.3759   -5.2979   -0.1262 H   0  0  0  0  0  0  0  0  0  0  0  0
  1  2  2  0  0  0  0
  1  3  1  0  0  0  0
  1  7  1  0  0  0  0
  3  4  1  0  0  0  0
  3  5  1  0  0  0  0
  3  6  1  0  0  0  0
  7  8  1  0  0  0  0
  7 12  1  0  0  0  0
  8  9  1  0  0  0  0
  8 11  1  0  0  0  0
  8 13  1  0  0  0  0
  9 10  2  0  0  0  0
  9 17  1  0  0  0  0
 11 14  1  0  0  0  0
 11 15  1  0  0  0  0
 11 16  1  0  0  0  0
 17 18  1  0  0  0  0
 17 27  1  0  0  0  0
 18 19  1  0  0  0  0
 18 21  1  0  0  0  0
 18 28  1  0  0  0  0
 19 20  2  0  0  0  0
 19 35  1  0  0  0  0
 21 22  1  0  0  0  0
 21 29  1  0  0  0  0
 21 30  1  0  0  0  0
 22 23  1  0  0  0  0
 22 24  2  0  0  0  0
 23 25  2  0  0  0  0
 23 31  1  0  0  0  0
 24 26  1  0  0  0  0
 24 32  1  0  0  0  0
 25 26  1  0  0  0  0
 25 33  1  0  0  0  0
 26 34  1  0  0  0  0
 35 36  1  0  0  0  0
 35 40  1  0  0  0  0
 36 37  1  0  0  0  0
 36 39  1  0  0  0  0
 36 41  1  0  0  0  0
 37 38  2  0  0  0  0
 37 45  1  0  0  0  0
 39 42  1  0  0  0  0
 39 43  1  0  0  0  0
 39 44  1  0  0  0  0
 45 46  1  0  0  0  0
 45 47  1  0  0  0  0
 46 48  1  0  0  0  0
 46 49  1  0  0  0  0
 46 50  1  0  0  0  0
M  CHG  1  23   1
M  END
$$$$

  -OEChem-05262216443D

 50 50  0     1  0  0  0  0  0999 V2000
   -2.2938   -0.4183    3.8478 C   0  0  0  0  0  0  0  0  0  0  0  0
   -1.6283   -1.2871    3.3050 O   0  0  0  0  0  0  0  0  0  0  0  0
   -2.6634   -0.5366    5.3131 C   0  0  0  0  0  0  0  0  0  0  0  0
   -2.3590   -1.5132    5.7002 H   0  0  0  0  0  0  0  0  0  0  0  0
   -2.1595    0.2435    5.8890 H   0  0  0  0  0  0  0  0  0  0  0  0
   -3.7442   -0.4321    5.4367 H   0  0  0  0  0  0  0  0  0  0  0  0
   -2.6693    0.6907    3.1190 N   0  0  0  0  0  0  0  0  0  0  0  0
   -2.2255    0.9039    1.7341 C   0  0  2  0  0  0  0  0  0  0  0  0
   -0.6942    1.0914    1.6088 C   0  0  0  0  0  0  0  0  0  0  0  0
   -0.0687    1.6526    2.5007 O   0  0  0  0  0  0  0  0  0  0  0  0
   -2.9590    2.1301    1.1867 C   0  0  0  0  0  0  0  0  0  0  0  0
   -3.0786    1.4660    3.6324 H   0  0  0  0  0  0  0  0  0  0  0  0
   -2.5125    0.0325    1.1351 H   0  0  0  0  0  0  0  0  0  0  0  0
   -2.6958    3.0244    1.7608 H   0  0  0  0  0  0  0  0  0  0  0  0
   -2.6919    2.2975    0.1386 H   0  0  0  0  0  0  0  0  0  0  0  0
   -4.0421    1.9825    1.2448 H   0  0  0  0  0  0  0  0  0  0  0  0
   -0.0511    0.7182    0.4386 N   0  0  0  0  0  0  0  0  0  0  0  0
    1.3725    0.3247    0.2813 C   0  0  2  0  0  0  0  0  0  0  0  0
    1.6758   -1.0959    0.8010 C   0  0  0  0  0  0  0  0  0  0  0  0
    2.6132   -1.6831    0.2779 O   0  0  0  0  0  0  0  0  0  0  0  0
    2.4053    1.2769    0.9214 C   0  0  0  0  0  0  0  0  0  0  0  0
    2.3718    2.6322    0.2698 C   0  0  0  0  0  0  0  0  0  0  0  0
    2.8807    2.9823   -0.9802 N   0  3  0  0  0  0  0  0  0  0  0  0
    1.8360    3.7585    0.8352 C   0  0  0  0  0  0  0  0  0  0  0  0
    2.6819    4.2593   -1.2044 C   0  0  0  0  0  0  0  0  0  0  0  0
    2.0270    4.7787   -0.0880 N   0  0  0  0  0  0  0  0  0  0  0  0
   -0.6785    0.1735   -0.1625 H   0  0  0  0  0  0  0  0  0  0  0  0
    1.5684    0.2974   -0.7952 H   0  0  0  0  0  0  0  0  0  0  0  0
    3.4099    0.8583    0.7913 H   0  0  0  0  0  0  0  0  0  0  0  0
    2.2540    1.3557    2.0013 H   0  0  0  0  0  0  0  0  0  0  0  0
    3.3438    2.3121   -1.6003 H   0  0  0  0  0  0  0  0  0  0  0  0
    1.3509    3.8096    1.8124 H   0  0  0  0  0  0  0  0  0  0  0  0
    2.9766    4.8127   -2.0978 H   0  0  0  0  0  0  0  0  0  0  0  0
    1.7369    5.7527    0.0379 H   0  0  0  0  0  0  0  0  0  0  0  0
    0.8064   -1.7943    1.6179 N   0  0  0  0  0  0  0  0  0  0  0  0
    0.3538   -3.1271    1.1931 C   0  0  2  0  0  0  0  0  0  0  0  0
   -0.9479   -3.0164    0.3576 C   0  0  0  0  0  0  0  0  0  0  0  0
   -1.2980   -1.9336   -0.1164 O   0  0  0  0  0  0  0  0  0  0  0  0
    0.1889   -4.0034    2.4397 C   0  0  0  0  0  0  0  0  0  0  0  0
    0.0717   -1.2306    2.0512 H   0  0  0  0  0  0  0  0  0  0  0  0
    1.1058   -3.6050    0.5558 H   0  0  0  0  0  0  0  0  0  0  0  0
   -0.6268   -3.6397    3.0700 H   0  0  0  0  0  0  0  0  0  0  0  0
   -0.0265   -5.0381    2.1583 H   0  0  0  0  0  0  0  0  0  0  0  0
    1.1117   -3.9948    3.0285 H   0  0  0  0  0  0  0  0  0  0  0  0
   -1.6995   -4.1394    0.0660 N   0  0  0  0  0  0  0  0  0  0  0  0
   -2.9182   -4.1090   -0.7350 C   0  0  0  0  0  0  0  0  0  0  0  0
   -1.3954   -5.0239    0.4633 H   0  0  0  0  0  0  0  0  0  0  0  0
   -3.6572   -3.4377   -0.2848 H   0  0  0  0  0  0  0  0  0  0  0  0
   -2.7014   -3.7633   -1.7513 H   0  0  0  0  0  0  0  0  0  0  0  0
   -3.3554   -5.1105   -0.7977 H   0  0  0  0  0  0  0  0  0  0  0  0
  1  2  2  0  0  0  0
  1  3  1  0  0  0  0
  1  7  1  0  0  0  0
  3  4  1  0  0  0  0
  3  5  1  0  0  0  0
  3  6  1  0  0  0  0
  7  8  1  0  0  0  0
  7 12  1  0  0  0  0
  8  9  1  0  0  0  0
  8 11  1  0  0  0  0
  8 13  1  0  0  0  0
  9 10  2  0  0  0  0
  9 17  1  0  0  0  0
 11 14  1  0  0  0  0
 11 15  1  0  0  0  0
 11 16  1  0  0  0  0
 17 18  1  0  0  0  0
 17 27  1  0  0  0  0
 18 19  1  0  0  0  0
 18 21  1  0  0  0  0
 18 28  1  0  0  0  0
 19 20  2  0  0  0  0
 19 35  1  0  0  0  0
 21 22  1  0  0  0  0
 21 29  1  0  0  0  0
 21 30  1  0  0  0  0
 22 23  1  0  0  0  0
 22 24  2  0  0  0  0
 23 25  2  0  0  0  0
 23 31  1  0  0  0  0
 24 26  1  0  0  0  0
 24 32  1  0  0  0  0
 25 26  1  0  0  0  0
 25 33  1  0  0  0  0
 26 34  1  0  0  0  0
 35 36  1  0  0  0  0
 35 40  1  0  0  0  0
 36 37  1  0  0  0  0
 36 39  1  0  0  0  0
 36 41  1  0  0  0  0
 37 38  2  0  0  0  0
 37 45  1  0  0  0  0
 39 42  1  0  0  0  0
 39 43  1  0  0  0  0
 39 44  1  0  0  0  0
 45 46  1  0  0  0  0
 45 47  1  0  0  0  0
 46 48  1  0  0  0  0
 46 49  1  0  0  0  0
 46 50  1  0  0  0  0
M  CHG  1  23   1
M  END
$$$$

  -OEChem-05262216443D

 50 50  0     1  0  0  0  0  0999 V2000
   -2.4645   -0.3669    3.7572 C   0  0  0  0  0  0  0  0  0  0  0  0
   -1.8472   -1.2585    3.1940 O   0  0  0  0  0  0  0  0  0  0  0  0
   -2.8648   -0.5064    5.2129 C   0  0  0  0  0  0  0  0  0  0  0  0
   -2.5439   -1.4774    5.6007 H   0  0  0  0  0  0  0  0  0  0  0  0
   -2.3956    0.2816    5.8069 H   0  0  0  0  0  0  0  0  0  0  0  0
   -3.9506   -0.4305    5.3106 H   0  0  0  0  0  0  0  0  0  0  0  0
   -2.7550    0.7863    3.0591 N   0  0  0  0  0  0  0  0  0  0  0  0
   -2.2601    1.0180    1.6955 C   0  0  2  0  0  0  0  0  0  0  0  0
   -0.7209    1.1546    1.6300 C   0  0  0  0  0  0  0  0  0  0  0  0
   -0.1202    1.7598    2.5097 O   0  0  0  0  0  0  0  0  0  0  0  0
   -2.9318    2.2828    1.1573 C   0  0  0  0  0  0  0  0  0  0  0  0
   -3.1155    1.5719    3.5932 H   0  0  0  0  0  0  0  0  0  0  0  0
   -2.5548    0.1719    1.0633 H   0  0  0  0  0  0  0  0  0  0  0  0
   -2.6614    3.1515    1.7662 H   0  0  0  0  0  0  0  0  0  0  0  0
   -2.6189    2.4701    0.1254 H   0  0  0  0  0  0  0  0  0  0  0  0
   -4.0205    2.1701    1.1718 H   0  0  0  0  0  0  0  0  0  0  0  0
   -0.0442    0.6705    0.5217 N   0  0  0  0  0  0  0  0  0  0  0  0
    1.3741    0.2414    0.4426 C   0  0  2  0  0  0  0  0  0  0  0  0
    1.6355   -1.1346    1.0931 C   0  0  0  0  0  0  0  0  0  0  0  0
    2.6604   -1.7120    0.7562 O   0  0  0  0  0  0  0  0  0  0  0  0
    2.3980    1.2383    1.0298 C   0  0  0  0  0  0  0  0  0  0  0  0
    2.4045    2.5308    0.2605 C   0  0  0  0  0  0  0  0  0  0  0  0
    2.9602    2.7603   -0.9972 N   0  3  0  0  0  0  0  0  0  0  0  0
    1.8673    3.7098    0.7038 C   0  0  0  0  0  0  0  0  0  0  0  0
    2.7922    4.0150   -1.3402 C   0  0  0  0  0  0  0  0  0  0  0  0
    2.1067    4.6408   -0.2991 N   0  0  0  0  0  0  0  0  0  0  0  0
   -0.6608    0.1052   -0.0738 H   0  0  0  0  0  0  0  0  0  0  0  0
    1.6020    0.1151   -0.6202 H   0  0  0  0  0  0  0  0  0  0  0  0
    3.4018    0.8023    0.9728 H   0  0  0  0  0  0  0  0  0  0  0  0
    2.2110    1.4149    2.0923 H   0  0  0  0  0  0  0  0  0  0  0  0
    3.4365    2.0318   -1.5362 H   0  0  0  0  0  0  0  0  0  0  0  0
    1.3511    3.8550    1.6550 H   0  0  0  0  0  0  0  0  0  0  0  0
    3.1296    4.4829   -2.2668 H   0  0  0  0  0  0  0  0  0  0  0  0
    1.8299    5.6264   -0.2700 H   0  0  0  0  0  0  0  0  0  0  0  0
    0.6209   -1.8641    1.6831 N   0  0  0  0  0  0  0  0  0  0  0  0
    0.2373   -3.1620    1.1127 C   0  0  2  0  0  0  0  0  0  0  0  0
   -0.8980   -2.9892    0.0714 C   0  0  0  0  0  0  0  0  0  0  0  0
   -1.2280   -1.8671   -0.3183 O   0  0  0  0  0  0  0  0  0  0  0  0
   -0.1680   -4.0869    2.2648 C   0  0  0  0  0  0  0  0  0  0  0  0
   -0.1750   -1.3104    2.0079 H   0  0  0  0  0  0  0  0  0  0  0  0
    1.0873   -3.6228    0.5981 H   0  0  0  0  0  0  0  0  0  0  0  0
   -1.0752   -3.7226    2.7554 H   0  0  0  0  0  0  0  0  0  0  0  0
   -0.3542   -5.1010    1.8995 H   0  0  0  0  0  0  0  0  0  0  0  0
    0.6335   -4.1335    3.0090 H   0  0  0  0  0  0  0  0  0  0  0  0
   -1.5124   -4.0933   -0.4893 N   0  0  0  0  0  0  0  0  0  0  0  0
   -2.5706   -4.0073   -1.4893 C   0  0  0  0  0  0  0  0  0  0  0  0
   -1.2272   -5.0101   -0.1559 H   0  0  0  0  0  0  0  0  0  0  0  0
   -3.4123   -3.4185   -1.1093 H   0  0  0  0  0  0  0  0  0  0  0  0
   -2.1953   -3.5369   -2.4044 H   0  0  0  0  0  0  0  0  0  0  0  0
   -2.9368   -5.0077   -1.7407 H   0  0  0  0  0  0  0  0  0  0  0  0
  1  2  2  0  0  0  0
  1  3  1  0  0  0  0
  1  7  1  0  0  0  0
  3  4  1  0  0  0  0
  3  5  1  0  0  0  0
  3  6  1  0  0  0  0
  7  8  1  0  0  0  0
  7 12  1  0  0  0  0
  8  9  1  0  0  0  0
  8 11  1  0  0  0  0
  8 13  1  0  0  0  0
  9 10  2  0  0  0  0
  9 17  1  0  0  0  0
 11 14  1  0  0  0  0
 11 15  1  0  0  0  0
 11 16  1  0  0  0  0
 17 18  1  0  0  0  0
 17 27  1  0  0  0  0
 18 19  1  0  0  0  0
 18 21  1  0  0  0  0
 18 28  1  0  0  0  0
 19 20  2  0  0  0  0
 19 35  1  0  0  0  0
 21 22  1  0  0  0  0
 21 29  1  0  0  0  0
 21 30  1  0  0  0  0
 22 23  1  0  0  0  0
 22 24  2  0  0  0  0
 23 25  2  0  0  0  0
 23 31  1  0  0  0  0
 24 26  1  0  0  0  0
 24 32  1  0  0  0  0
 25 26  1  0  0  0  0
 25 33  1  0  0  0  0
 26 34  1  0  0  0  0
 35 36  1  0  0  0  0
 35 40  1  0  0  0  0
 36 37  1  0  0  0  0
 36 39  1  0  0  0  0
 36 41  1  0  0  0  0
 37 38  2  0  0  0  0
 37 45  1  0  0  0  0
 39 42  1  0  0  0  0
 39 43  1  0  0  0  0
 39 44  1  0  0  0  0
 45 46  1  0  0  0  0
 45 47  1  0  0  0  0
 46 48  1  0  0  0  0
 46 49  1  0  0  0  0
 46 50  1  0  0  0  0
M  CHG  1  23   1
M  END
$$$$

  -OEChem-05262216443D

 50 50  0     1  0  0  0  0  0999 V2000
   -3.0457   -0.1223    2.6486 C   0  0  0  0  0  0  0  0  0  0  0  0
   -2.7487   -0.3137    1.4780 O   0  0  0  0  0  0  0  0  0  0  0  0
   -3.9001   -1.1183    3.4081 C   0  0  0  0  0  0  0  0  0  0  0  0
   -4.2868   -1.8816    2.7269 H   0  0  0  0  0  0  0  0  0  0  0  0
   -3.3058   -1.6048    4.1852 H   0  0  0  0  0  0  0  0  0  0  0  0
   -4.7464   -0.6077    3.8744 H   0  0  0  0  0  0  0  0  0  0  0  0
   -2.5556    1.0008    3.2792 N   0  0  0  0  0  0  0  0  0  0  0  0
   -1.8364    2.0750    2.5823 C   0  0  2  0  0  0  0  0  0  0  0  0
   -0.4339    1.6426    2.0834 C   0  0  0  0  0  0  0  0  0  0  0  0
    0.5546    1.8325    2.7783 O   0  0  0  0  0  0  0  0  0  0  0  0
   -1.7706    3.2722    3.5389 C   0  0  0  0  0  0  0  0  0  0  0  0
   -2.7824    1.1214    4.2633 H   0  0  0  0  0  0  0  0  0  0  0  0
   -2.4172    2.3827    1.7059 H   0  0  0  0  0  0  0  0  0  0  0  0
   -1.2185    3.0115    4.4482 H   0  0  0  0  0  0  0  0  0  0  0  0
   -1.2659    4.1154    3.0576 H   0  0  0  0  0  0  0  0  0  0  0  0
   -2.7785    3.5909    3.8228 H   0  0  0  0  0  0  0  0  0  0  0  0
   -0.3038    1.1451    0.7925 N   0  0  0  0  0  0  0  0  0  0  0  0
    0.8616    0.4227    0.2212 C   0  0  2  0  0  0  0  0  0  0  0  0
    0.9677   -1.0396    0.7143 C   0  0  0  0  0  0  0  0  0  0  0  0
    1.9851   -1.6806    0.4776 O   0  0  0  0  0  0  0  0  0  0  0  0
    2.2219    1.1416    0.4080 C   0  0  0  0  0  0  0  0  0  0  0  0
    2.2467    2.4544   -0.3243 C   0  0  0  0  0  0  0  0  0  0  0  0
    2.3729    2.6485   -1.6991 N   0  3  0  0  0  0  0  0  0  0  0  0
    2.1846    3.6861    0.2708 C   0  0  0  0  0  0  0  0  0  0  0  0
    2.3875    3.9312   -1.9719 C   0  0  0  0  0  0  0  0  0  0  0  0
    2.2683    4.6132   -0.7610 N   0  0  0  0  0  0  0  0  0  0  0  0
   -1.2091    0.9008    0.3820 H   0  0  0  0  0  0  0  0  0  0  0  0
    0.6800    0.3416   -0.8547 H   0  0  0  0  0  0  0  0  0  0  0  0
    3.0282    0.5208    0.0022 H   0  0  0  0  0  0  0  0  0  0  0  0
    2.4590    1.2747    1.4662 H   0  0  0  0  0  0  0  0  0  0  0  0
    2.4558    1.8749   -2.3649 H   0  0  0  0  0  0  0  0  0  0  0  0
    2.0878    3.8705    1.3426 H   0  0  0  0  0  0  0  0  0  0  0  0
    2.4804    4.3805   -2.9623 H   0  0  0  0  0  0  0  0  0  0  0  0
    2.2607    5.6307   -0.6449 H   0  0  0  0  0  0  0  0  0  0  0  0
   -0.0952   -1.6692    1.3375 N   0  0  0  0  0  0  0  0  0  0  0  0
   -0.1990   -3.1357    1.3037 C   0  0  2  0  0  0  0  0  0  0  0  0
   -0.5574   -3.6605   -0.1072 C   0  0  0  0  0  0  0  0  0  0  0  0
   -1.0674   -2.9151   -0.9378 O   0  0  0  0  0  0  0  0  0  0  0  0
   -1.2663   -3.5595    2.3131 C   0  0  0  0  0  0  0  0  0  0  0  0
   -0.9791   -1.1585    1.2792 H   0  0  0  0  0  0  0  0  0  0  0  0
    0.7569   -3.5794    1.6027 H   0  0  0  0  0  0  0  0  0  0  0  0
   -2.2486   -3.1896    2.0044 H   0  0  0  0  0  0  0  0  0  0  0  0
   -1.3145   -4.6506    2.3833 H   0  0  0  0  0  0  0  0  0  0  0  0
   -1.0329   -3.1597    3.3047 H   0  0  0  0  0  0  0  0  0  0  0  0
   -0.3140   -4.9784   -0.4466 N   0  0  0  0  0  0  0  0  0  0  0  0
   -0.5894   -5.5250   -1.7708 C   0  0  0  0  0  0  0  0  0  0  0  0
    0.1725   -5.5574    0.2316 H   0  0  0  0  0  0  0  0  0  0  0  0
   -1.6513   -5.4178   -2.0173 H   0  0  0  0  0  0  0  0  0  0  0  0
    0.0024   -5.0041   -2.5310 H   0  0  0  0  0  0  0  0  0  0  0  0
   -0.3347   -6.5888   -1.8023 H   0  0  0  0  0  0  0  0  0  0  0  0
  1  2  2  0  0  0  0
  1  3  1  0  0  0  0
  1  7  1  0  0  0  0
  3  4  1  0  0  0  0
  3  5  1  0  0  0  0
  3  6  1  0  0  0  0
  7  8  1  0  0  0  0
  7 12  1  0  0  0  0
  8  9  1  0  0  0  0
  8 11  1  0  0  0  0
  8 13  1  0  0  0  0
  9 10  2  0  0  0  0
  9 17  1  0  0  0  0
 11 14  1  0  0  0  0
 11 15  1  0  0  0  0
 11 16  1  0  0  0  0
 17 18  1  0  0  0  0
 17 27  1  0  0  0  0
 18 19  1  0  0  0  0
 18 21  1  0  0  0  0
 18 28  1  0  0  0  0
 19 20  2  0  0  0  0
 19 35  1  0  0  0  0
 21 22  1  0  0  0  0
 21 29  1  0  0  0  0
 21 30  1  0  0  0  0
 22 23  1  0  0  0  0
 22 24  2  0  0  0  0
 23 25  2  0  0  0  0
 23 31  1  0  0  0  0
 24 26  1  0  0  0  0
 24 32  1  0  0  0  0
 25 26  1  0  0  0  0
 25 33  1  0  0  0  0
 26 34  1  0  0  0  0
 35 36  1  0  0  0  0
 35 40  1  0  0  0  0
 36 37  1  0  0  0  0
 36 39  1  0  0  0  0
 36 41  1  0  0  0  0
 37 38  2  0  0  0  0
 37 45  1  0  0  0  0
 39 42  1  0  0  0  0
 39 43  1  0  0  0  0
 39 44  1  0  0  0  0
 45 46  1  0  0  0  0
 45 47  1  0  0  0  0
 46 48  1  0  0  0  0
 46 49  1  0  0  0  0
 46 50  1  0  0  0  0
M  CHG  1  23   1
M  END
$$$$

  -OEChem-05262216443D

 50 50  0     1  0  0  0  0  0999 V2000
   -3.0485   -0.1290    2.4780 C   0  0  0  0  0  0  0  0  0  0  0  0
   -2.7489   -0.2554    1.2983 O   0  0  0  0  0  0  0  0  0  0  0  0
   -3.8869   -1.1784    3.1813 C   0  0  0  0  0  0  0  0  0  0  0  0
   -4.2451   -1.9209    2.4629 H   0  0  0  0  0  0  0  0  0  0  0  0
   -3.2905   -1.6830    3.9454 H   0  0  0  0  0  0  0  0  0  0  0  0
   -4.7518   -0.7094    3.6570 H   0  0  0  0  0  0  0  0  0  0  0  0
   -2.5751    0.9624    3.1750 N   0  0  0  0  0  0  0  0  0  0  0  0
   -1.8666    2.0901    2.5539 C   0  0  2  0  0  0  0  0  0  0  0  0
   -0.4383    1.7221    2.0764 C   0  0  0  0  0  0  0  0  0  0  0  0
    0.5401    2.0162    2.7486 O   0  0  0  0  0  0  0  0  0  0  0  0
   -1.8697    3.2379    3.5720 C   0  0  0  0  0  0  0  0  0  0  0  0
   -2.8095    1.0207    4.1632 H   0  0  0  0  0  0  0  0  0  0  0  0
   -2.4284    2.4255    1.6751 H   0  0  0  0  0  0  0  0  0  0  0  0
   -1.3357    2.9491    4.4835 H   0  0  0  0  0  0  0  0  0  0  0  0
   -1.3805    4.1215    3.1507 H   0  0  0  0  0  0  0  0  0  0  0  0
   -2.8958    3.5085    3.8403 H   0  0  0  0  0  0  0  0  0  0  0  0
   -0.2848    1.1445    0.8236 N   0  0  0  0  0  0  0  0  0  0  0  0
    0.8971    0.4099    0.3082 C   0  0  2  0  0  0  0  0  0  0  0  0
    1.0020   -1.0104    0.9119 C   0  0  0  0  0  0  0  0  0  0  0  0
    2.0736   -1.6045    0.9072 O   0  0  0  0  0  0  0  0  0  0  0  0
    2.2428    1.1620    0.4587 C   0  0  0  0  0  0  0  0  0  0  0  0
    2.2451    2.4252   -0.3562 C   0  0  0  0  0  0  0  0  0  0  0  0
    2.3749    2.5382   -1.7396 N   0  3  0  0  0  0  0  0  0  0  0  0
    2.1471    3.6885    0.1626 C   0  0  0  0  0  0  0  0  0  0  0  0
    2.3565    3.8021   -2.0898 C   0  0  0  0  0  0  0  0  0  0  0  0
    2.2124    4.5531   -0.9231 N   0  0  0  0  0  0  0  0  0  0  0  0
   -1.1829    0.8545    0.4250 H   0  0  0  0  0  0  0  0  0  0  0  0
    0.7297    0.2509   -0.7618 H   0  0  0  0  0  0  0  0  0  0  0  0
    3.0615    0.5308    0.0962 H   0  0  0  0  0  0  0  0  0  0  0  0
    2.4702    1.3654    1.5080 H   0  0  0  0  0  0  0  0  0  0  0  0
    2.4757    1.7276   -2.3571 H   0  0  0  0  0  0  0  0  0  0  0  0
    2.0366    3.9335    1.2209 H   0  0  0  0  0  0  0  0  0  0  0  0
    2.4419    4.1928   -3.1053 H   0  0  0  0  0  0  0  0  0  0  0  0
    2.1746    5.5751   -0.8692 H   0  0  0  0  0  0  0  0  0  0  0  0
   -0.1434   -1.6932    1.2819 N   0  0  0  0  0  0  0  0  0  0  0  0
   -0.1979   -3.1560    1.1505 C   0  0  2  0  0  0  0  0  0  0  0  0
   -0.2745   -3.5995   -0.3305 C   0  0  0  0  0  0  0  0  0  0  0  0
   -0.5675   -2.7934   -1.2090 O   0  0  0  0  0  0  0  0  0  0  0  0
   -1.4226   -3.6513    1.9216 C   0  0  0  0  0  0  0  0  0  0  0  0
   -1.0132   -1.1974    1.0766 H   0  0  0  0  0  0  0  0  0  0  0  0
    0.6978   -3.6025    1.5961 H   0  0  0  0  0  0  0  0  0  0  0  0
   -2.3402   -3.2546    1.4758 H   0  0  0  0  0  0  0  0  0  0  0  0
   -1.4725   -4.7443    1.9012 H   0  0  0  0  0  0  0  0  0  0  0  0
   -1.3692   -3.3283    2.9659 H   0  0  0  0  0  0  0  0  0  0  0  0
   -0.0162   -4.9113   -0.6818 N   0  0  0  0  0  0  0  0  0  0  0  0
   -0.0424   -5.3912   -2.0591 C   0  0  0  0  0  0  0  0  0  0  0  0
    0.2891   -5.5442    0.0518 H   0  0  0  0  0  0  0  0  0  0  0  0
   -1.0271   -5.2199   -2.5072 H   0  0  0  0  0  0  0  0  0  0  0  0
    0.7127   -4.8735   -2.6602 H   0  0  0  0  0  0  0  0  0  0  0  0
    0.1673   -6.4650   -2.0902 H   0  0  0  0  0  0  0  0  0  0  0  0
  1  2  2  0  0  0  0
  1  3  1  0  0  0  0
  1  7  1  0  0  0  0
  3  4  1  0  0  0  0
  3  5  1  0  0  0  0
  3  6  1  0  0  0  0
  7  8  1  0  0  0  0
  7 12  1  0  0  0  0
  8  9  1  0  0  0  0
  8 11  1  0  0  0  0
  8 13  1  0  0  0  0
  9 10  2  0  0  0  0
  9 17  1  0  0  0  0
 11 14  1  0  0  0  0
 11 15  1  0  0  0  0
 11 16  1  0  0  0  0
 17 18  1  0  0  0  0
 17 27  1  0  0  0  0
 18 19  1  0  0  0  0
 18 21  1  0  0  0  0
 18 28  1  0  0  0  0
 19 20  2  0  0  0  0
 19 35  1  0  0  0  0
 21 22  1  0  0  0  0
 21 29  1  0  0  0  0
 21 30  1  0  0  0  0
 22 23  1  0  0  0  0
 22 24  2  0  0  0  0
 23 25  2  0  0  0  0
 23 31  1  0  0  0  0
 24 26  1  0  0  0  0
 24 32  1  0  0  0  0
 25 26  1  0  0  0  0
 25 33  1  0  0  0  0
 26 34  1  0  0  0  0
 35 36  1  0  0  0  0
 35 40  1  0  0  0  0
 36 37  1  0  0  0  0
 36 39  1  0  0  0  0
 36 41  1  0  0  0  0
 37 38  2  0  0  0  0
 37 45  1  0  0  0  0
 39 42  1  0  0  0  0
 39 43  1  0  0  0  0
 39 44  1  0  0  0  0
 45 46  1  0  0  0  0
 45 47  1  0  0  0  0
 46 48  1  0  0  0  0
 46 49  1  0  0  0  0
 46 50  1  0  0  0  0
M  CHG  1  23   1
M  END
$$$$

  -OEChem-05262216443D

 50 50  0     1  0  0  0  0  0999 V2000
   -3.0583   -0.1066    2.3191 C   0  0  0  0  0  0  0  0  0  0  0  0
   -2.7695   -0.1736    1.1312 O   0  0  0  0  0  0  0  0  0  0  0  0
   -3.8402   -1.2230    2.9828 C   0  0  0  0  0  0  0  0  0  0  0  0
   -4.1610   -1.9552    2.2366 H   0  0  0  0  0  0  0  0  0  0  0  0
   -3.2168   -1.7259    3.7262 H   0  0  0  0  0  0  0  0  0  0  0  0
   -4.7265   -0.8166    3.4766 H   0  0  0  0  0  0  0  0  0  0  0  0
   -2.6175    0.9685    3.0631 N   0  0  0  0  0  0  0  0  0  0  0  0
   -1.9319    2.1428    2.5021 C   0  0  2  0  0  0  0  0  0  0  0  0
   -0.4804    1.8369    2.0525 C   0  0  0  0  0  0  0  0  0  0  0  0
    0.4791    2.2212    2.7068 O   0  0  0  0  0  0  0  0  0  0  0  0
   -2.0020    3.2538    3.5578 C   0  0  0  0  0  0  0  0  0  0  0  0
   -2.8399    0.9668    4.0560 H   0  0  0  0  0  0  0  0  0  0  0  0
   -2.4793    2.4904    1.6191 H   0  0  0  0  0  0  0  0  0  0  0  0
   -1.4823    2.9514    4.4733 H   0  0  0  0  0  0  0  0  0  0  0  0
   -1.5322    4.1675    3.1805 H   0  0  0  0  0  0  0  0  0  0  0  0
   -3.0438    3.4805    3.8057 H   0  0  0  0  0  0  0  0  0  0  0  0
   -0.2945    1.1771    0.8474 N   0  0  0  0  0  0  0  0  0  0  0  0
    0.8899    0.3952    0.4202 C   0  0  2  0  0  0  0  0  0  0  0  0
    0.9357   -0.9790    1.1281 C   0  0  0  0  0  0  0  0  0  0  0  0
    2.0053   -1.5184    1.3838 O   0  0  0  0  0  0  0  0  0  0  0  0
    2.2439    1.1319    0.5612 C   0  0  0  0  0  0  0  0  0  0  0  0
    2.2955    2.3372   -0.3353 C   0  0  0  0  0  0  0  0  0  0  0  0
    2.4687    2.3524   -1.7185 N   0  3  0  0  0  0  0  0  0  0  0  0
    2.2054    3.6346    0.0924 C   0  0  0  0  0  0  0  0  0  0  0  0
    2.4809    3.5889   -2.1554 C   0  0  0  0  0  0  0  0  0  0  0  0
    2.3189    4.4211   -1.0476 N   0  0  0  0  0  0  0  0  0  0  0  0
   -1.1852    0.8577    0.4542 H   0  0  0  0  0  0  0  0  0  0  0  0
    0.7553    0.1648   -0.6415 H   0  0  0  0  0  0  0  0  0  0  0  0
    3.0588    0.4607    0.2684 H   0  0  0  0  0  0  0  0  0  0  0  0
    2.4407    1.4022    1.6017 H   0  0  0  0  0  0  0  0  0  0  0  0
    2.5678    1.4993   -2.2760 H   0  0  0  0  0  0  0  0  0  0  0  0
    2.0642    3.9537    1.1272 H   0  0  0  0  0  0  0  0  0  0  0  0
    2.5974    3.9064   -3.1931 H   0  0  0  0  0  0  0  0  0  0  0  0
    2.2925    5.4447   -1.0655 H   0  0  0  0  0  0  0  0  0  0  0  0
   -0.2266   -1.7245    1.2114 N   0  0  0  0  0  0  0  0  0  0  0  0
   -0.1804   -3.1761    0.9885 C   0  0  2  0  0  0  0  0  0  0  0  0
    0.0451   -3.5190   -0.5046 C   0  0  0  0  0  0  0  0  0  0  0  0
   -0.0477   -2.6475   -1.3659 O   0  0  0  0  0  0  0  0  0  0  0  0
   -1.5022   -3.7650    1.4856 C   0  0  0  0  0  0  0  0  0  0  0  0
   -1.0542   -1.2498    0.8462 H   0  0  0  0  0  0  0  0  0  0  0  0
    0.6377   -3.6189    1.5675 H   0  0  0  0  0  0  0  0  0  0  0  0
   -2.3425   -3.3537    0.9169 H   0  0  0  0  0  0  0  0  0  0  0  0
   -1.5055   -4.8534    1.3710 H   0  0  0  0  0  0  0  0  0  0  0  0
   -1.6459   -3.5304    2.5447 H   0  0  0  0  0  0  0  0  0  0  0  0
    0.3566   -4.8100   -0.8879 N   0  0  0  0  0  0  0  0  0  0  0  0
    0.5983   -5.1977   -2.2732 C   0  0  0  0  0  0  0  0  0  0  0  0
    0.4767   -5.5047   -0.1562 H   0  0  0  0  0  0  0  0  0  0  0  0
   -0.2746   -4.9694   -2.8942 H   0  0  0  0  0  0  0  0  0  0  0  0
    1.4655   -4.6631   -2.6750 H   0  0  0  0  0  0  0  0  0  0  0  0
    0.7938   -6.2725   -2.3381 H   0  0  0  0  0  0  0  0  0  0  0  0
  1  2  2  0  0  0  0
  1  3  1  0  0  0  0
  1  7  1  0  0  0  0
  3  4  1  0  0  0  0
  3  5  1  0  0  0  0
  3  6  1  0  0  0  0
  7  8  1  0  0  0  0
  7 12  1  0  0  0  0
  8  9  1  0  0  0  0
  8 11  1  0  0  0  0
  8 13  1  0  0  0  0
  9 10  2  0  0  0  0
  9 17  1  0  0  0  0
 11 14  1  0  0  0  0
 11 15  1  0  0  0  0
 11 16  1  0  0  0  0
 17 18  1  0  0  0  0
 17 27  1  0  0  0  0
 18 19  1  0  0  0  0
 18 21  1  0  0  0  0
 18 28  1  0  0  0  0
 19 20  2  0  0  0  0
 19 35  1  0  0  0  0
 21 22  1  0  0  0  0
 21 29  1  0  0  0  0
 21 30  1  0  0  0  0
 22 23  1  0  0  0  0
 22 24  2  0  0  0  0
 23 25  2  0  0  0  0
 23 31  1  0  0  0  0
 24 26  1  0  0  0  0
 24 32  1  0  0  0  0
 25 26  1  0  0  0  0
 25 33  1  0  0  0  0
 26 34  1  0  0  0  0
 35 36  1  0  0  0  0
 35 40  1  0  0  0  0
 36 37  1  0  0  0  0
 36 39  1  0  0  0  0
 36 41  1  0  0  0  0
 37 38  2  0  0  0  0
 37 45  1  0  0  0  0
 39 42  1  0  0  0  0
 39 43  1  0  0  0  0
 39 44  1  0  0  0  0
 45 46  1  0  0  0  0
 45 47  1  0  0  0  0
 46 48  1  0  0  0  0
 46 49  1  0  0  0  0
 46 50  1  0  0  0  0
M  CHG  1  23   1
M  END
$$$$

  -OEChem-05262216443D

 50 50  0     1  0  0  0  0  0999 V2000
   -3.0528   -0.0623    2.2127 C   0  0  0  0  0  0  0  0  0  0  0  0
   -2.8441   -0.0324    1.0063 O   0  0  0  0  0  0  0  0  0  0  0  0
   -3.7267   -1.2663    2.8406 C   0  0  0  0  0  0  0  0  0  0  0  0
   -4.0700   -1.9551    2.0638 H   0  0  0  0  0  0  0  0  0  0  0  0
   -3.0225   -1.7901    3.4918 H   0  0  0  0  0  0  0  0  0  0  0  0
   -4.5892   -0.9471    3.4308 H   0  0  0  0  0  0  0  0  0  0  0  0
   -2.6019    0.9722    3.0082 N   0  0  0  0  0  0  0  0  0  0  0  0
   -1.9661    2.2008    2.5052 C   0  0  2  0  0  0  0  0  0  0  0  0
   -0.5162    1.9606    2.0132 C   0  0  0  0  0  0  0  0  0  0  0  0
    0.4477    2.4019    2.6241 O   0  0  0  0  0  0  0  0  0  0  0  0
   -2.0494    3.2459    3.6253 C   0  0  0  0  0  0  0  0  0  0  0  0
   -2.7451    0.8798    4.0114 H   0  0  0  0  0  0  0  0  0  0  0  0
   -2.5407    2.5811    1.6536 H   0  0  0  0  0  0  0  0  0  0  0  0
   -1.4988    2.9104    4.5105 H   0  0  0  0  0  0  0  0  0  0  0  0
   -1.6203    4.1962    3.2921 H   0  0  0  0  0  0  0  0  0  0  0  0
   -3.0923    3.4207    3.9078 H   0  0  0  0  0  0  0  0  0  0  0  0
   -0.3438    1.2574    0.8321 N   0  0  0  0  0  0  0  0  0  0  0  0
    0.8076    0.4070    0.4555 C   0  0  2  0  0  0  0  0  0  0  0  0
    0.7550   -0.9382    1.2147 C   0  0  0  0  0  0  0  0  0  0  0  0
    1.7573   -1.4212    1.7261 O   0  0  0  0  0  0  0  0  0  0  0  0
    2.1952    1.0723    0.6071 C   0  0  0  0  0  0  0  0  0  0  0  0
    2.3310    2.2463   -0.3215 C   0  0  0  0  0  0  0  0  0  0  0  0
    2.5339    2.2096   -1.7000 N   0  3  0  0  0  0  0  0  0  0  0  0
    2.2986    3.5590    0.0656 C   0  0  0  0  0  0  0  0  0  0  0  0
    2.6231    3.4297   -2.1723 C   0  0  0  0  0  0  0  0  0  0  0  0
    2.4796    4.3029   -1.0937 N   0  0  0  0  0  0  0  0  0  0  0  0
   -1.2446    0.9369    0.4625 H   0  0  0  0  0  0  0  0  0  0  0  0
    0.6897    0.1510   -0.6021 H   0  0  0  0  0  0  0  0  0  0  0  0
    2.9764    0.3467    0.3555 H   0  0  0  0  0  0  0  0  0  0  0  0
    2.3807    1.3640    1.6445 H   0  0  0  0  0  0  0  0  0  0  0  0
    2.5968    1.3357   -2.2299 H   0  0  0  0  0  0  0  0  0  0  0  0
    2.1489    3.9162    1.0869 H   0  0  0  0  0  0  0  0  0  0  0  0
    2.7819    3.7089   -3.2153 H   0  0  0  0  0  0  0  0  0  0  0  0
    2.5063    5.3255   -1.1419 H   0  0  0  0  0  0  0  0  0  0  0  0
   -0.3518   -1.7448    1.0240 N   0  0  0  0  0  0  0  0  0  0  0  0
   -0.1769   -3.1834    0.7828 C   0  0  2  0  0  0  0  0  0  0  0  0
    0.3750   -3.4620   -0.6372 C   0  0  0  0  0  0  0  0  0  0  0  0
    0.4279   -2.5631   -1.4741 O   0  0  0  0  0  0  0  0  0  0  0  0
   -1.5391   -3.8535    0.9773 C   0  0  0  0  0  0  0  0  0  0  0  0
   -1.1088   -1.2988    0.5045 H   0  0  0  0  0  0  0  0  0  0  0  0
    0.5263   -3.6047    1.5099 H   0  0  0  0  0  0  0  0  0  0  0  0
   -2.2716   -3.4475    0.2717 H   0  0  0  0  0  0  0  0  0  0  0  0
   -1.4642   -4.9334    0.8163 H   0  0  0  0  0  0  0  0  0  0  0  0
   -1.9019   -3.6832    1.9953 H   0  0  0  0  0  0  0  0  0  0  0  0
    0.8211   -4.7246   -0.9796 N   0  0  0  0  0  0  0  0  0  0  0  0
    1.3536   -5.0586   -2.2958 C   0  0  0  0  0  0  0  0  0  0  0  0
    0.8093   -5.4419   -0.2598 H   0  0  0  0  0  0  0  0  0  0  0  0
    0.6043   -4.8697   -3.0720 H   0  0  0  0  0  0  0  0  0  0  0  0
    2.2445   -4.4599   -2.5127 H   0  0  0  0  0  0  0  0  0  0  0  0
    1.6310   -6.1167   -2.3354 H   0  0  0  0  0  0  0  0  0  0  0  0
  1  2  2  0  0  0  0
  1  3  1  0  0  0  0
  1  7  1  0  0  0  0
  3  4  1  0  0  0  0
  3  5  1  0  0  0  0
  3  6  1  0  0  0  0
  7  8  1  0  0  0  0
  7 12  1  0  0  0  0
  8  9  1  0  0  0  0
  8 11  1  0  0  0  0
  8 13  1  0  0  0  0
  9 10  2  0  0  0  0
  9 17  1  0  0  0  0
 11 14  1  0  0  0  0
 11 15  1  0  0  0  0
 11 16  1  0  0  0  0
 17 18  1  0  0  0  0
 17 27  1  0  0  0  0
 18 19  1  0  0  0  0
 18 21  1  0  0  0  0
 18 28  1  0  0  0  0
 19 20  2  0  0  0  0
 19 35  1  0  0  0  0
 21 22  1  0  0  0  0
 21 29  1  0  0  0  0
 21 30  1  0  0  0  0
 22 23  1  0  0  0  0
 22 24  2  0  0  0  0
 23 25  2  0  0  0  0
 23 31  1  0  0  0  0
 24 26  1  0  0  0  0
 24 32  1  0  0  0  0
 25 26  1  0  0  0  0
 25 33  1  0  0  0  0
 26 34  1  0  0  0  0
 35 36  1  0  0  0  0
 35 40  1  0  0  0  0
 36 37  1  0  0  0  0
 36 39  1  0  0  0  0
 36 41  1  0  0  0  0
 37 38  2  0  0  0  0
 37 45  1  0  0  0  0
 39 42  1  0  0  0  0
 39 43  1  0  0  0  0
 39 44  1  0  0  0  0
 45 46  1  0  0  0  0
 45 47  1  0  0  0  0
 46 48  1  0  0  0  0
 46 49  1  0  0  0  0
 46 50  1  0  0  0  0
M  CHG  1  23   1
M  END
$$$$

  -OEChem-05262216443D

 50 50  0     1  0  0  0  0  0999 V2000
   -3.0852    0.0265    2.1144 C   0  0  0  0  0  0  0  0  0  0  0  0
   -2.9572    0.1678    0.9050 O   0  0  0  0  0  0  0  0  0  0  0  0
   -3.6987   -1.2426    2.6719 C   0  0  0  0  0  0  0  0  0  0  0  0
   -4.0705   -1.8716    1.8584 H   0  0  0  0  0  0  0  0  0  0  0  0
   -2.9481   -1.8021    3.2362 H   0  0  0  0  0  0  0  0  0  0  0  0
   -4.5333   -0.9971    3.3333 H   0  0  0  0  0  0  0  0  0  0  0  0
   -2.5885    0.9907    2.9694 N   0  0  0  0  0  0  0  0  0  0  0  0
   -1.9668    2.2547    2.5396 C   0  0  2  0  0  0  0  0  0  0  0  0
   -0.5353    2.0462    1.9842 C   0  0  0  0  0  0  0  0  0  0  0  0
    0.4489    2.4963    2.5561 O   0  0  0  0  0  0  0  0  0  0  0  0
   -2.0086    3.2113    3.7378 C   0  0  0  0  0  0  0  0  0  0  0  0
   -2.6512    0.7993    3.9670 H   0  0  0  0  0  0  0  0  0  0  0  0
   -2.5661    2.6993    1.7376 H   0  0  0  0  0  0  0  0  0  0  0  0
   -1.4301    2.8076    4.5756 H   0  0  0  0  0  0  0  0  0  0  0  0
   -1.5863    4.1833    3.4633 H   0  0  0  0  0  0  0  0  0  0  0  0
   -3.0407    3.3662    4.0677 H   0  0  0  0  0  0  0  0  0  0  0  0
   -0.4053    1.3466    0.7960 N   0  0  0  0  0  0  0  0  0  0  0  0
    0.6911    0.4260    0.4283 C   0  0  2  0  0  0  0  0  0  0  0  0
    0.5297   -0.9123    1.1821 C   0  0  0  0  0  0  0  0  0  0  0  0
    1.3989   -1.3339    1.9342 O   0  0  0  0  0  0  0  0  0  0  0  0
    2.1207    0.9830    0.6109 C   0  0  0  0  0  0  0  0  0  0  0  0
    2.3596    2.1551   -0.2990 C   0  0  0  0  0  0  0  0  0  0  0  0
    2.5827    2.1194   -1.6745 N   0  3  0  0  0  0  0  0  0  0  0  0
    2.4054    3.4631    0.1020 C   0  0  0  0  0  0  0  0  0  0  0  0
    2.7587    3.3362   -2.1312 C   0  0  0  0  0  0  0  0  0  0  0  0
    2.6535    4.2057   -1.0452 N   0  0  0  0  0  0  0  0  0  0  0  0
   -1.3254    1.0560    0.4489 H   0  0  0  0  0  0  0  0  0  0  0  0
    0.5775    0.1904   -0.6345 H   0  0  0  0  0  0  0  0  0  0  0  0
    2.8466    0.1997    0.3662 H   0  0  0  0  0  0  0  0  0  0  0  0
    2.3083    1.2501    1.6548 H   0  0  0  0  0  0  0  0  0  0  0  0
    2.5987    1.2483   -2.2129 H   0  0  0  0  0  0  0  0  0  0  0  0
    2.2555    3.8193    1.1234 H   0  0  0  0  0  0  0  0  0  0  0  0
    2.9513    3.6163   -3.1683 H   0  0  0  0  0  0  0  0  0  0  0  0
    2.7406    5.2253   -1.0816 H   0  0  0  0  0  0  0  0  0  0  0  0
   -0.4543   -1.7792    0.7456 N   0  0  0  0  0  0  0  0  0  0  0  0
   -0.1407   -3.2025    0.5624 C   0  0  2  0  0  0  0  0  0  0  0  0
    0.7394   -3.4319   -0.6917 C   0  0  0  0  0  0  0  0  0  0  0  0
    0.9372   -2.5171   -1.4899 O   0  0  0  0  0  0  0  0  0  0  0  0
   -1.4675   -3.9575    0.4491 C   0  0  0  0  0  0  0  0  0  0  0  0
   -1.0860   -1.3759    0.0558 H   0  0  0  0  0  0  0  0  0  0  0  0
    0.4030   -3.5833    1.4343 H   0  0  0  0  0  0  0  0  0  0  0  0
   -2.0319   -3.6151   -0.4243 H   0  0  0  0  0  0  0  0  0  0  0  0
   -1.2913   -5.0330    0.3489 H   0  0  0  0  0  0  0  0  0  0  0  0
   -2.0751   -3.7916    1.3441 H   0  0  0  0  0  0  0  0  0  0  0  0
    1.3252   -4.6624   -0.9215 N   0  0  0  0  0  0  0  0  0  0  0  0
    2.1858   -4.9412   -2.0657 C   0  0  0  0  0  0  0  0  0  0  0  0
    1.1851   -5.3901   -0.2258 H   0  0  0  0  0  0  0  0  0  0  0  0
    1.6476   -4.7658   -3.0033 H   0  0  0  0  0  0  0  0  0  0  0  0
    3.0733   -4.3001   -2.0435 H   0  0  0  0  0  0  0  0  0  0  0  0
    2.5134   -5.9854   -2.0480 H   0  0  0  0  0  0  0  0  0  0  0  0
  1  2  2  0  0  0  0
  1  3  1  0  0  0  0
  1  7  1  0  0  0  0
  3  4  1  0  0  0  0
  3  5  1  0  0  0  0
  3  6  1  0  0  0  0
  7  8  1  0  0  0  0
  7 12  1  0  0  0  0
  8  9  1  0  0  0  0
  8 11  1  0  0  0  0
  8 13  1  0  0  0  0
  9 10  2  0  0  0  0
  9 17  1  0  0  0  0
 11 14  1  0  0  0  0
 11 15  1  0  0  0  0
 11 16  1  0  0  0  0
 17 18  1  0  0  0  0
 17 27  1  0  0  0  0
 18 19  1  0  0  0  0
 18 21  1  0  0  0  0
 18 28  1  0  0  0  0
 19 20  2  0  0  0  0
 19 35  1  0  0  0  0
 21 22  1  0  0  0  0
 21 29  1  0  0  0  0
 21 30  1  0  0  0  0
 22 23  1  0  0  0  0
 22 24  2  0  0  0  0
 23 25  2  0  0  0  0
 23 31  1  0  0  0  0
 24 26  1  0  0  0  0
 24 32  1  0  0  0  0
 25 26  1  0  0  0  0
 25 33  1  0  0  0  0
 26 34  1  0  0  0  0
 35 36  1  0  0  0  0
 35 40  1  0  0  0  0
 36 37  1  0  0  0  0
 36 39  1  0  0  0  0
 36 41  1  0  0  0  0
 37 38  2  0  0  0  0
 37 45  1  0  0  0  0
 39 42  1  0  0  0  0
 39 43  1  0  0  0  0
 39 44  1  0  0  0  0
 45 46  1  0  0  0  0
 45 47  1  0  0  0  0
 46 48  1  0  0  0  0
 46 49  1  0  0  0  0
 46 50  1  0  0  0  0
M  CHG  1  23   1
M  END
$$$$

  -OEChem-05262216443D

 50 50  0     1  0  0  0  0  0999 V2000
   -3.0911    0.0926    2.1754 C   0  0  0  0  0  0  0  0  0  0  0  0
   -3.0666    0.3108    0.9711 O   0  0  0  0  0  0  0  0  0  0  0  0
   -3.6441   -1.2163    2.7036 C   0  0  0  0  0  0  0  0  0  0  0  0
   -4.0929   -1.7930    1.8901 H   0  0  0  0  0  0  0  0  0  0  0  0
   -2.8404   -1.8057    3.1522 H   0  0  0  0  0  0  0  0  0  0  0  0
   -4.4095   -1.0215    3.4589 H   0  0  0  0  0  0  0  0  0  0  0  0
   -2.5293    1.0083    3.0430 N   0  0  0  0  0  0  0  0  0  0  0  0
   -1.9322    2.2921    2.6374 C   0  0  2  0  0  0  0  0  0  0  0  0
   -0.5432    2.1068    1.9751 C   0  0  0  0  0  0  0  0  0  0  0  0
    0.4778    2.5528    2.4836 O   0  0  0  0  0  0  0  0  0  0  0  0
   -1.8843    3.1845    3.8840 C   0  0  0  0  0  0  0  0  0  0  0  0
   -2.4936    0.7495    4.0265 H   0  0  0  0  0  0  0  0  0  0  0  0
   -2.5830    2.7797    1.9033 H   0  0  0  0  0  0  0  0  0  0  0  0
   -1.2433    2.7410    4.6530 H   0  0  0  0  0  0  0  0  0  0  0  0
   -1.4851    4.1715    3.6297 H   0  0  0  0  0  0  0  0  0  0  0  0
   -2.8884    3.3160    4.2991 H   0  0  0  0  0  0  0  0  0  0  0  0
   -0.4891    1.4332    0.7655 N   0  0  0  0  0  0  0  0  0  0  0  0
    0.5291    0.4300    0.3917 C   0  0  2  0  0  0  0  0  0  0  0  0
    0.2647   -0.9080    1.1127 C   0  0  0  0  0  0  0  0  0  0  0  0
    0.9503   -1.2730    2.0584 O   0  0  0  0  0  0  0  0  0  0  0  0
    2.0035    0.8480    0.5807 C   0  0  0  0  0  0  0  0  0  0  0  0
    2.3523    2.0015   -0.3167 C   0  0  0  0  0  0  0  0  0  0  0  0
    2.5704    1.9436   -1.6918 N   0  3  0  0  0  0  0  0  0  0  0  0
    2.5126    3.3010    0.0826 C   0  0  0  0  0  0  0  0  0  0  0  0
    2.8544    3.1388   -2.1509 C   0  0  0  0  0  0  0  0  0  0  0  0
    2.8254    4.0165   -1.0664 N   0  0  0  0  0  0  0  0  0  0  0  0
   -1.4360    1.1815    0.4624 H   0  0  0  0  0  0  0  0  0  0  0  0
    0.4016    0.2306   -0.6767 H   0  0  0  0  0  0  0  0  0  0  0  0
    2.6527    0.0005    0.3327 H   0  0  0  0  0  0  0  0  0  0  0  0
    2.2094    1.0904    1.6274 H   0  0  0  0  0  0  0  0  0  0  0  0
    2.5147    1.0710   -2.2257 H   0  0  0  0  0  0  0  0  0  0  0  0
    2.3908    3.6715    1.1029 H   0  0  0  0  0  0  0  0  0  0  0  0
    3.0729    3.3975   -3.1883 H   0  0  0  0  0  0  0  0  0  0  0  0
    2.9990    5.0250   -1.1052 H   0  0  0  0  0  0  0  0  0  0  0  0
   -0.5475   -1.8289    0.4794 N   0  0  0  0  0  0  0  0  0  0  0  0
   -0.0688   -3.2101    0.3323 C   0  0  2  0  0  0  0  0  0  0  0  0
    1.1008   -3.3051   -0.6811 C   0  0  0  0  0  0  0  0  0  0  0  0
    1.3942   -2.3431   -1.3917 O   0  0  0  0  0  0  0  0  0  0  0  0
   -1.2537   -4.0658   -0.1228 C   0  0  0  0  0  0  0  0  0  0  0  0
   -1.0442   -1.4539   -0.3253 H   0  0  0  0  0  0  0  0  0  0  0  0
    0.2843   -3.5893    1.2981 H   0  0  0  0  0  0  0  0  0  0  0  0
   -1.6181   -3.7310   -1.0994 H   0  0  0  0  0  0  0  0  0  0  0  0
   -0.9596   -5.1168   -0.2045 H   0  0  0  0  0  0  0  0  0  0  0  0
   -2.0737   -3.9934    0.5990 H   0  0  0  0  0  0  0  0  0  0  0  0
    1.8345   -4.4709   -0.7914 N   0  0  0  0  0  0  0  0  0  0  0  0
    2.9491   -4.6385   -1.7169 C   0  0  0  0  0  0  0  0  0  0  0  0
    1.5942   -5.2405   -0.1722 H   0  0  0  0  0  0  0  0  0  0  0  0
    2.6137   -4.5010   -2.7503 H   0  0  0  0  0  0  0  0  0  0  0  0
    3.7402   -3.9123   -1.5023 H   0  0  0  0  0  0  0  0  0  0  0  0
    3.3705   -5.6442   -1.6231 H   0  0  0  0  0  0  0  0  0  0  0  0
  1  2  2  0  0  0  0
  1  3  1  0  0  0  0
  1  7  1  0  0  0  0
  3  4  1  0  0  0  0
  3  5  1  0  0  0  0
  3  6  1  0  0  0  0
  7  8  1  0  0  0  0
  7 12  1  0  0  0  0
  8  9  1  0  0  0  0
  8 11  1  0  0  0  0
  8 13  1  0  0  0  0
  9 10  2  0  0  0  0
  9 17  1  0  0  0  0
 11 14  1  0  0  0  0
 11 15  1  0  0  0  0
 11 16  1  0  0  0  0
 17 18  1  0  0  0  0
 17 27  1  0  0  0  0
 18 19  1  0  0  0  0
 18 21  1  0  0  0  0
 18 28  1  0  0  0  0
 19 20  2  0  0  0  0
 19 35  1  0  0  0  0
 21 22  1  0  0  0  0
 21 29  1  0  0  0  0
 21 30  1  0  0  0  0
 22 23  1  0  0  0  0
 22 24  2  0  0  0  0
 23 25  2  0  0  0  0
 23 31  1  0  0  0  0
 24 26  1  0  0  0  0
 24 32  1  0  0  0  0
 25 26  1  0  0  0  0
 25 33  1  0  0  0  0
 26 34  1  0  0  0  0
 35 36  1  0  0  0  0
 35 40  1  0  0  0  0
 36 37  1  0  0  0  0
 36 39  1  0  0  0  0
 36 41  1  0  0  0  0
 37 38  2  0  0  0  0
 37 45  1  0  0  0  0
 39 42  1  0  0  0  0
 39 43  1  0  0  0  0
 39 44  1  0  0  0  0
 45 46  1  0  0  0  0
 45 47  1  0  0  0  0
 46 48  1  0  0  0  0
 46 49  1  0  0  0  0
 46 50  1  0  0  0  0
M  CHG  1  23   1
M  END
$$$$

  -OEChem-05262216443D

 50 50  0     1  0  0  0  0  0999 V2000
   -3.0811    0.1276    2.2094 C   0  0  0  0  0  0  0  0  0  0  0  0
   -3.1523    0.4340    1.0264 O   0  0  0  0  0  0  0  0  0  0  0  0
   -3.5455   -1.2382    2.6739 C   0  0  0  0  0  0  0  0  0  0  0  0
   -4.2810   -1.1315    3.4751 H   0  0  0  0  0  0  0  0  0  0  0  0
   -4.0059   -1.7822    1.8444 H   0  0  0  0  0  0  0  0  0  0  0  0
   -2.6937   -1.8149    3.0439 H   0  0  0  0  0  0  0  0  0  0  0  0
   -2.4722    0.9923    3.0967 N   0  0  0  0  0  0  0  0  0  0  0  0
   -1.8895    2.2917    2.7239 C   0  0  2  0  0  0  0  0  0  0  0  0
   -0.5388    2.1257    1.9836 C   0  0  0  0  0  0  0  0  0  0  0  0
    0.5111    2.5404    2.4600 O   0  0  0  0  0  0  0  0  0  0  0  0
   -1.7713    3.1231    4.0073 C   0  0  0  0  0  0  0  0  0  0  0  0
   -2.3158    0.6464    4.0409 H   0  0  0  0  0  0  0  0  0  0  0  0
   -2.5732    2.8170    2.0481 H   0  0  0  0  0  0  0  0  0  0  0  0
   -1.0908    2.6430    4.7180 H   0  0  0  0  0  0  0  0  0  0  0  0
   -1.3844    4.1211    3.7786 H   0  0  0  0  0  0  0  0  0  0  0  0
   -2.7510    3.2348    4.4824 H   0  0  0  0  0  0  0  0  0  0  0  0
   -0.5473    1.5000    0.7467 N   0  0  0  0  0  0  0  0  0  0  0  0
    0.3970    0.4375    0.3427 C   0  0  2  0  0  0  0  0  0  0  0  0
    0.0503   -0.9082    1.0112 C   0  0  0  0  0  0  0  0  0  0  0  0
    0.5160   -1.2147    2.1004 O   0  0  0  0  0  0  0  0  0  0  0  0
    1.8983    0.7339    0.5534 C   0  0  0  0  0  0  0  0  0  0  0  0
    2.3460    1.8865   -0.2997 C   0  0  0  0  0  0  0  0  0  0  0  0
    2.5705    1.8516   -1.6747 N   0  3  0  0  0  0  0  0  0  0  0  0
    2.6021    3.1575    0.1382 C   0  0  0  0  0  0  0  0  0  0  0  0
    2.9517    3.0336   -2.0960 C   0  0  0  0  0  0  0  0  0  0  0  0
    2.9790    3.8795   -0.9869 N   0  0  0  0  0  0  0  0  0  0  0  0
   -1.5141    1.2990    0.4690 H   0  0  0  0  0  0  0  0  0  0  0  0
    0.2612    0.2933   -0.7332 H   0  0  0  0  0  0  0  0  0  0  0  0
    2.4849   -0.1512    0.2838 H   0  0  0  0  0  0  0  0  0  0  0  0
    2.1115    0.9263    1.6092 H   0  0  0  0  0  0  0  0  0  0  0  0
    2.4626    0.9984   -2.2320 H   0  0  0  0  0  0  0  0  0  0  0  0
    2.4981    3.5086    1.1671 H   0  0  0  0  0  0  0  0  0  0  0  0
    3.2028    3.3045   -3.1226 H   0  0  0  0  0  0  0  0  0  0  0  0
    3.2275    4.8727   -0.9950 H   0  0  0  0  0  0  0  0  0  0  0  0
   -0.5471   -1.8830    0.2358 N   0  0  0  0  0  0  0  0  0  0  0  0
    0.0748   -3.2128    0.1832 C   0  0  2  0  0  0  0  0  0  0  0  0
    1.3786   -3.1880   -0.6544 C   0  0  0  0  0  0  0  0  0  0  0  0
    1.6643   -2.2016   -1.3350 O   0  0  0  0  0  0  0  0  0  0  0  0
   -0.9434   -4.1829   -0.4215 C   0  0  0  0  0  0  0  0  0  0  0  0
   -0.8832   -1.5384   -0.6598 H   0  0  0  0  0  0  0  0  0  0  0  0
    0.3222   -3.5550    1.1946 H   0  0  0  0  0  0  0  0  0  0  0  0
   -1.1943   -3.8898   -1.4462 H   0  0  0  0  0  0  0  0  0  0  0  0
   -0.5407   -5.2005   -0.4410 H   0  0  0  0  0  0  0  0  0  0  0  0
   -1.8618   -4.1889    0.1744 H   0  0  0  0  0  0  0  0  0  0  0  0
    2.2493   -4.2601   -0.6267 N   0  0  0  0  0  0  0  0  0  0  0  0
    3.5075   -4.2956   -1.3633 C   0  0  0  0  0  0  0  0  0  0  0  0
    2.0101   -5.0482   -0.0303 H   0  0  0  0  0  0  0  0  0  0  0  0
    3.3258   -4.1989   -2.4390 H   0  0  0  0  0  0  0  0  0  0  0  0
    4.1640   -3.4803   -1.0414 H   0  0  0  0  0  0  0  0  0  0  0  0
    4.0239   -5.2441   -1.1853 H   0  0  0  0  0  0  0  0  0  0  0  0
  1  2  2  0  0  0  0
  1  3  1  0  0  0  0
  1  7  1  0  0  0  0
  3  4  1  0  0  0  0
  3  5  1  0  0  0  0
  3  6  1  0  0  0  0
  7  8  1  0  0  0  0
  7 12  1  0  0  0  0
  8  9  1  0  0  0  0
  8 11  1  0  0  0  0
  8 13  1  0  0  0  0
  9 10  2  0  0  0  0
  9 17  1  0  0  0  0
 11 14  1  0  0  0  0
 11 15  1  0  0  0  0
 11 16  1  0  0  0  0
 17 18  1  0  0  0  0
 17 27  1  0  0  0  0
 18 19  1  0  0  0  0
 18 21  1  0  0  0  0
 18 28  1  0  0  0  0
 19 20  2  0  0  0  0
 19 35  1  0  0  0  0
 21 22  1  0  0  0  0
 21 29  1  0  0  0  0
 21 30  1  0  0  0  0
 22 23  1  0  0  0  0
 22 24  2  0  0  0  0
 23 25  2  0  0  0  0
 23 31  1  0  0  0  0
 24 26  1  0  0  0  0
 24 32  1  0  0  0  0
 25 26  1  0  0  0  0
 25 33  1  0  0  0  0
 26 34  1  0  0  0  0
 35 36  1  0  0  0  0
 35 40  1  0  0  0  0
 36 37  1  0  0  0  0
 36 39  1  0  0  0  0
 36 41  1  0  0  0  0
 37 38  2  0  0  0  0
 37 45  1  0  0  0  0
 39 42  1  0  0  0  0
 39 43  1  0  0  0  0
 39 44  1  0  0  0  0
 45 46  1  0  0  0  0
 45 47  1  0  0  0  0
 46 48  1  0  0  0  0
 46 49  1  0  0  0  0
 46 50  1  0  0  0  0
M  CHG  1  23   1
M  END
$$$$

  -OEChem-05262216443D

 50 50  0     1  0  0  0  0  0999 V2000
   -2.9047    0.0369    2.3326 C   0  0  0  0  0  0  0  0  0  0  0  0
   -3.1269    0.5119    1.2263 O   0  0  0  0  0  0  0  0  0  0  0  0
   -3.2553   -1.4080    2.6287 C   0  0  0  0  0  0  0  0  0  0  0  0
   -2.3447   -1.9779    2.8314 H   0  0  0  0  0  0  0  0  0  0  0  0
   -3.9128   -1.4618    3.4997 H   0  0  0  0  0  0  0  0  0  0  0  0
   -3.7670   -1.8558    1.7724 H   0  0  0  0  0  0  0  0  0  0  0  0
   -2.2263    0.7915    3.2683 N   0  0  0  0  0  0  0  0  0  0  0  0
   -1.6877    2.1357    3.0065 C   0  0  2  0  0  0  0  0  0  0  0  0
   -0.4111    2.0753    2.1310 C   0  0  0  0  0  0  0  0  0  0  0  0
    0.6800    2.4281    2.5637 O   0  0  0  0  0  0  0  0  0  0  0  0
   -1.4557    2.8077    4.3653 C   0  0  0  0  0  0  0  0  0  0  0  0
   -1.8978    0.2966    4.0945 H   0  0  0  0  0  0  0  0  0  0  0  0
   -2.4318    2.7294    2.4644 H   0  0  0  0  0  0  0  0  0  0  0  0
   -0.7184    2.2495    4.9516 H   0  0  0  0  0  0  0  0  0  0  0  0
   -1.0867    3.8289    4.2272 H   0  0  0  0  0  0  0  0  0  0  0  0
   -2.3908    2.8539    4.9321 H   0  0  0  0  0  0  0  0  0  0  0  0
   -0.5365    1.6126    0.8292 N   0  0  0  0  0  0  0  0  0  0  0  0
    0.3534    0.6108    0.2032 C   0  0  2  0  0  0  0  0  0  0  0  0
    0.0406   -0.8050    0.7303 C   0  0  0  0  0  0  0  0  0  0  0  0
    0.2839   -1.1118    1.8904 O   0  0  0  0  0  0  0  0  0  0  0  0
    1.8725    0.8504    0.3561 C   0  0  0  0  0  0  0  0  0  0  0  0
    2.3114    2.1153   -0.3322 C   0  0  0  0  0  0  0  0  0  0  0  0
    2.4629    2.3118   -1.7043 N   0  3  0  0  0  0  0  0  0  0  0  0
    2.6459    3.2858    0.2955 C   0  0  0  0  0  0  0  0  0  0  0  0
    2.8703    3.5358   -1.9419 C   0  0  0  0  0  0  0  0  0  0  0  0
    2.9898    4.1785   -0.7105 N   0  0  0  0  0  0  0  0  0  0  0  0
   -1.5271    1.4423    0.6228 H   0  0  0  0  0  0  0  0  0  0  0  0
    0.1316    0.6149   -0.8674 H   0  0  0  0  0  0  0  0  0  0  0  0
    2.4178    0.0083   -0.0838 H   0  0  0  0  0  0  0  0  0  0  0  0
    2.1526    0.8696    1.4140 H   0  0  0  0  0  0  0  0  0  0  0  0
    2.3037    1.5713   -2.3925 H   0  0  0  0  0  0  0  0  0  0  0  0
    2.6178    3.4609    1.3731 H   0  0  0  0  0  0  0  0  0  0  0  0
    3.0814    3.9699   -2.9206 H   0  0  0  0  0  0  0  0  0  0  0  0
    3.2806    5.1494   -0.5643 H   0  0  0  0  0  0  0  0  0  0  0  0
   -0.3535   -1.7825   -0.1630 N   0  0  0  0  0  0  0  0  0  0  0  0
    0.1492   -3.1558   -0.0234 C   0  0  2  0  0  0  0  0  0  0  0  0
    1.5606   -3.2861   -0.6439 C   0  0  0  0  0  0  0  0  0  0  0  0
    2.0174   -2.3716   -1.3288 O   0  0  0  0  0  0  0  0  0  0  0  0
   -0.8461   -4.0911   -0.7143 C   0  0  0  0  0  0  0  0  0  0  0  0
   -0.4453   -1.4584   -1.1220 H   0  0  0  0  0  0  0  0  0  0  0  0
    0.2117   -3.4383    1.0333 H   0  0  0  0  0  0  0  0  0  0  0  0
   -0.9132   -3.8621   -1.7829 H   0  0  0  0  0  0  0  0  0  0  0  0
   -0.5351   -5.1345   -0.6023 H   0  0  0  0  0  0  0  0  0  0  0  0
   -1.8409   -3.9796   -0.2708 H   0  0  0  0  0  0  0  0  0  0  0  0
    2.3244   -4.4169   -0.4277 N   0  0  0  0  0  0  0  0  0  0  0  0
    3.6641   -4.5987   -0.9751 C   0  0  0  0  0  0  0  0  0  0  0  0
    1.9349   -5.1462    0.1639 H   0  0  0  0  0  0  0  0  0  0  0  0
    3.6394   -4.5663   -2.0696 H   0  0  0  0  0  0  0  0  0  0  0  0
    4.3368   -3.8136   -0.6139 H   0  0  0  0  0  0  0  0  0  0  0  0
    4.0704   -5.5677   -0.6686 H   0  0  0  0  0  0  0  0  0  0  0  0
  1  2  2  0  0  0  0
  1  3  1  0  0  0  0
  1  7  1  0  0  0  0
  3  4  1  0  0  0  0
  3  5  1  0  0  0  0
  3  6  1  0  0  0  0
  7  8  1  0  0  0  0
  7 12  1  0  0  0  0
  8  9  1  0  0  0  0
  8 11  1  0  0  0  0
  8 13  1  0  0  0  0
  9 10  2  0  0  0  0
  9 17  1  0  0  0  0
 11 14  1  0  0  0  0
 11 15  1  0  0  0  0
 11 16  1  0  0  0  0
 17 18  1  0  0  0  0
 17 27  1  0  0  0  0
 18 19  1  0  0  0  0
 18 21  1  0  0  0  0
 18 28  1  0  0  0  0
 19 20  2  0  0  0  0
 19 35  1  0  0  0  0
 21 22  1  0  0  0  0
 21 29  1  0  0  0  0
 21 30  1  0  0  0  0
 22 23  1  0  0  0  0
 22 24  2  0  0  0  0
 23 25  2  0  0  0  0
 23 31  1  0  0  0  0
 24 26  1  0  0  0  0
 24 32  1  0  0  0  0
 25 26  1  0  0  0  0
 25 33  1  0  0  0  0
 26 34  1  0  0  0  0
 35 36  1  0  0  0  0
 35 40  1  0  0  0  0
 36 37  1  0  0  0  0
 36 39  1  0  0  0  0
 36 41  1  0  0  0  0
 37 38  2  0  0  0  0
 37 45  1  0  0  0  0
 39 42  1  0  0  0  0
 39 43  1  0  0  0  0
 39 44  1  0  0  0  0
 45 46  1  0  0  0  0
 45 47  1  0  0  0  0
 46 48  1  0  0  0  0
 46 49  1  0  0  0  0
 46 50  1  0  0  0  0
M  CHG  1  23   1
M  END
$$$$

  -OEChem-05262216443D

 50 50  0     1  0  0  0  0  0999 V2000
   -3.6177    0.6032    4.1257 C   0  0  0  0  0  0  0  0  0  0  0  0
   -4.5976    0.7174    3.4073 O   0  0  0  0  0  0  0  0  0  0  0  0
   -3.7262   -0.1185    5.4550 C   0  0  0  0  0  0  0  0  0  0  0  0
   -4.7536   -0.4586    5.6148 H   0  0  0  0  0  0  0  0  0  0  0  0
   -3.0630   -0.9868    5.4640 H   0  0  0  0  0  0  0  0  0  0  0  0
   -3.4475    0.5542    6.2695 H   0  0  0  0  0  0  0  0  0  0  0  0
   -2.4080    1.1263    3.7168 N   0  0  0  0  0  0  0  0  0  0  0  0
   -2.1736    1.6990    2.3850 C   0  0  2  0  0  0  0  0  0  0  0  0
   -0.7662    1.3582    1.8555 C   0  0  0  0  0  0  0  0  0  0  0  0
    0.1787    1.3530    2.6363 O   0  0  0  0  0  0  0  0  0  0  0  0
   -2.3713    3.2147    2.4729 C   0  0  0  0  0  0  0  0  0  0  0  0
   -1.5927    0.9233    4.2930 H   0  0  0  0  0  0  0  0  0  0  0  0
   -2.8974    1.2858    1.6739 H   0  0  0  0  0  0  0  0  0  0  0  0
   -1.6609    3.6548    3.1800 H   0  0  0  0  0  0  0  0  0  0  0  0
   -2.2240    3.6792    1.4935 H   0  0  0  0  0  0  0  0  0  0  0  0
   -3.3869    3.4429    2.8131 H   0  0  0  0  0  0  0  0  0  0  0  0
   -0.5784    1.1699    0.4907 N   0  0  0  0  0  0  0  0  0  0  0  0
    0.4727    0.3412   -0.1530 C   0  0  2  0  0  0  0  0  0  0  0  0
    0.1571   -1.1656   -0.0288 C   0  0  0  0  0  0  0  0  0  0  0  0
   -0.0780   -1.6624    1.0630 O   0  0  0  0  0  0  0  0  0  0  0  0
    1.9078    0.5365    0.3914 C   0  0  0  0  0  0  0  0  0  0  0  0
    2.4236    1.9305    0.1495 C   0  0  0  0  0  0  0  0  0  0  0  0
    2.8705    2.4843   -1.0506 N   0  3  0  0  0  0  0  0  0  0  0  0
    2.5401    2.8910    1.1193 C   0  0  0  0  0  0  0  0  0  0  0  0
    3.2581    3.7232   -0.8579 C   0  0  0  0  0  0  0  0  0  0  0  0
    3.0561    4.0159    0.4900 N   0  0  0  0  0  0  0  0  0  0  0  0
   -1.4543    1.2212   -0.0261 H   0  0  0  0  0  0  0  0  0  0  0  0
    0.4797    0.5921   -1.2172 H   0  0  0  0  0  0  0  0  0  0  0  0
    2.5817   -0.1671   -0.1090 H   0  0  0  0  0  0  0  0  0  0  0  0
    1.9589    0.2814    1.4540 H   0  0  0  0  0  0  0  0  0  0  0  0
    2.9308    1.9512   -1.9219 H   0  0  0  0  0  0  0  0  0  0  0  0
    2.2621    2.7712    2.1690 H   0  0  0  0  0  0  0  0  0  0  0  0
    3.6720    4.3977   -1.6096 H   0  0  0  0  0  0  0  0  0  0  0  0
    3.2642    4.9073    0.9496 H   0  0  0  0  0  0  0  0  0  0  0  0
    0.3075   -1.9813   -1.1351 N   0  0  0  0  0  0  0  0  0  0  0  0
    0.7387   -3.3790   -0.9883 C   0  0  2  0  0  0  0  0  0  0  0  0
    2.2812   -3.4674   -0.9568 C   0  0  0  0  0  0  0  0  0  0  0  0
    2.9535   -2.5050   -1.3239 O   0  0  0  0  0  0  0  0  0  0  0  0
    0.1681   -4.1760   -2.1637 C   0  0  0  0  0  0  0  0  0  0  0  0
    0.6632   -1.5136   -1.9639 H   0  0  0  0  0  0  0  0  0  0  0  0
    0.3502   -3.8109   -0.0593 H   0  0  0  0  0  0  0  0  0  0  0  0
    0.5489   -3.7892   -3.1145 H   0  0  0  0  0  0  0  0  0  0  0  0
    0.4462   -5.2316   -2.0828 H   0  0  0  0  0  0  0  0  0  0  0  0
   -0.9245   -4.1083   -2.1713 H   0  0  0  0  0  0  0  0  0  0  0  0
    2.9149   -4.6110   -0.5112 N   0  0  0  0  0  0  0  0  0  0  0  0
    4.3648   -4.7436   -0.4246 C   0  0  0  0  0  0  0  0  0  0  0  0
    2.3329   -5.3713   -0.1693 H   0  0  0  0  0  0  0  0  0  0  0  0
    4.8250   -4.5738   -1.4038 H   0  0  0  0  0  0  0  0  0  0  0  0
    4.7746   -4.0205    0.2883 H   0  0  0  0  0  0  0  0  0  0  0  0
    4.6335   -5.7500   -0.0885 H   0  0  0  0  0  0  0  0  0  0  0  0
  1  2  2  0  0  0  0
  1  3  1  0  0  0  0
  1  7  1  0  0  0  0
  3  4  1  0  0  0  0
  3  5  1  0  0  0  0
  3  6  1  0  0  0  0
  7  8  1  0  0  0  0
  7 12  1  0  0  0  0
  8  9  1  0  0  0  0
  8 11  1  0  0  0  0
  8 13  1  0  0  0  0
  9 10  2  0  0  0  0
  9 17  1  0  0  0  0
 11 14  1  0  0  0  0
 11 15  1  0  0  0  0
 11 16  1  0  0  0  0
 17 18  1  0  0  0  0
 17 27  1  0  0  0  0
 18 19  1  0  0  0  0
 18 21  1  0  0  0  0
 18 28  1  0  0  0  0
 19 20  2  0  0  0  0
 19 35  1  0  0  0  0
 21 22  1  0  0  0  0
 21 29  1  0  0  0  0
 21 30  1  0  0  0  0
 22 23  1  0  0  0  0
 22 24  2  0  0  0  0
 23 25  2  0  0  0  0
 23 31  1  0  0  0  0
 24 26  1  0  0  0  0
 24 32  1  0  0  0  0
 25 26  1  0  0  0  0
 25 33  1  0  0  0  0
 26 34  1  0  0  0  0
 35 36  1  0  0  0  0
 35 40  1  0  0  0  0
 36 37  1  0  0  0  0
 36 39  1  0  0  0  0
 36 41  1  0  0  0  0
 37 38  2  0  0  0  0
 37 45  1  0  0  0  0
 39 42  1  0  0  0  0
 39 43  1  0  0  0  0
 39 44  1  0  0  0  0
 45 46  1  0  0  0  0
 45 47  1  0  0  0  0
 46 48  1  0  0  0  0
 46 49  1  0  0  0  0
 46 50  1  0  0  0  0
M  CHG  1  23   1
M  END
$$$$

  -OEChem-05262216443D

 50 50  0     1  0  0  0  0  0999 V2000
   -3.6025    0.6025    4.2016 C   0  0  0  0  0  0  0  0  0  0  0  0
   -4.6113    0.7469    3.5301 O   0  0  0  0  0  0  0  0  0  0  0  0
   -3.6822   -0.0465    5.5700 C   0  0  0  0  0  0  0  0  0  0  0  0
   -4.7247   -0.2557    5.8259 H   0  0  0  0  0  0  0  0  0  0  0  0
   -3.1236   -0.9856    5.5701 H   0  0  0  0  0  0  0  0  0  0  0  0
   -3.2632    0.6209    6.3267 H   0  0  0  0  0  0  0  0  0  0  0  0
   -2.3877    1.0307    3.7068 N   0  0  0  0  0  0  0  0  0  0  0  0
   -2.1949    1.5451    2.3447 C   0  0  2  0  0  0  0  0  0  0  0  0
   -0.7730    1.2650    1.8151 C   0  0  0  0  0  0  0  0  0  0  0  0
    0.1621    1.2228    2.6074 O   0  0  0  0  0  0  0  0  0  0  0  0
   -2.4812    3.0499    2.3516 C   0  0  0  0  0  0  0  0  0  0  0  0
   -1.5545    0.8065    4.2484 H   0  0  0  0  0  0  0  0  0  0  0  0
   -2.8989    1.0477    1.6684 H   0  0  0  0  0  0  0  0  0  0  0  0
   -1.7952    3.5672    3.0297 H   0  0  0  0  0  0  0  0  0  0  0  0
   -2.3662    3.4691    1.3479 H   0  0  0  0  0  0  0  0  0  0  0  0
   -3.5066    3.2378    2.6864 H   0  0  0  0  0  0  0  0  0  0  0  0
   -0.5628    1.1678    0.4438 N   0  0  0  0  0  0  0  0  0  0  0  0
    0.5114    0.3988   -0.2374 C   0  0  2  0  0  0  0  0  0  0  0  0
    0.2217   -1.1205   -0.2166 C   0  0  0  0  0  0  0  0  0  0  0  0
   -0.3418   -1.6366    0.7376 O   0  0  0  0  0  0  0  0  0  0  0  0
    1.9342    0.5868    0.3427 C   0  0  0  0  0  0  0  0  0  0  0  0
    2.4237    2.0045    0.1975 C   0  0  0  0  0  0  0  0  0  0  0  0
    2.8774    2.6468   -0.9554 N   0  3  0  0  0  0  0  0  0  0  0  0
    2.5105    2.8994    1.2315 C   0  0  0  0  0  0  0  0  0  0  0  0
    3.2394    3.8761   -0.6741 C   0  0  0  0  0  0  0  0  0  0  0  0
    3.0142    4.0730    0.6872 N   0  0  0  0  0  0  0  0  0  0  0  0
   -1.4364    1.2213   -0.0765 H   0  0  0  0  0  0  0  0  0  0  0  0
    0.5249    0.7166   -1.2838 H   0  0  0  0  0  0  0  0  0  0  0  0
    2.6332   -0.0669   -0.1895 H   0  0  0  0  0  0  0  0  0  0  0  0
    1.9750    0.2638    1.3871 H   0  0  0  0  0  0  0  0  0  0  0  0
    2.9527    2.1798   -1.8621 H   0  0  0  0  0  0  0  0  0  0  0  0
    2.2222    2.7049    2.2672 H   0  0  0  0  0  0  0  0  0  0  0  0
    3.6495    4.6074   -1.3732 H   0  0  0  0  0  0  0  0  0  0  0  0
    3.1988    4.9351    1.2085 H   0  0  0  0  0  0  0  0  0  0  0  0
    0.6852   -1.9172   -1.2477 N   0  0  0  0  0  0  0  0  0  0  0  0
    1.0188   -3.3327   -1.0288 C   0  0  2  0  0  0  0  0  0  0  0  0
    2.4979   -3.4786   -0.6083 C   0  0  0  0  0  0  0  0  0  0  0  0
    3.2791   -2.5516   -0.8125 O   0  0  0  0  0  0  0  0  0  0  0  0
    0.7473   -4.0896   -2.3309 C   0  0  0  0  0  0  0  0  0  0  0  0
    1.2793   -1.4431   -1.9217 H   0  0  0  0  0  0  0  0  0  0  0  0
    0.3928   -3.7661   -0.2407 H   0  0  0  0  0  0  0  0  0  0  0  0
    1.3731   -3.7012   -3.1410 H   0  0  0  0  0  0  0  0  0  0  0  0
    0.9636   -5.1554   -2.2071 H   0  0  0  0  0  0  0  0  0  0  0  0
   -0.3033   -3.9834   -2.6192 H   0  0  0  0  0  0  0  0  0  0  0  0
    2.9528   -4.6344   -0.0039 N   0  0  0  0  0  0  0  0  0  0  0  0
    4.3294   -4.8185    0.4424 C   0  0  0  0  0  0  0  0  0  0  0  0
    2.2743   -5.3671    0.1871 H   0  0  0  0  0  0  0  0  0  0  0  0
    5.0245   -4.7056   -0.3963 H   0  0  0  0  0  0  0  0  0  0  0  0
    4.5849   -4.0834    1.2130 H   0  0  0  0  0  0  0  0  0  0  0  0
    4.4600   -5.8202    0.8634 H   0  0  0  0  0  0  0  0  0  0  0  0
  1  2  2  0  0  0  0
  1  3  1  0  0  0  0
  1  7  1  0  0  0  0
  3  4  1  0  0  0  0
  3  5  1  0  0  0  0
  3  6  1  0  0  0  0
  7  8  1  0  0  0  0
  7 12  1  0  0  0  0
  8  9  1  0  0  0  0
  8 11  1  0  0  0  0
  8 13  1  0  0  0  0
  9 10  2  0  0  0  0
  9 17  1  0  0  0  0
 11 14  1  0  0  0  0
 11 15  1  0  0  0  0
 11 16  1  0  0  0  0
 17 18  1  0  0  0  0
 17 27  1  0  0  0  0
 18 19  1  0  0  0  0
 18 21  1  0  0  0  0
 18 28  1  0  0  0  0
 19 20  2  0  0  0  0
 19 35  1  0  0  0  0
 21 22  1  0  0  0  0
 21 29  1  0  0  0  0
 21 30  1  0  0  0  0
 22 23  1  0  0  0  0
 22 24  2  0  0  0  0
 23 25  2  0  0  0  0
 23 31  1  0  0  0  0
 24 26  1  0  0  0  0
 24 32  1  0  0  0  0
 25 26  1  0  0  0  0
 25 33  1  0  0  0  0
 26 34  1  0  0  0  0
 35 36  1  0  0  0  0
 35 40  1  0  0  0  0
 36 37  1  0  0  0  0
 36 39  1  0  0  0  0
 36 41  1  0  0  0  0
 37 38  2  0  0  0  0
 37 45  1  0  0  0  0
 39 42  1  0  0  0  0
 39 43  1  0  0  0  0
 39 44  1  0  0  0  0
 45 46  1  0  0  0  0
 45 47  1  0  0  0  0
 46 48  1  0  0  0  0
 46 49  1  0  0  0  0
 46 50  1  0  0  0  0
M  CHG  1  23   1
M  END
$$$$

  -OEChem-05262216443D

 50 50  0     1  0  0  0  0  0999 V2000
   -3.6085    0.5168    4.1512 C   0  0  0  0  0  0  0  0  0  0  0  0
   -4.6177    0.6595    3.4803 O   0  0  0  0  0  0  0  0  0  0  0  0
   -3.6859   -0.1345    5.5184 C   0  0  0  0  0  0  0  0  0  0  0  0
   -4.7298   -0.3177    5.7883 H   0  0  0  0  0  0  0  0  0  0  0  0
   -3.1521   -1.0876    5.5078 H   0  0  0  0  0  0  0  0  0  0  0  0
   -3.2381    0.5192    6.2706 H   0  0  0  0  0  0  0  0  0  0  0  0
   -2.3940    0.9466    3.6572 N   0  0  0  0  0  0  0  0  0  0  0  0
   -2.1988    1.4544    2.2929 C   0  0  2  0  0  0  0  0  0  0  0  0
   -0.7643    1.2068    1.7824 C   0  0  0  0  0  0  0  0  0  0  0  0
    0.1539    1.1207    2.5911 O   0  0  0  0  0  0  0  0  0  0  0  0
   -2.5186    2.9527    2.2798 C   0  0  0  0  0  0  0  0  0  0  0  0
   -1.5608    0.7166    4.1964 H   0  0  0  0  0  0  0  0  0  0  0  0
   -2.8813    0.9325    1.6125 H   0  0  0  0  0  0  0  0  0  0  0  0
   -1.8536    3.4917    2.9618 H   0  0  0  0  0  0  0  0  0  0  0  0
   -2.3974    3.3640    1.2733 H   0  0  0  0  0  0  0  0  0  0  0  0
   -3.5526    3.1225    2.5974 H   0  0  0  0  0  0  0  0  0  0  0  0
   -0.5281    1.1765    0.4126 N   0  0  0  0  0  0  0  0  0  0  0  0
    0.5691    0.4566   -0.2858 C   0  0  2  0  0  0  0  0  0  0  0  0
    0.2917   -1.0669   -0.3353 C   0  0  0  0  0  0  0  0  0  0  0  0
   -0.5370   -1.5773    0.4053 O   0  0  0  0  0  0  0  0  0  0  0  0
    1.9781    0.6581    0.3274 C   0  0  0  0  0  0  0  0  0  0  0  0
    2.4258    2.0951    0.2418 C   0  0  0  0  0  0  0  0  0  0  0  0
    2.8781    2.7999   -0.8753 N   0  3  0  0  0  0  0  0  0  0  0  0
    2.4706    2.9479    1.3139 C   0  0  0  0  0  0  0  0  0  0  0  0
    3.1924    4.0283   -0.5372 C   0  0  0  0  0  0  0  0  0  0  0  0
    2.9451    4.1588    0.8281 N   0  0  0  0  0  0  0  0  0  0  0  0
   -1.3956    1.2297   -0.1183 H   0  0  0  0  0  0  0  0  0  0  0  0
    0.5910    0.8132   -1.3195 H   0  0  0  0  0  0  0  0  0  0  0  0
    2.7075    0.0479   -0.2144 H   0  0  0  0  0  0  0  0  0  0  0  0
    2.0124    0.2973    1.3593 H   0  0  0  0  0  0  0  0  0  0  0  0
    2.9726    2.3791   -1.8026 H   0  0  0  0  0  0  0  0  0  0  0  0
    2.1750    2.7010    2.3362 H   0  0  0  0  0  0  0  0  0  0  0  0
    3.5822    4.8040   -1.1991 H   0  0  0  0  0  0  0  0  0  0  0  0
    3.0976    5.0025    1.3887 H   0  0  0  0  0  0  0  0  0  0  0  0
    1.0155   -1.8714   -1.1968 N   0  0  0  0  0  0  0  0  0  0  0  0
    1.2572   -3.2920   -0.9020 C   0  0  2  0  0  0  0  0  0  0  0  0
    2.6163   -3.4621   -0.1885 C   0  0  0  0  0  0  0  0  0  0  0  0
    3.4371   -2.5480   -0.2297 O   0  0  0  0  0  0  0  0  0  0  0  0
    1.2301   -4.0630   -2.2240 C   0  0  0  0  0  0  0  0  0  0  0  0
    1.7840   -1.4073   -1.6727 H   0  0  0  0  0  0  0  0  0  0  0  0
    0.4761   -3.6989   -0.2503 H   0  0  0  0  0  0  0  0  0  0  0  0
    2.0138   -3.7031   -2.8984 H   0  0  0  0  0  0  0  0  0  0  0  0
    1.3888   -5.1315   -2.0477 H   0  0  0  0  0  0  0  0  0  0  0  0
    0.2602   -3.9362   -2.7156 H   0  0  0  0  0  0  0  0  0  0  0  0
    2.9161   -4.6193    0.5037 N   0  0  0  0  0  0  0  0  0  0  0  0
    4.1646   -4.8160    1.2324 C   0  0  0  0  0  0  0  0  0  0  0  0
    2.1976   -5.3364    0.5610 H   0  0  0  0  0  0  0  0  0  0  0  0
    5.0233   -4.7092    0.5611 H   0  0  0  0  0  0  0  0  0  0  0  0
    4.2571   -4.0832    2.0410 H   0  0  0  0  0  0  0  0  0  0  0  0
    4.1940   -5.8189    1.6698 H   0  0  0  0  0  0  0  0  0  0  0  0
  1  2  2  0  0  0  0
  1  3  1  0  0  0  0
  1  7  1  0  0  0  0
  3  4  1  0  0  0  0
  3  5  1  0  0  0  0
  3  6  1  0  0  0  0
  7  8  1  0  0  0  0
  7 12  1  0  0  0  0
  8  9  1  0  0  0  0
  8 11  1  0  0  0  0
  8 13  1  0  0  0  0
  9 10  2  0  0  0  0
  9 17  1  0  0  0  0
 11 14  1  0  0  0  0
 11 15  1  0  0  0  0
 11 16  1  0  0  0  0
 17 18  1  0  0  0  0
 17 27  1  0  0  0  0
 18 19  1  0  0  0  0
 18 21  1  0  0  0  0
 18 28  1  0  0  0  0
 19 20  2  0  0  0  0
 19 35  1  0  0  0  0
 21 22  1  0  0  0  0
 21 29  1  0  0  0  0
 21 30  1  0  0  0  0
 22 23  1  0  0  0  0
 22 24  2  0  0  0  0
 23 25  2  0  0  0  0
 23 31  1  0  0  0  0
 24 26  1  0  0  0  0
 24 32  1  0  0  0  0
 25 26  1  0  0  0  0
 25 33  1  0  0  0  0
 26 34  1  0  0  0  0
 35 36  1  0  0  0  0
 35 40  1  0  0  0  0
 36 37  1  0  0  0  0
 36 39  1  0  0  0  0
 36 41  1  0  0  0  0
 37 38  2  0  0  0  0
 37 45  1  0  0  0  0
 39 42  1  0  0  0  0
 39 43  1  0  0  0  0
 39 44  1  0  0  0  0
 45 46  1  0  0  0  0
 45 47  1  0  0  0  0
 46 48  1  0  0  0  0
 46 49  1  0  0  0  0
 46 50  1  0  0  0  0
M  CHG  1  23   1
M  END
$$$$

  -OEChem-05262216443D

 50 50  0     1  0  0  0  0  0999 V2000
   -3.7367    0.5516    4.0242 C   0  0  0  0  0  0  0  0  0  0  0  0
   -4.6969    0.8700    3.3421 O   0  0  0  0  0  0  0  0  0  0  0  0
   -3.9415   -0.1944    5.3286 C   0  0  0  0  0  0  0  0  0  0  0  0
   -4.9926   -0.4770    5.4379 H   0  0  0  0  0  0  0  0  0  0  0  0
   -3.3322   -1.1013    5.3426 H   0  0  0  0  0  0  0  0  0  0  0  0
   -3.6576    0.4414    6.1707 H   0  0  0  0  0  0  0  0  0  0  0  0
   -2.4627    0.8730    3.6017 N   0  0  0  0  0  0  0  0  0  0  0  0
   -2.1610    1.4628    2.2904 C   0  0  2  0  0  0  0  0  0  0  0  0
   -0.7466    1.0952    1.7950 C   0  0  0  0  0  0  0  0  0  0  0  0
    0.1147    0.8004    2.6165 O   0  0  0  0  0  0  0  0  0  0  0  0
   -2.3092    2.9842    2.3961 C   0  0  0  0  0  0  0  0  0  0  0  0
   -1.6821    0.5093    4.1454 H   0  0  0  0  0  0  0  0  0  0  0  0
   -2.8739    1.0806    1.5507 H   0  0  0  0  0  0  0  0  0  0  0  0
   -1.6053    3.3871    3.1311 H   0  0  0  0  0  0  0  0  0  0  0  0
   -2.1170    3.4576    1.4287 H   0  0  0  0  0  0  0  0  0  0  0  0
   -3.3254    3.2458    2.7089 H   0  0  0  0  0  0  0  0  0  0  0  0
   -0.4796    1.1432    0.4324 N   0  0  0  0  0  0  0  0  0  0  0  0
    0.6399    0.5128   -0.3151 C   0  0  2  0  0  0  0  0  0  0  0  0
    0.2330   -0.9094   -0.7803 C   0  0  0  0  0  0  0  0  0  0  0  0
   -0.8668   -1.3619   -0.4928 O   0  0  0  0  0  0  0  0  0  0  0  0
    2.0093    0.4565    0.4143 C   0  0  0  0  0  0  0  0  0  0  0  0
    2.5635    1.8356    0.6839 C   0  0  0  0  0  0  0  0  0  0  0  0
    3.1479    2.7157   -0.2296 N   0  3  0  0  0  0  0  0  0  0  0  0
    2.6396    2.4221    1.9210 C   0  0  0  0  0  0  0  0  0  0  0  0
    3.5562    3.8017    0.3830 C   0  0  0  0  0  0  0  0  0  0  0  0
    3.2491    3.6550    1.7338 N   0  0  0  0  0  0  0  0  0  0  0  0
   -1.3300    1.2638   -0.1169 H   0  0  0  0  0  0  0  0  0  0  0  0
    0.7830    1.1001   -1.2267 H   0  0  0  0  0  0  0  0  0  0  0  0
    2.7415   -0.0784   -0.1976 H   0  0  0  0  0  0  0  0  0  0  0  0
    1.9276   -0.1227    1.3397 H   0  0  0  0  0  0  0  0  0  0  0  0
    3.2416    2.5072   -1.2264 H   0  0  0  0  0  0  0  0  0  0  0  0
    2.2810    1.9872    2.8562 H   0  0  0  0  0  0  0  0  0  0  0  0
    4.0504    4.6592   -0.0773 H   0  0  0  0  0  0  0  0  0  0  0  0
    3.4496    4.3347    2.4736 H   0  0  0  0  0  0  0  0  0  0  0  0
    1.1157   -1.6950   -1.4995 N   0  0  0  0  0  0  0  0  0  0  0  0
    1.0796   -3.1626   -1.4226 C   0  0  2  0  0  0  0  0  0  0  0  0
    2.1180   -3.6598   -0.3930 C   0  0  0  0  0  0  0  0  0  0  0  0
    3.0025   -2.8944   -0.0143 O   0  0  0  0  0  0  0  0  0  0  0  0
    1.3796   -3.7165   -2.8172 C   0  0  0  0  0  0  0  0  0  0  0  0
    2.0529   -1.3127   -1.5861 H   0  0  0  0  0  0  0  0  0  0  0  0
    0.0919   -3.5209   -1.1119 H   0  0  0  0  0  0  0  0  0  0  0  0
    2.3712   -3.3979   -3.1545 H   0  0  0  0  0  0  0  0  0  0  0  0
    1.3509   -4.8106   -2.8101 H   0  0  0  0  0  0  0  0  0  0  0  0
    0.6345   -3.3573   -3.5344 H   0  0  0  0  0  0  0  0  0  0  0  0
    2.0596   -4.9439    0.1133 N   0  0  0  0  0  0  0  0  0  0  0  0
    2.9856   -5.4518    1.1200 C   0  0  0  0  0  0  0  0  0  0  0  0
    1.2901   -5.5370   -0.1870 H   0  0  0  0  0  0  0  0  0  0  0  0
    4.0183   -5.3892    0.7603 H   0  0  0  0  0  0  0  0  0  0  0  0
    2.9001   -4.8747    2.0469 H   0  0  0  0  0  0  0  0  0  0  0  0
    2.7635   -6.4999    1.3444 H   0  0  0  0  0  0  0  0  0  0  0  0
  1  2  2  0  0  0  0
  1  3  1  0  0  0  0
  1  7  1  0  0  0  0
  3  4  1  0  0  0  0
  3  5  1  0  0  0  0
  3  6  1  0  0  0  0
  7  8  1  0  0  0  0
  7 12  1  0  0  0  0
  8  9  1  0  0  0  0
  8 11  1  0  0  0  0
  8 13  1  0  0  0  0
  9 10  2  0  0  0  0
  9 17  1  0  0  0  0
 11 14  1  0  0  0  0
 11 15  1  0  0  0  0
 11 16  1  0  0  0  0
 17 18  1  0  0  0  0
 17 27  1  0  0  0  0
 18 19  1  0  0  0  0
 18 21  1  0  0  0  0
 18 28  1  0  0  0  0
 19 20  2  0  0  0  0
 19 35  1  0  0  0  0
 21 22  1  0  0  0  0
 21 29  1  0  0  0  0
 21 30  1  0  0  0  0
 22 23  1  0  0  0  0
 22 24  2  0  0  0  0
 23 25  2  0  0  0  0
 23 31  1  0  0  0  0
 24 26  1  0  0  0  0
 24 32  1  0  0  0  0
 25 26  1  0  0  0  0
 25 33  1  0  0  0  0
 26 34  1  0  0  0  0
 35 36  1  0  0  0  0
 35 40  1  0  0  0  0
 36 37  1  0  0  0  0
 36 39  1  0  0  0  0
 36 41  1  0  0  0  0
 37 38  2  0  0  0  0
 37 45  1  0  0  0  0
 39 42  1  0  0  0  0
 39 43  1  0  0  0  0
 39 44  1  0  0  0  0
 45 46  1  0  0  0  0
 45 47  1  0  0  0  0
 46 48  1  0  0  0  0
 46 49  1  0  0  0  0
 46 50  1  0  0  0  0
M  CHG  1  23   1
M  END
$$$$

  -OEChem-05262216443D

 50 50  0     1  0  0  0  0  0999 V2000
   -3.8229    0.5238    3.8723 C   0  0  0  0  0  0  0  0  0  0  0  0
   -4.7699    0.6882    3.1216 O   0  0  0  0  0  0  0  0  0  0  0  0
   -4.0284   -0.1129    5.2331 C   0  0  0  0  0  0  0  0  0  0  0  0
   -5.0933   -0.2936    5.4063 H   0  0  0  0  0  0  0  0  0  0  0  0
   -3.4973   -1.0664    5.2823 H   0  0  0  0  0  0  0  0  0  0  0  0
   -3.6519    0.5487    6.0172 H   0  0  0  0  0  0  0  0  0  0  0  0
   -2.5604    0.9147    3.4758 N   0  0  0  0  0  0  0  0  0  0  0  0
   -2.2395    1.4170    2.1324 C   0  0  2  0  0  0  0  0  0  0  0  0
   -0.7724    1.1376    1.7394 C   0  0  0  0  0  0  0  0  0  0  0  0
    0.0475    0.8945    2.6185 O   0  0  0  0  0  0  0  0  0  0  0  0
   -2.5276    2.9216    2.0935 C   0  0  0  0  0  0  0  0  0  0  0  0
   -1.7818    0.6676    4.0838 H   0  0  0  0  0  0  0  0  0  0  0  0
   -2.8744    0.9102    1.3963 H   0  0  0  0  0  0  0  0  0  0  0  0
   -1.9079    3.4501    2.8246 H   0  0  0  0  0  0  0  0  0  0  0  0
   -2.3209    3.3274    1.0987 H   0  0  0  0  0  0  0  0  0  0  0  0
   -3.5801    3.1123    2.3280 H   0  0  0  0  0  0  0  0  0  0  0  0
   -0.4139    1.1808    0.3982 N   0  0  0  0  0  0  0  0  0  0  0  0
    0.7659    0.5638   -0.2619 C   0  0  2  0  0  0  0  0  0  0  0  0
    0.3924   -0.8675   -0.7321 C   0  0  0  0  0  0  0  0  0  0  0  0
   -0.7842   -1.1993   -0.7891 O   0  0  0  0  0  0  0  0  0  0  0  0
    2.0890    0.5569    0.5517 C   0  0  0  0  0  0  0  0  0  0  0  0
    2.5940    1.9540    0.8250 C   0  0  0  0  0  0  0  0  0  0  0  0
    3.2142    2.8292   -0.0699 N   0  3  0  0  0  0  0  0  0  0  0  0
    2.5781    2.5672    2.0511 C   0  0  0  0  0  0  0  0  0  0  0  0
    3.5601    3.9363    0.5436 C   0  0  0  0  0  0  0  0  0  0  0  0
    3.1711    3.8099    1.8755 N   0  0  0  0  0  0  0  0  0  0  0  0
   -1.2309    1.2499   -0.2092 H   0  0  0  0  0  0  0  0  0  0  0  0
    0.9564    1.1370   -1.1736 H   0  0  0  0  0  0  0  0  0  0  0  0
    2.8713    0.0364   -0.0081 H   0  0  0  0  0  0  0  0  0  0  0  0
    1.9662   -0.0070    1.4820 H   0  0  0  0  0  0  0  0  0  0  0  0
    3.3754    2.6028   -1.0542 H   0  0  0  0  0  0  0  0  0  0  0  0
    2.1689    2.1436    2.9706 H   0  0  0  0  0  0  0  0  0  0  0  0
    4.0640    4.7960    0.0974 H   0  0  0  0  0  0  0  0  0  0  0  0
    3.3074    4.5099    2.6110 H   0  0  0  0  0  0  0  0  0  0  0  0
    1.3621   -1.7820   -1.0985 N   0  0  0  0  0  0  0  0  0  0  0  0
    1.1555   -3.2348   -1.0189 C   0  0  2  0  0  0  0  0  0  0  0  0
    2.1041   -3.8261    0.0467 C   0  0  0  0  0  0  0  0  0  0  0  0
    3.0021   -3.1216    0.5039 O   0  0  0  0  0  0  0  0  0  0  0  0
    1.4307   -3.8323   -2.4008 C   0  0  0  0  0  0  0  0  0  0  0  0
    2.3187   -1.5036   -0.8925 H   0  0  0  0  0  0  0  0  0  0  0  0
    0.1283   -3.4773   -0.7242 H   0  0  0  0  0  0  0  0  0  0  0  0
    2.4593   -3.6244   -2.7127 H   0  0  0  0  0  0  0  0  0  0  0  0
    1.2836   -4.9166   -2.3877 H   0  0  0  0  0  0  0  0  0  0  0  0
    0.7479   -3.4016   -3.1404 H   0  0  0  0  0  0  0  0  0  0  0  0
    1.9478   -5.1194    0.5064 N   0  0  0  0  0  0  0  0  0  0  0  0
    2.7994   -5.7115    1.5325 C   0  0  0  0  0  0  0  0  0  0  0  0
    1.1820   -5.6700    0.1267 H   0  0  0  0  0  0  0  0  0  0  0  0
    3.8453   -5.7176    1.2073 H   0  0  0  0  0  0  0  0  0  0  0  0
    2.7252   -5.1450    2.4671 H   0  0  0  0  0  0  0  0  0  0  0  0
    2.4938   -6.7438    1.7300 H   0  0  0  0  0  0  0  0  0  0  0  0
  1  2  2  0  0  0  0
  1  3  1  0  0  0  0
  1  7  1  0  0  0  0
  3  4  1  0  0  0  0
  3  5  1  0  0  0  0
  3  6  1  0  0  0  0
  7  8  1  0  0  0  0
  7 12  1  0  0  0  0
  8  9  1  0  0  0  0
  8 11  1  0  0  0  0
  8 13  1  0  0  0  0
  9 10  2  0  0  0  0
  9 17  1  0  0  0  0
 11 14  1  0  0  0  0
 11 15  1  0  0  0  0
 11 16  1  0  0  0  0
 17 18  1  0  0  0  0
 17 27  1  0  0  0  0
 18 19  1  0  0  0  0
 18 21  1  0  0  0  0
 18 28  1  0  0  0  0
 19 20  2  0  0  0  0
 19 35  1  0  0  0  0
 21 22  1  0  0  0  0
 21 29  1  0  0  0  0
 21 30  1  0  0  0  0
 22 23  1  0  0  0  0
 22 24  2  0  0  0  0
 23 25  2  0  0  0  0
 23 31  1  0  0  0  0
 24 26  1  0  0  0  0
 24 32  1  0  0  0  0
 25 26  1  0  0  0  0
 25 33  1  0  0  0  0
 26 34  1  0  0  0  0
 35 36  1  0  0  0  0
 35 40  1  0  0  0  0
 36 37  1  0  0  0  0
 36 39  1  0  0  0  0
 36 41  1  0  0  0  0
 37 38  2  0  0  0  0
 37 45  1  0  0  0  0
 39 42  1  0  0  0  0
 39 43  1  0  0  0  0
 39 44  1  0  0  0  0
 45 46  1  0  0  0  0
 45 47  1  0  0  0  0
 46 48  1  0  0  0  0
 46 49  1  0  0  0  0
 46 50  1  0  0  0  0
M  CHG  1  23   1
M  END
$$$$

  -OEChem-05262216443D

 50 50  0     1  0  0  0  0  0999 V2000
   -1.9577   -0.9760    2.8890 C   0  0  0  0  0  0  0  0  0  0  0  0
   -1.5078   -1.5064    1.8839 O   0  0  0  0  0  0  0  0  0  0  0  0
   -2.0093   -1.7489    4.1922 C   0  0  0  0  0  0  0  0  0  0  0  0
   -1.7668   -2.8003    4.0166 H   0  0  0  0  0  0  0  0  0  0  0  0
   -1.2882   -1.3335    4.9004 H   0  0  0  0  0  0  0  0  0  0  0  0
   -3.0115   -1.6881    4.6237 H   0  0  0  0  0  0  0  0  0  0  0  0
   -2.3869    0.3361    2.8513 N   0  0  0  0  0  0  0  0  0  0  0  0
   -2.2084    1.1943    1.6714 C   0  0  2  0  0  0  0  0  0  0  0  0
   -0.7305    1.5816    1.4331 C   0  0  0  0  0  0  0  0  0  0  0  0
    0.0189    1.7436    2.3892 O   0  0  0  0  0  0  0  0  0  0  0  0
   -3.0715    2.4437    1.8567 C   0  0  0  0  0  0  0  0  0  0  0  0
   -2.5874    0.7769    3.7443 H   0  0  0  0  0  0  0  0  0  0  0  0
   -2.5644    0.6538    0.7861 H   0  0  0  0  0  0  0  0  0  0  0  0
   -2.7429    3.0119    2.7329 H   0  0  0  0  0  0  0  0  0  0  0  0
   -3.0011    3.0901    0.9761 H   0  0  0  0  0  0  0  0  0  0  0  0
   -4.1207    2.1631    1.9948 H   0  0  0  0  0  0  0  0  0  0  0  0
   -0.2589    1.6454    0.1302 N   0  0  0  0  0  0  0  0  0  0  0  0
    0.9298    0.9010   -0.3462 C   0  0  2  0  0  0  0  0  0  0  0  0
    0.4214   -0.4703   -0.8545 C   0  0  0  0  0  0  0  0  0  0  0  0
   -0.7075   -0.5361   -1.3272 O   0  0  0  0  0  0  0  0  0  0  0  0
    2.1580    0.7868    0.5959 C   0  0  0  0  0  0  0  0  0  0  0  0
    2.7851    2.1326    0.8852 C   0  0  0  0  0  0  0  0  0  0  0  0
    3.5782    2.8832    0.0143 N   0  3  0  0  0  0  0  0  0  0  0  0
    2.7685    2.7941    2.0867 C   0  0  0  0  0  0  0  0  0  0  0  0
    4.0086    3.9702    0.6090 C   0  0  0  0  0  0  0  0  0  0  0  0
    3.5172    3.9492    1.9118 N   0  0  0  0  0  0  0  0  0  0  0  0
   -1.0312    1.5495   -0.5322 H   0  0  0  0  0  0  0  0  0  0  0  0
    1.2848    1.4232   -1.2392 H   0  0  0  0  0  0  0  0  0  0  0  0
    2.9261    0.1564    0.1376 H   0  0  0  0  0  0  0  0  0  0  0  0
    1.8651    0.2897    1.5282 H   0  0  0  0  0  0  0  0  0  0  0  0
    3.7655    2.6023   -0.9511 H   0  0  0  0  0  0  0  0  0  0  0  0
    2.2514    2.4647    2.9897 H   0  0  0  0  0  0  0  0  0  0  0  0
    4.6366    4.7460    0.1674 H   0  0  0  0  0  0  0  0  0  0  0  0
    3.6782    4.6634    2.6280 H   0  0  0  0  0  0  0  0  0  0  0  0
    1.2012   -1.6080   -0.7991 N   0  0  0  0  0  0  0  0  0  0  0  0
    0.5885   -2.9000   -0.4673 C   0  0  2  0  0  0  0  0  0  0  0  0
    1.0489   -3.3215    0.9448 C   0  0  0  0  0  0  0  0  0  0  0  0
    2.0474   -2.7924    1.4327 O   0  0  0  0  0  0  0  0  0  0  0  0
    1.0188   -3.9235   -1.5191 C   0  0  0  0  0  0  0  0  0  0  0  0
    2.0939   -1.4810   -0.3268 H   0  0  0  0  0  0  0  0  0  0  0  0
   -0.5056   -2.8354   -0.4578 H   0  0  0  0  0  0  0  0  0  0  0  0
    2.1083   -4.0273   -1.5322 H   0  0  0  0  0  0  0  0  0  0  0  0
    0.5785   -4.9018   -1.3037 H   0  0  0  0  0  0  0  0  0  0  0  0
    0.6862   -3.6059   -2.5124 H   0  0  0  0  0  0  0  0  0  0  0  0
    0.3629   -4.2832    1.6604 N   0  0  0  0  0  0  0  0  0  0  0  0
    0.7233   -4.6734    3.0179 C   0  0  0  0  0  0  0  0  0  0  0  0
   -0.5293   -4.5910    1.2827 H   0  0  0  0  0  0  0  0  0  0  0  0
    1.7285   -5.1076    3.0368 H   0  0  0  0  0  0  0  0  0  0  0  0
    0.7018   -3.8056    3.6854 H   0  0  0  0  0  0  0  0  0  0  0  0
    0.0187   -5.4198    3.3977 H   0  0  0  0  0  0  0  0  0  0  0  0
  1  2  2  0  0  0  0
  1  3  1  0  0  0  0
  1  7  1  0  0  0  0
  3  4  1  0  0  0  0
  3  5  1  0  0  0  0
  3  6  1  0  0  0  0
  7  8  1  0  0  0  0
  7 12  1  0  0  0  0
  8  9  1  0  0  0  0
  8 11  1  0  0  0  0
  8 13  1  0  0  0  0
  9 10  2  0  0  0  0
  9 17  1  0  0  0  0
 11 14  1  0  0  0  0
 11 15  1  0  0  0  0
 11 16  1  0  0  0  0
 17 18  1  0  0  0  0
 17 27  1  0  0  0  0
 18 19  1  0  0  0  0
 18 21  1  0  0  0  0
 18 28  1  0  0  0  0
 19 20  2  0  0  0  0
 19 35  1  0  0  0  0
 21 22  1  0  0  0  0
 21 29  1  0  0  0  0
 21 30  1  0  0  0  0
 22 23  1  0  0  0  0
 22 24  2  0  0  0  0
 23 25  2  0  0  0  0
 23 31  1  0  0  0  0
 24 26  1  0  0  0  0
 24 32  1  0  0  0  0
 25 26  1  0  0  0  0
 25 33  1  0  0  0  0
 26 34  1  0  0  0  0
 35 36  1  0  0  0  0
 35 40  1  0  0  0  0
 36 37  1  0  0  0  0
 36 39  1  0  0  0  0
 36 41  1  0  0  0  0
 37 38  2  0  0  0  0
 37 45  1  0  0  0  0
 39 42  1  0  0  0  0
 39 43  1  0  0  0  0
 39 44  1  0  0  0  0
 45 46  1  0  0  0  0
 45 47  1  0  0  0  0
 46 48  1  0  0  0  0
 46 49  1  0  0  0  0
 46 50  1  0  0  0  0
M  CHG  1  23   1
M  END
$$$$

  -OEChem-05262216443D

 50 50  0     1  0  0  0  0  0999 V2000
   -3.1371   -0.4043    3.8101 C   0  0  0  0  0  0  0  0  0  0  0  0
   -4.0722   -0.5885    3.0487 O   0  0  0  0  0  0  0  0  0  0  0  0
   -3.0973   -1.1073    5.1532 C   0  0  0  0  0  0  0  0  0  0  0  0
   -4.0174   -1.6785    5.3061 H   0  0  0  0  0  0  0  0  0  0  0  0
   -2.2465   -1.7922    5.1908 H   0  0  0  0  0  0  0  0  0  0  0  0
   -3.0032   -0.3732    5.9570 H   0  0  0  0  0  0  0  0  0  0  0  0
   -2.1046    0.4323    3.4395 N   0  0  0  0  0  0  0  0  0  0  0  0
   -1.9642    1.0179    2.0988 C   0  0  2  0  0  0  0  0  0  0  0  0
   -0.4862    1.1092    1.6644 C   0  0  0  0  0  0  0  0  0  0  0  0
    0.3915    1.1134    2.5204 O   0  0  0  0  0  0  0  0  0  0  0  0
   -2.6174    2.4024    2.1062 C   0  0  0  0  0  0  0  0  0  0  0  0
   -1.2840    0.4473    4.0429 H   0  0  0  0  0  0  0  0  0  0  0  0
   -2.4765    0.3845    1.3654 H   0  0  0  0  0  0  0  0  0  0  0  0
   -2.1214    3.0575    2.8293 H   0  0  0  0  0  0  0  0  0  0  0  0
   -2.5557    2.8627    1.1153 H   0  0  0  0  0  0  0  0  0  0  0  0
   -3.6742    2.3181    2.3807 H   0  0  0  0  0  0  0  0  0  0  0  0
   -0.1767    1.1701    0.3122 N   0  0  0  0  0  0  0  0  0  0  0  0
    1.0597    0.6810   -0.3442 C   0  0  2  0  0  0  0  0  0  0  0  0
    0.8142   -0.7916   -0.7506 C   0  0  0  0  0  0  0  0  0  0  0  0
   -0.2573   -1.0647   -1.2755 O   0  0  0  0  0  0  0  0  0  0  0  0
    2.3983    0.8824    0.4087 C   0  0  0  0  0  0  0  0  0  0  0  0
    2.7191    2.3486    0.5837 C   0  0  0  0  0  0  0  0  0  0  0  0
    3.1815    3.2382   -0.3889 N   0  3  0  0  0  0  0  0  0  0  0  0
    2.6551    3.0365    1.7686 C   0  0  0  0  0  0  0  0  0  0  0  0
    3.3789    4.4241    0.1367 C   0  0  0  0  0  0  0  0  0  0  0  0
    3.0582    4.3352    1.4895 N   0  0  0  0  0  0  0  0  0  0  0  0
   -1.0067    1.0687   -0.2743 H   0  0  0  0  0  0  0  0  0  0  0  0
    1.1540    1.2292   -1.2861 H   0  0  0  0  0  0  0  0  0  0  0  0
    3.2127    0.4279   -0.1648 H   0  0  0  0  0  0  0  0  0  0  0  0
    2.3791    0.3699    1.3762 H   0  0  0  0  0  0  0  0  0  0  0  0
    3.3234    2.9738   -1.3670 H   0  0  0  0  0  0  0  0  0  0  0  0
    2.3337    2.6274    2.7289 H   0  0  0  0  0  0  0  0  0  0  0  0
    3.7296    5.3159   -0.3866 H   0  0  0  0  0  0  0  0  0  0  0  0
    3.1052    5.0993    2.1702 H   0  0  0  0  0  0  0  0  0  0  0  0
    1.7393   -1.7983   -0.5333 N   0  0  0  0  0  0  0  0  0  0  0  0
    1.3155   -3.2069   -0.4984 C   0  0  2  0  0  0  0  0  0  0  0  0
    0.7838   -3.5789    0.9024 C   0  0  0  0  0  0  0  0  0  0  0  0
    1.1886   -2.9614    1.8827 O   0  0  0  0  0  0  0  0  0  0  0  0
    2.5198   -4.0757   -0.8652 C   0  0  0  0  0  0  0  0  0  0  0  0
    2.4652   -1.5644    0.1384 H   0  0  0  0  0  0  0  0  0  0  0  0
    0.5227   -3.3935   -1.2312 H   0  0  0  0  0  0  0  0  0  0  0  0
    3.3288   -3.9403   -0.1399 H   0  0  0  0  0  0  0  0  0  0  0  0
    2.2376   -5.1333   -0.8751 H   0  0  0  0  0  0  0  0  0  0  0  0
    2.8916   -3.8086   -1.8593 H   0  0  0  0  0  0  0  0  0  0  0  0
   -0.1409   -4.5923    1.0643 N   0  0  0  0  0  0  0  0  0  0  0  0
   -0.7389   -4.9267    2.3517 C   0  0  0  0  0  0  0  0  0  0  0  0
   -0.5185   -5.0236    0.2249 H   0  0  0  0  0  0  0  0  0  0  0  0
    0.0367   -5.1787    3.0830 H   0  0  0  0  0  0  0  0  0  0  0  0
   -1.3225   -4.0822    2.7333 H   0  0  0  0  0  0  0  0  0  0  0  0
   -1.4048   -5.7891    2.2474 H   0  0  0  0  0  0  0  0  0  0  0  0
  1  2  2  0  0  0  0
  1  3  1  0  0  0  0
  1  7  1  0  0  0  0
  3  4  1  0  0  0  0
  3  5  1  0  0  0  0
  3  6  1  0  0  0  0
  7  8  1  0  0  0  0
  7 12  1  0  0  0  0
  8  9  1  0  0  0  0
  8 11  1  0  0  0  0
  8 13  1  0  0  0  0
  9 10  2  0  0  0  0
  9 17  1  0  0  0  0
 11 14  1  0  0  0  0
 11 15  1  0  0  0  0
 11 16  1  0  0  0  0
 17 18  1  0  0  0  0
 17 27  1  0  0  0  0
 18 19  1  0  0  0  0
 18 21  1  0  0  0  0
 18 28  1  0  0  0  0
 19 20  2  0  0  0  0
 19 35  1  0  0  0  0
 21 22  1  0  0  0  0
 21 29  1  0  0  0  0
 21 30  1  0  0  0  0
 22 23  1  0  0  0  0
 22 24  2  0  0  0  0
 23 25  2  0  0  0  0
 23 31  1  0  0  0  0
 24 26  1  0  0  0  0
 24 32  1  0  0  0  0
 25 26  1  0  0  0  0
 25 33  1  0  0  0  0
 26 34  1  0  0  0  0
 35 36  1  0  0  0  0
 35 40  1  0  0  0  0
 36 37  1  0  0  0  0
 36 39  1  0  0  0  0
 36 41  1  0  0  0  0
 37 38  2  0  0  0  0
 37 45  1  0  0  0  0
 39 42  1  0  0  0  0
 39 43  1  0  0  0  0
 39 44  1  0  0  0  0
 45 46  1  0  0  0  0
 45 47  1  0  0  0  0
 46 48  1  0  0  0  0
 46 49  1  0  0  0  0
 46 50  1  0  0  0  0
M  CHG  1  23   1
M  END
$$$$

  -OEChem-05262216443D

 50 50  0     1  0  0  0  0  0999 V2000
   -2.7305   -0.9352    3.4379 C   0  0  0  0  0  0  0  0  0  0  0  0
   -3.5910   -1.1653    2.6027 O   0  0  0  0  0  0  0  0  0  0  0  0
   -2.5181   -1.8919    4.5951 C   0  0  0  0  0  0  0  0  0  0  0  0
   -3.2329   -2.7171    4.5381 H   0  0  0  0  0  0  0  0  0  0  0  0
   -1.5044   -2.2990    4.5581 H   0  0  0  0  0  0  0  0  0  0  0  0
   -2.6598   -1.3691    5.5439 H   0  0  0  0  0  0  0  0  0  0  0  0
   -1.9583    0.2043    3.3451 N   0  0  0  0  0  0  0  0  0  0  0  0
   -1.8968    1.0527    2.1474 C   0  0  2  0  0  0  0  0  0  0  0  0
   -0.4396    1.2143    1.6708 C   0  0  0  0  0  0  0  0  0  0  0  0
    0.4484    1.3561    2.5048 O   0  0  0  0  0  0  0  0  0  0  0  0
   -2.5196    2.4075    2.4880 C   0  0  0  0  0  0  0  0  0  0  0  0
   -1.1596    0.2451    3.9753 H   0  0  0  0  0  0  0  0  0  0  0  0
   -2.4658    0.6011    1.3273 H   0  0  0  0  0  0  0  0  0  0  0  0
   -1.9742    2.8872    3.3069 H   0  0  0  0  0  0  0  0  0  0  0  0
   -2.4980    3.0690    1.6167 H   0  0  0  0  0  0  0  0  0  0  0  0
   -3.5621    2.2743    2.7950 H   0  0  0  0  0  0  0  0  0  0  0  0
   -0.1458    1.1561    0.3152 N   0  0  0  0  0  0  0  0  0  0  0  0
    1.1137    0.6552   -0.2808 C   0  0  2  0  0  0  0  0  0  0  0  0
    0.9129   -0.8553   -0.5199 C   0  0  0  0  0  0  0  0  0  0  0  0
   -0.0016   -1.1942   -1.2582 O   0  0  0  0  0  0  0  0  0  0  0  0
    2.4511    0.9901    0.4219 C   0  0  0  0  0  0  0  0  0  0  0  0
    2.7117    2.4782    0.4223 C   0  0  0  0  0  0  0  0  0  0  0  0
    3.1247    3.2660   -0.6546 N   0  3  0  0  0  0  0  0  0  0  0  0
    2.6217    3.2984    1.5178 C   0  0  0  0  0  0  0  0  0  0  0  0
    3.2710    4.5134   -0.2754 C   0  0  0  0  0  0  0  0  0  0  0  0
    2.9650    4.5712    1.0825 N   0  0  0  0  0  0  0  0  0  0  0  0
   -0.9708    0.9536   -0.2519 H   0  0  0  0  0  0  0  0  0  0  0  0
    1.1818    1.0984   -1.2791 H   0  0  0  0  0  0  0  0  0  0  0  0
    3.2716    0.4981   -0.1114 H   0  0  0  0  0  0  0  0  0  0  0  0
    2.4672    0.5959    1.4421 H   0  0  0  0  0  0  0  0  0  0  0  0
    3.2671    2.8945   -1.5972 H   0  0  0  0  0  0  0  0  0  0  0  0
    2.3199    2.9935    2.5221 H   0  0  0  0  0  0  0  0  0  0  0  0
    3.5743    5.3520   -0.9053 H   0  0  0  0  0  0  0  0  0  0  0  0
    2.9801    5.4124    1.6670 H   0  0  0  0  0  0  0  0  0  0  0  0
    1.7091   -1.8219    0.0699 N   0  0  0  0  0  0  0  0  0  0  0  0
    1.2122   -3.2033    0.1714 C   0  0  2  0  0  0  0  0  0  0  0  0
    0.0830   -3.3286    1.2214 C   0  0  0  0  0  0  0  0  0  0  0  0
    0.0576   -2.5687    2.1863 O   0  0  0  0  0  0  0  0  0  0  0  0
    2.3882   -4.1088    0.5449 C   0  0  0  0  0  0  0  0  0  0  0  0
    2.2361   -1.4957    0.8750 H   0  0  0  0  0  0  0  0  0  0  0  0
    0.8193   -3.5300   -0.7979 H   0  0  0  0  0  0  0  0  0  0  0  0
    2.7925   -3.8311    1.5239 H   0  0  0  0  0  0  0  0  0  0  0  0
    2.0649   -5.1539    0.5888 H   0  0  0  0  0  0  0  0  0  0  0  0
    3.1855   -4.0262   -0.2005 H   0  0  0  0  0  0  0  0  0  0  0  0
   -0.8893   -4.3008    1.0834 N   0  0  0  0  0  0  0  0  0  0  0  0
   -2.0527   -4.3994    1.9570 C   0  0  0  0  0  0  0  0  0  0  0  0
   -0.8989   -4.8244    0.2125 H   0  0  0  0  0  0  0  0  0  0  0  0
   -1.7490   -4.4007    3.0089 H   0  0  0  0  0  0  0  0  0  0  0  0
   -2.7315   -3.5587    1.7842 H   0  0  0  0  0  0  0  0  0  0  0  0
   -2.5964   -5.3284    1.7595 H   0  0  0  0  0  0  0  0  0  0  0  0
  1  2  2  0  0  0  0
  1  3  1  0  0  0  0
  1  7  1  0  0  0  0
  3  4  1  0  0  0  0
  3  5  1  0  0  0  0
  3  6  1  0  0  0  0
  7  8  1  0  0  0  0
  7 12  1  0  0  0  0
  8  9  1  0  0  0  0
  8 11  1  0  0  0  0
  8 13  1  0  0  0  0
  9 10  2  0  0  0  0
  9 17  1  0  0  0  0
 11 14  1  0  0  0  0
 11 15  1  0  0  0  0
 11 16  1  0  0  0  0
 17 18  1  0  0  0  0
 17 27  1  0  0  0  0
 18 19  1  0  0  0  0
 18 21  1  0  0  0  0
 18 28  1  0  0  0  0
 19 20  2  0  0  0  0
 19 35  1  0  0  0  0
 21 22  1  0  0  0  0
 21 29  1  0  0  0  0
 21 30  1  0  0  0  0
 22 23  1  0  0  0  0
 22 24  2  0  0  0  0
 23 25  2  0  0  0  0
 23 31  1  0  0  0  0
 24 26  1  0  0  0  0
 24 32  1  0  0  0  0
 25 26  1  0  0  0  0
 25 33  1  0  0  0  0
 26 34  1  0  0  0  0
 35 36  1  0  0  0  0
 35 40  1  0  0  0  0
 36 37  1  0  0  0  0
 36 39  1  0  0  0  0
 36 41  1  0  0  0  0
 37 38  2  0  0  0  0
 37 45  1  0  0  0  0
 39 42  1  0  0  0  0
 39 43  1  0  0  0  0
 39 44  1  0  0  0  0
 45 46  1  0  0  0  0
 45 47  1  0  0  0  0
 46 48  1  0  0  0  0
 46 49  1  0  0  0  0
 46 50  1  0  0  0  0
M  CHG  1  23   1
M  END
$$$$

  -OEChem-05262216443D

 50 50  0     1  0  0  0  0  0999 V2000
   -2.9091   -0.8225    3.5046 C   0  0  0  0  0  0  0  0  0  0  0  0
   -3.8289   -0.9370    2.7090 O   0  0  0  0  0  0  0  0  0  0  0  0
   -2.7805   -1.7925    4.6632 C   0  0  0  0  0  0  0  0  0  0  0  0
   -1.8191   -2.3092    4.6096 H   0  0  0  0  0  0  0  0  0  0  0  0
   -2.8447   -1.2535    5.6110 H   0  0  0  0  0  0  0  0  0  0  0  0
   -3.5827   -2.5343    4.6252 H   0  0  0  0  0  0  0  0  0  0  0  0
   -1.9932    0.1996    3.3647 N   0  0  0  0  0  0  0  0  0  0  0  0
   -1.8723    1.0231    2.1550 C   0  0  2  0  0  0  0  0  0  0  0  0
   -0.4050    1.0983    1.6862 C   0  0  0  0  0  0  0  0  0  0  0  0
    0.4885    1.1874    2.5218 O   0  0  0  0  0  0  0  0  0  0  0  0
   -2.4234    2.4161    2.4646 C   0  0  0  0  0  0  0  0  0  0  0  0
   -1.1642    0.1264    3.9515 H   0  0  0  0  0  0  0  0  0  0  0  0
   -2.4568    0.5851    1.3385 H   0  0  0  0  0  0  0  0  0  0  0  0
   -1.8567    2.8819    3.2770 H   0  0  0  0  0  0  0  0  0  0  0  0
   -2.3630    3.0578    1.5806 H   0  0  0  0  0  0  0  0  0  0  0  0
   -3.4730    2.3460    2.7685 H   0  0  0  0  0  0  0  0  0  0  0  0
   -0.1079    1.0317    0.3313 N   0  0  0  0  0  0  0  0  0  0  0  0
    1.1595    0.5586   -0.2709 C   0  0  2  0  0  0  0  0  0  0  0  0
    1.0022   -0.9561   -0.4980 C   0  0  0  0  0  0  0  0  0  0  0  0
    0.2444   -1.3262   -1.3831 O   0  0  0  0  0  0  0  0  0  0  0  0
    2.4940    0.9241    0.4227 C   0  0  0  0  0  0  0  0  0  0  0  0
    2.7187    2.4165    0.4178 C   0  0  0  0  0  0  0  0  0  0  0  0
    3.1056    3.2119   -0.6628 N   0  3  0  0  0  0  0  0  0  0  0  0
    2.6076    3.2351    1.5122 C   0  0  0  0  0  0  0  0  0  0  0  0
    3.2203    4.4634   -0.2862 C   0  0  0  0  0  0  0  0  0  0  0  0
    2.9168    4.5156    1.0730 N   0  0  0  0  0  0  0  0  0  0  0  0
   -0.9325    0.8677   -0.2480 H   0  0  0  0  0  0  0  0  0  0  0  0
    1.2114    0.9999   -1.2713 H   0  0  0  0  0  0  0  0  0  0  0  0
    3.3209    0.4462   -0.1139 H   0  0  0  0  0  0  0  0  0  0  0  0
    2.5297    0.5361    1.4445 H   0  0  0  0  0  0  0  0  0  0  0  0
    3.2577    2.8411   -1.6043 H   0  0  0  0  0  0  0  0  0  0  0  0
    2.3157    2.9232    2.5174 H   0  0  0  0  0  0  0  0  0  0  0  0
    3.5004    5.3080   -0.9187 H   0  0  0  0  0  0  0  0  0  0  0  0
    2.9138    5.3581    1.6561 H   0  0  0  0  0  0  0  0  0  0  0  0
    1.6230   -1.8867    0.3162 N   0  0  0  0  0  0  0  0  0  0  0  0
    1.0664   -3.2441    0.4203 C   0  0  2  0  0  0  0  0  0  0  0  0
   -0.2202   -3.2539    1.2776 C   0  0  0  0  0  0  0  0  0  0  0  0
   -0.3327   -2.4675    2.2144 O   0  0  0  0  0  0  0  0  0  0  0  0
    2.1311   -4.1534    1.0376 C   0  0  0  0  0  0  0  0  0  0  0  0
    1.9717   -1.5021    1.1909 H   0  0  0  0  0  0  0  0  0  0  0  0
    0.8219   -3.6287   -0.5760 H   0  0  0  0  0  0  0  0  0  0  0  0
    2.3908   -3.8150    2.0462 H   0  0  0  0  0  0  0  0  0  0  0  0
    1.7618   -5.1820    1.1022 H   0  0  0  0  0  0  0  0  0  0  0  0
    3.0369   -4.1508    0.4232 H   0  0  0  0  0  0  0  0  0  0  0  0
   -1.2495   -4.1279    0.9848 N   0  0  0  0  0  0  0  0  0  0  0  0
   -2.5493   -4.0825    1.6453 C   0  0  0  0  0  0  0  0  0  0  0  0
   -1.1640   -4.6748    0.1324 H   0  0  0  0  0  0  0  0  0  0  0  0
   -2.4325   -4.1234    2.7329 H   0  0  0  0  0  0  0  0  0  0  0  0
   -3.0817   -3.1633    1.3804 H   0  0  0  0  0  0  0  0  0  0  0  0
   -3.1607   -4.9362    1.3365 H   0  0  0  0  0  0  0  0  0  0  0  0
  1  2  2  0  0  0  0
  1  3  1  0  0  0  0
  1  7  1  0  0  0  0
  3  4  1  0  0  0  0
  3  5  1  0  0  0  0
  3  6  1  0  0  0  0
  7  8  1  0  0  0  0
  7 12  1  0  0  0  0
  8  9  1  0  0  0  0
  8 11  1  0  0  0  0
  8 13  1  0  0  0  0
  9 10  2  0  0  0  0
  9 17  1  0  0  0  0
 11 14  1  0  0  0  0
 11 15  1  0  0  0  0
 11 16  1  0  0  0  0
 17 18  1  0  0  0  0
 17 27  1  0  0  0  0
 18 19  1  0  0  0  0
 18 21  1  0  0  0  0
 18 28  1  0  0  0  0
 19 20  2  0  0  0  0
 19 35  1  0  0  0  0
 21 22  1  0  0  0  0
 21 29  1  0  0  0  0
 21 30  1  0  0  0  0
 22 23  1  0  0  0  0
 22 24  2  0  0  0  0
 23 25  2  0  0  0  0
 23 31  1  0  0  0  0
 24 26  1  0  0  0  0
 24 32  1  0  0  0  0
 25 26  1  0  0  0  0
 25 33  1  0  0  0  0
 26 34  1  0  0  0  0
 35 36  1  0  0  0  0
 35 40  1  0  0  0  0
 36 37  1  0  0  0  0
 36 39  1  0  0  0  0
 36 41  1  0  0  0  0
 37 38  2  0  0  0  0
 37 45  1  0  0  0  0
 39 42  1  0  0  0  0
 39 43  1  0  0  0  0
 39 44  1  0  0  0  0
 45 46  1  0  0  0  0
 45 47  1  0  0  0  0
 46 48  1  0  0  0  0
 46 49  1  0  0  0  0
 46 50  1  0  0  0  0
M  CHG  1  23   1
M  END
$$$$

  -OEChem-05262216443D

 50 50  0     1  0  0  0  0  0999 V2000
   -1.1874   -0.4175    3.9472 C   0  0  0  0  0  0  0  0  0  0  0  0
   -0.1499   -0.7221    3.3722 O   0  0  0  0  0  0  0  0  0  0  0  0
   -1.4281   -0.9117    5.3606 C   0  0  0  0  0  0  0  0  0  0  0  0
   -2.3244   -1.5362    5.3896 H   0  0  0  0  0  0  0  0  0  0  0  0
   -0.5757   -1.5041    5.7046 H   0  0  0  0  0  0  0  0  0  0  0  0
   -1.5611   -0.0630    6.0358 H   0  0  0  0  0  0  0  0  0  0  0  0
   -2.1348    0.3875    3.3412 N   0  0  0  0  0  0  0  0  0  0  0  0
   -2.0966    0.8053    1.9293 C   0  0  2  0  0  0  0  0  0  0  0  0
   -0.7671    1.4626    1.4891 C   0  0  0  0  0  0  0  0  0  0  0  0
   -0.1365    2.1700    2.2654 O   0  0  0  0  0  0  0  0  0  0  0  0
   -3.2521    1.7841    1.7095 C   0  0  0  0  0  0  0  0  0  0  0  0
   -2.9846    0.5612    3.8692 H   0  0  0  0  0  0  0  0  0  0  0  0
   -2.2606   -0.0748    1.3014 H   0  0  0  0  0  0  0  0  0  0  0  0
   -3.1227    2.6765    2.3311 H   0  0  0  0  0  0  0  0  0  0  0  0
   -3.2961    2.0945    0.6609 H   0  0  0  0  0  0  0  0  0  0  0  0
   -4.2057    1.3128    1.9676 H   0  0  0  0  0  0  0  0  0  0  0  0
   -0.2721    1.2395    0.2119 N   0  0  0  0  0  0  0  0  0  0  0  0
    1.0469    0.6137   -0.0317 C   0  0  2  0  0  0  0  0  0  0  0  0
    0.8934   -0.9167   -0.1320 C   0  0  0  0  0  0  0  0  0  0  0  0
    0.7631   -1.4022   -1.2469 O   0  0  0  0  0  0  0  0  0  0  0  0
    2.2387    1.0061    0.8730 C   0  0  0  0  0  0  0  0  0  0  0  0
    2.6105    2.4642    0.7230 C   0  0  0  0  0  0  0  0  0  0  0  0
    3.2904    3.0304   -0.3573 N   0  3  0  0  0  0  0  0  0  0  0  0
    2.4323    3.4560    1.6532 C   0  0  0  0  0  0  0  0  0  0  0  0
    3.4912    4.3100   -0.1514 C   0  0  0  0  0  0  0  0  0  0  0  0
    2.9665    4.6122    1.1028 N   0  0  0  0  0  0  0  0  0  0  0  0
   -0.9916    0.8540   -0.3998 H   0  0  0  0  0  0  0  0  0  0  0  0
    1.3344    0.9344   -1.0382 H   0  0  0  0  0  0  0  0  0  0  0  0
    3.1082    0.3903    0.6191 H   0  0  0  0  0  0  0  0  0  0  0  0
    1.9939    0.7892    1.9191 H   0  0  0  0  0  0  0  0  0  0  0  0
    3.5485    2.4985   -1.1922 H   0  0  0  0  0  0  0  0  0  0  0  0
    1.9429    3.3427    2.6223 H   0  0  0  0  0  0  0  0  0  0  0  0
    3.9765    5.0090   -0.8349 H   0  0  0  0  0  0  0  0  0  0  0  0
    2.9579    5.5353    1.5456 H   0  0  0  0  0  0  0  0  0  0  0  0
    0.9835   -1.7476    0.9676 N   0  0  0  0  0  0  0  0  0  0  0  0
    0.6011   -3.1641    0.8709 C   0  0  2  0  0  0  0  0  0  0  0  0
   -0.9241   -3.3724    0.7066 C   0  0  0  0  0  0  0  0  0  0  0  0
   -1.7224   -2.5050    1.0467 O   0  0  0  0  0  0  0  0  0  0  0  0
    1.0963   -3.8611    2.1402 C   0  0  0  0  0  0  0  0  0  0  0  0
    0.7774   -1.2948    1.8646 H   0  0  0  0  0  0  0  0  0  0  0  0
    1.0990   -3.6168    0.0068 H   0  0  0  0  0  0  0  0  0  0  0  0
    0.6050   -3.4411    3.0241 H   0  0  0  0  0  0  0  0  0  0  0  0
    0.8787   -4.9328    2.0997 H   0  0  0  0  0  0  0  0  0  0  0  0
    2.1776   -3.7321    2.2482 H   0  0  0  0  0  0  0  0  0  0  0  0
   -1.4105   -4.5517    0.1732 N   0  0  0  0  0  0  0  0  0  0  0  0
   -2.8271   -4.7889   -0.0820 C   0  0  0  0  0  0  0  0  0  0  0  0
   -0.7328   -5.2242   -0.1739 H   0  0  0  0  0  0  0  0  0  0  0  0
   -3.4107   -4.6617    0.8361 H   0  0  0  0  0  0  0  0  0  0  0  0
   -3.2021   -4.0896   -0.8369 H   0  0  0  0  0  0  0  0  0  0  0  0
   -2.9807   -5.8090   -0.4473 H   0  0  0  0  0  0  0  0  0  0  0  0
  1  2  2  0  0  0  0
  1  3  1  0  0  0  0
  1  7  1  0  0  0  0
  3  4  1  0  0  0  0
  3  5  1  0  0  0  0
  3  6  1  0  0  0  0
  7  8  1  0  0  0  0
  7 12  1  0  0  0  0
  8  9  1  0  0  0  0
  8 11  1  0  0  0  0
  8 13  1  0  0  0  0
  9 10  2  0  0  0  0
  9 17  1  0  0  0  0
 11 14  1  0  0  0  0
 11 15  1  0  0  0  0
 11 16  1  0  0  0  0
 17 18  1  0  0  0  0
 17 27  1  0  0  0  0
 18 19  1  0  0  0  0
 18 21  1  0  0  0  0
 18 28  1  0  0  0  0
 19 20  2  0  0  0  0
 19 35  1  0  0  0  0
 21 22  1  0  0  0  0
 21 29  1  0  0  0  0
 21 30  1  0  0  0  0
 22 23  1  0  0  0  0
 22 24  2  0  0  0  0
 23 25  2  0  0  0  0
 23 31  1  0  0  0  0
 24 26  1  0  0  0  0
 24 32  1  0  0  0  0
 25 26  1  0  0  0  0
 25 33  1  0  0  0  0
 26 34  1  0  0  0  0
 35 36  1  0  0  0  0
 35 40  1  0  0  0  0
 36 37  1  0  0  0  0
 36 39  1  0  0  0  0
 36 41  1  0  0  0  0
 37 38  2  0  0  0  0
 37 45  1  0  0  0  0
 39 42  1  0  0  0  0
 39 43  1  0  0  0  0
 39 44  1  0  0  0  0
 45 46  1  0  0  0  0
 45 47  1  0  0  0  0
 46 48  1  0  0  0  0
 46 49  1  0  0  0  0
 46 50  1  0  0  0  0
M  CHG  1  23   1
M  END
$$$$

  -OEChem-05262216443D

 50 50  0     1  0  0  0  0  0999 V2000
   -1.5215   -0.4421    4.0095 C   0  0  0  0  0  0  0  0  0  0  0  0
   -0.6078   -0.9954    3.4123 O   0  0  0  0  0  0  0  0  0  0  0  0
   -1.7722   -0.7668    5.4695 C   0  0  0  0  0  0  0  0  0  0  0  0
   -2.7816   -1.1654    5.5956 H   0  0  0  0  0  0  0  0  0  0  0  0
   -1.0540   -1.5139    5.8187 H   0  0  0  0  0  0  0  0  0  0  0  0
   -1.6646    0.1353    6.0766 H   0  0  0  0  0  0  0  0  0  0  0  0
   -2.3105    0.4954    3.3704 N   0  0  0  0  0  0  0  0  0  0  0  0
   -2.1627    0.8613    1.9521 C   0  0  2  0  0  0  0  0  0  0  0  0
   -0.7384    1.3355    1.5724 C   0  0  0  0  0  0  0  0  0  0  0  0
   -0.0396    1.9083    2.4008 O   0  0  0  0  0  0  0  0  0  0  0  0
   -3.1780    1.9649    1.6474 C   0  0  0  0  0  0  0  0  0  0  0  0
   -3.0366    0.9446    3.9203 H   0  0  0  0  0  0  0  0  0  0  0  0
   -2.4031   -0.0140    1.3414 H   0  0  0  0  0  0  0  0  0  0  0  0
   -2.9679    2.8565    2.2473 H   0  0  0  0  0  0  0  0  0  0  0  0
   -3.1370    2.2411    0.5890 H   0  0  0  0  0  0  0  0  0  0  0  0
   -4.1929    1.6218    1.8727 H   0  0  0  0  0  0  0  0  0  0  0  0
   -0.2460    1.1094    0.2941 N   0  0  0  0  0  0  0  0  0  0  0  0
    1.0906    0.5355    0.0117 C   0  0  2  0  0  0  0  0  0  0  0  0
    1.0038   -0.9986   -0.0752 C   0  0  0  0  0  0  0  0  0  0  0  0
    1.1585   -1.5093   -1.1761 O   0  0  0  0  0  0  0  0  0  0  0  0
    2.2979    0.9656    0.8743 C   0  0  0  0  0  0  0  0  0  0  0  0
    2.6076    2.4357    0.7119 C   0  0  0  0  0  0  0  0  0  0  0  0
    3.2263    3.0231   -0.3930 N   0  3  0  0  0  0  0  0  0  0  0  0
    2.4047    3.4256    1.6388 C   0  0  0  0  0  0  0  0  0  0  0  0
    3.3783    4.3113   -0.1998 C   0  0  0  0  0  0  0  0  0  0  0  0
    2.8738    4.5998    1.0662 N   0  0  0  0  0  0  0  0  0  0  0  0
   -0.9692    0.7312   -0.3189 H   0  0  0  0  0  0  0  0  0  0  0  0
    1.3313    0.8660   -1.0039 H   0  0  0  0  0  0  0  0  0  0  0  0
    3.1785    0.3846    0.5791 H   0  0  0  0  0  0  0  0  0  0  0  0
    2.1088    0.7298    1.9270 H   0  0  0  0  0  0  0  0  0  0  0  0
    3.4887    2.4947   -1.2291 H   0  0  0  0  0  0  0  0  0  0  0  0
    1.9444    3.2977    2.6203 H   0  0  0  0  0  0  0  0  0  0  0  0
    3.8163    5.0246   -0.9002 H   0  0  0  0  0  0  0  0  0  0  0  0
    2.8400    5.5249    1.5039 H   0  0  0  0  0  0  0  0  0  0  0  0
    0.8620   -1.8039    1.0400 N   0  0  0  0  0  0  0  0  0  0  0  0
    0.4077   -3.1941    0.8737 C   0  0  2  0  0  0  0  0  0  0  0  0
   -1.0848   -3.2884    0.4649 C   0  0  0  0  0  0  0  0  0  0  0  0
   -1.8083   -2.2953    0.4602 O   0  0  0  0  0  0  0  0  0  0  0  0
    0.6591   -3.9379    2.1884 C   0  0  0  0  0  0  0  0  0  0  0  0
    0.5151   -1.3284    1.8802 H   0  0  0  0  0  0  0  0  0  0  0  0
    1.0001   -3.6799    0.0909 H   0  0  0  0  0  0  0  0  0  0  0  0
    0.0319   -3.5326    2.9881 H   0  0  0  0  0  0  0  0  0  0  0  0
    0.4301   -5.0019    2.0771 H   0  0  0  0  0  0  0  0  0  0  0  0
    1.7080   -3.8404    2.4855 H   0  0  0  0  0  0  0  0  0  0  0  0
   -1.6185   -4.4991    0.0621 N   0  0  0  0  0  0  0  0  0  0  0  0
   -2.9906   -4.6553   -0.4078 C   0  0  0  0  0  0  0  0  0  0  0  0
   -0.9901   -5.2954    0.0091 H   0  0  0  0  0  0  0  0  0  0  0  0
   -3.6999   -4.3455    0.3671 H   0  0  0  0  0  0  0  0  0  0  0  0
   -3.1611   -4.0489   -1.3038 H   0  0  0  0  0  0  0  0  0  0  0  0
   -3.1890   -5.7024   -0.6568 H   0  0  0  0  0  0  0  0  0  0  0  0
  1  2  2  0  0  0  0
  1  3  1  0  0  0  0
  1  7  1  0  0  0  0
  3  4  1  0  0  0  0
  3  5  1  0  0  0  0
  3  6  1  0  0  0  0
  7  8  1  0  0  0  0
  7 12  1  0  0  0  0
  8  9  1  0  0  0  0
  8 11  1  0  0  0  0
  8 13  1  0  0  0  0
  9 10  2  0  0  0  0
  9 17  1  0  0  0  0
 11 14  1  0  0  0  0
 11 15  1  0  0  0  0
 11 16  1  0  0  0  0
 17 18  1  0  0  0  0
 17 27  1  0  0  0  0
 18 19  1  0  0  0  0
 18 21  1  0  0  0  0
 18 28  1  0  0  0  0
 19 20  2  0  0  0  0
 19 35  1  0  0  0  0
 21 22  1  0  0  0  0
 21 29  1  0  0  0  0
 21 30  1  0  0  0  0
 22 23  1  0  0  0  0
 22 24  2  0  0  0  0
 23 25  2  0  0  0  0
 23 31  1  0  0  0  0
 24 26  1  0  0  0  0
 24 32  1  0  0  0  0
 25 26  1  0  0  0  0
 25 33  1  0  0  0  0
 26 34  1  0  0  0  0
 35 36  1  0  0  0  0
 35 40  1  0  0  0  0
 36 37  1  0  0  0  0
 36 39  1  0  0  0  0
 36 41  1  0  0  0  0
 37 38  2  0  0  0  0
 37 45  1  0  0  0  0
 39 42  1  0  0  0  0
 39 43  1  0  0  0  0
 39 44  1  0  0  0  0
 45 46  1  0  0  0  0
 45 47  1  0  0  0  0
 46 48  1  0  0  0  0
 46 49  1  0  0  0  0
 46 50  1  0  0  0  0
M  CHG  1  23   1
M  END
$$$$

  -OEChem-05262216443D

 50 50  0     1  0  0  0  0  0999 V2000
   -1.8054   -0.4634    3.9782 C   0  0  0  0  0  0  0  0  0  0  0  0
   -0.9715   -1.1417    3.3950 O   0  0  0  0  0  0  0  0  0  0  0  0
   -2.0989   -0.7159    5.4441 C   0  0  0  0  0  0  0  0  0  0  0  0
   -3.1556   -0.9604    5.5777 H   0  0  0  0  0  0  0  0  0  0  0  0
   -1.4957   -1.5512    5.8108 H   0  0  0  0  0  0  0  0  0  0  0  0
   -1.8603    0.1740    6.0317 H   0  0  0  0  0  0  0  0  0  0  0  0
   -2.4590    0.5518    3.3082 N   0  0  0  0  0  0  0  0  0  0  0  0
   -2.2073    0.8826    1.8967 C   0  0  2  0  0  0  0  0  0  0  0  0
   -0.7259    1.2151    1.5917 C   0  0  0  0  0  0  0  0  0  0  0  0
   -0.0254    1.7330    2.4545 O   0  0  0  0  0  0  0  0  0  0  0  0
   -3.0983    2.0715    1.5303 C   0  0  0  0  0  0  0  0  0  0  0  0
   -3.0998    1.1288    3.8444 H   0  0  0  0  0  0  0  0  0  0  0  0
   -2.4975    0.0251    1.2821 H   0  0  0  0  0  0  0  0  0  0  0  0
   -2.8366    2.9480    2.1322 H   0  0  0  0  0  0  0  0  0  0  0  0
   -2.9784    2.3274    0.4729 H   0  0  0  0  0  0  0  0  0  0  0  0
   -4.1506    1.8269    1.7062 H   0  0  0  0  0  0  0  0  0  0  0  0
   -0.1967    0.9494    0.3361 N   0  0  0  0  0  0  0  0  0  0  0  0
    1.1680    0.4305    0.0749 C   0  0  2  0  0  0  0  0  0  0  0  0
    1.1692   -1.1073    0.0512 C   0  0  0  0  0  0  0  0  0  0  0  0
    1.5721   -1.6496   -0.9690 O   0  0  0  0  0  0  0  0  0  0  0  0
    2.3485    0.9446    0.9268 C   0  0  0  0  0  0  0  0  0  0  0  0
    2.5833    2.4213    0.7167 C   0  0  0  0  0  0  0  0  0  0  0  0
    3.1749    3.0072   -0.4034 N   0  3  0  0  0  0  0  0  0  0  0  0
    2.3147    3.4258    1.6099 C   0  0  0  0  0  0  0  0  0  0  0  0
    3.2548    4.3072   -0.2487 C   0  0  0  0  0  0  0  0  0  0  0  0
    2.7237    4.6062    1.0043 N   0  0  0  0  0  0  0  0  0  0  0  0
   -0.9002    0.5393   -0.2814 H   0  0  0  0  0  0  0  0  0  0  0  0
    1.3938    0.7335   -0.9525 H   0  0  0  0  0  0  0  0  0  0  0  0
    3.2583    0.4015    0.6483 H   0  0  0  0  0  0  0  0  0  0  0  0
    2.1730    0.7282    1.9856 H   0  0  0  0  0  0  0  0  0  0  0  0
    3.4756    2.4670   -1.2193 H   0  0  0  0  0  0  0  0  0  0  0  0
    1.8530    3.3006    2.5912 H   0  0  0  0  0  0  0  0  0  0  0  0
    3.6609    5.0219   -0.9669 H   0  0  0  0  0  0  0  0  0  0  0  0
    2.6387    5.5407    1.4141 H   0  0  0  0  0  0  0  0  0  0  0  0
    0.7779   -1.8781    1.1318 N   0  0  0  0  0  0  0  0  0  0  0  0
    0.2349   -3.2220    0.8724 C   0  0  2  0  0  0  0  0  0  0  0  0
   -1.1964   -3.1602    0.2778 C   0  0  0  0  0  0  0  0  0  0  0  0
   -1.7655   -2.0839    0.1000 O   0  0  0  0  0  0  0  0  0  0  0  0
    0.2634   -4.0226    2.1782 C   0  0  0  0  0  0  0  0  0  0  0  0
    0.3207   -1.3672    1.8940 H   0  0  0  0  0  0  0  0  0  0  0  0
    0.8721   -3.7453    0.1512 H   0  0  0  0  0  0  0  0  0  0  0  0
   -0.4449   -3.6115    2.9027 H   0  0  0  0  0  0  0  0  0  0  0  0
   -0.0031   -5.0674    1.9932 H   0  0  0  0  0  0  0  0  0  0  0  0
    1.2657   -3.9963    2.6172 H   0  0  0  0  0  0  0  0  0  0  0  0
   -1.8363   -4.3205   -0.1174 N   0  0  0  0  0  0  0  0  0  0  0  0
   -3.1469   -4.3374   -0.7575 C   0  0  0  0  0  0  0  0  0  0  0  0
   -1.3246   -5.1935   -0.0260 H   0  0  0  0  0  0  0  0  0  0  0  0
   -3.8958   -3.8636   -0.1141 H   0  0  0  0  0  0  0  0  0  0  0  0
   -3.1135   -3.8021   -1.7122 H   0  0  0  0  0  0  0  0  0  0  0  0
   -3.4614   -5.3678   -0.9497 H   0  0  0  0  0  0  0  0  0  0  0  0
  1  2  2  0  0  0  0
  1  3  1  0  0  0  0
  1  7  1  0  0  0  0
  3  4  1  0  0  0  0
  3  5  1  0  0  0  0
  3  6  1  0  0  0  0
  7  8  1  0  0  0  0
  7 12  1  0  0  0  0
  8  9  1  0  0  0  0
  8 11  1  0  0  0  0
  8 13  1  0  0  0  0
  9 10  2  0  0  0  0
  9 17  1  0  0  0  0
 11 14  1  0  0  0  0
 11 15  1  0  0  0  0
 11 16  1  0  0  0  0
 17 18  1  0  0  0  0
 17 27  1  0  0  0  0
 18 19  1  0  0  0  0
 18 21  1  0  0  0  0
 18 28  1  0  0  0  0
 19 20  2  0  0  0  0
 19 35  1  0  0  0  0
 21 22  1  0  0  0  0
 21 29  1  0  0  0  0
 21 30  1  0  0  0  0
 22 23  1  0  0  0  0
 22 24  2  0  0  0  0
 23 25  2  0  0  0  0
 23 31  1  0  0  0  0
 24 26  1  0  0  0  0
 24 32  1  0  0  0  0
 25 26  1  0  0  0  0
 25 33  1  0  0  0  0
 26 34  1  0  0  0  0
 35 36  1  0  0  0  0
 35 40  1  0  0  0  0
 36 37  1  0  0  0  0
 36 39  1  0  0  0  0
 36 41  1  0  0  0  0
 37 38  2  0  0  0  0
 37 45  1  0  0  0  0
 39 42  1  0  0  0  0
 39 43  1  0  0  0  0
 39 44  1  0  0  0  0
 45 46  1  0  0  0  0
 45 47  1  0  0  0  0
 46 48  1  0  0  0  0
 46 49  1  0  0  0  0
 46 50  1  0  0  0  0
M  CHG  1  23   1
M  END
$$$$

  -OEChem-05262216443D

 50 50  0     1  0  0  0  0  0999 V2000
   -2.0853   -0.4809    3.8545 C   0  0  0  0  0  0  0  0  0  0  0  0
   -1.3357   -1.2547    3.2763 O   0  0  0  0  0  0  0  0  0  0  0  0
   -2.4369   -0.7052    5.3122 C   0  0  0  0  0  0  0  0  0  0  0  0
   -1.9884   -1.6367    5.6688 H   0  0  0  0  0  0  0  0  0  0  0  0
   -2.0597    0.1217    5.9187 H   0  0  0  0  0  0  0  0  0  0  0  0
   -3.5213   -0.7703    5.4302 H   0  0  0  0  0  0  0  0  0  0  0  0
   -2.5865    0.6138    3.1795 N   0  0  0  0  0  0  0  0  0  0  0  0
   -2.2241    0.9275    1.7891 C   0  0  2  0  0  0  0  0  0  0  0  0
   -0.7027    1.1300    1.5818 C   0  0  0  0  0  0  0  0  0  0  0  0
   -0.0261    1.6167    2.4812 O   0  0  0  0  0  0  0  0  0  0  0  0
   -2.9852    2.1893    1.3777 C   0  0  0  0  0  0  0  0  0  0  0  0
   -3.1201    1.2904    3.7170 H   0  0  0  0  0  0  0  0  0  0  0  0
   -2.5502    0.1006    1.1507 H   0  0  0  0  0  0  0  0  0  0  0  0
   -2.6858    3.0394    1.9994 H   0  0  0  0  0  0  0  0  0  0  0  0
   -2.7794    2.4335    0.3309 H   0  0  0  0  0  0  0  0  0  0  0  0
   -4.0635    2.0364    1.4880 H   0  0  0  0  0  0  0  0  0  0  0  0
   -0.1198    0.8013    0.3658 N   0  0  0  0  0  0  0  0  0  0  0  0
    1.2652    0.3086    0.1595 C   0  0  2  0  0  0  0  0  0  0  0  0
    1.3295   -1.2265    0.2225 C   0  0  0  0  0  0  0  0  0  0  0  0
    1.9486   -1.7952   -0.6665 O   0  0  0  0  0  0  0  0  0  0  0  0
    2.4048    0.9008    1.0154 C   0  0  0  0  0  0  0  0  0  0  0  0
    2.5979    2.3713    0.7392 C   0  0  0  0  0  0  0  0  0  0  0  0
    3.2011    2.9217   -0.3922 N   0  3  0  0  0  0  0  0  0  0  0  0
    2.2645    3.4066    1.5731 C   0  0  0  0  0  0  0  0  0  0  0  0
    3.2354    4.2293   -0.2978 C   0  0  0  0  0  0  0  0  0  0  0  0
    2.6552    4.5696    0.9228 N   0  0  0  0  0  0  0  0  0  0  0  0
   -0.7980    0.3499   -0.2552 H   0  0  0  0  0  0  0  0  0  0  0  0
    1.5051    0.5639   -0.8778 H   0  0  0  0  0  0  0  0  0  0  0  0
    3.3387    0.3764    0.7842 H   0  0  0  0  0  0  0  0  0  0  0  0
    2.2125    0.7273    2.0789 H   0  0  0  0  0  0  0  0  0  0  0  0
    3.5496    2.3524   -1.1682 H   0  0  0  0  0  0  0  0  0  0  0  0
    1.7758    3.3114    2.5446 H   0  0  0  0  0  0  0  0  0  0  0  0
    3.6432    4.9215   -1.0367 H   0  0  0  0  0  0  0  0  0  0  0  0
    2.5346    5.5192    1.2864 H   0  0  0  0  0  0  0  0  0  0  0  0
    0.6821   -1.9657    1.1966 N   0  0  0  0  0  0  0  0  0  0  0  0
    0.0577   -3.2367    0.7949 C   0  0  2  0  0  0  0  0  0  0  0  0
   -1.2956   -2.9931    0.0772 C   0  0  0  0  0  0  0  0  0  0  0  0
   -1.6677   -1.8529   -0.2040 O   0  0  0  0  0  0  0  0  0  0  0  0
   -0.0994   -4.1239    2.0346 C   0  0  0  0  0  0  0  0  0  0  0  0
    0.1365   -1.4195    1.8699 H   0  0  0  0  0  0  0  0  0  0  0  0
    0.7083   -3.7715    0.0947 H   0  0  0  0  0  0  0  0  0  0  0  0
   -0.8323   -3.7033    2.7279 H   0  0  0  0  0  0  0  0  0  0  0  0
   -0.4324   -5.1261    1.7492 H   0  0  0  0  0  0  0  0  0  0  0  0
    0.8586   -4.2173    2.5556 H   0  0  0  0  0  0  0  0  0  0  0  0
   -2.0800   -4.0606   -0.3181 N   0  0  0  0  0  0  0  0  0  0  0  0
   -3.3387   -3.9119   -1.0398 C   0  0  0  0  0  0  0  0  0  0  0  0
   -1.7394   -4.9958   -0.1138 H   0  0  0  0  0  0  0  0  0  0  0  0
   -4.0428   -3.3041   -0.4616 H   0  0  0  0  0  0  0  0  0  0  0  0
   -3.1707   -3.4307   -2.0092 H   0  0  0  0  0  0  0  0  0  0  0  0
   -3.7933   -4.8920   -1.2145 H   0  0  0  0  0  0  0  0  0  0  0  0
  1  2  2  0  0  0  0
  1  3  1  0  0  0  0
  1  7  1  0  0  0  0
  3  4  1  0  0  0  0
  3  5  1  0  0  0  0
  3  6  1  0  0  0  0
  7  8  1  0  0  0  0
  7 12  1  0  0  0  0
  8  9  1  0  0  0  0
  8 11  1  0  0  0  0
  8 13  1  0  0  0  0
  9 10  2  0  0  0  0
  9 17  1  0  0  0  0
 11 14  1  0  0  0  0
 11 15  1  0  0  0  0
 11 16  1  0  0  0  0
 17 18  1  0  0  0  0
 17 27  1  0  0  0  0
 18 19  1  0  0  0  0
 18 21  1  0  0  0  0
 18 28  1  0  0  0  0
 19 20  2  0  0  0  0
 19 35  1  0  0  0  0
 21 22  1  0  0  0  0
 21 29  1  0  0  0  0
 21 30  1  0  0  0  0
 22 23  1  0  0  0  0
 22 24  2  0  0  0  0
 23 25  2  0  0  0  0
 23 31  1  0  0  0  0
 24 26  1  0  0  0  0
 24 32  1  0  0  0  0
 25 26  1  0  0  0  0
 25 33  1  0  0  0  0
 26 34  1  0  0  0  0
 35 36  1  0  0  0  0
 35 40  1  0  0  0  0
 36 37  1  0  0  0  0
 36 39  1  0  0  0  0
 36 41  1  0  0  0  0
 37 38  2  0  0  0  0
 37 45  1  0  0  0  0
 39 42  1  0  0  0  0
 39 43  1  0  0  0  0
 39 44  1  0  0  0  0
 45 46  1  0  0  0  0
 45 47  1  0  0  0  0
 46 48  1  0  0  0  0
 46 49  1  0  0  0  0
 46 50  1  0  0  0  0
M  CHG  1  23   1
M  END
$$$$

  -OEChem-05262216443D

 50 50  0     1  0  0  0  0  0999 V2000
   -2.3021   -0.4416    3.7438 C   0  0  0  0  0  0  0  0  0  0  0  0
   -1.6120   -1.2692    3.1670 O   0  0  0  0  0  0  0  0  0  0  0  0
   -2.6984   -0.6508    5.1923 C   0  0  0  0  0  0  0  0  0  0  0  0
   -2.2664   -1.5818    5.5701 H   0  0  0  0  0  0  0  0  0  0  0  0
   -2.3339    0.1785    5.8031 H   0  0  0  0  0  0  0  0  0  0  0  0
   -3.7863   -0.7080    5.2783 H   0  0  0  0  0  0  0  0  0  0  0  0
   -2.6866    0.7010    3.0725 N   0  0  0  0  0  0  0  0  0  0  0  0
   -2.2391    1.0013    1.7046 C   0  0  2  0  0  0  0  0  0  0  0  0
   -0.7002    1.1159    1.5782 C   0  0  0  0  0  0  0  0  0  0  0  0
   -0.0487    1.6042    2.4948 O   0  0  0  0  0  0  0  0  0  0  0  0
   -2.9043    2.3063    1.2636 C   0  0  0  0  0  0  0  0  0  0  0  0
   -3.1500    1.4259    3.6124 H   0  0  0  0  0  0  0  0  0  0  0  0
   -2.5787    0.1973    1.0433 H   0  0  0  0  0  0  0  0  0  0  0  0
   -2.5834    3.1373    1.9003 H   0  0  0  0  0  0  0  0  0  0  0  0
   -2.6364    2.5377    0.2278 H   0  0  0  0  0  0  0  0  0  0  0  0
   -3.9935    2.2174    1.3250 H   0  0  0  0  0  0  0  0  0  0  0  0
   -0.0785    0.6977    0.4108 N   0  0  0  0  0  0  0  0  0  0  0  0
    1.3120    0.2006    0.2593 C   0  0  2  0  0  0  0  0  0  0  0  0
    1.3946   -1.3265    0.4358 C   0  0  0  0  0  0  0  0  0  0  0  0
    2.1660   -1.9311   -0.2964 O   0  0  0  0  0  0  0  0  0  0  0  0
    2.4233    0.8593    1.1041 C   0  0  0  0  0  0  0  0  0  0  0  0
    2.6060    2.3115    0.7419 C   0  0  0  0  0  0  0  0  0  0  0  0
    3.2294    2.8028   -0.4052 N   0  3  0  0  0  0  0  0  0  0  0  0
    2.2387    3.3882    1.5059 C   0  0  0  0  0  0  0  0  0  0  0  0
    3.2443    4.1140   -0.3866 C   0  0  0  0  0  0  0  0  0  0  0  0
    2.6295    4.5170    0.7977 N   0  0  0  0  0  0  0  0  0  0  0  0
   -0.7421    0.2212   -0.2107 H   0  0  0  0  0  0  0  0  0  0  0  0
    1.5728    0.3847   -0.7877 H   0  0  0  0  0  0  0  0  0  0  0  0
    3.3691    0.3351    0.9273 H   0  0  0  0  0  0  0  0  0  0  0  0
    2.2086    0.7475    2.1713 H   0  0  0  0  0  0  0  0  0  0  0  0
    3.6053    2.1939   -1.1373 H   0  0  0  0  0  0  0  0  0  0  0  0
    1.7288    3.3413    2.4701 H   0  0  0  0  0  0  0  0  0  0  0  0
    3.6622    4.7672   -1.1546 H   0  0  0  0  0  0  0  0  0  0  0  0
    2.4878    5.4845    1.1019 H   0  0  0  0  0  0  0  0  0  0  0  0
    0.5231   -2.0275    1.2494 N   0  0  0  0  0  0  0  0  0  0  0  0
   -0.1136   -3.2405    0.7141 C   0  0  2  0  0  0  0  0  0  0  0  0
   -1.3554   -2.8830   -0.1434 C   0  0  0  0  0  0  0  0  0  0  0  0
   -1.6200   -1.7103   -0.4151 O   0  0  0  0  0  0  0  0  0  0  0  0
   -0.4680   -4.1636    1.8849 C   0  0  0  0  0  0  0  0  0  0  0  0
   -0.0929   -1.4502    1.8290 H   0  0  0  0  0  0  0  0  0  0  0  0
    0.5854   -3.7835    0.0690 H   0  0  0  0  0  0  0  0  0  0  0  0
   -1.2534   -3.7241    2.5056 H   0  0  0  0  0  0  0  0  0  0  0  0
   -0.8209   -5.1319    1.5183 H   0  0  0  0  0  0  0  0  0  0  0  0
    0.4136   -4.3353    2.5107 H   0  0  0  0  0  0  0  0  0  0  0  0
   -2.1522   -3.8800   -0.6745 N   0  0  0  0  0  0  0  0  0  0  0  0
   -3.3093   -3.6214   -1.5240 C   0  0  0  0  0  0  0  0  0  0  0  0
   -1.9054   -4.8426   -0.4618 H   0  0  0  0  0  0  0  0  0  0  0  0
   -4.0533   -3.0229   -0.9876 H   0  0  0  0  0  0  0  0  0  0  0  0
   -3.0087   -3.0824   -2.4287 H   0  0  0  0  0  0  0  0  0  0  0  0
   -3.7765   -4.5645   -1.8241 H   0  0  0  0  0  0  0  0  0  0  0  0
  1  2  2  0  0  0  0
  1  3  1  0  0  0  0
  1  7  1  0  0  0  0
  3  4  1  0  0  0  0
  3  5  1  0  0  0  0
  3  6  1  0  0  0  0
  7  8  1  0  0  0  0
  7 12  1  0  0  0  0
  8  9  1  0  0  0  0
  8 11  1  0  0  0  0
  8 13  1  0  0  0  0
  9 10  2  0  0  0  0
  9 17  1  0  0  0  0
 11 14  1  0  0  0  0
 11 15  1  0  0  0  0
 11 16  1  0  0  0  0
 17 18  1  0  0  0  0
 17 27  1  0  0  0  0
 18 19  1  0  0  0  0
 18 21  1  0  0  0  0
 18 28  1  0  0  0  0
 19 20  2  0  0  0  0
 19 35  1  0  0  0  0
 21 22  1  0  0  0  0
 21 29  1  0  0  0  0
 21 30  1  0  0  0  0
 22 23  1  0  0  0  0
 22 24  2  0  0  0  0
 23 25  2  0  0  0  0
 23 31  1  0  0  0  0
 24 26  1  0  0  0  0
 24 32  1  0  0  0  0
 25 26  1  0  0  0  0
 25 33  1  0  0  0  0
 26 34  1  0  0  0  0
 35 36  1  0  0  0  0
 35 40  1  0  0  0  0
 36 37  1  0  0  0  0
 36 39  1  0  0  0  0
 36 41  1  0  0  0  0
 37 38  2  0  0  0  0
 37 45  1  0  0  0  0
 39 42  1  0  0  0  0
 39 43  1  0  0  0  0
 39 44  1  0  0  0  0
 45 46  1  0  0  0  0
 45 47  1  0  0  0  0
 46 48  1  0  0  0  0
 46 49  1  0  0  0  0
 46 50  1  0  0  0  0
M  CHG  1  23   1
M  END
$$$$

  -OEChem-05262216443D

 50 50  0     1  0  0  0  0  0999 V2000
   -2.5090   -0.4268    3.6001 C   0  0  0  0  0  0  0  0  0  0  0  0
   -1.8998   -1.2849    2.9785 O   0  0  0  0  0  0  0  0  0  0  0  0
   -2.9330   -0.6720    5.0348 C   0  0  0  0  0  0  0  0  0  0  0  0
   -2.7040   -1.7013    5.3249 H   0  0  0  0  0  0  0  0  0  0  0  0
   -2.3997    0.0087    5.7028 H   0  0  0  0  0  0  0  0  0  0  0  0
   -4.0082   -0.5086    5.1408 H   0  0  0  0  0  0  0  0  0  0  0  0
   -2.7655    0.7854    2.9942 N   0  0  0  0  0  0  0  0  0  0  0  0
   -2.2565    1.1173    1.6564 C   0  0  2  0  0  0  0  0  0  0  0  0
   -0.7107    1.1556    1.5953 C   0  0  0  0  0  0  0  0  0  0  0  0
   -0.0764    1.6538    2.5184 O   0  0  0  0  0  0  0  0  0  0  0  0
   -2.8428    2.4706    1.2497 C   0  0  0  0  0  0  0  0  0  0  0  0
   -3.1336    1.5288    3.5805 H   0  0  0  0  0  0  0  0  0  0  0  0
   -2.6085    0.3592    0.9473 H   0  0  0  0  0  0  0  0  0  0  0  0
   -2.5135    3.2555    1.9382 H   0  0  0  0  0  0  0  0  0  0  0  0
   -2.5202    2.7364    0.2383 H   0  0  0  0  0  0  0  0  0  0  0  0
   -3.9367    2.4304    1.2620 H   0  0  0  0  0  0  0  0  0  0  0  0
   -0.0678    0.6475    0.4768 N   0  0  0  0  0  0  0  0  0  0  0  0
    1.3179    0.1269    0.3719 C   0  0  2  0  0  0  0  0  0  0  0  0
    1.3964   -1.3863    0.6542 C   0  0  0  0  0  0  0  0  0  0  0  0
    2.2875   -2.0090    0.0927 O   0  0  0  0  0  0  0  0  0  0  0  0
    2.4173    0.8381    1.1896 C   0  0  0  0  0  0  0  0  0  0  0  0
    2.6112    2.2620    0.7356 C   0  0  0  0  0  0  0  0  0  0  0  0
    3.2556    2.6747   -0.4304 N   0  3  0  0  0  0  0  0  0  0  0  0
    2.2350    3.3870    1.4214 C   0  0  0  0  0  0  0  0  0  0  0  0
    3.2782    3.9843   -0.4957 C   0  0  0  0  0  0  0  0  0  0  0  0
    2.6445    4.4661    0.6488 N   0  0  0  0  0  0  0  0  0  0  0  0
   -0.7247    0.1705   -0.1533 H   0  0  0  0  0  0  0  0  0  0  0  0
    1.5920    0.2367   -0.6819 H   0  0  0  0  0  0  0  0  0  0  0  0
    3.3653    0.3029    1.0642 H   0  0  0  0  0  0  0  0  0  0  0  0
    2.1855    0.7974    2.2581 H   0  0  0  0  0  0  0  0  0  0  0  0
    3.6426    2.0177   -1.1134 H   0  0  0  0  0  0  0  0  0  0  0  0
    1.7097    3.4041    2.3782 H   0  0  0  0  0  0  0  0  0  0  0  0
    3.7141    4.5851   -1.2958 H   0  0  0  0  0  0  0  0  0  0  0  0
    2.5060    5.4520    0.8889 H   0  0  0  0  0  0  0  0  0  0  0  0
    0.3571   -2.0715    1.2552 N   0  0  0  0  0  0  0  0  0  0  0  0
   -0.2257   -3.2357    0.5746 C   0  0  2  0  0  0  0  0  0  0  0  0
   -1.3478   -2.8006   -0.4025 C   0  0  0  0  0  0  0  0  0  0  0  0
   -1.5690   -1.6075   -0.6192 O   0  0  0  0  0  0  0  0  0  0  0  0
   -0.7423   -4.2044    1.6427 C   0  0  0  0  0  0  0  0  0  0  0  0
   -0.3300   -1.4831    1.7344 H   0  0  0  0  0  0  0  0  0  0  0  0
    0.5382   -3.7590   -0.0107 H   0  0  0  0  0  0  0  0  0  0  0  0
   -1.5754   -3.7627    2.1971 H   0  0  0  0  0  0  0  0  0  0  0  0
   -1.0868   -5.1361    1.1848 H   0  0  0  0  0  0  0  0  0  0  0  0
    0.0569   -4.4457    2.3506 H   0  0  0  0  0  0  0  0  0  0  0  0
   -2.0790   -3.7471   -1.0956 N   0  0  0  0  0  0  0  0  0  0  0  0
   -3.1293   -3.4142   -2.0516 C   0  0  0  0  0  0  0  0  0  0  0  0
   -1.8752   -4.7259   -0.9123 H   0  0  0  0  0  0  0  0  0  0  0  0
   -3.9154   -2.8239   -1.5687 H   0  0  0  0  0  0  0  0  0  0  0  0
   -2.7187   -2.8380   -2.8878 H   0  0  0  0  0  0  0  0  0  0  0  0
   -3.5813   -4.3275   -2.4512 H   0  0  0  0  0  0  0  0  0  0  0  0
  1  2  2  0  0  0  0
  1  3  1  0  0  0  0
  1  7  1  0  0  0  0
  3  4  1  0  0  0  0
  3  5  1  0  0  0  0
  3  6  1  0  0  0  0
  7  8  1  0  0  0  0
  7 12  1  0  0  0  0
  8  9  1  0  0  0  0
  8 11  1  0  0  0  0
  8 13  1  0  0  0  0
  9 10  2  0  0  0  0
  9 17  1  0  0  0  0
 11 14  1  0  0  0  0
 11 15  1  0  0  0  0
 11 16  1  0  0  0  0
 17 18  1  0  0  0  0
 17 27  1  0  0  0  0
 18 19  1  0  0  0  0
 18 21  1  0  0  0  0
 18 28  1  0  0  0  0
 19 20  2  0  0  0  0
 19 35  1  0  0  0  0
 21 22  1  0  0  0  0
 21 29  1  0  0  0  0
 21 30  1  0  0  0  0
 22 23  1  0  0  0  0
 22 24  2  0  0  0  0
 23 25  2  0  0  0  0
 23 31  1  0  0  0  0
 24 26  1  0  0  0  0
 24 32  1  0  0  0  0
 25 26  1  0  0  0  0
 25 33  1  0  0  0  0
 26 34  1  0  0  0  0
 35 36  1  0  0  0  0
 35 40  1  0  0  0  0
 36 37  1  0  0  0  0
 36 39  1  0  0  0  0
 36 41  1  0  0  0  0
 37 38  2  0  0  0  0
 37 45  1  0  0  0  0
 39 42  1  0  0  0  0
 39 43  1  0  0  0  0
 39 44  1  0  0  0  0
 45 46  1  0  0  0  0
 45 47  1  0  0  0  0
 46 48  1  0  0  0  0
 46 49  1  0  0  0  0
 46 50  1  0  0  0  0
M  CHG  1  23   1
M  END
$$$$

  -OEChem-05262216443D

 50 50  0     1  0  0  0  0  0999 V2000
   -2.7319   -0.4177    3.3641 C   0  0  0  0  0  0  0  0  0  0  0  0
   -2.1956   -1.2593    2.6586 O   0  0  0  0  0  0  0  0  0  0  0  0
   -3.2369   -0.7817    4.7463 C   0  0  0  0  0  0  0  0  0  0  0  0
   -3.0805   -1.8475    4.9355 H   0  0  0  0  0  0  0  0  0  0  0  0
   -2.6989   -0.2071    5.5045 H   0  0  0  0  0  0  0  0  0  0  0  0
   -4.3053   -0.5651    4.8230 H   0  0  0  0  0  0  0  0  0  0  0  0
   -2.8302    0.8776    2.9004 N   0  0  0  0  0  0  0  0  0  0  0  0
   -2.2457    1.2978    1.6202 C   0  0  2  0  0  0  0  0  0  0  0  0
   -0.7012    1.2217    1.6220 C   0  0  0  0  0  0  0  0  0  0  0  0
   -0.0680    1.7110    2.5501 O   0  0  0  0  0  0  0  0  0  0  0  0
   -2.7183    2.7227    1.3242 C   0  0  0  0  0  0  0  0  0  0  0  0
   -3.1355    1.5872    3.5608 H   0  0  0  0  0  0  0  0  0  0  0  0
   -2.6195    0.6395    0.8268 H   0  0  0  0  0  0  0  0  0  0  0  0
   -2.3689    3.4143    2.0977 H   0  0  0  0  0  0  0  0  0  0  0  0
   -2.3312    3.0576    0.3569 H   0  0  0  0  0  0  0  0  0  0  0  0
   -3.8118    2.7603    1.2892 H   0  0  0  0  0  0  0  0  0  0  0  0
   -0.0612    0.6179    0.5508 N   0  0  0  0  0  0  0  0  0  0  0  0
    1.3127    0.0642    0.4726 C   0  0  2  0  0  0  0  0  0  0  0  0
    1.3623   -1.4270    0.8665 C   0  0  0  0  0  0  0  0  0  0  0  0
    2.3355   -2.0675    0.4923 O   0  0  0  0  0  0  0  0  0  0  0  0
    2.4191    0.8147    1.2471 C   0  0  0  0  0  0  0  0  0  0  0  0
    2.6315    2.2055    0.7079 C   0  0  0  0  0  0  0  0  0  0  0  0
    3.2822    2.5465   -0.4774 N   0  3  0  0  0  0  0  0  0  0  0  0
    2.2657    3.3700    1.3304 C   0  0  0  0  0  0  0  0  0  0  0  0
    3.3187    3.8504   -0.6139 C   0  0  0  0  0  0  0  0  0  0  0  0
    2.6876    4.4007    0.5009 N   0  0  0  0  0  0  0  0  0  0  0  0
   -0.7194    0.1612   -0.0935 H   0  0  0  0  0  0  0  0  0  0  0  0
    1.5877    0.0925   -0.5862 H   0  0  0  0  0  0  0  0  0  0  0  0
    3.3626    0.2645    1.1565 H   0  0  0  0  0  0  0  0  0  0  0  0
    2.1869    0.8413    2.3158 H   0  0  0  0  0  0  0  0  0  0  0  0
    3.6678    1.8490   -1.1198 H   0  0  0  0  0  0  0  0  0  0  0  0
    1.7407    3.4443    2.2848 H   0  0  0  0  0  0  0  0  0  0  0  0
    3.7637    4.4020   -1.4439 H   0  0  0  0  0  0  0  0  0  0  0  0
    2.5622    5.3997    0.6884 H   0  0  0  0  0  0  0  0  0  0  0  0
    0.2160   -2.1013    1.2412 N   0  0  0  0  0  0  0  0  0  0  0  0
   -0.2676   -3.2322    0.4411 C   0  0  2  0  0  0  0  0  0  0  0  0
   -1.2463   -2.7479   -0.6588 C   0  0  0  0  0  0  0  0  0  0  0  0
   -1.4364   -1.5448   -0.8471 O   0  0  0  0  0  0  0  0  0  0  0  0
   -0.9327   -4.2277    1.3962 C   0  0  0  0  0  0  0  0  0  0  0  0
   -0.5339   -1.5013    1.5958 H   0  0  0  0  0  0  0  0  0  0  0  0
    0.5678   -3.7399   -0.0529 H   0  0  0  0  0  0  0  0  0  0  0  0
   -1.8217   -3.7856    1.8563 H   0  0  0  0  0  0  0  0  0  0  0  0
   -1.2318   -5.1351    0.8638 H   0  0  0  0  0  0  0  0  0  0  0  0
   -0.2347   -4.5108    2.1907 H   0  0  0  0  0  0  0  0  0  0  0  0
   -1.8831   -3.6586   -1.4808 N   0  0  0  0  0  0  0  0  0  0  0  0
   -2.8270   -3.2791   -2.5261 C   0  0  0  0  0  0  0  0  0  0  0  0
   -1.7211   -4.6461   -1.3025 H   0  0  0  0  0  0  0  0  0  0  0  0
   -3.6790   -2.7411   -2.0970 H   0  0  0  0  0  0  0  0  0  0  0  0
   -2.3417   -2.6367   -3.2684 H   0  0  0  0  0  0  0  0  0  0  0  0
   -3.2045   -4.1703   -3.0371 H   0  0  0  0  0  0  0  0  0  0  0  0
  1  2  2  0  0  0  0
  1  3  1  0  0  0  0
  1  7  1  0  0  0  0
  3  4  1  0  0  0  0
  3  5  1  0  0  0  0
  3  6  1  0  0  0  0
  7  8  1  0  0  0  0
  7 12  1  0  0  0  0
  8  9  1  0  0  0  0
  8 11  1  0  0  0  0
  8 13  1  0  0  0  0
  9 10  2  0  0  0  0
  9 17  1  0  0  0  0
 11 14  1  0  0  0  0
 11 15  1  0  0  0  0
 11 16  1  0  0  0  0
 17 18  1  0  0  0  0
 17 27  1  0  0  0  0
 18 19  1  0  0  0  0
 18 21  1  0  0  0  0
 18 28  1  0  0  0  0
 19 20  2  0  0  0  0
 19 35  1  0  0  0  0
 21 22  1  0  0  0  0
 21 29  1  0  0  0  0
 21 30  1  0  0  0  0
 22 23  1  0  0  0  0
 22 24  2  0  0  0  0
 23 25  2  0  0  0  0
 23 31  1  0  0  0  0
 24 26  1  0  0  0  0
 24 32  1  0  0  0  0
 25 26  1  0  0  0  0
 25 33  1  0  0  0  0
 26 34  1  0  0  0  0
 35 36  1  0  0  0  0
 35 40  1  0  0  0  0
 36 37  1  0  0  0  0
 36 39  1  0  0  0  0
 36 41  1  0  0  0  0
 37 38  2  0  0  0  0
 37 45  1  0  0  0  0
 39 42  1  0  0  0  0
 39 43  1  0  0  0  0
 39 44  1  0  0  0  0
 45 46  1  0  0  0  0
 45 47  1  0  0  0  0
 46 48  1  0  0  0  0
 46 49  1  0  0  0  0
 46 50  1  0  0  0  0
M  CHG  1  23   1
M  END
$$$$

  -OEChem-05262216443D

 50 50  0     1  0  0  0  0  0999 V2000
   -3.1509   -0.0635    2.4387 C   0  0  0  0  0  0  0  0  0  0  0  0
   -2.8565   -0.1730    1.2566 O   0  0  0  0  0  0  0  0  0  0  0  0
   -4.0280   -1.0980    3.1168 C   0  0  0  0  0  0  0  0  0  0  0  0
   -4.4960   -1.7440    2.3687 H   0  0  0  0  0  0  0  0  0  0  0  0
   -3.4272   -1.7131    3.7910 H   0  0  0  0  0  0  0  0  0  0  0  0
   -4.8165   -0.6047    3.6911 H   0  0  0  0  0  0  0  0  0  0  0  0
   -2.6239    0.9874    3.1587 N   0  0  0  0  0  0  0  0  0  0  0  0
   -1.8457    2.0784    2.5563 C   0  0  2  0  0  0  0  0  0  0  0  0
   -0.4295    1.6316    2.1115 C   0  0  0  0  0  0  0  0  0  0  0  0
    0.5344    1.8236    2.8410 O   0  0  0  0  0  0  0  0  0  0  0  0
   -1.8097    3.2273    3.5725 C   0  0  0  0  0  0  0  0  0  0  0  0
   -2.8467    1.0341    4.1502 H   0  0  0  0  0  0  0  0  0  0  0  0
   -2.3694    2.4425    1.6653 H   0  0  0  0  0  0  0  0  0  0  0  0
   -1.3182    2.9112    4.4987 H   0  0  0  0  0  0  0  0  0  0  0  0
   -1.2594    4.0800    3.1628 H   0  0  0  0  0  0  0  0  0  0  0  0
   -2.8256    3.5570    3.8125 H   0  0  0  0  0  0  0  0  0  0  0  0
   -0.2736    1.0856    0.8432 N   0  0  0  0  0  0  0  0  0  0  0  0
    0.8892    0.3486    0.2824 C   0  0  2  0  0  0  0  0  0  0  0  0
    0.7918   -1.1770    0.5207 C   0  0  0  0  0  0  0  0  0  0  0  0
    1.7571   -1.8882    0.2685 O   0  0  0  0  0  0  0  0  0  0  0  0
    2.2921    0.8618    0.6966 C   0  0  0  0  0  0  0  0  0  0  0  0
    2.5425    2.2586    0.1944 C   0  0  0  0  0  0  0  0  0  0  0  0
    2.8347    2.6340   -1.1164 N   0  3  0  0  0  0  0  0  0  0  0  0
    2.5770    3.3871    0.9697 C   0  0  0  0  0  0  0  0  0  0  0  0
    3.0377    3.9280   -1.1800 C   0  0  0  0  0  0  0  0  0  0  0  0
    2.8794    4.4350    0.1093 N   0  0  0  0  0  0  0  0  0  0  0  0
   -1.1729    0.8846    0.3960 H   0  0  0  0  0  0  0  0  0  0  0  0
    0.8207    0.4613   -0.8039 H   0  0  0  0  0  0  0  0  0  0  0  0
    3.0646    0.2156    0.2662 H   0  0  0  0  0  0  0  0  0  0  0  0
    2.4248    0.7988    1.7799 H   0  0  0  0  0  0  0  0  0  0  0  0
    2.8882    1.9632   -1.8880 H   0  0  0  0  0  0  0  0  0  0  0  0
    2.3960    3.4247    2.0460 H   0  0  0  0  0  0  0  0  0  0  0  0
    3.2894    4.5001   -2.0749 H   0  0  0  0  0  0  0  0  0  0  0  0
    2.9835    5.4157    0.3849 H   0  0  0  0  0  0  0  0  0  0  0  0
   -0.3983   -1.7707    0.9026 N   0  0  0  0  0  0  0  0  0  0  0  0
   -0.6723   -3.1693    0.5416 C   0  0  2  0  0  0  0  0  0  0  0  0
   -0.9688   -3.3321   -0.9690 C   0  0  0  0  0  0  0  0  0  0  0  0
   -1.2308   -2.3545   -1.6633 O   0  0  0  0  0  0  0  0  0  0  0  0
   -1.8650   -3.6444    1.3732 C   0  0  0  0  0  0  0  0  0  0  0  0
   -1.2066   -1.1451    0.8948 H   0  0  0  0  0  0  0  0  0  0  0  0
    0.1937   -3.7928    0.7893 H   0  0  0  0  0  0  0  0  0  0  0  0
   -2.7632   -3.0773    1.1096 H   0  0  0  0  0  0  0  0  0  0  0  0
   -2.0603   -4.7056    1.1910 H   0  0  0  0  0  0  0  0  0  0  0  0
   -1.6624   -3.5090    2.4401 H   0  0  0  0  0  0  0  0  0  0  0  0
   -0.9448   -4.5843   -1.5549 N   0  0  0  0  0  0  0  0  0  0  0  0
   -1.1762   -4.8059   -2.9779 C   0  0  0  0  0  0  0  0  0  0  0  0
   -0.6635   -5.3703   -0.9764 H   0  0  0  0  0  0  0  0  0  0  0  0
   -2.1559   -4.4151   -3.2732 H   0  0  0  0  0  0  0  0  0  0  0  0
   -0.4038   -4.3077   -3.5734 H   0  0  0  0  0  0  0  0  0  0  0  0
   -1.1514   -5.8765   -3.2043 H   0  0  0  0  0  0  0  0  0  0  0  0
  1  2  2  0  0  0  0
  1  3  1  0  0  0  0
  1  7  1  0  0  0  0
  3  4  1  0  0  0  0
  3  5  1  0  0  0  0
  3  6  1  0  0  0  0
  7  8  1  0  0  0  0
  7 12  1  0  0  0  0
  8  9  1  0  0  0  0
  8 11  1  0  0  0  0
  8 13  1  0  0  0  0
  9 10  2  0  0  0  0
  9 17  1  0  0  0  0
 11 14  1  0  0  0  0
 11 15  1  0  0  0  0
 11 16  1  0  0  0  0
 17 18  1  0  0  0  0
 17 27  1  0  0  0  0
 18 19  1  0  0  0  0
 18 21  1  0  0  0  0
 18 28  1  0  0  0  0
 19 20  2  0  0  0  0
 19 35  1  0  0  0  0
 21 22  1  0  0  0  0
 21 29  1  0  0  0  0
 21 30  1  0  0  0  0
 22 23  1  0  0  0  0
 22 24  2  0  0  0  0
 23 25  2  0  0  0  0
 23 31  1  0  0  0  0
 24 26  1  0  0  0  0
 24 32  1  0  0  0  0
 25 26  1  0  0  0  0
 25 33  1  0  0  0  0
 26 34  1  0  0  0  0
 35 36  1  0  0  0  0
 35 40  1  0  0  0  0
 36 37  1  0  0  0  0
 36 39  1  0  0  0  0
 36 41  1  0  0  0  0
 37 38  2  0  0  0  0
 37 45  1  0  0  0  0
 39 42  1  0  0  0  0
 39 43  1  0  0  0  0
 39 44  1  0  0  0  0
 45 46  1  0  0  0  0
 45 47  1  0  0  0  0
 46 48  1  0  0  0  0
 46 49  1  0  0  0  0
 46 50  1  0  0  0  0
M  CHG  1  23   1
M  END
$$$$

  -OEChem-05262216443D

 50 50  0     1  0  0  0  0  0999 V2000
   -3.1545    0.0012    2.2589 C   0  0  0  0  0  0  0  0  0  0  0  0
   -2.8563   -0.0269    1.0723 O   0  0  0  0  0  0  0  0  0  0  0  0
   -4.0414   -1.0745    2.8540 C   0  0  0  0  0  0  0  0  0  0  0  0
   -4.4733   -1.6894    2.0597 H   0  0  0  0  0  0  0  0  0  0  0  0
   -3.4579   -1.7148    3.5202 H   0  0  0  0  0  0  0  0  0  0  0  0
   -4.8561   -0.6176    3.4213 H   0  0  0  0  0  0  0  0  0  0  0  0
   -2.6250    0.9904    3.0615 N   0  0  0  0  0  0  0  0  0  0  0  0
   -1.8301    2.1226    2.5623 C   0  0  2  0  0  0  0  0  0  0  0  0
   -0.3998    1.7094    2.1295 C   0  0  0  0  0  0  0  0  0  0  0  0
    0.5662    1.9619    2.8375 O   0  0  0  0  0  0  0  0  0  0  0  0
   -1.8336    3.1957    3.6587 C   0  0  0  0  0  0  0  0  0  0  0  0
   -2.8602    0.9613    4.0510 H   0  0  0  0  0  0  0  0  0  0  0  0
   -2.3251    2.5488    1.6828 H   0  0  0  0  0  0  0  0  0  0  0  0
   -1.3595    2.8193    4.5713 H   0  0  0  0  0  0  0  0  0  0  0  0
   -1.2854    4.0824    3.3249 H   0  0  0  0  0  0  0  0  0  0  0  0
   -2.8592    3.4955    3.8967 H   0  0  0  0  0  0  0  0  0  0  0  0
   -0.2472    1.0909    0.8966 N   0  0  0  0  0  0  0  0  0  0  0  0
    0.9046    0.3136    0.3746 C   0  0  2  0  0  0  0  0  0  0  0  0
    0.7724   -1.1912    0.7102 C   0  0  0  0  0  0  0  0  0  0  0  0
    1.7609   -1.9145    0.6932 O   0  0  0  0  0  0  0  0  0  0  0  0
    2.3130    0.8396    0.7483 C   0  0  0  0  0  0  0  0  0  0  0  0
    2.5650    2.2020    0.1592 C   0  0  0  0  0  0  0  0  0  0  0  0
    2.8479    2.4951   -1.1745 N   0  3  0  0  0  0  0  0  0  0  0  0
    2.6099    3.3762    0.8629 C   0  0  0  0  0  0  0  0  0  0  0  0
    3.0530    3.7823   -1.3197 C   0  0  0  0  0  0  0  0  0  0  0  0
    2.9085    4.3683   -0.0626 N   0  0  0  0  0  0  0  0  0  0  0  0
   -1.1500    0.8798    0.4600 H   0  0  0  0  0  0  0  0  0  0  0  0
    0.8323    0.3593   -0.7164 H   0  0  0  0  0  0  0  0  0  0  0  0
    3.0780    0.1624    0.3533 H   0  0  0  0  0  0  0  0  0  0  0  0
    2.4500    0.8428    1.8332 H   0  0  0  0  0  0  0  0  0  0  0  0
    2.8890    1.7785   -1.9047 H   0  0  0  0  0  0  0  0  0  0  0  0
    2.4373    3.4811    1.9361 H   0  0  0  0  0  0  0  0  0  0  0  0
    3.2960    4.2981   -2.2505 H   0  0  0  0  0  0  0  0  0  0  0  0
    3.0173    5.3638    0.1515 H   0  0  0  0  0  0  0  0  0  0  0  0
   -0.4787   -1.7712    0.8270 N   0  0  0  0  0  0  0  0  0  0  0  0
   -0.6951   -3.1542    0.3797 C   0  0  2  0  0  0  0  0  0  0  0  0
   -0.7179   -3.2596   -1.1647 C   0  0  0  0  0  0  0  0  0  0  0  0
   -0.8000   -2.2485   -1.8567 O   0  0  0  0  0  0  0  0  0  0  0  0
   -2.0218   -3.6336    0.9722 C   0  0  0  0  0  0  0  0  0  0  0  0
   -1.2589   -1.1308    0.6683 H   0  0  0  0  0  0  0  0  0  0  0  0
    0.1066   -3.7993    0.7552 H   0  0  0  0  0  0  0  0  0  0  0  0
   -2.8520   -3.0349    0.5839 H   0  0  0  0  0  0  0  0  0  0  0  0
   -2.2005   -4.6821    0.7147 H   0  0  0  0  0  0  0  0  0  0  0  0
   -2.0044   -3.5455    2.0628 H   0  0  0  0  0  0  0  0  0  0  0  0
   -0.6435   -4.4927   -1.7852 N   0  0  0  0  0  0  0  0  0  0  0  0
   -0.6352   -4.6599   -3.2343 C   0  0  0  0  0  0  0  0  0  0  0  0
   -0.5251   -5.3118   -1.1961 H   0  0  0  0  0  0  0  0  0  0  0  0
   -1.5426   -4.2340   -3.6756 H   0  0  0  0  0  0  0  0  0  0  0  0
    0.2361   -4.1620   -3.6726 H   0  0  0  0  0  0  0  0  0  0  0  0
   -0.5927   -5.7222   -3.4935 H   0  0  0  0  0  0  0  0  0  0  0  0
  1  2  2  0  0  0  0
  1  3  1  0  0  0  0
  1  7  1  0  0  0  0
  3  4  1  0  0  0  0
  3  5  1  0  0  0  0
  3  6  1  0  0  0  0
  7  8  1  0  0  0  0
  7 12  1  0  0  0  0
  8  9  1  0  0  0  0
  8 11  1  0  0  0  0
  8 13  1  0  0  0  0
  9 10  2  0  0  0  0
  9 17  1  0  0  0  0
 11 14  1  0  0  0  0
 11 15  1  0  0  0  0
 11 16  1  0  0  0  0
 17 18  1  0  0  0  0
 17 27  1  0  0  0  0
 18 19  1  0  0  0  0
 18 21  1  0  0  0  0
 18 28  1  0  0  0  0
 19 20  2  0  0  0  0
 19 35  1  0  0  0  0
 21 22  1  0  0  0  0
 21 29  1  0  0  0  0
 21 30  1  0  0  0  0
 22 23  1  0  0  0  0
 22 24  2  0  0  0  0
 23 25  2  0  0  0  0
 23 31  1  0  0  0  0
 24 26  1  0  0  0  0
 24 32  1  0  0  0  0
 25 26  1  0  0  0  0
 25 33  1  0  0  0  0
 26 34  1  0  0  0  0
 35 36  1  0  0  0  0
 35 40  1  0  0  0  0
 36 37  1  0  0  0  0
 36 39  1  0  0  0  0
 36 41  1  0  0  0  0
 37 38  2  0  0  0  0
 37 45  1  0  0  0  0
 39 42  1  0  0  0  0
 39 43  1  0  0  0  0
 39 44  1  0  0  0  0
 45 46  1  0  0  0  0
 45 47  1  0  0  0  0
 46 48  1  0  0  0  0
 46 49  1  0  0  0  0
 46 50  1  0  0  0  0
M  CHG  1  23   1
M  END
$$$$

  -OEChem-05262216443D

 50 50  0     1  0  0  0  0  0999 V2000
   -3.1584    0.0838    2.1381 C   0  0  0  0  0  0  0  0  0  0  0  0
   -2.8935    0.1482    0.9446 O   0  0  0  0  0  0  0  0  0  0  0  0
   -4.0114   -1.0513    2.6692 C   0  0  0  0  0  0  0  0  0  0  0  0
   -4.4277   -1.6307    1.8403 H   0  0  0  0  0  0  0  0  0  0  0  0
   -3.4062   -1.7126    3.2941 H   0  0  0  0  0  0  0  0  0  0  0  0
   -4.8366   -0.6535    3.2653 H   0  0  0  0  0  0  0  0  0  0  0  0
   -2.6173    1.0111    3.0063 N   0  0  0  0  0  0  0  0  0  0  0  0
   -1.8259    2.1823    2.5946 C   0  0  2  0  0  0  0  0  0  0  0  0
   -0.3935    1.8064    2.1345 C   0  0  0  0  0  0  0  0  0  0  0  0
    0.5856    2.0989    2.8081 O   0  0  0  0  0  0  0  0  0  0  0  0
   -1.8327    3.1683    3.7705 C   0  0  0  0  0  0  0  0  0  0  0  0
   -2.8249    0.8931    3.9954 H   0  0  0  0  0  0  0  0  0  0  0  0
   -2.3217    2.6717    1.7489 H   0  0  0  0  0  0  0  0  0  0  0  0
   -1.3542    2.7252    4.6502 H   0  0  0  0  0  0  0  0  0  0  0  0
   -1.2892    4.0805    3.5049 H   0  0  0  0  0  0  0  0  0  0  0  0
   -2.8589    3.4444    4.0327 H   0  0  0  0  0  0  0  0  0  0  0  0
   -0.2633    1.1405    0.9260 N   0  0  0  0  0  0  0  0  0  0  0  0
    0.8598    0.3116    0.4282 C   0  0  2  0  0  0  0  0  0  0  0  0
    0.6605   -1.1682    0.8302 C   0  0  0  0  0  0  0  0  0  0  0  0
    1.6218   -1.8897    1.0650 O   0  0  0  0  0  0  0  0  0  0  0  0
    2.2869    0.8021    0.7740 C   0  0  0  0  0  0  0  0  0  0  0  0
    2.5781    2.1336    0.1334 C   0  0  0  0  0  0  0  0  0  0  0  0
    2.8593    2.3664   -1.2125 N   0  3  0  0  0  0  0  0  0  0  0  0
    2.6649    3.3322    0.7906 C   0  0  0  0  0  0  0  0  0  0  0  0
    3.0996    3.6407   -1.4091 C   0  0  0  0  0  0  0  0  0  0  0  0
    2.9847    4.2783   -0.1745 N   0  0  0  0  0  0  0  0  0  0  0  0
   -1.1769    0.9288    0.5126 H   0  0  0  0  0  0  0  0  0  0  0  0
    0.7865    0.3161   -0.6641 H   0  0  0  0  0  0  0  0  0  0  0  0
    3.0239    0.0821    0.4019 H   0  0  0  0  0  0  0  0  0  0  0  0
    2.4279    0.8429    1.8580 H   0  0  0  0  0  0  0  0  0  0  0  0
    2.8661    1.6222   -1.9156 H   0  0  0  0  0  0  0  0  0  0  0  0
    2.5034    3.4844    1.8597 H   0  0  0  0  0  0  0  0  0  0  0  0
    3.3467    4.1132   -2.3614 H   0  0  0  0  0  0  0  0  0  0  0  0
    3.1207    5.2781   -0.0002 H   0  0  0  0  0  0  0  0  0  0  0  0
   -0.5857   -1.7467    0.6676 N   0  0  0  0  0  0  0  0  0  0  0  0
   -0.7021   -3.1269    0.1784 C   0  0  2  0  0  0  0  0  0  0  0  0
   -0.3873   -3.2267   -1.3343 C   0  0  0  0  0  0  0  0  0  0  0  0
   -0.2745   -2.2110   -2.0164 O   0  0  0  0  0  0  0  0  0  0  0  0
   -2.1280   -3.5995    0.4707 C   0  0  0  0  0  0  0  0  0  0  0  0
   -1.3156   -1.1040    0.3568 H   0  0  0  0  0  0  0  0  0  0  0  0
   -0.0022   -3.7766    0.7156 H   0  0  0  0  0  0  0  0  0  0  0  0
   -2.8552   -2.9755   -0.0593 H   0  0  0  0  0  0  0  0  0  0  0  0
   -2.2633   -4.6374    0.1513 H   0  0  0  0  0  0  0  0  0  0  0  0
   -2.3327   -3.5412    1.5441 H   0  0  0  0  0  0  0  0  0  0  0  0
   -0.2223   -4.4603   -1.9360 N   0  0  0  0  0  0  0  0  0  0  0  0
    0.0956   -4.6262   -3.3500 C   0  0  0  0  0  0  0  0  0  0  0  0
   -0.2723   -5.2852   -1.3448 H   0  0  0  0  0  0  0  0  0  0  0  0
   -0.6733   -4.1581   -3.9741 H   0  0  0  0  0  0  0  0  0  0  0  0
    1.0635   -4.1692   -3.5813 H   0  0  0  0  0  0  0  0  0  0  0  0
    0.1454   -5.6893   -3.6054 H   0  0  0  0  0  0  0  0  0  0  0  0
  1  2  2  0  0  0  0
  1  3  1  0  0  0  0
  1  7  1  0  0  0  0
  3  4  1  0  0  0  0
  3  5  1  0  0  0  0
  3  6  1  0  0  0  0
  7  8  1  0  0  0  0
  7 12  1  0  0  0  0
  8  9  1  0  0  0  0
  8 11  1  0  0  0  0
  8 13  1  0  0  0  0
  9 10  2  0  0  0  0
  9 17  1  0  0  0  0
 11 14  1  0  0  0  0
 11 15  1  0  0  0  0
 11 16  1  0  0  0  0
 17 18  1  0  0  0  0
 17 27  1  0  0  0  0
 18 19  1  0  0  0  0
 18 21  1  0  0  0  0
 18 28  1  0  0  0  0
 19 20  2  0  0  0  0
 19 35  1  0  0  0  0
 21 22  1  0  0  0  0
 21 29  1  0  0  0  0
 21 30  1  0  0  0  0
 22 23  1  0  0  0  0
 22 24  2  0  0  0  0
 23 25  2  0  0  0  0
 23 31  1  0  0  0  0
 24 26  1  0  0  0  0
 24 32  1  0  0  0  0
 25 26  1  0  0  0  0
 25 33  1  0  0  0  0
 26 34  1  0  0  0  0
 35 36  1  0  0  0  0
 35 40  1  0  0  0  0
 36 37  1  0  0  0  0
 36 39  1  0  0  0  0
 36 41  1  0  0  0  0
 37 38  2  0  0  0  0
 37 45  1  0  0  0  0
 39 42  1  0  0  0  0
 39 43  1  0  0  0  0
 39 44  1  0  0  0  0
 45 46  1  0  0  0  0
 45 47  1  0  0  0  0
 46 48  1  0  0  0  0
 46 49  1  0  0  0  0
 46 50  1  0  0  0  0
M  CHG  1  23   1
M  END
$$$$

  -OEChem-05262216443D

 50 50  0     1  0  0  0  0  0999 V2000
   -3.1711    0.1749    2.1023 C   0  0  0  0  0  0  0  0  0  0  0  0
   -2.9682    0.3221    0.9037 O   0  0  0  0  0  0  0  0  0  0  0  0
   -3.9690   -1.0158    2.5963 C   0  0  0  0  0  0  0  0  0  0  0  0
   -4.3859   -1.5684    1.7497 H   0  0  0  0  0  0  0  0  0  0  0  0
   -3.3238   -1.6853    3.1707 H   0  0  0  0  0  0  0  0  0  0  0  0
   -4.7913   -0.6787    3.2324 H   0  0  0  0  0  0  0  0  0  0  0  0
   -2.6031    1.0540    3.0044 N   0  0  0  0  0  0  0  0  0  0  0  0
   -1.8194    2.2465    2.6369 C   0  0  2  0  0  0  0  0  0  0  0  0
   -0.3963    1.8886    2.1374 C   0  0  0  0  0  0  0  0  0  0  0  0
    0.6013    2.1848    2.7819 O   0  0  0  0  0  0  0  0  0  0  0  0
   -1.8075    3.1795    3.8547 C   0  0  0  0  0  0  0  0  0  0  0  0
   -2.7522    0.8610    3.9925 H   0  0  0  0  0  0  0  0  0  0  0  0
   -2.3266    2.7734    1.8213 H   0  0  0  0  0  0  0  0  0  0  0  0
   -1.3098    2.7015    4.7050 H   0  0  0  0  0  0  0  0  0  0  0  0
   -1.2734    4.1054    3.6185 H   0  0  0  0  0  0  0  0  0  0  0  0
   -2.8298    3.4384    4.1480 H   0  0  0  0  0  0  0  0  0  0  0  0
   -0.3060    1.2025    0.9378 N   0  0  0  0  0  0  0  0  0  0  0  0
    0.7708    0.3150    0.4475 C   0  0  2  0  0  0  0  0  0  0  0  0
    0.4833   -1.1396    0.8804 C   0  0  0  0  0  0  0  0  0  0  0  0
    1.3643   -1.8456    1.3545 O   0  0  0  0  0  0  0  0  0  0  0  0
    2.2230    0.7287    0.7800 C   0  0  0  0  0  0  0  0  0  0  0  0
    2.5859    2.0346    0.1237 C   0  0  0  0  0  0  0  0  0  0  0  0
    2.8726    2.2340   -1.2267 N   0  3  0  0  0  0  0  0  0  0  0  0
    2.7428    3.2351    0.7644 C   0  0  0  0  0  0  0  0  0  0  0  0
    3.1833    3.4902   -1.4410 C   0  0  0  0  0  0  0  0  0  0  0  0
    3.1100    4.1493   -0.2143 N   0  0  0  0  0  0  0  0  0  0  0  0
   -1.2355    1.0050    0.5537 H   0  0  0  0  0  0  0  0  0  0  0  0
    0.6972    0.3081   -0.6449 H   0  0  0  0  0  0  0  0  0  0  0  0
    2.9137   -0.0404    0.4166 H   0  0  0  0  0  0  0  0  0  0  0  0
    2.3677    0.7779    1.8633 H   0  0  0  0  0  0  0  0  0  0  0  0
    2.8337    1.4813   -1.9200 H   0  0  0  0  0  0  0  0  0  0  0  0
    2.5933    3.4108    1.8316 H   0  0  0  0  0  0  0  0  0  0  0  0
    3.4514    3.9359   -2.4004 H   0  0  0  0  0  0  0  0  0  0  0  0
    3.3002    5.1425   -0.0537 H   0  0  0  0  0  0  0  0  0  0  0  0
   -0.6891   -1.7318    0.4478 N   0  0  0  0  0  0  0  0  0  0  0  0
   -0.6742   -3.1124   -0.0532 C   0  0  2  0  0  0  0  0  0  0  0  0
   -0.0277   -3.2015   -1.4578 C   0  0  0  0  0  0  0  0  0  0  0  0
    0.2315   -2.1803   -2.0915 O   0  0  0  0  0  0  0  0  0  0  0  0
   -2.1219   -3.6085   -0.0847 C   0  0  0  0  0  0  0  0  0  0  0  0
   -1.3357   -1.0974   -0.0199 H   0  0  0  0  0  0  0  0  0  0  0  0
   -0.1019   -3.7530    0.6270 H   0  0  0  0  0  0  0  0  0  0  0  0
   -2.7235   -2.9974   -0.7656 H   0  0  0  0  0  0  0  0  0  0  0  0
   -2.1647   -4.6486   -0.4223 H   0  0  0  0  0  0  0  0  0  0  0  0
   -2.5624   -3.5539    0.9156 H   0  0  0  0  0  0  0  0  0  0  0  0
    0.2734   -4.4307   -2.0134 N   0  0  0  0  0  0  0  0  0  0  0  0
    0.8955   -4.5904   -3.3230 C   0  0  0  0  0  0  0  0  0  0  0  0
    0.0911   -5.2592   -1.4540 H   0  0  0  0  0  0  0  0  0  0  0  0
    0.2773   -4.1297   -4.1008 H   0  0  0  0  0  0  0  0  0  0  0  0
    1.8860   -4.1236   -3.3371 H   0  0  0  0  0  0  0  0  0  0  0  0
    1.0109   -5.6526   -3.5603 H   0  0  0  0  0  0  0  0  0  0  0  0
  1  2  2  0  0  0  0
  1  3  1  0  0  0  0
  1  7  1  0  0  0  0
  3  4  1  0  0  0  0
  3  5  1  0  0  0  0
  3  6  1  0  0  0  0
  7  8  1  0  0  0  0
  7 12  1  0  0  0  0
  8  9  1  0  0  0  0
  8 11  1  0  0  0  0
  8 13  1  0  0  0  0
  9 10  2  0  0  0  0
  9 17  1  0  0  0  0
 11 14  1  0  0  0  0
 11 15  1  0  0  0  0
 11 16  1  0  0  0  0
 17 18  1  0  0  0  0
 17 27  1  0  0  0  0
 18 19  1  0  0  0  0
 18 21  1  0  0  0  0
 18 28  1  0  0  0  0
 19 20  2  0  0  0  0
 19 35  1  0  0  0  0
 21 22  1  0  0  0  0
 21 29  1  0  0  0  0
 21 30  1  0  0  0  0
 22 23  1  0  0  0  0
 22 24  2  0  0  0  0
 23 25  2  0  0  0  0
 23 31  1  0  0  0  0
 24 26  1  0  0  0  0
 24 32  1  0  0  0  0
 25 26  1  0  0  0  0
 25 33  1  0  0  0  0
 26 34  1  0  0  0  0
 35 36  1  0  0  0  0
 35 40  1  0  0  0  0
 36 37  1  0  0  0  0
 36 39  1  0  0  0  0
 36 41  1  0  0  0  0
 37 38  2  0  0  0  0
 37 45  1  0  0  0  0
 39 42  1  0  0  0  0
 39 43  1  0  0  0  0
 39 44  1  0  0  0  0
 45 46  1  0  0  0  0
 45 47  1  0  0  0  0
 46 48  1  0  0  0  0
 46 49  1  0  0  0  0
 46 50  1  0  0  0  0
M  CHG  1  23   1
M  END
$$$$

  -OEChem-05262216443D

 50 50  0     1  0  0  0  0  0999 V2000
   -3.2483    0.3469    2.1401 C   0  0  0  0  0  0  0  0  0  0  0  0
   -3.0860    0.5755    0.9488 O   0  0  0  0  0  0  0  0  0  0  0  0
   -4.1060   -0.8231    2.5805 C   0  0  0  0  0  0  0  0  0  0  0  0
   -4.5682   -1.2999    1.7116 H   0  0  0  0  0  0  0  0  0  0  0  0
   -3.4921   -1.5616    3.1024 H   0  0  0  0  0  0  0  0  0  0  0  0
   -4.8968   -0.4766    3.2508 H   0  0  0  0  0  0  0  0  0  0  0  0
   -2.5875    1.1165    3.0780 N   0  0  0  0  0  0  0  0  0  0  0  0
   -1.7541    2.2913    2.7674 C   0  0  2  0  0  0  0  0  0  0  0  0
   -0.3691    1.9027    2.1886 C   0  0  0  0  0  0  0  0  0  0  0  0
    0.6687    2.1678    2.7814 O   0  0  0  0  0  0  0  0  0  0  0  0
   -1.6512    3.1236    4.0519 C   0  0  0  0  0  0  0  0  0  0  0  0
   -2.7071    0.8556    4.0542 H   0  0  0  0  0  0  0  0  0  0  0  0
   -2.2607    2.9036    2.0135 H   0  0  0  0  0  0  0  0  0  0  0  0
   -1.1427    2.5580    4.8398 H   0  0  0  0  0  0  0  0  0  0  0  0
   -1.0849    4.0415    3.8657 H   0  0  0  0  0  0  0  0  0  0  0  0
   -2.6482    3.4012    4.4082 H   0  0  0  0  0  0  0  0  0  0  0  0
   -0.3565    1.2319    0.9769 N   0  0  0  0  0  0  0  0  0  0  0  0
    0.6568    0.2938    0.4512 C   0  0  2  0  0  0  0  0  0  0  0  0
    0.3067   -1.1481    0.8722 C   0  0  0  0  0  0  0  0  0  0  0  0
    1.0832   -1.8229    1.5359 O   0  0  0  0  0  0  0  0  0  0  0  0
    2.1407    0.6192    0.7339 C   0  0  0  0  0  0  0  0  0  0  0  0
    2.5518    1.9043    0.0673 C   0  0  0  0  0  0  0  0  0  0  0  0
    2.7970    2.0789   -1.2940 N   0  3  0  0  0  0  0  0  0  0  0  0
    2.7924    3.0985    0.6925 C   0  0  0  0  0  0  0  0  0  0  0  0
    3.1610    3.3163   -1.5305 C   0  0  0  0  0  0  0  0  0  0  0  0
    3.1687    3.9861   -0.3072 N   0  0  0  0  0  0  0  0  0  0  0  0
   -1.3092    1.0743    0.6318 H   0  0  0  0  0  0  0  0  0  0  0  0
    0.5542    0.3084   -0.6384 H   0  0  0  0  0  0  0  0  0  0  0  0
    2.7697   -0.1904    0.3478 H   0  0  0  0  0  0  0  0  0  0  0  0
    2.3254    0.6595    1.8118 H   0  0  0  0  0  0  0  0  0  0  0  0
    2.6920    1.3234   -1.9780 H   0  0  0  0  0  0  0  0  0  0  0  0
    2.6885    3.2886    1.7625 H   0  0  0  0  0  0  0  0  0  0  0  0
    3.4121    3.7413   -2.5038 H   0  0  0  0  0  0  0  0  0  0  0  0
    3.4131    4.9698   -0.1623 H   0  0  0  0  0  0  0  0  0  0  0  0
   -0.7340   -1.7735    0.2115 N   0  0  0  0  0  0  0  0  0  0  0  0
   -0.5536   -3.1433   -0.2874 C   0  0  2  0  0  0  0  0  0  0  0  0
    0.3852   -3.1786   -1.5199 C   0  0  0  0  0  0  0  0  0  0  0  0
    0.7350   -2.1343   -2.0692 O   0  0  0  0  0  0  0  0  0  0  0  0
   -1.9390   -3.6943   -0.6346 C   0  0  0  0  0  0  0  0  0  0  0  0
   -1.2708   -1.1560   -0.3934 H   0  0  0  0  0  0  0  0  0  0  0  0
   -0.1149   -3.7741    0.4939 H   0  0  0  0  0  0  0  0  0  0  0  0
   -2.4052   -3.0957   -1.4239 H   0  0  0  0  0  0  0  0  0  0  0  0
   -1.8660   -4.7298   -0.9812 H   0  0  0  0  0  0  0  0  0  0  0  0
   -2.5866   -3.6730    0.2477 H   0  0  0  0  0  0  0  0  0  0  0  0
    0.8542   -4.3833   -2.0086 N   0  0  0  0  0  0  0  0  0  0  0  0
    1.7618   -4.4913   -3.1452 C   0  0  0  0  0  0  0  0  0  0  0  0
    0.5892   -5.2298   -1.5122 H   0  0  0  0  0  0  0  0  0  0  0  0
    1.3147   -4.0405   -4.0377 H   0  0  0  0  0  0  0  0  0  0  0  0
    2.7083   -3.9842   -2.9301 H   0  0  0  0  0  0  0  0  0  0  0  0
    1.9752   -5.5429   -3.3615 H   0  0  0  0  0  0  0  0  0  0  0  0
  1  2  2  0  0  0  0
  1  3  1  0  0  0  0
  1  7  1  0  0  0  0
  3  4  1  0  0  0  0
  3  5  1  0  0  0  0
  3  6  1  0  0  0  0
  7  8  1  0  0  0  0
  7 12  1  0  0  0  0
  8  9  1  0  0  0  0
  8 11  1  0  0  0  0
  8 13  1  0  0  0  0
  9 10  2  0  0  0  0
  9 17  1  0  0  0  0
 11 14  1  0  0  0  0
 11 15  1  0  0  0  0
 11 16  1  0  0  0  0
 17 18  1  0  0  0  0
 17 27  1  0  0  0  0
 18 19  1  0  0  0  0
 18 21  1  0  0  0  0
 18 28  1  0  0  0  0
 19 20  2  0  0  0  0
 19 35  1  0  0  0  0
 21 22  1  0  0  0  0
 21 29  1  0  0  0  0
 21 30  1  0  0  0  0
 22 23  1  0  0  0  0
 22 24  2  0  0  0  0
 23 25  2  0  0  0  0
 23 31  1  0  0  0  0
 24 26  1  0  0  0  0
 24 32  1  0  0  0  0
 25 26  1  0  0  0  0
 25 33  1  0  0  0  0
 26 34  1  0  0  0  0
 35 36  1  0  0  0  0
 35 40  1  0  0  0  0
 36 37  1  0  0  0  0
 36 39  1  0  0  0  0
 36 41  1  0  0  0  0
 37 38  2  0  0  0  0
 37 45  1  0  0  0  0
 39 42  1  0  0  0  0
 39 43  1  0  0  0  0
 39 44  1  0  0  0  0
 45 46  1  0  0  0  0
 45 47  1  0  0  0  0
 46 48  1  0  0  0  0
 46 49  1  0  0  0  0
 46 50  1  0  0  0  0
M  CHG  1  23   1
M  END
$$$$

  -OEChem-05262216443D

 50 50  0     1  0  0  0  0  0999 V2000
   -3.3384    0.4931    2.3095 C   0  0  0  0  0  0  0  0  0  0  0  0
   -3.2119    0.7202    1.1136 O   0  0  0  0  0  0  0  0  0  0  0  0
   -4.2398   -0.6297    2.7842 C   0  0  0  0  0  0  0  0  0  0  0  0
   -4.7725   -1.0698    1.9365 H   0  0  0  0  0  0  0  0  0  0  0  0
   -3.6445   -1.4078    3.2688 H   0  0  0  0  0  0  0  0  0  0  0  0
   -4.9734   -0.2451    3.4970 H   0  0  0  0  0  0  0  0  0  0  0  0
   -2.6005    1.2242    3.2194 N   0  0  0  0  0  0  0  0  0  0  0  0
   -1.7083    2.3417    2.8672 C   0  0  2  0  0  0  0  0  0  0  0  0
   -0.3739    1.8574    2.2445 C   0  0  0  0  0  0  0  0  0  0  0  0
    0.6972    2.0498    2.8057 O   0  0  0  0  0  0  0  0  0  0  0  0
   -1.5081    3.1814    4.1356 C   0  0  0  0  0  0  0  0  0  0  0  0
   -2.6821    0.9602    4.1987 H   0  0  0  0  0  0  0  0  0  0  0  0
   -2.2015    2.9771    2.1234 H   0  0  0  0  0  0  0  0  0  0  0  0
   -1.0205    2.5905    4.9180 H   0  0  0  0  0  0  0  0  0  0  0  0
   -0.8816    4.0529    3.9202 H   0  0  0  0  0  0  0  0  0  0  0  0
   -2.4713    3.5367    4.5150 H   0  0  0  0  0  0  0  0  0  0  0  0
   -0.4382    1.2145    1.0183 N   0  0  0  0  0  0  0  0  0  0  0  0
    0.4949    0.2104    0.4665 C   0  0  2  0  0  0  0  0  0  0  0  0
    0.0737   -1.2230    0.8460 C   0  0  0  0  0  0  0  0  0  0  0  0
    0.7126   -1.8767    1.6599 O   0  0  0  0  0  0  0  0  0  0  0  0
    2.0051    0.4138    0.7183 C   0  0  0  0  0  0  0  0  0  0  0  0
    2.4997    1.6670    0.0520 C   0  0  0  0  0  0  0  0  0  0  0  0
    2.7221    1.8175   -1.3153 N   0  3  0  0  0  0  0  0  0  0  0  0
    2.8392    2.8417    0.6673 C   0  0  0  0  0  0  0  0  0  0  0  0
    3.1698    3.0242   -1.5661 C   0  0  0  0  0  0  0  0  0  0  0  0
    3.2534    3.6961   -0.3463 N   0  0  0  0  0  0  0  0  0  0  0  0
   -1.4103    1.1134    0.7068 H   0  0  0  0  0  0  0  0  0  0  0  0
    0.3772    0.2679   -0.6196 H   0  0  0  0  0  0  0  0  0  0  0  0
    2.5587   -0.4399    0.3113 H   0  0  0  0  0  0  0  0  0  0  0  0
    2.2162    0.4307    1.7921 H   0  0  0  0  0  0  0  0  0  0  0  0
    2.5531    1.0637   -1.9894 H   0  0  0  0  0  0  0  0  0  0  0  0
    2.7719    3.0418    1.7386 H   0  0  0  0  0  0  0  0  0  0  0  0
    3.4305    3.4262   -2.5465 H   0  0  0  0  0  0  0  0  0  0  0  0
    3.5699    4.6604   -0.2130 H   0  0  0  0  0  0  0  0  0  0  0  0
   -0.7792   -1.8799   -0.0205 N   0  0  0  0  0  0  0  0  0  0  0  0
   -0.3732   -3.1909   -0.5453 C   0  0  2  0  0  0  0  0  0  0  0  0
    0.8122   -3.0705   -1.5389 C   0  0  0  0  0  0  0  0  0  0  0  0
    1.1821   -1.9686   -1.9488 O   0  0  0  0  0  0  0  0  0  0  0  0
   -1.5942   -3.8134   -1.2275 C   0  0  0  0  0  0  0  0  0  0  0  0
   -1.2236   -1.2665   -0.6986 H   0  0  0  0  0  0  0  0  0  0  0  0
   -0.0645   -3.8443    0.2789 H   0  0  0  0  0  0  0  0  0  0  0  0
   -1.9193   -3.1985   -2.0731 H   0  0  0  0  0  0  0  0  0  0  0  0
   -1.3595   -4.8160   -1.5983 H   0  0  0  0  0  0  0  0  0  0  0  0
   -2.4232   -3.8956   -0.5172 H   0  0  0  0  0  0  0  0  0  0  0  0
    1.4793   -4.2018   -1.9684 N   0  0  0  0  0  0  0  0  0  0  0  0
    2.6094   -4.1715   -2.8903 C   0  0  0  0  0  0  0  0  0  0  0  0
    1.1858   -5.0967   -1.5848 H   0  0  0  0  0  0  0  0  0  0  0  0
    2.3162   -3.7158   -3.8421 H   0  0  0  0  0  0  0  0  0  0  0  0
    3.4380   -3.5965   -2.4639 H   0  0  0  0  0  0  0  0  0  0  0  0
    2.9628   -5.1882   -3.0903 H   0  0  0  0  0  0  0  0  0  0  0  0
  1  2  2  0  0  0  0
  1  3  1  0  0  0  0
  1  7  1  0  0  0  0
  3  4  1  0  0  0  0
  3  5  1  0  0  0  0
  3  6  1  0  0  0  0
  7  8  1  0  0  0  0
  7 12  1  0  0  0  0
  8  9  1  0  0  0  0
  8 11  1  0  0  0  0
  8 13  1  0  0  0  0
  9 10  2  0  0  0  0
  9 17  1  0  0  0  0
 11 14  1  0  0  0  0
 11 15  1  0  0  0  0
 11 16  1  0  0  0  0
 17 18  1  0  0  0  0
 17 27  1  0  0  0  0
 18 19  1  0  0  0  0
 18 21  1  0  0  0  0
 18 28  1  0  0  0  0
 19 20  2  0  0  0  0
 19 35  1  0  0  0  0
 21 22  1  0  0  0  0
 21 29  1  0  0  0  0
 21 30  1  0  0  0  0
 22 23  1  0  0  0  0
 22 24  2  0  0  0  0
 23 25  2  0  0  0  0
 23 31  1  0  0  0  0
 24 26  1  0  0  0  0
 24 32  1  0  0  0  0
 25 26  1  0  0  0  0
 25 33  1  0  0  0  0
 26 34  1  0  0  0  0
 35 36  1  0  0  0  0
 35 40  1  0  0  0  0
 36 37  1  0  0  0  0
 36 39  1  0  0  0  0
 36 41  1  0  0  0  0
 37 38  2  0  0  0  0
 37 45  1  0  0  0  0
 39 42  1  0  0  0  0
 39 43  1  0  0  0  0
 39 44  1  0  0  0  0
 45 46  1  0  0  0  0
 45 47  1  0  0  0  0
 46 48  1  0  0  0  0
 46 49  1  0  0  0  0
 46 50  1  0  0  0  0
M  CHG  1  23   1
M  END
$$$$

  -OEChem-05262216443D

 50 50  0     1  0  0  0  0  0999 V2000
   -3.3881    0.6632    2.4070 C   0  0  0  0  0  0  0  0  0  0  0  0
   -3.2654    0.9722    1.2297 O   0  0  0  0  0  0  0  0  0  0  0  0
   -4.3924   -0.3933    2.8224 C   0  0  0  0  0  0  0  0  0  0  0  0
   -4.9520   -0.7455    1.9513 H   0  0  0  0  0  0  0  0  0  0  0  0
   -3.8755   -1.2429    3.2759 H   0  0  0  0  0  0  0  0  0  0  0  0
   -5.0967    0.0243    3.5461 H   0  0  0  0  0  0  0  0  0  0  0  0
   -2.5588    1.2405    3.3476 N   0  0  0  0  0  0  0  0  0  0  0  0
   -1.5754    2.2976    3.0591 C   0  0  2  0  0  0  0  0  0  0  0  0
   -0.3011    1.7515    2.3648 C   0  0  0  0  0  0  0  0  0  0  0  0
    0.7997    1.8498    2.8924 O   0  0  0  0  0  0  0  0  0  0  0  0
   -1.2794    3.0068    4.3870 C   0  0  0  0  0  0  0  0  0  0  0  0
   -2.6448    0.9085    4.3054 H   0  0  0  0  0  0  0  0  0  0  0  0
   -2.0227    3.0330    2.3813 H   0  0  0  0  0  0  0  0  0  0  0  0
   -0.8324    2.3112    5.1050 H   0  0  0  0  0  0  0  0  0  0  0  0
   -0.5823    3.8358    4.2294 H   0  0  0  0  0  0  0  0  0  0  0  0
   -2.2008    3.4108    4.8180 H   0  0  0  0  0  0  0  0  0  0  0  0
   -0.4475    1.1810    1.1096 N   0  0  0  0  0  0  0  0  0  0  0  0
    0.3980    0.1475    0.4761 C   0  0  2  0  0  0  0  0  0  0  0  0
   -0.0859   -1.2828    0.7800 C   0  0  0  0  0  0  0  0  0  0  0  0
    0.4101   -1.9285    1.6930 O   0  0  0  0  0  0  0  0  0  0  0  0
    1.9258    0.2342    0.6906 C   0  0  0  0  0  0  0  0  0  0  0  0
    2.4885    1.4829    0.0757 C   0  0  0  0  0  0  0  0  0  0  0  0
    2.6789    1.6770   -1.2906 N   0  3  0  0  0  0  0  0  0  0  0  0
    2.9220    2.6043    0.7290 C   0  0  0  0  0  0  0  0  0  0  0  0
    3.1999    2.8611   -1.5053 C   0  0  0  0  0  0  0  0  0  0  0  0
    3.3623    3.4731   -0.2616 N   0  0  0  0  0  0  0  0  0  0  0  0
   -1.4323    1.1675    0.8224 H   0  0  0  0  0  0  0  0  0  0  0  0
    0.2539    0.2832   -0.5997 H   0  0  0  0  0  0  0  0  0  0  0  0
    2.4112   -0.6326    0.2302 H   0  0  0  0  0  0  0  0  0  0  0  0
    2.1651    0.1826    1.7572 H   0  0  0  0  0  0  0  0  0  0  0  0
    2.4502    0.9589   -1.9869 H   0  0  0  0  0  0  0  0  0  0  0  0
    2.8976    2.7608    1.8094 H   0  0  0  0  0  0  0  0  0  0  0  0
    3.4613    3.2856   -2.4757 H   0  0  0  0  0  0  0  0  0  0  0  0
    3.7435    4.4091   -0.0982 H   0  0  0  0  0  0  0  0  0  0  0  0
   -0.7346   -1.9519   -0.2409 N   0  0  0  0  0  0  0  0  0  0  0  0
   -0.1603   -3.2114   -0.7330 C   0  0  2  0  0  0  0  0  0  0  0  0
    1.0981   -2.9597   -1.6038 C   0  0  0  0  0  0  0  0  0  0  0  0
    1.3988   -1.8189   -1.9633 O   0  0  0  0  0  0  0  0  0  0  0  0
   -1.2459   -3.9343   -1.5347 C   0  0  0  0  0  0  0  0  0  0  0  0
   -1.0773   -1.3347   -0.9724 H   0  0  0  0  0  0  0  0  0  0  0  0
    0.1288   -3.8497    0.1098 H   0  0  0  0  0  0  0  0  0  0  0  0
   -1.5513   -3.3358   -2.3990 H   0  0  0  0  0  0  0  0  0  0  0  0
   -0.8803   -4.9012   -1.8942 H   0  0  0  0  0  0  0  0  0  0  0  0
   -2.1248   -4.1124   -0.9063 H   0  0  0  0  0  0  0  0  0  0  0  0
    1.9164   -4.0124   -1.9654 N   0  0  0  0  0  0  0  0  0  0  0  0
    3.1274   -3.8597   -2.7638 C   0  0  0  0  0  0  0  0  0  0  0  0
    1.6711   -4.9386   -1.6240 H   0  0  0  0  0  0  0  0  0  0  0  0
    2.8932   -3.4141   -3.7366 H   0  0  0  0  0  0  0  0  0  0  0  0
    3.8503   -3.2205   -2.2462 H   0  0  0  0  0  0  0  0  0  0  0  0
    3.5922   -4.8355   -2.9363 H   0  0  0  0  0  0  0  0  0  0  0  0
  1  2  2  0  0  0  0
  1  3  1  0  0  0  0
  1  7  1  0  0  0  0
  3  4  1  0  0  0  0
  3  5  1  0  0  0  0
  3  6  1  0  0  0  0
  7  8  1  0  0  0  0
  7 12  1  0  0  0  0
  8  9  1  0  0  0  0
  8 11  1  0  0  0  0
  8 13  1  0  0  0  0
  9 10  2  0  0  0  0
  9 17  1  0  0  0  0
 11 14  1  0  0  0  0
 11 15  1  0  0  0  0
 11 16  1  0  0  0  0
 17 18  1  0  0  0  0
 17 27  1  0  0  0  0
 18 19  1  0  0  0  0
 18 21  1  0  0  0  0
 18 28  1  0  0  0  0
 19 20  2  0  0  0  0
 19 35  1  0  0  0  0
 21 22  1  0  0  0  0
 21 29  1  0  0  0  0
 21 30  1  0  0  0  0
 22 23  1  0  0  0  0
 22 24  2  0  0  0  0
 23 25  2  0  0  0  0
 23 31  1  0  0  0  0
 24 26  1  0  0  0  0
 24 32  1  0  0  0  0
 25 26  1  0  0  0  0
 25 33  1  0  0  0  0
 26 34  1  0  0  0  0
 35 36  1  0  0  0  0
 35 40  1  0  0  0  0
 36 37  1  0  0  0  0
 36 39  1  0  0  0  0
 36 41  1  0  0  0  0
 37 38  2  0  0  0  0
 37 45  1  0  0  0  0
 39 42  1  0  0  0  0
 39 43  1  0  0  0  0
 39 44  1  0  0  0  0
 45 46  1  0  0  0  0
 45 47  1  0  0  0  0
 46 48  1  0  0  0  0
 46 49  1  0  0  0  0
 46 50  1  0  0  0  0
M  CHG  1  23   1
M  END
$$$$

  -OEChem-05262216443D

 50 50  0     1  0  0  0  0  0999 V2000
   -3.3933    0.6858    2.3922 C   0  0  0  0  0  0  0  0  0  0  0  0
   -3.2880    1.0410    1.2259 O   0  0  0  0  0  0  0  0  0  0  0  0
   -4.3481   -0.4291    2.7719 C   0  0  0  0  0  0  0  0  0  0  0  0
   -3.7866   -1.2963    3.1288 H   0  0  0  0  0  0  0  0  0  0  0  0
   -5.0239   -0.0910    3.5613 H   0  0  0  0  0  0  0  0  0  0  0  0
   -4.9434   -0.7279    1.9046 H   0  0  0  0  0  0  0  0  0  0  0  0
   -2.5834    1.2638    3.3493 N   0  0  0  0  0  0  0  0  0  0  0  0
   -1.6036    2.3279    3.0774 C   0  0  2  0  0  0  0  0  0  0  0  0
   -0.3298    1.7841    2.3818 C   0  0  0  0  0  0  0  0  0  0  0  0
    0.7596    1.8225    2.9407 O   0  0  0  0  0  0  0  0  0  0  0  0
   -1.3093    3.0261    4.4113 C   0  0  0  0  0  0  0  0  0  0  0  0
   -2.6304    0.8770    4.2891 H   0  0  0  0  0  0  0  0  0  0  0  0
   -2.0502    3.0700    2.4065 H   0  0  0  0  0  0  0  0  0  0  0  0
   -0.8632    2.3252    5.1244 H   0  0  0  0  0  0  0  0  0  0  0  0
   -0.6121    3.8564    4.2606 H   0  0  0  0  0  0  0  0  0  0  0  0
   -2.2312    3.4265    4.8445 H   0  0  0  0  0  0  0  0  0  0  0  0
   -0.4667    1.2701    1.1006 N   0  0  0  0  0  0  0  0  0  0  0  0
    0.3125    0.1762    0.4815 C   0  0  2  0  0  0  0  0  0  0  0  0
   -0.3006   -1.2186    0.7004 C   0  0  0  0  0  0  0  0  0  0  0  0
   -0.0847   -1.8309    1.7363 O   0  0  0  0  0  0  0  0  0  0  0  0
    1.8269    0.1158    0.7905 C   0  0  0  0  0  0  0  0  0  0  0  0
    2.5427    1.3188    0.2499 C   0  0  0  0  0  0  0  0  0  0  0  0
    2.8274    1.5037   -1.1011 N   0  3  0  0  0  0  0  0  0  0  0  0
    3.0437    2.3879    0.9416 C   0  0  0  0  0  0  0  0  0  0  0  0
    3.4760    2.6305   -1.2707 C   0  0  0  0  0  0  0  0  0  0  0  0
    3.6219    3.2165   -0.0124 N   0  0  0  0  0  0  0  0  0  0  0  0
   -1.4474    1.3075    0.8011 H   0  0  0  0  0  0  0  0  0  0  0  0
    0.2443    0.3616   -0.5944 H   0  0  0  0  0  0  0  0  0  0  0  0
    2.2666   -0.7821    0.3482 H   0  0  0  0  0  0  0  0  0  0  0  0
    1.9876    0.0210    1.8688 H   0  0  0  0  0  0  0  0  0  0  0  0
    2.5849    0.8065   -1.8152 H   0  0  0  0  0  0  0  0  0  0  0  0
    2.9742    2.5393    2.0206 H   0  0  0  0  0  0  0  0  0  0  0  0
    3.8396    3.0301   -2.2185 H   0  0  0  0  0  0  0  0  0  0  0  0
    4.0849    4.1082    0.1841 H   0  0  0  0  0  0  0  0  0  0  0  0
   -0.6491   -1.9188   -0.4395 N   0  0  0  0  0  0  0  0  0  0  0  0
    0.0515   -3.1656   -0.7726 C   0  0  2  0  0  0  0  0  0  0  0  0
    1.3551   -2.8787   -1.5615 C   0  0  0  0  0  0  0  0  0  0  0  0
    1.6287   -1.7332   -1.9295 O   0  0  0  0  0  0  0  0  0  0  0  0
   -0.9105   -4.0287   -1.5930 C   0  0  0  0  0  0  0  0  0  0  0  0
   -0.8057   -1.3155   -1.2431 H   0  0  0  0  0  0  0  0  0  0  0  0
    0.3173   -3.7137    0.1386 H   0  0  0  0  0  0  0  0  0  0  0  0
   -1.1848   -3.5224   -2.5241 H   0  0  0  0  0  0  0  0  0  0  0  0
   -0.4509   -4.9898   -1.8424 H   0  0  0  0  0  0  0  0  0  0  0  0
   -1.8236   -4.2233   -1.0210 H   0  0  0  0  0  0  0  0  0  0  0  0
    2.2497   -3.8973   -1.8266 N   0  0  0  0  0  0  0  0  0  0  0  0
    3.4915   -3.7129   -2.5695 C   0  0  0  0  0  0  0  0  0  0  0  0
    2.0077   -4.8324   -1.5070 H   0  0  0  0  0  0  0  0  0  0  0  0
    3.2836   -3.3425   -3.5790 H   0  0  0  0  0  0  0  0  0  0  0  0
    4.1446   -2.9981   -2.0578 H   0  0  0  0  0  0  0  0  0  0  0  0
    4.0255   -4.6647   -2.6556 H   0  0  0  0  0  0  0  0  0  0  0  0
  1  2  2  0  0  0  0
  1  3  1  0  0  0  0
  1  7  1  0  0  0  0
  3  4  1  0  0  0  0
  3  5  1  0  0  0  0
  3  6  1  0  0  0  0
  7  8  1  0  0  0  0
  7 12  1  0  0  0  0
  8  9  1  0  0  0  0
  8 11  1  0  0  0  0
  8 13  1  0  0  0  0
  9 10  2  0  0  0  0
  9 17  1  0  0  0  0
 11 14  1  0  0  0  0
 11 15  1  0  0  0  0
 11 16  1  0  0  0  0
 17 18  1  0  0  0  0
 17 27  1  0  0  0  0
 18 19  1  0  0  0  0
 18 21  1  0  0  0  0
 18 28  1  0  0  0  0
 19 20  2  0  0  0  0
 19 35  1  0  0  0  0
 21 22  1  0  0  0  0
 21 29  1  0  0  0  0
 21 30  1  0  0  0  0
 22 23  1  0  0  0  0
 22 24  2  0  0  0  0
 23 25  2  0  0  0  0
 23 31  1  0  0  0  0
 24 26  1  0  0  0  0
 24 32  1  0  0  0  0
 25 26  1  0  0  0  0
 25 33  1  0  0  0  0
 26 34  1  0  0  0  0
 35 36  1  0  0  0  0
 35 40  1  0  0  0  0
 36 37  1  0  0  0  0
 36 39  1  0  0  0  0
 36 41  1  0  0  0  0
 37 38  2  0  0  0  0
 37 45  1  0  0  0  0
 39 42  1  0  0  0  0
 39 43  1  0  0  0  0
 39 44  1  0  0  0  0
 45 46  1  0  0  0  0
 45 47  1  0  0  0  0
 46 48  1  0  0  0  0
 46 49  1  0  0  0  0
 46 50  1  0  0  0  0
M  CHG  1  23   1
M  END
$$$$

  -OEChem-05262216443D

 50 50  0     1  0  0  0  0  0999 V2000
   -3.7406    0.9303    4.2664 C   0  0  0  0  0  0  0  0  0  0  0  0
   -4.6973    1.2482    3.5789 O   0  0  0  0  0  0  0  0  0  0  0  0
   -3.9536    0.2530    5.6065 C   0  0  0  0  0  0  0  0  0  0  0  0
   -5.0232    0.1663    5.8178 H   0  0  0  0  0  0  0  0  0  0  0  0
   -3.5161   -0.7480    5.5927 H   0  0  0  0  0  0  0  0  0  0  0  0
   -3.4850    0.8382    6.4012 H   0  0  0  0  0  0  0  0  0  0  0  0
   -2.4624    1.1835    3.8121 N   0  0  0  0  0  0  0  0  0  0  0  0
   -2.1587    1.7011    2.4716 C   0  0  2  0  0  0  0  0  0  0  0  0
   -0.7935    1.2035    1.9527 C   0  0  0  0  0  0  0  0  0  0  0  0
    0.1021    0.9752    2.7579 O   0  0  0  0  0  0  0  0  0  0  0  0
   -2.1891    3.2313    2.5223 C   0  0  0  0  0  0  0  0  0  0  0  0
   -1.6877    0.8177    4.3632 H   0  0  0  0  0  0  0  0  0  0  0  0
   -2.9220    1.3509    1.7680 H   0  0  0  0  0  0  0  0  0  0  0  0
   -1.4452    3.6059    3.2324 H   0  0  0  0  0  0  0  0  0  0  0  0
   -1.9764    3.6530    1.5355 H   0  0  0  0  0  0  0  0  0  0  0  0
   -3.1779    3.5798    2.8389 H   0  0  0  0  0  0  0  0  0  0  0  0
   -0.6052    1.0695    0.5820 N   0  0  0  0  0  0  0  0  0  0  0  0
    0.4314    0.2788   -0.1279 C   0  0  2  0  0  0  0  0  0  0  0  0
   -0.0586   -1.1575   -0.3995 C   0  0  0  0  0  0  0  0  0  0  0  0
   -0.4627   -1.8506    0.5219 O   0  0  0  0  0  0  0  0  0  0  0  0
    1.8309    0.1775    0.5262 C   0  0  0  0  0  0  0  0  0  0  0  0
    2.5295    1.5111    0.6229 C   0  0  0  0  0  0  0  0  0  0  0  0
    3.1326    2.2170   -0.4191 N   0  3  0  0  0  0  0  0  0  0  0  0
    2.7296    2.2261    1.7749 C   0  0  0  0  0  0  0  0  0  0  0  0
    3.6829    3.3167    0.0377 C   0  0  0  0  0  0  0  0  0  0  0  0
    3.4387    3.3621    1.4091 N   0  0  0  0  0  0  0  0  0  0  0  0
   -1.4576    1.2408    0.0515 H   0  0  0  0  0  0  0  0  0  0  0  0
    0.5696    0.7579   -1.1010 H   0  0  0  0  0  0  0  0  0  0  0  0
    2.4606   -0.4938   -0.0678 H   0  0  0  0  0  0  0  0  0  0  0  0
    1.7520   -0.2894    1.5133 H   0  0  0  0  0  0  0  0  0  0  0  0
    3.1770    1.8635   -1.3783 H   0  0  0  0  0  0  0  0  0  0  0  0
    2.3849    1.9407    2.7709 H   0  0  0  0  0  0  0  0  0  0  0  0
    4.2404    4.0529   -0.5443 H   0  0  0  0  0  0  0  0  0  0  0  0
    3.7484    4.0978    2.0507 H   0  0  0  0  0  0  0  0  0  0  0  0
    0.1473   -1.7170   -1.6464 N   0  0  0  0  0  0  0  0  0  0  0  0
    0.4383   -3.1495   -1.7996 C   0  0  2  0  0  0  0  0  0  0  0  0
    1.9641   -3.3930   -1.7624 C   0  0  0  0  0  0  0  0  0  0  0  0
    2.7336   -2.4381   -1.8601 O   0  0  0  0  0  0  0  0  0  0  0  0
   -0.1606   -3.6101   -3.1302 C   0  0  0  0  0  0  0  0  0  0  0  0
    0.6366   -1.1175   -2.3051 H   0  0  0  0  0  0  0  0  0  0  0  0
   -0.0223   -3.7325   -0.9940 H   0  0  0  0  0  0  0  0  0  0  0  0
    0.2950   -3.0699   -3.9664 H   0  0  0  0  0  0  0  0  0  0  0  0
    0.0075   -4.6817   -3.2761 H   0  0  0  0  0  0  0  0  0  0  0  0
   -1.2399   -3.4270   -3.1425 H   0  0  0  0  0  0  0  0  0  0  0  0
    2.4762   -4.6671   -1.6108 N   0  0  0  0  0  0  0  0  0  0  0  0
    3.9045   -4.9568   -1.5452 C   0  0  0  0  0  0  0  0  0  0  0  0
    1.8163   -5.4325   -1.4987 H   0  0  0  0  0  0  0  0  0  0  0  0
    4.4075   -4.6236   -2.4594 H   0  0  0  0  0  0  0  0  0  0  0  0
    4.3600   -4.4504   -0.6876 H   0  0  0  0  0  0  0  0  0  0  0  0
    4.0680   -6.0337   -1.4363 H   0  0  0  0  0  0  0  0  0  0  0  0
  1  2  2  0  0  0  0
  1  3  1  0  0  0  0
  1  7  1  0  0  0  0
  3  4  1  0  0  0  0
  3  5  1  0  0  0  0
  3  6  1  0  0  0  0
  7  8  1  0  0  0  0
  7 12  1  0  0  0  0
  8  9  1  0  0  0  0
  8 11  1  0  0  0  0
  8 13  1  0  0  0  0
  9 10  2  0  0  0  0
  9 17  1  0  0  0  0
 11 14  1  0  0  0  0
 11 15  1  0  0  0  0
 11 16  1  0  0  0  0
 17 18  1  0  0  0  0
 17 27  1  0  0  0  0
 18 19  1  0  0  0  0
 18 21  1  0  0  0  0
 18 28  1  0  0  0  0
 19 20  2  0  0  0  0
 19 35  1  0  0  0  0
 21 22  1  0  0  0  0
 21 29  1  0  0  0  0
 21 30  1  0  0  0  0
 22 23  1  0  0  0  0
 22 24  2  0  0  0  0
 23 25  2  0  0  0  0
 23 31  1  0  0  0  0
 24 26  1  0  0  0  0
 24 32  1  0  0  0  0
 25 26  1  0  0  0  0
 25 33  1  0  0  0  0
 26 34  1  0  0  0  0
 35 36  1  0  0  0  0
 35 40  1  0  0  0  0
 36 37  1  0  0  0  0
 36 39  1  0  0  0  0
 36 41  1  0  0  0  0
 37 38  2  0  0  0  0
 37 45  1  0  0  0  0
 39 42  1  0  0  0  0
 39 43  1  0  0  0  0
 39 44  1  0  0  0  0
 45 46  1  0  0  0  0
 45 47  1  0  0  0  0
 46 48  1  0  0  0  0
 46 49  1  0  0  0  0
 46 50  1  0  0  0  0
M  CHG  1  23   1
M  END
$$$$

  -OEChem-05262216443D

 50 50  0     1  0  0  0  0  0999 V2000
   -3.6816    0.7515    4.2223 C   0  0  0  0  0  0  0  0  0  0  0  0
   -4.6617    1.0287    3.5506 O   0  0  0  0  0  0  0  0  0  0  0  0
   -3.8436    0.0512    5.5576 C   0  0  0  0  0  0  0  0  0  0  0  0
   -4.9038   -0.1166    5.7677 H   0  0  0  0  0  0  0  0  0  0  0  0
   -3.3326   -0.9142    5.5377 H   0  0  0  0  0  0  0  0  0  0  0  0
   -3.4201    0.6652    6.3560 H   0  0  0  0  0  0  0  0  0  0  0  0
   -2.4228    1.0731    3.7571 N   0  0  0  0  0  0  0  0  0  0  0  0
   -2.1597    1.6077    2.4141 C   0  0  2  0  0  0  0  0  0  0  0  0
   -0.7688    1.1956    1.8863 C   0  0  0  0  0  0  0  0  0  0  0  0
    0.1237    0.9499    2.6905 O   0  0  0  0  0  0  0  0  0  0  0  0
   -2.2867    3.1337    2.4638 C   0  0  0  0  0  0  0  0  0  0  0  0
   -1.6257    0.7298    4.2902 H   0  0  0  0  0  0  0  0  0  0  0  0
   -2.9031    1.2083    1.7149 H   0  0  0  0  0  0  0  0  0  0  0  0
   -1.5572    3.5567    3.1614 H   0  0  0  0  0  0  0  0  0  0  0  0
   -2.1179    3.5665    1.4732 H   0  0  0  0  0  0  0  0  0  0  0  0
   -3.2903    3.4189    2.7962 H   0  0  0  0  0  0  0  0  0  0  0  0
   -0.5596    1.1389    0.5131 N   0  0  0  0  0  0  0  0  0  0  0  0
    0.5033    0.4069   -0.2229 C   0  0  2  0  0  0  0  0  0  0  0  0
    0.0357   -1.0234   -0.5729 C   0  0  0  0  0  0  0  0  0  0  0  0
   -0.6796   -1.6441    0.1998 O   0  0  0  0  0  0  0  0  0  0  0  0
    1.8941    0.2996    0.4507 C   0  0  0  0  0  0  0  0  0  0  0  0
    2.5602    1.6431    0.6308 C   0  0  0  0  0  0  0  0  0  0  0  0
    3.1667    2.4269   -0.3531 N   0  3  0  0  0  0  0  0  0  0  0  0
    2.7309    2.2877    1.8289 C   0  0  0  0  0  0  0  0  0  0  0  0
    3.6850    3.5070    0.1819 C   0  0  0  0  0  0  0  0  0  0  0  0
    3.4217    3.4585    1.5490 N   0  0  0  0  0  0  0  0  0  0  0  0
   -1.4179    1.2884   -0.0143 H   0  0  0  0  0  0  0  0  0  0  0  0
    0.6435    0.9350   -1.1700 H   0  0  0  0  0  0  0  0  0  0  0  0
    2.5515   -0.3227   -0.1658 H   0  0  0  0  0  0  0  0  0  0  0  0
    1.8096   -0.2222    1.4093 H   0  0  0  0  0  0  0  0  0  0  0  0
    3.2226    2.1461   -1.3350 H   0  0  0  0  0  0  0  0  0  0  0  0
    2.3791    1.9327    2.7998 H   0  0  0  0  0  0  0  0  0  0  0  0
    4.2310    4.2932   -0.3425 H   0  0  0  0  0  0  0  0  0  0  0  0
    3.7042    4.1583    2.2415 H   0  0  0  0  0  0  0  0  0  0  0  0
    0.5173   -1.6456   -1.7101 N   0  0  0  0  0  0  0  0  0  0  0  0
    0.6635   -3.1075   -1.7806 C   0  0  2  0  0  0  0  0  0  0  0  0
    2.0843   -3.5252   -1.3427 C   0  0  0  0  0  0  0  0  0  0  0  0
    2.9769   -2.6807   -1.3030 O   0  0  0  0  0  0  0  0  0  0  0  0
    0.3851   -3.5454   -3.2205 C   0  0  0  0  0  0  0  0  0  0  0  0
    1.2310   -1.1266   -2.2138 H   0  0  0  0  0  0  0  0  0  0  0  0
   -0.0573   -3.6070   -1.1240 H   0  0  0  0  0  0  0  0  0  0  0  0
    1.1040   -3.0900   -3.9092 H   0  0  0  0  0  0  0  0  0  0  0  0
    0.4607   -4.6336   -3.3110 H   0  0  0  0  0  0  0  0  0  0  0  0
   -0.6243   -3.2450   -3.5193 H   0  0  0  0  0  0  0  0  0  0  0  0
    2.3625   -4.8300   -0.9845 N   0  0  0  0  0  0  0  0  0  0  0  0
    3.6724   -5.2700   -0.5174 C   0  0  0  0  0  0  0  0  0  0  0  0
    1.5928   -5.4945   -0.9794 H   0  0  0  0  0  0  0  0  0  0  0  0
    4.4426   -5.0446   -1.2628 H   0  0  0  0  0  0  0  0  0  0  0  0
    3.9327   -4.7693    0.4211 H   0  0  0  0  0  0  0  0  0  0  0  0
    3.6694   -6.3505   -0.3434 H   0  0  0  0  0  0  0  0  0  0  0  0
  1  2  2  0  0  0  0
  1  3  1  0  0  0  0
  1  7  1  0  0  0  0
  3  4  1  0  0  0  0
  3  5  1  0  0  0  0
  3  6  1  0  0  0  0
  7  8  1  0  0  0  0
  7 12  1  0  0  0  0
  8  9  1  0  0  0  0
  8 11  1  0  0  0  0
  8 13  1  0  0  0  0
  9 10  2  0  0  0  0
  9 17  1  0  0  0  0
 11 14  1  0  0  0  0
 11 15  1  0  0  0  0
 11 16  1  0  0  0  0
 17 18  1  0  0  0  0
 17 27  1  0  0  0  0
 18 19  1  0  0  0  0
 18 21  1  0  0  0  0
 18 28  1  0  0  0  0
 19 20  2  0  0  0  0
 19 35  1  0  0  0  0
 21 22  1  0  0  0  0
 21 29  1  0  0  0  0
 21 30  1  0  0  0  0
 22 23  1  0  0  0  0
 22 24  2  0  0  0  0
 23 25  2  0  0  0  0
 23 31  1  0  0  0  0
 24 26  1  0  0  0  0
 24 32  1  0  0  0  0
 25 26  1  0  0  0  0
 25 33  1  0  0  0  0
 26 34  1  0  0  0  0
 35 36  1  0  0  0  0
 35 40  1  0  0  0  0
 36 37  1  0  0  0  0
 36 39  1  0  0  0  0
 36 41  1  0  0  0  0
 37 38  2  0  0  0  0
 37 45  1  0  0  0  0
 39 42  1  0  0  0  0
 39 43  1  0  0  0  0
 39 44  1  0  0  0  0
 45 46  1  0  0  0  0
 45 47  1  0  0  0  0
 46 48  1  0  0  0  0
 46 49  1  0  0  0  0
 46 50  1  0  0  0  0
M  CHG  1  23   1
M  END
$$$$

  -OEChem-05262216443D

 50 50  0     1  0  0  0  0  0999 V2000
   -3.7414    0.7432    4.1473 C   0  0  0  0  0  0  0  0  0  0  0  0
   -4.7121    1.0154    3.4603 O   0  0  0  0  0  0  0  0  0  0  0  0
   -3.9210    0.0538    5.4860 C   0  0  0  0  0  0  0  0  0  0  0  0
   -4.9829   -0.1251    5.6772 H   0  0  0  0  0  0  0  0  0  0  0  0
   -3.3982   -0.9055    5.4850 H   0  0  0  0  0  0  0  0  0  0  0  0
   -3.5201    0.6800    6.2866 H   0  0  0  0  0  0  0  0  0  0  0  0
   -2.4759    1.0584    3.6967 N   0  0  0  0  0  0  0  0  0  0  0  0
   -2.1913    1.5727    2.3503 C   0  0  2  0  0  0  0  0  0  0  0  0
   -0.7889    1.1595    1.8547 C   0  0  0  0  0  0  0  0  0  0  0  0
    0.0767    0.8862    2.6794 O   0  0  0  0  0  0  0  0  0  0  0  0
   -2.3238    3.0987    2.3775 C   0  0  0  0  0  0  0  0  0  0  0  0
   -1.6870    0.7229    4.2465 H   0  0  0  0  0  0  0  0  0  0  0  0
   -2.9203    1.1601    1.6433 H   0  0  0  0  0  0  0  0  0  0  0  0
   -1.6107    3.5327    3.0852 H   0  0  0  0  0  0  0  0  0  0  0  0
   -2.1350    3.5196    1.3856 H   0  0  0  0  0  0  0  0  0  0  0  0
   -3.3353    3.3854    2.6842 H   0  0  0  0  0  0  0  0  0  0  0  0
   -0.5351    1.1438    0.4884 N   0  0  0  0  0  0  0  0  0  0  0  0
    0.5572    0.4454   -0.2386 C   0  0  2  0  0  0  0  0  0  0  0  0
    0.1144   -0.9809   -0.6464 C   0  0  0  0  0  0  0  0  0  0  0  0
   -0.8464   -1.5113   -0.1074 O   0  0  0  0  0  0  0  0  0  0  0  0
    1.9282    0.3505    0.4807 C   0  0  0  0  0  0  0  0  0  0  0  0
    2.5557    1.7054    0.7098 C   0  0  0  0  0  0  0  0  0  0  0  0
    3.1762    2.5264   -0.2343 N   0  3  0  0  0  0  0  0  0  0  0  0
    2.6752    2.3233    1.9283 C   0  0  0  0  0  0  0  0  0  0  0  0
    3.6504    3.6051    0.3426 C   0  0  0  0  0  0  0  0  0  0  0  0
    3.3473    3.5158    1.6993 N   0  0  0  0  0  0  0  0  0  0  0  0
   -1.3835    1.2812   -0.0587 H   0  0  0  0  0  0  0  0  0  0  0  0
    0.7164    0.9976   -1.1689 H   0  0  0  0  0  0  0  0  0  0  0  0
    2.6238   -0.2415   -0.1227 H   0  0  0  0  0  0  0  0  0  0  0  0
    1.8252   -0.1946    1.4242 H   0  0  0  0  0  0  0  0  0  0  0  0
    3.2593    2.2779   -1.2228 H   0  0  0  0  0  0  0  0  0  0  0  0
    2.3034    1.9361    2.8792 H   0  0  0  0  0  0  0  0  0  0  0  0
    4.1898    4.4187   -0.1462 H   0  0  0  0  0  0  0  0  0  0  0  0
    3.5899    4.2056    2.4167 H   0  0  0  0  0  0  0  0  0  0  0  0
    0.8415   -1.6863   -1.5878 N   0  0  0  0  0  0  0  0  0  0  0  0
    0.8970   -3.1559   -1.5886 C   0  0  2  0  0  0  0  0  0  0  0  0
    2.2036   -3.6349   -0.9194 C   0  0  0  0  0  0  0  0  0  0  0  0
    3.1137   -2.8300   -0.7314 O   0  0  0  0  0  0  0  0  0  0  0  0
    0.8191   -3.6344   -3.0405 C   0  0  0  0  0  0  0  0  0  0  0  0
    1.7053   -1.2403   -1.8841 H   0  0  0  0  0  0  0  0  0  0  0  0
    0.0549   -3.5859   -1.0357 H   0  0  0  0  0  0  0  0  0  0  0  0
    1.6665   -3.2523   -3.6189 H   0  0  0  0  0  0  0  0  0  0  0  0
    0.8345   -4.7279   -3.0856 H   0  0  0  0  0  0  0  0  0  0  0  0
   -0.1084   -3.2844   -3.5053 H   0  0  0  0  0  0  0  0  0  0  0  0
    2.3612   -4.9499   -0.5264 N   0  0  0  0  0  0  0  0  0  0  0  0
    3.5647   -5.4524    0.1271 C   0  0  0  0  0  0  0  0  0  0  0  0
    1.5785   -5.5840   -0.6652 H   0  0  0  0  0  0  0  0  0  0  0  0
    4.4394   -5.3091   -0.5162 H   0  0  0  0  0  0  0  0  0  0  0  0
    3.7342   -4.9295    1.0743 H   0  0  0  0  0  0  0  0  0  0  0  0
    3.4634   -6.5218    0.3367 H   0  0  0  0  0  0  0  0  0  0  0  0
  1  2  2  0  0  0  0
  1  3  1  0  0  0  0
  1  7  1  0  0  0  0
  3  4  1  0  0  0  0
  3  5  1  0  0  0  0
  3  6  1  0  0  0  0
  7  8  1  0  0  0  0
  7 12  1  0  0  0  0
  8  9  1  0  0  0  0
  8 11  1  0  0  0  0
  8 13  1  0  0  0  0
  9 10  2  0  0  0  0
  9 17  1  0  0  0  0
 11 14  1  0  0  0  0
 11 15  1  0  0  0  0
 11 16  1  0  0  0  0
 17 18  1  0  0  0  0
 17 27  1  0  0  0  0
 18 19  1  0  0  0  0
 18 21  1  0  0  0  0
 18 28  1  0  0  0  0
 19 20  2  0  0  0  0
 19 35  1  0  0  0  0
 21 22  1  0  0  0  0
 21 29  1  0  0  0  0
 21 30  1  0  0  0  0
 22 23  1  0  0  0  0
 22 24  2  0  0  0  0
 23 25  2  0  0  0  0
 23 31  1  0  0  0  0
 24 26  1  0  0  0  0
 24 32  1  0  0  0  0
 25 26  1  0  0  0  0
 25 33  1  0  0  0  0
 26 34  1  0  0  0  0
 35 36  1  0  0  0  0
 35 40  1  0  0  0  0
 36 37  1  0  0  0  0
 36 39  1  0  0  0  0
 36 41  1  0  0  0  0
 37 38  2  0  0  0  0
 37 45  1  0  0  0  0
 39 42  1  0  0  0  0
 39 43  1  0  0  0  0
 39 44  1  0  0  0  0
 45 46  1  0  0  0  0
 45 47  1  0  0  0  0
 46 48  1  0  0  0  0
 46 49  1  0  0  0  0
 46 50  1  0  0  0  0
M  CHG  1  23   1
M  END
$$$$

  -OEChem-05262216443D

 50 50  0     1  0  0  0  0  0999 V2000
   -3.5466    0.2856    3.5330 C   0  0  0  0  0  0  0  0  0  0  0  0
   -4.0285   -0.1371    2.4958 O   0  0  0  0  0  0  0  0  0  0  0  0
   -3.8731   -0.3869    4.8526 C   0  0  0  0  0  0  0  0  0  0  0  0
   -4.5808   -1.2053    4.6923 H   0  0  0  0  0  0  0  0  0  0  0  0
   -2.9633   -0.7914    5.3024 H   0  0  0  0  0  0  0  0  0  0  0  0
   -4.3220    0.3356    5.5383 H   0  0  0  0  0  0  0  0  0  0  0  0
   -2.6871    1.3658    3.5046 N   0  0  0  0  0  0  0  0  0  0  0  0
   -2.1663    1.9440    2.2559 C   0  0  2  0  0  0  0  0  0  0  0  0
   -0.7882    1.3678    1.8590 C   0  0  0  0  0  0  0  0  0  0  0  0
   -0.0108    1.0247    2.7418 O   0  0  0  0  0  0  0  0  0  0  0  0
   -2.0820    3.4599    2.4486 C   0  0  0  0  0  0  0  0  0  0  0  0
   -2.1732    1.5482    4.3618 H   0  0  0  0  0  0  0  0  0  0  0  0
   -2.8625    1.7457    1.4333 H   0  0  0  0  0  0  0  0  0  0  0  0
   -1.3891    3.7084    3.2586 H   0  0  0  0  0  0  0  0  0  0  0  0
   -1.7341    3.9433    1.5305 H   0  0  0  0  0  0  0  0  0  0  0  0
   -3.0688    3.8641    2.6972 H   0  0  0  0  0  0  0  0  0  0  0  0
   -0.4513    1.2952    0.5134 N   0  0  0  0  0  0  0  0  0  0  0  0
    0.6537    0.5515   -0.1459 C   0  0  2  0  0  0  0  0  0  0  0  0
    0.0917   -0.7021   -0.8624 C   0  0  0  0  0  0  0  0  0  0  0  0
   -1.1118   -0.9152   -0.8754 O   0  0  0  0  0  0  0  0  0  0  0  0
    1.9124    0.1954    0.6937 C   0  0  0  0  0  0  0  0  0  0  0  0
    2.6798    1.4112    1.1680 C   0  0  0  0  0  0  0  0  0  0  0  0
    3.5034    2.2269    0.3878 N   0  3  0  0  0  0  0  0  0  0  0  0
    2.8045    1.8395    2.4657 C   0  0  0  0  0  0  0  0  0  0  0  0
    4.0891    3.1341    1.1324 C   0  0  0  0  0  0  0  0  0  0  0  0
    3.6646    2.9283    2.4421 N   0  0  0  0  0  0  0  0  0  0  0  0
   -1.2684    1.4189   -0.0864 H   0  0  0  0  0  0  0  0  0  0  0  0
    1.0065    1.2025   -0.9507 H   0  0  0  0  0  0  0  0  0  0  0  0
    2.6006   -0.4190    0.1057 H   0  0  0  0  0  0  0  0  0  0  0  0
    1.6133   -0.4217    1.5480 H   0  0  0  0  0  0  0  0  0  0  0  0
    3.6228    2.0983   -0.6197 H   0  0  0  0  0  0  0  0  0  0  0  0
    2.3149    1.3954    3.3344 H   0  0  0  0  0  0  0  0  0  0  0  0
    4.7863    3.9024    0.7928 H   0  0  0  0  0  0  0  0  0  0  0  0
    3.9509    3.4739    3.2601 H   0  0  0  0  0  0  0  0  0  0  0  0
    0.9285   -1.5596   -1.5514 N   0  0  0  0  0  0  0  0  0  0  0  0
    0.5888   -2.9669   -1.8038 C   0  0  2  0  0  0  0  0  0  0  0  0
    1.6047   -3.8764   -1.0796 C   0  0  0  0  0  0  0  0  0  0  0  0
    2.6193   -3.3756   -0.5980 O   0  0  0  0  0  0  0  0  0  0  0  0
    0.6099   -3.2011   -3.3159 C   0  0  0  0  0  0  0  0  0  0  0  0
    1.9242   -1.4039   -1.4114 H   0  0  0  0  0  0  0  0  0  0  0  0
   -0.4087   -3.2100   -1.4206 H   0  0  0  0  0  0  0  0  0  0  0  0
    1.6030   -2.9904   -3.7254 H   0  0  0  0  0  0  0  0  0  0  0  0
    0.3507   -4.2386   -3.5481 H   0  0  0  0  0  0  0  0  0  0  0  0
   -0.1170   -2.5470   -3.8082 H   0  0  0  0  0  0  0  0  0  0  0  0
    1.3798   -5.2327   -0.9453 N   0  0  0  0  0  0  0  0  0  0  0  0
    2.2865   -6.1290   -0.2365 C   0  0  0  0  0  0  0  0  0  0  0  0
    0.5131   -5.6094   -1.3202 H   0  0  0  0  0  0  0  0  0  0  0  0
    3.2905   -6.0849   -0.6723 H   0  0  0  0  0  0  0  0  0  0  0  0
    2.3495   -5.8533    0.8216 H   0  0  0  0  0  0  0  0  0  0  0  0
    1.9283   -7.1611   -0.3037 H   0  0  0  0  0  0  0  0  0  0  0  0
  1  2  2  0  0  0  0
  1  3  1  0  0  0  0
  1  7  1  0  0  0  0
  3  4  1  0  0  0  0
  3  5  1  0  0  0  0
  3  6  1  0  0  0  0
  7  8  1  0  0  0  0
  7 12  1  0  0  0  0
  8  9  1  0  0  0  0
  8 11  1  0  0  0  0
  8 13  1  0  0  0  0
  9 10  2  0  0  0  0
  9 17  1  0  0  0  0
 11 14  1  0  0  0  0
 11 15  1  0  0  0  0
 11 16  1  0  0  0  0
 17 18  1  0  0  0  0
 17 27  1  0  0  0  0
 18 19  1  0  0  0  0
 18 21  1  0  0  0  0
 18 28  1  0  0  0  0
 19 20  2  0  0  0  0
 19 35  1  0  0  0  0
 21 22  1  0  0  0  0
 21 29  1  0  0  0  0
 21 30  1  0  0  0  0
 22 23  1  0  0  0  0
 22 24  2  0  0  0  0
 23 25  2  0  0  0  0
 23 31  1  0  0  0  0
 24 26  1  0  0  0  0
 24 32  1  0  0  0  0
 25 26  1  0  0  0  0
 25 33  1  0  0  0  0
 26 34  1  0  0  0  0
 35 36  1  0  0  0  0
 35 40  1  0  0  0  0
 36 37  1  0  0  0  0
 36 39  1  0  0  0  0
 36 41  1  0  0  0  0
 37 38  2  0  0  0  0
 37 45  1  0  0  0  0
 39 42  1  0  0  0  0
 39 43  1  0  0  0  0
 39 44  1  0  0  0  0
 45 46  1  0  0  0  0
 45 47  1  0  0  0  0
 46 48  1  0  0  0  0
 46 49  1  0  0  0  0
 46 50  1  0  0  0  0
M  CHG  1  23   1
M  END
$$$$

  -OEChem-05262216443D

 50 50  0     1  0  0  0  0  0999 V2000
   -2.8731   -0.4076    3.2078 C   0  0  0  0  0  0  0  0  0  0  0  0
   -2.7738   -1.0259    2.1602 O   0  0  0  0  0  0  0  0  0  0  0  0
   -3.1776   -1.1428    4.4990 C   0  0  0  0  0  0  0  0  0  0  0  0
   -3.2946   -2.2124    4.3034 H   0  0  0  0  0  0  0  0  0  0  0  0
   -2.3608   -1.0034    5.2110 H   0  0  0  0  0  0  0  0  0  0  0  0
   -4.1040   -0.7628    4.9365 H   0  0  0  0  0  0  0  0  0  0  0  0
   -2.6697    0.9582    3.2197 N   0  0  0  0  0  0  0  0  0  0  0  0
   -2.1967    1.6909    2.0360 C   0  0  2  0  0  0  0  0  0  0  0  0
   -0.7091    1.4210    1.7082 C   0  0  0  0  0  0  0  0  0  0  0  0
    0.0745    1.1872    2.6200 O   0  0  0  0  0  0  0  0  0  0  0  0
   -2.4298    3.1835    2.2801 C   0  0  0  0  0  0  0  0  0  0  0  0
   -2.5860    1.3984    4.1308 H   0  0  0  0  0  0  0  0  0  0  0  0
   -2.7940    1.3844    1.1693 H   0  0  0  0  0  0  0  0  0  0  0  0
   -1.8430    3.5306    3.1366 H   0  0  0  0  0  0  0  0  0  0  0  0
   -2.1375    3.7644    1.3998 H   0  0  0  0  0  0  0  0  0  0  0  0
   -3.4888    3.3742    2.4814 H   0  0  0  0  0  0  0  0  0  0  0  0
   -0.3076    1.4355    0.3792 N   0  0  0  0  0  0  0  0  0  0  0  0
    0.8370    0.7291   -0.2480 C   0  0  2  0  0  0  0  0  0  0  0  0
    0.2800   -0.4741   -1.0514 C   0  0  0  0  0  0  0  0  0  0  0  0
   -0.9024   -0.4833   -1.3688 O   0  0  0  0  0  0  0  0  0  0  0  0
    2.0646    0.3489    0.6260 C   0  0  0  0  0  0  0  0  0  0  0  0
    2.7995    1.5527    1.1782 C   0  0  0  0  0  0  0  0  0  0  0  0
    3.6430    2.4044    0.4605 N   0  3  0  0  0  0  0  0  0  0  0  0
    2.8838    1.9253    2.4961 C   0  0  0  0  0  0  0  0  0  0  0  0
    4.1879    3.2916    1.2586 C   0  0  0  0  0  0  0  0  0  0  0  0
    3.7289    3.0242    2.5452 N   0  0  0  0  0  0  0  0  0  0  0  0
   -1.1105    1.5006   -0.2496 H   0  0  0  0  0  0  0  0  0  0  0  0
    1.2243    1.4136   -1.0079 H   0  0  0  0  0  0  0  0  0  0  0  0
    2.7827   -0.2324    0.0414 H   0  0  0  0  0  0  0  0  0  0  0  0
    1.7347   -0.3025    1.4437 H   0  0  0  0  0  0  0  0  0  0  0  0
    3.7834    2.3278   -0.5496 H   0  0  0  0  0  0  0  0  0  0  0  0
    2.3725    1.4404    3.3298 H   0  0  0  0  0  0  0  0  0  0  0  0
    4.8763    4.0881    0.9708 H   0  0  0  0  0  0  0  0  0  0  0  0
    3.9758    3.5426    3.3931 H   0  0  0  0  0  0  0  0  0  0  0  0
    1.0965   -1.4979   -1.4947 N   0  0  0  0  0  0  0  0  0  0  0  0
    0.5764   -2.8629   -1.6570 C   0  0  2  0  0  0  0  0  0  0  0  0
    1.0492   -3.7261   -0.4681 C   0  0  0  0  0  0  0  0  0  0  0  0
    2.0132   -3.3487    0.1956 O   0  0  0  0  0  0  0  0  0  0  0  0
    1.0933   -3.4215   -2.9840 C   0  0  0  0  0  0  0  0  0  0  0  0
    2.0389   -1.4811   -1.1130 H   0  0  0  0  0  0  0  0  0  0  0  0
   -0.5190   -2.8771   -1.6732 H   0  0  0  0  0  0  0  0  0  0  0  0
    2.1877   -3.4427   -2.9937 H   0  0  0  0  0  0  0  0  0  0  0  0
    0.7250   -4.4403   -3.1393 H   0  0  0  0  0  0  0  0  0  0  0  0
    0.7484   -2.7990   -3.8159 H   0  0  0  0  0  0  0  0  0  0  0  0
    0.3942   -4.8928   -0.1260 N   0  0  0  0  0  0  0  0  0  0  0  0
    0.7469   -5.6900    1.0434 C   0  0  0  0  0  0  0  0  0  0  0  0
   -0.4492   -5.1292   -0.6425 H   0  0  0  0  0  0  0  0  0  0  0  0
    1.7839   -6.0353    0.9744 H   0  0  0  0  0  0  0  0  0  0  0  0
    0.6326   -5.0995    1.9589 H   0  0  0  0  0  0  0  0  0  0  0  0
    0.0964   -6.5673    1.1151 H   0  0  0  0  0  0  0  0  0  0  0  0
  1  2  2  0  0  0  0
  1  3  1  0  0  0  0
  1  7  1  0  0  0  0
  3  4  1  0  0  0  0
  3  5  1  0  0  0  0
  3  6  1  0  0  0  0
  7  8  1  0  0  0  0
  7 12  1  0  0  0  0
  8  9  1  0  0  0  0
  8 11  1  0  0  0  0
  8 13  1  0  0  0  0
  9 10  2  0  0  0  0
  9 17  1  0  0  0  0
 11 14  1  0  0  0  0
 11 15  1  0  0  0  0
 11 16  1  0  0  0  0
 17 18  1  0  0  0  0
 17 27  1  0  0  0  0
 18 19  1  0  0  0  0
 18 21  1  0  0  0  0
 18 28  1  0  0  0  0
 19 20  2  0  0  0  0
 19 35  1  0  0  0  0
 21 22  1  0  0  0  0
 21 29  1  0  0  0  0
 21 30  1  0  0  0  0
 22 23  1  0  0  0  0
 22 24  2  0  0  0  0
 23 25  2  0  0  0  0
 23 31  1  0  0  0  0
 24 26  1  0  0  0  0
 24 32  1  0  0  0  0
 25 26  1  0  0  0  0
 25 33  1  0  0  0  0
 26 34  1  0  0  0  0
 35 36  1  0  0  0  0
 35 40  1  0  0  0  0
 36 37  1  0  0  0  0
 36 39  1  0  0  0  0
 36 41  1  0  0  0  0
 37 38  2  0  0  0  0
 37 45  1  0  0  0  0
 39 42  1  0  0  0  0
 39 43  1  0  0  0  0
 39 44  1  0  0  0  0
 45 46  1  0  0  0  0
 45 47  1  0  0  0  0
 46 48  1  0  0  0  0
 46 49  1  0  0  0  0
 46 50  1  0  0  0  0
M  CHG  1  23   1
M  END
$$$$

  -OEChem-05262216443D

 50 50  0     1  0  0  0  0  0999 V2000
   -2.1843   -0.8442    2.4890 C   0  0  0  0  0  0  0  0  0  0  0  0
   -1.7346   -1.2031    1.4108 O   0  0  0  0  0  0  0  0  0  0  0  0
   -2.3635   -1.8535    3.6062 C   0  0  0  0  0  0  0  0  0  0  0  0
   -2.1082   -2.8558    3.2519 H   0  0  0  0  0  0  0  0  0  0  0  0
   -1.7120   -1.6005    4.4462 H   0  0  0  0  0  0  0  0  0  0  0  0
   -3.4020   -1.8549    3.9458 H   0  0  0  0  0  0  0  0  0  0  0  0
   -2.4890    0.4859    2.7065 N   0  0  0  0  0  0  0  0  0  0  0  0
   -2.1759    1.5416    1.7324 C   0  0  2  0  0  0  0  0  0  0  0  0
   -0.6532    1.7189    1.5315 C   0  0  0  0  0  0  0  0  0  0  0  0
    0.0817    1.7262    2.5105 O   0  0  0  0  0  0  0  0  0  0  0  0
   -2.8158    2.8453    2.2132 C   0  0  0  0  0  0  0  0  0  0  0  0
   -2.7103    0.7561    3.6604 H   0  0  0  0  0  0  0  0  0  0  0  0
   -2.6214    1.2712    0.7680 H   0  0  0  0  0  0  0  0  0  0  0  0
   -2.3963    3.1475    3.1783 H   0  0  0  0  0  0  0  0  0  0  0  0
   -2.6362    3.6468    1.4899 H   0  0  0  0  0  0  0  0  0  0  0  0
   -3.8973    2.7188    2.3255 H   0  0  0  0  0  0  0  0  0  0  0  0
   -0.1588    1.6791    0.2376 N   0  0  0  0  0  0  0  0  0  0  0  0
    0.9975    0.8796   -0.2249 C   0  0  2  0  0  0  0  0  0  0  0  0
    0.4118   -0.3179   -1.0120 C   0  0  0  0  0  0  0  0  0  0  0  0
   -0.6315   -0.1542   -1.6348 O   0  0  0  0  0  0  0  0  0  0  0  0
    2.1370    0.4945    0.7577 C   0  0  0  0  0  0  0  0  0  0  0  0
    2.9019    1.6889    1.2904 C   0  0  0  0  0  0  0  0  0  0  0  0
    3.8409    2.4410    0.5799 N   0  3  0  0  0  0  0  0  0  0  0  0
    2.9313    2.1381    2.5867 C   0  0  0  0  0  0  0  0  0  0  0  0
    4.3878    3.3464    1.3553 C   0  0  0  0  0  0  0  0  0  0  0  0
    3.8387    3.1868    2.6242 N   0  0  0  0  0  0  0  0  0  0  0  0
   -0.9184    1.6476   -0.4469 H   0  0  0  0  0  0  0  0  0  0  0  0
    1.4847    1.4925   -0.9885 H   0  0  0  0  0  0  0  0  0  0  0  0
    2.8554   -0.1621    0.2583 H   0  0  0  0  0  0  0  0  0  0  0  0
    1.7090   -0.0782    1.5894 H   0  0  0  0  0  0  0  0  0  0  0  0
    4.0289    2.2995   -0.4154 H   0  0  0  0  0  0  0  0  0  0  0  0
    2.3378    1.7417    3.4121 H   0  0  0  0  0  0  0  0  0  0  0  0
    5.1348    4.0866    1.0632 H   0  0  0  0  0  0  0  0  0  0  0  0
    4.0612    3.7471    3.4520 H   0  0  0  0  0  0  0  0  0  0  0  0
    1.0483   -1.5420   -1.0696 N   0  0  0  0  0  0  0  0  0  0  0  0
    0.2578   -2.7794   -1.0952 C   0  0  2  0  0  0  0  0  0  0  0  0
    0.4554   -3.5304    0.2393 C   0  0  0  0  0  0  0  0  0  0  0  0
    1.4087   -3.2359    0.9594 O   0  0  0  0  0  0  0  0  0  0  0  0
    0.7226   -3.6249   -2.2821 C   0  0  0  0  0  0  0  0  0  0  0  0
    1.8558   -1.6214   -0.4550 H   0  0  0  0  0  0  0  0  0  0  0  0
   -0.8127   -2.5692   -1.2020 H   0  0  0  0  0  0  0  0  0  0  0  0
    1.7839   -3.8743   -2.1843 H   0  0  0  0  0  0  0  0  0  0  0  0
    0.1499   -4.5557   -2.3377 H   0  0  0  0  0  0  0  0  0  0  0  0
    0.5774   -3.0741   -3.2167 H   0  0  0  0  0  0  0  0  0  0  0  0
   -0.4063   -4.5397    0.6233 N   0  0  0  0  0  0  0  0  0  0  0  0
   -0.2633   -5.2828    1.8695 C   0  0  0  0  0  0  0  0  0  0  0  0
   -1.2211   -4.7086    0.0395 H   0  0  0  0  0  0  0  0  0  0  0  0
    0.6973   -5.8086    1.8946 H   0  0  0  0  0  0  0  0  0  0  0  0
   -0.3156   -4.6054    2.7281 H   0  0  0  0  0  0  0  0  0  0  0  0
   -1.0634   -6.0238    1.9632 H   0  0  0  0  0  0  0  0  0  0  0  0
  1  2  2  0  0  0  0
  1  3  1  0  0  0  0
  1  7  1  0  0  0  0
  3  4  1  0  0  0  0
  3  5  1  0  0  0  0
  3  6  1  0  0  0  0
  7  8  1  0  0  0  0
  7 12  1  0  0  0  0
  8  9  1  0  0  0  0
  8 11  1  0  0  0  0
  8 13  1  0  0  0  0
  9 10  2  0  0  0  0
  9 17  1  0  0  0  0
 11 14  1  0  0  0  0
 11 15  1  0  0  0  0
 11 16  1  0  0  0  0
 17 18  1  0  0  0  0
 17 27  1  0  0  0  0
 18 19  1  0  0  0  0
 18 21  1  0  0  0  0
 18 28  1  0  0  0  0
 19 20  2  0  0  0  0
 19 35  1  0  0  0  0
 21 22  1  0  0  0  0
 21 29  1  0  0  0  0
 21 30  1  0  0  0  0
 22 23  1  0  0  0  0
 22 24  2  0  0  0  0
 23 25  2  0  0  0  0
 23 31  1  0  0  0  0
 24 26  1  0  0  0  0
 24 32  1  0  0  0  0
 25 26  1  0  0  0  0
 25 33  1  0  0  0  0
 26 34  1  0  0  0  0
 35 36  1  0  0  0  0
 35 40  1  0  0  0  0
 36 37  1  0  0  0  0
 36 39  1  0  0  0  0
 36 41  1  0  0  0  0
 37 38  2  0  0  0  0
 37 45  1  0  0  0  0
 39 42  1  0  0  0  0
 39 43  1  0  0  0  0
 39 44  1  0  0  0  0
 45 46  1  0  0  0  0
 45 47  1  0  0  0  0
 46 48  1  0  0  0  0
 46 49  1  0  0  0  0
 46 50  1  0  0  0  0
M  CHG  1  23   1
M  END
$$$$

  -OEChem-05262216443D

 50 50  0     1  0  0  0  0  0999 V2000
   -2.4112   -0.8153    2.3673 C   0  0  0  0  0  0  0  0  0  0  0  0
   -2.0560   -1.1562    1.2489 O   0  0  0  0  0  0  0  0  0  0  0  0
   -2.6420   -1.8626    3.4385 C   0  0  0  0  0  0  0  0  0  0  0  0
   -2.7430   -2.8501    2.9808 H   0  0  0  0  0  0  0  0  0  0  0  0
   -1.7978   -1.8776    4.1323 H   0  0  0  0  0  0  0  0  0  0  0  0
   -3.5568   -1.6392    3.9924 H   0  0  0  0  0  0  0  0  0  0  0  0
   -2.5588    0.5254    2.6669 N   0  0  0  0  0  0  0  0  0  0  0  0
   -2.1656    1.5904    1.7332 C   0  0  2  0  0  0  0  0  0  0  0  0
   -0.6349    1.6334    1.5226 C   0  0  0  0  0  0  0  0  0  0  0  0
    0.1005    1.5979    2.5011 O   0  0  0  0  0  0  0  0  0  0  0  0
   -2.6798    2.9248    2.2777 C   0  0  0  0  0  0  0  0  0  0  0  0
   -2.6869    0.7629    3.6464 H   0  0  0  0  0  0  0  0  0  0  0  0
   -2.6439    1.4063    0.7644 H   0  0  0  0  0  0  0  0  0  0  0  0
   -2.2289    3.1436    3.2510 H   0  0  0  0  0  0  0  0  0  0  0  0
   -2.4309    3.7380    1.5887 H   0  0  0  0  0  0  0  0  0  0  0  0
   -3.7678    2.8938    2.3953 H   0  0  0  0  0  0  0  0  0  0  0  0
   -0.1446    1.5442    0.2287 N   0  0  0  0  0  0  0  0  0  0  0  0
    1.0478    0.7907   -0.2177 C   0  0  2  0  0  0  0  0  0  0  0  0
    0.5144   -0.4707   -0.9313 C   0  0  0  0  0  0  0  0  0  0  0  0
   -0.4116   -0.3367   -1.7214 O   0  0  0  0  0  0  0  0  0  0  0  0
    2.2209    0.5175    0.7598 C   0  0  0  0  0  0  0  0  0  0  0  0
    2.9170    1.7820    1.2179 C   0  0  0  0  0  0  0  0  0  0  0  0
    3.7964    2.5546    0.4553 N   0  3  0  0  0  0  0  0  0  0  0  0
    2.9171    2.3092    2.4848 C   0  0  0  0  0  0  0  0  0  0  0  0
    4.2857    3.5373    1.1733 C   0  0  0  0  0  0  0  0  0  0  0  0
    3.7527    3.4164    2.4537 N   0  0  0  0  0  0  0  0  0  0  0  0
   -0.8992    1.4974   -0.4599 H   0  0  0  0  0  0  0  0  0  0  0  0
    1.4878    1.3905   -1.0198 H   0  0  0  0  0  0  0  0  0  0  0  0
    2.9661   -0.1192    0.2720 H   0  0  0  0  0  0  0  0  0  0  0  0
    1.8455   -0.0392    1.6268 H   0  0  0  0  0  0  0  0  0  0  0  0
    3.9908    2.3660   -0.5310 H   0  0  0  0  0  0  0  0  0  0  0  0
    2.3527    1.9249    3.3362 H   0  0  0  0  0  0  0  0  0  0  0  0
    4.9819    4.3058    0.8330 H   0  0  0  0  0  0  0  0  0  0  0  0
    3.9406    4.0381    3.2455 H   0  0  0  0  0  0  0  0  0  0  0  0
    1.0442   -1.7246   -0.7003 N   0  0  0  0  0  0  0  0  0  0  0  0
    0.1909   -2.9185   -0.7564 C   0  0  2  0  0  0  0  0  0  0  0  0
    0.1866   -3.6061    0.6256 C   0  0  0  0  0  0  0  0  0  0  0  0
    1.0396   -3.2978    1.4563 O   0  0  0  0  0  0  0  0  0  0  0  0
    0.7328   -3.8507   -1.8418 C   0  0  0  0  0  0  0  0  0  0  0  0
    1.7134   -1.7660    0.0666 H   0  0  0  0  0  0  0  0  0  0  0  0
   -0.8464   -2.6548   -0.9931 H   0  0  0  0  0  0  0  0  0  0  0  0
    1.7616   -4.1486   -1.6149 H   0  0  0  0  0  0  0  0  0  0  0  0
    0.1173   -4.7524   -1.9165 H   0  0  0  0  0  0  0  0  0  0  0  0
    0.7214   -3.3442   -2.8122 H   0  0  0  0  0  0  0  0  0  0  0  0
   -0.7477   -4.5754    0.9353 N   0  0  0  0  0  0  0  0  0  0  0  0
   -0.7765   -5.2823    2.2100 C   0  0  0  0  0  0  0  0  0  0  0  0
   -1.4716   -4.7669    0.2479 H   0  0  0  0  0  0  0  0  0  0  0  0
    0.1541   -5.8403    2.3594 H   0  0  0  0  0  0  0  0  0  0  0  0
   -0.8992   -4.5768    3.0382 H   0  0  0  0  0  0  0  0  0  0  0  0
   -1.6106   -5.9905    2.2321 H   0  0  0  0  0  0  0  0  0  0  0  0
  1  2  2  0  0  0  0
  1  3  1  0  0  0  0
  1  7  1  0  0  0  0
  3  4  1  0  0  0  0
  3  5  1  0  0  0  0
  3  6  1  0  0  0  0
  7  8  1  0  0  0  0
  7 12  1  0  0  0  0
  8  9  1  0  0  0  0
  8 11  1  0  0  0  0
  8 13  1  0  0  0  0
  9 10  2  0  0  0  0
  9 17  1  0  0  0  0
 11 14  1  0  0  0  0
 11 15  1  0  0  0  0
 11 16  1  0  0  0  0
 17 18  1  0  0  0  0
 17 27  1  0  0  0  0
 18 19  1  0  0  0  0
 18 21  1  0  0  0  0
 18 28  1  0  0  0  0
 19 20  2  0  0  0  0
 19 35  1  0  0  0  0
 21 22  1  0  0  0  0
 21 29  1  0  0  0  0
 21 30  1  0  0  0  0
 22 23  1  0  0  0  0
 22 24  2  0  0  0  0
 23 25  2  0  0  0  0
 23 31  1  0  0  0  0
 24 26  1  0  0  0  0
 24 32  1  0  0  0  0
 25 26  1  0  0  0  0
 25 33  1  0  0  0  0
 26 34  1  0  0  0  0
 35 36  1  0  0  0  0
 35 40  1  0  0  0  0
 36 37  1  0  0  0  0
 36 39  1  0  0  0  0
 36 41  1  0  0  0  0
 37 38  2  0  0  0  0
 37 45  1  0  0  0  0
 39 42  1  0  0  0  0
 39 43  1  0  0  0  0
 39 44  1  0  0  0  0
 45 46  1  0  0  0  0
 45 47  1  0  0  0  0
 46 48  1  0  0  0  0
 46 49  1  0  0  0  0
 46 50  1  0  0  0  0
M  CHG  1  23   1
M  END
$$$$

  -OEChem-05262216443D

 50 50  0     1  0  0  0  0  0999 V2000
   -3.5136   -0.1176    3.5859 C   0  0  0  0  0  0  0  0  0  0  0  0
   -4.4241    0.0074    2.7836 O   0  0  0  0  0  0  0  0  0  0  0  0
   -3.7097   -0.9474    4.8398 C   0  0  0  0  0  0  0  0  0  0  0  0
   -3.0178   -1.7930    4.8405 H   0  0  0  0  0  0  0  0  0  0  0  0
   -3.5275   -0.3340    5.7253 H   0  0  0  0  0  0  0  0  0  0  0  0
   -4.7335   -1.3300    4.8819 H   0  0  0  0  0  0  0  0  0  0  0  0
   -2.3007    0.4950    3.3466 N   0  0  0  0  0  0  0  0  0  0  0  0
   -1.9659    1.1869    2.0943 C   0  0  2  0  0  0  0  0  0  0  0  0
   -0.4796    1.0126    1.7182 C   0  0  0  0  0  0  0  0  0  0  0  0
    0.3414    0.7985    2.6027 O   0  0  0  0  0  0  0  0  0  0  0  0
   -2.3145    2.6689    2.2515 C   0  0  0  0  0  0  0  0  0  0  0  0
   -1.5321    0.2605    3.9726 H   0  0  0  0  0  0  0  0  0  0  0  0
   -2.5586    0.7658    1.2740 H   0  0  0  0  0  0  0  0  0  0  0  0
   -1.7427    3.1129    3.0724 H   0  0  0  0  0  0  0  0  0  0  0  0
   -2.0910    3.2167    1.3310 H   0  0  0  0  0  0  0  0  0  0  0  0
   -3.3816    2.7832    2.4689 H   0  0  0  0  0  0  0  0  0  0  0  0
   -0.1152    1.0416    0.3795 N   0  0  0  0  0  0  0  0  0  0  0  0
    1.1315    0.5580   -0.2571 C   0  0  2  0  0  0  0  0  0  0  0  0
    0.7987   -0.7631   -0.9804 C   0  0  0  0  0  0  0  0  0  0  0  0
   -0.0938   -0.7428   -1.8163 O   0  0  0  0  0  0  0  0  0  0  0  0
    2.4355    0.4971    0.5762 C   0  0  0  0  0  0  0  0  0  0  0  0
    2.8915    1.8696    1.0210 C   0  0  0  0  0  0  0  0  0  0  0  0
    3.4970    2.8433    0.2227 N   0  3  0  0  0  0  0  0  0  0  0  0
    2.8696    2.3552    2.3040 C   0  0  0  0  0  0  0  0  0  0  0  0
    3.8104    3.8945    0.9422 C   0  0  0  0  0  0  0  0  0  0  0  0
    3.4290    3.6245    2.2541 N   0  0  0  0  0  0  0  0  0  0  0  0
   -0.9135    1.0948   -0.2553 H   0  0  0  0  0  0  0  0  0  0  0  0
    1.3447    1.2650   -1.0644 H   0  0  0  0  0  0  0  0  0  0  0  0
    3.2328    0.0487   -0.0264 H   0  0  0  0  0  0  0  0  0  0  0  0
    2.2940   -0.1547    1.4449 H   0  0  0  0  0  0  0  0  0  0  0  0
    3.6487    2.7267   -0.7824 H   0  0  0  0  0  0  0  0  0  0  0  0
    2.4747    1.8347    3.1787 H   0  0  0  0  0  0  0  0  0  0  0  0
    4.2836    4.8103    0.5825 H   0  0  0  0  0  0  0  0  0  0  0  0
    3.5410    4.2538    3.0547 H   0  0  0  0  0  0  0  0  0  0  0  0
    1.4223   -1.9564   -0.6624 N   0  0  0  0  0  0  0  0  0  0  0  0
    0.7785   -3.2458   -0.9597 C   0  0  2  0  0  0  0  0  0  0  0  0
   -0.1124   -3.6888    0.2213 C   0  0  0  0  0  0  0  0  0  0  0  0
    0.1107   -3.2436    1.3431 O   0  0  0  0  0  0  0  0  0  0  0  0
    1.8787   -4.2752   -1.2251 C   0  0  0  0  0  0  0  0  0  0  0  0
    1.9164   -1.9391    0.2268 H   0  0  0  0  0  0  0  0  0  0  0  0
    0.1520   -3.1746   -1.8554 H   0  0  0  0  0  0  0  0  0  0  0  0
    2.5130   -4.3981   -0.3412 H   0  0  0  0  0  0  0  0  0  0  0  0
    1.4404   -5.2466   -1.4747 H   0  0  0  0  0  0  0  0  0  0  0  0
    2.5045   -3.9536   -2.0636 H   0  0  0  0  0  0  0  0  0  0  0  0
   -1.1564   -4.5739    0.0329 N   0  0  0  0  0  0  0  0  0  0  0  0
   -2.0705   -4.9660    1.1002 C   0  0  0  0  0  0  0  0  0  0  0  0
   -1.3598   -4.8706   -0.9179 H   0  0  0  0  0  0  0  0  0  0  0  0
   -1.5174   -5.3933    1.9435 H   0  0  0  0  0  0  0  0  0  0  0  0
   -2.6393   -4.1000    1.4551 H   0  0  0  0  0  0  0  0  0  0  0  0
   -2.7770   -5.7190    0.7374 H   0  0  0  0  0  0  0  0  0  0  0  0
  1  2  2  0  0  0  0
  1  3  1  0  0  0  0
  1  7  1  0  0  0  0
  3  4  1  0  0  0  0
  3  5  1  0  0  0  0
  3  6  1  0  0  0  0
  7  8  1  0  0  0  0
  7 12  1  0  0  0  0
  8  9  1  0  0  0  0
  8 11  1  0  0  0  0
  8 13  1  0  0  0  0
  9 10  2  0  0  0  0
  9 17  1  0  0  0  0
 11 14  1  0  0  0  0
 11 15  1  0  0  0  0
 11 16  1  0  0  0  0
 17 18  1  0  0  0  0
 17 27  1  0  0  0  0
 18 19  1  0  0  0  0
 18 21  1  0  0  0  0
 18 28  1  0  0  0  0
 19 20  2  0  0  0  0
 19 35  1  0  0  0  0
 21 22  1  0  0  0  0
 21 29  1  0  0  0  0
 21 30  1  0  0  0  0
 22 23  1  0  0  0  0
 22 24  2  0  0  0  0
 23 25  2  0  0  0  0
 23 31  1  0  0  0  0
 24 26  1  0  0  0  0
 24 32  1  0  0  0  0
 25 26  1  0  0  0  0
 25 33  1  0  0  0  0
 26 34  1  0  0  0  0
 35 36  1  0  0  0  0
 35 40  1  0  0  0  0
 36 37  1  0  0  0  0
 36 39  1  0  0  0  0
 36 41  1  0  0  0  0
 37 38  2  0  0  0  0
 37 45  1  0  0  0  0
 39 42  1  0  0  0  0
 39 43  1  0  0  0  0
 39 44  1  0  0  0  0
 45 46  1  0  0  0  0
 45 47  1  0  0  0  0
 46 48  1  0  0  0  0
 46 49  1  0  0  0  0
 46 50  1  0  0  0  0
M  CHG  1  23   1
M  END
$$$$

  -OEChem-05262216443D

 50 50  0     1  0  0  0  0  0999 V2000
   -3.1382    0.2031    1.3781 C   0  0  0  0  0  0  0  0  0  0  0  0
   -3.1800    1.2881    0.8171 O   0  0  0  0  0  0  0  0  0  0  0  0
   -3.8379   -0.9968    0.7726 C   0  0  0  0  0  0  0  0  0  0  0  0
   -3.1058   -1.6553    0.2998 H   0  0  0  0  0  0  0  0  0  0  0  0
   -4.3703   -1.5495    1.5498 H   0  0  0  0  0  0  0  0  0  0  0  0
   -4.5578   -0.6697    0.0173 H   0  0  0  0  0  0  0  0  0  0  0  0
   -2.3287    0.0612    2.4862 N   0  0  0  0  0  0  0  0  0  0  0  0
   -1.5048    1.1555    3.0325 C   0  0  2  0  0  0  0  0  0  0  0  0
   -0.1687    1.2954    2.2608 C   0  0  0  0  0  0  0  0  0  0  0  0
    0.9031    1.3263    2.8539 O   0  0  0  0  0  0  0  0  0  0  0  0
   -1.3152    0.8651    4.5262 C   0  0  0  0  0  0  0  0  0  0  0  0
   -2.0361   -0.9000    2.6895 H   0  0  0  0  0  0  0  0  0  0  0  0
   -2.0395    2.1074    2.9410 H   0  0  0  0  0  0  0  0  0  0  0  0
   -0.7674   -0.0721    4.6691 H   0  0  0  0  0  0  0  0  0  0  0  0
   -0.7539    1.6735    5.0048 H   0  0  0  0  0  0  0  0  0  0  0  0
   -2.2868    0.7803    5.0230 H   0  0  0  0  0  0  0  0  0  0  0  0
   -0.2154    1.1369    0.8850 N   0  0  0  0  0  0  0  0  0  0  0  0
    0.8263    0.6319   -0.0270 C   0  0  2  0  0  0  0  0  0  0  0  0
    0.4055   -0.7979   -0.4132 C   0  0  0  0  0  0  0  0  0  0  0  0
   -0.5479   -0.9586   -1.1618 O   0  0  0  0  0  0  0  0  0  0  0  0
    2.3203    0.7857    0.3411 C   0  0  0  0  0  0  0  0  0  0  0  0
    2.7222    2.2429    0.4099 C   0  0  0  0  0  0  0  0  0  0  0  0
    2.9300    3.0945   -0.6780 N   0  3  0  0  0  0  0  0  0  0  0  0
    3.0208    2.9557    1.5436 C   0  0  0  0  0  0  0  0  0  0  0  0
    3.2934    4.2848   -0.2639 C   0  0  0  0  0  0  0  0  0  0  0  0
    3.3654    4.2335    1.1258 N   0  0  0  0  0  0  0  0  0  0  0  0
   -1.1757    1.1008    0.5248 H   0  0  0  0  0  0  0  0  0  0  0  0
    0.7059    1.2097   -0.9488 H   0  0  0  0  0  0  0  0  0  0  0  0
    2.9352    0.2843   -0.4138 H   0  0  0  0  0  0  0  0  0  0  0  0
    2.5266    0.2923    1.2961 H   0  0  0  0  0  0  0  0  0  0  0  0
    2.7645    2.8115   -1.6472 H   0  0  0  0  0  0  0  0  0  0  0  0
    2.9687    2.5824    2.5680 H   0  0  0  0  0  0  0  0  0  0  0  0
    3.4954    5.1558   -0.8899 H   0  0  0  0  0  0  0  0  0  0  0  0
    3.6092    5.0125    1.7446 H   0  0  0  0  0  0  0  0  0  0  0  0
    1.0434   -1.8975    0.1327 N   0  0  0  0  0  0  0  0  0  0  0  0
    0.3886   -3.2158    0.1333 C   0  0  2  0  0  0  0  0  0  0  0  0
   -0.7484   -3.3269    1.1809 C   0  0  0  0  0  0  0  0  0  0  0  0
   -0.9187   -2.4552    2.0309 O   0  0  0  0  0  0  0  0  0  0  0  0
    1.4704   -4.2663    0.3995 C   0  0  0  0  0  0  0  0  0  0  0  0
    1.6079   -1.6858    0.9511 H   0  0  0  0  0  0  0  0  0  0  0  0
   -0.0459   -3.4119   -0.8535 H   0  0  0  0  0  0  0  0  0  0  0  0
    1.9151   -4.1200    1.3892 H   0  0  0  0  0  0  0  0  0  0  0  0
    1.0469   -5.2745    0.3564 H   0  0  0  0  0  0  0  0  0  0  0  0
    2.2618   -4.1957   -0.3534 H   0  0  0  0  0  0  0  0  0  0  0  0
   -1.5964   -4.4183    1.1731 N   0  0  0  0  0  0  0  0  0  0  0  0
   -2.6634   -4.6214    2.1473 C   0  0  0  0  0  0  0  0  0  0  0  0
   -1.4537   -5.1217    0.4530 H   0  0  0  0  0  0  0  0  0  0  0  0
   -2.2628   -4.6067    3.1666 H   0  0  0  0  0  0  0  0  0  0  0  0
   -3.4224   -3.8382    2.0555 H   0  0  0  0  0  0  0  0  0  0  0  0
   -3.1462   -5.5900    1.9832 H   0  0  0  0  0  0  0  0  0  0  0  0
  1  2  2  0  0  0  0
  1  3  1  0  0  0  0
  1  7  1  0  0  0  0
  3  4  1  0  0  0  0
  3  5  1  0  0  0  0
  3  6  1  0  0  0  0
  7  8  1  0  0  0  0
  7 12  1  0  0  0  0
  8  9  1  0  0  0  0
  8 11  1  0  0  0  0
  8 13  1  0  0  0  0
  9 10  2  0  0  0  0
  9 17  1  0  0  0  0
 11 14  1  0  0  0  0
 11 15  1  0  0  0  0
 11 16  1  0  0  0  0
 17 18  1  0  0  0  0
 17 27  1  0  0  0  0
 18 19  1  0  0  0  0
 18 21  1  0  0  0  0
 18 28  1  0  0  0  0
 19 20  2  0  0  0  0
 19 35  1  0  0  0  0
 21 22  1  0  0  0  0
 21 29  1  0  0  0  0
 21 30  1  0  0  0  0
 22 23  1  0  0  0  0
 22 24  2  0  0  0  0
 23 25  2  0  0  0  0
 23 31  1  0  0  0  0
 24 26  1  0  0  0  0
 24 32  1  0  0  0  0
 25 26  1  0  0  0  0
 25 33  1  0  0  0  0
 26 34  1  0  0  0  0
 35 36  1  0  0  0  0
 35 40  1  0  0  0  0
 36 37  1  0  0  0  0
 36 39  1  0  0  0  0
 36 41  1  0  0  0  0
 37 38  2  0  0  0  0
 37 45  1  0  0  0  0
 39 42  1  0  0  0  0
 39 43  1  0  0  0  0
 39 44  1  0  0  0  0
 45 46  1  0  0  0  0
 45 47  1  0  0  0  0
 46 48  1  0  0  0  0
 46 49  1  0  0  0  0
 46 50  1  0  0  0  0
M  CHG  1  23   1
M  END
$$$$

  -OEChem-05262216443D

 50 50  0     1  0  0  0  0  0999 V2000
   -1.4952   -0.6764    3.5492 C   0  0  0  0  0  0  0  0  0  0  0  0
   -0.4852   -1.0292    2.9523 O   0  0  0  0  0  0  0  0  0  0  0  0
   -1.8781   -1.3733    4.8404 C   0  0  0  0  0  0  0  0  0  0  0  0
   -1.1481   -2.1506    5.0827 H   0  0  0  0  0  0  0  0  0  0  0  0
   -1.9088   -0.6513    5.6598 H   0  0  0  0  0  0  0  0  0  0  0  0
   -2.8620   -1.8372    4.7349 H   0  0  0  0  0  0  0  0  0  0  0  0
   -2.2898    0.3535    3.0793 N   0  0  0  0  0  0  0  0  0  0  0  0
   -2.1484    0.9778    1.7530 C   0  0  2  0  0  0  0  0  0  0  0  0
   -0.7211    1.4829    1.4350 C   0  0  0  0  0  0  0  0  0  0  0  0
   -0.0674    2.0505    2.2997 O   0  0  0  0  0  0  0  0  0  0  0  0
   -3.1380    2.1428    1.6796 C   0  0  0  0  0  0  0  0  0  0  0  0
   -3.1259    0.5601    3.6172 H   0  0  0  0  0  0  0  0  0  0  0  0
   -2.4238    0.2398    0.9935 H   0  0  0  0  0  0  0  0  0  0  0  0
   -2.8934    2.9021    2.4299 H   0  0  0  0  0  0  0  0  0  0  0  0
   -3.1054    2.6091    0.6899 H   0  0  0  0  0  0  0  0  0  0  0  0
   -4.1582    1.7892    1.8583 H   0  0  0  0  0  0  0  0  0  0  0  0
   -0.1669    1.1840    0.1993 N   0  0  0  0  0  0  0  0  0  0  0  0
    1.1334    0.5040    0.0125 C   0  0  2  0  0  0  0  0  0  0  0  0
    0.8689   -0.9515   -0.4093 C   0  0  0  0  0  0  0  0  0  0  0  0
    0.8115   -1.2131   -1.6026 O   0  0  0  0  0  0  0  0  0  0  0  0
    2.2661    0.6149    1.0622 C   0  0  0  0  0  0  0  0  0  0  0  0
    2.8022    2.0211    1.2253 C   0  0  0  0  0  0  0  0  0  0  0  0
    3.6425    2.6711    0.3191 N   0  3  0  0  0  0  0  0  0  0  0  0
    2.6897    2.8369    2.3226 C   0  0  0  0  0  0  0  0  0  0  0  0
    3.9939    3.8476    0.7795 C   0  0  0  0  0  0  0  0  0  0  0  0
    3.4119    3.9866    2.0366 N   0  0  0  0  0  0  0  0  0  0  0  0
   -0.8742    0.8462   -0.4546 H   0  0  0  0  0  0  0  0  0  0  0  0
    1.5551    0.9727   -0.8822 H   0  0  0  0  0  0  0  0  0  0  0  0
    3.0913   -0.0459    0.7760 H   0  0  0  0  0  0  0  0  0  0  0  0
    1.8899    0.2564    2.0270 H   0  0  0  0  0  0  0  0  0  0  0  0
    3.8948    2.2707   -0.5878 H   0  0  0  0  0  0  0  0  0  0  0  0
    2.1164    2.6162    3.2247 H   0  0  0  0  0  0  0  0  0  0  0  0
    4.6227    4.5814    0.2725 H   0  0  0  0  0  0  0  0  0  0  0  0
    3.4857    4.8050    2.6474 H   0  0  0  0  0  0  0  0  0  0  0  0
    0.7328   -1.9557    0.5281 N   0  0  0  0  0  0  0  0  0  0  0  0
    0.1259   -3.2405    0.1545 C   0  0  2  0  0  0  0  0  0  0  0  0
   -1.3966   -3.1336   -0.1101 C   0  0  0  0  0  0  0  0  0  0  0  0
   -2.0371   -2.1506    0.2520 O   0  0  0  0  0  0  0  0  0  0  0  0
    0.4001   -4.2200    1.2981 C   0  0  0  0  0  0  0  0  0  0  0  0
    0.4911   -1.6160    1.4652 H   0  0  0  0  0  0  0  0  0  0  0  0
    0.6017   -3.6210   -0.7558 H   0  0  0  0  0  0  0  0  0  0  0  0
   -0.0810   -3.8753    2.2197 H   0  0  0  0  0  0  0  0  0  0  0  0
    0.0132   -5.2145    1.0552 H   0  0  0  0  0  0  0  0  0  0  0  0
    1.4766   -4.3037    1.4771 H   0  0  0  0  0  0  0  0  0  0  0  0
   -2.0612   -4.1574   -0.7596 N   0  0  0  0  0  0  0  0  0  0  0  0
   -3.4827   -4.1119   -1.0835 C   0  0  0  0  0  0  0  0  0  0  0  0
   -1.5054   -4.9344   -1.1054 H   0  0  0  0  0  0  0  0  0  0  0  0
   -4.0812   -4.0109   -0.1720 H   0  0  0  0  0  0  0  0  0  0  0  0
   -3.6990   -3.2646   -1.7427 H   0  0  0  0  0  0  0  0  0  0  0  0
   -3.7845   -5.0321   -1.5932 H   0  0  0  0  0  0  0  0  0  0  0  0
  1  2  2  0  0  0  0
  1  3  1  0  0  0  0
  1  7  1  0  0  0  0
  3  4  1  0  0  0  0
  3  5  1  0  0  0  0
  3  6  1  0  0  0  0
  7  8  1  0  0  0  0
  7 12  1  0  0  0  0
  8  9  1  0  0  0  0
  8 11  1  0  0  0  0
  8 13  1  0  0  0  0
  9 10  2  0  0  0  0
  9 17  1  0  0  0  0
 11 14  1  0  0  0  0
 11 15  1  0  0  0  0
 11 16  1  0  0  0  0
 17 18  1  0  0  0  0
 17 27  1  0  0  0  0
 18 19  1  0  0  0  0
 18 21  1  0  0  0  0
 18 28  1  0  0  0  0
 19 20  2  0  0  0  0
 19 35  1  0  0  0  0
 21 22  1  0  0  0  0
 21 29  1  0  0  0  0
 21 30  1  0  0  0  0
 22 23  1  0  0  0  0
 22 24  2  0  0  0  0
 23 25  2  0  0  0  0
 23 31  1  0  0  0  0
 24 26  1  0  0  0  0
 24 32  1  0  0  0  0
 25 26  1  0  0  0  0
 25 33  1  0  0  0  0
 26 34  1  0  0  0  0
 35 36  1  0  0  0  0
 35 40  1  0  0  0  0
 36 37  1  0  0  0  0
 36 39  1  0  0  0  0
 36 41  1  0  0  0  0
 37 38  2  0  0  0  0
 37 45  1  0  0  0  0
 39 42  1  0  0  0  0
 39 43  1  0  0  0  0
 39 44  1  0  0  0  0
 45 46  1  0  0  0  0
 45 47  1  0  0  0  0
 46 48  1  0  0  0  0
 46 49  1  0  0  0  0
 46 50  1  0  0  0  0
M  CHG  1  23   1
M  END
$$$$

  -OEChem-05262216443D

 50 50  0     1  0  0  0  0  0999 V2000
   -1.8145   -0.6884    3.6317 C   0  0  0  0  0  0  0  0  0  0  0  0
   -0.9414   -1.2529    2.9851 O   0  0  0  0  0  0  0  0  0  0  0  0
   -2.1837   -1.2067    5.0083 C   0  0  0  0  0  0  0  0  0  0  0  0
   -1.5931   -2.0951    5.2486 H   0  0  0  0  0  0  0  0  0  0  0  0
   -1.9877   -0.4395    5.7613 H   0  0  0  0  0  0  0  0  0  0  0  0
   -3.2432   -1.4724    5.0358 H   0  0  0  0  0  0  0  0  0  0  0  0
   -2.4538    0.4291    3.1290 N   0  0  0  0  0  0  0  0  0  0  0  0
   -2.2009    0.9905    1.7920 C   0  0  2  0  0  0  0  0  0  0  0  0
   -0.7105    1.3127    1.5247 C   0  0  0  0  0  0  0  0  0  0  0  0
   -0.0186    1.7634    2.4291 O   0  0  0  0  0  0  0  0  0  0  0  0
   -3.0420    2.2605    1.6486 C   0  0  0  0  0  0  0  0  0  0  0  0
   -3.1538    0.8684    3.7191 H   0  0  0  0  0  0  0  0  0  0  0  0
   -2.5342    0.2662    1.0430 H   0  0  0  0  0  0  0  0  0  0  0  0
   -2.7430    3.0057    2.3930 H   0  0  0  0  0  0  0  0  0  0  0  0
   -2.9109    2.6932    0.6518 H   0  0  0  0  0  0  0  0  0  0  0  0
   -4.1036    2.0329    1.7869 H   0  0  0  0  0  0  0  0  0  0  0  0
   -0.1604    0.9962    0.2906 N   0  0  0  0  0  0  0  0  0  0  0  0
    1.1660    0.3727    0.0781 C   0  0  2  0  0  0  0  0  0  0  0  0
    0.9665   -1.1026   -0.2977 C   0  0  0  0  0  0  0  0  0  0  0  0
    1.1803   -1.4426   -1.4535 O   0  0  0  0  0  0  0  0  0  0  0  0
    2.3274    0.5596    1.0813 C   0  0  0  0  0  0  0  0  0  0  0  0
    2.7934    1.9957    1.1823 C   0  0  0  0  0  0  0  0  0  0  0  0
    3.5642    2.6571    0.2241 N   0  3  0  0  0  0  0  0  0  0  0  0
    2.6616    2.8464    2.2503 C   0  0  0  0  0  0  0  0  0  0  0  0
    3.8621    3.8677    0.6305 C   0  0  0  0  0  0  0  0  0  0  0  0
    3.3106    4.0220    1.8997 N   0  0  0  0  0  0  0  0  0  0  0  0
   -0.8707    0.6416   -0.3536 H   0  0  0  0  0  0  0  0  0  0  0  0
    1.5324    0.8407   -0.8410 H   0  0  0  0  0  0  0  0  0  0  0  0
    3.1738   -0.0654    0.7762 H   0  0  0  0  0  0  0  0  0  0  0  0
    2.0096    0.2029    2.0673 H   0  0  0  0  0  0  0  0  0  0  0  0
    3.8161    2.2344   -0.6732 H   0  0  0  0  0  0  0  0  0  0  0  0
    2.1288    2.6293    3.1776 H   0  0  0  0  0  0  0  0  0  0  0  0
    4.4345    4.6146    0.0780 H   0  0  0  0  0  0  0  0  0  0  0  0
    3.3623    4.8641    2.4799 H   0  0  0  0  0  0  0  0  0  0  0  0
    0.6062   -2.0431    0.6480 N   0  0  0  0  0  0  0  0  0  0  0  0
   -0.0819   -3.2631    0.2019 C   0  0  2  0  0  0  0  0  0  0  0  0
   -1.5127   -2.9753   -0.3241 C   0  0  0  0  0  0  0  0  0  0  0  0
   -2.0149   -1.8569   -0.2267 O   0  0  0  0  0  0  0  0  0  0  0  0
   -0.1211   -4.2360    1.3835 C   0  0  0  0  0  0  0  0  0  0  0  0
    0.2490   -1.6444    1.5230 H   0  0  0  0  0  0  0  0  0  0  0  0
    0.4872   -3.7298   -0.6093 H   0  0  0  0  0  0  0  0  0  0  0  0
   -0.7297   -3.8297    2.1973 H   0  0  0  0  0  0  0  0  0  0  0  0
   -0.5486   -5.1957    1.0781 H   0  0  0  0  0  0  0  0  0  0  0  0
    0.8906   -4.4145    1.7610 H   0  0  0  0  0  0  0  0  0  0  0  0
   -2.2370   -3.9742   -0.9483 N   0  0  0  0  0  0  0  0  0  0  0  0
   -3.5559   -3.7617   -1.5345 C   0  0  0  0  0  0  0  0  0  0  0  0
   -1.7793   -4.8708   -1.0857 H   0  0  0  0  0  0  0  0  0  0  0  0
   -4.2602   -3.4050   -0.7757 H   0  0  0  0  0  0  0  0  0  0  0  0
   -3.5024   -3.0225   -2.3408 H   0  0  0  0  0  0  0  0  0  0  0  0
   -3.9424   -4.6979   -1.9490 H   0  0  0  0  0  0  0  0  0  0  0  0
  1  2  2  0  0  0  0
  1  3  1  0  0  0  0
  1  7  1  0  0  0  0
  3  4  1  0  0  0  0
  3  5  1  0  0  0  0
  3  6  1  0  0  0  0
  7  8  1  0  0  0  0
  7 12  1  0  0  0  0
  8  9  1  0  0  0  0
  8 11  1  0  0  0  0
  8 13  1  0  0  0  0
  9 10  2  0  0  0  0
  9 17  1  0  0  0  0
 11 14  1  0  0  0  0
 11 15  1  0  0  0  0
 11 16  1  0  0  0  0
 17 18  1  0  0  0  0
 17 27  1  0  0  0  0
 18 19  1  0  0  0  0
 18 21  1  0  0  0  0
 18 28  1  0  0  0  0
 19 20  2  0  0  0  0
 19 35  1  0  0  0  0
 21 22  1  0  0  0  0
 21 29  1  0  0  0  0
 21 30  1  0  0  0  0
 22 23  1  0  0  0  0
 22 24  2  0  0  0  0
 23 25  2  0  0  0  0
 23 31  1  0  0  0  0
 24 26  1  0  0  0  0
 24 32  1  0  0  0  0
 25 26  1  0  0  0  0
 25 33  1  0  0  0  0
 26 34  1  0  0  0  0
 35 36  1  0  0  0  0
 35 40  1  0  0  0  0
 36 37  1  0  0  0  0
 36 39  1  0  0  0  0
 36 41  1  0  0  0  0
 37 38  2  0  0  0  0
 37 45  1  0  0  0  0
 39 42  1  0  0  0  0
 39 43  1  0  0  0  0
 39 44  1  0  0  0  0
 45 46  1  0  0  0  0
 45 47  1  0  0  0  0
 46 48  1  0  0  0  0
 46 49  1  0  0  0  0
 46 50  1  0  0  0  0
M  CHG  1  23   1
M  END
$$$$

  -OEChem-05262216443D

 50 50  0     1  0  0  0  0  0999 V2000
   -2.0768   -0.6499    3.6288 C   0  0  0  0  0  0  0  0  0  0  0  0
   -1.2939   -1.3302    2.9794 O   0  0  0  0  0  0  0  0  0  0  0  0
   -2.4714   -1.0781    5.0288 C   0  0  0  0  0  0  0  0  0  0  0  0
   -1.9926   -2.0283    5.2816 H   0  0  0  0  0  0  0  0  0  0  0  0
   -2.1578   -0.3223    5.7530 H   0  0  0  0  0  0  0  0  0  0  0  0
   -3.5551   -1.2042    5.0894 H   0  0  0  0  0  0  0  0  0  0  0  0
   -2.5842    0.5196    3.0972 N   0  0  0  0  0  0  0  0  0  0  0  0
   -2.2345    1.0190    1.7580 C   0  0  2  0  0  0  0  0  0  0  0  0
   -0.7113    1.2063    1.5515 C   0  0  0  0  0  0  0  0  0  0  0  0
   -0.0244    1.6197    2.4780 O   0  0  0  0  0  0  0  0  0  0  0  0
   -2.9615    2.3480    1.5427 C   0  0  0  0  0  0  0  0  0  0  0  0
   -3.1808    1.0844    3.6942 H   0  0  0  0  0  0  0  0  0  0  0  0
   -2.5963    0.3010    1.0156 H   0  0  0  0  0  0  0  0  0  0  0  0
   -2.6299    3.0911    2.2749 H   0  0  0  0  0  0  0  0  0  0  0  0
   -2.7590    2.7345    0.5388 H   0  0  0  0  0  0  0  0  0  0  0  0
   -4.0426    2.2118    1.6459 H   0  0  0  0  0  0  0  0  0  0  0  0
   -0.1385    0.8327    0.3441 N   0  0  0  0  0  0  0  0  0  0  0  0
    1.2070    0.2397    0.1564 C   0  0  2  0  0  0  0  0  0  0  0  0
    1.0692   -1.2601   -0.1389 C   0  0  0  0  0  0  0  0  0  0  0  0
    1.5031   -1.6810   -1.2027 O   0  0  0  0  0  0  0  0  0  0  0  0
    2.3608    0.5136    1.1467 C   0  0  0  0  0  0  0  0  0  0  0  0
    2.7734    1.9685    1.1701 C   0  0  0  0  0  0  0  0  0  0  0  0
    3.5187    2.6068    0.1770 N   0  3  0  0  0  0  0  0  0  0  0  0
    2.5980    2.8716    2.1871 C   0  0  0  0  0  0  0  0  0  0  0  0
    3.7640    3.8496    0.5155 C   0  0  0  0  0  0  0  0  0  0  0  0
    3.1995    4.0519    1.7724 N   0  0  0  0  0  0  0  0  0  0  0  0
   -0.8391    0.4426   -0.2943 H   0  0  0  0  0  0  0  0  0  0  0  0
    1.5536    0.6724   -0.7877 H   0  0  0  0  0  0  0  0  0  0  0  0
    3.2283   -0.0947    0.8682 H   0  0  0  0  0  0  0  0  0  0  0  0
    2.0604    0.1924    2.1500 H   0  0  0  0  0  0  0  0  0  0  0  0
    3.7948    2.1433   -0.6928 H   0  0  0  0  0  0  0  0  0  0  0  0
    2.0701    2.6836    3.1235 H   0  0  0  0  0  0  0  0  0  0  0  0
    4.3083    4.5873   -0.0764 H   0  0  0  0  0  0  0  0  0  0  0  0
    3.2157    4.9260    2.3053 H   0  0  0  0  0  0  0  0  0  0  0  0
    0.4639   -2.1225    0.7563 N   0  0  0  0  0  0  0  0  0  0  0  0
   -0.2894   -3.2606    0.2082 C   0  0  2  0  0  0  0  0  0  0  0  0
   -1.5952   -2.8023   -0.4942 C   0  0  0  0  0  0  0  0  0  0  0  0
   -1.9358   -1.6188   -0.4980 O   0  0  0  0  0  0  0  0  0  0  0  0
   -0.5889   -4.2367    1.3500 C   0  0  0  0  0  0  0  0  0  0  0  0
    0.0204   -1.6641    1.5593 H   0  0  0  0  0  0  0  0  0  0  0  0
    0.3230   -3.7865   -0.5324 H   0  0  0  0  0  0  0  0  0  0  0  0
   -1.2783   -3.7893    2.0720 H   0  0  0  0  0  0  0  0  0  0  0  0
   -1.0437   -5.1531    0.9622 H   0  0  0  0  0  0  0  0  0  0  0  0
    0.3351   -4.5055    1.8716 H   0  0  0  0  0  0  0  0  0  0  0  0
   -2.3746   -3.7184   -1.1758 N   0  0  0  0  0  0  0  0  0  0  0  0
   -3.5732   -3.3565   -1.9241 C   0  0  0  0  0  0  0  0  0  0  0  0
   -2.0434   -4.6781   -1.2170 H   0  0  0  0  0  0  0  0  0  0  0  0
   -4.3078   -2.8803   -1.2661 H   0  0  0  0  0  0  0  0  0  0  0  0
   -3.3243   -2.6639   -2.7351 H   0  0  0  0  0  0  0  0  0  0  0  0
   -4.0313   -4.2495   -2.3606 H   0  0  0  0  0  0  0  0  0  0  0  0
  1  2  2  0  0  0  0
  1  3  1  0  0  0  0
  1  7  1  0  0  0  0
  3  4  1  0  0  0  0
  3  5  1  0  0  0  0
  3  6  1  0  0  0  0
  7  8  1  0  0  0  0
  7 12  1  0  0  0  0
  8  9  1  0  0  0  0
  8 11  1  0  0  0  0
  8 13  1  0  0  0  0
  9 10  2  0  0  0  0
  9 17  1  0  0  0  0
 11 14  1  0  0  0  0
 11 15  1  0  0  0  0
 11 16  1  0  0  0  0
 17 18  1  0  0  0  0
 17 27  1  0  0  0  0
 18 19  1  0  0  0  0
 18 21  1  0  0  0  0
 18 28  1  0  0  0  0
 19 20  2  0  0  0  0
 19 35  1  0  0  0  0
 21 22  1  0  0  0  0
 21 29  1  0  0  0  0
 21 30  1  0  0  0  0
 22 23  1  0  0  0  0
 22 24  2  0  0  0  0
 23 25  2  0  0  0  0
 23 31  1  0  0  0  0
 24 26  1  0  0  0  0
 24 32  1  0  0  0  0
 25 26  1  0  0  0  0
 25 33  1  0  0  0  0
 26 34  1  0  0  0  0
 35 36  1  0  0  0  0
 35 40  1  0  0  0  0
 36 37  1  0  0  0  0
 36 39  1  0  0  0  0
 36 41  1  0  0  0  0
 37 38  2  0  0  0  0
 37 45  1  0  0  0  0
 39 42  1  0  0  0  0
 39 43  1  0  0  0  0
 39 44  1  0  0  0  0
 45 46  1  0  0  0  0
 45 47  1  0  0  0  0
 46 48  1  0  0  0  0
 46 49  1  0  0  0  0
 46 50  1  0  0  0  0
M  CHG  1  23   1
M  END
$$$$

  -OEChem-05262216443D

 50 50  0     1  0  0  0  0  0999 V2000
   -2.3304   -0.5859    3.5364 C   0  0  0  0  0  0  0  0  0  0  0  0
   -1.6193   -1.3409    2.8877 O   0  0  0  0  0  0  0  0  0  0  0  0
   -2.7821   -0.9738    4.9307 C   0  0  0  0  0  0  0  0  0  0  0  0
   -2.4085   -1.9697    5.1852 H   0  0  0  0  0  0  0  0  0  0  0  0
   -2.3981   -0.2571    5.6606 H   0  0  0  0  0  0  0  0  0  0  0  0
   -3.8737   -0.9853    4.9803 H   0  0  0  0  0  0  0  0  0  0  0  0
   -2.6992    0.6334    3.0046 N   0  0  0  0  0  0  0  0  0  0  0  0
   -2.2499    1.1011    1.6850 C   0  0  2  0  0  0  0  0  0  0  0  0
   -0.7086    1.1634    1.5523 C   0  0  0  0  0  0  0  0  0  0  0  0
   -0.0351    1.5462    2.5018 O   0  0  0  0  0  0  0  0  0  0  0  0
   -2.8577    2.4835    1.4407 C   0  0  0  0  0  0  0  0  0  0  0  0
   -3.2170    1.2686    3.6045 H   0  0  0  0  0  0  0  0  0  0  0  0
   -2.6331    0.4131    0.9242 H   0  0  0  0  0  0  0  0  0  0  0  0
   -2.4999    3.1987    2.1885 H   0  0  0  0  0  0  0  0  0  0  0  0
   -2.5805    2.8504    0.4473 H   0  0  0  0  0  0  0  0  0  0  0  0
   -3.9498    2.4343    1.4962 H   0  0  0  0  0  0  0  0  0  0  0  0
   -0.1157    0.7192    0.3798 N   0  0  0  0  0  0  0  0  0  0  0  0
    1.2371    0.1343    0.2160 C   0  0  2  0  0  0  0  0  0  0  0  0
    1.1329   -1.3844    0.0101 C   0  0  0  0  0  0  0  0  0  0  0  0
    1.7407   -1.8795   -0.9291 O   0  0  0  0  0  0  0  0  0  0  0  0
    2.3777    0.4703    1.2012 C   0  0  0  0  0  0  0  0  0  0  0  0
    2.7651    1.9311    1.1657 C   0  0  0  0  0  0  0  0  0  0  0  0
    3.5068    2.5443    0.1547 N   0  3  0  0  0  0  0  0  0  0  0  0
    2.5659    2.8673    2.1477 C   0  0  0  0  0  0  0  0  0  0  0  0
    3.7321    3.8017    0.4511 C   0  0  0  0  0  0  0  0  0  0  0  0
    3.1541    4.0408    1.6957 N   0  0  0  0  0  0  0  0  0  0  0  0
   -0.8090    0.3205   -0.2647 H   0  0  0  0  0  0  0  0  0  0  0  0
    1.5793    0.5201   -0.7495 H   0  0  0  0  0  0  0  0  0  0  0  0
    3.2584   -0.1320    0.9518 H   0  0  0  0  0  0  0  0  0  0  0  0
    2.0780    0.1838    2.2149 H   0  0  0  0  0  0  0  0  0  0  0  0
    3.8000    2.0524   -0.6937 H   0  0  0  0  0  0  0  0  0  0  0  0
    2.0354    2.7029    3.0872 H   0  0  0  0  0  0  0  0  0  0  0  0
    4.2730    4.5251   -0.1615 H   0  0  0  0  0  0  0  0  0  0  0  0
    3.1602    4.9317    2.2004 H   0  0  0  0  0  0  0  0  0  0  0  0
    0.3010   -2.1642    0.7923 N   0  0  0  0  0  0  0  0  0  0  0  0
   -0.4670   -3.2310    0.1338 C   0  0  2  0  0  0  0  0  0  0  0  0
   -1.6612   -2.6543   -0.6710 C   0  0  0  0  0  0  0  0  0  0  0  0
   -1.8827   -1.4425   -0.6987 O   0  0  0  0  0  0  0  0  0  0  0  0
   -0.9377   -4.2193    1.2052 C   0  0  0  0  0  0  0  0  0  0  0  0
   -0.2163   -1.6520    1.5142 H   0  0  0  0  0  0  0  0  0  0  0  0
    0.1748   -3.7776   -0.5659 H   0  0  0  0  0  0  0  0  0  0  0  0
   -1.6499   -3.7447    1.8862 H   0  0  0  0  0  0  0  0  0  0  0  0
   -1.4258   -5.0830    0.7441 H   0  0  0  0  0  0  0  0  0  0  0  0
   -0.0843   -4.5783    1.7893 H   0  0  0  0  0  0  0  0  0  0  0  0
   -2.4668   -3.4917   -1.4200 N   0  0  0  0  0  0  0  0  0  0  0  0
   -3.5729   -3.0187   -2.2450 C   0  0  0  0  0  0  0  0  0  0  0  0
   -2.2385   -4.4821   -1.4271 H   0  0  0  0  0  0  0  0  0  0  0  0
   -4.3108   -2.4914   -1.6312 H   0  0  0  0  0  0  0  0  0  0  0  0
   -3.2088   -2.3378   -3.0217 H   0  0  0  0  0  0  0  0  0  0  0  0
   -4.0709   -3.8628   -2.7322 H   0  0  0  0  0  0  0  0  0  0  0  0
  1  2  2  0  0  0  0
  1  3  1  0  0  0  0
  1  7  1  0  0  0  0
  3  4  1  0  0  0  0
  3  5  1  0  0  0  0
  3  6  1  0  0  0  0
  7  8  1  0  0  0  0
  7 12  1  0  0  0  0
  8  9  1  0  0  0  0
  8 11  1  0  0  0  0
  8 13  1  0  0  0  0
  9 10  2  0  0  0  0
  9 17  1  0  0  0  0
 11 14  1  0  0  0  0
 11 15  1  0  0  0  0
 11 16  1  0  0  0  0
 17 18  1  0  0  0  0
 17 27  1  0  0  0  0
 18 19  1  0  0  0  0
 18 21  1  0  0  0  0
 18 28  1  0  0  0  0
 19 20  2  0  0  0  0
 19 35  1  0  0  0  0
 21 22  1  0  0  0  0
 21 29  1  0  0  0  0
 21 30  1  0  0  0  0
 22 23  1  0  0  0  0
 22 24  2  0  0  0  0
 23 25  2  0  0  0  0
 23 31  1  0  0  0  0
 24 26  1  0  0  0  0
 24 32  1  0  0  0  0
 25 26  1  0  0  0  0
 25 33  1  0  0  0  0
 26 34  1  0  0  0  0
 35 36  1  0  0  0  0
 35 40  1  0  0  0  0
 36 37  1  0  0  0  0
 36 39  1  0  0  0  0
 36 41  1  0  0  0  0
 37 38  2  0  0  0  0
 37 45  1  0  0  0  0
 39 42  1  0  0  0  0
 39 43  1  0  0  0  0
 39 44  1  0  0  0  0
 45 46  1  0  0  0  0
 45 47  1  0  0  0  0
 46 48  1  0  0  0  0
 46 49  1  0  0  0  0
 46 50  1  0  0  0  0
M  CHG  1  23   1
M  END
$$$$

  -OEChem-05262216443D

 50 50  0     1  0  0  0  0  0999 V2000
   -2.5781   -0.5126    3.3722 C   0  0  0  0  0  0  0  0  0  0  0  0
   -1.9459   -1.3079    2.6914 O   0  0  0  0  0  0  0  0  0  0  0  0
   -3.1068   -0.9215    4.7331 C   0  0  0  0  0  0  0  0  0  0  0  0
   -2.8257   -1.9556    4.9512 H   0  0  0  0  0  0  0  0  0  0  0  0
   -2.6884   -0.2732    5.5069 H   0  0  0  0  0  0  0  0  0  0  0  0
   -4.1968   -0.8426    4.7496 H   0  0  0  0  0  0  0  0  0  0  0  0
   -2.7811    0.7702    2.9055 N   0  0  0  0  0  0  0  0  0  0  0  0
   -2.2328    1.2482    1.6284 C   0  0  2  0  0  0  0  0  0  0  0  0
   -0.6878    1.1785    1.5710 C   0  0  0  0  0  0  0  0  0  0  0  0
   -0.0276    1.5331    2.5404 O   0  0  0  0  0  0  0  0  0  0  0  0
   -2.7101    2.6861    1.4137 C   0  0  0  0  0  0  0  0  0  0  0  0
   -3.2116    1.4366    3.5399 H   0  0  0  0  0  0  0  0  0  0  0  0
   -2.6337    0.6247    0.8214 H   0  0  0  0  0  0  0  0  0  0  0  0
   -2.3308    3.3400    2.2056 H   0  0  0  0  0  0  0  0  0  0  0  0
   -2.3547    3.0644    0.4502 H   0  0  0  0  0  0  0  0  0  0  0  0
   -3.8039    2.7295    1.4171 H   0  0  0  0  0  0  0  0  0  0  0  0
   -0.0886    0.6508    0.4377 N   0  0  0  0  0  0  0  0  0  0  0  0
    1.2554    0.0408    0.2972 C   0  0  2  0  0  0  0  0  0  0  0  0
    1.1519   -1.4896    0.1836 C   0  0  0  0  0  0  0  0  0  0  0  0
    1.8962   -2.0527   -0.6073 O   0  0  0  0  0  0  0  0  0  0  0  0
    2.3909    0.4254    1.2701 C   0  0  0  0  0  0  0  0  0  0  0  0
    2.7820    1.8804    1.1558 C   0  0  0  0  0  0  0  0  0  0  0  0
    3.5315    2.4337    0.1166 N   0  3  0  0  0  0  0  0  0  0  0  0
    2.5711    2.8724    2.0787 C   0  0  0  0  0  0  0  0  0  0  0  0
    3.7578    3.7052    0.3432 C   0  0  0  0  0  0  0  0  0  0  0  0
    3.1661    4.0169    1.5653 N   0  0  0  0  0  0  0  0  0  0  0  0
   -0.7801    0.2737   -0.2229 H   0  0  0  0  0  0  0  0  0  0  0  0
    1.6002    0.3670   -0.6890 H   0  0  0  0  0  0  0  0  0  0  0  0
    3.2719   -0.1912    1.0589 H   0  0  0  0  0  0  0  0  0  0  0  0
    2.0863    0.1931    2.2960 H   0  0  0  0  0  0  0  0  0  0  0  0
    3.8384    1.8910   -0.6953 H   0  0  0  0  0  0  0  0  0  0  0  0
    2.0315    2.7629    3.0211 H   0  0  0  0  0  0  0  0  0  0  0  0
    4.3100    4.3901   -0.3028 H   0  0  0  0  0  0  0  0  0  0  0  0
    3.1717    4.9348    2.0190 H   0  0  0  0  0  0  0  0  0  0  0  0
    0.1254   -2.1873    0.7922 N   0  0  0  0  0  0  0  0  0  0  0  0
   -0.6128   -3.1908    0.0137 C   0  0  2  0  0  0  0  0  0  0  0  0
   -1.6982   -2.5243   -0.8701 C   0  0  0  0  0  0  0  0  0  0  0  0
   -1.8449   -1.3007   -0.8787 O   0  0  0  0  0  0  0  0  0  0  0  0
   -1.2241   -4.1984    0.9921 C   0  0  0  0  0  0  0  0  0  0  0  0
   -0.4602   -1.6290    1.4215 H   0  0  0  0  0  0  0  0  0  0  0  0
    0.0696   -3.7356   -0.6475 H   0  0  0  0  0  0  0  0  0  0  0  0
   -1.9788   -3.7184    1.6221 H   0  0  0  0  0  0  0  0  0  0  0  0
   -1.6991   -5.0218    0.4507 H   0  0  0  0  0  0  0  0  0  0  0  0
   -0.4465   -4.6163    1.6394 H   0  0  0  0  0  0  0  0  0  0  0  0
   -2.4859   -3.2934   -1.7057 N   0  0  0  0  0  0  0  0  0  0  0  0
   -3.5148   -2.7397   -2.5785 C   0  0  0  0  0  0  0  0  0  0  0  0
   -2.3327   -4.2982   -1.7039 H   0  0  0  0  0  0  0  0  0  0  0  0
   -4.2872   -2.2351   -1.9885 H   0  0  0  0  0  0  0  0  0  0  0  0
   -3.0788   -2.0189   -3.2782 H   0  0  0  0  0  0  0  0  0  0  0  0
   -3.9894   -3.5376   -3.1580 H   0  0  0  0  0  0  0  0  0  0  0  0
  1  2  2  0  0  0  0
  1  3  1  0  0  0  0
  1  7  1  0  0  0  0
  3  4  1  0  0  0  0
  3  5  1  0  0  0  0
  3  6  1  0  0  0  0
  7  8  1  0  0  0  0
  7 12  1  0  0  0  0
  8  9  1  0  0  0  0
  8 11  1  0  0  0  0
  8 13  1  0  0  0  0
  9 10  2  0  0  0  0
  9 17  1  0  0  0  0
 11 14  1  0  0  0  0
 11 15  1  0  0  0  0
 11 16  1  0  0  0  0
 17 18  1  0  0  0  0
 17 27  1  0  0  0  0
 18 19  1  0  0  0  0
 18 21  1  0  0  0  0
 18 28  1  0  0  0  0
 19 20  2  0  0  0  0
 19 35  1  0  0  0  0
 21 22  1  0  0  0  0
 21 29  1  0  0  0  0
 21 30  1  0  0  0  0
 22 23  1  0  0  0  0
 22 24  2  0  0  0  0
 23 25  2  0  0  0  0
 23 31  1  0  0  0  0
 24 26  1  0  0  0  0
 24 32  1  0  0  0  0
 25 26  1  0  0  0  0
 25 33  1  0  0  0  0
 26 34  1  0  0  0  0
 35 36  1  0  0  0  0
 35 40  1  0  0  0  0
 36 37  1  0  0  0  0
 36 39  1  0  0  0  0
 36 41  1  0  0  0  0
 37 38  2  0  0  0  0
 37 45  1  0  0  0  0
 39 42  1  0  0  0  0
 39 43  1  0  0  0  0
 39 44  1  0  0  0  0
 45 46  1  0  0  0  0
 45 47  1  0  0  0  0
 46 48  1  0  0  0  0
 46 49  1  0  0  0  0
 46 50  1  0  0  0  0
M  CHG  1  23   1
M  END
$$$$

  -OEChem-05262216443D

 50 50  0     1  0  0  0  0  0999 V2000
   -2.8043   -0.4327    3.1903 C   0  0  0  0  0  0  0  0  0  0  0  0
   -2.2610   -1.2353    2.4449 O   0  0  0  0  0  0  0  0  0  0  0  0
   -3.4002   -0.8909    4.5071 C   0  0  0  0  0  0  0  0  0  0  0  0
   -3.2949   -1.9744    4.6118 H   0  0  0  0  0  0  0  0  0  0  0  0
   -2.8857   -0.4055    5.3400 H   0  0  0  0  0  0  0  0  0  0  0  0
   -4.4623   -0.6369    4.5456 H   0  0  0  0  0  0  0  0  0  0  0  0
   -2.8389    0.9004    2.8359 N   0  0  0  0  0  0  0  0  0  0  0  0
   -2.2027    1.4121    1.6146 C   0  0  2  0  0  0  0  0  0  0  0  0
   -0.6687    1.2128    1.6143 C   0  0  0  0  0  0  0  0  0  0  0  0
   -0.0111    1.5466    2.5928 O   0  0  0  0  0  0  0  0  0  0  0  0
   -2.5544    2.8953    1.4791 C   0  0  0  0  0  0  0  0  0  0  0  0
   -3.1796    1.5601    3.5294 H   0  0  0  0  0  0  0  0  0  0  0  0
   -2.6175    0.8780    0.7516 H   0  0  0  0  0  0  0  0  0  0  0  0
   -2.1676    3.4626    2.3319 H   0  0  0  0  0  0  0  0  0  0  0  0
   -2.1210    3.3063    0.5620 H   0  0  0  0  0  0  0  0  0  0  0  0
   -3.6402    3.0264    1.4348 H   0  0  0  0  0  0  0  0  0  0  0  0
   -0.0841    0.5970    0.5193 N   0  0  0  0  0  0  0  0  0  0  0  0
    1.2445   -0.0480    0.3936 C   0  0  2  0  0  0  0  0  0  0  0  0
    1.1212   -1.5830    0.3808 C   0  0  0  0  0  0  0  0  0  0  0  0
    1.9660   -2.2111   -0.2424 O   0  0  0  0  0  0  0  0  0  0  0  0
    2.3915    0.3816    1.3346 C   0  0  0  0  0  0  0  0  0  0  0  0
    2.7951    1.8219    1.1265 C   0  0  0  0  0  0  0  0  0  0  0  0
    3.5416    2.3046    0.0509 N   0  3  0  0  0  0  0  0  0  0  0  0
    2.5919    2.8705    1.9861 C   0  0  0  0  0  0  0  0  0  0  0  0
    3.7765    3.5864    0.1971 C   0  0  0  0  0  0  0  0  0  0  0  0
    3.1909    3.9773    1.3994 N   0  0  0  0  0  0  0  0  0  0  0  0
   -0.7769    0.2525   -0.1581 H   0  0  0  0  0  0  0  0  0  0  0  0
    1.5814    0.2083   -0.6156 H   0  0  0  0  0  0  0  0  0  0  0  0
    3.2657   -0.2548    1.1557 H   0  0  0  0  0  0  0  0  0  0  0  0
    2.0944    0.2152    2.3751 H   0  0  0  0  0  0  0  0  0  0  0  0
    3.8445    1.7096   -0.7252 H   0  0  0  0  0  0  0  0  0  0  0  0
    2.0555    2.8224    2.9355 H   0  0  0  0  0  0  0  0  0  0  0  0
    4.3311    4.2262   -0.4916 H   0  0  0  0  0  0  0  0  0  0  0  0
    3.2045    4.9216    1.7953 H   0  0  0  0  0  0  0  0  0  0  0  0
   -0.0456   -2.2057    0.7823 N   0  0  0  0  0  0  0  0  0  0  0  0
   -0.7144   -3.1507   -0.1202 C   0  0  2  0  0  0  0  0  0  0  0  0
   -1.6566   -2.4081   -1.1014 C   0  0  0  0  0  0  0  0  0  0  0  0
   -1.7473   -1.1793   -1.0819 O   0  0  0  0  0  0  0  0  0  0  0  0
   -1.4803   -4.1602    0.7400 C   0  0  0  0  0  0  0  0  0  0  0  0
   -0.6895   -1.6060    1.3074 H   0  0  0  0  0  0  0  0  0  0  0  0
    0.0235   -3.7008   -0.7141 H   0  0  0  0  0  0  0  0  0  0  0  0
   -2.2797   -3.6645    1.2993 H   0  0  0  0  0  0  0  0  0  0  0  0
   -1.9261   -4.9401    0.1158 H   0  0  0  0  0  0  0  0  0  0  0  0
   -0.8020   -4.6384    1.4540 H   0  0  0  0  0  0  0  0  0  0  0  0
   -2.3705   -3.1121   -2.0526 N   0  0  0  0  0  0  0  0  0  0  0  0
   -3.2689   -2.4837   -3.0143 C   0  0  0  0  0  0  0  0  0  0  0  0
   -2.2738   -4.1238   -2.0605 H   0  0  0  0  0  0  0  0  0  0  0  0
   -4.0899   -1.9759   -2.4969 H   0  0  0  0  0  0  0  0  0  0  0  0
   -2.7286   -1.7511   -3.6231 H   0  0  0  0  0  0  0  0  0  0  0  0
   -3.6959   -3.2378   -3.6826 H   0  0  0  0  0  0  0  0  0  0  0  0
  1  2  2  0  0  0  0
  1  3  1  0  0  0  0
  1  7  1  0  0  0  0
  3  4  1  0  0  0  0
  3  5  1  0  0  0  0
  3  6  1  0  0  0  0
  7  8  1  0  0  0  0
  7 12  1  0  0  0  0
  8  9  1  0  0  0  0
  8 11  1  0  0  0  0
  8 13  1  0  0  0  0
  9 10  2  0  0  0  0
  9 17  1  0  0  0  0
 11 14  1  0  0  0  0
 11 15  1  0  0  0  0
 11 16  1  0  0  0  0
 17 18  1  0  0  0  0
 17 27  1  0  0  0  0
 18 19  1  0  0  0  0
 18 21  1  0  0  0  0
 18 28  1  0  0  0  0
 19 20  2  0  0  0  0
 19 35  1  0  0  0  0
 21 22  1  0  0  0  0
 21 29  1  0  0  0  0
 21 30  1  0  0  0  0
 22 23  1  0  0  0  0
 22 24  2  0  0  0  0
 23 25  2  0  0  0  0
 23 31  1  0  0  0  0
 24 26  1  0  0  0  0
 24 32  1  0  0  0  0
 25 26  1  0  0  0  0
 25 33  1  0  0  0  0
 26 34  1  0  0  0  0
 35 36  1  0  0  0  0
 35 40  1  0  0  0  0
 36 37  1  0  0  0  0
 36 39  1  0  0  0  0
 36 41  1  0  0  0  0
 37 38  2  0  0  0  0
 37 45  1  0  0  0  0
 39 42  1  0  0  0  0
 39 43  1  0  0  0  0
 39 44  1  0  0  0  0
 45 46  1  0  0  0  0
 45 47  1  0  0  0  0
 46 48  1  0  0  0  0
 46 49  1  0  0  0  0
 46 50  1  0  0  0  0
M  CHG  1  23   1
M  END
$$$$

  -OEChem-05262216443D

 50 50  0     1  0  0  0  0  0999 V2000
   -3.0102   -0.3461    2.9310 C   0  0  0  0  0  0  0  0  0  0  0  0
   -2.5301   -1.1042    2.1004 O   0  0  0  0  0  0  0  0  0  0  0  0
   -3.7084   -0.8954    4.1594 C   0  0  0  0  0  0  0  0  0  0  0  0
   -3.7027   -1.9888    4.1391 H   0  0  0  0  0  0  0  0  0  0  0  0
   -3.1961   -0.5578    5.0635 H   0  0  0  0  0  0  0  0  0  0  0  0
   -4.7449   -0.5503    4.1854 H   0  0  0  0  0  0  0  0  0  0  0  0
   -2.8760    1.0158    2.7566 N   0  0  0  0  0  0  0  0  0  0  0  0
   -2.1399    1.6016    1.6286 C   0  0  2  0  0  0  0  0  0  0  0  0
   -0.6305    1.2685    1.6741 C   0  0  0  0  0  0  0  0  0  0  0  0
    0.0336    1.5811    2.6550 O   0  0  0  0  0  0  0  0  0  0  0  0
   -2.3693    3.1150    1.6410 C   0  0  0  0  0  0  0  0  0  0  0  0
   -3.1650    1.6162    3.5240 H   0  0  0  0  0  0  0  0  0  0  0  0
   -2.5495    1.2019    0.6935 H   0  0  0  0  0  0  0  0  0  0  0  0
   -1.9866    3.5571    2.5666 H   0  0  0  0  0  0  0  0  0  0  0  0
   -1.8574    3.5830    0.7945 H   0  0  0  0  0  0  0  0  0  0  0  0
   -3.4381    3.3379    1.5629 H   0  0  0  0  0  0  0  0  0  0  0  0
   -0.0800    0.5671    0.6135 N   0  0  0  0  0  0  0  0  0  0  0  0
    1.2250   -0.1242    0.4904 C   0  0  2  0  0  0  0  0  0  0  0  0
    1.0650   -1.6555    0.5741 C   0  0  0  0  0  0  0  0  0  0  0  0
    1.9760   -2.3404    0.1289 O   0  0  0  0  0  0  0  0  0  0  0  0
    2.3958    0.3359    1.3884 C   0  0  0  0  0  0  0  0  0  0  0  0
    2.8211    1.7530    1.0898 C   0  0  0  0  0  0  0  0  0  0  0  0
    3.5578    2.1605   -0.0225 N   0  3  0  0  0  0  0  0  0  0  0  0
    2.6451    2.8517    1.8905 C   0  0  0  0  0  0  0  0  0  0  0  0
    3.8161    3.4441    0.0481 C   0  0  0  0  0  0  0  0  0  0  0  0
    3.2544    3.9128    1.2342 N   0  0  0  0  0  0  0  0  0  0  0  0
   -0.7745    0.2711   -0.0849 H   0  0  0  0  0  0  0  0  0  0  0  0
    1.5457    0.0609   -0.5394 H   0  0  0  0  0  0  0  0  0  0  0  0
    3.2573   -0.3233    1.2327 H   0  0  0  0  0  0  0  0  0  0  0  0
    2.1157    0.2333    2.4418 H   0  0  0  0  0  0  0  0  0  0  0  0
    3.8401    1.5163   -0.7664 H   0  0  0  0  0  0  0  0  0  0  0  0
    2.1217    2.8664    2.8481 H   0  0  0  0  0  0  0  0  0  0  0  0
    4.3711    4.0343   -0.6831 H   0  0  0  0  0  0  0  0  0  0  0  0
    3.2928    4.8770    1.5772 H   0  0  0  0  0  0  0  0  0  0  0  0
   -0.1852   -2.2174    0.7473 N   0  0  0  0  0  0  0  0  0  0  0  0
   -0.7431   -3.1102   -0.2744 C   0  0  2  0  0  0  0  0  0  0  0  0
   -1.5349   -2.3050   -1.3355 C   0  0  0  0  0  0  0  0  0  0  0  0
   -1.5520   -1.0735   -1.3061 O   0  0  0  0  0  0  0  0  0  0  0  0
   -1.6330   -4.1292    0.4428 C   0  0  0  0  0  0  0  0  0  0  0  0
   -0.8759   -1.5809    1.1571 H   0  0  0  0  0  0  0  0  0  0  0  0
    0.0553   -3.6536   -0.7915 H   0  0  0  0  0  0  0  0  0  0  0  0
   -2.4697   -3.6274    0.9390 H   0  0  0  0  0  0  0  0  0  0  0  0
   -2.0351   -4.8600   -0.2647 H   0  0  0  0  0  0  0  0  0  0  0  0
   -1.0535   -4.6678    1.1993 H   0  0  0  0  0  0  0  0  0  0  0  0
   -2.1963   -2.9544   -2.3610 N   0  0  0  0  0  0  0  0  0  0  0  0
   -2.9647   -2.2620   -3.3896 C   0  0  0  0  0  0  0  0  0  0  0  0
   -2.1698   -3.9705   -2.3696 H   0  0  0  0  0  0  0  0  0  0  0  0
   -3.7507   -1.6495   -2.9351 H   0  0  0  0  0  0  0  0  0  0  0  0
   -2.3123   -1.6142   -3.9844 H   0  0  0  0  0  0  0  0  0  0  0  0
   -3.4379   -2.9854   -4.0610 H   0  0  0  0  0  0  0  0  0  0  0  0
  1  2  2  0  0  0  0
  1  3  1  0  0  0  0
  1  7  1  0  0  0  0
  3  4  1  0  0  0  0
  3  5  1  0  0  0  0
  3  6  1  0  0  0  0
  7  8  1  0  0  0  0
  7 12  1  0  0  0  0
  8  9  1  0  0  0  0
  8 11  1  0  0  0  0
  8 13  1  0  0  0  0
  9 10  2  0  0  0  0
  9 17  1  0  0  0  0
 11 14  1  0  0  0  0
 11 15  1  0  0  0  0
 11 16  1  0  0  0  0
 17 18  1  0  0  0  0
 17 27  1  0  0  0  0
 18 19  1  0  0  0  0
 18 21  1  0  0  0  0
 18 28  1  0  0  0  0
 19 20  2  0  0  0  0
 19 35  1  0  0  0  0
 21 22  1  0  0  0  0
 21 29  1  0  0  0  0
 21 30  1  0  0  0  0
 22 23  1  0  0  0  0
 22 24  2  0  0  0  0
 23 25  2  0  0  0  0
 23 31  1  0  0  0  0
 24 26  1  0  0  0  0
 24 32  1  0  0  0  0
 25 26  1  0  0  0  0
 25 33  1  0  0  0  0
 26 34  1  0  0  0  0
 35 36  1  0  0  0  0
 35 40  1  0  0  0  0
 36 37  1  0  0  0  0
 36 39  1  0  0  0  0
 36 41  1  0  0  0  0
 37 38  2  0  0  0  0
 37 45  1  0  0  0  0
 39 42  1  0  0  0  0
 39 43  1  0  0  0  0
 39 44  1  0  0  0  0
 45 46  1  0  0  0  0
 45 47  1  0  0  0  0
 46 48  1  0  0  0  0
 46 49  1  0  0  0  0
 46 50  1  0  0  0  0
M  CHG  1  23   1
M  END
$$$$

  -OEChem-05262216443D

 50 50  0     1  0  0  0  0  0999 V2000
   -3.2436    0.1631    2.1986 C   0  0  0  0  0  0  0  0  0  0  0  0
   -2.9162    0.1643    1.0201 O   0  0  0  0  0  0  0  0  0  0  0  0
   -4.2572   -0.8404    2.7120 C   0  0  0  0  0  0  0  0  0  0  0  0
   -4.7608   -1.3306    1.8739 H   0  0  0  0  0  0  0  0  0  0  0  0
   -3.7569   -1.5999    3.3180 H   0  0  0  0  0  0  0  0  0  0  0  0
   -5.0096   -0.3345    3.3221 H   0  0  0  0  0  0  0  0  0  0  0  0
   -2.6328    1.0454    3.0656 N   0  0  0  0  0  0  0  0  0  0  0  0
   -1.6966    2.0998    2.6467 C   0  0  2  0  0  0  0  0  0  0  0  0
   -0.3158    1.5409    2.2181 C   0  0  0  0  0  0  0  0  0  0  0  0
    0.6332    1.5709    2.9906 O   0  0  0  0  0  0  0  0  0  0  0  0
   -1.5956    3.1022    3.8038 C   0  0  0  0  0  0  0  0  0  0  0  0
   -2.8922    0.9868    4.0475 H   0  0  0  0  0  0  0  0  0  0  0  0
   -2.1149    2.6319    1.7851 H   0  0  0  0  0  0  0  0  0  0  0  0
   -1.2126    2.6154    4.7067 H   0  0  0  0  0  0  0  0  0  0  0  0
   -0.9196    3.9213    3.5396 H   0  0  0  0  0  0  0  0  0  0  0  0
   -2.5795    3.5264    4.0273 H   0  0  0  0  0  0  0  0  0  0  0  0
   -0.2017    0.9964    0.9467 N   0  0  0  0  0  0  0  0  0  0  0  0
    0.9061    0.2227    0.3319 C   0  0  2  0  0  0  0  0  0  0  0  0
    0.5712   -1.2842    0.2350 C   0  0  0  0  0  0  0  0  0  0  0  0
    1.4450   -2.0757   -0.0969 O   0  0  0  0  0  0  0  0  0  0  0  0
    2.3379    0.4469    0.8821 C   0  0  0  0  0  0  0  0  0  0  0  0
    2.8211    1.8573    0.6474 C   0  0  0  0  0  0  0  0  0  0  0  0
    3.2452    2.3823   -0.5738 N   0  3  0  0  0  0  0  0  0  0  0  0
    3.0130    2.8244    1.5995 C   0  0  0  0  0  0  0  0  0  0  0  0
    3.6615    3.6161   -0.4183 C   0  0  0  0  0  0  0  0  0  0  0  0
    3.5254    3.9295    0.9329 N   0  0  0  0  0  0  0  0  0  0  0  0
   -1.1039    0.9383    0.4636 H   0  0  0  0  0  0  0  0  0  0  0  0
    0.9363    0.5496   -0.7120 H   0  0  0  0  0  0  0  0  0  0  0  0
    3.0390   -0.2320    0.3852 H   0  0  0  0  0  0  0  0  0  0  0  0
    2.3728    0.1926    1.9458 H   0  0  0  0  0  0  0  0  0  0  0  0
    3.2253    1.8453   -1.4453 H   0  0  0  0  0  0  0  0  0  0  0  0
    2.7970    2.7221    2.6646 H   0  0  0  0  0  0  0  0  0  0  0  0
    4.0487    4.2722   -1.2000 H   0  0  0  0  0  0  0  0  0  0  0  0
    3.7777    4.8199    1.3713 H   0  0  0  0  0  0  0  0  0  0  0  0
   -0.7257   -1.7405    0.3940 N   0  0  0  0  0  0  0  0  0  0  0  0
   -1.1716   -2.9730   -0.2702 C   0  0  2  0  0  0  0  0  0  0  0  0
   -1.3897   -2.7662   -1.7885 C   0  0  0  0  0  0  0  0  0  0  0  0
   -1.4259   -1.6361   -2.2660 O   0  0  0  0  0  0  0  0  0  0  0  0
   -2.4710   -3.4200    0.4033 C   0  0  0  0  0  0  0  0  0  0  0  0
   -1.4306   -1.0064    0.4847 H   0  0  0  0  0  0  0  0  0  0  0  0
   -0.4219   -3.7607   -0.1373 H   0  0  0  0  0  0  0  0  0  0  0  0
   -3.2568   -2.6738    0.2488 H   0  0  0  0  0  0  0  0  0  0  0  0
   -2.8114   -4.3725   -0.0143 H   0  0  0  0  0  0  0  0  0  0  0  0
   -2.3168   -3.5500    1.4791 H   0  0  0  0  0  0  0  0  0  0  0  0
   -1.5483   -3.8544   -2.6266 N   0  0  0  0  0  0  0  0  0  0  0  0
   -1.7299   -3.7337   -4.0689 C   0  0  0  0  0  0  0  0  0  0  0  0
   -1.4633   -4.7810   -2.2190 H   0  0  0  0  0  0  0  0  0  0  0  0
   -2.6090   -3.1207   -4.2958 H   0  0  0  0  0  0  0  0  0  0  0  0
   -0.8499   -3.2715   -4.5285 H   0  0  0  0  0  0  0  0  0  0  0  0
   -1.8752   -4.7216   -4.5169 H   0  0  0  0  0  0  0  0  0  0  0  0
  1  2  2  0  0  0  0
  1  3  1  0  0  0  0
  1  7  1  0  0  0  0
  3  4  1  0  0  0  0
  3  5  1  0  0  0  0
  3  6  1  0  0  0  0
  7  8  1  0  0  0  0
  7 12  1  0  0  0  0
  8  9  1  0  0  0  0
  8 11  1  0  0  0  0
  8 13  1  0  0  0  0
  9 10  2  0  0  0  0
  9 17  1  0  0  0  0
 11 14  1  0  0  0  0
 11 15  1  0  0  0  0
 11 16  1  0  0  0  0
 17 18  1  0  0  0  0
 17 27  1  0  0  0  0
 18 19  1  0  0  0  0
 18 21  1  0  0  0  0
 18 28  1  0  0  0  0
 19 20  2  0  0  0  0
 19 35  1  0  0  0  0
 21 22  1  0  0  0  0
 21 29  1  0  0  0  0
 21 30  1  0  0  0  0
 22 23  1  0  0  0  0
 22 24  2  0  0  0  0
 23 25  2  0  0  0  0
 23 31  1  0  0  0  0
 24 26  1  0  0  0  0
 24 32  1  0  0  0  0
 25 26  1  0  0  0  0
 25 33  1  0  0  0  0
 26 34  1  0  0  0  0
 35 36  1  0  0  0  0
 35 40  1  0  0  0  0
 36 37  1  0  0  0  0
 36 39  1  0  0  0  0
 36 41  1  0  0  0  0
 37 38  2  0  0  0  0
 37 45  1  0  0  0  0
 39 42  1  0  0  0  0
 39 43  1  0  0  0  0
 39 44  1  0  0  0  0
 45 46  1  0  0  0  0
 45 47  1  0  0  0  0
 46 48  1  0  0  0  0
 46 49  1  0  0  0  0
 46 50  1  0  0  0  0
M  CHG  1  23   1
M  END
$$$$

  -OEChem-05262216443D

 50 50  0     1  0  0  0  0  0999 V2000
   -3.2354    0.2027    2.1314 C   0  0  0  0  0  0  0  0  0  0  0  0
   -2.9246    0.2542    0.9487 O   0  0  0  0  0  0  0  0  0  0  0  0
   -4.2152   -0.8470    2.6179 C   0  0  0  0  0  0  0  0  0  0  0  0
   -4.6916   -1.3420    1.7671 H   0  0  0  0  0  0  0  0  0  0  0  0
   -3.6919   -1.5971    3.2160 H   0  0  0  0  0  0  0  0  0  0  0  0
   -4.9921   -0.3815    3.2295 H   0  0  0  0  0  0  0  0  0  0  0  0
   -2.6324    1.0617    3.0285 N   0  0  0  0  0  0  0  0  0  0  0  0
   -1.7027    2.1396    2.6543 C   0  0  2  0  0  0  0  0  0  0  0  0
   -0.3071    1.6068    2.2392 C   0  0  0  0  0  0  0  0  0  0  0  0
    0.6535    1.7033    2.9915 O   0  0  0  0  0  0  0  0  0  0  0  0
   -1.6394    3.1161    3.8359 C   0  0  0  0  0  0  0  0  0  0  0  0
   -2.8810    0.9558    4.0094 H   0  0  0  0  0  0  0  0  0  0  0  0
   -2.1113    2.6852    1.7963 H   0  0  0  0  0  0  0  0  0  0  0  0
   -1.2493    2.6187    4.7302 H   0  0  0  0  0  0  0  0  0  0  0  0
   -0.9848    3.9602    3.5970 H   0  0  0  0  0  0  0  0  0  0  0  0
   -2.6365    3.5078    4.0612 H   0  0  0  0  0  0  0  0  0  0  0  0
   -0.2048    0.9854    1.0043 N   0  0  0  0  0  0  0  0  0  0  0  0
    0.8884    0.1728    0.4187 C   0  0  2  0  0  0  0  0  0  0  0  0
    0.5294   -1.3315    0.4236 C   0  0  0  0  0  0  0  0  0  0  0  0
    1.4116   -2.1734    0.3126 O   0  0  0  0  0  0  0  0  0  0  0  0
    2.3299    0.4260    0.9279 C   0  0  0  0  0  0  0  0  0  0  0  0
    2.8067    1.8184    0.5959 C   0  0  0  0  0  0  0  0  0  0  0  0
    3.2062    2.2639   -0.6644 N   0  3  0  0  0  0  0  0  0  0  0  0
    3.0174    2.8439    1.4803 C   0  0  0  0  0  0  0  0  0  0  0  0
    3.6203    3.5061   -0.5971 C   0  0  0  0  0  0  0  0  0  0  0  0
    3.5132    3.9048    0.7339 N   0  0  0  0  0  0  0  0  0  0  0  0
   -1.1115    0.9122    0.5327 H   0  0  0  0  0  0  0  0  0  0  0  0
    0.9025    0.4321   -0.6444 H   0  0  0  0  0  0  0  0  0  0  0  0
    3.0214   -0.2845    0.4619 H   0  0  0  0  0  0  0  0  0  0  0  0
    2.3822    0.2404    2.0050 H   0  0  0  0  0  0  0  0  0  0  0  0
    3.1649    1.6738   -1.5002 H   0  0  0  0  0  0  0  0  0  0  0  0
    2.8238    2.8100    2.5540 H   0  0  0  0  0  0  0  0  0  0  0  0
    3.9851    4.1123   -1.4279 H   0  0  0  0  0  0  0  0  0  0  0  0
    3.7711    4.8222    1.1088 H   0  0  0  0  0  0  0  0  0  0  0  0
   -0.7927   -1.7289    0.3245 N   0  0  0  0  0  0  0  0  0  0  0  0
   -1.1541   -2.9272   -0.4443 C   0  0  2  0  0  0  0  0  0  0  0  0
   -1.0611   -2.6801   -1.9703 C   0  0  0  0  0  0  0  0  0  0  0  0
   -0.8912   -1.5455   -2.4092 O   0  0  0  0  0  0  0  0  0  0  0  0
   -2.5783   -3.3174   -0.0418 C   0  0  0  0  0  0  0  0  0  0  0  0
   -1.4685   -0.9641    0.2907 H   0  0  0  0  0  0  0  0  0  0  0  0
   -0.4811   -3.7536   -0.1906 H   0  0  0  0  0  0  0  0  0  0  0  0
   -3.2824   -2.5201   -0.3022 H   0  0  0  0  0  0  0  0  0  0  0  0
   -2.8861   -4.2336   -0.5549 H   0  0  0  0  0  0  0  0  0  0  0  0
   -2.6317   -3.4929    1.0372 H   0  0  0  0  0  0  0  0  0  0  0  0
   -1.1643   -3.7338   -2.8599 N   0  0  0  0  0  0  0  0  0  0  0  0
   -1.0717   -3.5736   -4.3071 C   0  0  0  0  0  0  0  0  0  0  0  0
   -1.2599   -4.6694   -2.4757 H   0  0  0  0  0  0  0  0  0  0  0  0
   -1.8335   -2.8732   -4.6660 H   0  0  0  0  0  0  0  0  0  0  0  0
   -0.0839   -3.1941   -4.5887 H   0  0  0  0  0  0  0  0  0  0  0  0
   -1.2274   -4.5351   -4.8062 H   0  0  0  0  0  0  0  0  0  0  0  0
  1  2  2  0  0  0  0
  1  3  1  0  0  0  0
  1  7  1  0  0  0  0
  3  4  1  0  0  0  0
  3  5  1  0  0  0  0
  3  6  1  0  0  0  0
  7  8  1  0  0  0  0
  7 12  1  0  0  0  0
  8  9  1  0  0  0  0
  8 11  1  0  0  0  0
  8 13  1  0  0  0  0
  9 10  2  0  0  0  0
  9 17  1  0  0  0  0
 11 14  1  0  0  0  0
 11 15  1  0  0  0  0
 11 16  1  0  0  0  0
 17 18  1  0  0  0  0
 17 27  1  0  0  0  0
 18 19  1  0  0  0  0
 18 21  1  0  0  0  0
 18 28  1  0  0  0  0
 19 20  2  0  0  0  0
 19 35  1  0  0  0  0
 21 22  1  0  0  0  0
 21 29  1  0  0  0  0
 21 30  1  0  0  0  0
 22 23  1  0  0  0  0
 22 24  2  0  0  0  0
 23 25  2  0  0  0  0
 23 31  1  0  0  0  0
 24 26  1  0  0  0  0
 24 32  1  0  0  0  0
 25 26  1  0  0  0  0
 25 33  1  0  0  0  0
 26 34  1  0  0  0  0
 35 36  1  0  0  0  0
 35 40  1  0  0  0  0
 36 37  1  0  0  0  0
 36 39  1  0  0  0  0
 36 41  1  0  0  0  0
 37 38  2  0  0  0  0
 37 45  1  0  0  0  0
 39 42  1  0  0  0  0
 39 43  1  0  0  0  0
 39 44  1  0  0  0  0
 45 46  1  0  0  0  0
 45 47  1  0  0  0  0
 46 48  1  0  0  0  0
 46 49  1  0  0  0  0
 46 50  1  0  0  0  0
M  CHG  1  23   1
M  END
$$$$

  -OEChem-05262216443D

 50 50  0     1  0  0  0  0  0999 V2000
   -3.2374    0.3175    2.0560 C   0  0  0  0  0  0  0  0  0  0  0  0
   -2.9541    0.4709    0.8746 O   0  0  0  0  0  0  0  0  0  0  0  0
   -4.2116   -0.7688    2.4676 C   0  0  0  0  0  0  0  0  0  0  0  0
   -4.6414   -1.2457    1.5821 H   0  0  0  0  0  0  0  0  0  0  0  0
   -3.6970   -1.5285    3.0614 H   0  0  0  0  0  0  0  0  0  0  0  0
   -5.0222   -0.3391    3.0616 H   0  0  0  0  0  0  0  0  0  0  0  0
   -2.6092    1.0886    3.0153 N   0  0  0  0  0  0  0  0  0  0  0  0
   -1.6690    2.1872    2.7305 C   0  0  2  0  0  0  0  0  0  0  0  0
   -0.2770    1.6776    2.2763 C   0  0  0  0  0  0  0  0  0  0  0  0
    0.7099    1.7942    2.9905 O   0  0  0  0  0  0  0  0  0  0  0  0
   -1.6008    3.0649    3.9868 C   0  0  0  0  0  0  0  0  0  0  0  0
   -2.8346    0.8878    3.9871 H   0  0  0  0  0  0  0  0  0  0  0  0
   -2.0706    2.8029    1.9178 H   0  0  0  0  0  0  0  0  0  0  0  0
   -1.2112    2.4948    4.8367 H   0  0  0  0  0  0  0  0  0  0  0  0
   -0.9430    3.9230    3.8159 H   0  0  0  0  0  0  0  0  0  0  0  0
   -2.5957    3.4417    4.2448 H   0  0  0  0  0  0  0  0  0  0  0  0
   -0.2215    1.0278    1.0556 N   0  0  0  0  0  0  0  0  0  0  0  0
    0.8273    0.1727    0.4575 C   0  0  2  0  0  0  0  0  0  0  0  0
    0.4010   -1.3112    0.5152 C   0  0  0  0  0  0  0  0  0  0  0  0
    1.2374   -2.1972    0.6358 O   0  0  0  0  0  0  0  0  0  0  0  0
    2.2896    0.3872    0.9172 C   0  0  0  0  0  0  0  0  0  0  0  0
    2.7995    1.7564    0.5420 C   0  0  0  0  0  0  0  0  0  0  0  0
    3.1722    2.1604   -0.7401 N   0  3  0  0  0  0  0  0  0  0  0  0
    3.0733    2.7923    1.3964 C   0  0  0  0  0  0  0  0  0  0  0  0
    3.6301    3.3887   -0.7139 C   0  0  0  0  0  0  0  0  0  0  0  0
    3.5801    3.8191    0.6108 N   0  0  0  0  0  0  0  0  0  0  0  0
   -1.1455    0.9629    0.6179 H   0  0  0  0  0  0  0  0  0  0  0  0
    0.8210    0.4069   -0.6118 H   0  0  0  0  0  0  0  0  0  0  0  0
    2.9399   -0.3578    0.4455 H   0  0  0  0  0  0  0  0  0  0  0  0
    2.3668    0.2243    1.9971 H   0  0  0  0  0  0  0  0  0  0  0  0
    3.0790    1.5558   -1.5613 H   0  0  0  0  0  0  0  0  0  0  0  0
    2.9138    2.7875    2.4764 H   0  0  0  0  0  0  0  0  0  0  0  0
    3.9879    3.9639   -1.5695 H   0  0  0  0  0  0  0  0  0  0  0  0
    3.8797    4.7351    0.9564 H   0  0  0  0  0  0  0  0  0  0  0  0
   -0.8911   -1.6519    0.1558 N   0  0  0  0  0  0  0  0  0  0  0  0
   -1.1459   -2.8564   -0.6441 C   0  0  2  0  0  0  0  0  0  0  0  0
   -0.7213   -2.6623   -2.1209 C   0  0  0  0  0  0  0  0  0  0  0  0
   -0.4013   -1.5511   -2.5373 O   0  0  0  0  0  0  0  0  0  0  0  0
   -2.6418   -3.1653   -0.5397 C   0  0  0  0  0  0  0  0  0  0  0  0
   -1.5069   -0.8600   -0.0300 H   0  0  0  0  0  0  0  0  0  0  0  0
   -0.5847   -3.7046   -0.2368 H   0  0  0  0  0  0  0  0  0  0  0  0
   -3.2338   -2.3387   -0.9465 H   0  0  0  0  0  0  0  0  0  0  0  0
   -2.8875   -4.0750   -1.0959 H   0  0  0  0  0  0  0  0  0  0  0  0
   -2.9251   -3.3159    0.5067 H   0  0  0  0  0  0  0  0  0  0  0  0
   -0.6887   -3.7377   -2.9889 N   0  0  0  0  0  0  0  0  0  0  0  0
   -0.2872   -3.6284   -4.3870 C   0  0  0  0  0  0  0  0  0  0  0  0
   -0.9165   -4.6547   -2.6149 H   0  0  0  0  0  0  0  0  0  0  0  0
   -0.9253   -2.9114   -4.9147 H   0  0  0  0  0  0  0  0  0  0  0  0
    0.7535   -3.2961   -4.4629 H   0  0  0  0  0  0  0  0  0  0  0  0
   -0.3772   -4.5992   -4.8844 H   0  0  0  0  0  0  0  0  0  0  0  0
  1  2  2  0  0  0  0
  1  3  1  0  0  0  0
  1  7  1  0  0  0  0
  3  4  1  0  0  0  0
  3  5  1  0  0  0  0
  3  6  1  0  0  0  0
  7  8  1  0  0  0  0
  7 12  1  0  0  0  0
  8  9  1  0  0  0  0
  8 11  1  0  0  0  0
  8 13  1  0  0  0  0
  9 10  2  0  0  0  0
  9 17  1  0  0  0  0
 11 14  1  0  0  0  0
 11 15  1  0  0  0  0
 11 16  1  0  0  0  0
 17 18  1  0  0  0  0
 17 27  1  0  0  0  0
 18 19  1  0  0  0  0
 18 21  1  0  0  0  0
 18 28  1  0  0  0  0
 19 20  2  0  0  0  0
 19 35  1  0  0  0  0
 21 22  1  0  0  0  0
 21 29  1  0  0  0  0
 21 30  1  0  0  0  0
 22 23  1  0  0  0  0
 22 24  2  0  0  0  0
 23 25  2  0  0  0  0
 23 31  1  0  0  0  0
 24 26  1  0  0  0  0
 24 32  1  0  0  0  0
 25 26  1  0  0  0  0
 25 33  1  0  0  0  0
 26 34  1  0  0  0  0
 35 36  1  0  0  0  0
 35 40  1  0  0  0  0
 36 37  1  0  0  0  0
 36 39  1  0  0  0  0
 36 41  1  0  0  0  0
 37 38  2  0  0  0  0
 37 45  1  0  0  0  0
 39 42  1  0  0  0  0
 39 43  1  0  0  0  0
 39 44  1  0  0  0  0
 45 46  1  0  0  0  0
 45 47  1  0  0  0  0
 46 48  1  0  0  0  0
 46 49  1  0  0  0  0
 46 50  1  0  0  0  0
M  CHG  1  23   1
M  END
$$$$

  -OEChem-05262216443D

 50 50  0     1  0  0  0  0  0999 V2000
   -3.2743    0.4600    2.1257 C   0  0  0  0  0  0  0  0  0  0  0  0
   -3.0399    0.6958    0.9475 O   0  0  0  0  0  0  0  0  0  0  0  0
   -4.2710   -0.6183    2.5032 C   0  0  0  0  0  0  0  0  0  0  0  0
   -4.7493   -1.0225    1.6065 H   0  0  0  0  0  0  0  0  0  0  0  0
   -3.7621   -1.4309    3.0277 H   0  0  0  0  0  0  0  0  0  0  0  0
   -5.0440   -0.2019    3.1540 H   0  0  0  0  0  0  0  0  0  0  0  0
   -2.5725    1.1298    3.1098 N   0  0  0  0  0  0  0  0  0  0  0  0
   -1.6020    2.2122    2.8672 C   0  0  2  0  0  0  0  0  0  0  0  0
   -0.2454    1.6881    2.3286 C   0  0  0  0  0  0  0  0  0  0  0  0
    0.7813    1.7782    2.9886 O   0  0  0  0  0  0  0  0  0  0  0  0
   -1.4615    2.9957    4.1790 C   0  0  0  0  0  0  0  0  0  0  0  0
   -2.7673    0.8654    4.0728 H   0  0  0  0  0  0  0  0  0  0  0  0
   -2.0072    2.8967    2.1136 H   0  0  0  0  0  0  0  0  0  0  0  0
   -1.0562    2.3563    4.9702 H   0  0  0  0  0  0  0  0  0  0  0  0
   -0.7874    3.8475    4.0437 H   0  0  0  0  0  0  0  0  0  0  0  0
   -2.4350    3.3769    4.5027 H   0  0  0  0  0  0  0  0  0  0  0  0
   -0.2659    1.0619    1.0943 N   0  0  0  0  0  0  0  0  0  0  0  0
    0.7292    0.1902    0.4345 C   0  0  2  0  0  0  0  0  0  0  0  0
    0.2540   -1.2766    0.4900 C   0  0  0  0  0  0  0  0  0  0  0  0
    1.0189   -2.1773    0.8102 O   0  0  0  0  0  0  0  0  0  0  0  0
    2.2174    0.3416    0.8299 C   0  0  0  0  0  0  0  0  0  0  0  0
    2.7635    1.6993    0.4635 C   0  0  0  0  0  0  0  0  0  0  0  0
    3.0938    2.1193   -0.8252 N   0  3  0  0  0  0  0  0  0  0  0  0
    3.1151    2.7039    1.3270 C   0  0  0  0  0  0  0  0  0  0  0  0
    3.5995    3.3288   -0.7927 C   0  0  0  0  0  0  0  0  0  0  0  0
    3.6244    3.7298    0.5420 N   0  0  0  0  0  0  0  0  0  0  0  0
   -1.2156    1.0128    0.7125 H   0  0  0  0  0  0  0  0  0  0  0  0
    0.6891    0.4474   -0.6288 H   0  0  0  0  0  0  0  0  0  0  0  0
    2.8132   -0.4189    0.3133 H   0  0  0  0  0  0  0  0  0  0  0  0
    2.3359    0.1516    1.9017 H   0  0  0  0  0  0  0  0  0  0  0  0
    2.9436    1.5367   -1.6540 H   0  0  0  0  0  0  0  0  0  0  0  0
    3.0032    2.6798    2.4126 H   0  0  0  0  0  0  0  0  0  0  0  0
    3.9416    3.9105   -1.6505 H   0  0  0  0  0  0  0  0  0  0  0  0
    3.9715    4.6266    0.8939 H   0  0  0  0  0  0  0  0  0  0  0  0
   -0.9508   -1.5961   -0.1092 N   0  0  0  0  0  0  0  0  0  0  0  0
   -1.0744   -2.8234   -0.9064 C   0  0  2  0  0  0  0  0  0  0  0  0
   -0.3384   -2.6999   -2.2635 C   0  0  0  0  0  0  0  0  0  0  0  0
    0.0853   -1.6107   -2.6461 O   0  0  0  0  0  0  0  0  0  0  0  0
   -2.5675   -3.0857   -1.1186 C   0  0  0  0  0  0  0  0  0  0  0  0
   -1.4833   -0.7955   -0.4442 H   0  0  0  0  0  0  0  0  0  0  0  0
   -0.6451   -3.6708   -0.3602 H   0  0  0  0  0  0  0  0  0  0  0  0
   -3.0255   -2.2665   -1.6826 H   0  0  0  0  0  0  0  0  0  0  0  0
   -2.7194   -4.0166   -1.6735 H   0  0  0  0  0  0  0  0  0  0  0  0
   -3.0778   -3.1728   -0.1542 H   0  0  0  0  0  0  0  0  0  0  0  0
   -0.1461   -3.8132   -3.0599 N   0  0  0  0  0  0  0  0  0  0  0  0
    0.5481   -3.7734   -4.3421 C   0  0  0  0  0  0  0  0  0  0  0  0
   -0.4704   -4.7092   -2.7065 H   0  0  0  0  0  0  0  0  0  0  0  0
    0.0361   -3.0973   -5.0352 H   0  0  0  0  0  0  0  0  0  0  0  0
    1.5792   -3.4287   -4.2100 H   0  0  0  0  0  0  0  0  0  0  0  0
    0.5733   -4.7713   -4.7907 H   0  0  0  0  0  0  0  0  0  0  0  0
  1  2  2  0  0  0  0
  1  3  1  0  0  0  0
  1  7  1  0  0  0  0
  3  4  1  0  0  0  0
  3  5  1  0  0  0  0
  3  6  1  0  0  0  0
  7  8  1  0  0  0  0
  7 12  1  0  0  0  0
  8  9  1  0  0  0  0
  8 11  1  0  0  0  0
  8 13  1  0  0  0  0
  9 10  2  0  0  0  0
  9 17  1  0  0  0  0
 11 14  1  0  0  0  0
 11 15  1  0  0  0  0
 11 16  1  0  0  0  0
 17 18  1  0  0  0  0
 17 27  1  0  0  0  0
 18 19  1  0  0  0  0
 18 21  1  0  0  0  0
 18 28  1  0  0  0  0
 19 20  2  0  0  0  0
 19 35  1  0  0  0  0
 21 22  1  0  0  0  0
 21 29  1  0  0  0  0
 21 30  1  0  0  0  0
 22 23  1  0  0  0  0
 22 24  2  0  0  0  0
 23 25  2  0  0  0  0
 23 31  1  0  0  0  0
 24 26  1  0  0  0  0
 24 32  1  0  0  0  0
 25 26  1  0  0  0  0
 25 33  1  0  0  0  0
 26 34  1  0  0  0  0
 35 36  1  0  0  0  0
 35 40  1  0  0  0  0
 36 37  1  0  0  0  0
 36 39  1  0  0  0  0
 36 41  1  0  0  0  0
 37 38  2  0  0  0  0
 37 45  1  0  0  0  0
 39 42  1  0  0  0  0
 39 43  1  0  0  0  0
 39 44  1  0  0  0  0
 45 46  1  0  0  0  0
 45 47  1  0  0  0  0
 46 48  1  0  0  0  0
 46 49  1  0  0  0  0
 46 50  1  0  0  0  0
M  CHG  1  23   1
M  END
$$$$

  -OEChem-05262216443D

 50 50  0     1  0  0  0  0  0999 V2000
   -3.3573    0.6548    2.3124 C   0  0  0  0  0  0  0  0  0  0  0  0
   -3.1610    0.9267    1.1355 O   0  0  0  0  0  0  0  0  0  0  0  0
   -4.4368   -0.3372    2.6994 C   0  0  0  0  0  0  0  0  0  0  0  0
   -4.9721   -0.6796    1.8093 H   0  0  0  0  0  0  0  0  0  0  0  0
   -3.9903   -1.2025    3.1956 H   0  0  0  0  0  0  0  0  0  0  0  0
   -5.1521    0.1341    3.3781 H   0  0  0  0  0  0  0  0  0  0  0  0
   -2.5472    1.2139    3.2817 N   0  0  0  0  0  0  0  0  0  0  0  0
   -1.5079    2.2258    3.0248 C   0  0  2  0  0  0  0  0  0  0  0  0
   -0.2243    1.6204    2.3996 C   0  0  0  0  0  0  0  0  0  0  0  0
    0.8444    1.6481    2.9957 O   0  0  0  0  0  0  0  0  0  0  0  0
   -1.2423    2.9484    4.3522 C   0  0  0  0  0  0  0  0  0  0  0  0
   -2.7122    0.9249    4.2432 H   0  0  0  0  0  0  0  0  0  0  0  0
   -1.8941    2.9667    2.3159 H   0  0  0  0  0  0  0  0  0  0  0  0
   -0.8462    2.2521    5.0987 H   0  0  0  0  0  0  0  0  0  0  0  0
   -0.5132    3.7524    4.2090 H   0  0  0  0  0  0  0  0  0  0  0  0
   -2.1662    3.3889    4.7400 H   0  0  0  0  0  0  0  0  0  0  0  0
   -0.3444    1.0305    1.1519 N   0  0  0  0  0  0  0  0  0  0  0  0
    0.5787    0.1317    0.4263 C   0  0  2  0  0  0  0  0  0  0  0  0
    0.0611   -1.3198    0.4598 C   0  0  0  0  0  0  0  0  0  0  0  0
    0.7357   -2.2216    0.9401 O   0  0  0  0  0  0  0  0  0  0  0  0
    2.0915    0.2053    0.7383 C   0  0  0  0  0  0  0  0  0  0  0  0
    2.6777    1.5430    0.3646 C   0  0  0  0  0  0  0  0  0  0  0  0
    2.9507    1.9664   -0.9360 N   0  3  0  0  0  0  0  0  0  0  0  0
    3.1199    2.5185    1.2192 C   0  0  0  0  0  0  0  0  0  0  0  0
    3.5098    3.1523   -0.9180 C   0  0  0  0  0  0  0  0  0  0  0  0
    3.6282    3.5324    0.4181 N   0  0  0  0  0  0  0  0  0  0  0  0
   -1.3165    1.0273    0.8250 H   0  0  0  0  0  0  0  0  0  0  0  0
    0.5000    0.4251   -0.6251 H   0  0  0  0  0  0  0  0  0  0  0  0
    2.6176   -0.5735    0.1747 H   0  0  0  0  0  0  0  0  0  0  0  0
    2.2626   -0.0117    1.7978 H   0  0  0  0  0  0  0  0  0  0  0  0
    2.7279    1.4006   -1.7607 H   0  0  0  0  0  0  0  0  0  0  0  0
    3.0666    2.4834    2.3089 H   0  0  0  0  0  0  0  0  0  0  0  0
    3.8272    3.7311   -1.7870 H   0  0  0  0  0  0  0  0  0  0  0  0
    4.0331    4.4085    0.7601 H   0  0  0  0  0  0  0  0  0  0  0  0
   -1.0069   -1.6382   -0.3581 N   0  0  0  0  0  0  0  0  0  0  0  0
   -0.9349   -2.8475   -1.1890 C   0  0  2  0  0  0  0  0  0  0  0  0
    0.0997   -2.6940   -2.3332 C   0  0  0  0  0  0  0  0  0  0  0  0
    0.5817   -1.5924   -2.5982 O   0  0  0  0  0  0  0  0  0  0  0  0
   -2.3345   -3.1071   -1.7515 C   0  0  0  0  0  0  0  0  0  0  0  0
   -1.4471   -0.8334   -0.7970 H   0  0  0  0  0  0  0  0  0  0  0  0
   -0.6418   -3.7060   -0.5740 H   0  0  0  0  0  0  0  0  0  0  0  0
   -2.6506   -2.2799   -2.3953 H   0  0  0  0  0  0  0  0  0  0  0  0
   -2.3472   -4.0294   -2.3404 H   0  0  0  0  0  0  0  0  0  0  0  0
   -3.0577   -3.2102   -0.9360 H   0  0  0  0  0  0  0  0  0  0  0  0
    0.5002   -3.7956   -3.0656 N   0  0  0  0  0  0  0  0  0  0  0  0
    1.4792   -3.7334   -4.1453 C   0  0  0  0  0  0  0  0  0  0  0  0
    0.1212   -4.7012   -2.8013 H   0  0  0  0  0  0  0  0  0  0  0  0
    1.1313   -3.0662   -4.9413 H   0  0  0  0  0  0  0  0  0  0  0  0
    2.4408   -3.3659   -3.7717 H   0  0  0  0  0  0  0  0  0  0  0  0
    1.6337   -4.7287   -4.5740 H   0  0  0  0  0  0  0  0  0  0  0  0
  1  2  2  0  0  0  0
  1  3  1  0  0  0  0
  1  7  1  0  0  0  0
  3  4  1  0  0  0  0
  3  5  1  0  0  0  0
  3  6  1  0  0  0  0
  7  8  1  0  0  0  0
  7 12  1  0  0  0  0
  8  9  1  0  0  0  0
  8 11  1  0  0  0  0
  8 13  1  0  0  0  0
  9 10  2  0  0  0  0
  9 17  1  0  0  0  0
 11 14  1  0  0  0  0
 11 15  1  0  0  0  0
 11 16  1  0  0  0  0
 17 18  1  0  0  0  0
 17 27  1  0  0  0  0
 18 19  1  0  0  0  0
 18 21  1  0  0  0  0
 18 28  1  0  0  0  0
 19 20  2  0  0  0  0
 19 35  1  0  0  0  0
 21 22  1  0  0  0  0
 21 29  1  0  0  0  0
 21 30  1  0  0  0  0
 22 23  1  0  0  0  0
 22 24  2  0  0  0  0
 23 25  2  0  0  0  0
 23 31  1  0  0  0  0
 24 26  1  0  0  0  0
 24 32  1  0  0  0  0
 25 26  1  0  0  0  0
 25 33  1  0  0  0  0
 26 34  1  0  0  0  0
 35 36  1  0  0  0  0
 35 40  1  0  0  0  0
 36 37  1  0  0  0  0
 36 39  1  0  0  0  0
 36 41  1  0  0  0  0
 37 38  2  0  0  0  0
 37 45  1  0  0  0  0
 39 42  1  0  0  0  0
 39 43  1  0  0  0  0
 39 44  1  0  0  0  0
 45 46  1  0  0  0  0
 45 47  1  0  0  0  0
 46 48  1  0  0  0  0
 46 49  1  0  0  0  0
 46 50  1  0  0  0  0
M  CHG  1  23   1
M  END
$$$$

  -OEChem-05262216443D

 50 50  0     1  0  0  0  0  0999 V2000
   -3.4540    0.9514    2.4276 C   0  0  0  0  0  0  0  0  0  0  0  0
   -3.2389    1.2652    1.2650 O   0  0  0  0  0  0  0  0  0  0  0  0
   -4.6567    0.0988    2.7816 C   0  0  0  0  0  0  0  0  0  0  0  0
   -5.2738   -0.0703    1.8946 H   0  0  0  0  0  0  0  0  0  0  0  0
   -4.3288   -0.8679    3.1718 H   0  0  0  0  0  0  0  0  0  0  0  0
   -5.2631    0.6024    3.5385 H   0  0  0  0  0  0  0  0  0  0  0  0
   -2.5555    1.3280    3.4061 N   0  0  0  0  0  0  0  0  0  0  0  0
   -1.4039    2.2204    3.1862 C   0  0  2  0  0  0  0  0  0  0  0  0
   -0.2084    1.5102    2.4981 C   0  0  0  0  0  0  0  0  0  0  0  0
    0.8940    1.4727    3.0296 O   0  0  0  0  0  0  0  0  0  0  0  0
   -1.0378    2.8215    4.5500 C   0  0  0  0  0  0  0  0  0  0  0  0
   -2.7453    1.0091    4.3534 H   0  0  0  0  0  0  0  0  0  0  0  0
   -1.7072    3.0444    2.5308 H   0  0  0  0  0  0  0  0  0  0  0  0
   -0.7188    2.0374    5.2448 H   0  0  0  0  0  0  0  0  0  0  0  0
   -0.2200    3.5412    4.4424 H   0  0  0  0  0  0  0  0  0  0  0  0
   -1.8977    3.3432    4.9816 H   0  0  0  0  0  0  0  0  0  0  0  0
   -0.4269    0.9387    1.2545 N   0  0  0  0  0  0  0  0  0  0  0  0
    0.4038   -0.0216    0.4981 C   0  0  2  0  0  0  0  0  0  0  0  0
   -0.1584   -1.4552    0.5105 C   0  0  0  0  0  0  0  0  0  0  0  0
    0.4188   -2.3503    1.1135 O   0  0  0  0  0  0  0  0  0  0  0  0
    1.9334   -0.0312    0.7110 C   0  0  0  0  0  0  0  0  0  0  0  0
    2.5521    1.2636    0.2645 C   0  0  0  0  0  0  0  0  0  0  0  0
    2.7405    1.6133   -1.0711 N   0  3  0  0  0  0  0  0  0  0  0  0
    3.0784    2.2598    1.0416 C   0  0  0  0  0  0  0  0  0  0  0  0
    3.3360    2.7788   -1.1495 C   0  0  0  0  0  0  0  0  0  0  0  0
    3.5617    3.2158    0.1566 N   0  0  0  0  0  0  0  0  0  0  0  0
   -1.4039    1.0247    0.9554 H   0  0  0  0  0  0  0  0  0  0  0  0
    0.2875    0.3016   -0.5401 H   0  0  0  0  0  0  0  0  0  0  0  0
    2.3802   -0.8482    0.1331 H   0  0  0  0  0  0  0  0  0  0  0  0
    2.1632   -0.2343    1.7620 H   0  0  0  0  0  0  0  0  0  0  0  0
    2.4399    1.0107   -1.8462 H   0  0  0  0  0  0  0  0  0  0  0  0
    3.0916    2.2768    2.1332 H   0  0  0  0  0  0  0  0  0  0  0  0
    3.6070    3.3052   -2.0659 H   0  0  0  0  0  0  0  0  0  0  0  0
    4.0155    4.0932    0.4257 H   0  0  0  0  0  0  0  0  0  0  0  0
   -1.0322   -1.7886   -0.5078 N   0  0  0  0  0  0  0  0  0  0  0  0
   -0.6732   -2.9142   -1.3830 C   0  0  2  0  0  0  0  0  0  0  0  0
    0.5637   -2.5958   -2.2663 C   0  0  0  0  0  0  0  0  0  0  0  0
    1.0006   -1.4460   -2.3611 O   0  0  0  0  0  0  0  0  0  0  0  0
   -1.8922   -3.2334   -2.2526 C   0  0  0  0  0  0  0  0  0  0  0  0
   -1.4183   -0.9816   -0.9905 H   0  0  0  0  0  0  0  0  0  0  0  0
   -0.4405   -3.7966   -0.7756 H   0  0  0  0  0  0  0  0  0  0  0  0
   -2.1467   -2.3799   -2.8894 H   0  0  0  0  0  0  0  0  0  0  0  0
   -1.6916   -4.0971   -2.8945 H   0  0  0  0  0  0  0  0  0  0  0  0
   -2.7561   -3.4681   -1.6220 H   0  0  0  0  0  0  0  0  0  0  0  0
    1.2058   -3.6101   -2.9504 N   0  0  0  0  0  0  0  0  0  0  0  0
    2.3863   -3.4049   -3.7817 C   0  0  0  0  0  0  0  0  0  0  0  0
    0.8587   -4.5575   -2.8218 H   0  0  0  0  0  0  0  0  0  0  0  0
    2.1750   -2.6838   -4.5785 H   0  0  0  0  0  0  0  0  0  0  0  0
    3.2205   -3.0314   -3.1786 H   0  0  0  0  0  0  0  0  0  0  0  0
    2.6910   -4.3484   -4.2455 H   0  0  0  0  0  0  0  0  0  0  0  0
  1  2  2  0  0  0  0
  1  3  1  0  0  0  0
  1  7  1  0  0  0  0
  3  4  1  0  0  0  0
  3  5  1  0  0  0  0
  3  6  1  0  0  0  0
  7  8  1  0  0  0  0
  7 12  1  0  0  0  0
  8  9  1  0  0  0  0
  8 11  1  0  0  0  0
  8 13  1  0  0  0  0
  9 10  2  0  0  0  0
  9 17  1  0  0  0  0
 11 14  1  0  0  0  0
 11 15  1  0  0  0  0
 11 16  1  0  0  0  0
 17 18  1  0  0  0  0
 17 27  1  0  0  0  0
 18 19  1  0  0  0  0
 18 21  1  0  0  0  0
 18 28  1  0  0  0  0
 19 20  2  0  0  0  0
 19 35  1  0  0  0  0
 21 22  1  0  0  0  0
 21 29  1  0  0  0  0
 21 30  1  0  0  0  0
 22 23  1  0  0  0  0
 22 24  2  0  0  0  0
 23 25  2  0  0  0  0
 23 31  1  0  0  0  0
 24 26  1  0  0  0  0
 24 32  1  0  0  0  0
 25 26  1  0  0  0  0
 25 33  1  0  0  0  0
 26 34  1  0  0  0  0
 35 36  1  0  0  0  0
 35 40  1  0  0  0  0
 36 37  1  0  0  0  0
 36 39  1  0  0  0  0
 36 41  1  0  0  0  0
 37 38  2  0  0  0  0
 37 45  1  0  0  0  0
 39 42  1  0  0  0  0
 39 43  1  0  0  0  0
 39 44  1  0  0  0  0
 45 46  1  0  0  0  0
 45 47  1  0  0  0  0
 46 48  1  0  0  0  0
 46 49  1  0  0  0  0
 46 50  1  0  0  0  0
M  CHG  1  23   1
M  END
$$$$

  -OEChem-05262216443D

 50 50  0     1  0  0  0  0  0999 V2000
   -3.4640    1.0110    2.4876 C   0  0  0  0  0  0  0  0  0  0  0  0
   -3.2594    1.3807    1.3396 O   0  0  0  0  0  0  0  0  0  0  0  0
   -4.6580    0.1334    2.8081 C   0  0  0  0  0  0  0  0  0  0  0  0
   -5.2862    0.0129    1.9208 H   0  0  0  0  0  0  0  0  0  0  0  0
   -4.3200   -0.8523    3.1373 H   0  0  0  0  0  0  0  0  0  0  0  0
   -5.2560    0.5890    3.6011 H   0  0  0  0  0  0  0  0  0  0  0  0
   -2.5570    1.3428    3.4745 N   0  0  0  0  0  0  0  0  0  0  0  0
   -1.3847    2.2114    3.2722 C   0  0  2  0  0  0  0  0  0  0  0  0
   -0.2173    1.4806    2.5593 C   0  0  0  0  0  0  0  0  0  0  0  0
    0.8697    1.3415    3.1058 O   0  0  0  0  0  0  0  0  0  0  0  0
   -0.9944    2.7708    4.6464 C   0  0  0  0  0  0  0  0  0  0  0  0
   -2.7252    0.9634    4.4035 H   0  0  0  0  0  0  0  0  0  0  0  0
   -1.6689    3.0589    2.6389 H   0  0  0  0  0  0  0  0  0  0  0  0
   -0.6920    1.9633    5.3214 H   0  0  0  0  0  0  0  0  0  0  0  0
   -0.1588    3.4713    4.5489 H   0  0  0  0  0  0  0  0  0  0  0  0
   -1.8381    3.3041    5.0955 H   0  0  0  0  0  0  0  0  0  0  0  0
   -0.4535    0.9926    1.2835 N   0  0  0  0  0  0  0  0  0  0  0  0
    0.2789   -0.0455    0.5289 C   0  0  2  0  0  0  0  0  0  0  0  0
   -0.4399   -1.4021    0.4360 C   0  0  0  0  0  0  0  0  0  0  0  0
   -0.1161   -2.3227    1.1730 O   0  0  0  0  0  0  0  0  0  0  0  0
    1.7864   -0.2565    0.7971 C   0  0  0  0  0  0  0  0  0  0  0  0
    2.5794    0.9565    0.4094 C   0  0  0  0  0  0  0  0  0  0  0  0
    2.8432    1.2767   -0.9199 N   0  3  0  0  0  0  0  0  0  0  0  0
    3.1945    1.8839    1.2049 C   0  0  0  0  0  0  0  0  0  0  0  0
    3.5784    2.3604   -0.9795 C   0  0  0  0  0  0  0  0  0  0  0  0
    3.8139    2.7726    0.3336 N   0  0  0  0  0  0  0  0  0  0  0  0
   -1.4225    1.1547    0.9882 H   0  0  0  0  0  0  0  0  0  0  0  0
    0.2526    0.3408   -0.4935 H   0  0  0  0  0  0  0  0  0  0  0  0
    2.1542   -1.1152    0.2263 H   0  0  0  0  0  0  0  0  0  0  0  0
    1.9445   -0.5028    1.8519 H   0  0  0  0  0  0  0  0  0  0  0  0
    2.5039    0.6985   -1.7007 H   0  0  0  0  0  0  0  0  0  0  0  0
    3.1735    1.9030    2.2961 H   0  0  0  0  0  0  0  0  0  0  0  0
    3.9413    2.8447   -1.8872 H   0  0  0  0  0  0  0  0  0  0  0  0
    4.3567    3.5934    0.6159 H   0  0  0  0  0  0  0  0  0  0  0  0
   -1.0162   -1.6932   -0.7871 N   0  0  0  0  0  0  0  0  0  0  0  0
   -0.4778   -2.8077   -1.5794 C   0  0  2  0  0  0  0  0  0  0  0  0
    0.8558   -2.4363   -2.2839 C   0  0  0  0  0  0  0  0  0  0  0  0
    1.2908   -1.2801   -2.2711 O   0  0  0  0  0  0  0  0  0  0  0  0
   -1.5464   -3.1991   -2.6040 C   0  0  0  0  0  0  0  0  0  0  0  0
   -1.2368   -0.8641   -1.3328 H   0  0  0  0  0  0  0  0  0  0  0  0
   -0.2899   -3.6724   -0.9323 H   0  0  0  0  0  0  0  0  0  0  0  0
   -1.7448   -2.3710   -3.2920 H   0  0  0  0  0  0  0  0  0  0  0  0
   -1.2221   -4.0658   -3.1882 H   0  0  0  0  0  0  0  0  0  0  0  0
   -2.4803   -3.4597   -2.0952 H   0  0  0  0  0  0  0  0  0  0  0  0
    1.5964   -3.4167   -2.9155 N   0  0  0  0  0  0  0  0  0  0  0  0
    2.8656   -3.1704   -3.5904 C   0  0  0  0  0  0  0  0  0  0  0  0
    1.2351   -4.3676   -2.8912 H   0  0  0  0  0  0  0  0  0  0  0  0
    2.7460   -2.4105   -4.3697 H   0  0  0  0  0  0  0  0  0  0  0  0
    3.6209   -2.8288   -2.8751 H   0  0  0  0  0  0  0  0  0  0  0  0
    3.2278   -4.0899   -4.0613 H   0  0  0  0  0  0  0  0  0  0  0  0
  1  2  2  0  0  0  0
  1  3  1  0  0  0  0
  1  7  1  0  0  0  0
  3  4  1  0  0  0  0
  3  5  1  0  0  0  0
  3  6  1  0  0  0  0
  7  8  1  0  0  0  0
  7 12  1  0  0  0  0
  8  9  1  0  0  0  0
  8 11  1  0  0  0  0
  8 13  1  0  0  0  0
  9 10  2  0  0  0  0
  9 17  1  0  0  0  0
 11 14  1  0  0  0  0
 11 15  1  0  0  0  0
 11 16  1  0  0  0  0
 17 18  1  0  0  0  0
 17 27  1  0  0  0  0
 18 19  1  0  0  0  0
 18 21  1  0  0  0  0
 18 28  1  0  0  0  0
 19 20  2  0  0  0  0
 19 35  1  0  0  0  0
 21 22  1  0  0  0  0
 21 29  1  0  0  0  0
 21 30  1  0  0  0  0
 22 23  1  0  0  0  0
 22 24  2  0  0  0  0
 23 25  2  0  0  0  0
 23 31  1  0  0  0  0
 24 26  1  0  0  0  0
 24 32  1  0  0  0  0
 25 26  1  0  0  0  0
 25 33  1  0  0  0  0
 26 34  1  0  0  0  0
 35 36  1  0  0  0  0
 35 40  1  0  0  0  0
 36 37  1  0  0  0  0
 36 39  1  0  0  0  0
 36 41  1  0  0  0  0
 37 38  2  0  0  0  0
 37 45  1  0  0  0  0
 39 42  1  0  0  0  0
 39 43  1  0  0  0  0
 39 44  1  0  0  0  0
 45 46  1  0  0  0  0
 45 47  1  0  0  0  0
 46 48  1  0  0  0  0
 46 49  1  0  0  0  0
 46 50  1  0  0  0  0
M  CHG  1  23   1
M  END
$$$$

  -OEChem-05262216443D

 50 50  0     1  0  0  0  0  0999 V2000
   -3.5456    1.2589    2.4055 C   0  0  0  0  0  0  0  0  0  0  0  0
   -3.2649    1.6319    1.2750 O   0  0  0  0  0  0  0  0  0  0  0  0
   -4.8469    0.5287    2.6738 C   0  0  0  0  0  0  0  0  0  0  0  0
   -5.4771    0.5404    1.7802 H   0  0  0  0  0  0  0  0  0  0  0  0
   -4.6435   -0.5094    2.9482 H   0  0  0  0  0  0  0  0  0  0  0  0
   -5.3882    1.0144    3.4895 H   0  0  0  0  0  0  0  0  0  0  0  0
   -2.6359    1.4587    3.4239 N   0  0  0  0  0  0  0  0  0  0  0  0
   -1.3832    2.2202    3.2846 C   0  0  2  0  0  0  0  0  0  0  0  0
   -0.2599    1.4103    2.5854 C   0  0  0  0  0  0  0  0  0  0  0  0
    0.8099    1.2118    3.1471 O   0  0  0  0  0  0  0  0  0  0  0  0
   -0.9945    2.6986    4.6898 C   0  0  0  0  0  0  0  0  0  0  0  0
   -2.8765    1.0847    4.3389 H   0  0  0  0  0  0  0  0  0  0  0  0
   -1.5677    3.1092    2.6717 H   0  0  0  0  0  0  0  0  0  0  0  0
   -0.7867    1.8458    5.3446 H   0  0  0  0  0  0  0  0  0  0  0  0
   -0.0985    3.3257    4.6445 H   0  0  0  0  0  0  0  0  0  0  0  0
   -1.8042    3.2887    5.1301 H   0  0  0  0  0  0  0  0  0  0  0  0
   -0.5050    0.9375    1.3044 N   0  0  0  0  0  0  0  0  0  0  0  0
    0.2023   -0.1048    0.5282 C   0  0  2  0  0  0  0  0  0  0  0  0
   -0.5274   -1.4534    0.4092 C   0  0  0  0  0  0  0  0  0  0  0  0
   -0.3687   -2.3069    1.2694 O   0  0  0  0  0  0  0  0  0  0  0  0
    1.7019   -0.3526    0.8189 C   0  0  0  0  0  0  0  0  0  0  0  0
    2.5331    0.8473    0.4723 C   0  0  0  0  0  0  0  0  0  0  0  0
    2.8266    1.1787   -0.8482 N   0  3  0  0  0  0  0  0  0  0  0  0
    3.1528    1.7525    1.2899 C   0  0  0  0  0  0  0  0  0  0  0  0
    3.5876    2.2455   -0.8816 C   0  0  0  0  0  0  0  0  0  0  0  0
    3.8054    2.6386    0.4405 N   0  0  0  0  0  0  0  0  0  0  0  0
   -1.4559    1.1600    0.9901 H   0  0  0  0  0  0  0  0  0  0  0  0
    0.1915    0.3001   -0.4876 H   0  0  0  0  0  0  0  0  0  0  0  0
    2.0668   -1.2120    0.2506 H   0  0  0  0  0  0  0  0  0  0  0  0
    1.8317   -0.6190    1.8727 H   0  0  0  0  0  0  0  0  0  0  0  0
    2.5041    0.6057   -1.6411 H   0  0  0  0  0  0  0  0  0  0  0  0
    3.1129    1.7608    2.3807 H   0  0  0  0  0  0  0  0  0  0  0  0
    3.9819    2.7286   -1.7768 H   0  0  0  0  0  0  0  0  0  0  0  0
    4.3608    3.4437    0.7426 H   0  0  0  0  0  0  0  0  0  0  0  0
   -0.8244   -1.8536   -0.8820 N   0  0  0  0  0  0  0  0  0  0  0  0
   -0.1075   -2.9858   -1.4841 C   0  0  2  0  0  0  0  0  0  0  0  0
    1.2098   -2.5299   -2.1670 C   0  0  0  0  0  0  0  0  0  0  0  0
    1.5141   -1.3341   -2.2356 O   0  0  0  0  0  0  0  0  0  0  0  0
   -1.0526   -3.6430   -2.4939 C   0  0  0  0  0  0  0  0  0  0  0  0
   -0.9493   -1.0708   -1.5192 H   0  0  0  0  0  0  0  0  0  0  0  0
    0.1474   -3.7278   -0.7187 H   0  0  0  0  0  0  0  0  0  0  0  0
   -1.3218   -2.9378   -3.2871 H   0  0  0  0  0  0  0  0  0  0  0  0
   -0.5822   -4.5185   -2.9518 H   0  0  0  0  0  0  0  0  0  0  0  0
   -1.9702   -3.9705   -1.9941 H   0  0  0  0  0  0  0  0  0  0  0  0
    2.0949   -3.4694   -2.6590 N   0  0  0  0  0  0  0  0  0  0  0  0
    3.3506   -3.1367   -3.3222 C   0  0  0  0  0  0  0  0  0  0  0  0
    1.8330   -4.4495   -2.5783 H   0  0  0  0  0  0  0  0  0  0  0  0
    3.1652   -2.5268   -4.2127 H   0  0  0  0  0  0  0  0  0  0  0  0
    4.0091   -2.5836   -2.6447 H   0  0  0  0  0  0  0  0  0  0  0  0
    3.8672   -4.0501   -3.6341 H   0  0  0  0  0  0  0  0  0  0  0  0
  1  2  2  0  0  0  0
  1  3  1  0  0  0  0
  1  7  1  0  0  0  0
  3  4  1  0  0  0  0
  3  5  1  0  0  0  0
  3  6  1  0  0  0  0
  7  8  1  0  0  0  0
  7 12  1  0  0  0  0
  8  9  1  0  0  0  0
  8 11  1  0  0  0  0
  8 13  1  0  0  0  0
  9 10  2  0  0  0  0
  9 17  1  0  0  0  0
 11 14  1  0  0  0  0
 11 15  1  0  0  0  0
 11 16  1  0  0  0  0
 17 18  1  0  0  0  0
 17 27  1  0  0  0  0
 18 19  1  0  0  0  0
 18 21  1  0  0  0  0
 18 28  1  0  0  0  0
 19 20  2  0  0  0  0
 19 35  1  0  0  0  0
 21 22  1  0  0  0  0
 21 29  1  0  0  0  0
 21 30  1  0  0  0  0
 22 23  1  0  0  0  0
 22 24  2  0  0  0  0
 23 25  2  0  0  0  0
 23 31  1  0  0  0  0
 24 26  1  0  0  0  0
 24 32  1  0  0  0  0
 25 26  1  0  0  0  0
 25 33  1  0  0  0  0
 26 34  1  0  0  0  0
 35 36  1  0  0  0  0
 35 40  1  0  0  0  0
 36 37  1  0  0  0  0
 36 39  1  0  0  0  0
 36 41  1  0  0  0  0
 37 38  2  0  0  0  0
 37 45  1  0  0  0  0
 39 42  1  0  0  0  0
 39 43  1  0  0  0  0
 39 44  1  0  0  0  0
 45 46  1  0  0  0  0
 45 47  1  0  0  0  0
 46 48  1  0  0  0  0
 46 49  1  0  0  0  0
 46 50  1  0  0  0  0
M  CHG  1  23   1
M  END
$$$$

  -OEChem-05262216443D

 50 50  0     1  0  0  0  0  0999 V2000
   -3.7500    1.0238    4.3153 C   0  0  0  0  0  0  0  0  0  0  0  0
   -4.6605    1.5024    3.6593 O   0  0  0  0  0  0  0  0  0  0  0  0
   -4.0438    0.2691    5.5974 C   0  0  0  0  0  0  0  0  0  0  0  0
   -5.1223    0.2384    5.7771 H   0  0  0  0  0  0  0  0  0  0  0  0
   -3.6711   -0.7552    5.5216 H   0  0  0  0  0  0  0  0  0  0  0  0
   -3.5606    0.7653    6.4424 H   0  0  0  0  0  0  0  0  0  0  0  0
   -2.4489    1.1638    3.8777 N   0  0  0  0  0  0  0  0  0  0  0  0
   -2.0817    1.7371    2.5761 C   0  0  2  0  0  0  0  0  0  0  0  0
   -0.7961    1.1025    2.0055 C   0  0  0  0  0  0  0  0  0  0  0  0
    0.0471    0.6719    2.7832 O   0  0  0  0  0  0  0  0  0  0  0  0
   -1.9077    3.2495    2.7432 C   0  0  0  0  0  0  0  0  0  0  0  0
   -1.7261    0.6642    4.3929 H   0  0  0  0  0  0  0  0  0  0  0  0
   -2.8861    1.5474    1.8565 H   0  0  0  0  0  0  0  0  0  0  0  0
   -1.1115    3.4676    3.4617 H   0  0  0  0  0  0  0  0  0  0  0  0
   -1.6544    3.7156    1.7863 H   0  0  0  0  0  0  0  0  0  0  0  0
   -2.8374    3.6985    3.1084 H   0  0  0  0  0  0  0  0  0  0  0  0
   -0.6444    1.0206    0.6274 N   0  0  0  0  0  0  0  0  0  0  0  0
    0.3718    0.2883   -0.1695 C   0  0  2  0  0  0  0  0  0  0  0  0
   -0.2344   -0.9816   -0.7989 C   0  0  0  0  0  0  0  0  0  0  0  0
   -0.7897   -1.8057   -0.0885 O   0  0  0  0  0  0  0  0  0  0  0  0
    1.7187   -0.0959    0.4944 C   0  0  0  0  0  0  0  0  0  0  0  0
    2.5590    1.0929    0.9020 C   0  0  0  0  0  0  0  0  0  0  0  0
    3.2913    1.9165    0.0449 N   0  3  0  0  0  0  0  0  0  0  0  0
    2.8302    1.4992    2.1835 C   0  0  0  0  0  0  0  0  0  0  0  0
    3.9685    2.8049    0.7326 C   0  0  0  0  0  0  0  0  0  0  0  0
    3.6918    2.5819    2.0793 N   0  0  0  0  0  0  0  0  0  0  0  0
   -1.4789    1.3050    0.1172 H   0  0  0  0  0  0  0  0  0  0  0  0
    0.6239    0.9523   -1.0008 H   0  0  0  0  0  0  0  0  0  0  0  0
    2.3064   -0.7035   -0.2020 H   0  0  0  0  0  0  0  0  0  0  0  0
    1.5225   -0.7355    1.3619 H   0  0  0  0  0  0  0  0  0  0  0  0
    3.3195    1.7793   -0.9684 H   0  0  0  0  0  0  0  0  0  0  0  0
    2.4340    1.0458    3.0939 H   0  0  0  0  0  0  0  0  0  0  0  0
    4.6366    3.5677    0.3281 H   0  0  0  0  0  0  0  0  0  0  0  0
    4.0778    3.1086    2.8682 H   0  0  0  0  0  0  0  0  0  0  0  0
    0.0286   -1.2787   -2.1233 N   0  0  0  0  0  0  0  0  0  0  0  0
    0.1663   -2.6706   -2.5761 C   0  0  2  0  0  0  0  0  0  0  0  0
    1.6335   -3.1366   -2.4434 C   0  0  0  0  0  0  0  0  0  0  0  0
    2.5237   -2.3018   -2.2897 O   0  0  0  0  0  0  0  0  0  0  0  0
   -0.3007   -2.7425   -4.0319 C   0  0  0  0  0  0  0  0  0  0  0  0
    0.6419   -0.6199   -2.5945 H   0  0  0  0  0  0  0  0  0  0  0  0
   -0.4627   -3.3403   -1.9790 H   0  0  0  0  0  0  0  0  0  0  0  0
    0.3214   -2.1058   -4.6692 H   0  0  0  0  0  0  0  0  0  0  0  0
   -0.2399   -3.7701   -4.4038 H   0  0  0  0  0  0  0  0  0  0  0  0
   -1.3403   -2.4087   -4.1128 H   0  0  0  0  0  0  0  0  0  0  0  0
    1.9562   -4.4791   -2.4816 N   0  0  0  0  0  0  0  0  0  0  0  0
    3.3153   -4.9831   -2.3201 C   0  0  0  0  0  0  0  0  0  0  0  0
    1.1937   -5.1467   -2.5656 H   0  0  0  0  0  0  0  0  0  0  0  0
    3.9719   -4.5729   -3.0947 H   0  0  0  0  0  0  0  0  0  0  0  0
    3.7133   -4.7064   -1.3380 H   0  0  0  0  0  0  0  0  0  0  0  0
    3.3274   -6.0745   -2.4022 H   0  0  0  0  0  0  0  0  0  0  0  0
  1  2  2  0  0  0  0
  1  3  1  0  0  0  0
  1  7  1  0  0  0  0
  3  4  1  0  0  0  0
  3  5  1  0  0  0  0
  3  6  1  0  0  0  0
  7  8  1  0  0  0  0
  7 12  1  0  0  0  0
  8  9  1  0  0  0  0
  8 11  1  0  0  0  0
  8 13  1  0  0  0  0
  9 10  2  0  0  0  0
  9 17  1  0  0  0  0
 11 14  1  0  0  0  0
 11 15  1  0  0  0  0
 11 16  1  0  0  0  0
 17 18  1  0  0  0  0
 17 27  1  0  0  0  0
 18 19  1  0  0  0  0
 18 21  1  0  0  0  0
 18 28  1  0  0  0  0
 19 20  2  0  0  0  0
 19 35  1  0  0  0  0
 21 22  1  0  0  0  0
 21 29  1  0  0  0  0
 21 30  1  0  0  0  0
 22 23  1  0  0  0  0
 22 24  2  0  0  0  0
 23 25  2  0  0  0  0
 23 31  1  0  0  0  0
 24 26  1  0  0  0  0
 24 32  1  0  0  0  0
 25 26  1  0  0  0  0
 25 33  1  0  0  0  0
 26 34  1  0  0  0  0
 35 36  1  0  0  0  0
 35 40  1  0  0  0  0
 36 37  1  0  0  0  0
 36 39  1  0  0  0  0
 36 41  1  0  0  0  0
 37 38  2  0  0  0  0
 37 45  1  0  0  0  0
 39 42  1  0  0  0  0
 39 43  1  0  0  0  0
 39 44  1  0  0  0  0
 45 46  1  0  0  0  0
 45 47  1  0  0  0  0
 46 48  1  0  0  0  0
 46 49  1  0  0  0  0
 46 50  1  0  0  0  0
M  CHG  1  23   1
M  END
$$$$

  -OEChem-05262216443D

 50 50  0     1  0  0  0  0  0999 V2000
   -3.7867    0.9904    4.2564 C   0  0  0  0  0  0  0  0  0  0  0  0
   -4.7041    1.4279    3.5818 O   0  0  0  0  0  0  0  0  0  0  0  0
   -4.0716    0.2851    5.5682 C   0  0  0  0  0  0  0  0  0  0  0  0
   -5.1508    0.2288    5.7373 H   0  0  0  0  0  0  0  0  0  0  0  0
   -3.6665   -0.7294    5.5430 H   0  0  0  0  0  0  0  0  0  0  0  0
   -3.6141    0.8337    6.3952 H   0  0  0  0  0  0  0  0  0  0  0  0
   -2.4869    1.1384    3.8173 N   0  0  0  0  0  0  0  0  0  0  0  0
   -2.1256    1.6802    2.5003 C   0  0  2  0  0  0  0  0  0  0  0  0
   -0.8026    1.0908    1.9665 C   0  0  0  0  0  0  0  0  0  0  0  0
    0.0215    0.6587    2.7641 O   0  0  0  0  0  0  0  0  0  0  0  0
   -2.0247    3.2046    2.6136 C   0  0  0  0  0  0  0  0  0  0  0  0
   -1.7566    0.6704    4.3510 H   0  0  0  0  0  0  0  0  0  0  0  0
   -2.9091    1.4255    1.7776 H   0  0  0  0  0  0  0  0  0  0  0  0
   -1.2556    3.4857    3.3399 H   0  0  0  0  0  0  0  0  0  0  0  0
   -1.7713    3.6465    1.6455 H   0  0  0  0  0  0  0  0  0  0  0  0
   -2.9817    3.6239    2.9416 H   0  0  0  0  0  0  0  0  0  0  0  0
   -0.5955    1.0534    0.5937 N   0  0  0  0  0  0  0  0  0  0  0  0
    0.4594    0.3582   -0.1871 C   0  0  2  0  0  0  0  0  0  0  0  0
   -0.1120   -0.8980   -0.8785 C   0  0  0  0  0  0  0  0  0  0  0  0
   -0.9721   -1.5673   -0.3262 O   0  0  0  0  0  0  0  0  0  0  0  0
    1.7866   -0.0219    0.5182 C   0  0  0  0  0  0  0  0  0  0  0  0
    2.5865    1.1738    0.9866 C   0  0  0  0  0  0  0  0  0  0  0  0
    3.3352    2.0361    0.1824 N   0  3  0  0  0  0  0  0  0  0  0  0
    2.8054    1.5457    2.2887 C   0  0  0  0  0  0  0  0  0  0  0  0
    3.9679    2.9169    0.9202 C   0  0  0  0  0  0  0  0  0  0  0  0
    3.6493    2.6465    2.2485 N   0  0  0  0  0  0  0  0  0  0  0  0
   -1.4300    1.3014    0.0638 H   0  0  0  0  0  0  0  0  0  0  0  0
    0.7287    1.0476   -0.9918 H   0  0  0  0  0  0  0  0  0  0  0  0
    2.4139   -0.6016   -0.1671 H   0  0  0  0  0  0  0  0  0  0  0  0
    1.5696   -0.6864    1.3616 H   0  0  0  0  0  0  0  0  0  0  0  0
    3.3911    1.9418   -0.8343 H   0  0  0  0  0  0  0  0  0  0  0  0
    2.3868    1.0578    3.1708 H   0  0  0  0  0  0  0  0  0  0  0  0
    4.6305    3.7073    0.5628 H   0  0  0  0  0  0  0  0  0  0  0  0
    3.9944    3.1575    3.0664 H   0  0  0  0  0  0  0  0  0  0  0  0
    0.4295   -1.3268   -2.0761 N   0  0  0  0  0  0  0  0  0  0  0  0
    0.4330   -2.7464   -2.4593 C   0  0  2  0  0  0  0  0  0  0  0  0
    1.7844   -3.3949   -2.0868 C   0  0  0  0  0  0  0  0  0  0  0  0
    2.7423   -2.6762   -1.8077 O   0  0  0  0  0  0  0  0  0  0  0  0
    0.1810   -2.8299   -3.9665 C   0  0  0  0  0  0  0  0  0  0  0  0
    1.2461   -0.8082   -2.3874 H   0  0  0  0  0  0  0  0  0  0  0  0
   -0.3623   -3.2971   -1.9447 H   0  0  0  0  0  0  0  0  0  0  0  0
    0.9738   -2.3169   -4.5203 H   0  0  0  0  0  0  0  0  0  0  0  0
    0.1498   -3.8740   -4.2931 H   0  0  0  0  0  0  0  0  0  0  0  0
   -0.7773   -2.3631   -4.2157 H   0  0  0  0  0  0  0  0  0  0  0  0
    1.9274   -4.7683   -2.0542 N   0  0  0  0  0  0  0  0  0  0  0  0
    3.1678   -5.4380   -1.6791 C   0  0  0  0  0  0  0  0  0  0  0  0
    1.1050   -5.3342   -2.2474 H   0  0  0  0  0  0  0  0  0  0  0  0
    3.9909   -5.1142   -2.3251 H   0  0  0  0  0  0  0  0  0  0  0  0
    3.4262   -5.2126   -0.6391 H   0  0  0  0  0  0  0  0  0  0  0  0
    3.0578   -6.5222   -1.7809 H   0  0  0  0  0  0  0  0  0  0  0  0
  1  2  2  0  0  0  0
  1  3  1  0  0  0  0
  1  7  1  0  0  0  0
  3  4  1  0  0  0  0
  3  5  1  0  0  0  0
  3  6  1  0  0  0  0
  7  8  1  0  0  0  0
  7 12  1  0  0  0  0
  8  9  1  0  0  0  0
  8 11  1  0  0  0  0
  8 13  1  0  0  0  0
  9 10  2  0  0  0  0
  9 17  1  0  0  0  0
 11 14  1  0  0  0  0
 11 15  1  0  0  0  0
 11 16  1  0  0  0  0
 17 18  1  0  0  0  0
 17 27  1  0  0  0  0
 18 19  1  0  0  0  0
 18 21  1  0  0  0  0
 18 28  1  0  0  0  0
 19 20  2  0  0  0  0
 19 35  1  0  0  0  0
 21 22  1  0  0  0  0
 21 29  1  0  0  0  0
 21 30  1  0  0  0  0
 22 23  1  0  0  0  0
 22 24  2  0  0  0  0
 23 25  2  0  0  0  0
 23 31  1  0  0  0  0
 24 26  1  0  0  0  0
 24 32  1  0  0  0  0
 25 26  1  0  0  0  0
 25 33  1  0  0  0  0
 26 34  1  0  0  0  0
 35 36  1  0  0  0  0
 35 40  1  0  0  0  0
 36 37  1  0  0  0  0
 36 39  1  0  0  0  0
 36 41  1  0  0  0  0
 37 38  2  0  0  0  0
 37 45  1  0  0  0  0
 39 42  1  0  0  0  0
 39 43  1  0  0  0  0
 39 44  1  0  0  0  0
 45 46  1  0  0  0  0
 45 47  1  0  0  0  0
 46 48  1  0  0  0  0
 46 49  1  0  0  0  0
 46 50  1  0  0  0  0
M  CHG  1  23   1
M  END
$$$$

  -OEChem-05262216443D

 50 50  0     1  0  0  0  0  0999 V2000
   -3.8974    0.7404    3.7393 C   0  0  0  0  0  0  0  0  0  0  0  0
   -4.7011    1.3163    3.0245 O   0  0  0  0  0  0  0  0  0  0  0  0
   -4.3766   -0.2627    4.7709 C   0  0  0  0  0  0  0  0  0  0  0  0
   -5.4682   -0.3308    4.7507 H   0  0  0  0  0  0  0  0  0  0  0  0
   -3.9595   -1.2492    4.5547 H   0  0  0  0  0  0  0  0  0  0  0  0
   -4.0626    0.0484    5.7700 H   0  0  0  0  0  0  0  0  0  0  0  0
   -2.5487    0.9999    3.5997 N   0  0  0  0  0  0  0  0  0  0  0  0
   -1.9821    1.8416    2.5371 C   0  0  2  0  0  0  0  0  0  0  0  0
   -0.6717    1.2522    1.9757 C   0  0  0  0  0  0  0  0  0  0  0  0
    0.1699    0.8314    2.7603 O   0  0  0  0  0  0  0  0  0  0  0  0
   -1.7526    3.2433    3.1082 C   0  0  0  0  0  0  0  0  0  0  0  0
   -1.9056    0.4432    4.1592 H   0  0  0  0  0  0  0  0  0  0  0  0
   -2.6896    1.9144    1.7038 H   0  0  0  0  0  0  0  0  0  0  0  0
   -1.0644    3.2055    3.9587 H   0  0  0  0  0  0  0  0  0  0  0  0
   -1.3312    3.9038    2.3447 H   0  0  0  0  0  0  0  0  0  0  0  0
   -2.7018    3.6708    3.4474 H   0  0  0  0  0  0  0  0  0  0  0  0
   -0.5013    1.1855    0.5993 N   0  0  0  0  0  0  0  0  0  0  0  0
    0.5368    0.4808   -0.1967 C   0  0  2  0  0  0  0  0  0  0  0  0
   -0.0530   -0.7957   -0.8429 C   0  0  0  0  0  0  0  0  0  0  0  0
   -1.0922   -1.2803   -0.4184 O   0  0  0  0  0  0  0  0  0  0  0  0
    1.8890    0.1450    0.4870 C   0  0  0  0  0  0  0  0  0  0  0  0
    2.6734    1.3745    0.8925 C   0  0  0  0  0  0  0  0  0  0  0  0
    3.3830    2.2267    0.0427 N   0  3  0  0  0  0  0  0  0  0  0  0
    2.9155    1.7942    2.1764 C   0  0  0  0  0  0  0  0  0  0  0  0
    4.0121    3.1457    0.7359 C   0  0  0  0  0  0  0  0  0  0  0  0
    3.7342    2.9105    2.0797 N   0  0  0  0  0  0  0  0  0  0  0  0
   -1.3638    1.3799    0.0913 H   0  0  0  0  0  0  0  0  0  0  0  0
    0.7737    1.1483   -1.0299 H   0  0  0  0  0  0  0  0  0  0  0  0
    2.5152   -0.4430   -0.1912 H   0  0  0  0  0  0  0  0  0  0  0  0
    1.7079   -0.4957    1.3567 H   0  0  0  0  0  0  0  0  0  0  0  0
    3.4063    2.1094   -0.9729 H   0  0  0  0  0  0  0  0  0  0  0  0
    2.5296    1.3272    3.0847 H   0  0  0  0  0  0  0  0  0  0  0  0
    4.6436    3.9415    0.3366 H   0  0  0  0  0  0  0  0  0  0  0  0
    4.0891    3.4542    2.8718 H   0  0  0  0  0  0  0  0  0  0  0  0
    0.6266   -1.4342   -1.8642 N   0  0  0  0  0  0  0  0  0  0  0  0
    0.5096   -2.8831   -2.0892 C   0  0  2  0  0  0  0  0  0  0  0  0
    1.7305   -3.6085   -1.4823 C   0  0  0  0  0  0  0  0  0  0  0  0
    2.7211   -2.9541   -1.1625 O   0  0  0  0  0  0  0  0  0  0  0  0
    0.4216   -3.1262   -3.5979 C   0  0  0  0  0  0  0  0  0  0  0  0
    1.5504   -1.0599   -2.0629 H   0  0  0  0  0  0  0  0  0  0  0  0
   -0.3940   -3.2869   -1.6195 H   0  0  0  0  0  0  0  0  0  0  0  0
    1.3232   -2.7622   -4.1012 H   0  0  0  0  0  0  0  0  0  0  0  0
    0.3141   -4.1948   -3.8088 H   0  0  0  0  0  0  0  0  0  0  0  0
   -0.4461   -2.6051   -4.0153 H   0  0  0  0  0  0  0  0  0  0  0  0
    1.7234   -4.9761   -1.2881 N   0  0  0  0  0  0  0  0  0  0  0  0
    2.8449   -5.7092   -0.7111 C   0  0  0  0  0  0  0  0  0  0  0  0
    0.8806   -5.4870   -1.5384 H   0  0  0  0  0  0  0  0  0  0  0  0
    3.7417   -5.5860   -1.3276 H   0  0  0  0  0  0  0  0  0  0  0  0
    3.0608   -5.3482    0.3001 H   0  0  0  0  0  0  0  0  0  0  0  0
    2.6105   -6.7768   -0.6534 H   0  0  0  0  0  0  0  0  0  0  0  0
  1  2  2  0  0  0  0
  1  3  1  0  0  0  0
  1  7  1  0  0  0  0
  3  4  1  0  0  0  0
  3  5  1  0  0  0  0
  3  6  1  0  0  0  0
  7  8  1  0  0  0  0
  7 12  1  0  0  0  0
  8  9  1  0  0  0  0
  8 11  1  0  0  0  0
  8 13  1  0  0  0  0
  9 10  2  0  0  0  0
  9 17  1  0  0  0  0
 11 14  1  0  0  0  0
 11 15  1  0  0  0  0
 11 16  1  0  0  0  0
 17 18  1  0  0  0  0
 17 27  1  0  0  0  0
 18 19  1  0  0  0  0
 18 21  1  0  0  0  0
 18 28  1  0  0  0  0
 19 20  2  0  0  0  0
 19 35  1  0  0  0  0
 21 22  1  0  0  0  0
 21 29  1  0  0  0  0
 21 30  1  0  0  0  0
 22 23  1  0  0  0  0
 22 24  2  0  0  0  0
 23 25  2  0  0  0  0
 23 31  1  0  0  0  0
 24 26  1  0  0  0  0
 24 32  1  0  0  0  0
 25 26  1  0  0  0  0
 25 33  1  0  0  0  0
 26 34  1  0  0  0  0
 35 36  1  0  0  0  0
 35 40  1  0  0  0  0
 36 37  1  0  0  0  0
 36 39  1  0  0  0  0
 36 41  1  0  0  0  0
 37 38  2  0  0  0  0
 37 45  1  0  0  0  0
 39 42  1  0  0  0  0
 39 43  1  0  0  0  0
 39 44  1  0  0  0  0
 45 46  1  0  0  0  0
 45 47  1  0  0  0  0
 46 48  1  0  0  0  0
 46 49  1  0  0  0  0
 46 50  1  0  0  0  0
M  CHG  1  23   1
M  END
$$$$

  -OEChem-05262216443D

 50 50  0     1  0  0  0  0  0999 V2000
   -3.4101    0.1995    3.3617 C   0  0  0  0  0  0  0  0  0  0  0  0
   -3.6175   -0.2916    2.2647 O   0  0  0  0  0  0  0  0  0  0  0  0
   -3.8780   -0.5111    4.6169 C   0  0  0  0  0  0  0  0  0  0  0  0
   -4.4072   -1.4311    4.3525 H   0  0  0  0  0  0  0  0  0  0  0  0
   -3.0203   -0.7664    5.2435 H   0  0  0  0  0  0  0  0  0  0  0  0
   -4.5560    0.1335    5.1814 H   0  0  0  0  0  0  0  0  0  0  0  0
   -2.7183    1.3900    3.4562 N   0  0  0  0  0  0  0  0  0  0  0  0
   -2.0951    2.0329    2.2903 C   0  0  2  0  0  0  0  0  0  0  0  0
   -0.7417    1.3961    1.8952 C   0  0  0  0  0  0  0  0  0  0  0  0
   -0.0111    0.9536    2.7713 O   0  0  0  0  0  0  0  0  0  0  0  0
   -1.9169    3.5174    2.6152 C   0  0  0  0  0  0  0  0  0  0  0  0
   -2.4125    1.6659    4.3843 H   0  0  0  0  0  0  0  0  0  0  0  0
   -2.7713    1.9513    1.4315 H   0  0  0  0  0  0  0  0  0  0  0  0
   -1.2379    3.6474    3.4638 H   0  0  0  0  0  0  0  0  0  0  0  0
   -1.5031    4.0496    1.7531 H   0  0  0  0  0  0  0  0  0  0  0  0
   -2.8820    3.9689    2.8672 H   0  0  0  0  0  0  0  0  0  0  0  0
   -0.4001    1.3397    0.5517 N   0  0  0  0  0  0  0  0  0  0  0  0
    0.6834    0.6048   -0.1498 C   0  0  2  0  0  0  0  0  0  0  0  0
    0.0578   -0.3682   -1.1811 C   0  0  0  0  0  0  0  0  0  0  0  0
   -1.1522   -0.3753   -1.3592 O   0  0  0  0  0  0  0  0  0  0  0  0
    1.8257   -0.0743    0.6608 C   0  0  0  0  0  0  0  0  0  0  0  0
    2.7097    0.8831    1.4361 C   0  0  0  0  0  0  0  0  0  0  0  0
    3.6917    1.7143    0.8895 N   0  3  0  0  0  0  0  0  0  0  0  0
    2.8396    0.9633    2.8003 C   0  0  0  0  0  0  0  0  0  0  0  0
    4.3602    2.3259    1.8382 C   0  0  0  0  0  0  0  0  0  0  0  0
    3.8461    1.8835    3.0532 N   0  0  0  0  0  0  0  0  0  0  0  0
   -1.2035    1.5291   -0.0509 H   0  0  0  0  0  0  0  0  0  0  0  0
    1.1841    1.3614   -0.7602 H   0  0  0  0  0  0  0  0  0  0  0  0
    2.4724   -0.6562   -0.0021 H   0  0  0  0  0  0  0  0  0  0  0  0
    1.3699   -0.7909    1.3538 H   0  0  0  0  0  0  0  0  0  0  0  0
    3.8374    1.8164   -0.1174 H   0  0  0  0  0  0  0  0  0  0  0  0
    2.2487    0.4061    3.5293 H   0  0  0  0  0  0  0  0  0  0  0  0
    5.1724    3.0425    1.7032 H   0  0  0  0  0  0  0  0  0  0  0  0
    4.1631    2.1724    3.9830 H   0  0  0  0  0  0  0  0  0  0  0  0
    0.8526   -1.1767   -1.9720 N   0  0  0  0  0  0  0  0  0  0  0  0
    0.3652   -2.4504   -2.5200 C   0  0  2  0  0  0  0  0  0  0  0  0
    1.0442   -3.6203   -1.7754 C   0  0  0  0  0  0  0  0  0  0  0  0
    2.0194   -3.3903   -1.0623 O   0  0  0  0  0  0  0  0  0  0  0  0
    0.6907   -2.4836   -4.0147 C   0  0  0  0  0  0  0  0  0  0  0  0
    1.8329   -1.2055   -1.7039 H   0  0  0  0  0  0  0  0  0  0  0  0
   -0.7182   -2.5530   -2.3924 H   0  0  0  0  0  0  0  0  0  0  0  0
    1.7709   -2.4084   -4.1762 H   0  0  0  0  0  0  0  0  0  0  0  0
    0.3360   -3.4161   -4.4646 H   0  0  0  0  0  0  0  0  0  0  0  0
    0.2017   -1.6477   -4.5252 H   0  0  0  0  0  0  0  0  0  0  0  0
    0.5662   -4.9114   -1.8880 N   0  0  0  0  0  0  0  0  0  0  0  0
    1.1444   -6.0437   -1.1727 C   0  0  0  0  0  0  0  0  0  0  0  0
   -0.2693   -5.0605   -2.4481 H   0  0  0  0  0  0  0  0  0  0  0  0
    2.2060   -6.1526   -1.4190 H   0  0  0  0  0  0  0  0  0  0  0  0
    1.0462   -5.9041   -0.0910 H   0  0  0  0  0  0  0  0  0  0  0  0
    0.6309   -6.9696   -1.4499 H   0  0  0  0  0  0  0  0  0  0  0  0
  1  2  2  0  0  0  0
  1  3  1  0  0  0  0
  1  7  1  0  0  0  0
  3  4  1  0  0  0  0
  3  5  1  0  0  0  0
  3  6  1  0  0  0  0
  7  8  1  0  0  0  0
  7 12  1  0  0  0  0
  8  9  1  0  0  0  0
  8 11  1  0  0  0  0
  8 13  1  0  0  0  0
  9 10  2  0  0  0  0
  9 17  1  0  0  0  0
 11 14  1  0  0  0  0
 11 15  1  0  0  0  0
 11 16  1  0  0  0  0
 17 18  1  0  0  0  0
 17 27  1  0  0  0  0
 18 19  1  0  0  0  0
 18 21  1  0  0  0  0
 18 28  1  0  0  0  0
 19 20  2  0  0  0  0
 19 35  1  0  0  0  0
 21 22  1  0  0  0  0
 21 29  1  0  0  0  0
 21 30  1  0  0  0  0
 22 23  1  0  0  0  0
 22 24  2  0  0  0  0
 23 25  2  0  0  0  0
 23 31  1  0  0  0  0
 24 26  1  0  0  0  0
 24 32  1  0  0  0  0
 25 26  1  0  0  0  0
 25 33  1  0  0  0  0
 26 34  1  0  0  0  0
 35 36  1  0  0  0  0
 35 40  1  0  0  0  0
 36 37  1  0  0  0  0
 36 39  1  0  0  0  0
 36 41  1  0  0  0  0
 37 38  2  0  0  0  0
 37 45  1  0  0  0  0
 39 42  1  0  0  0  0
 39 43  1  0  0  0  0
 39 44  1  0  0  0  0
 45 46  1  0  0  0  0
 45 47  1  0  0  0  0
 46 48  1  0  0  0  0
 46 49  1  0  0  0  0
 46 50  1  0  0  0  0
M  CHG  1  23   1
M  END
$$$$

  -OEChem-05262216443D

 50 50  0     1  0  0  0  0  0999 V2000
   -3.5227    0.4336    3.0215 C   0  0  0  0  0  0  0  0  0  0  0  0
   -3.5679    0.0085    1.8789 O   0  0  0  0  0  0  0  0  0  0  0  0
   -4.1983   -0.3252    4.1473 C   0  0  0  0  0  0  0  0  0  0  0  0
   -4.7445   -1.1836    3.7459 H   0  0  0  0  0  0  0  0  0  0  0  0
   -3.4501   -0.6848    4.8576 H   0  0  0  0  0  0  0  0  0  0  0  0
   -4.9039    0.3263    4.6683 H   0  0  0  0  0  0  0  0  0  0  0  0
   -2.8148    1.5887    3.2852 N   0  0  0  0  0  0  0  0  0  0  0  0
   -2.0124    2.2680    2.2582 C   0  0  2  0  0  0  0  0  0  0  0  0
   -0.6826    1.5359    1.9640 C   0  0  0  0  0  0  0  0  0  0  0  0
    0.0078    1.1572    2.9013 O   0  0  0  0  0  0  0  0  0  0  0  0
   -1.7509    3.6998    2.7310 C   0  0  0  0  0  0  0  0  0  0  0  0
   -2.6518    1.8144    4.2620 H   0  0  0  0  0  0  0  0  0  0  0  0
   -2.5893    2.3186    1.3275 H   0  0  0  0  0  0  0  0  0  0  0  0
   -1.1733    3.6998    3.6610 H   0  0  0  0  0  0  0  0  0  0  0  0
   -1.1902    4.2545    1.9724 H   0  0  0  0  0  0  0  0  0  0  0  0
   -2.6980    4.2199    2.9069 H   0  0  0  0  0  0  0  0  0  0  0  0
   -0.3216    1.3028    0.6452 N   0  0  0  0  0  0  0  0  0  0  0  0
    0.7642    0.4723    0.0686 C   0  0  2  0  0  0  0  0  0  0  0  0
    0.1319   -0.6175   -0.8344 C   0  0  0  0  0  0  0  0  0  0  0  0
   -0.9827   -0.4293   -1.3025 O   0  0  0  0  0  0  0  0  0  0  0  0
    1.9055   -0.0627    0.9791 C   0  0  0  0  0  0  0  0  0  0  0  0
    2.7692    1.0268    1.5849 C   0  0  0  0  0  0  0  0  0  0  0  0
    3.7394    1.7704    0.9070 N   0  3  0  0  0  0  0  0  0  0  0  0
    2.8745    1.3564    2.9135 C   0  0  0  0  0  0  0  0  0  0  0  0
    4.3791    2.5600    1.7366 C   0  0  0  0  0  0  0  0  0  0  0  0
    3.8574    2.3313    3.0063 N   0  0  0  0  0  0  0  0  0  0  0  0
   -1.1023    1.4420   -0.0012 H   0  0  0  0  0  0  0  0  0  0  0  0
    1.2707    1.1326   -0.6411 H   0  0  0  0  0  0  0  0  0  0  0  0
    2.5653   -0.7242    0.4111 H   0  0  0  0  0  0  0  0  0  0  0  0
    1.4601   -0.6684    1.7766 H   0  0  0  0  0  0  0  0  0  0  0  0
    3.8966    1.6932   -0.1009 H   0  0  0  0  0  0  0  0  0  0  0  0
    2.2829    0.9291    3.7251 H   0  0  0  0  0  0  0  0  0  0  0  0
    5.1763    3.2610    1.4823 H   0  0  0  0  0  0  0  0  0  0  0  0
    4.1519    2.7943    3.8711 H   0  0  0  0  0  0  0  0  0  0  0  0
    0.8453   -1.7203   -1.2641 N   0  0  0  0  0  0  0  0  0  0  0  0
    0.2389   -2.8722   -1.9447 C   0  0  2  0  0  0  0  0  0  0  0  0
    0.9085   -4.1760   -1.4619 C   0  0  0  0  0  0  0  0  0  0  0  0
    1.9101   -4.1081   -0.7535 O   0  0  0  0  0  0  0  0  0  0  0  0
    0.4049   -2.6947   -3.4566 C   0  0  0  0  0  0  0  0  0  0  0  0
    1.7092   -1.9362   -0.7692 H   0  0  0  0  0  0  0  0  0  0  0  0
   -0.8279   -2.9394   -1.7025 H   0  0  0  0  0  0  0  0  0  0  0  0
    1.4655   -2.6460   -3.7233 H   0  0  0  0  0  0  0  0  0  0  0  0
   -0.0518   -3.5308   -3.9949 H   0  0  0  0  0  0  0  0  0  0  0  0
   -0.0811   -1.7700   -3.7841 H   0  0  0  0  0  0  0  0  0  0  0  0
    0.3845   -5.4110   -1.7926 N   0  0  0  0  0  0  0  0  0  0  0  0
    0.9573   -6.6722   -1.3356 C   0  0  0  0  0  0  0  0  0  0  0  0
   -0.4630   -5.4319   -2.3538 H   0  0  0  0  0  0  0  0  0  0  0  0
    2.0012   -6.7587   -1.6558 H   0  0  0  0  0  0  0  0  0  0  0  0
    0.9175   -6.7383   -0.2432 H   0  0  0  0  0  0  0  0  0  0  0  0
    0.3987   -7.5156   -1.7535 H   0  0  0  0  0  0  0  0  0  0  0  0
  1  2  2  0  0  0  0
  1  3  1  0  0  0  0
  1  7  1  0  0  0  0
  3  4  1  0  0  0  0
  3  5  1  0  0  0  0
  3  6  1  0  0  0  0
  7  8  1  0  0  0  0
  7 12  1  0  0  0  0
  8  9  1  0  0  0  0
  8 11  1  0  0  0  0
  8 13  1  0  0  0  0
  9 10  2  0  0  0  0
  9 17  1  0  0  0  0
 11 14  1  0  0  0  0
 11 15  1  0  0  0  0
 11 16  1  0  0  0  0
 17 18  1  0  0  0  0
 17 27  1  0  0  0  0
 18 19  1  0  0  0  0
 18 21  1  0  0  0  0
 18 28  1  0  0  0  0
 19 20  2  0  0  0  0
 19 35  1  0  0  0  0
 21 22  1  0  0  0  0
 21 29  1  0  0  0  0
 21 30  1  0  0  0  0
 22 23  1  0  0  0  0
 22 24  2  0  0  0  0
 23 25  2  0  0  0  0
 23 31  1  0  0  0  0
 24 26  1  0  0  0  0
 24 32  1  0  0  0  0
 25 26  1  0  0  0  0
 25 33  1  0  0  0  0
 26 34  1  0  0  0  0
 35 36  1  0  0  0  0
 35 40  1  0  0  0  0
 36 37  1  0  0  0  0
 36 39  1  0  0  0  0
 36 41  1  0  0  0  0
 37 38  2  0  0  0  0
 37 45  1  0  0  0  0
 39 42  1  0  0  0  0
 39 43  1  0  0  0  0
 39 44  1  0  0  0  0
 45 46  1  0  0  0  0
 45 47  1  0  0  0  0
 46 48  1  0  0  0  0
 46 49  1  0  0  0  0
 46 50  1  0  0  0  0
M  CHG  1  23   1
M  END
$$$$

  -OEChem-05262216443D

 50 50  0     1  0  0  0  0  0999 V2000
   -3.1544   -0.0530    2.4659 C   0  0  0  0  0  0  0  0  0  0  0  0
   -2.8867   -0.3503    1.3128 O   0  0  0  0  0  0  0  0  0  0  0  0
   -3.8402   -1.0550    3.3739 C   0  0  0  0  0  0  0  0  0  0  0  0
   -4.0075   -1.9942    2.8390 H   0  0  0  0  0  0  0  0  0  0  0  0
   -3.2169   -1.2550    4.2487 H   0  0  0  0  0  0  0  0  0  0  0  0
   -4.8049   -0.6615    3.7030 H   0  0  0  0  0  0  0  0  0  0  0  0
   -2.7873    1.1870    2.9492 N   0  0  0  0  0  0  0  0  0  0  0  0
   -2.0036    2.1440    2.1563 C   0  0  2  0  0  0  0  0  0  0  0  0
   -0.5701    1.6342    1.8744 C   0  0  0  0  0  0  0  0  0  0  0  0
    0.1453    1.3185    2.8158 O   0  0  0  0  0  0  0  0  0  0  0  0
   -1.9761    3.4762    2.9099 C   0  0  0  0  0  0  0  0  0  0  0  0
   -2.9028    1.3506    3.9451 H   0  0  0  0  0  0  0  0  0  0  0  0
   -2.5067    2.3045    1.1960 H   0  0  0  0  0  0  0  0  0  0  0  0
   -1.4861    3.3602    3.8820 H   0  0  0  0  0  0  0  0  0  0  0  0
   -1.4295    4.2281    2.3323 H   0  0  0  0  0  0  0  0  0  0  0  0
   -2.9950    3.8413    3.0735 H   0  0  0  0  0  0  0  0  0  0  0  0
   -0.1813    1.4432    0.5573 N   0  0  0  0  0  0  0  0  0  0  0  0
    0.9256    0.6376   -0.0078 C   0  0  2  0  0  0  0  0  0  0  0  0
    0.2989   -0.4234   -0.9437 C   0  0  0  0  0  0  0  0  0  0  0  0
   -0.6721   -0.1030   -1.6163 O   0  0  0  0  0  0  0  0  0  0  0  0
    2.0622    0.0906    0.8985 C   0  0  0  0  0  0  0  0  0  0  0  0
    2.9100    1.1711    1.5402 C   0  0  0  0  0  0  0  0  0  0  0  0
    3.8782    1.9378    0.8861 N   0  3  0  0  0  0  0  0  0  0  0  0
    3.0061    1.4671    2.8771 C   0  0  0  0  0  0  0  0  0  0  0  0
    4.5075    2.7114    1.7380 C   0  0  0  0  0  0  0  0  0  0  0  0
    3.9819    2.4458    2.9991 N   0  0  0  0  0  0  0  0  0  0  0  0
   -0.9651    1.5403   -0.0938 H   0  0  0  0  0  0  0  0  0  0  0  0
    1.4381    1.3161   -0.6955 H   0  0  0  0  0  0  0  0  0  0  0  0
    2.7315   -0.5479    0.3137 H   0  0  0  0  0  0  0  0  0  0  0  0
    1.6158   -0.5396    1.6767 H   0  0  0  0  0  0  0  0  0  0  0  0
    4.0327    1.8946   -0.1241 H   0  0  0  0  0  0  0  0  0  0  0  0
    2.4116    1.0173    3.6742 H   0  0  0  0  0  0  0  0  0  0  0  0
    5.2980    3.4272    1.5046 H   0  0  0  0  0  0  0  0  0  0  0  0
    4.2669    2.8909    3.8763 H   0  0  0  0  0  0  0  0  0  0  0  0
    0.8763   -1.6612   -1.1536 N   0  0  0  0  0  0  0  0  0  0  0  0
    0.1383   -2.7892   -1.7382 C   0  0  2  0  0  0  0  0  0  0  0  0
    0.2873   -4.0289   -0.8321 C   0  0  0  0  0  0  0  0  0  0  0  0
    1.1445   -4.0291    0.0481 O   0  0  0  0  0  0  0  0  0  0  0  0
    0.6904   -3.0559   -3.1403 C   0  0  0  0  0  0  0  0  0  0  0  0
    1.5714   -1.9476   -0.4655 H   0  0  0  0  0  0  0  0  0  0  0  0
   -0.9316   -2.5622   -1.8090 H   0  0  0  0  0  0  0  0  0  0  0  0
    1.7550   -3.3061   -3.0937 H   0  0  0  0  0  0  0  0  0  0  0  0
    0.1575   -3.8873   -3.6118 H   0  0  0  0  0  0  0  0  0  0  0  0
    0.5671   -2.1677   -3.7682 H   0  0  0  0  0  0  0  0  0  0  0  0
   -0.5441   -5.1221   -0.9797 N   0  0  0  0  0  0  0  0  0  0  0  0
   -0.4762   -6.2995   -0.1217 C   0  0  0  0  0  0  0  0  0  0  0  0
   -1.2745   -5.0698   -1.6848 H   0  0  0  0  0  0  0  0  0  0  0  0
    0.5123   -6.7665   -0.1883 H   0  0  0  0  0  0  0  0  0  0  0  0
   -0.6666   -6.0260    0.9216 H   0  0  0  0  0  0  0  0  0  0  0  0
   -1.2263   -7.0352   -0.4279 H   0  0  0  0  0  0  0  0  0  0  0  0
  1  2  2  0  0  0  0
  1  3  1  0  0  0  0
  1  7  1  0  0  0  0
  3  4  1  0  0  0  0
  3  5  1  0  0  0  0
  3  6  1  0  0  0  0
  7  8  1  0  0  0  0
  7 12  1  0  0  0  0
  8  9  1  0  0  0  0
  8 11  1  0  0  0  0
  8 13  1  0  0  0  0
  9 10  2  0  0  0  0
  9 17  1  0  0  0  0
 11 14  1  0  0  0  0
 11 15  1  0  0  0  0
 11 16  1  0  0  0  0
 17 18  1  0  0  0  0
 17 27  1  0  0  0  0
 18 19  1  0  0  0  0
 18 21  1  0  0  0  0
 18 28  1  0  0  0  0
 19 20  2  0  0  0  0
 19 35  1  0  0  0  0
 21 22  1  0  0  0  0
 21 29  1  0  0  0  0
 21 30  1  0  0  0  0
 22 23  1  0  0  0  0
 22 24  2  0  0  0  0
 23 25  2  0  0  0  0
 23 31  1  0  0  0  0
 24 26  1  0  0  0  0
 24 32  1  0  0  0  0
 25 26  1  0  0  0  0
 25 33  1  0  0  0  0
 26 34  1  0  0  0  0
 35 36  1  0  0  0  0
 35 40  1  0  0  0  0
 36 37  1  0  0  0  0
 36 39  1  0  0  0  0
 36 41  1  0  0  0  0
 37 38  2  0  0  0  0
 37 45  1  0  0  0  0
 39 42  1  0  0  0  0
 39 43  1  0  0  0  0
 39 44  1  0  0  0  0
 45 46  1  0  0  0  0
 45 47  1  0  0  0  0
 46 48  1  0  0  0  0
 46 49  1  0  0  0  0
 46 50  1  0  0  0  0
M  CHG  1  23   1
M  END
$$$$

  -OEChem-05262216443D

 50 50  0     1  0  0  0  0  0999 V2000
   -2.9361   -0.3286    2.0100 C   0  0  0  0  0  0  0  0  0  0  0  0
   -2.5779   -0.4501    0.8491 O   0  0  0  0  0  0  0  0  0  0  0  0
   -3.5763   -1.4960    2.7352 C   0  0  0  0  0  0  0  0  0  0  0  0
   -3.5984   -2.3756    2.0857 H   0  0  0  0  0  0  0  0  0  0  0  0
   -3.0039   -1.7386    3.6336 H   0  0  0  0  0  0  0  0  0  0  0  0
   -4.6002   -1.2415    3.0197 H   0  0  0  0  0  0  0  0  0  0  0  0
   -2.7179    0.8651    2.6696 N   0  0  0  0  0  0  0  0  0  0  0  0
   -1.9913    1.9909    2.0651 C   0  0  2  0  0  0  0  0  0  0  0  0
   -0.5059    1.6453    1.8048 C   0  0  0  0  0  0  0  0  0  0  0  0
    0.2232    1.3900    2.7535 O   0  0  0  0  0  0  0  0  0  0  0  0
   -2.1305    3.2006    2.9936 C   0  0  0  0  0  0  0  0  0  0  0  0
   -2.9140    0.8867    3.6664 H   0  0  0  0  0  0  0  0  0  0  0  0
   -2.4587    2.2424    1.1066 H   0  0  0  0  0  0  0  0  0  0  0  0
   -1.6910    2.9897    3.9740 H   0  0  0  0  0  0  0  0  0  0  0  0
   -1.6216    4.0693    2.5645 H   0  0  0  0  0  0  0  0  0  0  0  0
   -3.1866    3.4536    3.1314 H   0  0  0  0  0  0  0  0  0  0  0  0
   -0.0977    1.4661    0.4925 N   0  0  0  0  0  0  0  0  0  0  0  0
    1.0366    0.6882   -0.0517 C   0  0  2  0  0  0  0  0  0  0  0  0
    0.4338   -0.3813   -0.9880 C   0  0  0  0  0  0  0  0  0  0  0  0
   -0.3858   -0.0194   -1.8214 O   0  0  0  0  0  0  0  0  0  0  0  0
    2.1804    0.1681    0.8595 C   0  0  0  0  0  0  0  0  0  0  0  0
    2.9994    1.2670    1.5069 C   0  0  0  0  0  0  0  0  0  0  0  0
    3.9523    2.0555    0.8570 N   0  3  0  0  0  0  0  0  0  0  0  0
    3.0783    1.5699    2.8432 C   0  0  0  0  0  0  0  0  0  0  0  0
    4.5527    2.8507    1.7098 C   0  0  0  0  0  0  0  0  0  0  0  0
    4.0256    2.5760    2.9682 N   0  0  0  0  0  0  0  0  0  0  0  0
   -0.8815    1.5208   -0.1639 H   0  0  0  0  0  0  0  0  0  0  0  0
    1.5389    1.3771   -0.7368 H   0  0  0  0  0  0  0  0  0  0  0  0
    2.8614   -0.4586    0.2743 H   0  0  0  0  0  0  0  0  0  0  0  0
    1.7435   -0.4685    1.6379 H   0  0  0  0  0  0  0  0  0  0  0  0
    4.1122    2.0145   -0.1524 H   0  0  0  0  0  0  0  0  0  0  0  0
    2.4872    1.1095    3.6367 H   0  0  0  0  0  0  0  0  0  0  0  0
    5.3226    3.5890    1.4787 H   0  0  0  0  0  0  0  0  0  0  0  0
    4.2861    3.0380    3.8442 H   0  0  0  0  0  0  0  0  0  0  0  0
    0.8465   -1.6994   -0.9647 N   0  0  0  0  0  0  0  0  0  0  0  0
   -0.0142   -2.7849   -1.4549 C   0  0  2  0  0  0  0  0  0  0  0  0
   -0.2793   -3.7908   -0.3150 C   0  0  0  0  0  0  0  0  0  0  0  0
    0.4162   -3.7509    0.6973 O   0  0  0  0  0  0  0  0  0  0  0  0
    0.6863   -3.4569   -2.6372 C   0  0  0  0  0  0  0  0  0  0  0  0
    1.3875   -1.9630   -0.1422 H   0  0  0  0  0  0  0  0  0  0  0  0
   -0.9866   -2.4012   -1.7846 H   0  0  0  0  0  0  0  0  0  0  0  0
    1.6500   -3.8733   -2.3271 H   0  0  0  0  0  0  0  0  0  0  0  0
    0.0701   -4.2666   -3.0395 H   0  0  0  0  0  0  0  0  0  0  0  0
    0.8604   -2.7279   -3.4350 H   0  0  0  0  0  0  0  0  0  0  0  0
   -1.2876   -4.7303   -0.4142 N   0  0  0  0  0  0  0  0  0  0  0  0
   -1.5879   -5.6959    0.6368 C   0  0  0  0  0  0  0  0  0  0  0  0
   -1.8667   -4.7163   -1.2495 H   0  0  0  0  0  0  0  0  0  0  0  0
   -0.7247   -6.3451    0.8185 H   0  0  0  0  0  0  0  0  0  0  0  0
   -1.8441   -5.1816    1.5692 H   0  0  0  0  0  0  0  0  0  0  0  0
   -2.4359   -6.3233    0.3448 H   0  0  0  0  0  0  0  0  0  0  0  0
  1  2  2  0  0  0  0
  1  3  1  0  0  0  0
  1  7  1  0  0  0  0
  3  4  1  0  0  0  0
  3  5  1  0  0  0  0
  3  6  1  0  0  0  0
  7  8  1  0  0  0  0
  7 12  1  0  0  0  0
  8  9  1  0  0  0  0
  8 11  1  0  0  0  0
  8 13  1  0  0  0  0
  9 10  2  0  0  0  0
  9 17  1  0  0  0  0
 11 14  1  0  0  0  0
 11 15  1  0  0  0  0
 11 16  1  0  0  0  0
 17 18  1  0  0  0  0
 17 27  1  0  0  0  0
 18 19  1  0  0  0  0
 18 21  1  0  0  0  0
 18 28  1  0  0  0  0
 19 20  2  0  0  0  0
 19 35  1  0  0  0  0
 21 22  1  0  0  0  0
 21 29  1  0  0  0  0
 21 30  1  0  0  0  0
 22 23  1  0  0  0  0
 22 24  2  0  0  0  0
 23 25  2  0  0  0  0
 23 31  1  0  0  0  0
 24 26  1  0  0  0  0
 24 32  1  0  0  0  0
 25 26  1  0  0  0  0
 25 33  1  0  0  0  0
 26 34  1  0  0  0  0
 35 36  1  0  0  0  0
 35 40  1  0  0  0  0
 36 37  1  0  0  0  0
 36 39  1  0  0  0  0
 36 41  1  0  0  0  0
 37 38  2  0  0  0  0
 37 45  1  0  0  0  0
 39 42  1  0  0  0  0
 39 43  1  0  0  0  0
 39 44  1  0  0  0  0
 45 46  1  0  0  0  0
 45 47  1  0  0  0  0
 46 48  1  0  0  0  0
 46 49  1  0  0  0  0
 46 50  1  0  0  0  0
M  CHG  1  23   1
M  END
$$$$

  -OEChem-05262216443D

 50 50  0     1  0  0  0  0  0999 V2000
   -3.7725    0.0986    3.2612 C   0  0  0  0  0  0  0  0  0  0  0  0
   -4.5754    0.3560    2.3797 O   0  0  0  0  0  0  0  0  0  0  0  0
   -4.1682   -0.8076    4.4111 C   0  0  0  0  0  0  0  0  0  0  0  0
   -3.5392   -1.7010    4.4170 H   0  0  0  0  0  0  0  0  0  0  0  0
   -4.0506   -0.2799    5.3604 H   0  0  0  0  0  0  0  0  0  0  0  0
   -5.2131   -1.1133    4.3061 H   0  0  0  0  0  0  0  0  0  0  0  0
   -2.4985    0.6264    3.2041 N   0  0  0  0  0  0  0  0  0  0  0  0
   -1.9721    1.3759    2.0543 C   0  0  2  0  0  0  0  0  0  0  0  0
   -0.5148    0.9866    1.7293 C   0  0  0  0  0  0  0  0  0  0  0  0
    0.2189    0.6060    2.6332 O   0  0  0  0  0  0  0  0  0  0  0  0
   -2.0821    2.8699    2.3660 C   0  0  0  0  0  0  0  0  0  0  0  0
   -1.8258    0.2812    3.8859 H   0  0  0  0  0  0  0  0  0  0  0  0
   -2.5704    1.1562    1.1628 H   0  0  0  0  0  0  0  0  0  0  0  0
   -1.4988    3.1210    3.2573 H   0  0  0  0  0  0  0  0  0  0  0  0
   -1.7143    3.4662    1.5257 H   0  0  0  0  0  0  0  0  0  0  0  0
   -3.1279    3.1396    2.5466 H   0  0  0  0  0  0  0  0  0  0  0  0
   -0.1038    0.9747    0.4052 N   0  0  0  0  0  0  0  0  0  0  0  0
    1.1437    0.4715   -0.2137 C   0  0  2  0  0  0  0  0  0  0  0  0
    0.7545   -0.6292   -1.2219 C   0  0  0  0  0  0  0  0  0  0  0  0
   -0.0546   -0.3442   -2.0937 O   0  0  0  0  0  0  0  0  0  0  0  0
    2.3733    0.1144    0.6607 C   0  0  0  0  0  0  0  0  0  0  0  0
    2.9614    1.3077    1.3866 C   0  0  0  0  0  0  0  0  0  0  0  0
    3.7334    2.3175    0.8055 N   0  3  0  0  0  0  0  0  0  0  0  0
    2.9684    1.5304    2.7411 C   0  0  0  0  0  0  0  0  0  0  0  0
    4.1596    3.1558    1.7199 C   0  0  0  0  0  0  0  0  0  0  0  0
    3.6954    2.6944    2.9486 N   0  0  0  0  0  0  0  0  0  0  0  0
   -0.8559    1.1607   -0.2609 H   0  0  0  0  0  0  0  0  0  0  0  0
    1.4940    1.2937   -0.8450 H   0  0  0  0  0  0  0  0  0  0  0  0
    3.1549   -0.3230    0.0303 H   0  0  0  0  0  0  0  0  0  0  0  0
    2.0819   -0.6510    1.3890 H   0  0  0  0  0  0  0  0  0  0  0  0
    3.9059    2.3778   -0.2011 H   0  0  0  0  0  0  0  0  0  0  0  0
    2.4822    0.9073    3.4942 H   0  0  0  0  0  0  0  0  0  0  0  0
    4.7671    4.0474    1.5517 H   0  0  0  0  0  0  0  0  0  0  0  0
    3.8627    3.1333    3.8590 H   0  0  0  0  0  0  0  0  0  0  0  0
    1.2159   -1.9278   -1.1020 N   0  0  0  0  0  0  0  0  0  0  0  0
    0.4548   -3.0542   -1.6640 C   0  0  2  0  0  0  0  0  0  0  0  0
   -0.5401   -3.5983   -0.6157 C   0  0  0  0  0  0  0  0  0  0  0  0
   -0.3089   -3.4231    0.5770 O   0  0  0  0  0  0  0  0  0  0  0  0
    1.4499   -4.1386   -2.0827 C   0  0  0  0  0  0  0  0  0  0  0  0
    1.6403   -2.1323   -0.2002 H   0  0  0  0  0  0  0  0  0  0  0  0
   -0.1110   -2.7466   -2.5502 H   0  0  0  0  0  0  0  0  0  0  0  0
    2.0215   -4.4923   -1.2184 H   0  0  0  0  0  0  0  0  0  0  0  0
    0.9233   -4.9918   -2.5220 H   0  0  0  0  0  0  0  0  0  0  0  0
    2.1487   -3.7441   -2.8271 H   0  0  0  0  0  0  0  0  0  0  0  0
   -1.6872   -4.2658   -0.9996 N   0  0  0  0  0  0  0  0  0  0  0  0
   -2.6964   -4.7253   -0.0515 C   0  0  0  0  0  0  0  0  0  0  0  0
   -1.8872   -4.3289   -1.9942 H   0  0  0  0  0  0  0  0  0  0  0  0
   -2.2514   -5.4007    0.6872 H   0  0  0  0  0  0  0  0  0  0  0  0
   -3.1448   -3.8753    0.4740 H   0  0  0  0  0  0  0  0  0  0  0  0
   -3.4908   -5.2658   -0.5756 H   0  0  0  0  0  0  0  0  0  0  0  0
  1  2  2  0  0  0  0
  1  3  1  0  0  0  0
  1  7  1  0  0  0  0
  3  4  1  0  0  0  0
  3  5  1  0  0  0  0
  3  6  1  0  0  0  0
  7  8  1  0  0  0  0
  7 12  1  0  0  0  0
  8  9  1  0  0  0  0
  8 11  1  0  0  0  0
  8 13  1  0  0  0  0
  9 10  2  0  0  0  0
  9 17  1  0  0  0  0
 11 14  1  0  0  0  0
 11 15  1  0  0  0  0
 11 16  1  0  0  0  0
 17 18  1  0  0  0  0
 17 27  1  0  0  0  0
 18 19  1  0  0  0  0
 18 21  1  0  0  0  0
 18 28  1  0  0  0  0
 19 20  2  0  0  0  0
 19 35  1  0  0  0  0
 21 22  1  0  0  0  0
 21 29  1  0  0  0  0
 21 30  1  0  0  0  0
 22 23  1  0  0  0  0
 22 24  2  0  0  0  0
 23 25  2  0  0  0  0
 23 31  1  0  0  0  0
 24 26  1  0  0  0  0
 24 32  1  0  0  0  0
 25 26  1  0  0  0  0
 25 33  1  0  0  0  0
 26 34  1  0  0  0  0
 35 36  1  0  0  0  0
 35 40  1  0  0  0  0
 36 37  1  0  0  0  0
 36 39  1  0  0  0  0
 36 41  1  0  0  0  0
 37 38  2  0  0  0  0
 37 45  1  0  0  0  0
 39 42  1  0  0  0  0
 39 43  1  0  0  0  0
 39 44  1  0  0  0  0
 45 46  1  0  0  0  0
 45 47  1  0  0  0  0
 46 48  1  0  0  0  0
 46 49  1  0  0  0  0
 46 50  1  0  0  0  0
M  CHG  1  23   1
M  END
$$$$

  -OEChem-05262216443D

 50 50  0     1  0  0  0  0  0999 V2000
   -1.5934   -0.8502    3.1301 C   0  0  0  0  0  0  0  0  0  0  0  0
   -0.6128   -1.1937    2.4807 O   0  0  0  0  0  0  0  0  0  0  0  0
   -2.0213   -1.6808    4.3246 C   0  0  0  0  0  0  0  0  0  0  0  0
   -1.3718   -2.5540    4.4318 H   0  0  0  0  0  0  0  0  0  0  0  0
   -1.9609   -1.0820    5.2366 H   0  0  0  0  0  0  0  0  0  0  0  0
   -3.0499   -2.0246    4.1901 H   0  0  0  0  0  0  0  0  0  0  0  0
   -2.2957    0.3019    2.8267 N   0  0  0  0  0  0  0  0  0  0  0  0
   -2.1279    1.0730    1.5841 C   0  0  2  0  0  0  0  0  0  0  0  0
   -0.6851    1.5754    1.3388 C   0  0  0  0  0  0  0  0  0  0  0  0
   -0.0712    2.1456    2.2289 O   0  0  0  0  0  0  0  0  0  0  0  0
   -3.0955    2.2576    1.6352 C   0  0  0  0  0  0  0  0  0  0  0  0
   -3.1130    0.4951    3.3981 H   0  0  0  0  0  0  0  0  0  0  0  0
   -2.4102    0.4299    0.7431 H   0  0  0  0  0  0  0  0  0  0  0  0
   -2.8483    2.9198    2.4716 H   0  0  0  0  0  0  0  0  0  0  0  0
   -3.0393    2.8349    0.7069 H   0  0  0  0  0  0  0  0  0  0  0  0
   -4.1246    1.9058    1.7589 H   0  0  0  0  0  0  0  0  0  0  0  0
   -0.0761    1.1902    0.1580 N   0  0  0  0  0  0  0  0  0  0  0  0
    1.1894    0.4374    0.0581 C   0  0  2  0  0  0  0  0  0  0  0  0
    0.8340   -0.8643   -0.6769 C   0  0  0  0  0  0  0  0  0  0  0  0
    0.6792   -0.8324   -1.8904 O   0  0  0  0  0  0  0  0  0  0  0  0
    2.1900    0.2527    1.2294 C   0  0  0  0  0  0  0  0  0  0  0  0
    2.8289    1.5348    1.7178 C   0  0  0  0  0  0  0  0  0  0  0  0
    3.8354    2.2383    1.0525 N   0  3  0  0  0  0  0  0  0  0  0  0
    2.6613    2.1381    2.9386 C   0  0  0  0  0  0  0  0  0  0  0  0
    4.2279    3.2659    1.7665 C   0  0  0  0  0  0  0  0  0  0  0  0
    3.5125    3.2335    2.9601 N   0  0  0  0  0  0  0  0  0  0  0  0
   -0.7603    0.8701   -0.5298 H   0  0  0  0  0  0  0  0  0  0  0  0
    1.7710    1.0037   -0.6758 H   0  0  0  0  0  0  0  0  0  0  0  0
    2.9823   -0.4359    0.9181 H   0  0  0  0  0  0  0  0  0  0  0  0
    1.6694   -0.2174    2.0679 H   0  0  0  0  0  0  0  0  0  0  0  0
    4.1524    1.9942    0.1112 H   0  0  0  0  0  0  0  0  0  0  0  0
    1.9527    1.8283    3.7079 H   0  0  0  0  0  0  0  0  0  0  0  0
    4.9708    4.0111    1.4776 H   0  0  0  0  0  0  0  0  0  0  0  0
    3.5705    3.9215    3.7159 H   0  0  0  0  0  0  0  0  0  0  0  0
    0.7323   -2.0594    0.0078 N   0  0  0  0  0  0  0  0  0  0  0  0
    0.0245   -3.1845   -0.6214 C   0  0  2  0  0  0  0  0  0  0  0  0
   -1.4817   -2.9007   -0.8616 C   0  0  0  0  0  0  0  0  0  0  0  0
   -2.0711   -2.0209   -0.2395 O   0  0  0  0  0  0  0  0  0  0  0  0
    0.1925   -4.3974    0.2964 C   0  0  0  0  0  0  0  0  0  0  0  0
    0.5147   -1.9197    0.9997 H   0  0  0  0  0  0  0  0  0  0  0  0
    0.4854   -3.4065   -1.5899 H   0  0  0  0  0  0  0  0  0  0  0  0
   -0.2675   -4.2053    1.2715 H   0  0  0  0  0  0  0  0  0  0  0  0
   -0.2817   -5.2804   -0.1430 H   0  0  0  0  0  0  0  0  0  0  0  0
    1.2542   -4.6157    0.4478 H   0  0  0  0  0  0  0  0  0  0  0  0
   -2.1855   -3.6415   -1.7930 N   0  0  0  0  0  0  0  0  0  0  0  0
   -3.5817   -3.3860   -2.1300 C   0  0  0  0  0  0  0  0  0  0  0  0
   -1.6618   -4.3045   -2.3573 H   0  0  0  0  0  0  0  0  0  0  0  0
   -4.2142   -3.4741   -1.2403 H   0  0  0  0  0  0  0  0  0  0  0  0
   -3.6980   -2.3799   -2.5467 H   0  0  0  0  0  0  0  0  0  0  0  0
   -3.9312   -4.1101   -2.8726 H   0  0  0  0  0  0  0  0  0  0  0  0
  1  2  2  0  0  0  0
  1  3  1  0  0  0  0
  1  7  1  0  0  0  0
  3  4  1  0  0  0  0
  3  5  1  0  0  0  0
  3  6  1  0  0  0  0
  7  8  1  0  0  0  0
  7 12  1  0  0  0  0
  8  9  1  0  0  0  0
  8 11  1  0  0  0  0
  8 13  1  0  0  0  0
  9 10  2  0  0  0  0
  9 17  1  0  0  0  0
 11 14  1  0  0  0  0
 11 15  1  0  0  0  0
 11 16  1  0  0  0  0
 17 18  1  0  0  0  0
 17 27  1  0  0  0  0
 18 19  1  0  0  0  0
 18 21  1  0  0  0  0
 18 28  1  0  0  0  0
 19 20  2  0  0  0  0
 19 35  1  0  0  0  0
 21 22  1  0  0  0  0
 21 29  1  0  0  0  0
 21 30  1  0  0  0  0
 22 23  1  0  0  0  0
 22 24  2  0  0  0  0
 23 25  2  0  0  0  0
 23 31  1  0  0  0  0
 24 26  1  0  0  0  0
 24 32  1  0  0  0  0
 25 26  1  0  0  0  0
 25 33  1  0  0  0  0
 26 34  1  0  0  0  0
 35 36  1  0  0  0  0
 35 40  1  0  0  0  0
 36 37  1  0  0  0  0
 36 39  1  0  0  0  0
 36 41  1  0  0  0  0
 37 38  2  0  0  0  0
 37 45  1  0  0  0  0
 39 42  1  0  0  0  0
 39 43  1  0  0  0  0
 39 44  1  0  0  0  0
 45 46  1  0  0  0  0
 45 47  1  0  0  0  0
 46 48  1  0  0  0  0
 46 49  1  0  0  0  0
 46 50  1  0  0  0  0
M  CHG  1  23   1
M  END
$$$$

  -OEChem-05262216443D

 50 50  0     1  0  0  0  0  0999 V2000
   -1.7677   -0.7546    3.1485 C   0  0  0  0  0  0  0  0  0  0  0  0
   -0.8078   -1.1770    2.5147 O   0  0  0  0  0  0  0  0  0  0  0  0
   -2.2466   -1.5193    4.3672 C   0  0  0  0  0  0  0  0  0  0  0  0
   -3.3012   -1.7822    4.2522 H   0  0  0  0  0  0  0  0  0  0  0  0
   -1.6681   -2.4392    4.4890 H   0  0  0  0  0  0  0  0  0  0  0  0
   -2.1270   -0.9060    5.2637 H   0  0  0  0  0  0  0  0  0  0  0  0
   -2.4086    0.4197    2.7969 N   0  0  0  0  0  0  0  0  0  0  0  0
   -2.1600    1.1685    1.5531 C   0  0  2  0  0  0  0  0  0  0  0  0
   -0.6708    1.5139    1.3170 C   0  0  0  0  0  0  0  0  0  0  0  0
   -0.0208    2.0349    2.2113 O   0  0  0  0  0  0  0  0  0  0  0  0
   -2.9922    2.4524    1.6021 C   0  0  0  0  0  0  0  0  0  0  0  0
   -3.2083    0.6875    3.3630 H   0  0  0  0  0  0  0  0  0  0  0  0
   -2.5087    0.5643    0.7097 H   0  0  0  0  0  0  0  0  0  0  0  0
   -2.6832    3.0794    2.4450 H   0  0  0  0  0  0  0  0  0  0  0  0
   -2.8621    3.0248    0.6781 H   0  0  0  0  0  0  0  0  0  0  0  0
   -4.0550    2.2158    1.7121 H   0  0  0  0  0  0  0  0  0  0  0  0
   -0.0839    1.0828    0.1393 N   0  0  0  0  0  0  0  0  0  0  0  0
    1.1898    0.3427    0.0097 C   0  0  2  0  0  0  0  0  0  0  0  0
    0.8535   -0.9953   -0.6650 C   0  0  0  0  0  0  0  0  0  0  0  0
    0.8990   -1.0755   -1.8846 O   0  0  0  0  0  0  0  0  0  0  0  0
    2.2158    0.1786    1.1609 C   0  0  0  0  0  0  0  0  0  0  0  0
    2.8542    1.4664    1.6354 C   0  0  0  0  0  0  0  0  0  0  0  0
    3.8417    2.1744    0.9470 N   0  3  0  0  0  0  0  0  0  0  0  0
    2.7193    2.0631    2.8636 C   0  0  0  0  0  0  0  0  0  0  0  0
    4.2505    3.2001    1.6547 C   0  0  0  0  0  0  0  0  0  0  0  0
    3.5672    3.1610    2.8668 N   0  0  0  0  0  0  0  0  0  0  0  0
   -0.7874    0.7540   -0.5254 H   0  0  0  0  0  0  0  0  0  0  0  0
    1.7436    0.9023   -0.7506 H   0  0  0  0  0  0  0  0  0  0  0  0
    3.0081   -0.5060    0.8400 H   0  0  0  0  0  0  0  0  0  0  0  0
    1.7074   -0.2936    2.0083 H   0  0  0  0  0  0  0  0  0  0  0  0
    4.1355    1.9332   -0.0029 H   0  0  0  0  0  0  0  0  0  0  0  0
    2.0363    1.7449    3.6521 H   0  0  0  0  0  0  0  0  0  0  0  0
    4.9850    3.9475    1.3502 H   0  0  0  0  0  0  0  0  0  0  0  0
    3.6461    3.8442    3.6251 H   0  0  0  0  0  0  0  0  0  0  0  0
    0.5151   -2.0967    0.0963 N   0  0  0  0  0  0  0  0  0  0  0  0
   -0.2664   -3.1787   -0.5192 C   0  0  2  0  0  0  0  0  0  0  0  0
   -1.7100   -2.7417   -0.8792 C   0  0  0  0  0  0  0  0  0  0  0  0
   -2.1825   -1.6930   -0.4467 O   0  0  0  0  0  0  0  0  0  0  0  0
   -0.2920   -4.3441    0.4726 C   0  0  0  0  0  0  0  0  0  0  0  0
    0.2258   -1.8483    1.0484 H   0  0  0  0  0  0  0  0  0  0  0  0
    0.2264   -3.5113   -1.4394 H   0  0  0  0  0  0  0  0  0  0  0  0
   -0.7919   -4.0462    1.4003 H   0  0  0  0  0  0  0  0  0  0  0  0
   -0.8275   -5.1989    0.0483 H   0  0  0  0  0  0  0  0  0  0  0  0
    0.7280   -4.6610    0.7119 H   0  0  0  0  0  0  0  0  0  0  0  0
   -2.4895   -3.5298   -1.7052 N   0  0  0  0  0  0  0  0  0  0  0  0
   -3.8344   -3.1581   -2.1307 C   0  0  0  0  0  0  0  0  0  0  0  0
   -2.0592   -4.3560   -2.1106 H   0  0  0  0  0  0  0  0  0  0  0  0
   -4.4892   -3.0264   -1.2628 H   0  0  0  0  0  0  0  0  0  0  0  0
   -3.8116   -2.2227   -2.6999 H   0  0  0  0  0  0  0  0  0  0  0  0
   -4.2608   -3.9395   -2.7673 H   0  0  0  0  0  0  0  0  0  0  0  0
  1  2  2  0  0  0  0
  1  3  1  0  0  0  0
  1  7  1  0  0  0  0
  3  4  1  0  0  0  0
  3  5  1  0  0  0  0
  3  6  1  0  0  0  0
  7  8  1  0  0  0  0
  7 12  1  0  0  0  0
  8  9  1  0  0  0  0
  8 11  1  0  0  0  0
  8 13  1  0  0  0  0
  9 10  2  0  0  0  0
  9 17  1  0  0  0  0
 11 14  1  0  0  0  0
 11 15  1  0  0  0  0
 11 16  1  0  0  0  0
 17 18  1  0  0  0  0
 17 27  1  0  0  0  0
 18 19  1  0  0  0  0
 18 21  1  0  0  0  0
 18 28  1  0  0  0  0
 19 20  2  0  0  0  0
 19 35  1  0  0  0  0
 21 22  1  0  0  0  0
 21 29  1  0  0  0  0
 21 30  1  0  0  0  0
 22 23  1  0  0  0  0
 22 24  2  0  0  0  0
 23 25  2  0  0  0  0
 23 31  1  0  0  0  0
 24 26  1  0  0  0  0
 24 32  1  0  0  0  0
 25 26  1  0  0  0  0
 25 33  1  0  0  0  0
 26 34  1  0  0  0  0
 35 36  1  0  0  0  0
 35 40  1  0  0  0  0
 36 37  1  0  0  0  0
 36 39  1  0  0  0  0
 36 41  1  0  0  0  0
 37 38  2  0  0  0  0
 37 45  1  0  0  0  0
 39 42  1  0  0  0  0
 39 43  1  0  0  0  0
 39 44  1  0  0  0  0
 45 46  1  0  0  0  0
 45 47  1  0  0  0  0
 46 48  1  0  0  0  0
 46 49  1  0  0  0  0
 46 50  1  0  0  0  0
M  CHG  1  23   1
M  END
$$$$

  -OEChem-05262216443D

 50 50  0     1  0  0  0  0  0999 V2000
   -2.0645   -0.7370    3.1902 C   0  0  0  0  0  0  0  0  0  0  0  0
   -1.2214   -1.3105    2.5114 O   0  0  0  0  0  0  0  0  0  0  0  0
   -2.5394   -1.3677    4.4849 C   0  0  0  0  0  0  0  0  0  0  0  0
   -2.0690   -2.3452    4.6245 H   0  0  0  0  0  0  0  0  0  0  0  0
   -2.2779   -0.7271    5.3309 H   0  0  0  0  0  0  0  0  0  0  0  0
   -3.6238   -1.5010    4.4595 H   0  0  0  0  0  0  0  0  0  0  0  0
   -2.5696    0.4913    2.8067 N   0  0  0  0  0  0  0  0  0  0  0  0
   -2.2083    1.1813    1.5575 C   0  0  2  0  0  0  0  0  0  0  0  0
   -0.6822    1.3669    1.3804 C   0  0  0  0  0  0  0  0  0  0  0  0
   -0.0197    1.7792    2.3218 O   0  0  0  0  0  0  0  0  0  0  0  0
   -2.9085    2.5420    1.5487 C   0  0  0  0  0  0  0  0  0  0  0  0
   -3.2438    0.9300    3.4269 H   0  0  0  0  0  0  0  0  0  0  0  0
   -2.5859    0.5952    0.7148 H   0  0  0  0  0  0  0  0  0  0  0  0
   -2.5641    3.1584    2.3855 H   0  0  0  0  0  0  0  0  0  0  0  0
   -2.6951    3.0730    0.6156 H   0  0  0  0  0  0  0  0  0  0  0  0
   -3.9922    2.4132    1.6302 H   0  0  0  0  0  0  0  0  0  0  0  0
   -0.0918    0.9140    0.2115 N   0  0  0  0  0  0  0  0  0  0  0  0
    1.2013    0.2047    0.0760 C   0  0  2  0  0  0  0  0  0  0  0  0
    0.9124   -1.1619   -0.5561 C   0  0  0  0  0  0  0  0  0  0  0  0
    1.2072   -1.3533   -1.7278 O   0  0  0  0  0  0  0  0  0  0  0  0
    2.2559    0.1037    1.2053 C   0  0  0  0  0  0  0  0  0  0  0  0
    2.8657    1.4260    1.6214 C   0  0  0  0  0  0  0  0  0  0  0  0
    3.8147    2.1331    0.8800 N   0  3  0  0  0  0  0  0  0  0  0  0
    2.7452    2.0675    2.8285 C   0  0  0  0  0  0  0  0  0  0  0  0
    4.2167    3.1940    1.5377 C   0  0  0  0  0  0  0  0  0  0  0  0
    3.5649    3.1853    2.7676 N   0  0  0  0  0  0  0  0  0  0  0  0
   -0.7969    0.5746   -0.4506 H   0  0  0  0  0  0  0  0  0  0  0  0
    1.7198    0.7642   -0.7090 H   0  0  0  0  0  0  0  0  0  0  0  0
    3.0603   -0.5681    0.8866 H   0  0  0  0  0  0  0  0  0  0  0  0
    1.7784   -0.3579    2.0769 H   0  0  0  0  0  0  0  0  0  0  0  0
    4.0951    1.8585   -0.0649 H   0  0  0  0  0  0  0  0  0  0  0  0
    2.0956    1.7601    3.6491 H   0  0  0  0  0  0  0  0  0  0  0  0
    4.9268    3.9448    1.1869 H   0  0  0  0  0  0  0  0  0  0  0  0
    3.6536    3.8938    3.5013 H   0  0  0  0  0  0  0  0  0  0  0  0
    0.3336   -2.1658    0.1950 N   0  0  0  0  0  0  0  0  0  0  0  0
   -0.5140   -3.1471   -0.4963 C   0  0  2  0  0  0  0  0  0  0  0  0
   -1.8135   -2.5105   -1.0579 C   0  0  0  0  0  0  0  0  0  0  0  0
   -2.1024   -1.3371   -0.8251 O   0  0  0  0  0  0  0  0  0  0  0  0
   -0.8411   -4.2587    0.5043 C   0  0  0  0  0  0  0  0  0  0  0  0
   -0.0412   -1.8389    1.0921 H   0  0  0  0  0  0  0  0  0  0  0  0
    0.0372   -3.5852   -1.3357 H   0  0  0  0  0  0  0  0  0  0  0  0
   -1.4193   -3.8606    1.3444 H   0  0  0  0  0  0  0  0  0  0  0  0
   -1.4253   -5.0498    0.0246 H   0  0  0  0  0  0  0  0  0  0  0  0
    0.0809   -4.7013    0.8947 H   0  0  0  0  0  0  0  0  0  0  0  0
   -2.6573   -3.2522   -1.8634 N   0  0  0  0  0  0  0  0  0  0  0  0
   -3.8560   -2.7058   -2.4901 C   0  0  0  0  0  0  0  0  0  0  0  0
   -2.3681   -4.1964   -2.1024 H   0  0  0  0  0  0  0  0  0  0  0  0
   -4.5545   -2.3392   -1.7303 H   0  0  0  0  0  0  0  0  0  0  0  0
   -3.5963   -1.8776   -3.1582 H   0  0  0  0  0  0  0  0  0  0  0  0
   -4.3617   -3.4782   -3.0781 H   0  0  0  0  0  0  0  0  0  0  0  0
  1  2  2  0  0  0  0
  1  3  1  0  0  0  0
  1  7  1  0  0  0  0
  3  4  1  0  0  0  0
  3  5  1  0  0  0  0
  3  6  1  0  0  0  0
  7  8  1  0  0  0  0
  7 12  1  0  0  0  0
  8  9  1  0  0  0  0
  8 11  1  0  0  0  0
  8 13  1  0  0  0  0
  9 10  2  0  0  0  0
  9 17  1  0  0  0  0
 11 14  1  0  0  0  0
 11 15  1  0  0  0  0
 11 16  1  0  0  0  0
 17 18  1  0  0  0  0
 17 27  1  0  0  0  0
 18 19  1  0  0  0  0
 18 21  1  0  0  0  0
 18 28  1  0  0  0  0
 19 20  2  0  0  0  0
 19 35  1  0  0  0  0
 21 22  1  0  0  0  0
 21 29  1  0  0  0  0
 21 30  1  0  0  0  0
 22 23  1  0  0  0  0
 22 24  2  0  0  0  0
 23 25  2  0  0  0  0
 23 31  1  0  0  0  0
 24 26  1  0  0  0  0
 24 32  1  0  0  0  0
 25 26  1  0  0  0  0
 25 33  1  0  0  0  0
 26 34  1  0  0  0  0
 35 36  1  0  0  0  0
 35 40  1  0  0  0  0
 36 37  1  0  0  0  0
 36 39  1  0  0  0  0
 36 41  1  0  0  0  0
 37 38  2  0  0  0  0
 37 45  1  0  0  0  0
 39 42  1  0  0  0  0
 39 43  1  0  0  0  0
 39 44  1  0  0  0  0
 45 46  1  0  0  0  0
 45 47  1  0  0  0  0
 46 48  1  0  0  0  0
 46 49  1  0  0  0  0
 46 50  1  0  0  0  0
M  CHG  1  23   1
M  END
$$$$

  -OEChem-05262216443D

 50 50  0     1  0  0  0  0  0999 V2000
   -2.3790   -0.6718    3.1707 C   0  0  0  0  0  0  0  0  0  0  0  0
   -1.6228   -1.3427    2.4802 O   0  0  0  0  0  0  0  0  0  0  0  0
   -2.9345   -1.2470    4.4589 C   0  0  0  0  0  0  0  0  0  0  0  0
   -2.5774   -2.2709    4.6009 H   0  0  0  0  0  0  0  0  0  0  0  0
   -2.6116   -0.6413    5.3092 H   0  0  0  0  0  0  0  0  0  0  0  0
   -4.0266   -1.2580    4.4217 H   0  0  0  0  0  0  0  0  0  0  0  0
   -2.7141    0.6150    2.7952 N   0  0  0  0  0  0  0  0  0  0  0  0
   -2.2277    1.2604    1.5657 C   0  0  2  0  0  0  0  0  0  0  0  0
   -0.6840    1.2721    1.4563 C   0  0  0  0  0  0  0  0  0  0  0  0
   -0.0184    1.5933    2.4313 O   0  0  0  0  0  0  0  0  0  0  0  0
   -2.7699    2.6910    1.5329 C   0  0  0  0  0  0  0  0  0  0  0  0
   -3.3053    1.1471    3.4271 H   0  0  0  0  0  0  0  0  0  0  0  0
   -2.6318    0.7175    0.7053 H   0  0  0  0  0  0  0  0  0  0  0  0
   -2.3974    3.2645    2.3880 H   0  0  0  0  0  0  0  0  0  0  0  0
   -2.4561    3.1953    0.6135 H   0  0  0  0  0  0  0  0  0  0  0  0
   -3.8639    2.6848    1.5648 H   0  0  0  0  0  0  0  0  0  0  0  0
   -0.1015    0.7672    0.3051 N   0  0  0  0  0  0  0  0  0  0  0  0
    1.1997    0.0743    0.1596 C   0  0  2  0  0  0  0  0  0  0  0  0
    0.9347   -1.3283   -0.3992 C   0  0  0  0  0  0  0  0  0  0  0  0
    1.4068   -1.6337   -1.4857 O   0  0  0  0  0  0  0  0  0  0  0  0
    2.2857    0.0531    1.2599 C   0  0  0  0  0  0  0  0  0  0  0  0
    2.8691    1.4130    1.5792 C   0  0  0  0  0  0  0  0  0  0  0  0
    3.7759    2.0984    0.7681 N   0  3  0  0  0  0  0  0  0  0  0  0
    2.7584    2.1260    2.7460 C   0  0  0  0  0  0  0  0  0  0  0  0
    4.1674    3.2065    1.3498 C   0  0  0  0  0  0  0  0  0  0  0  0
    3.5463    3.2580    2.5945 N   0  0  0  0  0  0  0  0  0  0  0  0
   -0.8104    0.4382   -0.3618 H   0  0  0  0  0  0  0  0  0  0  0  0
    1.6801    0.6081   -0.6665 H   0  0  0  0  0  0  0  0  0  0  0  0
    3.0981   -0.6138    0.9509 H   0  0  0  0  0  0  0  0  0  0  0  0
    1.8475   -0.3751    2.1683 H   0  0  0  0  0  0  0  0  0  0  0  0
    4.0458    1.7677   -0.1621 H   0  0  0  0  0  0  0  0  0  0  0  0
    2.1431    1.8506    3.6040 H   0  0  0  0  0  0  0  0  0  0  0  0
    4.8522    3.9488    0.9366 H   0  0  0  0  0  0  0  0  0  0  0  0
    3.6426    4.0075    3.2849 H   0  0  0  0  0  0  0  0  0  0  0  0
    0.1362   -2.2160    0.2960 N   0  0  0  0  0  0  0  0  0  0  0  0
   -0.7278   -3.1142   -0.4823 C   0  0  2  0  0  0  0  0  0  0  0  0
   -1.8767   -2.3423   -1.1841 C   0  0  0  0  0  0  0  0  0  0  0  0
   -2.0549   -1.1407   -0.9799 O   0  0  0  0  0  0  0  0  0  0  0  0
   -1.2816   -4.1774    0.4703 C   0  0  0  0  0  0  0  0  0  0  0  0
   -0.3124   -1.8111    1.1253 H   0  0  0  0  0  0  0  0  0  0  0  0
   -0.1378   -3.6192   -1.2550 H   0  0  0  0  0  0  0  0  0  0  0  0
   -1.9228   -3.7191    1.2296 H   0  0  0  0  0  0  0  0  0  0  0  0
   -1.8709   -4.9173   -0.0795 H   0  0  0  0  0  0  0  0  0  0  0  0
   -0.4618   -4.6977    0.9756 H   0  0  0  0  0  0  0  0  0  0  0  0
   -2.6951   -2.9879   -2.0919 N   0  0  0  0  0  0  0  0  0  0  0  0
   -3.7470   -2.3142   -2.8452 C   0  0  0  0  0  0  0  0  0  0  0  0
   -2.4892   -3.9606   -2.3017 H   0  0  0  0  0  0  0  0  0  0  0  0
   -4.4702   -1.8515   -2.1653 H   0  0  0  0  0  0  0  0  0  0  0  0
   -3.3202   -1.5369   -3.4879 H   0  0  0  0  0  0  0  0  0  0  0  0
   -4.2803   -3.0311   -3.4773 H   0  0  0  0  0  0  0  0  0  0  0  0
  1  2  2  0  0  0  0
  1  3  1  0  0  0  0
  1  7  1  0  0  0  0
  3  4  1  0  0  0  0
  3  5  1  0  0  0  0
  3  6  1  0  0  0  0
  7  8  1  0  0  0  0
  7 12  1  0  0  0  0
  8  9  1  0  0  0  0
  8 11  1  0  0  0  0
  8 13  1  0  0  0  0
  9 10  2  0  0  0  0
  9 17  1  0  0  0  0
 11 14  1  0  0  0  0
 11 15  1  0  0  0  0
 11 16  1  0  0  0  0
 17 18  1  0  0  0  0
 17 27  1  0  0  0  0
 18 19  1  0  0  0  0
 18 21  1  0  0  0  0
 18 28  1  0  0  0  0
 19 20  2  0  0  0  0
 19 35  1  0  0  0  0
 21 22  1  0  0  0  0
 21 29  1  0  0  0  0
 21 30  1  0  0  0  0
 22 23  1  0  0  0  0
 22 24  2  0  0  0  0
 23 25  2  0  0  0  0
 23 31  1  0  0  0  0
 24 26  1  0  0  0  0
 24 32  1  0  0  0  0
 25 26  1  0  0  0  0
 25 33  1  0  0  0  0
 26 34  1  0  0  0  0
 35 36  1  0  0  0  0
 35 40  1  0  0  0  0
 36 37  1  0  0  0  0
 36 39  1  0  0  0  0
 36 41  1  0  0  0  0
 37 38  2  0  0  0  0
 37 45  1  0  0  0  0
 39 42  1  0  0  0  0
 39 43  1  0  0  0  0
 39 44  1  0  0  0  0
 45 46  1  0  0  0  0
 45 47  1  0  0  0  0
 46 48  1  0  0  0  0
 46 49  1  0  0  0  0
 46 50  1  0  0  0  0
M  CHG  1  23   1
M  END
$$$$

  -OEChem-05262216443D

 50 50  0     1  0  0  0  0  0999 V2000
   -2.6211   -0.5638    3.1174 C   0  0  0  0  0  0  0  0  0  0  0  0
   -1.9580   -1.2975    2.3966 O   0  0  0  0  0  0  0  0  0  0  0  0
   -3.2286   -1.1047    4.3972 C   0  0  0  0  0  0  0  0  0  0  0  0
   -2.9530   -2.1546    4.5311 H   0  0  0  0  0  0  0  0  0  0  0  0
   -2.8657   -0.5336    5.2553 H   0  0  0  0  0  0  0  0  0  0  0  0
   -4.3180   -1.0305    4.3538 H   0  0  0  0  0  0  0  0  0  0  0  0
   -2.7983    0.7626    2.7755 N   0  0  0  0  0  0  0  0  0  0  0  0
   -2.2169    1.3703    1.5689 C   0  0  2  0  0  0  0  0  0  0  0  0
   -0.6755    1.2423    1.5131 C   0  0  0  0  0  0  0  0  0  0  0  0
   -0.0127    1.5087    2.5068 O   0  0  0  0  0  0  0  0  0  0  0  0
   -2.6302    2.8431    1.5293 C   0  0  0  0  0  0  0  0  0  0  0  0
   -3.2890    1.3555    3.4385 H   0  0  0  0  0  0  0  0  0  0  0  0
   -2.6366    0.8685    0.6900 H   0  0  0  0  0  0  0  0  0  0  0  0
   -2.2360    3.3767    2.4003 H   0  0  0  0  0  0  0  0  0  0  0  0
   -2.2439    3.3220    0.6240 H   0  0  0  0  0  0  0  0  0  0  0  0
   -3.7210    2.9334    1.5269 H   0  0  0  0  0  0  0  0  0  0  0  0
   -0.1082    0.6735    0.3852 N   0  0  0  0  0  0  0  0  0  0  0  0
    1.1843   -0.0341    0.2342 C   0  0  2  0  0  0  0  0  0  0  0  0
    0.9186   -1.4655   -0.2514 C   0  0  0  0  0  0  0  0  0  0  0  0
    1.5331   -1.8791   -1.2249 O   0  0  0  0  0  0  0  0  0  0  0  0
    2.2880   -0.0043    1.3156 C   0  0  0  0  0  0  0  0  0  0  0  0
    2.8714    1.3717    1.5531 C   0  0  0  0  0  0  0  0  0  0  0  0
    3.7610    2.0131    0.6893 N   0  3  0  0  0  0  0  0  0  0  0  0
    2.7717    2.1508    2.6779 C   0  0  0  0  0  0  0  0  0  0  0  0
    4.1576    3.1533    1.2009 C   0  0  0  0  0  0  0  0  0  0  0  0
    3.5531    3.2747    2.4495 N   0  0  0  0  0  0  0  0  0  0  0  0
   -0.8188    0.3810   -0.2982 H   0  0  0  0  0  0  0  0  0  0  0  0
    1.6456    0.4592   -0.6271 H   0  0  0  0  0  0  0  0  0  0  0  0
    3.0965   -0.6841    1.0246 H   0  0  0  0  0  0  0  0  0  0  0  0
    1.8674   -0.3900    2.2509 H   0  0  0  0  0  0  0  0  0  0  0  0
    4.0220    1.6277   -0.2223 H   0  0  0  0  0  0  0  0  0  0  0  0
    2.1715    1.9225    3.5600 H   0  0  0  0  0  0  0  0  0  0  0  0
    4.8351    3.8716    0.7362 H   0  0  0  0  0  0  0  0  0  0  0  0
    3.6589    4.0620    3.0953 H   0  0  0  0  0  0  0  0  0  0  0  0
   -0.0832   -2.2243    0.3235 N   0  0  0  0  0  0  0  0  0  0  0  0
   -0.9300   -3.0418   -0.5549 C   0  0  2  0  0  0  0  0  0  0  0  0
   -1.9239   -2.1669   -1.3620 C   0  0  0  0  0  0  0  0  0  0  0  0
   -2.0203   -0.9568   -1.1511 O   0  0  0  0  0  0  0  0  0  0  0  0
   -1.6753   -4.0562    0.3167 C   0  0  0  0  0  0  0  0  0  0  0  0
   -0.5895   -1.7519    1.0803 H   0  0  0  0  0  0  0  0  0  0  0  0
   -0.3068   -3.5942   -1.2668 H   0  0  0  0  0  0  0  0  0  0  0  0
   -2.3566   -3.5472    1.0055 H   0  0  0  0  0  0  0  0  0  0  0  0
   -2.2608   -4.7406   -0.3043 H   0  0  0  0  0  0  0  0  0  0  0  0
   -0.9642   -4.6460    0.9036 H   0  0  0  0  0  0  0  0  0  0  0  0
   -2.6892   -2.7288   -2.3665 N   0  0  0  0  0  0  0  0  0  0  0  0
   -3.6044   -1.9628   -3.2049 C   0  0  0  0  0  0  0  0  0  0  0  0
   -2.5575   -3.7174   -2.5616 H   0  0  0  0  0  0  0  0  0  0  0  0
   -4.3679   -1.4729   -2.5913 H   0  0  0  0  0  0  0  0  0  0  0  0
   -3.0599   -1.1975   -3.7682 H   0  0  0  0  0  0  0  0  0  0  0  0
   -4.1077   -2.6232   -3.9177 H   0  0  0  0  0  0  0  0  0  0  0  0
  1  2  2  0  0  0  0
  1  3  1  0  0  0  0
  1  7  1  0  0  0  0
  3  4  1  0  0  0  0
  3  5  1  0  0  0  0
  3  6  1  0  0  0  0
  7  8  1  0  0  0  0
  7 12  1  0  0  0  0
  8  9  1  0  0  0  0
  8 11  1  0  0  0  0
  8 13  1  0  0  0  0
  9 10  2  0  0  0  0
  9 17  1  0  0  0  0
 11 14  1  0  0  0  0
 11 15  1  0  0  0  0
 11 16  1  0  0  0  0
 17 18  1  0  0  0  0
 17 27  1  0  0  0  0
 18 19  1  0  0  0  0
 18 21  1  0  0  0  0
 18 28  1  0  0  0  0
 19 20  2  0  0  0  0
 19 35  1  0  0  0  0
 21 22  1  0  0  0  0
 21 29  1  0  0  0  0
 21 30  1  0  0  0  0
 22 23  1  0  0  0  0
 22 24  2  0  0  0  0
 23 25  2  0  0  0  0
 23 31  1  0  0  0  0
 24 26  1  0  0  0  0
 24 32  1  0  0  0  0
 25 26  1  0  0  0  0
 25 33  1  0  0  0  0
 26 34  1  0  0  0  0
 35 36  1  0  0  0  0
 35 40  1  0  0  0  0
 36 37  1  0  0  0  0
 36 39  1  0  0  0  0
 36 41  1  0  0  0  0
 37 38  2  0  0  0  0
 37 45  1  0  0  0  0
 39 42  1  0  0  0  0
 39 43  1  0  0  0  0
 39 44  1  0  0  0  0
 45 46  1  0  0  0  0
 45 47  1  0  0  0  0
 46 48  1  0  0  0  0
 46 49  1  0  0  0  0
 46 50  1  0  0  0  0
M  CHG  1  23   1
M  END
$$$$

  -OEChem-05262216443D

 50 50  0     1  0  0  0  0  0999 V2000
   -2.8420   -0.4267    2.9941 C   0  0  0  0  0  0  0  0  0  0  0  0
   -2.2779   -1.1911    2.2232 O   0  0  0  0  0  0  0  0  0  0  0  0
   -3.4890   -0.9587    4.2576 C   0  0  0  0  0  0  0  0  0  0  0  0
   -3.3902   -2.0469    4.3019 H   0  0  0  0  0  0  0  0  0  0  0  0
   -3.0048   -0.5258    5.1362 H   0  0  0  0  0  0  0  0  0  0  0  0
   -4.5510   -0.7013    4.2708 H   0  0  0  0  0  0  0  0  0  0  0  0
   -2.8566    0.9277    2.7268 N   0  0  0  0  0  0  0  0  0  0  0  0
   -2.1785    1.5220    1.5660 C   0  0  2  0  0  0  0  0  0  0  0  0
   -0.6567    1.2445    1.5602 C   0  0  0  0  0  0  0  0  0  0  0  0
    0.0017    1.4609    2.5692 O   0  0  0  0  0  0  0  0  0  0  0  0
   -2.4512    3.0275    1.5727 C   0  0  0  0  0  0  0  0  0  0  0  0
   -3.2438    1.5404    3.4385 H   0  0  0  0  0  0  0  0  0  0  0  0
   -2.6087    1.0958    0.6522 H   0  0  0  0  0  0  0  0  0  0  0  0
   -2.0398    3.4897    2.4759 H   0  0  0  0  0  0  0  0  0  0  0  0
   -1.9913    3.5003    0.6993 H   0  0  0  0  0  0  0  0  0  0  0  0
   -3.5283    3.2193    1.5399 H   0  0  0  0  0  0  0  0  0  0  0  0
   -0.1186    0.6044    0.4572 N   0  0  0  0  0  0  0  0  0  0  0  0
    1.1574   -0.1294    0.2963 C   0  0  2  0  0  0  0  0  0  0  0  0
    0.8719   -1.5852   -0.1062 C   0  0  0  0  0  0  0  0  0  0  0  0
    1.5941   -2.1071   -0.9442 O   0  0  0  0  0  0  0  0  0  0  0  0
    2.2798   -0.0608    1.3562 C   0  0  0  0  0  0  0  0  0  0  0  0
    2.8754    1.3200    1.5190 C   0  0  0  0  0  0  0  0  0  0  0  0
    3.7536    1.9180    0.6135 N   0  3  0  0  0  0  0  0  0  0  0  0
    2.7960    2.1479    2.6097 C   0  0  0  0  0  0  0  0  0  0  0  0
    4.1650    3.0762    1.0700 C   0  0  0  0  0  0  0  0  0  0  0  0
    3.5806    3.2557    2.3213 N   0  0  0  0  0  0  0  0  0  0  0  0
   -0.8284    0.3660   -0.2483 H   0  0  0  0  0  0  0  0  0  0  0  0
    1.6016    0.3142   -0.6004 H   0  0  0  0  0  0  0  0  0  0  0  0
    3.0799   -0.7573    1.0815 H   0  0  0  0  0  0  0  0  0  0  0  0
    1.8755   -0.4017    2.3157 H   0  0  0  0  0  0  0  0  0  0  0  0
    4.0019    1.4893   -0.2823 H   0  0  0  0  0  0  0  0  0  0  0  0
    2.2108    1.9593    3.5112 H   0  0  0  0  0  0  0  0  0  0  0  0
    4.8410    3.7684    0.5655 H   0  0  0  0  0  0  0  0  0  0  0  0
    3.7065    4.0665    2.9337 H   0  0  0  0  0  0  0  0  0  0  0  0
   -0.2893   -2.2114    0.3071 N   0  0  0  0  0  0  0  0  0  0  0  0
   -1.0867   -2.9589   -0.6727 C   0  0  2  0  0  0  0  0  0  0  0  0
   -1.9313   -2.0056   -1.5552 C   0  0  0  0  0  0  0  0  0  0  0  0
   -1.9611   -0.7946   -1.3301 O   0  0  0  0  0  0  0  0  0  0  0  0
   -1.9821   -3.9354    0.0946 C   0  0  0  0  0  0  0  0  0  0  0  0
   -0.8442   -1.6733    0.9814 H   0  0  0  0  0  0  0  0  0  0  0  0
   -0.4298   -3.5390   -1.3296 H   0  0  0  0  0  0  0  0  0  0  0  0
   -2.6968   -3.3927    0.7212 H   0  0  0  0  0  0  0  0  0  0  0  0
   -2.5421   -4.5707   -0.5981 H   0  0  0  0  0  0  0  0  0  0  0  0
   -1.3750   -4.5797    0.7385 H   0  0  0  0  0  0  0  0  0  0  0  0
   -2.6286   -2.4989   -2.6416 N   0  0  0  0  0  0  0  0  0  0  0  0
   -3.4059   -1.6609   -3.5475 C   0  0  0  0  0  0  0  0  0  0  0  0
   -2.5630   -3.4955   -2.8304 H   0  0  0  0  0  0  0  0  0  0  0  0
   -4.2086   -1.1507   -3.0048 H   0  0  0  0  0  0  0  0  0  0  0  0
   -2.7654   -0.9083   -4.0195 H   0  0  0  0  0  0  0  0  0  0  0  0
   -3.8568   -2.2721   -4.3354 H   0  0  0  0  0  0  0  0  0  0  0  0
  1  2  2  0  0  0  0
  1  3  1  0  0  0  0
  1  7  1  0  0  0  0
  3  4  1  0  0  0  0
  3  5  1  0  0  0  0
  3  6  1  0  0  0  0
  7  8  1  0  0  0  0
  7 12  1  0  0  0  0
  8  9  1  0  0  0  0
  8 11  1  0  0  0  0
  8 13  1  0  0  0  0
  9 10  2  0  0  0  0
  9 17  1  0  0  0  0
 11 14  1  0  0  0  0
 11 15  1  0  0  0  0
 11 16  1  0  0  0  0
 17 18  1  0  0  0  0
 17 27  1  0  0  0  0
 18 19  1  0  0  0  0
 18 21  1  0  0  0  0
 18 28  1  0  0  0  0
 19 20  2  0  0  0  0
 19 35  1  0  0  0  0
 21 22  1  0  0  0  0
 21 29  1  0  0  0  0
 21 30  1  0  0  0  0
 22 23  1  0  0  0  0
 22 24  2  0  0  0  0
 23 25  2  0  0  0  0
 23 31  1  0  0  0  0
 24 26  1  0  0  0  0
 24 32  1  0  0  0  0
 25 26  1  0  0  0  0
 25 33  1  0  0  0  0
 26 34  1  0  0  0  0
 35 36  1  0  0  0  0
 35 40  1  0  0  0  0
 36 37  1  0  0  0  0
 36 39  1  0  0  0  0
 36 41  1  0  0  0  0
 37 38  2  0  0  0  0
 37 45  1  0  0  0  0
 39 42  1  0  0  0  0
 39 43  1  0  0  0  0
 39 44  1  0  0  0  0
 45 46  1  0  0  0  0
 45 47  1  0  0  0  0
 46 48  1  0  0  0  0
 46 49  1  0  0  0  0
 46 50  1  0  0  0  0
M  CHG  1  23   1
M  END
$$$$

  -OEChem-05262216443D

 50 50  0     1  0  0  0  0  0999 V2000
   -3.0655   -0.2896    2.7754 C   0  0  0  0  0  0  0  0  0  0  0  0
   -2.5703   -1.0250    1.9330 O   0  0  0  0  0  0  0  0  0  0  0  0
   -3.8508   -0.8748    3.9329 C   0  0  0  0  0  0  0  0  0  0  0  0
   -3.9120   -1.9624    3.8355 H   0  0  0  0  0  0  0  0  0  0  0  0
   -3.3594   -0.6334    4.8785 H   0  0  0  0  0  0  0  0  0  0  0  0
   -4.8640   -0.4657    3.9420 H   0  0  0  0  0  0  0  0  0  0  0  0
   -2.8776    1.0748    2.6823 N   0  0  0  0  0  0  0  0  0  0  0  0
   -2.0838    1.7040    1.6175 C   0  0  2  0  0  0  0  0  0  0  0  0
   -0.6021    1.2610    1.6442 C   0  0  0  0  0  0  0  0  0  0  0  0
    0.0666    1.4283    2.6559 O   0  0  0  0  0  0  0  0  0  0  0  0
   -2.2035    3.2229    1.7659 C   0  0  0  0  0  0  0  0  0  0  0  0
   -3.2141    1.6475    3.4513 H   0  0  0  0  0  0  0  0  0  0  0  0
   -2.5073    1.4196    0.6471 H   0  0  0  0  0  0  0  0  0  0  0  0
   -1.8046    3.5503    2.7315 H   0  0  0  0  0  0  0  0  0  0  0  0
   -1.6459    3.7273    0.9704 H   0  0  0  0  0  0  0  0  0  0  0  0
   -3.2520    3.5299    1.6986 H   0  0  0  0  0  0  0  0  0  0  0  0
   -0.1192    0.5535    0.5570 N   0  0  0  0  0  0  0  0  0  0  0  0
    1.1323   -0.2148    0.3664 C   0  0  2  0  0  0  0  0  0  0  0  0
    0.8193   -1.6879    0.0480 C   0  0  0  0  0  0  0  0  0  0  0  0
    1.6148   -2.3037   -0.6483 O   0  0  0  0  0  0  0  0  0  0  0  0
    2.2937   -0.1084    1.3807 C   0  0  0  0  0  0  0  0  0  0  0  0
    2.9075    1.2720    1.4492 C   0  0  0  0  0  0  0  0  0  0  0  0
    3.7571    1.8144    0.4837 N   0  3  0  0  0  0  0  0  0  0  0  0
    2.8690    2.1565    2.4967 C   0  0  0  0  0  0  0  0  0  0  0  0
    4.1966    2.9889    0.8672 C   0  0  0  0  0  0  0  0  0  0  0  0
    3.6547    3.2391    2.1259 N   0  0  0  0  0  0  0  0  0  0  0  0
   -0.8342    0.3752   -0.1609 H   0  0  0  0  0  0  0  0  0  0  0  0
    1.5429    0.1765   -0.5694 H   0  0  0  0  0  0  0  0  0  0  0  0
    3.0774   -0.8258    1.1123 H   0  0  0  0  0  0  0  0  0  0  0  0
    1.9235   -0.3980    2.3702 H   0  0  0  0  0  0  0  0  0  0  0  0
    3.9754    1.3342   -0.3937 H   0  0  0  0  0  0  0  0  0  0  0  0
    2.3141    2.0197    3.4264 H   0  0  0  0  0  0  0  0  0  0  0  0
    4.8650    3.6453    0.3074 H   0  0  0  0  0  0  0  0  0  0  0  0
    3.8132    4.0763    2.6936 H   0  0  0  0  0  0  0  0  0  0  0  0
   -0.4450   -2.1977    0.2756 N   0  0  0  0  0  0  0  0  0  0  0  0
   -1.1639   -2.8759   -0.8088 C   0  0  2  0  0  0  0  0  0  0  0  0
   -1.8684   -1.8534   -1.7357 C   0  0  0  0  0  0  0  0  0  0  0  0
   -1.8227   -0.6463   -1.4937 O   0  0  0  0  0  0  0  0  0  0  0  0
   -2.1726   -3.8334   -0.1684 C   0  0  0  0  0  0  0  0  0  0  0  0
   -1.0388   -1.6005    0.8606 H   0  0  0  0  0  0  0  0  0  0  0  0
   -0.4695   -3.4645   -1.4180 H   0  0  0  0  0  0  0  0  0  0  0  0
   -2.9140   -3.2784    0.4150 H   0  0  0  0  0  0  0  0  0  0  0  0
   -2.6962   -4.4127   -0.9346 H   0  0  0  0  0  0  0  0  0  0  0  0
   -1.6578   -4.5317    0.4990 H   0  0  0  0  0  0  0  0  0  0  0  0
   -2.5180   -2.2790   -2.8790 N   0  0  0  0  0  0  0  0  0  0  0  0
   -3.1817   -1.3753   -3.8118 C   0  0  0  0  0  0  0  0  0  0  0  0
   -2.5280   -3.2767   -3.0721 H   0  0  0  0  0  0  0  0  0  0  0  0
   -3.9905   -0.8329   -3.3105 H   0  0  0  0  0  0  0  0  0  0  0  0
   -2.4682   -0.6500   -4.2175 H   0  0  0  0  0  0  0  0  0  0  0  0
   -3.6105   -1.9391   -4.6461 H   0  0  0  0  0  0  0  0  0  0  0  0
  1  2  2  0  0  0  0
  1  3  1  0  0  0  0
  1  7  1  0  0  0  0
  3  4  1  0  0  0  0
  3  5  1  0  0  0  0
  3  6  1  0  0  0  0
  7  8  1  0  0  0  0
  7 12  1  0  0  0  0
  8  9  1  0  0  0  0
  8 11  1  0  0  0  0
  8 13  1  0  0  0  0
  9 10  2  0  0  0  0
  9 17  1  0  0  0  0
 11 14  1  0  0  0  0
 11 15  1  0  0  0  0
 11 16  1  0  0  0  0
 17 18  1  0  0  0  0
 17 27  1  0  0  0  0
 18 19  1  0  0  0  0
 18 21  1  0  0  0  0
 18 28  1  0  0  0  0
 19 20  2  0  0  0  0
 19 35  1  0  0  0  0
 21 22  1  0  0  0  0
 21 29  1  0  0  0  0
 21 30  1  0  0  0  0
 22 23  1  0  0  0  0
 22 24  2  0  0  0  0
 23 25  2  0  0  0  0
 23 31  1  0  0  0  0
 24 26  1  0  0  0  0
 24 32  1  0  0  0  0
 25 26  1  0  0  0  0
 25 33  1  0  0  0  0
 26 34  1  0  0  0  0
 35 36  1  0  0  0  0
 35 40  1  0  0  0  0
 36 37  1  0  0  0  0
 36 39  1  0  0  0  0
 36 41  1  0  0  0  0
 37 38  2  0  0  0  0
 37 45  1  0  0  0  0
 39 42  1  0  0  0  0
 39 43  1  0  0  0  0
 39 44  1  0  0  0  0
 45 46  1  0  0  0  0
 45 47  1  0  0  0  0
 46 48  1  0  0  0  0
 46 49  1  0  0  0  0
 46 50  1  0  0  0  0
M  CHG  1  23   1
M  END
$$$$

  -OEChem-05262216443D

 50 50  0     1  0  0  0  0  0999 V2000
   -3.2370   -0.1353    2.5452 C   0  0  0  0  0  0  0  0  0  0  0  0
   -2.8180   -0.7718    1.5889 O   0  0  0  0  0  0  0  0  0  0  0  0
   -4.1412   -0.7956    3.5676 C   0  0  0  0  0  0  0  0  0  0  0  0
   -4.3625   -1.8237    3.2673 H   0  0  0  0  0  0  0  0  0  0  0  0
   -3.6523   -0.8119    4.5446 H   0  0  0  0  0  0  0  0  0  0  0  0
   -5.0811   -0.2440    3.6469 H   0  0  0  0  0  0  0  0  0  0  0  0
   -2.8517    1.1803    2.7045 N   0  0  0  0  0  0  0  0  0  0  0  0
   -1.9552    1.8764    1.7715 C   0  0  2  0  0  0  0  0  0  0  0  0
   -0.5275    1.2811    1.7730 C   0  0  0  0  0  0  0  0  0  0  0  0
    0.1836    1.3999    2.7625 O   0  0  0  0  0  0  0  0  0  0  0  0
   -1.9419    3.3605    2.1491 C   0  0  0  0  0  0  0  0  0  0  0  0
   -3.1359    1.6517    3.5590 H   0  0  0  0  0  0  0  0  0  0  0  0
   -2.3593    1.7874    0.7565 H   0  0  0  0  0  0  0  0  0  0  0  0
   -1.5667    3.4973    3.1685 H   0  0  0  0  0  0  0  0  0  0  0  0
   -1.2978    3.9202    1.4640 H   0  0  0  0  0  0  0  0  0  0  0  0
   -2.9525    3.7771    2.0904 H   0  0  0  0  0  0  0  0  0  0  0  0
   -0.1404    0.5163    0.6857 N   0  0  0  0  0  0  0  0  0  0  0  0
    1.0726   -0.2947    0.4339 C   0  0  2  0  0  0  0  0  0  0  0  0
    0.7106   -1.7745    0.1984 C   0  0  0  0  0  0  0  0  0  0  0  0
    1.5414   -2.4820   -0.3558 O   0  0  0  0  0  0  0  0  0  0  0  0
    2.3019   -0.1654    1.3641 C   0  0  0  0  0  0  0  0  0  0  0  0
    2.9358    1.2065    1.3200 C   0  0  0  0  0  0  0  0  0  0  0  0
    3.7241    1.6877    0.2738 N   0  3  0  0  0  0  0  0  0  0  0  0
    2.9721    2.1453    2.3191 C   0  0  0  0  0  0  0  0  0  0  0  0
    4.1976    2.8752    0.5652 C   0  0  0  0  0  0  0  0  0  0  0  0
    3.7416    3.1974    1.8413 N   0  0  0  0  0  0  0  0  0  0  0  0
   -0.8718    0.4117   -0.0296 H   0  0  0  0  0  0  0  0  0  0  0  0
    1.4219    0.0456   -0.5456 H   0  0  0  0  0  0  0  0  0  0  0  0
    3.0580   -0.9062    1.0803 H   0  0  0  0  0  0  0  0  0  0  0  0
    1.9972   -0.4042    2.3886 H   0  0  0  0  0  0  0  0  0  0  0  0
    3.8818    1.1589   -0.5884 H   0  0  0  0  0  0  0  0  0  0  0  0
    2.4801    2.0634    3.2899 H   0  0  0  0  0  0  0  0  0  0  0  0
    4.8350    3.4927   -0.0700 H   0  0  0  0  0  0  0  0  0  0  0  0
    3.9472    4.0598    2.3533 H   0  0  0  0  0  0  0  0  0  0  0  0
   -0.6107   -2.1780    0.2435 N   0  0  0  0  0  0  0  0  0  0  0  0
   -1.2253   -2.7973   -0.9356 C   0  0  2  0  0  0  0  0  0  0  0  0
   -1.7180   -1.7185   -1.9328 C   0  0  0  0  0  0  0  0  0  0  0  0
   -1.5874   -0.5204   -1.6782 O   0  0  0  0  0  0  0  0  0  0  0  0
   -2.3832   -3.6727   -0.4477 C   0  0  0  0  0  0  0  0  0  0  0  0
   -1.2259   -1.5175    0.7289 H   0  0  0  0  0  0  0  0  0  0  0  0
   -0.5025   -3.4369   -1.4537 H   0  0  0  0  0  0  0  0  0  0  0  0
   -3.1502   -3.0607    0.0381 H   0  0  0  0  0  0  0  0  0  0  0  0
   -2.8431   -4.2073   -1.2841 H   0  0  0  0  0  0  0  0  0  0  0  0
   -2.0198   -4.4114    0.2739 H   0  0  0  0  0  0  0  0  0  0  0  0
   -2.2731   -2.0851   -3.1444 N   0  0  0  0  0  0  0  0  0  0  0  0
   -2.7650   -1.1255   -4.1268 C   0  0  0  0  0  0  0  0  0  0  0  0
   -2.3694   -3.0783   -3.3379 H   0  0  0  0  0  0  0  0  0  0  0  0
   -3.5716   -0.5197   -3.7002 H   0  0  0  0  0  0  0  0  0  0  0  0
   -1.9579   -0.4600   -4.4510 H   0  0  0  0  0  0  0  0  0  0  0  0
   -3.1543   -1.6484   -5.0061 H   0  0  0  0  0  0  0  0  0  0  0  0
  1  2  2  0  0  0  0
  1  3  1  0  0  0  0
  1  7  1  0  0  0  0
  3  4  1  0  0  0  0
  3  5  1  0  0  0  0
  3  6  1  0  0  0  0
  7  8  1  0  0  0  0
  7 12  1  0  0  0  0
  8  9  1  0  0  0  0
  8 11  1  0  0  0  0
  8 13  1  0  0  0  0
  9 10  2  0  0  0  0
  9 17  1  0  0  0  0
 11 14  1  0  0  0  0
 11 15  1  0  0  0  0
 11 16  1  0  0  0  0
 17 18  1  0  0  0  0
 17 27  1  0  0  0  0
 18 19  1  0  0  0  0
 18 21  1  0  0  0  0
 18 28  1  0  0  0  0
 19 20  2  0  0  0  0
 19 35  1  0  0  0  0
 21 22  1  0  0  0  0
 21 29  1  0  0  0  0
 21 30  1  0  0  0  0
 22 23  1  0  0  0  0
 22 24  2  0  0  0  0
 23 25  2  0  0  0  0
 23 31  1  0  0  0  0
 24 26  1  0  0  0  0
 24 32  1  0  0  0  0
 25 26  1  0  0  0  0
 25 33  1  0  0  0  0
 26 34  1  0  0  0  0
 35 36  1  0  0  0  0
 35 40  1  0  0  0  0
 36 37  1  0  0  0  0
 36 39  1  0  0  0  0
 36 41  1  0  0  0  0
 37 38  2  0  0  0  0
 37 45  1  0  0  0  0
 39 42  1  0  0  0  0
 39 43  1  0  0  0  0
 39 44  1  0  0  0  0
 45 46  1  0  0  0  0
 45 47  1  0  0  0  0
 46 48  1  0  0  0  0
 46 49  1  0  0  0  0
 46 50  1  0  0  0  0
M  CHG  1  23   1
M  END
$$$$

  -OEChem-05262216443D

 50 50  0     1  0  0  0  0  0999 V2000
   -3.3196    0.3605    2.0868 C   0  0  0  0  0  0  0  0  0  0  0  0
   -2.9618    0.3722    0.9168 O   0  0  0  0  0  0  0  0  0  0  0  0
   -4.4423   -0.5550    2.5342 C   0  0  0  0  0  0  0  0  0  0  0  0
   -4.8871   -1.0571    1.6704 H   0  0  0  0  0  0  0  0  0  0  0  0
   -4.0571   -1.3117    3.2220 H   0  0  0  0  0  0  0  0  0  0  0  0
   -5.2188    0.0246    3.0396 H   0  0  0  0  0  0  0  0  0  0  0  0
   -2.6540    1.1474    3.0054 N   0  0  0  0  0  0  0  0  0  0  0  0
   -1.5965    2.1113    2.6613 C   0  0  2  0  0  0  0  0  0  0  0  0
   -0.2637    1.4232    2.2698 C   0  0  0  0  0  0  0  0  0  0  0  0
    0.6456    1.3155    3.0810 O   0  0  0  0  0  0  0  0  0  0  0  0
   -1.4410    3.0630    3.8542 C   0  0  0  0  0  0  0  0  0  0  0  0
   -2.9493    1.0767    3.9764 H   0  0  0  0  0  0  0  0  0  0  0  0
   -1.9206    2.7092    1.8021 H   0  0  0  0  0  0  0  0  0  0  0  0
   -1.1397    2.5137    4.7523 H   0  0  0  0  0  0  0  0  0  0  0  0
   -0.6796    3.8194    3.6396 H   0  0  0  0  0  0  0  0  0  0  0  0
   -2.3863    3.5753    4.0596 H   0  0  0  0  0  0  0  0  0  0  0  0
   -0.1836    0.8561    1.0082 N   0  0  0  0  0  0  0  0  0  0  0  0
    0.8786    0.0547    0.3533 C   0  0  2  0  0  0  0  0  0  0  0  0
    0.3660   -1.3477   -0.0486 C   0  0  0  0  0  0  0  0  0  0  0  0
    1.1562   -2.1730   -0.4891 O   0  0  0  0  0  0  0  0  0  0  0  0
    2.2900   -0.0034    0.9960 C   0  0  0  0  0  0  0  0  0  0  0  0
    2.9862    1.3389    1.0215 C   0  0  0  0  0  0  0  0  0  0  0  0
    3.5602    1.9627   -0.0873 N   0  3  0  0  0  0  0  0  0  0  0  0
    3.2983    2.0986    2.1200 C   0  0  0  0  0  0  0  0  0  0  0  0
    4.1650    3.0695    0.2715 C   0  0  0  0  0  0  0  0  0  0  0  0
    4.0146    3.1914    1.6509 N   0  0  0  0  0  0  0  0  0  0  0  0
   -1.0663    0.9267    0.4923 H   0  0  0  0  0  0  0  0  0  0  0  0
    1.0315    0.5466   -0.6121 H   0  0  0  0  0  0  0  0  0  0  0  0
    2.9271   -0.7001    0.4409 H   0  0  0  0  0  0  0  0  0  0  0  0
    2.2027   -0.4050    2.0109 H   0  0  0  0  0  0  0  0  0  0  0  0
    3.4994    1.5762   -1.0333 H   0  0  0  0  0  0  0  0  0  0  0  0
    3.0256    1.8705    3.1518 H   0  0  0  0  0  0  0  0  0  0  0  0
    4.6944    3.7615   -0.3859 H   0  0  0  0  0  0  0  0  0  0  0  0
    4.3864    3.9485    2.2315 H   0  0  0  0  0  0  0  0  0  0  0  0
   -0.9893   -1.6278   -0.0803 N   0  0  0  0  0  0  0  0  0  0  0  0
   -1.5376   -2.5891   -1.0460 C   0  0  2  0  0  0  0  0  0  0  0  0
   -1.6119   -1.9935   -2.4726 C   0  0  0  0  0  0  0  0  0  0  0  0
   -1.4363   -0.7926   -2.6584 O   0  0  0  0  0  0  0  0  0  0  0  0
   -2.9304   -2.9906   -0.5537 C   0  0  0  0  0  0  0  0  0  0  0  0
   -1.6001   -0.8445    0.1588 H   0  0  0  0  0  0  0  0  0  0  0  0
   -0.9083   -3.4850   -1.0826 H   0  0  0  0  0  0  0  0  0  0  0  0
   -3.5950   -2.1206   -0.5370 H   0  0  0  0  0  0  0  0  0  0  0  0
   -3.3679   -3.7482   -1.2111 H   0  0  0  0  0  0  0  0  0  0  0  0
   -2.8702   -3.4051    0.4576 H   0  0  0  0  0  0  0  0  0  0  0  0
   -1.8739   -2.8090   -3.5580 N   0  0  0  0  0  0  0  0  0  0  0  0
   -1.9491   -2.3184   -4.9296 C   0  0  0  0  0  0  0  0  0  0  0  0
   -1.9739   -3.8054   -3.3873 H   0  0  0  0  0  0  0  0  0  0  0  0
   -2.7266   -1.5524   -5.0211 H   0  0  0  0  0  0  0  0  0  0  0  0
   -0.9907   -1.8859   -5.2358 H   0  0  0  0  0  0  0  0  0  0  0  0
   -2.1924   -3.1380   -5.6128 H   0  0  0  0  0  0  0  0  0  0  0  0
  1  2  2  0  0  0  0
  1  3  1  0  0  0  0
  1  7  1  0  0  0  0
  3  4  1  0  0  0  0
  3  5  1  0  0  0  0
  3  6  1  0  0  0  0
  7  8  1  0  0  0  0
  7 12  1  0  0  0  0
  8  9  1  0  0  0  0
  8 11  1  0  0  0  0
  8 13  1  0  0  0  0
  9 10  2  0  0  0  0
  9 17  1  0  0  0  0
 11 14  1  0  0  0  0
 11 15  1  0  0  0  0
 11 16  1  0  0  0  0
 17 18  1  0  0  0  0
 17 27  1  0  0  0  0
 18 19  1  0  0  0  0
 18 21  1  0  0  0  0
 18 28  1  0  0  0  0
 19 20  2  0  0  0  0
 19 35  1  0  0  0  0
 21 22  1  0  0  0  0
 21 29  1  0  0  0  0
 21 30  1  0  0  0  0
 22 23  1  0  0  0  0
 22 24  2  0  0  0  0
 23 25  2  0  0  0  0
 23 31  1  0  0  0  0
 24 26  1  0  0  0  0
 24 32  1  0  0  0  0
 25 26  1  0  0  0  0
 25 33  1  0  0  0  0
 26 34  1  0  0  0  0
 35 36  1  0  0  0  0
 35 40  1  0  0  0  0
 36 37  1  0  0  0  0
 36 39  1  0  0  0  0
 36 41  1  0  0  0  0
 37 38  2  0  0  0  0
 37 45  1  0  0  0  0
 39 42  1  0  0  0  0
 39 43  1  0  0  0  0
 39 44  1  0  0  0  0
 45 46  1  0  0  0  0
 45 47  1  0  0  0  0
 46 48  1  0  0  0  0
 46 49  1  0  0  0  0
 46 50  1  0  0  0  0
M  CHG  1  23   1
M  END
$$$$

  -OEChem-05262216443D

 50 50  0     1  0  0  0  0  0999 V2000
   -3.3124    0.4850    2.0090 C   0  0  0  0  0  0  0  0  0  0  0  0
   -2.9688    0.6349    0.8434 O   0  0  0  0  0  0  0  0  0  0  0  0
   -4.4379   -0.4704    2.3541 C   0  0  0  0  0  0  0  0  0  0  0  0
   -4.8902   -0.8678    1.4412 H   0  0  0  0  0  0  0  0  0  0  0  0
   -4.0529   -1.3033    2.9477 H   0  0  0  0  0  0  0  0  0  0  0  0
   -5.2086    0.0507    2.9275 H   0  0  0  0  0  0  0  0  0  0  0  0
   -2.6226    1.1357    3.0136 N   0  0  0  0  0  0  0  0  0  0  0  0
   -1.5441    2.1151    2.7951 C   0  0  2  0  0  0  0  0  0  0  0  0
   -0.2132    1.4534    2.3522 C   0  0  0  0  0  0  0  0  0  0  0  0
    0.7385    1.3683    3.1161 O   0  0  0  0  0  0  0  0  0  0  0  0
   -1.4024    2.9299    4.0871 C   0  0  0  0  0  0  0  0  0  0  0  0
   -2.9094    0.9399    3.9699 H   0  0  0  0  0  0  0  0  0  0  0  0
   -1.8429    2.8062    1.9991 H   0  0  0  0  0  0  0  0  0  0  0  0
   -1.1249    2.2823    4.9254 H   0  0  0  0  0  0  0  0  0  0  0  0
   -0.6285    3.6954    3.9710 H   0  0  0  0  0  0  0  0  0  0  0  0
   -2.3462    3.4292    4.3289 H   0  0  0  0  0  0  0  0  0  0  0  0
   -0.1941    0.8720    1.0967 N   0  0  0  0  0  0  0  0  0  0  0  0
    0.8243    0.0609    0.3916 C   0  0  2  0  0  0  0  0  0  0  0  0
    0.2625   -1.3364    0.0405 C   0  0  0  0  0  0  0  0  0  0  0  0
    1.0252   -2.2612   -0.2093 O   0  0  0  0  0  0  0  0  0  0  0  0
    2.2692    0.0038    0.9524 C   0  0  0  0  0  0  0  0  0  0  0  0
    2.9647    1.3457    0.9210 C   0  0  0  0  0  0  0  0  0  0  0  0
    3.4727    1.9569   -0.2264 N   0  3  0  0  0  0  0  0  0  0  0  0
    3.3396    2.1171    1.9910 C   0  0  0  0  0  0  0  0  0  0  0  0
    4.0945    3.0688    0.0839 C   0  0  0  0  0  0  0  0  0  0  0  0
    4.0259    3.2048    1.4686 N   0  0  0  0  0  0  0  0  0  0  0  0
   -1.0971    0.9598    0.6211 H   0  0  0  0  0  0  0  0  0  0  0  0
    0.9260    0.5394   -0.5874 H   0  0  0  0  0  0  0  0  0  0  0  0
    2.8713   -0.7002    0.3679 H   0  0  0  0  0  0  0  0  0  0  0  0
    2.2389   -0.3847    1.9758 H   0  0  0  0  0  0  0  0  0  0  0  0
    3.3511    1.5630   -1.1635 H   0  0  0  0  0  0  0  0  0  0  0  0
    3.1268    1.9002    3.0391 H   0  0  0  0  0  0  0  0  0  0  0  0
    4.5798    3.7554   -0.6121 H   0  0  0  0  0  0  0  0  0  0  0  0
    4.4268    3.9703    2.0178 H   0  0  0  0  0  0  0  0  0  0  0  0
   -1.0910   -1.4983   -0.2026 N   0  0  0  0  0  0  0  0  0  0  0  0
   -1.5606   -2.4581   -1.2095 C   0  0  2  0  0  0  0  0  0  0  0  0
   -1.2782   -1.9646   -2.6493 C   0  0  0  0  0  0  0  0  0  0  0  0
   -0.9322   -0.8040   -2.8550 O   0  0  0  0  0  0  0  0  0  0  0  0
   -3.0627   -2.6531   -0.9882 C   0  0  0  0  0  0  0  0  0  0  0  0
   -1.6558   -0.6547   -0.0980 H   0  0  0  0  0  0  0  0  0  0  0  0
   -1.0569   -3.4212   -1.0728 H   0  0  0  0  0  0  0  0  0  0  0  0
   -3.5972   -1.7085   -1.1346 H   0  0  0  0  0  0  0  0  0  0  0  0
   -3.4629   -3.3909   -1.6903 H   0  0  0  0  0  0  0  0  0  0  0  0
   -3.2529   -3.0078    0.0296 H   0  0  0  0  0  0  0  0  0  0  0  0
   -1.4111   -2.8248   -3.7232 N   0  0  0  0  0  0  0  0  0  0  0  0
   -1.1546   -2.4285   -5.1033 C   0  0  0  0  0  0  0  0  0  0  0  0
   -1.6659   -3.7889   -3.5284 H   0  0  0  0  0  0  0  0  0  0  0  0
   -1.8265   -1.6160   -5.4001 H   0  0  0  0  0  0  0  0  0  0  0  0
   -0.1197   -2.0894   -5.2190 H   0  0  0  0  0  0  0  0  0  0  0  0
   -1.3182   -3.2748   -5.7776 H   0  0  0  0  0  0  0  0  0  0  0  0
  1  2  2  0  0  0  0
  1  3  1  0  0  0  0
  1  7  1  0  0  0  0
  3  4  1  0  0  0  0
  3  5  1  0  0  0  0
  3  6  1  0  0  0  0
  7  8  1  0  0  0  0
  7 12  1  0  0  0  0
  8  9  1  0  0  0  0
  8 11  1  0  0  0  0
  8 13  1  0  0  0  0
  9 10  2  0  0  0  0
  9 17  1  0  0  0  0
 11 14  1  0  0  0  0
 11 15  1  0  0  0  0
 11 16  1  0  0  0  0
 17 18  1  0  0  0  0
 17 27  1  0  0  0  0
 18 19  1  0  0  0  0
 18 21  1  0  0  0  0
 18 28  1  0  0  0  0
 19 20  2  0  0  0  0
 19 35  1  0  0  0  0
 21 22  1  0  0  0  0
 21 29  1  0  0  0  0
 21 30  1  0  0  0  0
 22 23  1  0  0  0  0
 22 24  2  0  0  0  0
 23 25  2  0  0  0  0
 23 31  1  0  0  0  0
 24 26  1  0  0  0  0
 24 32  1  0  0  0  0
 25 26  1  0  0  0  0
 25 33  1  0  0  0  0
 26 34  1  0  0  0  0
 35 36  1  0  0  0  0
 35 40  1  0  0  0  0
 36 37  1  0  0  0  0
 36 39  1  0  0  0  0
 36 41  1  0  0  0  0
 37 38  2  0  0  0  0
 37 45  1  0  0  0  0
 39 42  1  0  0  0  0
 39 43  1  0  0  0  0
 39 44  1  0  0  0  0
 45 46  1  0  0  0  0
 45 47  1  0  0  0  0
 46 48  1  0  0  0  0
 46 49  1  0  0  0  0
 46 50  1  0  0  0  0
M  CHG  1  23   1
M  END
$$$$

  -OEChem-05262216443D

 50 50  0     1  0  0  0  0  0999 V2000
   -3.2992    0.5750    2.0150 C   0  0  0  0  0  0  0  0  0  0  0  0
   -2.9681    0.8220    0.8623 O   0  0  0  0  0  0  0  0  0  0  0  0
   -4.4478   -0.3770    2.2853 C   0  0  0  0  0  0  0  0  0  0  0  0
   -4.8579   -0.7513    1.3430 H   0  0  0  0  0  0  0  0  0  0  0  0
   -4.0995   -1.2266    2.8782 H   0  0  0  0  0  0  0  0  0  0  0  0
   -5.2409    0.1394    2.8321 H   0  0  0  0  0  0  0  0  0  0  0  0
   -2.5780    1.1094    3.0665 N   0  0  0  0  0  0  0  0  0  0  0  0
   -1.4761    2.0807    2.9332 C   0  0  2  0  0  0  0  0  0  0  0  0
   -0.1577    1.4372    2.4274 C   0  0  0  0  0  0  0  0  0  0  0  0
    0.8355    1.3663    3.1380 O   0  0  0  0  0  0  0  0  0  0  0  0
   -1.3161    2.7713    4.2936 C   0  0  0  0  0  0  0  0  0  0  0  0
   -2.8678    0.8388    4.0036 H   0  0  0  0  0  0  0  0  0  0  0  0
   -1.7609    2.8468    2.2035 H   0  0  0  0  0  0  0  0  0  0  0  0
   -1.0396    2.0457    5.0655 H   0  0  0  0  0  0  0  0  0  0  0  0
   -0.5347    3.5361    4.2427 H   0  0  0  0  0  0  0  0  0  0  0  0
   -2.2517    3.2566    4.5887 H   0  0  0  0  0  0  0  0  0  0  0  0
   -0.1967    0.8593    1.1724 N   0  0  0  0  0  0  0  0  0  0  0  0
    0.7832    0.0609    0.4059 C   0  0  2  0  0  0  0  0  0  0  0  0
    0.1922   -1.3306    0.0920 C   0  0  0  0  0  0  0  0  0  0  0  0
    0.9174   -2.3141    0.0153 O   0  0  0  0  0  0  0  0  0  0  0  0
    2.2563    0.0036    0.8825 C   0  0  0  0  0  0  0  0  0  0  0  0
    2.9455    1.3474    0.8247 C   0  0  0  0  0  0  0  0  0  0  0  0
    3.3853    1.9687   -0.3450 N   0  3  0  0  0  0  0  0  0  0  0  0
    3.3773    2.1120    1.8781 C   0  0  0  0  0  0  0  0  0  0  0  0
    4.0212    3.0797   -0.0615 C   0  0  0  0  0  0  0  0  0  0  0  0
    4.0310    3.2053    1.3260 N   0  0  0  0  0  0  0  0  0  0  0  0
   -1.1228    0.9491    0.7454 H   0  0  0  0  0  0  0  0  0  0  0  0
    0.8309    0.5424   -0.5760 H   0  0  0  0  0  0  0  0  0  0  0  0
    2.8224   -0.6960    0.2577 H   0  0  0  0  0  0  0  0  0  0  0  0
    2.2841   -0.3930    1.9031 H   0  0  0  0  0  0  0  0  0  0  0  0
    3.2106    1.5818   -1.2768 H   0  0  0  0  0  0  0  0  0  0  0  0
    3.2232    1.8859    2.9346 H   0  0  0  0  0  0  0  0  0  0  0  0
    4.4647    3.7732   -0.7782 H   0  0  0  0  0  0  0  0  0  0  0  0
    4.4615    3.9672    1.8575 H   0  0  0  0  0  0  0  0  0  0  0  0
   -1.1115   -1.4159   -0.3651 N   0  0  0  0  0  0  0  0  0  0  0  0
   -1.4697   -2.3776   -1.4145 C   0  0  2  0  0  0  0  0  0  0  0  0
   -0.9378   -1.9357   -2.7999 C   0  0  0  0  0  0  0  0  0  0  0  0
   -0.4770   -0.8077   -2.9608 O   0  0  0  0  0  0  0  0  0  0  0  0
   -2.9964   -2.4918   -1.4281 C   0  0  0  0  0  0  0  0  0  0  0  0
   -1.6213   -0.5334   -0.3809 H   0  0  0  0  0  0  0  0  0  0  0  0
   -1.0468   -3.3616   -1.1827 H   0  0  0  0  0  0  0  0  0  0  0  0
   -3.4510   -1.5262   -1.6731 H   0  0  0  0  0  0  0  0  0  0  0  0
   -3.3209   -3.2270   -2.1710 H   0  0  0  0  0  0  0  0  0  0  0  0
   -3.3617   -2.8102   -0.4466 H   0  0  0  0  0  0  0  0  0  0  0  0
   -0.9740   -2.8052   -3.8737 N   0  0  0  0  0  0  0  0  0  0  0  0
   -0.4908   -2.4565   -5.2050 C   0  0  0  0  0  0  0  0  0  0  0  0
   -1.3206   -3.7460   -3.7087 H   0  0  0  0  0  0  0  0  0  0  0  0
   -1.0126   -1.5707   -5.5830 H   0  0  0  0  0  0  0  0  0  0  0  0
    0.5841   -2.2485   -5.1807 H   0  0  0  0  0  0  0  0  0  0  0  0
   -0.6679   -3.2823   -5.9010 H   0  0  0  0  0  0  0  0  0  0  0  0
  1  2  2  0  0  0  0
  1  3  1  0  0  0  0
  1  7  1  0  0  0  0
  3  4  1  0  0  0  0
  3  5  1  0  0  0  0
  3  6  1  0  0  0  0
  7  8  1  0  0  0  0
  7 12  1  0  0  0  0
  8  9  1  0  0  0  0
  8 11  1  0  0  0  0
  8 13  1  0  0  0  0
  9 10  2  0  0  0  0
  9 17  1  0  0  0  0
 11 14  1  0  0  0  0
 11 15  1  0  0  0  0
 11 16  1  0  0  0  0
 17 18  1  0  0  0  0
 17 27  1  0  0  0  0
 18 19  1  0  0  0  0
 18 21  1  0  0  0  0
 18 28  1  0  0  0  0
 19 20  2  0  0  0  0
 19 35  1  0  0  0  0
 21 22  1  0  0  0  0
 21 29  1  0  0  0  0
 21 30  1  0  0  0  0
 22 23  1  0  0  0  0
 22 24  2  0  0  0  0
 23 25  2  0  0  0  0
 23 31  1  0  0  0  0
 24 26  1  0  0  0  0
 24 32  1  0  0  0  0
 25 26  1  0  0  0  0
 25 33  1  0  0  0  0
 26 34  1  0  0  0  0
 35 36  1  0  0  0  0
 35 40  1  0  0  0  0
 36 37  1  0  0  0  0
 36 39  1  0  0  0  0
 36 41  1  0  0  0  0
 37 38  2  0  0  0  0
 37 45  1  0  0  0  0
 39 42  1  0  0  0  0
 39 43  1  0  0  0  0
 39 44  1  0  0  0  0
 45 46  1  0  0  0  0
 45 47  1  0  0  0  0
 46 48  1  0  0  0  0
 46 49  1  0  0  0  0
 46 50  1  0  0  0  0
M  CHG  1  23   1
M  END
$$$$

  -OEChem-05262216443D

 50 50  0     1  0  0  0  0  0999 V2000
   -3.3717    0.8493    2.1252 C   0  0  0  0  0  0  0  0  0  0  0  0
   -3.0466    1.1424    0.9823 O   0  0  0  0  0  0  0  0  0  0  0  0
   -4.6119    0.0138    2.3749 C   0  0  0  0  0  0  0  0  0  0  0  0
   -5.1134   -0.2098    1.4290 H   0  0  0  0  0  0  0  0  0  0  0  0
   -4.3390   -0.9273    2.8588 H   0  0  0  0  0  0  0  0  0  0  0  0
   -5.3068    0.5588    3.0189 H   0  0  0  0  0  0  0  0  0  0  0  0
   -2.5687    1.2340    3.1817 N   0  0  0  0  0  0  0  0  0  0  0  0
   -1.3929    2.1161    3.0692 C   0  0  2  0  0  0  0  0  0  0  0  0
   -0.1445    1.3962    2.4939 C   0  0  0  0  0  0  0  0  0  0  0  0
    0.8825    1.2834    3.1489 O   0  0  0  0  0  0  0  0  0  0  0  0
   -1.1479    2.7169    4.4599 C   0  0  0  0  0  0  0  0  0  0  0  0
   -2.8574    0.9343    4.1102 H   0  0  0  0  0  0  0  0  0  0  0  0
   -1.6284    2.9413    2.3885 H   0  0  0  0  0  0  0  0  0  0  0  0
   -0.9039    1.9315    5.1829 H   0  0  0  0  0  0  0  0  0  0  0  0
   -0.3151    3.4265    4.4270 H   0  0  0  0  0  0  0  0  0  0  0  0
   -2.0382    3.2493    4.8092 H   0  0  0  0  0  0  0  0  0  0  0  0
   -0.2664    0.8357    1.2346 N   0  0  0  0  0  0  0  0  0  0  0  0
    0.6577    0.0178    0.4201 C   0  0  2  0  0  0  0  0  0  0  0  0
    0.0285   -1.3561    0.1129 C   0  0  0  0  0  0  0  0  0  0  0  0
    0.6781   -2.3873    0.2315 O   0  0  0  0  0  0  0  0  0  0  0  0
    2.1503   -0.0821    0.8191 C   0  0  0  0  0  0  0  0  0  0  0  0
    2.8685    1.2436    0.7306 C   0  0  0  0  0  0  0  0  0  0  0  0
    3.2603    1.8568   -0.4601 N   0  3  0  0  0  0  0  0  0  0  0  0
    3.3713    1.9952    1.7608 C   0  0  0  0  0  0  0  0  0  0  0  0
    3.9352    2.9526   -0.2091 C   0  0  0  0  0  0  0  0  0  0  0  0
    4.0201    3.0747    1.1762 N   0  0  0  0  0  0  0  0  0  0  0  0
   -1.2086    0.9598    0.8520 H   0  0  0  0  0  0  0  0  0  0  0  0
    0.6769    0.5127   -0.5559 H   0  0  0  0  0  0  0  0  0  0  0  0
    2.6611   -0.7936    0.1607 H   0  0  0  0  0  0  0  0  0  0  0  0
    2.2214   -0.4862    1.8347 H   0  0  0  0  0  0  0  0  0  0  0  0
    3.0280    1.4750   -1.3818 H   0  0  0  0  0  0  0  0  0  0  0  0
    3.2655    1.7700    2.8236 H   0  0  0  0  0  0  0  0  0  0  0  0
    4.3561    3.6364   -0.9480 H   0  0  0  0  0  0  0  0  0  0  0  0
    4.4946    3.8253    1.6857 H   0  0  0  0  0  0  0  0  0  0  0  0
   -1.1657   -1.3854   -0.5844 N   0  0  0  0  0  0  0  0  0  0  0  0
   -1.3526   -2.3673   -1.6611 C   0  0  2  0  0  0  0  0  0  0  0  0
   -0.4978   -2.0176   -2.9053 C   0  0  0  0  0  0  0  0  0  0  0  0
    0.0614   -0.9251   -2.9922 O   0  0  0  0  0  0  0  0  0  0  0  0
   -2.8427   -2.3947   -2.0100 C   0  0  0  0  0  0  0  0  0  0  0  0
   -1.5794   -0.4701   -0.7479 H   0  0  0  0  0  0  0  0  0  0  0  0
   -1.0587   -3.3642   -1.3140 H   0  0  0  0  0  0  0  0  0  0  0  0
   -3.1701   -1.4174   -2.3797 H   0  0  0  0  0  0  0  0  0  0  0  0
   -3.0434   -3.1437   -2.7824 H   0  0  0  0  0  0  0  0  0  0  0  0
   -3.4338   -2.6486   -1.1244 H   0  0  0  0  0  0  0  0  0  0  0  0
   -0.3411   -2.9345   -3.9277 N   0  0  0  0  0  0  0  0  0  0  0  0
    0.4757   -2.6876   -5.1108 C   0  0  0  0  0  0  0  0  0  0  0  0
   -0.7697   -3.8488   -3.8115 H   0  0  0  0  0  0  0  0  0  0  0  0
    0.1184   -1.8020   -5.6473 H   0  0  0  0  0  0  0  0  0  0  0  0
    1.5221   -2.5308   -4.8285 H   0  0  0  0  0  0  0  0  0  0  0  0
    0.4264   -3.5441   -5.7903 H   0  0  0  0  0  0  0  0  0  0  0  0
  1  2  2  0  0  0  0
  1  3  1  0  0  0  0
  1  7  1  0  0  0  0
  3  4  1  0  0  0  0
  3  5  1  0  0  0  0
  3  6  1  0  0  0  0
  7  8  1  0  0  0  0
  7 12  1  0  0  0  0
  8  9  1  0  0  0  0
  8 11  1  0  0  0  0
  8 13  1  0  0  0  0
  9 10  2  0  0  0  0
  9 17  1  0  0  0  0
 11 14  1  0  0  0  0
 11 15  1  0  0  0  0
 11 16  1  0  0  0  0
 17 18  1  0  0  0  0
 17 27  1  0  0  0  0
 18 19  1  0  0  0  0
 18 21  1  0  0  0  0
 18 28  1  0  0  0  0
 19 20  2  0  0  0  0
 19 35  1  0  0  0  0
 21 22  1  0  0  0  0
 21 29  1  0  0  0  0
 21 30  1  0  0  0  0
 22 23  1  0  0  0  0
 22 24  2  0  0  0  0
 23 25  2  0  0  0  0
 23 31  1  0  0  0  0
 24 26  1  0  0  0  0
 24 32  1  0  0  0  0
 25 26  1  0  0  0  0
 25 33  1  0  0  0  0
 26 34  1  0  0  0  0
 35 36  1  0  0  0  0
 35 40  1  0  0  0  0
 36 37  1  0  0  0  0
 36 39  1  0  0  0  0
 36 41  1  0  0  0  0
 37 38  2  0  0  0  0
 37 45  1  0  0  0  0
 39 42  1  0  0  0  0
 39 43  1  0  0  0  0
 39 44  1  0  0  0  0
 45 46  1  0  0  0  0
 45 47  1  0  0  0  0
 46 48  1  0  0  0  0
 46 49  1  0  0  0  0
 46 50  1  0  0  0  0
M  CHG  1  23   1
M  END
$$$$

  -OEChem-05262216443D

 50 50  0     1  0  0  0  0  0999 V2000
   -3.4427    1.0286    2.3474 C   0  0  0  0  0  0  0  0  0  0  0  0
   -3.1640    1.3456    1.1990 O   0  0  0  0  0  0  0  0  0  0  0  0
   -4.7162    0.2610    2.6437 C   0  0  0  0  0  0  0  0  0  0  0  0
   -5.3012    0.1328    1.7284 H   0  0  0  0  0  0  0  0  0  0  0  0
   -4.4730   -0.7251    3.0473 H   0  0  0  0  0  0  0  0  0  0  0  0
   -5.3220    0.8058    3.3722 H   0  0  0  0  0  0  0  0  0  0  0  0
   -2.5536    1.3208    3.3630 N   0  0  0  0  0  0  0  0  0  0  0  0
   -1.3337    2.1308    3.1995 C   0  0  2  0  0  0  0  0  0  0  0  0
   -0.1671    1.3506    2.5371 C   0  0  0  0  0  0  0  0  0  0  0  0
    0.8984    1.1952    3.1183 O   0  0  0  0  0  0  0  0  0  0  0  0
   -0.9728    2.6814    4.5855 C   0  0  0  0  0  0  0  0  0  0  0  0
   -2.8031    1.0067    4.2980 H   0  0  0  0  0  0  0  0  0  0  0  0
   -1.5552    2.9856    2.5511 H   0  0  0  0  0  0  0  0  0  0  0  0
   -0.7350    1.8648    5.2754 H   0  0  0  0  0  0  0  0  0  0  0  0
   -0.1021    3.3414    4.5177 H   0  0  0  0  0  0  0  0  0  0  0  0
   -1.8072    3.2570    4.9984 H   0  0  0  0  0  0  0  0  0  0  0  0
   -0.3885    0.8113    1.2808 N   0  0  0  0  0  0  0  0  0  0  0  0
    0.4593   -0.0496    0.4279 C   0  0  2  0  0  0  0  0  0  0  0  0
   -0.2150   -1.3991    0.1190 C   0  0  0  0  0  0  0  0  0  0  0  0
    0.3335   -2.4567    0.4013 O   0  0  0  0  0  0  0  0  0  0  0  0
    1.9684   -0.2078    0.7270 C   0  0  0  0  0  0  0  0  0  0  0  0
    2.7203    1.0894    0.5678 C   0  0  0  0  0  0  0  0  0  0  0  0
    3.0393    1.6563   -0.6659 N   0  3  0  0  0  0  0  0  0  0  0  0
    3.3048    1.8582    1.5398 C   0  0  0  0  0  0  0  0  0  0  0  0
    3.7526    2.7428   -0.4952 C   0  0  0  0  0  0  0  0  0  0  0  0
    3.9350    2.9038    0.8777 N   0  0  0  0  0  0  0  0  0  0  0  0
   -1.3473    0.9698    0.9543 H   0  0  0  0  0  0  0  0  0  0  0  0
    0.4508    0.4615   -0.5392 H   0  0  0  0  0  0  0  0  0  0  0  0
    2.4041   -0.9455    0.0435 H   0  0  0  0  0  0  0  0  0  0  0  0
    2.0955   -0.6037    1.7401 H   0  0  0  0  0  0  0  0  0  0  0  0
    2.7337    1.2495   -1.5563 H   0  0  0  0  0  0  0  0  0  0  0  0
    3.2624    1.6689    2.6140 H   0  0  0  0  0  0  0  0  0  0  0  0
    4.1351    3.3954   -1.2817 H   0  0  0  0  0  0  0  0  0  0  0  0
    4.4558    3.6603    1.3299 H   0  0  0  0  0  0  0  0  0  0  0  0
   -1.2428   -1.3982   -0.8061 N   0  0  0  0  0  0  0  0  0  0  0  0
   -1.1799   -2.3569   -1.9182 C   0  0  2  0  0  0  0  0  0  0  0  0
    0.0034   -2.0569   -2.8761 C   0  0  0  0  0  0  0  0  0  0  0  0
    0.6077   -0.9843   -2.8183 O   0  0  0  0  0  0  0  0  0  0  0  0
   -2.5125   -2.2886   -2.6678 C   0  0  0  0  0  0  0  0  0  0  0  0
   -1.5742   -0.4691   -1.0529 H   0  0  0  0  0  0  0  0  0  0  0  0
   -1.0531   -3.3718   -1.5243 H   0  0  0  0  0  0  0  0  0  0  0  0
   -2.6674   -1.2899   -3.0891 H   0  0  0  0  0  0  0  0  0  0  0  0
   -2.5315   -3.0163   -3.4850 H   0  0  0  0  0  0  0  0  0  0  0  0
   -3.3413   -2.5134   -1.9888 H   0  0  0  0  0  0  0  0  0  0  0  0
    0.4050   -3.0031   -3.7997 N   0  0  0  0  0  0  0  0  0  0  0  0
    1.5309   -2.8185   -4.7081 C   0  0  0  0  0  0  0  0  0  0  0  0
   -0.0697   -3.9022   -3.7881 H   0  0  0  0  0  0  0  0  0  0  0  0
    1.3727   -1.9405   -5.3434 H   0  0  0  0  0  0  0  0  0  0  0  0
    2.4604   -2.6847   -4.1448 H   0  0  0  0  0  0  0  0  0  0  0  0
    1.6424   -3.6946   -5.3548 H   0  0  0  0  0  0  0  0  0  0  0  0
  1  2  2  0  0  0  0
  1  3  1  0  0  0  0
  1  7  1  0  0  0  0
  3  4  1  0  0  0  0
  3  5  1  0  0  0  0
  3  6  1  0  0  0  0
  7  8  1  0  0  0  0
  7 12  1  0  0  0  0
  8  9  1  0  0  0  0
  8 11  1  0  0  0  0
  8 13  1  0  0  0  0
  9 10  2  0  0  0  0
  9 17  1  0  0  0  0
 11 14  1  0  0  0  0
 11 15  1  0  0  0  0
 11 16  1  0  0  0  0
 17 18  1  0  0  0  0
 17 27  1  0  0  0  0
 18 19  1  0  0  0  0
 18 21  1  0  0  0  0
 18 28  1  0  0  0  0
 19 20  2  0  0  0  0
 19 35  1  0  0  0  0
 21 22  1  0  0  0  0
 21 29  1  0  0  0  0
 21 30  1  0  0  0  0
 22 23  1  0  0  0  0
 22 24  2  0  0  0  0
 23 25  2  0  0  0  0
 23 31  1  0  0  0  0
 24 26  1  0  0  0  0
 24 32  1  0  0  0  0
 25 26  1  0  0  0  0
 25 33  1  0  0  0  0
 26 34  1  0  0  0  0
 35 36  1  0  0  0  0
 35 40  1  0  0  0  0
 36 37  1  0  0  0  0
 36 39  1  0  0  0  0
 36 41  1  0  0  0  0
 37 38  2  0  0  0  0
 37 45  1  0  0  0  0
 39 42  1  0  0  0  0
 39 43  1  0  0  0  0
 39 44  1  0  0  0  0
 45 46  1  0  0  0  0
 45 47  1  0  0  0  0
 46 48  1  0  0  0  0
 46 49  1  0  0  0  0
 46 50  1  0  0  0  0
M  CHG  1  23   1
M  END
$$$$

  -OEChem-05262216443D

 50 50  0     1  0  0  0  0  0999 V2000
   -3.4720    1.2084    2.5626 C   0  0  0  0  0  0  0  0  0  0  0  0
   -3.2291    1.5379    1.4098 O   0  0  0  0  0  0  0  0  0  0  0  0
   -4.7818    0.5261    2.9064 C   0  0  0  0  0  0  0  0  0  0  0  0
   -5.3934    0.4080    2.0073 H   0  0  0  0  0  0  0  0  0  0  0  0
   -4.5902   -0.4617    3.3326 H   0  0  0  0  0  0  0  0  0  0  0  0
   -5.3372    1.1262    3.6313 H   0  0  0  0  0  0  0  0  0  0  0  0
   -2.5149    1.4105    3.5374 N   0  0  0  0  0  0  0  0  0  0  0  0
   -1.2488    2.1346    3.3287 C   0  0  2  0  0  0  0  0  0  0  0  0
   -0.1782    1.2877    2.5911 C   0  0  0  0  0  0  0  0  0  0  0  0
    0.9063    1.0503    3.1075 O   0  0  0  0  0  0  0  0  0  0  0  0
   -0.7822    2.6223    4.7068 C   0  0  0  0  0  0  0  0  0  0  0  0
   -2.7393    1.0913    4.4770 H   0  0  0  0  0  0  0  0  0  0  0  0
   -1.4385    3.0193    2.7108 H   0  0  0  0  0  0  0  0  0  0  0  0
   -0.5629    1.7735    5.3628 H   0  0  0  0  0  0  0  0  0  0  0  0
    0.1248    3.2273    4.6100 H   0  0  0  0  0  0  0  0  0  0  0  0
   -1.5562    3.2372    5.1771 H   0  0  0  0  0  0  0  0  0  0  0  0
   -0.4957    0.8042    1.3322 N   0  0  0  0  0  0  0  0  0  0  0  0
    0.2105   -0.1828    0.4896 C   0  0  2  0  0  0  0  0  0  0  0  0
   -0.5869   -1.4446    0.1196 C   0  0  0  0  0  0  0  0  0  0  0  0
   -0.2289   -2.5450    0.5169 O   0  0  0  0  0  0  0  0  0  0  0  0
    1.7060   -0.5031    0.7118 C   0  0  0  0  0  0  0  0  0  0  0  0
    2.5611    0.6991    0.4336 C   0  0  0  0  0  0  0  0  0  0  0  0
    2.8144    1.1193   -0.8705 N   0  3  0  0  0  0  0  0  0  0  0  0
    3.2605    1.5067    1.2881 C   0  0  0  0  0  0  0  0  0  0  0  0
    3.6128    2.1585   -0.8570 C   0  0  0  0  0  0  0  0  0  0  0  0
    3.9116    2.4316    0.4796 N   0  0  0  0  0  0  0  0  0  0  0  0
   -1.4548    1.0381    1.0541 H   0  0  0  0  0  0  0  0  0  0  0  0
    0.2369    0.3584   -0.4589 H   0  0  0  0  0  0  0  0  0  0  0  0
    2.0225   -1.3175    0.0509 H   0  0  0  0  0  0  0  0  0  0  0  0
    1.8543   -0.8568    1.7372 H   0  0  0  0  0  0  0  0  0  0  0  0
    2.4009    0.6471   -1.6888 H   0  0  0  0  0  0  0  0  0  0  0  0
    3.2745    1.4252    2.3763 H   0  0  0  0  0  0  0  0  0  0  0  0
    3.9751    2.7038   -1.7297 H   0  0  0  0  0  0  0  0  0  0  0  0
    4.5140    3.1877    0.8163 H   0  0  0  0  0  0  0  0  0  0  0  0
   -1.3211   -1.3644   -1.0498 N   0  0  0  0  0  0  0  0  0  0  0  0
   -0.9445   -2.2488   -2.1630 C   0  0  2  0  0  0  0  0  0  0  0  0
    0.4566   -1.9241   -2.7558 C   0  0  0  0  0  0  0  0  0  0  0  0
    1.0375   -0.8594   -2.5165 O   0  0  0  0  0  0  0  0  0  0  0  0
   -2.0226   -2.1136   -3.2414 C   0  0  0  0  0  0  0  0  0  0  0  0
   -1.5480   -0.4115   -1.3220 H   0  0  0  0  0  0  0  0  0  0  0  0
   -0.9328   -3.2877   -1.8137 H   0  0  0  0  0  0  0  0  0  0  0  0
   -2.0520   -1.0915   -3.6331 H   0  0  0  0  0  0  0  0  0  0  0  0
   -1.8233   -2.7977   -4.0722 H   0  0  0  0  0  0  0  0  0  0  0  0
   -3.0062   -2.3564   -2.8264 H   0  0  0  0  0  0  0  0  0  0  0  0
    1.0876   -2.8521   -3.5617 N   0  0  0  0  0  0  0  0  0  0  0  0
    2.4107   -2.6598   -4.1445 C   0  0  0  0  0  0  0  0  0  0  0  0
    0.6183   -3.7434   -3.7059 H   0  0  0  0  0  0  0  0  0  0  0  0
    2.4267   -1.7649   -4.7756 H   0  0  0  0  0  0  0  0  0  0  0  0
    3.1648   -2.5527   -3.3579 H   0  0  0  0  0  0  0  0  0  0  0  0
    2.6794   -3.5213   -4.7642 H   0  0  0  0  0  0  0  0  0  0  0  0
  1  2  2  0  0  0  0
  1  3  1  0  0  0  0
  1  7  1  0  0  0  0
  3  4  1  0  0  0  0
  3  5  1  0  0  0  0
  3  6  1  0  0  0  0
  7  8  1  0  0  0  0
  7 12  1  0  0  0  0
  8  9  1  0  0  0  0
  8 11  1  0  0  0  0
  8 13  1  0  0  0  0
  9 10  2  0  0  0  0
  9 17  1  0  0  0  0
 11 14  1  0  0  0  0
 11 15  1  0  0  0  0
 11 16  1  0  0  0  0
 17 18  1  0  0  0  0
 17 27  1  0  0  0  0
 18 19  1  0  0  0  0
 18 21  1  0  0  0  0
 18 28  1  0  0  0  0
 19 20  2  0  0  0  0
 19 35  1  0  0  0  0
 21 22  1  0  0  0  0
 21 29  1  0  0  0  0
 21 30  1  0  0  0  0
 22 23  1  0  0  0  0
 22 24  2  0  0  0  0
 23 25  2  0  0  0  0
 23 31  1  0  0  0  0
 24 26  1  0  0  0  0
 24 32  1  0  0  0  0
 25 26  1  0  0  0  0
 25 33  1  0  0  0  0
 26 34  1  0  0  0  0
 35 36  1  0  0  0  0
 35 40  1  0  0  0  0
 36 37  1  0  0  0  0
 36 39  1  0  0  0  0
 36 41  1  0  0  0  0
 37 38  2  0  0  0  0
 37 45  1  0  0  0  0
 39 42  1  0  0  0  0
 39 43  1  0  0  0  0
 39 44  1  0  0  0  0
 45 46  1  0  0  0  0
 45 47  1  0  0  0  0
 46 48  1  0  0  0  0
 46 49  1  0  0  0  0
 46 50  1  0  0  0  0
M  CHG  1  23   1
M  END
$$$$

  -OEChem-05262216443D

 50 50  0     1  0  0  0  0  0999 V2000
   -3.4201    1.4564    2.5637 C   0  0  0  0  0  0  0  0  0  0  0  0
   -3.1031    1.8673    1.4562 O   0  0  0  0  0  0  0  0  0  0  0  0
   -4.8089    0.8992    2.8075 C   0  0  0  0  0  0  0  0  0  0  0  0
   -5.3110    1.4752    3.5887 H   0  0  0  0  0  0  0  0  0  0  0  0
   -5.4039    0.9567    1.8917 H   0  0  0  0  0  0  0  0  0  0  0  0
   -4.7447   -0.1462    3.1195 H   0  0  0  0  0  0  0  0  0  0  0  0
   -2.4779    1.4466    3.5729 N   0  0  0  0  0  0  0  0  0  0  0  0
   -1.1308    2.0339    3.4651 C   0  0  2  0  0  0  0  0  0  0  0  0
   -0.1373    1.1387    2.6769 C   0  0  0  0  0  0  0  0  0  0  0  0
    0.9135    0.7683    3.1843 O   0  0  0  0  0  0  0  0  0  0  0  0
   -0.6624    2.3358    4.8955 C   0  0  0  0  0  0  0  0  0  0  0  0
   -2.7666    1.0604    4.4687 H   0  0  0  0  0  0  0  0  0  0  0  0
   -1.1965    2.9871    2.9292 H   0  0  0  0  0  0  0  0  0  0  0  0
   -0.5584    1.4102    5.4713 H   0  0  0  0  0  0  0  0  0  0  0  0
    0.3073    2.8433    4.8800 H   0  0  0  0  0  0  0  0  0  0  0  0
   -1.3806    2.9860    5.4050 H   0  0  0  0  0  0  0  0  0  0  0  0
   -0.4893    0.7606    1.3908 N   0  0  0  0  0  0  0  0  0  0  0  0
    0.1409   -0.2046    0.4658 C   0  0  2  0  0  0  0  0  0  0  0  0
   -0.7434   -1.3813    0.0215 C   0  0  0  0  0  0  0  0  0  0  0  0
   -0.5875   -2.4845    0.5251 O   0  0  0  0  0  0  0  0  0  0  0  0
    1.5990   -0.6718    0.6851 C   0  0  0  0  0  0  0  0  0  0  0  0
    2.5740    0.4603    0.5362 C   0  0  0  0  0  0  0  0  0  0  0  0
    2.9011    0.9637   -0.7209 N   0  3  0  0  0  0  0  0  0  0  0  0
    3.3319    1.1140    1.4692 C   0  0  0  0  0  0  0  0  0  0  0  0
    3.8051    1.9051   -0.6044 C   0  0  0  0  0  0  0  0  0  0  0  0
    4.0943    2.0320    0.7559 N   0  0  0  0  0  0  0  0  0  0  0  0
   -1.4130    1.1137    1.1187 H   0  0  0  0  0  0  0  0  0  0  0  0
    0.2228    0.3999   -0.4413 H   0  0  0  0  0  0  0  0  0  0  0  0
    1.8595   -1.4583   -0.0303 H   0  0  0  0  0  0  0  0  0  0  0  0
    1.6849   -1.1208    1.6803 H   0  0  0  0  0  0  0  0  0  0  0  0
    2.4789    0.5921   -1.5856 H   0  0  0  0  0  0  0  0  0  0  0  0
    3.3131    0.9369    2.5459 H   0  0  0  0  0  0  0  0  0  0  0  0
    4.2502    2.4751   -1.4210 H   0  0  0  0  0  0  0  0  0  0  0  0
    4.7659    2.6860    1.1673 H   0  0  0  0  0  0  0  0  0  0  0  0
   -1.2316   -1.3017   -1.2708 N   0  0  0  0  0  0  0  0  0  0  0  0
   -0.7482   -2.2571   -2.2781 C   0  0  2  0  0  0  0  0  0  0  0  0
    0.6721   -1.9019   -2.7983 C   0  0  0  0  0  0  0  0  0  0  0  0
    1.2136   -0.8259   -2.5207 O   0  0  0  0  0  0  0  0  0  0  0  0
   -1.7616   -2.2628   -3.4257 C   0  0  0  0  0  0  0  0  0  0  0  0
   -1.3139   -0.3466   -1.6099 H   0  0  0  0  0  0  0  0  0  0  0  0
   -0.7105   -3.2655   -1.8499 H   0  0  0  0  0  0  0  0  0  0  0  0
   -1.8110   -1.2787   -3.9027 H   0  0  0  0  0  0  0  0  0  0  0  0
   -1.4826   -3.0023   -4.1824 H   0  0  0  0  0  0  0  0  0  0  0  0
   -2.7578   -2.5174   -3.0491 H   0  0  0  0  0  0  0  0  0  0  0  0
    1.3715   -2.8162   -3.5620 N   0  0  0  0  0  0  0  0  0  0  0  0
    2.7060   -2.5788   -4.1007 C   0  0  0  0  0  0  0  0  0  0  0  0
    0.9198   -3.7069   -3.7574 H   0  0  0  0  0  0  0  0  0  0  0  0
    2.7053   -1.7006   -4.7549 H   0  0  0  0  0  0  0  0  0  0  0  0
    3.4253   -2.4176   -3.2911 H   0  0  0  0  0  0  0  0  0  0  0  0
    3.0366   -3.4425   -4.6867 H   0  0  0  0  0  0  0  0  0  0  0  0
  1  2  2  0  0  0  0
  1  3  1  0  0  0  0
  1  7  1  0  0  0  0
  3  4  1  0  0  0  0
  3  5  1  0  0  0  0
  3  6  1  0  0  0  0
  7  8  1  0  0  0  0
  7 12  1  0  0  0  0
  8  9  1  0  0  0  0
  8 11  1  0  0  0  0
  8 13  1  0  0  0  0
  9 10  2  0  0  0  0
  9 17  1  0  0  0  0
 11 14  1  0  0  0  0
 11 15  1  0  0  0  0
 11 16  1  0  0  0  0
 17 18  1  0  0  0  0
 17 27  1  0  0  0  0
 18 19  1  0  0  0  0
 18 21  1  0  0  0  0
 18 28  1  0  0  0  0
 19 20  2  0  0  0  0
 19 35  1  0  0  0  0
 21 22  1  0  0  0  0
 21 29  1  0  0  0  0
 21 30  1  0  0  0  0
 22 23  1  0  0  0  0
 22 24  2  0  0  0  0
 23 25  2  0  0  0  0
 23 31  1  0  0  0  0
 24 26  1  0  0  0  0
 24 32  1  0  0  0  0
 25 26  1  0  0  0  0
 25 33  1  0  0  0  0
 26 34  1  0  0  0  0
 35 36  1  0  0  0  0
 35 40  1  0  0  0  0
 36 37  1  0  0  0  0
 36 39  1  0  0  0  0
 36 41  1  0  0  0  0
 37 38  2  0  0  0  0
 37 45  1  0  0  0  0
 39 42  1  0  0  0  0
 39 43  1  0  0  0  0
 39 44  1  0  0  0  0
 45 46  1  0  0  0  0
 45 47  1  0  0  0  0
 46 48  1  0  0  0  0
 46 49  1  0  0  0  0
 46 50  1  0  0  0  0
M  CHG  1  23   1
M  END
$$$$

  -OEChem-05262216443D

 50 50  0     1  0  0  0  0  0999 V2000
   -3.4535    1.5856    2.5014 C   0  0  0  0  0  0  0  0  0  0  0  0
   -3.1126    2.0172    1.4090 O   0  0  0  0  0  0  0  0  0  0  0  0
   -4.8463    1.0217    2.7033 C   0  0  0  0  0  0  0  0  0  0  0  0
   -5.4794    1.2659    1.8455 H   0  0  0  0  0  0  0  0  0  0  0  0
   -4.7971   -0.0650    2.8077 H   0  0  0  0  0  0  0  0  0  0  0  0
   -5.2977    1.4467    3.6031 H   0  0  0  0  0  0  0  0  0  0  0  0
   -2.5286    1.5485    3.5258 N   0  0  0  0  0  0  0  0  0  0  0  0
   -1.1664    2.1031    3.4392 C   0  0  2  0  0  0  0  0  0  0  0  0
   -0.1876    1.1784    2.6682 C   0  0  0  0  0  0  0  0  0  0  0  0
    0.8281    0.7564    3.2050 O   0  0  0  0  0  0  0  0  0  0  0  0
   -0.7116    2.3980    4.8749 C   0  0  0  0  0  0  0  0  0  0  0  0
   -2.8254    1.1252    4.4019 H   0  0  0  0  0  0  0  0  0  0  0  0
   -1.1992    3.0565    2.9003 H   0  0  0  0  0  0  0  0  0  0  0  0
   -0.6526    1.4736    5.4589 H   0  0  0  0  0  0  0  0  0  0  0  0
    0.2763    2.8693    4.8732 H   0  0  0  0  0  0  0  0  0  0  0  0
   -1.4144    3.0782    5.3664 H   0  0  0  0  0  0  0  0  0  0  0  0
   -0.5276    0.8205    1.3729 N   0  0  0  0  0  0  0  0  0  0  0  0
    0.0796   -0.1556    0.4423 C   0  0  2  0  0  0  0  0  0  0  0  0
   -0.8405   -1.2948   -0.0265 C   0  0  0  0  0  0  0  0  0  0  0  0
   -0.8988   -2.3264    0.6259 O   0  0  0  0  0  0  0  0  0  0  0  0
    1.5032   -0.7010    0.7156 C   0  0  0  0  0  0  0  0  0  0  0  0
    2.5515    0.3726    0.6380 C   0  0  0  0  0  0  0  0  0  0  0  0
    2.9650    0.8774   -0.5929 N   0  3  0  0  0  0  0  0  0  0  0  0
    3.3064    0.9635    1.6150 C   0  0  0  0  0  0  0  0  0  0  0  0
    3.9183    1.7594   -0.4188 C   0  0  0  0  0  0  0  0  0  0  0  0
    4.1501    1.8489    0.9549 N   0  0  0  0  0  0  0  0  0  0  0  0
   -1.4327    1.2104    1.0883 H   0  0  0  0  0  0  0  0  0  0  0  0
    0.2153    0.4512   -0.4572 H   0  0  0  0  0  0  0  0  0  0  0  0
    1.7543   -1.4958    0.0084 H   0  0  0  0  0  0  0  0  0  0  0  0
    1.5163   -1.1658    1.7073 H   0  0  0  0  0  0  0  0  0  0  0  0
    2.5817    0.5266   -1.4839 H   0  0  0  0  0  0  0  0  0  0  0  0
    3.2328    0.7690    2.6863 H   0  0  0  0  0  0  0  0  0  0  0  0
    4.4394    2.3093   -1.2037 H   0  0  0  0  0  0  0  0  0  0  0  0
    4.8392    2.4549    1.4084 H   0  0  0  0  0  0  0  0  0  0  0  0
   -1.0481   -1.3586   -1.3935 N   0  0  0  0  0  0  0  0  0  0  0  0
   -0.4540   -2.4427   -2.1869 C   0  0  2  0  0  0  0  0  0  0  0  0
    0.9633   -2.0675   -2.6972 C   0  0  0  0  0  0  0  0  0  0  0  0
    1.4496   -0.9528   -2.4750 O   0  0  0  0  0  0  0  0  0  0  0  0
   -1.4039   -2.7284   -3.3532 C   0  0  0  0  0  0  0  0  0  0  0  0
   -0.9915   -0.4491   -1.8454 H   0  0  0  0  0  0  0  0  0  0  0  0
   -0.3660   -3.3542   -1.5847 H   0  0  0  0  0  0  0  0  0  0  0  0
   -1.4985   -1.8498   -3.9996 H   0  0  0  0  0  0  0  0  0  0  0  0
   -1.0376   -3.5657   -3.9551 H   0  0  0  0  0  0  0  0  0  0  0  0
   -2.3976   -2.9893   -2.9740 H   0  0  0  0  0  0  0  0  0  0  0  0
    1.7303   -3.0054   -3.3609 N   0  0  0  0  0  0  0  0  0  0  0  0
    3.0720   -2.7480   -3.8719 C   0  0  0  0  0  0  0  0  0  0  0  0
    1.3168   -3.9213   -3.5223 H   0  0  0  0  0  0  0  0  0  0  0  0
    3.0589   -1.9166   -4.5846 H   0  0  0  0  0  0  0  0  0  0  0  0
    3.7554   -2.5024   -3.0525 H   0  0  0  0  0  0  0  0  0  0  0  0
    3.4570   -3.6346   -4.3859 H   0  0  0  0  0  0  0  0  0  0  0  0
  1  2  2  0  0  0  0
  1  3  1  0  0  0  0
  1  7  1  0  0  0  0
  3  4  1  0  0  0  0
  3  5  1  0  0  0  0
  3  6  1  0  0  0  0
  7  8  1  0  0  0  0
  7 12  1  0  0  0  0
  8  9  1  0  0  0  0
  8 11  1  0  0  0  0
  8 13  1  0  0  0  0
  9 10  2  0  0  0  0
  9 17  1  0  0  0  0
 11 14  1  0  0  0  0
 11 15  1  0  0  0  0
 11 16  1  0  0  0  0
 17 18  1  0  0  0  0
 17 27  1  0  0  0  0
 18 19  1  0  0  0  0
 18 21  1  0  0  0  0
 18 28  1  0  0  0  0
 19 20  2  0  0  0  0
 19 35  1  0  0  0  0
 21 22  1  0  0  0  0
 21 29  1  0  0  0  0
 21 30  1  0  0  0  0
 22 23  1  0  0  0  0
 22 24  2  0  0  0  0
 23 25  2  0  0  0  0
 23 31  1  0  0  0  0
 24 26  1  0  0  0  0
 24 32  1  0  0  0  0
 25 26  1  0  0  0  0
 25 33  1  0  0  0  0
 26 34  1  0  0  0  0
 35 36  1  0  0  0  0
 35 40  1  0  0  0  0
 36 37  1  0  0  0  0
 36 39  1  0  0  0  0
 36 41  1  0  0  0  0
 37 38  2  0  0  0  0
 37 45  1  0  0  0  0
 39 42  1  0  0  0  0
 39 43  1  0  0  0  0
 39 44  1  0  0  0  0
 45 46  1  0  0  0  0
 45 47  1  0  0  0  0
 46 48  1  0  0  0  0
 46 49  1  0  0  0  0
 46 50  1  0  0  0  0
M  CHG  1  23   1
M  END
$$$$

  -OEChem-05262216443D

 50 50  0     1  0  0  0  0  0999 V2000
   -1.7153    0.3504    4.1737 C   0  0  0  0  0  0  0  0  0  0  0  0
   -1.0302   -0.4565    3.5611 O   0  0  0  0  0  0  0  0  0  0  0  0
   -1.9218    0.1917    5.6673 C   0  0  0  0  0  0  0  0  0  0  0  0
   -1.4912   -0.7535    6.0095 H   0  0  0  0  0  0  0  0  0  0  0  0
   -1.4404    1.0151    6.2007 H   0  0  0  0  0  0  0  0  0  0  0  0
   -2.9901    0.1921    5.8983 H   0  0  0  0  0  0  0  0  0  0  0  0
   -2.2677    1.4291    3.5154 N   0  0  0  0  0  0  0  0  0  0  0  0
   -2.1491    1.6440    2.0662 C   0  0  2  0  0  0  0  0  0  0  0  0
   -0.7106    1.9371    1.5757 C   0  0  0  0  0  0  0  0  0  0  0  0
    0.1401    2.4071    2.3202 O   0  0  0  0  0  0  0  0  0  0  0  0
   -3.0801    2.8029    1.6995 C   0  0  0  0  0  0  0  0  0  0  0  0
   -2.7705    2.1125    4.0744 H   0  0  0  0  0  0  0  0  0  0  0  0
   -2.4931    0.7401    1.5495 H   0  0  0  0  0  0  0  0  0  0  0  0
   -2.7551    3.7259    2.1910 H   0  0  0  0  0  0  0  0  0  0  0  0
   -3.0811    2.9686    0.6178 H   0  0  0  0  0  0  0  0  0  0  0  0
   -4.1059    2.5819    2.0116 H   0  0  0  0  0  0  0  0  0  0  0  0
   -0.4204    1.8085    0.2312 N   0  0  0  0  0  0  0  0  0  0  0  0
    0.5288    0.8284   -0.3438 C   0  0  2  0  0  0  0  0  0  0  0  0
   -0.2468   -0.0702   -1.3254 C   0  0  0  0  0  0  0  0  0  0  0  0
   -1.3316   -0.5273   -0.9921 O   0  0  0  0  0  0  0  0  0  0  0  0
    1.3061   -0.1516    0.5818 C   0  0  0  0  0  0  0  0  0  0  0  0
    2.2770    0.4712    1.5537 C   0  0  0  0  0  0  0  0  0  0  0  0
    3.5288    1.0066    1.2477 N   0  3  0  0  0  0  0  0  0  0  0  0
    2.1693    0.4536    2.9207 C   0  0  0  0  0  0  0  0  0  0  0  0
    4.1441    1.3841    2.3425 C   0  0  0  0  0  0  0  0  0  0  0  0
    3.3185    1.0530    3.4134 N   0  0  0  0  0  0  0  0  0  0  0  0
   -1.2914    1.7999   -0.2995 H   0  0  0  0  0  0  0  0  0  0  0  0
    1.2660    1.4013   -0.9131 H   0  0  0  0  0  0  0  0  0  0  0  0
    1.8604   -0.8689   -0.0338 H   0  0  0  0  0  0  0  0  0  0  0  0
    0.5706   -0.7318    1.1527 H   0  0  0  0  0  0  0  0  0  0  0  0
    3.8683    1.1121    0.2895 H   0  0  0  0  0  0  0  0  0  0  0  0
    1.3224    0.0700    3.4887 H   0  0  0  0  0  0  0  0  0  0  0  0
    5.1198    1.8679    2.4049 H   0  0  0  0  0  0  0  0  0  0  0  0
    3.5069    1.2434    4.4008 H   0  0  0  0  0  0  0  0  0  0  0  0
    0.2857   -0.3674   -2.5644 N   0  0  0  0  0  0  0  0  0  0  0  0
   -0.0230   -1.6393   -3.2339 C   0  0  2  0  0  0  0  0  0  0  0  0
    1.0103   -2.7196   -2.8415 C   0  0  0  0  0  0  0  0  0  0  0  0
    2.0386   -2.3902   -2.2540 O   0  0  0  0  0  0  0  0  0  0  0  0
   -0.0107   -1.3912   -4.7441 C   0  0  0  0  0  0  0  0  0  0  0  0
    1.2365   -0.0357   -2.7063 H   0  0  0  0  0  0  0  0  0  0  0  0
   -1.0181   -2.0001   -2.9505 H   0  0  0  0  0  0  0  0  0  0  0  0
    0.9778   -1.0526   -5.0710 H   0  0  0  0  0  0  0  0  0  0  0  0
   -0.2598   -2.3086   -5.2864 H   0  0  0  0  0  0  0  0  0  0  0  0
   -0.7472   -0.6255   -5.0083 H   0  0  0  0  0  0  0  0  0  0  0  0
    0.7916   -4.0517   -3.1349 N   0  0  0  0  0  0  0  0  0  0  0  0
    1.7304   -5.1138   -2.7897 C   0  0  0  0  0  0  0  0  0  0  0  0
   -0.0794   -4.2991   -3.5972 H   0  0  0  0  0  0  0  0  0  0  0  0
    2.7003   -4.9402   -3.2680 H   0  0  0  0  0  0  0  0  0  0  0  0
    1.8760   -5.1609   -1.7053 H   0  0  0  0  0  0  0  0  0  0  0  0
    1.3488   -6.0819   -3.1289 H   0  0  0  0  0  0  0  0  0  0  0  0
  1  2  2  0  0  0  0
  1  3  1  0  0  0  0
  1  7  1  0  0  0  0
  3  4  1  0  0  0  0
  3  5  1  0  0  0  0
  3  6  1  0  0  0  0
  7  8  1  0  0  0  0
  7 12  1  0  0  0  0
  8  9  1  0  0  0  0
  8 11  1  0  0  0  0
  8 13  1  0  0  0  0
  9 10  2  0  0  0  0
  9 17  1  0  0  0  0
 11 14  1  0  0  0  0
 11 15  1  0  0  0  0
 11 16  1  0  0  0  0
 17 18  1  0  0  0  0
 17 27  1  0  0  0  0
 18 19  1  0  0  0  0
 18 21  1  0  0  0  0
 18 28  1  0  0  0  0
 19 20  2  0  0  0  0
 19 35  1  0  0  0  0
 21 22  1  0  0  0  0
 21 29  1  0  0  0  0
 21 30  1  0  0  0  0
 22 23  1  0  0  0  0
 22 24  2  0  0  0  0
 23 25  2  0  0  0  0
 23 31  1  0  0  0  0
 24 26  1  0  0  0  0
 24 32  1  0  0  0  0
 25 26  1  0  0  0  0
 25 33  1  0  0  0  0
 26 34  1  0  0  0  0
 35 36  1  0  0  0  0
 35 40  1  0  0  0  0
 36 37  1  0  0  0  0
 36 39  1  0  0  0  0
 36 41  1  0  0  0  0
 37 38  2  0  0  0  0
 37 45  1  0  0  0  0
 39 42  1  0  0  0  0
 39 43  1  0  0  0  0
 39 44  1  0  0  0  0
 45 46  1  0  0  0  0
 45 47  1  0  0  0  0
 46 48  1  0  0  0  0
 46 49  1  0  0  0  0
 46 50  1  0  0  0  0
M  CHG  1  23   1
M  END
$$$$

  -OEChem-05262216443D

 50 50  0     1  0  0  0  0  0999 V2000
   -1.7517    0.2655    4.0392 C   0  0  0  0  0  0  0  0  0  0  0  0
   -1.0318   -0.5006    3.4140 O   0  0  0  0  0  0  0  0  0  0  0  0
   -2.0249    0.0203    5.5105 C   0  0  0  0  0  0  0  0  0  0  0  0
   -1.5766   -0.9262    5.8255 H   0  0  0  0  0  0  0  0  0  0  0  0
   -1.6010    0.8294    6.1100 H   0  0  0  0  0  0  0  0  0  0  0  0
   -3.1025   -0.0279    5.6865 H   0  0  0  0  0  0  0  0  0  0  0  0
   -2.2864    1.3741    3.4168 N   0  0  0  0  0  0  0  0  0  0  0  0
   -2.1253    1.6594    1.9838 C   0  0  2  0  0  0  0  0  0  0  0  0
   -0.6711    1.9593    1.5469 C   0  0  0  0  0  0  0  0  0  0  0  0
    0.1486    2.4305    2.3248 O   0  0  0  0  0  0  0  0  0  0  0  0
   -3.0322    2.8470    1.6499 C   0  0  0  0  0  0  0  0  0  0  0  0
   -2.8264    2.0182    3.9877 H   0  0  0  0  0  0  0  0  0  0  0  0
   -2.4652    0.7867    1.4139 H   0  0  0  0  0  0  0  0  0  0  0  0
   -2.7172    3.7378    2.2034 H   0  0  0  0  0  0  0  0  0  0  0  0
   -2.9920    3.0728    0.5798 H   0  0  0  0  0  0  0  0  0  0  0  0
   -4.0703    2.6200    1.9124 H   0  0  0  0  0  0  0  0  0  0  0  0
   -0.3340    1.8392    0.2125 N   0  0  0  0  0  0  0  0  0  0  0  0
    0.6488    0.8818   -0.3462 C   0  0  2  0  0  0  0  0  0  0  0  0
   -0.0908   -0.0198   -1.3573 C   0  0  0  0  0  0  0  0  0  0  0  0
   -1.2732   -0.2830   -1.1778 O   0  0  0  0  0  0  0  0  0  0  0  0
    1.4081   -0.0933    0.6007 C   0  0  0  0  0  0  0  0  0  0  0  0
    2.3338    0.5378    1.6122 C   0  0  0  0  0  0  0  0  0  0  0  0
    3.5880    1.0972    1.3622 N   0  3  0  0  0  0  0  0  0  0  0  0
    2.1760    0.4982    2.9741 C   0  0  0  0  0  0  0  0  0  0  0  0
    4.1531    1.4724    2.4847 C   0  0  0  0  0  0  0  0  0  0  0  0
    3.2941    1.1114    3.5187 N   0  0  0  0  0  0  0  0  0  0  0  0
   -1.1888    1.8089   -0.3456 H   0  0  0  0  0  0  0  0  0  0  0  0
    1.3925    1.4694   -0.8917 H   0  0  0  0  0  0  0  0  0  0  0  0
    1.9966   -0.7993    0.0046 H   0  0  0  0  0  0  0  0  0  0  0  0
    0.6598   -0.6878    1.1399 H   0  0  0  0  0  0  0  0  0  0  0  0
    3.9592    1.2304    0.4197 H   0  0  0  0  0  0  0  0  0  0  0  0
    1.3151    0.0920    3.5043 H   0  0  0  0  0  0  0  0  0  0  0  0
    5.1149    1.9761    2.5907 H   0  0  0  0  0  0  0  0  0  0  0  0
    3.4391    1.2959    4.5146 H   0  0  0  0  0  0  0  0  0  0  0  0
    0.5818   -0.5492   -2.4420 N   0  0  0  0  0  0  0  0  0  0  0  0
    0.1712   -1.8172   -3.0634 C   0  0  2  0  0  0  0  0  0  0  0  0
    1.0213   -2.9829   -2.5109 C   0  0  0  0  0  0  0  0  0  0  0  0
    2.0363   -2.7357   -1.8634 O   0  0  0  0  0  0  0  0  0  0  0  0
    0.3478   -1.6798   -4.5778 C   0  0  0  0  0  0  0  0  0  0  0  0
    1.5860   -0.3873   -2.4432 H   0  0  0  0  0  0  0  0  0  0  0  0
   -0.8820   -2.0361   -2.8551 H   0  0  0  0  0  0  0  0  0  0  0  0
    1.3966   -1.4893   -4.8281 H   0  0  0  0  0  0  0  0  0  0  0  0
    0.0308   -2.5955   -5.0868 H   0  0  0  0  0  0  0  0  0  0  0  0
   -0.2572   -0.8494   -4.9562 H   0  0  0  0  0  0  0  0  0  0  0  0
    0.6554   -4.2971   -2.7285 N   0  0  0  0  0  0  0  0  0  0  0  0
    1.4201   -5.4352   -2.2300 C   0  0  0  0  0  0  0  0  0  0  0  0
   -0.2001   -4.4722   -3.2490 H   0  0  0  0  0  0  0  0  0  0  0  0
    2.4393   -5.4180   -2.6306 H   0  0  0  0  0  0  0  0  0  0  0  0
    1.4716   -5.4148   -1.1362 H   0  0  0  0  0  0  0  0  0  0  0  0
    0.9462   -6.3736   -2.5351 H   0  0  0  0  0  0  0  0  0  0  0  0
  1  2  2  0  0  0  0
  1  3  1  0  0  0  0
  1  7  1  0  0  0  0
  3  4  1  0  0  0  0
  3  5  1  0  0  0  0
  3  6  1  0  0  0  0
  7  8  1  0  0  0  0
  7 12  1  0  0  0  0
  8  9  1  0  0  0  0
  8 11  1  0  0  0  0
  8 13  1  0  0  0  0
  9 10  2  0  0  0  0
  9 17  1  0  0  0  0
 11 14  1  0  0  0  0
 11 15  1  0  0  0  0
 11 16  1  0  0  0  0
 17 18  1  0  0  0  0
 17 27  1  0  0  0  0
 18 19  1  0  0  0  0
 18 21  1  0  0  0  0
 18 28  1  0  0  0  0
 19 20  2  0  0  0  0
 19 35  1  0  0  0  0
 21 22  1  0  0  0  0
 21 29  1  0  0  0  0
 21 30  1  0  0  0  0
 22 23  1  0  0  0  0
 22 24  2  0  0  0  0
 23 25  2  0  0  0  0
 23 31  1  0  0  0  0
 24 26  1  0  0  0  0
 24 32  1  0  0  0  0
 25 26  1  0  0  0  0
 25 33  1  0  0  0  0
 26 34  1  0  0  0  0
 35 36  1  0  0  0  0
 35 40  1  0  0  0  0
 36 37  1  0  0  0  0
 36 39  1  0  0  0  0
 36 41  1  0  0  0  0
 37 38  2  0  0  0  0
 37 45  1  0  0  0  0
 39 42  1  0  0  0  0
 39 43  1  0  0  0  0
 39 44  1  0  0  0  0
 45 46  1  0  0  0  0
 45 47  1  0  0  0  0
 46 48  1  0  0  0  0
 46 49  1  0  0  0  0
 46 50  1  0  0  0  0
M  CHG  1  23   1
M  END
$$$$

  -OEChem-05262216443D

 50 50  0     1  0  0  0  0  0999 V2000
   -3.5177    0.4648    3.7404 C   0  0  0  0  0  0  0  0  0  0  0  0
   -3.9742   -0.0274    2.7225 O   0  0  0  0  0  0  0  0  0  0  0  0
   -3.8784   -0.1147    5.0946 C   0  0  0  0  0  0  0  0  0  0  0  0
   -4.6210   -0.9090    4.9769 H   0  0  0  0  0  0  0  0  0  0  0  0
   -2.9883   -0.5319    5.5714 H   0  0  0  0  0  0  0  0  0  0  0  0
   -4.2981    0.6645    5.7354 H   0  0  0  0  0  0  0  0  0  0  0  0
   -2.6517    1.5365    3.6564 N   0  0  0  0  0  0  0  0  0  0  0  0
   -2.1194    2.0311    2.3776 C   0  0  2  0  0  0  0  0  0  0  0  0
   -0.8193    1.3184    1.9372 C   0  0  0  0  0  0  0  0  0  0  0  0
   -0.0765    0.8454    2.7868 O   0  0  0  0  0  0  0  0  0  0  0  0
   -1.8808    3.5348    2.5278 C   0  0  0  0  0  0  0  0  0  0  0  0
   -2.1603    1.7861    4.5093 H   0  0  0  0  0  0  0  0  0  0  0  0
   -2.8658    1.8837    1.5886 H   0  0  0  0  0  0  0  0  0  0  0  0
   -1.1356    3.7313    3.3051 H   0  0  0  0  0  0  0  0  0  0  0  0
   -1.5233    3.9609    1.5852 H   0  0  0  0  0  0  0  0  0  0  0  0
   -2.8131    4.0393    2.8011 H   0  0  0  0  0  0  0  0  0  0  0  0
   -0.5244    1.2543    0.5828 N   0  0  0  0  0  0  0  0  0  0  0  0
    0.5326    0.5146   -0.1540 C   0  0  2  0  0  0  0  0  0  0  0  0
   -0.1080   -0.4671   -1.1631 C   0  0  0  0  0  0  0  0  0  0  0  0
   -1.2988   -0.7332   -1.0994 O   0  0  0  0  0  0  0  0  0  0  0  0
    1.6863   -0.1909    0.6144 C   0  0  0  0  0  0  0  0  0  0  0  0
    2.6107    0.7325    1.3830 C   0  0  0  0  0  0  0  0  0  0  0  0
    3.5948    1.5552    0.8281 N   0  3  0  0  0  0  0  0  0  0  0  0
    2.7754    0.7820    2.7446 C   0  0  0  0  0  0  0  0  0  0  0  0
    4.3032    2.1286    1.7717 C   0  0  0  0  0  0  0  0  0  0  0  0
    3.8088    1.6739    2.9905 N   0  0  0  0  0  0  0  0  0  0  0  0
   -1.3362    1.4813    0.0070 H   0  0  0  0  0  0  0  0  0  0  0  0
    1.0208    1.2732   -0.7720 H   0  0  0  0  0  0  0  0  0  0  0  0
    2.2992   -0.7751   -0.0797 H   0  0  0  0  0  0  0  0  0  0  0  0
    1.2383   -0.9107    1.3092 H   0  0  0  0  0  0  0  0  0  0  0  0
    3.7261    1.6637   -0.1801 H   0  0  0  0  0  0  0  0  0  0  0  0
    2.1894    0.2225    3.4757 H   0  0  0  0  0  0  0  0  0  0  0  0
    5.1326    2.8238    1.6304 H   0  0  0  0  0  0  0  0  0  0  0  0
    4.1597    1.9315    3.9173 H   0  0  0  0  0  0  0  0  0  0  0  0
    0.6585   -1.0302   -2.1661 N   0  0  0  0  0  0  0  0  0  0  0  0
    0.3273   -2.3297   -2.7684 C   0  0  2  0  0  0  0  0  0  0  0  0
    1.3217   -3.4013   -2.2710 C   0  0  0  0  0  0  0  0  0  0  0  0
    2.3424   -3.0461   -1.6841 O   0  0  0  0  0  0  0  0  0  0  0  0
    0.3930   -2.1789   -4.2896 C   0  0  0  0  0  0  0  0  0  0  0  0
    1.6578   -0.8574   -2.0917 H   0  0  0  0  0  0  0  0  0  0  0  0
   -0.6825   -2.6522   -2.4906 H   0  0  0  0  0  0  0  0  0  0  0  0
    1.3974   -1.8774   -4.6043 H   0  0  0  0  0  0  0  0  0  0  0  0
    0.1440   -3.1248   -4.7807 H   0  0  0  0  0  0  0  0  0  0  0  0
   -0.3210   -1.4194   -4.6245 H   0  0  0  0  0  0  0  0  0  0  0  0
    1.0728   -4.7469   -2.4603 N   0  0  0  0  0  0  0  0  0  0  0  0
    1.9514   -5.8023   -1.9678 C   0  0  0  0  0  0  0  0  0  0  0  0
    0.1988   -5.0084   -2.9097 H   0  0  0  0  0  0  0  0  0  0  0  0
    2.9691   -5.6664   -2.3490 H   0  0  0  0  0  0  0  0  0  0  0  0
    1.9818   -5.7966   -0.8732 H   0  0  0  0  0  0  0  0  0  0  0  0
    1.5895   -6.7809   -2.2983 H   0  0  0  0  0  0  0  0  0  0  0  0
  1  2  2  0  0  0  0
  1  3  1  0  0  0  0
  1  7  1  0  0  0  0
  3  4  1  0  0  0  0
  3  5  1  0  0  0  0
  3  6  1  0  0  0  0
  7  8  1  0  0  0  0
  7 12  1  0  0  0  0
  8  9  1  0  0  0  0
  8 11  1  0  0  0  0
  8 13  1  0  0  0  0
  9 10  2  0  0  0  0
  9 17  1  0  0  0  0
 11 14  1  0  0  0  0
 11 15  1  0  0  0  0
 11 16  1  0  0  0  0
 17 18  1  0  0  0  0
 17 27  1  0  0  0  0
 18 19  1  0  0  0  0
 18 21  1  0  0  0  0
 18 28  1  0  0  0  0
 19 20  2  0  0  0  0
 19 35  1  0  0  0  0
 21 22  1  0  0  0  0
 21 29  1  0  0  0  0
 21 30  1  0  0  0  0
 22 23  1  0  0  0  0
 22 24  2  0  0  0  0
 23 25  2  0  0  0  0
 23 31  1  0  0  0  0
 24 26  1  0  0  0  0
 24 32  1  0  0  0  0
 25 26  1  0  0  0  0
 25 33  1  0  0  0  0
 26 34  1  0  0  0  0
 35 36  1  0  0  0  0
 35 40  1  0  0  0  0
 36 37  1  0  0  0  0
 36 39  1  0  0  0  0
 36 41  1  0  0  0  0
 37 38  2  0  0  0  0
 37 45  1  0  0  0  0
 39 42  1  0  0  0  0
 39 43  1  0  0  0  0
 39 44  1  0  0  0  0
 45 46  1  0  0  0  0
 45 47  1  0  0  0  0
 46 48  1  0  0  0  0
 46 49  1  0  0  0  0
 46 50  1  0  0  0  0
M  CHG  1  23   1
M  END
$$$$

  -OEChem-05262216443D

 50 50  0     1  0  0  0  0  0999 V2000
   -1.5243    1.6730    4.7792 C   0  0  0  0  0  0  0  0  0  0  0  0
   -0.3181    1.6849    4.5634 O   0  0  0  0  0  0  0  0  0  0  0  0
   -2.0232    1.4085    6.1871 C   0  0  0  0  0  0  0  0  0  0  0  0
   -2.5919    0.4755    6.2122 H   0  0  0  0  0  0  0  0  0  0  0  0
   -1.1816    1.3273    6.8803 H   0  0  0  0  0  0  0  0  0  0  0  0
   -2.6678    2.2277    6.5155 H   0  0  0  0  0  0  0  0  0  0  0  0
   -2.4482    1.8624    3.7670 N   0  0  0  0  0  0  0  0  0  0  0  0
   -2.1401    2.0241    2.3323 C   0  0  2  0  0  0  0  0  0  0  0  0
   -1.3760    0.8292    1.7051 C   0  0  0  0  0  0  0  0  0  0  0  0
   -1.4441   -0.2766    2.2256 O   0  0  0  0  0  0  0  0  0  0  0  0
   -1.4069    3.3580    2.1170 C   0  0  0  0  0  0  0  0  0  0  0  0
   -3.4223    1.7276    4.0259 H   0  0  0  0  0  0  0  0  0  0  0  0
   -3.0930    2.0842    1.7964 H   0  0  0  0  0  0  0  0  0  0  0  0
   -0.3893    3.3149    2.5165 H   0  0  0  0  0  0  0  0  0  0  0  0
   -1.3494    3.5998    1.0516 H   0  0  0  0  0  0  0  0  0  0  0  0
   -1.9421    4.1691    2.6206 H   0  0  0  0  0  0  0  0  0  0  0  0
   -0.7818    0.9522    0.4584 N   0  0  0  0  0  0  0  0  0  0  0  0
    0.3280    0.1844   -0.1619 C   0  0  2  0  0  0  0  0  0  0  0  0
   -0.0187   -0.1991   -1.6214 C   0  0  0  0  0  0  0  0  0  0  0  0
   -1.0644    0.1777   -2.1326 O   0  0  0  0  0  0  0  0  0  0  0  0
    0.9682   -0.9884    0.6370 C   0  0  0  0  0  0  0  0  0  0  0  0
    1.6555   -0.5047    1.8992 C   0  0  0  0  0  0  0  0  0  0  0  0
    2.8810    0.1645    1.9671 N   0  3  0  0  0  0  0  0  0  0  0  0
    1.2389   -0.6953    3.1916 C   0  0  0  0  0  0  0  0  0  0  0  0
    3.1670    0.4729    3.2097 C   0  0  0  0  0  0  0  0  0  0  0  0
    2.1554   -0.0516    4.0060 N   0  0  0  0  0  0  0  0  0  0  0  0
   -1.0712    1.7788   -0.0615 H   0  0  0  0  0  0  0  0  0  0  0  0
    1.1359    0.9126   -0.2747 H   0  0  0  0  0  0  0  0  0  0  0  0
    1.7043   -1.5229    0.0291 H   0  0  0  0  0  0  0  0  0  0  0  0
    0.1871   -1.7148    0.8882 H   0  0  0  0  0  0  0  0  0  0  0  0
    3.4203    0.4260    1.1393 H   0  0  0  0  0  0  0  0  0  0  0  0
    0.3212   -1.1922    3.5073 H   0  0  0  0  0  0  0  0  0  0  0  0
    4.0268    1.0467    3.5586 H   0  0  0  0  0  0  0  0  0  0  0  0
    2.0117    0.1425    5.0013 H   0  0  0  0  0  0  0  0  0  0  0  0
    0.8771   -0.9191   -2.3883 N   0  0  0  0  0  0  0  0  0  0  0  0
    0.4592   -1.7540   -3.5224 C   0  0  2  0  0  0  0  0  0  0  0  0
    0.8202   -3.2262   -3.2285 C   0  0  0  0  0  0  0  0  0  0  0  0
    1.5426   -3.4836   -2.2675 O   0  0  0  0  0  0  0  0  0  0  0  0
    1.1695   -1.2478   -4.7797 C   0  0  0  0  0  0  0  0  0  0  0  0
    1.6705   -1.3040   -1.8801 H   0  0  0  0  0  0  0  0  0  0  0  0
   -0.6240   -1.6999   -3.6780 H   0  0  0  0  0  0  0  0  0  0  0  0
    2.2558   -1.3173   -4.6634 H   0  0  0  0  0  0  0  0  0  0  0  0
    0.8744   -1.8388   -5.6521 H   0  0  0  0  0  0  0  0  0  0  0  0
    0.9047   -0.2022   -4.9666 H   0  0  0  0  0  0  0  0  0  0  0  0
    0.3337   -4.2535   -4.0133 N   0  0  0  0  0  0  0  0  0  0  0  0
    0.6337   -5.6597   -3.7666 C   0  0  0  0  0  0  0  0  0  0  0  0
   -0.2755   -4.0108   -4.7900 H   0  0  0  0  0  0  0  0  0  0  0  0
    1.7113   -5.8406   -3.8399 H   0  0  0  0  0  0  0  0  0  0  0  0
    0.2943   -5.9562   -2.7685 H   0  0  0  0  0  0  0  0  0  0  0  0
    0.1273   -6.2906   -4.5037 H   0  0  0  0  0  0  0  0  0  0  0  0
  1  2  2  0  0  0  0
  1  3  1  0  0  0  0
  1  7  1  0  0  0  0
  3  4  1  0  0  0  0
  3  5  1  0  0  0  0
  3  6  1  0  0  0  0
  7  8  1  0  0  0  0
  7 12  1  0  0  0  0
  8  9  1  0  0  0  0
  8 11  1  0  0  0  0
  8 13  1  0  0  0  0
  9 10  2  0  0  0  0
  9 17  1  0  0  0  0
 11 14  1  0  0  0  0
 11 15  1  0  0  0  0
 11 16  1  0  0  0  0
 17 18  1  0  0  0  0
 17 27  1  0  0  0  0
 18 19  1  0  0  0  0
 18 21  1  0  0  0  0
 18 28  1  0  0  0  0
 19 20  2  0  0  0  0
 19 35  1  0  0  0  0
 21 22  1  0  0  0  0
 21 29  1  0  0  0  0
 21 30  1  0  0  0  0
 22 23  1  0  0  0  0
 22 24  2  0  0  0  0
 23 25  2  0  0  0  0
 23 31  1  0  0  0  0
 24 26  1  0  0  0  0
 24 32  1  0  0  0  0
 25 26  1  0  0  0  0
 25 33  1  0  0  0  0
 26 34  1  0  0  0  0
 35 36  1  0  0  0  0
 35 40  1  0  0  0  0
 36 37  1  0  0  0  0
 36 39  1  0  0  0  0
 36 41  1  0  0  0  0
 37 38  2  0  0  0  0
 37 45  1  0  0  0  0
 39 42  1  0  0  0  0
 39 43  1  0  0  0  0
 39 44  1  0  0  0  0
 45 46  1  0  0  0  0
 45 47  1  0  0  0  0
 46 48  1  0  0  0  0
 46 49  1  0  0  0  0
 46 50  1  0  0  0  0
M  CHG  1  23   1
M  END
$$$$

  -OEChem-05262216443D

 50 50  0     1  0  0  0  0  0999 V2000
   -1.5170    1.9245    4.8300 C   0  0  0  0  0  0  0  0  0  0  0  0
   -0.3053    1.8770    4.6539 O   0  0  0  0  0  0  0  0  0  0  0  0
   -2.0691    1.7654    6.2340 C   0  0  0  0  0  0  0  0  0  0  0  0
   -2.6675    0.8531    6.2978 H   0  0  0  0  0  0  0  0  0  0  0  0
   -1.2536    1.7032    6.9596 H   0  0  0  0  0  0  0  0  0  0  0  0
   -2.6977    2.6226    6.4875 H   0  0  0  0  0  0  0  0  0  0  0  0
   -2.4013    2.0868    3.7783 N   0  0  0  0  0  0  0  0  0  0  0  0
   -2.0480    2.1397    2.3455 C   0  0  2  0  0  0  0  0  0  0  0  0
   -1.3535    0.8603    1.8112 C   0  0  0  0  0  0  0  0  0  0  0  0
   -1.4715   -0.1983    2.4145 O   0  0  0  0  0  0  0  0  0  0  0  0
   -1.2195    3.4049    2.0668 C   0  0  0  0  0  0  0  0  0  0  0  0
   -3.3868    2.0044    4.0149 H   0  0  0  0  0  0  0  0  0  0  0  0
   -2.9817    2.2318    1.7817 H   0  0  0  0  0  0  0  0  0  0  0  0
   -0.2129    3.3154    2.4864 H   0  0  0  0  0  0  0  0  0  0  0  0
   -1.1295    3.5777    0.9902 H   0  0  0  0  0  0  0  0  0  0  0  0
   -1.7035    4.2804    2.5114 H   0  0  0  0  0  0  0  0  0  0  0  0
   -0.7537    0.8568    0.5612 N   0  0  0  0  0  0  0  0  0  0  0  0
    0.3242   -0.0049    0.0134 C   0  0  2  0  0  0  0  0  0  0  0  0
   -0.0500   -0.4850   -1.4109 C   0  0  0  0  0  0  0  0  0  0  0  0
   -0.8754    0.1406   -2.0633 O   0  0  0  0  0  0  0  0  0  0  0  0
    0.9331   -1.1108    0.9226 C   0  0  0  0  0  0  0  0  0  0  0  0
    1.6444   -0.5154    2.1221 C   0  0  0  0  0  0  0  0  0  0  0  0
    2.8890    0.1213    2.1145 N   0  3  0  0  0  0  0  0  0  0  0  0
    1.2225   -0.5413    3.4262 C   0  0  0  0  0  0  0  0  0  0  0  0
    3.1843    0.5639    3.3139 C   0  0  0  0  0  0  0  0  0  0  0  0
    2.1580    0.1650    4.1630 N   0  0  0  0  0  0  0  0  0  0  0  0
   -0.9999    1.6527   -0.0261 H   0  0  0  0  0  0  0  0  0  0  0  0
    1.1573    0.6796   -0.1695 H   0  0  0  0  0  0  0  0  0  0  0  0
    1.6559   -1.7169    0.3689 H   0  0  0  0  0  0  0  0  0  0  0  0
    0.1357   -1.7875    1.2499 H   0  0  0  0  0  0  0  0  0  0  0  0
    3.4342    0.2702    1.2628 H   0  0  0  0  0  0  0  0  0  0  0  0
    0.2881   -0.9640    3.7963 H   0  0  0  0  0  0  0  0  0  0  0  0
    4.0598    1.1504    3.5966 H   0  0  0  0  0  0  0  0  0  0  0  0
    2.0134    0.4859    5.1253 H   0  0  0  0  0  0  0  0  0  0  0  0
    0.6182   -1.5287   -2.0214 N   0  0  0  0  0  0  0  0  0  0  0  0
    0.2002   -2.1604   -3.2787 C   0  0  2  0  0  0  0  0  0  0  0  0
    0.5509   -3.6636   -3.2418 C   0  0  0  0  0  0  0  0  0  0  0  0
    1.2436   -4.0933   -2.3227 O   0  0  0  0  0  0  0  0  0  0  0  0
    0.9043   -1.4581   -4.4438 C   0  0  0  0  0  0  0  0  0  0  0  0
    1.2061   -2.1174   -1.4326 H   0  0  0  0  0  0  0  0  0  0  0  0
   -0.8851   -2.0740   -3.4032 H   0  0  0  0  0  0  0  0  0  0  0  0
    1.9911   -1.5412   -4.3417 H   0  0  0  0  0  0  0  0  0  0  0  0
    0.6089   -1.9042   -5.3983 H   0  0  0  0  0  0  0  0  0  0  0  0
    0.6361   -0.3970   -4.4643 H   0  0  0  0  0  0  0  0  0  0  0  0
    0.0762   -4.5343   -4.2040 N   0  0  0  0  0  0  0  0  0  0  0  0
    0.3658   -5.9645   -4.2011 C   0  0  0  0  0  0  0  0  0  0  0  0
   -0.5078   -4.1537   -4.9437 H   0  0  0  0  0  0  0  0  0  0  0  0
    1.4423   -6.1378   -4.3024 H   0  0  0  0  0  0  0  0  0  0  0  0
    0.0217   -6.4251   -3.2690 H   0  0  0  0  0  0  0  0  0  0  0  0
   -0.1432   -6.4568   -5.0356 H   0  0  0  0  0  0  0  0  0  0  0  0
  1  2  2  0  0  0  0
  1  3  1  0  0  0  0
  1  7  1  0  0  0  0
  3  4  1  0  0  0  0
  3  5  1  0  0  0  0
  3  6  1  0  0  0  0
  7  8  1  0  0  0  0
  7 12  1  0  0  0  0
  8  9  1  0  0  0  0
  8 11  1  0  0  0  0
  8 13  1  0  0  0  0
  9 10  2  0  0  0  0
  9 17  1  0  0  0  0
 11 14  1  0  0  0  0
 11 15  1  0  0  0  0
 11 16  1  0  0  0  0
 17 18  1  0  0  0  0
 17 27  1  0  0  0  0
 18 19  1  0  0  0  0
 18 21  1  0  0  0  0
 18 28  1  0  0  0  0
 19 20  2  0  0  0  0
 19 35  1  0  0  0  0
 21 22  1  0  0  0  0
 21 29  1  0  0  0  0
 21 30  1  0  0  0  0
 22 23  1  0  0  0  0
 22 24  2  0  0  0  0
 23 25  2  0  0  0  0
 23 31  1  0  0  0  0
 24 26  1  0  0  0  0
 24 32  1  0  0  0  0
 25 26  1  0  0  0  0
 25 33  1  0  0  0  0
 26 34  1  0  0  0  0
 35 36  1  0  0  0  0
 35 40  1  0  0  0  0
 36 37  1  0  0  0  0
 36 39  1  0  0  0  0
 36 41  1  0  0  0  0
 37 38  2  0  0  0  0
 37 45  1  0  0  0  0
 39 42  1  0  0  0  0
 39 43  1  0  0  0  0
 39 44  1  0  0  0  0
 45 46  1  0  0  0  0
 45 47  1  0  0  0  0
 46 48  1  0  0  0  0
 46 49  1  0  0  0  0
 46 50  1  0  0  0  0
M  CHG  1  23   1
M  END
$$$$

  -OEChem-05262216443D

 50 50  0     1  0  0  0  0  0999 V2000
   -1.5149    1.9629    4.8268 C   0  0  0  0  0  0  0  0  0  0  0  0
   -0.3019    1.9079    4.6612 O   0  0  0  0  0  0  0  0  0  0  0  0
   -2.0793    1.8384    6.2291 C   0  0  0  0  0  0  0  0  0  0  0  0
   -2.6597    0.9164    6.3169 H   0  0  0  0  0  0  0  0  0  0  0  0
   -1.2707    1.8171    6.9648 H   0  0  0  0  0  0  0  0  0  0  0  0
   -2.7282    2.6902    6.4479 H   0  0  0  0  0  0  0  0  0  0  0  0
   -2.3902    2.1070    3.7653 N   0  0  0  0  0  0  0  0  0  0  0  0
   -2.0237    2.1449    2.3356 C   0  0  2  0  0  0  0  0  0  0  0  0
   -1.3129    0.8657    1.8221 C   0  0  0  0  0  0  0  0  0  0  0  0
   -1.4345   -0.1904    2.4291 O   0  0  0  0  0  0  0  0  0  0  0  0
   -1.2034    3.4141    2.0512 C   0  0  0  0  0  0  0  0  0  0  0  0
   -3.3785    2.0377    3.9952 H   0  0  0  0  0  0  0  0  0  0  0  0
   -2.9530    2.2221    1.7620 H   0  0  0  0  0  0  0  0  0  0  0  0
   -0.1997    3.3366    2.4798 H   0  0  0  0  0  0  0  0  0  0  0  0
   -1.1063    3.5780    0.9738 H   0  0  0  0  0  0  0  0  0  0  0  0
   -1.6979    4.2897    2.4838 H   0  0  0  0  0  0  0  0  0  0  0  0
   -0.6947    0.8574    0.5814 N   0  0  0  0  0  0  0  0  0  0  0  0
    0.3930   -0.0045    0.0557 C   0  0  2  0  0  0  0  0  0  0  0  0
    0.0277   -0.4843   -1.3691 C   0  0  0  0  0  0  0  0  0  0  0  0
   -0.6066    0.2637   -2.1014 O   0  0  0  0  0  0  0  0  0  0  0  0
    0.9951   -1.1050    0.9747 C   0  0  0  0  0  0  0  0  0  0  0  0
    1.6883   -0.5027    2.1802 C   0  0  0  0  0  0  0  0  0  0  0  0
    2.9297    0.1397    2.1853 N   0  3  0  0  0  0  0  0  0  0  0  0
    1.2493   -0.5250    3.4785 C   0  0  0  0  0  0  0  0  0  0  0  0
    3.2074    0.5892    3.3862 C   0  0  0  0  0  0  0  0  0  0  0  0
    2.1722    0.1890    4.2240 N   0  0  0  0  0  0  0  0  0  0  0  0
   -0.9120    1.6646   -0.0022 H   0  0  0  0  0  0  0  0  0  0  0  0
    1.2280    0.6794   -0.1214 H   0  0  0  0  0  0  0  0  0  0  0  0
    1.7298   -1.7045    0.4285 H   0  0  0  0  0  0  0  0  0  0  0  0
    0.1983   -1.7860    1.2945 H   0  0  0  0  0  0  0  0  0  0  0  0
    3.4851    0.2866    1.3397 H   0  0  0  0  0  0  0  0  0  0  0  0
    0.3116   -0.9504    3.8372 H   0  0  0  0  0  0  0  0  0  0  0  0
    4.0767    1.1808    3.6769 H   0  0  0  0  0  0  0  0  0  0  0  0
    2.0141    0.5133    5.1829 H   0  0  0  0  0  0  0  0  0  0  0  0
    0.4627   -1.6963   -1.8700 N   0  0  0  0  0  0  0  0  0  0  0  0
    0.0089   -2.2904   -3.1339 C   0  0  2  0  0  0  0  0  0  0  0  0
    0.1179   -3.8286   -3.0536 C   0  0  0  0  0  0  0  0  0  0  0  0
    0.6753   -4.3396   -2.0859 O   0  0  0  0  0  0  0  0  0  0  0  0
    0.8608   -1.7419   -4.2842 C   0  0  0  0  0  0  0  0  0  0  0  0
    0.8636   -2.3621   -1.2098 H   0  0  0  0  0  0  0  0  0  0  0  0
   -1.0431   -2.0383   -3.3073 H   0  0  0  0  0  0  0  0  0  0  0  0
    1.9161   -1.9902   -4.1321 H   0  0  0  0  0  0  0  0  0  0  0  0
    0.5376   -2.1659   -5.2398 H   0  0  0  0  0  0  0  0  0  0  0  0
    0.7637   -0.6532   -4.3445 H   0  0  0  0  0  0  0  0  0  0  0  0
   -0.4169   -4.6372   -4.0383 N   0  0  0  0  0  0  0  0  0  0  0  0
   -0.3269   -6.0932   -4.0132 C   0  0  0  0  0  0  0  0  0  0  0  0
   -0.8791   -4.1880   -4.8241 H   0  0  0  0  0  0  0  0  0  0  0  0
    0.7199   -6.4129   -4.0537 H   0  0  0  0  0  0  0  0  0  0  0  0
   -0.7816   -6.4911   -3.0996 H   0  0  0  0  0  0  0  0  0  0  0  0
   -0.8522   -6.5209   -4.8730 H   0  0  0  0  0  0  0  0  0  0  0  0
  1  2  2  0  0  0  0
  1  3  1  0  0  0  0
  1  7  1  0  0  0  0
  3  4  1  0  0  0  0
  3  5  1  0  0  0  0
  3  6  1  0  0  0  0
  7  8  1  0  0  0  0
  7 12  1  0  0  0  0
  8  9  1  0  0  0  0
  8 11  1  0  0  0  0
  8 13  1  0  0  0  0
  9 10  2  0  0  0  0
  9 17  1  0  0  0  0
 11 14  1  0  0  0  0
 11 15  1  0  0  0  0
 11 16  1  0  0  0  0
 17 18  1  0  0  0  0
 17 27  1  0  0  0  0
 18 19  1  0  0  0  0
 18 21  1  0  0  0  0
 18 28  1  0  0  0  0
 19 20  2  0  0  0  0
 19 35  1  0  0  0  0
 21 22  1  0  0  0  0
 21 29  1  0  0  0  0
 21 30  1  0  0  0  0
 22 23  1  0  0  0  0
 22 24  2  0  0  0  0
 23 25  2  0  0  0  0
 23 31  1  0  0  0  0
 24 26  1  0  0  0  0
 24 32  1  0  0  0  0
 25 26  1  0  0  0  0
 25 33  1  0  0  0  0
 26 34  1  0  0  0  0
 35 36  1  0  0  0  0
 35 40  1  0  0  0  0
 36 37  1  0  0  0  0
 36 39  1  0  0  0  0
 36 41  1  0  0  0  0
 37 38  2  0  0  0  0
 37 45  1  0  0  0  0
 39 42  1  0  0  0  0
 39 43  1  0  0  0  0
 39 44  1  0  0  0  0
 45 46  1  0  0  0  0
 45 47  1  0  0  0  0
 46 48  1  0  0  0  0
 46 49  1  0  0  0  0
 46 50  1  0  0  0  0
M  CHG  1  23   1
M  END
$$$$

  -OEChem-05262216443D

 50 50  0     1  0  0  0  0  0999 V2000
   -1.5596    1.8834    4.7825 C   0  0  0  0  0  0  0  0  0  0  0  0
   -0.3453    1.8947    4.6196 O   0  0  0  0  0  0  0  0  0  0  0  0
   -2.1192    1.7423    6.1853 C   0  0  0  0  0  0  0  0  0  0  0  0
   -2.6479    0.7908    6.2820 H   0  0  0  0  0  0  0  0  0  0  0  0
   -1.3118    1.7735    6.9220 H   0  0  0  0  0  0  0  0  0  0  0  0
   -2.8146    2.5592    6.3950 H   0  0  0  0  0  0  0  0  0  0  0  0
   -2.4375    1.9676    3.7169 N   0  0  0  0  0  0  0  0  0  0  0  0
   -2.0671    2.0285    2.2892 C   0  0  2  0  0  0  0  0  0  0  0  0
   -1.2656    0.8013    1.7831 C   0  0  0  0  0  0  0  0  0  0  0  0
   -1.3432   -0.2676    2.3747 O   0  0  0  0  0  0  0  0  0  0  0  0
   -1.3410    3.3536    2.0060 C   0  0  0  0  0  0  0  0  0  0  0  0
   -3.4207    1.8402    3.9428 H   0  0  0  0  0  0  0  0  0  0  0  0
   -2.9964    2.0374    1.7109 H   0  0  0  0  0  0  0  0  0  0  0  0
   -0.3416    3.3561    2.4509 H   0  0  0  0  0  0  0  0  0  0  0  0
   -1.2395    3.5169    0.9290 H   0  0  0  0  0  0  0  0  0  0  0  0
   -1.9081    4.1917    2.4231 H   0  0  0  0  0  0  0  0  0  0  0  0
   -0.6193    0.8412    0.5573 N   0  0  0  0  0  0  0  0  0  0  0  0
    0.5222    0.0394    0.0548 C   0  0  2  0  0  0  0  0  0  0  0  0
    0.2139   -0.4397   -1.3803 C   0  0  0  0  0  0  0  0  0  0  0  0
   -0.2203    0.3712   -2.1872 O   0  0  0  0  0  0  0  0  0  0  0  0
    1.1626   -1.0405    0.9702 C   0  0  0  0  0  0  0  0  0  0  0  0
    1.7993   -0.4219    2.1977 C   0  0  0  0  0  0  0  0  0  0  0  0
    3.0055    0.2834    2.2348 N   0  3  0  0  0  0  0  0  0  0  0  0
    1.3359   -0.4842    3.4863 C   0  0  0  0  0  0  0  0  0  0  0  0
    3.2391    0.7260    3.4475 C   0  0  0  0  0  0  0  0  0  0  0  0
    2.2102    0.2613    4.2597 N   0  0  0  0  0  0  0  0  0  0  0  0
   -0.8367    1.6626   -0.0057 H   0  0  0  0  0  0  0  0  0  0  0  0
    1.3253    0.7672   -0.0942 H   0  0  0  0  0  0  0  0  0  0  0  0
    1.9361   -1.5905    0.4242 H   0  0  0  0  0  0  0  0  0  0  0  0
    0.3981   -1.7678    1.2665 H   0  0  0  0  0  0  0  0  0  0  0  0
    3.5664    0.4739    1.4013 H   0  0  0  0  0  0  0  0  0  0  0  0
    0.4133   -0.9606    3.8195 H   0  0  0  0  0  0  0  0  0  0  0  0
    4.0726    1.3553    3.7635 H   0  0  0  0  0  0  0  0  0  0  0  0
    2.0239    0.5571    5.2228 H   0  0  0  0  0  0  0  0  0  0  0  0
    0.4512   -1.7387   -1.7860 N   0  0  0  0  0  0  0  0  0  0  0  0
   -0.0343   -2.3113   -3.0479 C   0  0  2  0  0  0  0  0  0  0  0  0
   -0.3680   -3.8056   -2.8516 C   0  0  0  0  0  0  0  0  0  0  0  0
   -0.0331   -4.3623   -1.8099 O   0  0  0  0  0  0  0  0  0  0  0  0
    1.0400   -2.1243   -4.1236 C   0  0  0  0  0  0  0  0  0  0  0  0
    0.6290   -2.4256   -1.0526 H   0  0  0  0  0  0  0  0  0  0  0  0
   -0.9539   -1.8054   -3.3616 H   0  0  0  0  0  0  0  0  0  0  0  0
    1.9654   -2.6329   -3.8349 H   0  0  0  0  0  0  0  0  0  0  0  0
    0.7018   -2.5342   -5.0802 H   0  0  0  0  0  0  0  0  0  0  0  0
    1.2553   -1.0600   -4.2630 H   0  0  0  0  0  0  0  0  0  0  0  0
   -1.0638   -4.5149   -3.8119 N   0  0  0  0  0  0  0  0  0  0  0  0
   -1.4287   -5.9192   -3.6589 C   0  0  0  0  0  0  0  0  0  0  0  0
   -1.3456   -4.0232   -4.6556 H   0  0  0  0  0  0  0  0  0  0  0  0
   -0.5319   -6.5405   -3.5629 H   0  0  0  0  0  0  0  0  0  0  0  0
   -2.0507   -6.0592   -2.7683 H   0  0  0  0  0  0  0  0  0  0  0  0
   -1.9943   -6.2621   -4.5307 H   0  0  0  0  0  0  0  0  0  0  0  0
  1  2  2  0  0  0  0
  1  3  1  0  0  0  0
  1  7  1  0  0  0  0
  3  4  1  0  0  0  0
  3  5  1  0  0  0  0
  3  6  1  0  0  0  0
  7  8  1  0  0  0  0
  7 12  1  0  0  0  0
  8  9  1  0  0  0  0
  8 11  1  0  0  0  0
  8 13  1  0  0  0  0
  9 10  2  0  0  0  0
  9 17  1  0  0  0  0
 11 14  1  0  0  0  0
 11 15  1  0  0  0  0
 11 16  1  0  0  0  0
 17 18  1  0  0  0  0
 17 27  1  0  0  0  0
 18 19  1  0  0  0  0
 18 21  1  0  0  0  0
 18 28  1  0  0  0  0
 19 20  2  0  0  0  0
 19 35  1  0  0  0  0
 21 22  1  0  0  0  0
 21 29  1  0  0  0  0
 21 30  1  0  0  0  0
 22 23  1  0  0  0  0
 22 24  2  0  0  0  0
 23 25  2  0  0  0  0
 23 31  1  0  0  0  0
 24 26  1  0  0  0  0
 24 32  1  0  0  0  0
 25 26  1  0  0  0  0
 25 33  1  0  0  0  0
 26 34  1  0  0  0  0
 35 36  1  0  0  0  0
 35 40  1  0  0  0  0
 36 37  1  0  0  0  0
 36 39  1  0  0  0  0
 36 41  1  0  0  0  0
 37 38  2  0  0  0  0
 37 45  1  0  0  0  0
 39 42  1  0  0  0  0
 39 43  1  0  0  0  0
 39 44  1  0  0  0  0
 45 46  1  0  0  0  0
 45 47  1  0  0  0  0
 46 48  1  0  0  0  0
 46 49  1  0  0  0  0
 46 50  1  0  0  0  0
M  CHG  1  23   1
M  END
$$$$

  -OEChem-05262216443D

 50 50  0     1  0  0  0  0  0999 V2000
   -1.5813    1.9083    4.7884 C   0  0  0  0  0  0  0  0  0  0  0  0
   -0.3621    1.8929    4.6682 O   0  0  0  0  0  0  0  0  0  0  0  0
   -2.1928    1.7488    6.1672 C   0  0  0  0  0  0  0  0  0  0  0  0
   -2.7903    0.8345    6.2070 H   0  0  0  0  0  0  0  0  0  0  0  0
   -1.4085    1.6905    6.9270 H   0  0  0  0  0  0  0  0  0  0  0  0
   -2.8348    2.6041    6.3929 H   0  0  0  0  0  0  0  0  0  0  0  0
   -2.4195    2.0414    3.6961 N   0  0  0  0  0  0  0  0  0  0  0  0
   -2.0019    2.1094    2.2816 C   0  0  2  0  0  0  0  0  0  0  0  0
   -1.2537    0.8503    1.7710 C   0  0  0  0  0  0  0  0  0  0  0  0
   -1.3654   -0.2148    2.3637 O   0  0  0  0  0  0  0  0  0  0  0  0
   -1.1933    3.3961    2.0454 C   0  0  0  0  0  0  0  0  0  0  0  0
   -3.4127    1.9366    3.8876 H   0  0  0  0  0  0  0  0  0  0  0  0
   -2.9119    2.1819    1.6773 H   0  0  0  0  0  0  0  0  0  0  0  0
   -0.2034    3.3285    2.5067 H   0  0  0  0  0  0  0  0  0  0  0  0
   -1.0621    3.5788    0.9746 H   0  0  0  0  0  0  0  0  0  0  0  0
   -1.7167    4.2566    2.4745 H   0  0  0  0  0  0  0  0  0  0  0  0
   -0.6078    0.8662    0.5441 N   0  0  0  0  0  0  0  0  0  0  0  0
    0.5273    0.0431    0.0616 C   0  0  2  0  0  0  0  0  0  0  0  0
    0.2286   -0.4642   -1.3633 C   0  0  0  0  0  0  0  0  0  0  0  0
    0.0365    0.3607   -2.2452 O   0  0  0  0  0  0  0  0  0  0  0  0
    1.1489   -1.0321    0.9933 C   0  0  0  0  0  0  0  0  0  0  0  0
    1.7853   -0.4049    2.2164 C   0  0  0  0  0  0  0  0  0  0  0  0
    2.9989    0.2874    2.2550 N   0  3  0  0  0  0  0  0  0  0  0  0
    1.3077   -0.4418    3.5003 C   0  0  0  0  0  0  0  0  0  0  0  0
    3.2215    0.7507    3.4620 C   0  0  0  0  0  0  0  0  0  0  0  0
    2.1789    0.3102    4.2704 N   0  0  0  0  0  0  0  0  0  0  0  0
   -0.7848    1.7034   -0.0093 H   0  0  0  0  0  0  0  0  0  0  0  0
    1.3406    0.7587   -0.0930 H   0  0  0  0  0  0  0  0  0  0  0  0
    1.9131   -1.6014    0.4531 H   0  0  0  0  0  0  0  0  0  0  0  0
    0.3728   -1.7434    1.2978 H   0  0  0  0  0  0  0  0  0  0  0  0
    3.5708    0.4575    1.4247 H   0  0  0  0  0  0  0  0  0  0  0  0
    0.3757   -0.9010    3.8316 H   0  0  0  0  0  0  0  0  0  0  0  0
    4.0556    1.3799    3.7761 H   0  0  0  0  0  0  0  0  0  0  0  0
    1.9757    0.6353    5.2208 H   0  0  0  0  0  0  0  0  0  0  0  0
    0.1663   -1.8113   -1.6618 N   0  0  0  0  0  0  0  0  0  0  0  0
   -0.2855   -2.3644   -2.9449 C   0  0  2  0  0  0  0  0  0  0  0  0
   -0.8384   -3.7912   -2.7397 C   0  0  0  0  0  0  0  0  0  0  0  0
   -0.6892   -4.3429   -1.6536 O   0  0  0  0  0  0  0  0  0  0  0  0
    0.8910   -2.3743   -3.9277 C   0  0  0  0  0  0  0  0  0  0  0  0
    0.1398   -2.4648   -0.8781 H   0  0  0  0  0  0  0  0  0  0  0  0
   -1.0949   -1.7478   -3.3509 H   0  0  0  0  0  0  0  0  0  0  0  0
    1.7078   -2.9923   -3.5412 H   0  0  0  0  0  0  0  0  0  0  0  0
    0.5798   -2.7756   -4.8970 H   0  0  0  0  0  0  0  0  0  0  0  0
    1.2663   -1.3580   -4.0842 H   0  0  0  0  0  0  0  0  0  0  0  0
   -1.5121   -4.4490   -3.7512 N   0  0  0  0  0  0  0  0  0  0  0  0
   -2.0569   -5.7946   -3.6048 C   0  0  0  0  0  0  0  0  0  0  0  0
   -1.6323   -3.9647   -4.6364 H   0  0  0  0  0  0  0  0  0  0  0  0
   -1.2588   -6.5105   -3.3802 H   0  0  0  0  0  0  0  0  0  0  0  0
   -2.7939   -5.8240   -2.7950 H   0  0  0  0  0  0  0  0  0  0  0  0
   -2.5496   -6.1076   -4.5307 H   0  0  0  0  0  0  0  0  0  0  0  0
  1  2  2  0  0  0  0
  1  3  1  0  0  0  0
  1  7  1  0  0  0  0
  3  4  1  0  0  0  0
  3  5  1  0  0  0  0
  3  6  1  0  0  0  0
  7  8  1  0  0  0  0
  7 12  1  0  0  0  0
  8  9  1  0  0  0  0
  8 11  1  0  0  0  0
  8 13  1  0  0  0  0
  9 10  2  0  0  0  0
  9 17  1  0  0  0  0
 11 14  1  0  0  0  0
 11 15  1  0  0  0  0
 11 16  1  0  0  0  0
 17 18  1  0  0  0  0
 17 27  1  0  0  0  0
 18 19  1  0  0  0  0
 18 21  1  0  0  0  0
 18 28  1  0  0  0  0
 19 20  2  0  0  0  0
 19 35  1  0  0  0  0
 21 22  1  0  0  0  0
 21 29  1  0  0  0  0
 21 30  1  0  0  0  0
 22 23  1  0  0  0  0
 22 24  2  0  0  0  0
 23 25  2  0  0  0  0
 23 31  1  0  0  0  0
 24 26  1  0  0  0  0
 24 32  1  0  0  0  0
 25 26  1  0  0  0  0
 25 33  1  0  0  0  0
 26 34  1  0  0  0  0
 35 36  1  0  0  0  0
 35 40  1  0  0  0  0
 36 37  1  0  0  0  0
 36 39  1  0  0  0  0
 36 41  1  0  0  0  0
 37 38  2  0  0  0  0
 37 45  1  0  0  0  0
 39 42  1  0  0  0  0
 39 43  1  0  0  0  0
 39 44  1  0  0  0  0
 45 46  1  0  0  0  0
 45 47  1  0  0  0  0
 46 48  1  0  0  0  0
 46 49  1  0  0  0  0
 46 50  1  0  0  0  0
M  CHG  1  23   1
M  END
$$$$

  -OEChem-05262216443D

 50 50  0     1  0  0  0  0  0999 V2000
   -1.6425    1.5212    4.6823 C   0  0  0  0  0  0  0  0  0  0  0  0
   -0.5015    1.8863    4.4254 O   0  0  0  0  0  0  0  0  0  0  0  0
   -2.0667    1.3775    6.1312 C   0  0  0  0  0  0  0  0  0  0  0  0
   -2.3264    0.3372    6.3431 H   0  0  0  0  0  0  0  0  0  0  0  0
   -1.2550    1.6808    6.7980 H   0  0  0  0  0  0  0  0  0  0  0  0
   -2.9362    2.0096    6.3288 H   0  0  0  0  0  0  0  0  0  0  0  0
   -2.5501    1.2123    3.6855 N   0  0  0  0  0  0  0  0  0  0  0  0
   -2.2835    1.2264    2.2338 C   0  0  2  0  0  0  0  0  0  0  0  0
   -1.1478    0.2720    1.7815 C   0  0  0  0  0  0  0  0  0  0  0  0
   -0.8613   -0.7057    2.4608 O   0  0  0  0  0  0  0  0  0  0  0  0
   -2.0442    2.6747    1.7768 C   0  0  0  0  0  0  0  0  0  0  0  0
   -3.4384    0.8275    3.9972 H   0  0  0  0  0  0  0  0  0  0  0  0
   -3.1885    0.8709    1.7305 H   0  0  0  0  0  0  0  0  0  0  0  0
   -1.0810    3.0464    2.1397 H   0  0  0  0  0  0  0  0  0  0  0  0
   -2.0518    2.7420    0.6848 H   0  0  0  0  0  0  0  0  0  0  0  0
   -2.8343    3.3278    2.1607 H   0  0  0  0  0  0  0  0  0  0  0  0
   -0.5739    0.4084    0.5265 N   0  0  0  0  0  0  0  0  0  0  0  0
    0.7434   -0.0591    0.0386 C   0  0  2  0  0  0  0  0  0  0  0  0
    0.5748   -0.7203   -1.3396 C   0  0  0  0  0  0  0  0  0  0  0  0
    0.4080    0.0018   -2.3126 O   0  0  0  0  0  0  0  0  0  0  0  0
    1.7127   -0.8126    0.9852 C   0  0  0  0  0  0  0  0  0  0  0  0
    2.1685    0.0765    2.1240 C   0  0  0  0  0  0  0  0  0  0  0  0
    3.0997    1.1149    2.0330 N   0  3  0  0  0  0  0  0  0  0  0  0
    1.7859   -0.0006    3.4380 C   0  0  0  0  0  0  0  0  0  0  0  0
    3.2197    1.7230    3.1889 C   0  0  0  0  0  0  0  0  0  0  0  0
    2.4115    1.0459    4.0956 N   0  0  0  0  0  0  0  0  0  0  0  0
   -1.0262    1.1032   -0.0656 H   0  0  0  0  0  0  0  0  0  0  0  0
    1.2827    0.8646   -0.1931 H   0  0  0  0  0  0  0  0  0  0  0  0
    2.5900   -1.1547    0.4256 H   0  0  0  0  0  0  0  0  0  0  0  0
    1.2169   -1.7050    1.3828 H   0  0  0  0  0  0  0  0  0  0  0  0
    3.5397    1.3937    1.1530 H   0  0  0  0  0  0  0  0  0  0  0  0
    1.0615   -0.6975    3.8605 H   0  0  0  0  0  0  0  0  0  0  0  0
    3.8220    2.6074    3.4013 H   0  0  0  0  0  0  0  0  0  0  0  0
    2.1662    1.3676    5.0367 H   0  0  0  0  0  0  0  0  0  0  0  0
    0.6233   -2.0939   -1.4862 N   0  0  0  0  0  0  0  0  0  0  0  0
    0.1428   -2.7458   -2.7141 C   0  0  2  0  0  0  0  0  0  0  0  0
   -1.3790   -3.0018   -2.6580 C   0  0  0  0  0  0  0  0  0  0  0  0
   -1.9408   -3.0876   -1.5718 O   0  0  0  0  0  0  0  0  0  0  0  0
    0.9023   -4.0653   -2.8688 C   0  0  0  0  0  0  0  0  0  0  0  0
    0.4306   -2.6054   -0.6268 H   0  0  0  0  0  0  0  0  0  0  0  0
    0.3523   -2.1208   -3.5888 H   0  0  0  0  0  0  0  0  0  0  0  0
    0.7023   -4.7254   -2.0182 H   0  0  0  0  0  0  0  0  0  0  0  0
    0.5950   -4.5790   -3.7851 H   0  0  0  0  0  0  0  0  0  0  0  0
    1.9797   -3.8803   -2.9223 H   0  0  0  0  0  0  0  0  0  0  0  0
   -2.1145   -3.1555   -3.8180 N   0  0  0  0  0  0  0  0  0  0  0  0
   -3.5570   -3.3723   -3.8245 C   0  0  0  0  0  0  0  0  0  0  0  0
   -1.6336   -3.0297   -4.7043 H   0  0  0  0  0  0  0  0  0  0  0  0
   -3.8142   -4.2672   -3.2478 H   0  0  0  0  0  0  0  0  0  0  0  0
   -4.0750   -2.5120   -3.3879 H   0  0  0  0  0  0  0  0  0  0  0  0
   -3.9162   -3.5092   -4.8492 H   0  0  0  0  0  0  0  0  0  0  0  0
  1  2  2  0  0  0  0
  1  3  1  0  0  0  0
  1  7  1  0  0  0  0
  3  4  1  0  0  0  0
  3  5  1  0  0  0  0
  3  6  1  0  0  0  0
  7  8  1  0  0  0  0
  7 12  1  0  0  0  0
  8  9  1  0  0  0  0
  8 11  1  0  0  0  0
  8 13  1  0  0  0  0
  9 10  2  0  0  0  0
  9 17  1  0  0  0  0
 11 14  1  0  0  0  0
 11 15  1  0  0  0  0
 11 16  1  0  0  0  0
 17 18  1  0  0  0  0
 17 27  1  0  0  0  0
 18 19  1  0  0  0  0
 18 21  1  0  0  0  0
 18 28  1  0  0  0  0
 19 20  2  0  0  0  0
 19 35  1  0  0  0  0
 21 22  1  0  0  0  0
 21 29  1  0  0  0  0
 21 30  1  0  0  0  0
 22 23  1  0  0  0  0
 22 24  2  0  0  0  0
 23 25  2  0  0  0  0
 23 31  1  0  0  0  0
 24 26  1  0  0  0  0
 24 32  1  0  0  0  0
 25 26  1  0  0  0  0
 25 33  1  0  0  0  0
 26 34  1  0  0  0  0
 35 36  1  0  0  0  0
 35 40  1  0  0  0  0
 36 37  1  0  0  0  0
 36 39  1  0  0  0  0
 36 41  1  0  0  0  0
 37 38  2  0  0  0  0
 37 45  1  0  0  0  0
 39 42  1  0  0  0  0
 39 43  1  0  0  0  0
 39 44  1  0  0  0  0
 45 46  1  0  0  0  0
 45 47  1  0  0  0  0
 46 48  1  0  0  0  0
 46 49  1  0  0  0  0
 46 50  1  0  0  0  0
M  CHG  1  23   1
M  END
$$$$

  -OEChem-05262216443D

 50 50  0     1  0  0  0  0  0999 V2000
   -1.6311    1.5299    4.6686 C   0  0  0  0  0  0  0  0  0  0  0  0
   -0.5091    1.9312    4.3838 O   0  0  0  0  0  0  0  0  0  0  0  0
   -2.0281    1.4106    6.1276 C   0  0  0  0  0  0  0  0  0  0  0  0
   -2.2148    0.3636    6.3790 H   0  0  0  0  0  0  0  0  0  0  0  0
   -1.2304    1.7909    6.7714 H   0  0  0  0  0  0  0  0  0  0  0  0
   -2.9357    1.9895    6.3166 H   0  0  0  0  0  0  0  0  0  0  0  0
   -2.5386    1.1540    3.6952 N   0  0  0  0  0  0  0  0  0  0  0  0
   -2.2942    1.1346    2.2393 C   0  0  2  0  0  0  0  0  0  0  0  0
   -1.1357    0.2034    1.7967 C   0  0  0  0  0  0  0  0  0  0  0  0
   -0.8125   -0.7486    2.4961 O   0  0  0  0  0  0  0  0  0  0  0  0
   -2.1082    2.5748    1.7350 C   0  0  0  0  0  0  0  0  0  0  0  0
   -3.4061    0.7438    4.0319 H   0  0  0  0  0  0  0  0  0  0  0  0
   -3.1955    0.7363    1.7617 H   0  0  0  0  0  0  0  0  0  0  0  0
   -1.1490    2.9848    2.0653 H   0  0  0  0  0  0  0  0  0  0  0  0
   -2.1410    2.6087    0.6418 H   0  0  0  0  0  0  0  0  0  0  0  0
   -2.9091    3.2160    2.1167 H   0  0  0  0  0  0  0  0  0  0  0  0
   -0.5823    0.3167    0.5303 N   0  0  0  0  0  0  0  0  0  0  0  0
    0.7477   -0.1204    0.0477 C   0  0  2  0  0  0  0  0  0  0  0  0
    0.5939   -0.8376   -1.3017 C   0  0  0  0  0  0  0  0  0  0  0  0
    0.6824   -0.1833   -2.3311 O   0  0  0  0  0  0  0  0  0  0  0  0
    1.7534   -0.8117    1.0022 C   0  0  0  0  0  0  0  0  0  0  0  0
    2.1868    0.1276    2.1080 C   0  0  0  0  0  0  0  0  0  0  0  0
    3.0774    1.1959    1.9726 N   0  3  0  0  0  0  0  0  0  0  0  0
    1.8173    0.0813    3.4266 C   0  0  0  0  0  0  0  0  0  0  0  0
    3.1817    1.8492    3.1052 C   0  0  0  0  0  0  0  0  0  0  0  0
    2.4064    1.1738    4.0418 N   0  0  0  0  0  0  0  0  0  0  0  0
   -1.0646    0.9775   -0.0769 H   0  0  0  0  0  0  0  0  0  0  0  0
    1.2506    0.8154   -0.2166 H   0  0  0  0  0  0  0  0  0  0  0  0
    2.6360   -1.1380    0.4414 H   0  0  0  0  0  0  0  0  0  0  0  0
    1.2955   -1.7099    1.4300 H   0  0  0  0  0  0  0  0  0  0  0  0
    3.4988    1.4593    1.0787 H   0  0  0  0  0  0  0  0  0  0  0  0
    1.1225   -0.6270    3.8785 H   0  0  0  0  0  0  0  0  0  0  0  0
    3.7504    2.7635    3.2810 H   0  0  0  0  0  0  0  0  0  0  0  0
    2.1513    1.5210    4.9712 H   0  0  0  0  0  0  0  0  0  0  0  0
    0.3848   -2.2025   -1.3499 N   0  0  0  0  0  0  0  0  0  0  0  0
   -0.1393   -2.8344   -2.5703 C   0  0  2  0  0  0  0  0  0  0  0  0
   -1.6691   -2.6507   -2.6991 C   0  0  0  0  0  0  0  0  0  0  0  0
   -2.3410   -2.3764   -1.7101 O   0  0  0  0  0  0  0  0  0  0  0  0
    0.2197   -4.3217   -2.5199 C   0  0  0  0  0  0  0  0  0  0  0  0
    0.0332   -2.5897   -0.4761 H   0  0  0  0  0  0  0  0  0  0  0  0
    0.3330   -2.3939   -3.4553 H   0  0  0  0  0  0  0  0  0  0  0  0
   -0.2522   -4.8020   -1.6566 H   0  0  0  0  0  0  0  0  0  0  0  0
   -0.1221   -4.8291   -3.4275 H   0  0  0  0  0  0  0  0  0  0  0  0
    1.3039   -4.4491   -2.4420 H   0  0  0  0  0  0  0  0  0  0  0  0
   -2.2952   -2.8046   -3.9217 N   0  0  0  0  0  0  0  0  0  0  0  0
   -3.7291   -2.6190   -4.1143 C   0  0  0  0  0  0  0  0  0  0  0  0
   -1.7113   -2.9856   -4.7331 H   0  0  0  0  0  0  0  0  0  0  0  0
   -4.2941   -3.3246   -3.4957 H   0  0  0  0  0  0  0  0  0  0  0  0
   -4.0237   -1.5993   -3.8438 H   0  0  0  0  0  0  0  0  0  0  0  0
   -3.9965   -2.7890   -5.1619 H   0  0  0  0  0  0  0  0  0  0  0  0
  1  2  2  0  0  0  0
  1  3  1  0  0  0  0
  1  7  1  0  0  0  0
  3  4  1  0  0  0  0
  3  5  1  0  0  0  0
  3  6  1  0  0  0  0
  7  8  1  0  0  0  0
  7 12  1  0  0  0  0
  8  9  1  0  0  0  0
  8 11  1  0  0  0  0
  8 13  1  0  0  0  0
  9 10  2  0  0  0  0
  9 17  1  0  0  0  0
 11 14  1  0  0  0  0
 11 15  1  0  0  0  0
 11 16  1  0  0  0  0
 17 18  1  0  0  0  0
 17 27  1  0  0  0  0
 18 19  1  0  0  0  0
 18 21  1  0  0  0  0
 18 28  1  0  0  0  0
 19 20  2  0  0  0  0
 19 35  1  0  0  0  0
 21 22  1  0  0  0  0
 21 29  1  0  0  0  0
 21 30  1  0  0  0  0
 22 23  1  0  0  0  0
 22 24  2  0  0  0  0
 23 25  2  0  0  0  0
 23 31  1  0  0  0  0
 24 26  1  0  0  0  0
 24 32  1  0  0  0  0
 25 26  1  0  0  0  0
 25 33  1  0  0  0  0
 26 34  1  0  0  0  0
 35 36  1  0  0  0  0
 35 40  1  0  0  0  0
 36 37  1  0  0  0  0
 36 39  1  0  0  0  0
 36 41  1  0  0  0  0
 37 38  2  0  0  0  0
 37 45  1  0  0  0  0
 39 42  1  0  0  0  0
 39 43  1  0  0  0  0
 39 44  1  0  0  0  0
 45 46  1  0  0  0  0
 45 47  1  0  0  0  0
 46 48  1  0  0  0  0
 46 49  1  0  0  0  0
 46 50  1  0  0  0  0
M  CHG  1  23   1
M  END
$$$$

  -OEChem-05262216443D

 50 50  0     1  0  0  0  0  0999 V2000
   -1.7032    1.5111    4.5584 C   0  0  0  0  0  0  0  0  0  0  0  0
   -0.5751    1.9137    4.3003 O   0  0  0  0  0  0  0  0  0  0  0  0
   -2.1536    1.4401    6.0050 C   0  0  0  0  0  0  0  0  0  0  0  0
   -2.3757    0.4049    6.2767 H   0  0  0  0  0  0  0  0  0  0  0  0
   -1.3694    1.8172    6.6669 H   0  0  0  0  0  0  0  0  0  0  0  0
   -3.0515    2.0470    6.1468 H   0  0  0  0  0  0  0  0  0  0  0  0
   -2.5724    1.0952    3.5663 N   0  0  0  0  0  0  0  0  0  0  0  0
   -2.2813    1.0458    2.1202 C   0  0  2  0  0  0  0  0  0  0  0  0
   -1.0879    0.1339    1.7355 C   0  0  0  0  0  0  0  0  0  0  0  0
   -0.7550   -0.7902    2.4674 O   0  0  0  0  0  0  0  0  0  0  0  0
   -2.1097    2.4782    1.5895 C   0  0  0  0  0  0  0  0  0  0  0  0
   -3.4518    0.6951    3.8835 H   0  0  0  0  0  0  0  0  0  0  0  0
   -3.1570    0.6155    1.6232 H   0  0  0  0  0  0  0  0  0  0  0  0
   -1.1706    2.9163    1.9413 H   0  0  0  0  0  0  0  0  0  0  0  0
   -2.1065    2.4864    0.4954 H   0  0  0  0  0  0  0  0  0  0  0  0
   -2.9362    3.1101    1.9299 H   0  0  0  0  0  0  0  0  0  0  0  0
   -0.5187    0.2143    0.4748 N   0  0  0  0  0  0  0  0  0  0  0  0
    0.8314   -0.1961    0.0266 C   0  0  2  0  0  0  0  0  0  0  0  0
    0.7021   -0.9675   -1.2917 C   0  0  0  0  0  0  0  0  0  0  0  0
    0.9976   -0.4175   -2.3429 O   0  0  0  0  0  0  0  0  0  0  0  0
    1.8410   -0.8347    1.0105 C   0  0  0  0  0  0  0  0  0  0  0  0
    2.2304    0.1421    2.0995 C   0  0  0  0  0  0  0  0  0  0  0  0
    3.0923    1.2313    1.9478 N   0  3  0  0  0  0  0  0  0  0  0  0
    1.8410    0.1215    3.4132 C   0  0  0  0  0  0  0  0  0  0  0  0
    3.1621    1.9166    3.0639 C   0  0  0  0  0  0  0  0  0  0  0  0
    2.3906    1.2458    4.0070 N   0  0  0  0  0  0  0  0  0  0  0  0
   -1.0296    0.8111   -0.1747 H   0  0  0  0  0  0  0  0  0  0  0  0
    1.3112    0.7439   -0.2645 H   0  0  0  0  0  0  0  0  0  0  0  0
    2.7402   -1.1479    0.4685 H   0  0  0  0  0  0  0  0  0  0  0  0
    1.4023   -1.7356    1.4527 H   0  0  0  0  0  0  0  0  0  0  0  0
    3.5208    1.4815    1.0535 H   0  0  0  0  0  0  0  0  0  0  0  0
    1.1585   -0.5929    3.8740 H   0  0  0  0  0  0  0  0  0  0  0  0
    3.7038    2.8499    3.2230 H   0  0  0  0  0  0  0  0  0  0  0  0
    2.1151    1.6085    4.9245 H   0  0  0  0  0  0  0  0  0  0  0  0
    0.2264   -2.2636   -1.2750 N   0  0  0  0  0  0  0  0  0  0  0  0
   -0.4230   -2.8153   -2.4724 C   0  0  2  0  0  0  0  0  0  0  0  0
   -1.8528   -2.2527   -2.6585 C   0  0  0  0  0  0  0  0  0  0  0  0
   -2.4262   -1.6939   -1.7271 O   0  0  0  0  0  0  0  0  0  0  0  0
   -0.4580   -4.3384   -2.3253 C   0  0  0  0  0  0  0  0  0  0  0  0
   -0.2109   -2.5159   -0.3901 H   0  0  0  0  0  0  0  0  0  0  0  0
    0.1610   -2.5659   -3.3652 H   0  0  0  0  0  0  0  0  0  0  0  0
   -1.0530   -4.6271   -1.4526 H   0  0  0  0  0  0  0  0  0  0  0  0
   -0.9006   -4.7997   -3.2136 H   0  0  0  0  0  0  0  0  0  0  0  0
    0.5562   -4.7316   -2.2028 H   0  0  0  0  0  0  0  0  0  0  0  0
   -2.5014   -2.3776   -3.8727 N   0  0  0  0  0  0  0  0  0  0  0  0
   -3.8384   -1.8525   -4.1257 C   0  0  0  0  0  0  0  0  0  0  0  0
   -1.9852   -2.7924   -4.6434 H   0  0  0  0  0  0  0  0  0  0  0  0
   -4.5578   -2.2741   -3.4156 H   0  0  0  0  0  0  0  0  0  0  0  0
   -3.8459   -0.7616   -4.0300 H   0  0  0  0  0  0  0  0  0  0  0  0
   -4.1625   -2.1134   -5.1380 H   0  0  0  0  0  0  0  0  0  0  0  0
  1  2  2  0  0  0  0
  1  3  1  0  0  0  0
  1  7  1  0  0  0  0
  3  4  1  0  0  0  0
  3  5  1  0  0  0  0
  3  6  1  0  0  0  0
  7  8  1  0  0  0  0
  7 12  1  0  0  0  0
  8  9  1  0  0  0  0
  8 11  1  0  0  0  0
  8 13  1  0  0  0  0
  9 10  2  0  0  0  0
  9 17  1  0  0  0  0
 11 14  1  0  0  0  0
 11 15  1  0  0  0  0
 11 16  1  0  0  0  0
 17 18  1  0  0  0  0
 17 27  1  0  0  0  0
 18 19  1  0  0  0  0
 18 21  1  0  0  0  0
 18 28  1  0  0  0  0
 19 20  2  0  0  0  0
 19 35  1  0  0  0  0
 21 22  1  0  0  0  0
 21 29  1  0  0  0  0
 21 30  1  0  0  0  0
 22 23  1  0  0  0  0
 22 24  2  0  0  0  0
 23 25  2  0  0  0  0
 23 31  1  0  0  0  0
 24 26  1  0  0  0  0
 24 32  1  0  0  0  0
 25 26  1  0  0  0  0
 25 33  1  0  0  0  0
 26 34  1  0  0  0  0
 35 36  1  0  0  0  0
 35 40  1  0  0  0  0
 36 37  1  0  0  0  0
 36 39  1  0  0  0  0
 36 41  1  0  0  0  0
 37 38  2  0  0  0  0
 37 45  1  0  0  0  0
 39 42  1  0  0  0  0
 39 43  1  0  0  0  0
 39 44  1  0  0  0  0
 45 46  1  0  0  0  0
 45 47  1  0  0  0  0
 46 48  1  0  0  0  0
 46 49  1  0  0  0  0
 46 50  1  0  0  0  0
M  CHG  1  23   1
M  END
$$$$

  -OEChem-05262216443D

 50 50  0     1  0  0  0  0  0999 V2000
   -1.7485    1.5925    4.3572 C   0  0  0  0  0  0  0  0  0  0  0  0
   -0.6259    1.9857    4.0638 O   0  0  0  0  0  0  0  0  0  0  0  0
   -2.2067    1.6678    5.8011 C   0  0  0  0  0  0  0  0  0  0  0  0
   -2.3990    0.6629    6.1851 H   0  0  0  0  0  0  0  0  0  0  0  0
   -1.4388    2.1406    6.4196 H   0  0  0  0  0  0  0  0  0  0  0  0
   -3.1240    2.2578    5.8714 H   0  0  0  0  0  0  0  0  0  0  0  0
   -2.6028    1.0584    3.4097 N   0  0  0  0  0  0  0  0  0  0  0  0
   -2.3039    0.8832    1.9751 C   0  0  2  0  0  0  0  0  0  0  0  0
   -1.0541    0.0131    1.6844 C   0  0  0  0  0  0  0  0  0  0  0  0
   -0.7116   -0.8597    2.4729 O   0  0  0  0  0  0  0  0  0  0  0  0
   -2.2179    2.2655    1.3084 C   0  0  0  0  0  0  0  0  0  0  0  0
   -3.4849    0.6914    3.7575 H   0  0  0  0  0  0  0  0  0  0  0  0
   -3.1481    0.3537    1.5209 H   0  0  0  0  0  0  0  0  0  0  0  0
   -1.3143    2.7965    1.6233 H   0  0  0  0  0  0  0  0  0  0  0  0
   -2.2003    2.1668    0.2187 H   0  0  0  0  0  0  0  0  0  0  0  0
   -3.0882    2.8716    1.5789 H   0  0  0  0  0  0  0  0  0  0  0  0
   -0.4452    0.0522    0.4421 N   0  0  0  0  0  0  0  0  0  0  0  0
    0.9235   -0.3415    0.0386 C   0  0  2  0  0  0  0  0  0  0  0  0
    0.8243   -1.1632   -1.2499 C   0  0  0  0  0  0  0  0  0  0  0  0
    1.3046   -0.7303   -2.2872 O   0  0  0  0  0  0  0  0  0  0  0  0
    1.9220   -0.9264    1.0646 C   0  0  0  0  0  0  0  0  0  0  0  0
    2.2629    0.0938    2.1307 C   0  0  0  0  0  0  0  0  0  0  0  0
    3.1044    1.1954    1.9582 N   0  3  0  0  0  0  0  0  0  0  0  0
    1.8506    0.1071    3.4381 C   0  0  0  0  0  0  0  0  0  0  0  0
    3.1388    1.9193    3.0512 C   0  0  0  0  0  0  0  0  0  0  0  0
    2.3667    1.2622    4.0034 N   0  0  0  0  0  0  0  0  0  0  0  0
   -1.0029    0.5114   -0.2805 H   0  0  0  0  0  0  0  0  0  0  0  0
    1.3899    0.5967   -0.2789 H   0  0  0  0  0  0  0  0  0  0  0  0
    2.8400   -1.2382    0.5547 H   0  0  0  0  0  0  0  0  0  0  0  0
    1.4894   -1.8215    1.5242 H   0  0  0  0  0  0  0  0  0  0  0  0
    3.5387    1.4275    1.0617 H   0  0  0  0  0  0  0  0  0  0  0  0
    1.1769   -0.6086    3.9096 H   0  0  0  0  0  0  0  0  0  0  0  0
    3.6552    2.8706    3.1871 H   0  0  0  0  0  0  0  0  0  0  0  0
    2.0739    1.6469    4.9061 H   0  0  0  0  0  0  0  0  0  0  0  0
    0.0894   -2.3315   -1.2337 N   0  0  0  0  0  0  0  0  0  0  0  0
   -0.6758   -2.7030   -2.4322 C   0  0  2  0  0  0  0  0  0  0  0  0
   -1.9297   -1.8096   -2.6137 C   0  0  0  0  0  0  0  0  0  0  0  0
   -2.3079   -1.0669   -1.7087 O   0  0  0  0  0  0  0  0  0  0  0  0
   -1.0734   -4.1747   -2.2934 C   0  0  0  0  0  0  0  0  0  0  0  0
   -0.3999   -2.4714   -0.3512 H   0  0  0  0  0  0  0  0  0  0  0  0
   -0.0492   -2.5956   -3.3248 H   0  0  0  0  0  0  0  0  0  0  0  0
   -1.7224   -4.3183   -1.4232 H   0  0  0  0  0  0  0  0  0  0  0  0
   -1.6095   -4.5138   -3.1853 H   0  0  0  0  0  0  0  0  0  0  0  0
   -0.1818   -4.7981   -2.1710 H   0  0  0  0  0  0  0  0  0  0  0  0
   -2.6369   -1.8311   -3.8008 N   0  0  0  0  0  0  0  0  0  0  0  0
   -3.8121   -1.0041   -4.0521 C   0  0  0  0  0  0  0  0  0  0  0  0
   -2.2800   -2.4148   -4.5524 H   0  0  0  0  0  0  0  0  0  0  0  0
   -4.5915   -1.2081   -3.3101 H   0  0  0  0  0  0  0  0  0  0  0  0
   -3.5515    0.0586   -4.0062 H   0  0  0  0  0  0  0  0  0  0  0  0
   -4.2195   -1.2168   -5.0454 H   0  0  0  0  0  0  0  0  0  0  0  0
  1  2  2  0  0  0  0
  1  3  1  0  0  0  0
  1  7  1  0  0  0  0
  3  4  1  0  0  0  0
  3  5  1  0  0  0  0
  3  6  1  0  0  0  0
  7  8  1  0  0  0  0
  7 12  1  0  0  0  0
  8  9  1  0  0  0  0
  8 11  1  0  0  0  0
  8 13  1  0  0  0  0
  9 10  2  0  0  0  0
  9 17  1  0  0  0  0
 11 14  1  0  0  0  0
 11 15  1  0  0  0  0
 11 16  1  0  0  0  0
 17 18  1  0  0  0  0
 17 27  1  0  0  0  0
 18 19  1  0  0  0  0
 18 21  1  0  0  0  0
 18 28  1  0  0  0  0
 19 20  2  0  0  0  0
 19 35  1  0  0  0  0
 21 22  1  0  0  0  0
 21 29  1  0  0  0  0
 21 30  1  0  0  0  0
 22 23  1  0  0  0  0
 22 24  2  0  0  0  0
 23 25  2  0  0  0  0
 23 31  1  0  0  0  0
 24 26  1  0  0  0  0
 24 32  1  0  0  0  0
 25 26  1  0  0  0  0
 25 33  1  0  0  0  0
 26 34  1  0  0  0  0
 35 36  1  0  0  0  0
 35 40  1  0  0  0  0
 36 37  1  0  0  0  0
 36 39  1  0  0  0  0
 36 41  1  0  0  0  0
 37 38  2  0  0  0  0
 37 45  1  0  0  0  0
 39 42  1  0  0  0  0
 39 43  1  0  0  0  0
 39 44  1  0  0  0  0
 45 46  1  0  0  0  0
 45 47  1  0  0  0  0
 46 48  1  0  0  0  0
 46 49  1  0  0  0  0
 46 50  1  0  0  0  0
M  CHG  1  23   1
M  END
$$$$

  -OEChem-05262216443D

 50 50  0     1  0  0  0  0  0999 V2000
   -1.7468    1.6912    4.3038 C   0  0  0  0  0  0  0  0  0  0  0  0
   -0.6140    2.0504    4.0057 O   0  0  0  0  0  0  0  0  0  0  0  0
   -2.2140    1.8282    5.7404 C   0  0  0  0  0  0  0  0  0  0  0  0
   -2.4393    0.8426    6.1555 H   0  0  0  0  0  0  0  0  0  0  0  0
   -1.4373    2.2978    6.3501 H   0  0  0  0  0  0  0  0  0  0  0  0
   -3.1136    2.4474    5.7829 H   0  0  0  0  0  0  0  0  0  0  0  0
   -2.6055    1.1413    3.3691 N   0  0  0  0  0  0  0  0  0  0  0  0
   -2.2980    0.8981    1.9459 C   0  0  2  0  0  0  0  0  0  0  0  0
   -1.0775   -0.0267    1.7033 C   0  0  0  0  0  0  0  0  0  0  0  0
   -0.7553   -0.8590    2.5420 O   0  0  0  0  0  0  0  0  0  0  0  0
   -2.1539    2.2466    1.2230 C   0  0  0  0  0  0  0  0  0  0  0  0
   -3.4974    0.8061    3.7240 H   0  0  0  0  0  0  0  0  0  0  0  0
   -3.1564    0.3815    1.5040 H   0  0  0  0  0  0  0  0  0  0  0  0
   -1.2333    2.7553    1.5247 H   0  0  0  0  0  0  0  0  0  0  0  0
   -2.1305    2.1011    0.1385 H   0  0  0  0  0  0  0  0  0  0  0  0
   -3.0027    2.8960    1.4589 H   0  0  0  0  0  0  0  0  0  0  0  0
   -0.4785   -0.0861    0.4568 N   0  0  0  0  0  0  0  0  0  0  0  0
    0.8782   -0.5377    0.0666 C   0  0  2  0  0  0  0  0  0  0  0  0
    0.7701   -1.4440   -1.1644 C   0  0  0  0  0  0  0  0  0  0  0  0
    1.4428   -1.1993   -2.1552 O   0  0  0  0  0  0  0  0  0  0  0  0
    1.8733   -1.0634    1.1262 C   0  0  0  0  0  0  0  0  0  0  0  0
    2.2419    0.0310    2.1045 C   0  0  0  0  0  0  0  0  0  0  0  0
    3.1030    1.0975    1.8366 N   0  3  0  0  0  0  0  0  0  0  0  0
    1.8288    0.1668    3.4040 C   0  0  0  0  0  0  0  0  0  0  0  0
    3.1527    1.9122    2.8630 C   0  0  0  0  0  0  0  0  0  0  0  0
    2.3660    1.3569    3.8671 N   0  0  0  0  0  0  0  0  0  0  0  0
   -1.0384    0.3258   -0.2964 H   0  0  0  0  0  0  0  0  0  0  0  0
    1.3561    0.3685   -0.3194 H   0  0  0  0  0  0  0  0  0  0  0  0
    2.7804   -1.4317    0.6349 H   0  0  0  0  0  0  0  0  0  0  0  0
    1.4275   -1.9113    1.6574 H   0  0  0  0  0  0  0  0  0  0  0  0
    3.5451    1.2387    0.9250 H   0  0  0  0  0  0  0  0  0  0  0  0
    1.1379   -0.4886    3.9347 H   0  0  0  0  0  0  0  0  0  0  0  0
    3.6905    2.8598    2.9169 H   0  0  0  0  0  0  0  0  0  0  0  0
    2.0728    1.8276    4.7282 H   0  0  0  0  0  0  0  0  0  0  0  0
   -0.2095   -2.4164   -1.1889 N   0  0  0  0  0  0  0  0  0  0  0  0
   -0.9565   -2.6303   -2.4362 C   0  0  2  0  0  0  0  0  0  0  0  0
   -1.9574   -1.4777   -2.7083 C   0  0  0  0  0  0  0  0  0  0  0  0
   -2.2276   -0.6598   -1.8283 O   0  0  0  0  0  0  0  0  0  0  0  0
   -1.6898   -3.9687   -2.3182 C   0  0  0  0  0  0  0  0  0  0  0  0
   -0.7766   -2.4172   -0.3429 H   0  0  0  0  0  0  0  0  0  0  0  0
   -0.2632   -2.6879   -3.2830 H   0  0  0  0  0  0  0  0  0  0  0  0
   -2.4093   -3.9429   -1.4933 H   0  0  0  0  0  0  0  0  0  0  0  0
   -2.2306   -4.1936   -3.2428 H   0  0  0  0  0  0  0  0  0  0  0  0
   -0.9752   -4.7771   -2.1328 H   0  0  0  0  0  0  0  0  0  0  0  0
   -2.5518   -1.3458   -3.9488 N   0  0  0  0  0  0  0  0  0  0  0  0
   -3.4791   -0.2714   -4.2868 C   0  0  0  0  0  0  0  0  0  0  0  0
   -2.2787   -2.0022   -4.6755 H   0  0  0  0  0  0  0  0  0  0  0  0
   -4.3424   -0.2827   -3.6130 H   0  0  0  0  0  0  0  0  0  0  0  0
   -2.9838    0.7023   -4.2091 H   0  0  0  0  0  0  0  0  0  0  0  0
   -3.8423   -0.3930   -5.3121 H   0  0  0  0  0  0  0  0  0  0  0  0
  1  2  2  0  0  0  0
  1  3  1  0  0  0  0
  1  7  1  0  0  0  0
  3  4  1  0  0  0  0
  3  5  1  0  0  0  0
  3  6  1  0  0  0  0
  7  8  1  0  0  0  0
  7 12  1  0  0  0  0
  8  9  1  0  0  0  0
  8 11  1  0  0  0  0
  8 13  1  0  0  0  0
  9 10  2  0  0  0  0
  9 17  1  0  0  0  0
 11 14  1  0  0  0  0
 11 15  1  0  0  0  0
 11 16  1  0  0  0  0
 17 18  1  0  0  0  0
 17 27  1  0  0  0  0
 18 19  1  0  0  0  0
 18 21  1  0  0  0  0
 18 28  1  0  0  0  0
 19 20  2  0  0  0  0
 19 35  1  0  0  0  0
 21 22  1  0  0  0  0
 21 29  1  0  0  0  0
 21 30  1  0  0  0  0
 22 23  1  0  0  0  0
 22 24  2  0  0  0  0
 23 25  2  0  0  0  0
 23 31  1  0  0  0  0
 24 26  1  0  0  0  0
 24 32  1  0  0  0  0
 25 26  1  0  0  0  0
 25 33  1  0  0  0  0
 26 34  1  0  0  0  0
 35 36  1  0  0  0  0
 35 40  1  0  0  0  0
 36 37  1  0  0  0  0
 36 39  1  0  0  0  0
 36 41  1  0  0  0  0
 37 38  2  0  0  0  0
 37 45  1  0  0  0  0
 39 42  1  0  0  0  0
 39 43  1  0  0  0  0
 39 44  1  0  0  0  0
 45 46  1  0  0  0  0
 45 47  1  0  0  0  0
 46 48  1  0  0  0  0
 46 49  1  0  0  0  0
 46 50  1  0  0  0  0
M  CHG  1  23   1
M  END
$$$$

  -OEChem-05262216443D

 50 50  0     1  0  0  0  0  0999 V2000
   -1.6723    1.8660    4.2262 C   0  0  0  0  0  0  0  0  0  0  0  0
   -0.5309    2.1536    3.8870 O   0  0  0  0  0  0  0  0  0  0  0  0
   -2.1100    2.1292    5.6541 C   0  0  0  0  0  0  0  0  0  0  0  0
   -2.3702    1.1880    6.1447 H   0  0  0  0  0  0  0  0  0  0  0  0
   -1.3044    2.6093    6.2166 H   0  0  0  0  0  0  0  0  0  0  0  0
   -2.9820    2.7879    5.6610 H   0  0  0  0  0  0  0  0  0  0  0  0
   -2.5694    1.2901    3.3451 N   0  0  0  0  0  0  0  0  0  0  0  0
   -2.3010    0.9479    1.9349 C   0  0  2  0  0  0  0  0  0  0  0  0
   -1.1257   -0.0418    1.7268 C   0  0  0  0  0  0  0  0  0  0  0  0
   -0.8306   -0.8457    2.6019 O   0  0  0  0  0  0  0  0  0  0  0  0
   -2.1181    2.2423    1.1265 C   0  0  0  0  0  0  0  0  0  0  0  0
   -3.4688    1.0198    3.7350 H   0  0  0  0  0  0  0  0  0  0  0  0
   -3.1898    0.4432    1.5426 H   0  0  0  0  0  0  0  0  0  0  0  0
   -1.1729    2.7316    1.3802 H   0  0  0  0  0  0  0  0  0  0  0  0
   -2.1213    2.0299    0.0528 H   0  0  0  0  0  0  0  0  0  0  0  0
   -2.9363    2.9387    1.3352 H   0  0  0  0  0  0  0  0  0  0  0  0
   -0.5480   -0.1869    0.4772 N   0  0  0  0  0  0  0  0  0  0  0  0
    0.7888   -0.7015    0.0912 C   0  0  2  0  0  0  0  0  0  0  0  0
    0.6544   -1.6720   -1.0897 C   0  0  0  0  0  0  0  0  0  0  0  0
    1.4729   -1.6249   -1.9963 O   0  0  0  0  0  0  0  0  0  0  0  0
    1.7754   -1.2127    1.1663 C   0  0  0  0  0  0  0  0  0  0  0  0
    2.1938   -0.0937    2.0944 C   0  0  0  0  0  0  0  0  0  0  0  0
    3.0906    0.9278    1.7743 N   0  3  0  0  0  0  0  0  0  0  0  0
    1.8085    0.1031    3.3944 C   0  0  0  0  0  0  0  0  0  0  0  0
    3.1886    1.7764    2.7692 C   0  0  0  0  0  0  0  0  0  0  0  0
    2.3997    1.2870    3.8053 N   0  0  0  0  0  0  0  0  0  0  0  0
   -1.0735    0.2630   -0.2808 H   0  0  0  0  0  0  0  0  0  0  0  0
    1.2907    0.1685   -0.3440 H   0  0  0  0  0  0  0  0  0  0  0  0
    2.6646   -1.6344    0.6848 H   0  0  0  0  0  0  0  0  0  0  0  0
    1.3047   -2.0207    1.7369 H   0  0  0  0  0  0  0  0  0  0  0  0
    3.5253    1.0158    0.8525 H   0  0  0  0  0  0  0  0  0  0  0  0
    1.1053   -0.5093    3.9593 H   0  0  0  0  0  0  0  0  0  0  0  0
    3.7628    2.7037    2.7803 H   0  0  0  0  0  0  0  0  0  0  0  0
    2.1459    1.7958    4.6570 H   0  0  0  0  0  0  0  0  0  0  0  0
   -0.5083   -2.4056   -1.2168 N   0  0  0  0  0  0  0  0  0  0  0  0
   -1.1665   -2.4772   -2.5277 C   0  0  2  0  0  0  0  0  0  0  0  0
   -1.9370   -1.1703   -2.8440 C   0  0  0  0  0  0  0  0  0  0  0  0
   -2.1267   -0.3279   -1.9654 O   0  0  0  0  0  0  0  0  0  0  0  0
   -2.1162   -3.6774   -2.5079 C   0  0  0  0  0  0  0  0  0  0  0  0
   -1.1392   -2.2619   -0.4303 H   0  0  0  0  0  0  0  0  0  0  0  0
   -0.4222   -2.6363   -3.3163 H   0  0  0  0  0  0  0  0  0  0  0  0
   -2.8888   -3.5457   -1.7434 H   0  0  0  0  0  0  0  0  0  0  0  0
   -2.6061   -3.7964   -3.4792 H   0  0  0  0  0  0  0  0  0  0  0  0
   -1.5614   -4.5954   -2.2886 H   0  0  0  0  0  0  0  0  0  0  0  0
   -2.4102   -0.9279   -4.1193 N   0  0  0  0  0  0  0  0  0  0  0  0
   -3.1154    0.2913   -4.4990 C   0  0  0  0  0  0  0  0  0  0  0  0
   -2.2037   -1.6165   -4.8384 H   0  0  0  0  0  0  0  0  0  0  0  0
   -4.0102    0.4269   -3.8822 H   0  0  0  0  0  0  0  0  0  0  0  0
   -2.4661    1.1644   -4.3754 H   0  0  0  0  0  0  0  0  0  0  0  0
   -3.4266    0.2381   -5.5469 H   0  0  0  0  0  0  0  0  0  0  0  0
  1  2  2  0  0  0  0
  1  3  1  0  0  0  0
  1  7  1  0  0  0  0
  3  4  1  0  0  0  0
  3  5  1  0  0  0  0
  3  6  1  0  0  0  0
  7  8  1  0  0  0  0
  7 12  1  0  0  0  0
  8  9  1  0  0  0  0
  8 11  1  0  0  0  0
  8 13  1  0  0  0  0
  9 10  2  0  0  0  0
  9 17  1  0  0  0  0
 11 14  1  0  0  0  0
 11 15  1  0  0  0  0
 11 16  1  0  0  0  0
 17 18  1  0  0  0  0
 17 27  1  0  0  0  0
 18 19  1  0  0  0  0
 18 21  1  0  0  0  0
 18 28  1  0  0  0  0
 19 20  2  0  0  0  0
 19 35  1  0  0  0  0
 21 22  1  0  0  0  0
 21 29  1  0  0  0  0
 21 30  1  0  0  0  0
 22 23  1  0  0  0  0
 22 24  2  0  0  0  0
 23 25  2  0  0  0  0
 23 31  1  0  0  0  0
 24 26  1  0  0  0  0
 24 32  1  0  0  0  0
 25 26  1  0  0  0  0
 25 33  1  0  0  0  0
 26 34  1  0  0  0  0
 35 36  1  0  0  0  0
 35 40  1  0  0  0  0
 36 37  1  0  0  0  0
 36 39  1  0  0  0  0
 36 41  1  0  0  0  0
 37 38  2  0  0  0  0
 37 45  1  0  0  0  0
 39 42  1  0  0  0  0
 39 43  1  0  0  0  0
 39 44  1  0  0  0  0
 45 46  1  0  0  0  0
 45 47  1  0  0  0  0
 46 48  1  0  0  0  0
 46 49  1  0  0  0  0
 46 50  1  0  0  0  0
M  CHG  1  23   1
M  END
$$$$

  -OEChem-05262216443D

 50 50  0     1  0  0  0  0  0999 V2000
   -1.5821    2.0002    4.2113 C   0  0  0  0  0  0  0  0  0  0  0  0
   -0.4279    2.2174    3.8630 O   0  0  0  0  0  0  0  0  0  0  0  0
   -1.9994    2.3085    5.6365 C   0  0  0  0  0  0  0  0  0  0  0  0
   -2.2908    1.3876    6.1479 H   0  0  0  0  0  0  0  0  0  0  0  0
   -1.1728    2.7692    6.1843 H   0  0  0  0  0  0  0  0  0  0  0  0
   -2.8466    2.9992    5.6361 H   0  0  0  0  0  0  0  0  0  0  0  0
   -2.5146    1.4624    3.3431 N   0  0  0  0  0  0  0  0  0  0  0  0
   -2.2730    1.0718    1.9402 C   0  0  2  0  0  0  0  0  0  0  0  0
   -1.1865   -0.0185    1.7528 C   0  0  0  0  0  0  0  0  0  0  0  0
   -0.9256   -0.7958    2.6617 O   0  0  0  0  0  0  0  0  0  0  0  0
   -1.9815    2.3284    1.1042 C   0  0  0  0  0  0  0  0  0  0  0  0
   -3.4230    1.2445    3.7445 H   0  0  0  0  0  0  0  0  0  0  0  0
   -3.2013    0.6360    1.5568 H   0  0  0  0  0  0  0  0  0  0  0  0
   -0.9944    2.7368    1.3417 H   0  0  0  0  0  0  0  0  0  0  0  0
   -2.0114    2.0960    0.0350 H   0  0  0  0  0  0  0  0  0  0  0  0
   -2.7331    3.0987    1.3034 H   0  0  0  0  0  0  0  0  0  0  0  0
   -0.6650   -0.2739    0.4956 N   0  0  0  0  0  0  0  0  0  0  0  0
    0.6286   -0.8907    0.1061 C   0  0  2  0  0  0  0  0  0  0  0  0
    0.4273   -1.9315   -1.0060 C   0  0  0  0  0  0  0  0  0  0  0  0
    1.3301   -2.1106   -1.8106 O   0  0  0  0  0  0  0  0  0  0  0  0
    1.6151   -1.3837    1.1911 C   0  0  0  0  0  0  0  0  0  0  0  0
    2.1242   -0.2323    2.0296 C   0  0  0  0  0  0  0  0  0  0  0  0
    3.0694    0.7104    1.6197 N   0  3  0  0  0  0  0  0  0  0  0  0
    1.7867    0.0732    3.3216 C   0  0  0  0  0  0  0  0  0  0  0  0
    3.2469    1.6138    2.5537 C   0  0  0  0  0  0  0  0  0  0  0  0
    2.4573    1.2437    3.6378 N   0  0  0  0  0  0  0  0  0  0  0  0
   -1.1392    0.2301   -0.2628 H   0  0  0  0  0  0  0  0  0  0  0  0
    1.1631   -0.0802   -0.3993 H   0  0  0  0  0  0  0  0  0  0  0  0
    2.4655   -1.8898    0.7206 H   0  0  0  0  0  0  0  0  0  0  0  0
    1.1158   -2.1228    1.8268 H   0  0  0  0  0  0  0  0  0  0  0  0
    3.4870    0.7074    0.6859 H   0  0  0  0  0  0  0  0  0  0  0  0
    1.0652   -0.4566    3.9439 H   0  0  0  0  0  0  0  0  0  0  0  0
    3.8782    2.5012    2.4904 H   0  0  0  0  0  0  0  0  0  0  0  0
    2.2580    1.8207    4.4603 H   0  0  0  0  0  0  0  0  0  0  0  0
   -0.8494   -2.3889   -1.2660 N   0  0  0  0  0  0  0  0  0  0  0  0
   -1.3680   -2.3296   -2.6382 C   0  0  2  0  0  0  0  0  0  0  0  0
   -1.8379   -0.8963   -2.9903 C   0  0  0  0  0  0  0  0  0  0  0  0
   -1.9741   -0.0515   -2.1037 O   0  0  0  0  0  0  0  0  0  0  0  0
   -2.5258   -3.3248   -2.7450 C   0  0  0  0  0  0  0  0  0  0  0  0
   -1.5114   -2.0921   -0.5517 H   0  0  0  0  0  0  0  0  0  0  0  0
   -0.5905   -2.6236   -3.3521 H   0  0  0  0  0  0  0  0  0  0  0  0
   -3.3351   -3.0509   -2.0602 H   0  0  0  0  0  0  0  0  0  0  0  0
   -2.9245   -3.3427   -3.7641 H   0  0  0  0  0  0  0  0  0  0  0  0
   -2.1823   -4.3331   -2.4924 H   0  0  0  0  0  0  0  0  0  0  0  0
   -2.0920   -0.5431   -4.3015 N   0  0  0  0  0  0  0  0  0  0  0  0
   -2.5055    0.7949   -4.7106 C   0  0  0  0  0  0  0  0  0  0  0  0
   -1.9352   -1.2463   -5.0191 H   0  0  0  0  0  0  0  0  0  0  0  0
   -3.4314    1.0844   -4.2022 H   0  0  0  0  0  0  0  0  0  0  0  0
   -1.7278    1.5274   -4.4703 H   0  0  0  0  0  0  0  0  0  0  0  0
   -2.6835    0.8224   -5.7904 H   0  0  0  0  0  0  0  0  0  0  0  0
  1  2  2  0  0  0  0
  1  3  1  0  0  0  0
  1  7  1  0  0  0  0
  3  4  1  0  0  0  0
  3  5  1  0  0  0  0
  3  6  1  0  0  0  0
  7  8  1  0  0  0  0
  7 12  1  0  0  0  0
  8  9  1  0  0  0  0
  8 11  1  0  0  0  0
  8 13  1  0  0  0  0
  9 10  2  0  0  0  0
  9 17  1  0  0  0  0
 11 14  1  0  0  0  0
 11 15  1  0  0  0  0
 11 16  1  0  0  0  0
 17 18  1  0  0  0  0
 17 27  1  0  0  0  0
 18 19  1  0  0  0  0
 18 21  1  0  0  0  0
 18 28  1  0  0  0  0
 19 20  2  0  0  0  0
 19 35  1  0  0  0  0
 21 22  1  0  0  0  0
 21 29  1  0  0  0  0
 21 30  1  0  0  0  0
 22 23  1  0  0  0  0
 22 24  2  0  0  0  0
 23 25  2  0  0  0  0
 23 31  1  0  0  0  0
 24 26  1  0  0  0  0
 24 32  1  0  0  0  0
 25 26  1  0  0  0  0
 25 33  1  0  0  0  0
 26 34  1  0  0  0  0
 35 36  1  0  0  0  0
 35 40  1  0  0  0  0
 36 37  1  0  0  0  0
 36 39  1  0  0  0  0
 36 41  1  0  0  0  0
 37 38  2  0  0  0  0
 37 45  1  0  0  0  0
 39 42  1  0  0  0  0
 39 43  1  0  0  0  0
 39 44  1  0  0  0  0
 45 46  1  0  0  0  0
 45 47  1  0  0  0  0
 46 48  1  0  0  0  0
 46 49  1  0  0  0  0
 46 50  1  0  0  0  0
M  CHG  1  23   1
M  END
$$$$

  -OEChem-05262216443D

 50 50  0     1  0  0  0  0  0999 V2000
   -1.4279    2.1602    4.1622 C   0  0  0  0  0  0  0  0  0  0  0  0
   -0.2617    2.2803    3.8077 O   0  0  0  0  0  0  0  0  0  0  0  0
   -1.8108    2.5134    5.5866 C   0  0  0  0  0  0  0  0  0  0  0  0
   -2.1447    1.6179    6.1166 H   0  0  0  0  0  0  0  0  0  0  0  0
   -0.9542    2.9384    6.1170 H   0  0  0  0  0  0  0  0  0  0  0  0
   -2.6198    3.2482    5.5841 H   0  0  0  0  0  0  0  0  0  0  0  0
   -2.4051    1.6911    3.3032 N   0  0  0  0  0  0  0  0  0  0  0  0
   -2.2016    1.2477    1.9098 C   0  0  2  0  0  0  0  0  0  0  0  0
   -1.2556    0.0288    1.7531 C   0  0  0  0  0  0  0  0  0  0  0  0
   -1.0714   -0.7376    2.6896 O   0  0  0  0  0  0  0  0  0  0  0  0
   -1.7554    2.4403    1.0482 C   0  0  0  0  0  0  0  0  0  0  0  0
   -3.3212    1.5376    3.7170 H   0  0  0  0  0  0  0  0  0  0  0  0
   -3.1740    0.9216    1.5274 H   0  0  0  0  0  0  0  0  0  0  0  0
   -0.7238    2.7253    1.2754 H   0  0  0  0  0  0  0  0  0  0  0  0
   -1.8187    2.1926   -0.0161 H   0  0  0  0  0  0  0  0  0  0  0  0
   -2.4021    3.3037    1.2332 H   0  0  0  0  0  0  0  0  0  0  0  0
   -0.7863   -0.3301    0.5000 N   0  0  0  0  0  0  0  0  0  0  0  0
    0.4460   -1.0707    0.1232 C   0  0  2  0  0  0  0  0  0  0  0  0
    0.1516   -2.1528   -0.9313 C   0  0  0  0  0  0  0  0  0  0  0  0
    1.0823   -2.5694   -1.6060 O   0  0  0  0  0  0  0  0  0  0  0  0
    1.4002   -1.5914    1.2268 C   0  0  0  0  0  0  0  0  0  0  0  0
    2.0123   -0.4492    2.0054 C   0  0  0  0  0  0  0  0  0  0  0  0
    3.0289    0.3899    1.5458 N   0  3  0  0  0  0  0  0  0  0  0  0
    1.7126   -0.0550    3.2823 C   0  0  0  0  0  0  0  0  0  0  0  0
    3.2862    1.3214    2.4324 C   0  0  0  0  0  0  0  0  0  0  0  0
    2.4780    1.0711    3.5368 N   0  0  0  0  0  0  0  0  0  0  0  0
   -1.1748    0.2381   -0.2618 H   0  0  0  0  0  0  0  0  0  0  0  0
    1.0382   -0.3351   -0.4295 H   0  0  0  0  0  0  0  0  0  0  0  0
    2.2033   -2.1870    0.7784 H   0  0  0  0  0  0  0  0  0  0  0  0
    0.8481   -2.2568    1.8994 H   0  0  0  0  0  0  0  0  0  0  0  0
    3.4405    0.3035    0.6134 H   0  0  0  0  0  0  0  0  0  0  0  0
    0.9547   -0.4917    3.9331 H   0  0  0  0  0  0  0  0  0  0  0  0
    3.9870    2.1501    2.3228 H   0  0  0  0  0  0  0  0  0  0  0  0
    2.3230    1.7080    4.3243 H   0  0  0  0  0  0  0  0  0  0  0  0
   -1.1468   -2.3038   -1.3765 N   0  0  0  0  0  0  0  0  0  0  0  0
   -1.4570   -2.1244   -2.7999 C   0  0  2  0  0  0  0  0  0  0  0  0
   -1.6704   -0.6261   -3.1265 C   0  0  0  0  0  0  0  0  0  0  0  0
   -1.7500    0.2011   -2.2165 O   0  0  0  0  0  0  0  0  0  0  0  0
   -2.7164   -2.9370   -3.1095 C   0  0  0  0  0  0  0  0  0  0  0  0
   -1.8120   -1.8582   -0.7480 H   0  0  0  0  0  0  0  0  0  0  0  0
   -0.6382   -2.5002   -3.4238 H   0  0  0  0  0  0  0  0  0  0  0  0
   -3.5652   -2.5720   -2.5224 H   0  0  0  0  0  0  0  0  0  0  0  0
   -2.9715   -2.8625   -4.1710 H   0  0  0  0  0  0  0  0  0  0  0  0
   -2.5545   -3.9925   -2.8681 H   0  0  0  0  0  0  0  0  0  0  0  0
   -1.7572   -0.1973   -4.4367 N   0  0  0  0  0  0  0  0  0  0  0  0
   -1.9618    1.1960   -4.8169 C   0  0  0  0  0  0  0  0  0  0  0  0
   -1.6780   -0.8975   -5.1700 H   0  0  0  0  0  0  0  0  0  0  0  0
   -2.9125    1.5671   -4.4194 H   0  0  0  0  0  0  0  0  0  0  0  0
   -1.1496    1.8218   -4.4321 H   0  0  0  0  0  0  0  0  0  0  0  0
   -1.9836    1.2924   -5.9072 H   0  0  0  0  0  0  0  0  0  0  0  0
  1  2  2  0  0  0  0
  1  3  1  0  0  0  0
  1  7  1  0  0  0  0
  3  4  1  0  0  0  0
  3  5  1  0  0  0  0
  3  6  1  0  0  0  0
  7  8  1  0  0  0  0
  7 12  1  0  0  0  0
  8  9  1  0  0  0  0
  8 11  1  0  0  0  0
  8 13  1  0  0  0  0
  9 10  2  0  0  0  0
  9 17  1  0  0  0  0
 11 14  1  0  0  0  0
 11 15  1  0  0  0  0
 11 16  1  0  0  0  0
 17 18  1  0  0  0  0
 17 27  1  0  0  0  0
 18 19  1  0  0  0  0
 18 21  1  0  0  0  0
 18 28  1  0  0  0  0
 19 20  2  0  0  0  0
 19 35  1  0  0  0  0
 21 22  1  0  0  0  0
 21 29  1  0  0  0  0
 21 30  1  0  0  0  0
 22 23  1  0  0  0  0
 22 24  2  0  0  0  0
 23 25  2  0  0  0  0
 23 31  1  0  0  0  0
 24 26  1  0  0  0  0
 24 32  1  0  0  0  0
 25 26  1  0  0  0  0
 25 33  1  0  0  0  0
 26 34  1  0  0  0  0
 35 36  1  0  0  0  0
 35 40  1  0  0  0  0
 36 37  1  0  0  0  0
 36 39  1  0  0  0  0
 36 41  1  0  0  0  0
 37 38  2  0  0  0  0
 37 45  1  0  0  0  0
 39 42  1  0  0  0  0
 39 43  1  0  0  0  0
 39 44  1  0  0  0  0
 45 46  1  0  0  0  0
 45 47  1  0  0  0  0
 46 48  1  0  0  0  0
 46 49  1  0  0  0  0
 46 50  1  0  0  0  0
M  CHG  1  23   1
M  END
$$$$

  -OEChem-05262216443D

 50 50  0     1  0  0  0  0  0999 V2000
   -1.2449    2.2824    4.1234 C   0  0  0  0  0  0  0  0  0  0  0  0
   -0.0781    2.2815    3.7511 O   0  0  0  0  0  0  0  0  0  0  0  0
   -1.5684    2.6838    5.5499 C   0  0  0  0  0  0  0  0  0  0  0  0
   -2.0027    1.8366    6.0867 H   0  0  0  0  0  0  0  0  0  0  0  0
   -0.6616    3.0030    6.0706 H   0  0  0  0  0  0  0  0  0  0  0  0
   -2.2819    3.5117    5.5525 H   0  0  0  0  0  0  0  0  0  0  0  0
   -2.2768    1.9041    3.2841 N   0  0  0  0  0  0  0  0  0  0  0  0
   -2.1389    1.4130    1.8985 C   0  0  2  0  0  0  0  0  0  0  0  0
   -1.3399    0.0910    1.7571 C   0  0  0  0  0  0  0  0  0  0  0  0
   -1.2211   -0.6666    2.7111 O   0  0  0  0  0  0  0  0  0  0  0  0
   -1.5701    2.5283    1.0055 C   0  0  0  0  0  0  0  0  0  0  0  0
   -3.1969    1.8480    3.7136 H   0  0  0  0  0  0  0  0  0  0  0  0
   -3.1467    1.1921    1.5329 H   0  0  0  0  0  0  0  0  0  0  0  0
   -0.5109    2.7001    1.2184 H   0  0  0  0  0  0  0  0  0  0  0  0
   -1.6706    2.2652   -0.0521 H   0  0  0  0  0  0  0  0  0  0  0  0
   -2.1138    3.4631    1.1743 H   0  0  0  0  0  0  0  0  0  0  0  0
   -0.9485   -0.3513    0.5035 N   0  0  0  0  0  0  0  0  0  0  0  0
    0.1977   -1.2180    0.1226 C   0  0  2  0  0  0  0  0  0  0  0  0
   -0.2258   -2.3062   -0.8834 C   0  0  0  0  0  0  0  0  0  0  0  0
    0.6546   -2.9603   -1.4240 O   0  0  0  0  0  0  0  0  0  0  0  0
    1.1243   -1.7877    1.2289 C   0  0  0  0  0  0  0  0  0  0  0  0
    1.8625   -0.6885    1.9573 C   0  0  0  0  0  0  0  0  0  0  0  0
    2.9466    0.0318    1.4529 N   0  3  0  0  0  0  0  0  0  0  0  0
    1.6350   -0.2353    3.2293 C   0  0  0  0  0  0  0  0  0  0  0  0
    3.3224    0.9497    2.3109 C   0  0  0  0  0  0  0  0  0  0  0  0
    2.5187    0.8109    3.4383 N   0  0  0  0  0  0  0  0  0  0  0  0
   -1.2474    0.2733   -0.2536 H   0  0  0  0  0  0  0  0  0  0  0  0
    0.8428   -0.5632   -0.4715 H   0  0  0  0  0  0  0  0  0  0  0  0
    1.8589   -2.4736    0.7925 H   0  0  0  0  0  0  0  0  0  0  0  0
    0.5260   -2.3740    1.9344 H   0  0  0  0  0  0  0  0  0  0  0  0
    3.3274   -0.1225    0.5163 H   0  0  0  0  0  0  0  0  0  0  0  0
    0.8535   -0.5782    3.9078 H   0  0  0  0  0  0  0  0  0  0  0  0
    4.1056    1.6950    2.1667 H   0  0  0  0  0  0  0  0  0  0  0  0
    2.4519    1.4765    4.2144 H   0  0  0  0  0  0  0  0  0  0  0  0
   -1.4424   -2.1617   -1.5203 N   0  0  0  0  0  0  0  0  0  0  0  0
   -1.4928   -1.9052   -2.9644 C   0  0  2  0  0  0  0  0  0  0  0  0
   -1.4190   -0.3846   -3.2431 C   0  0  0  0  0  0  0  0  0  0  0  0
   -1.4699    0.4168   -2.3081 O   0  0  0  0  0  0  0  0  0  0  0  0
   -2.7962   -2.5037   -3.4988 C   0  0  0  0  0  0  0  0  0  0  0  0
   -2.0764   -1.5759   -0.9815 H   0  0  0  0  0  0  0  0  0  0  0  0
   -0.6531   -2.3894   -3.4752 H   0  0  0  0  0  0  0  0  0  0  0  0
   -3.6617   -2.0302   -3.0242 H   0  0  0  0  0  0  0  0  0  0  0  0
   -2.8714   -2.3602   -4.5811 H   0  0  0  0  0  0  0  0  0  0  0  0
   -2.8308   -3.5782   -3.2912 H   0  0  0  0  0  0  0  0  0  0  0  0
   -1.2715    0.0894   -4.5322 N   0  0  0  0  0  0  0  0  0  0  0  0
   -1.2150    1.5079   -4.8682 C   0  0  0  0  0  0  0  0  0  0  0  0
   -1.2337   -0.5932   -5.2854 H   0  0  0  0  0  0  0  0  0  0  0  0
   -2.1385    2.0121   -4.5644 H   0  0  0  0  0  0  0  0  0  0  0  0
   -0.3688    1.9894   -4.3667 H   0  0  0  0  0  0  0  0  0  0  0  0
   -1.0924    1.6358   -5.9483 H   0  0  0  0  0  0  0  0  0  0  0  0
  1  2  2  0  0  0  0
  1  3  1  0  0  0  0
  1  7  1  0  0  0  0
  3  4  1  0  0  0  0
  3  5  1  0  0  0  0
  3  6  1  0  0  0  0
  7  8  1  0  0  0  0
  7 12  1  0  0  0  0
  8  9  1  0  0  0  0
  8 11  1  0  0  0  0
  8 13  1  0  0  0  0
  9 10  2  0  0  0  0
  9 17  1  0  0  0  0
 11 14  1  0  0  0  0
 11 15  1  0  0  0  0
 11 16  1  0  0  0  0
 17 18  1  0  0  0  0
 17 27  1  0  0  0  0
 18 19  1  0  0  0  0
 18 21  1  0  0  0  0
 18 28  1  0  0  0  0
 19 20  2  0  0  0  0
 19 35  1  0  0  0  0
 21 22  1  0  0  0  0
 21 29  1  0  0  0  0
 21 30  1  0  0  0  0
 22 23  1  0  0  0  0
 22 24  2  0  0  0  0
 23 25  2  0  0  0  0
 23 31  1  0  0  0  0
 24 26  1  0  0  0  0
 24 32  1  0  0  0  0
 25 26  1  0  0  0  0
 25 33  1  0  0  0  0
 26 34  1  0  0  0  0
 35 36  1  0  0  0  0
 35 40  1  0  0  0  0
 36 37  1  0  0  0  0
 36 39  1  0  0  0  0
 36 41  1  0  0  0  0
 37 38  2  0  0  0  0
 37 45  1  0  0  0  0
 39 42  1  0  0  0  0
 39 43  1  0  0  0  0
 39 44  1  0  0  0  0
 45 46  1  0  0  0  0
 45 47  1  0  0  0  0
 46 48  1  0  0  0  0
 46 49  1  0  0  0  0
 46 50  1  0  0  0  0
M  CHG  1  23   1
M  END
$$$$

  -OEChem-05262216443D

 50 50  0     1  0  0  0  0  0999 V2000
   -1.1331    2.0834    4.5653 C   0  0  0  0  0  0  0  0  0  0  0  0
   -0.0009    2.1517    4.1041 O   0  0  0  0  0  0  0  0  0  0  0  0
   -1.3386    2.2672    6.0568 C   0  0  0  0  0  0  0  0  0  0  0  0
   -1.7093    1.3395    6.5001 H   0  0  0  0  0  0  0  0  0  0  0  0
   -0.3956    2.5367    6.5402 H   0  0  0  0  0  0  0  0  0  0  0  0
   -2.0639    3.0641    6.2385 H   0  0  0  0  0  0  0  0  0  0  0  0
   -2.2289    1.8185    3.7643 N   0  0  0  0  0  0  0  0  0  0  0  0
   -2.2011    1.5160    2.3192 C   0  0  2  0  0  0  0  0  0  0  0  0
   -1.4469    0.2122    1.9461 C   0  0  0  0  0  0  0  0  0  0  0  0
   -1.2701   -0.6556    2.7903 O   0  0  0  0  0  0  0  0  0  0  0  0
   -1.6740    2.7334    1.5410 C   0  0  0  0  0  0  0  0  0  0  0  0
   -3.1078    1.6772    4.2564 H   0  0  0  0  0  0  0  0  0  0  0  0
   -3.2382    1.3587    2.0056 H   0  0  0  0  0  0  0  0  0  0  0  0
   -0.5973    2.8589    1.6897 H   0  0  0  0  0  0  0  0  0  0  0  0
   -1.8620    2.6199    0.4693 H   0  0  0  0  0  0  0  0  0  0  0  0
   -2.1787    3.6446    1.8778 H   0  0  0  0  0  0  0  0  0  0  0  0
   -1.1725   -0.0764    0.6160 N   0  0  0  0  0  0  0  0  0  0  0  0
   -0.0720   -0.9090    0.0566 C   0  0  2  0  0  0  0  0  0  0  0  0
   -0.5795   -1.8778   -1.0355 C   0  0  0  0  0  0  0  0  0  0  0  0
    0.1611   -2.7593   -1.4497 O   0  0  0  0  0  0  0  0  0  0  0  0
    0.9349   -1.5887    1.0271 C   0  0  0  0  0  0  0  0  0  0  0  0
    1.7440   -0.5712    1.7973 C   0  0  0  0  0  0  0  0  0  0  0  0
    2.7956    0.1923    1.2869 N   0  3  0  0  0  0  0  0  0  0  0  0
    1.6274   -0.2593    3.1250 C   0  0  0  0  0  0  0  0  0  0  0  0
    3.2539    1.0079    2.2064 C   0  0  0  0  0  0  0  0  0  0  0  0
    2.5402    0.7527    3.3733 N   0  0  0  0  0  0  0  0  0  0  0  0
   -1.4675    0.6755   -0.0040 H   0  0  0  0  0  0  0  0  0  0  0  0
    0.5368   -0.2001   -0.5138 H   0  0  0  0  0  0  0  0  0  0  0  0
    1.6317   -2.2267    0.4727 H   0  0  0  0  0  0  0  0  0  0  0  0
    0.3897   -2.2455    1.7131 H   0  0  0  0  0  0  0  0  0  0  0  0
    3.0992    0.1375    0.3114 H   0  0  0  0  0  0  0  0  0  0  0  0
    0.9012   -0.6741    3.8246 H   0  0  0  0  0  0  0  0  0  0  0  0
    4.0364    1.7576    2.0816 H   0  0  0  0  0  0  0  0  0  0  0  0
    2.5479    1.3275    4.2216 H   0  0  0  0  0  0  0  0  0  0  0  0
   -1.6704   -1.5103   -1.8009 N   0  0  0  0  0  0  0  0  0  0  0  0
   -1.6374   -1.6367   -3.2642 C   0  0  2  0  0  0  0  0  0  0  0  0
   -0.8841   -0.4430   -3.8956 C   0  0  0  0  0  0  0  0  0  0  0  0
   -0.6222    0.5454   -3.2117 O   0  0  0  0  0  0  0  0  0  0  0  0
   -3.0832   -1.6963   -3.7635 C   0  0  0  0  0  0  0  0  0  0  0  0
   -2.1488   -0.6867   -1.4521 H   0  0  0  0  0  0  0  0  0  0  0  0
   -1.1305   -2.5623   -3.5590 H   0  0  0  0  0  0  0  0  0  0  0  0
   -3.6185   -0.7758   -3.5091 H   0  0  0  0  0  0  0  0  0  0  0  0
   -3.1088   -1.8233   -4.8502 H   0  0  0  0  0  0  0  0  0  0  0  0
   -3.6071   -2.5421   -3.3064 H   0  0  0  0  0  0  0  0  0  0  0  0
   -0.4958   -0.4728   -5.2213 N   0  0  0  0  0  0  0  0  0  0  0  0
    0.2236    0.6170   -5.8715 C   0  0  0  0  0  0  0  0  0  0  0  0
   -0.7006   -1.3128   -5.7563 H   0  0  0  0  0  0  0  0  0  0  0  0
   -0.3633    1.5410   -5.8354 H   0  0  0  0  0  0  0  0  0  0  0  0
    1.1848    0.7907   -5.3765 H   0  0  0  0  0  0  0  0  0  0  0  0
    0.4154    0.3724   -6.9210 H   0  0  0  0  0  0  0  0  0  0  0  0
  1  2  2  0  0  0  0
  1  3  1  0  0  0  0
  1  7  1  0  0  0  0
  3  4  1  0  0  0  0
  3  5  1  0  0  0  0
  3  6  1  0  0  0  0
  7  8  1  0  0  0  0
  7 12  1  0  0  0  0
  8  9  1  0  0  0  0
  8 11  1  0  0  0  0
  8 13  1  0  0  0  0
  9 10  2  0  0  0  0
  9 17  1  0  0  0  0
 11 14  1  0  0  0  0
 11 15  1  0  0  0  0
 11 16  1  0  0  0  0
 17 18  1  0  0  0  0
 17 27  1  0  0  0  0
 18 19  1  0  0  0  0
 18 21  1  0  0  0  0
 18 28  1  0  0  0  0
 19 20  2  0  0  0  0
 19 35  1  0  0  0  0
 21 22  1  0  0  0  0
 21 29  1  0  0  0  0
 21 30  1  0  0  0  0
 22 23  1  0  0  0  0
 22 24  2  0  0  0  0
 23 25  2  0  0  0  0
 23 31  1  0  0  0  0
 24 26  1  0  0  0  0
 24 32  1  0  0  0  0
 25 26  1  0  0  0  0
 25 33  1  0  0  0  0
 26 34  1  0  0  0  0
 35 36  1  0  0  0  0
 35 40  1  0  0  0  0
 36 37  1  0  0  0  0
 36 39  1  0  0  0  0
 36 41  1  0  0  0  0
 37 38  2  0  0  0  0
 37 45  1  0  0  0  0
 39 42  1  0  0  0  0
 39 43  1  0  0  0  0
 39 44  1  0  0  0  0
 45 46  1  0  0  0  0
 45 47  1  0  0  0  0
 46 48  1  0  0  0  0
 46 49  1  0  0  0  0
 46 50  1  0  0  0  0
M  CHG  1  23   1
M  END
$$$$

  -OEChem-05262216443D

 50 50  0     1  0  0  0  0  0999 V2000
   -1.0902    1.9075    4.7824 C   0  0  0  0  0  0  0  0  0  0  0  0
    0.0318    2.0050    4.3014 O   0  0  0  0  0  0  0  0  0  0  0  0
   -1.2567    1.9194    6.2900 C   0  0  0  0  0  0  0  0  0  0  0  0
   -1.6380    0.9533    6.6304 H   0  0  0  0  0  0  0  0  0  0  0  0
   -0.2969    2.1110    6.7778 H   0  0  0  0  0  0  0  0  0  0  0  0
   -1.9600    2.7032    6.5830 H   0  0  0  0  0  0  0  0  0  0  0  0
   -2.2114    1.7547    3.9873 N   0  0  0  0  0  0  0  0  0  0  0  0
   -2.2258    1.6005    2.5191 C   0  0  2  0  0  0  0  0  0  0  0  0
   -1.5133    0.3243    1.9979 C   0  0  0  0  0  0  0  0  0  0  0  0
   -1.3301   -0.6224    2.7507 O   0  0  0  0  0  0  0  0  0  0  0  0
   -1.6851    2.8778    1.8543 C   0  0  0  0  0  0  0  0  0  0  0  0
   -3.0779    1.5667    4.4857 H   0  0  0  0  0  0  0  0  0  0  0  0
   -3.2739    1.5001    2.2197 H   0  0  0  0  0  0  0  0  0  0  0  0
   -0.6012    2.9577    1.9799 H   0  0  0  0  0  0  0  0  0  0  0  0
   -1.9086    2.8815    0.7835 H   0  0  0  0  0  0  0  0  0  0  0  0
   -2.1513    3.7622    2.3000 H   0  0  0  0  0  0  0  0  0  0  0  0
   -1.2687    0.1680    0.6395 N   0  0  0  0  0  0  0  0  0  0  0  0
   -0.2100   -0.6431   -0.0230 C   0  0  2  0  0  0  0  0  0  0  0  0
   -0.7729   -1.4702   -1.2020 C   0  0  0  0  0  0  0  0  0  0  0  0
   -0.2925   -2.5608   -1.4797 O   0  0  0  0  0  0  0  0  0  0  0  0
    0.7960   -1.4448    0.8510 C   0  0  0  0  0  0  0  0  0  0  0  0
    1.6573   -0.5300    1.6919 C   0  0  0  0  0  0  0  0  0  0  0  0
    2.7217    0.2457    1.2271 N   0  3  0  0  0  0  0  0  0  0  0  0
    1.5801   -0.3363    3.0450 C   0  0  0  0  0  0  0  0  0  0  0  0
    3.2251    0.9607    2.2049 C   0  0  0  0  0  0  0  0  0  0  0  0
    2.5297    0.6214    3.3614 N   0  0  0  0  0  0  0  0  0  0  0  0
   -1.5961    0.9622    0.0967 H   0  0  0  0  0  0  0  0  0  0  0  0
    0.4176    0.0961   -0.5305 H   0  0  0  0  0  0  0  0  0  0  0  0
    1.4573   -2.0450    0.2163 H   0  0  0  0  0  0  0  0  0  0  0  0
    0.2464   -2.1500    1.4837 H   0  0  0  0  0  0  0  0  0  0  0  0
    3.0038    0.2700    0.2438 H   0  0  0  0  0  0  0  0  0  0  0  0
    0.8564   -0.7903    3.7225 H   0  0  0  0  0  0  0  0  0  0  0  0
    4.0280    1.6949    2.1288 H   0  0  0  0  0  0  0  0  0  0  0  0
    2.5768    1.1133    4.2591 H   0  0  0  0  0  0  0  0  0  0  0  0
   -1.6350   -0.8700   -2.1030 N   0  0  0  0  0  0  0  0  0  0  0  0
   -1.5974   -1.2335   -3.5267 C   0  0  2  0  0  0  0  0  0  0  0  0
   -0.4047   -0.5528   -4.2377 C   0  0  0  0  0  0  0  0  0  0  0  0
    0.1659    0.3963   -3.7035 O   0  0  0  0  0  0  0  0  0  0  0  0
   -2.9248   -0.8068   -4.1582 C   0  0  0  0  0  0  0  0  0  0  0  0
   -1.8245    0.1076   -1.9129 H   0  0  0  0  0  0  0  0  0  0  0  0
   -1.4944   -2.3184   -3.6410 H   0  0  0  0  0  0  0  0  0  0  0  0
   -3.0564    0.2776   -4.0849 H   0  0  0  0  0  0  0  0  0  0  0  0
   -2.9542   -1.0883   -5.2155 H   0  0  0  0  0  0  0  0  0  0  0  0
   -3.7618   -1.2957   -3.6491 H   0  0  0  0  0  0  0  0  0  0  0  0
    0.0317   -1.0029   -5.4691 N   0  0  0  0  0  0  0  0  0  0  0  0
    1.1686   -0.4260   -6.1776 C   0  0  0  0  0  0  0  0  0  0  0  0
   -0.4253   -1.8218   -5.8616 H   0  0  0  0  0  0  0  0  0  0  0  0
    0.9970    0.6368   -6.3786 H   0  0  0  0  0  0  0  0  0  0  0  0
    2.0831   -0.5292   -5.5841 H   0  0  0  0  0  0  0  0  0  0  0  0
    1.3183   -0.9369   -7.1339 H   0  0  0  0  0  0  0  0  0  0  0  0
  1  2  2  0  0  0  0
  1  3  1  0  0  0  0
  1  7  1  0  0  0  0
  3  4  1  0  0  0  0
  3  5  1  0  0  0  0
  3  6  1  0  0  0  0
  7  8  1  0  0  0  0
  7 12  1  0  0  0  0
  8  9  1  0  0  0  0
  8 11  1  0  0  0  0
  8 13  1  0  0  0  0
  9 10  2  0  0  0  0
  9 17  1  0  0  0  0
 11 14  1  0  0  0  0
 11 15  1  0  0  0  0
 11 16  1  0  0  0  0
 17 18  1  0  0  0  0
 17 27  1  0  0  0  0
 18 19  1  0  0  0  0
 18 21  1  0  0  0  0
 18 28  1  0  0  0  0
 19 20  2  0  0  0  0
 19 35  1  0  0  0  0
 21 22  1  0  0  0  0
 21 29  1  0  0  0  0
 21 30  1  0  0  0  0
 22 23  1  0  0  0  0
 22 24  2  0  0  0  0
 23 25  2  0  0  0  0
 23 31  1  0  0  0  0
 24 26  1  0  0  0  0
 24 32  1  0  0  0  0
 25 26  1  0  0  0  0
 25 33  1  0  0  0  0
 26 34  1  0  0  0  0
 35 36  1  0  0  0  0
 35 40  1  0  0  0  0
 36 37  1  0  0  0  0
 36 39  1  0  0  0  0
 36 41  1  0  0  0  0
 37 38  2  0  0  0  0
 37 45  1  0  0  0  0
 39 42  1  0  0  0  0
 39 43  1  0  0  0  0
 39 44  1  0  0  0  0
 45 46  1  0  0  0  0
 45 47  1  0  0  0  0
 46 48  1  0  0  0  0
 46 49  1  0  0  0  0
 46 50  1  0  0  0  0
M  CHG  1  23   1
M  END
$$$$

  -OEChem-05262216443D

 50 50  0     1  0  0  0  0  0999 V2000
   -1.0305    1.8442    4.7977 C   0  0  0  0  0  0  0  0  0  0  0  0
    0.0696    1.9275    4.2662 O   0  0  0  0  0  0  0  0  0  0  0  0
   -1.1237    1.8306    6.3114 C   0  0  0  0  0  0  0  0  0  0  0  0
   -1.4775    0.8551    6.6550 H   0  0  0  0  0  0  0  0  0  0  0  0
   -0.1432    2.0265    6.7541 H   0  0  0  0  0  0  0  0  0  0  0  0
   -1.8202    2.6019    6.6498 H   0  0  0  0  0  0  0  0  0  0  0  0
   -2.1901    1.7360    4.0518 N   0  0  0  0  0  0  0  0  0  0  0  0
   -2.2706    1.6260    2.5820 C   0  0  2  0  0  0  0  0  0  0  0  0
   -1.5862    0.3630    1.9958 C   0  0  0  0  0  0  0  0  0  0  0  0
   -1.3972   -0.6116    2.7104 O   0  0  0  0  0  0  0  0  0  0  0  0
   -1.7522    2.9233    1.9386 C   0  0  0  0  0  0  0  0  0  0  0  0
   -3.0384    1.5539    4.5826 H   0  0  0  0  0  0  0  0  0  0  0  0
   -3.3307    1.5376    2.3232 H   0  0  0  0  0  0  0  0  0  0  0  0
   -0.6640    2.9980    2.0259 H   0  0  0  0  0  0  0  0  0  0  0  0
   -2.0165    2.9620    0.8780 H   0  0  0  0  0  0  0  0  0  0  0  0
   -2.1989    3.7935    2.4305 H   0  0  0  0  0  0  0  0  0  0  0  0
   -1.3681    0.2570    0.6283 N   0  0  0  0  0  0  0  0  0  0  0  0
   -0.3548   -0.5639   -0.0883 C   0  0  2  0  0  0  0  0  0  0  0  0
   -0.9655   -1.3130   -1.2917 C   0  0  0  0  0  0  0  0  0  0  0  0
   -0.7271   -2.4986   -1.4776 O   0  0  0  0  0  0  0  0  0  0  0  0
    0.6416   -1.4391    0.7206 C   0  0  0  0  0  0  0  0  0  0  0  0
    1.5567   -0.5927    1.5752 C   0  0  0  0  0  0  0  0  0  0  0  0
    2.6340    0.1619    1.1067 N   0  3  0  0  0  0  0  0  0  0  0  0
    1.5246   -0.4490    2.9363 C   0  0  0  0  0  0  0  0  0  0  0  0
    3.1932    0.8177    2.0952 C   0  0  0  0  0  0  0  0  0  0  0  0
    2.5197    0.4590    3.2592 N   0  0  0  0  0  0  0  0  0  0  0  0
   -1.7201    1.0577    0.1115 H   0  0  0  0  0  0  0  0  0  0  0  0
    0.2934    0.1745   -0.5703 H   0  0  0  0  0  0  0  0  0  0  0  0
    1.2590   -2.0351    0.0395 H   0  0  0  0  0  0  0  0  0  0  0  0
    0.0821   -2.1494    1.3389 H   0  0  0  0  0  0  0  0  0  0  0  0
    2.8857    0.2152    0.1160 H   0  0  0  0  0  0  0  0  0  0  0  0
    0.8028   -0.9022    3.6164 H   0  0  0  0  0  0  0  0  0  0  0  0
    4.0213    1.5237    2.0221 H   0  0  0  0  0  0  0  0  0  0  0  0
    2.6181    0.9080    4.1747 H   0  0  0  0  0  0  0  0  0  0  0  0
   -1.5479   -0.5743   -2.3066 N   0  0  0  0  0  0  0  0  0  0  0  0
   -1.3783   -0.9938   -3.7051 C   0  0  2  0  0  0  0  0  0  0  0  0
    0.0465   -0.6686   -4.2142 C   0  0  0  0  0  0  0  0  0  0  0  0
    0.7694    0.0942   -3.5744 O   0  0  0  0  0  0  0  0  0  0  0  0
   -2.4341   -0.2678   -4.5432 C   0  0  0  0  0  0  0  0  0  0  0  0
   -1.5224    0.4283   -2.1561 H   0  0  0  0  0  0  0  0  0  0  0  0
   -1.5415   -2.0735   -3.8003 H   0  0  0  0  0  0  0  0  0  0  0  0
   -2.2909    0.8162   -4.4890 H   0  0  0  0  0  0  0  0  0  0  0  0
   -2.3689   -0.5735   -5.5920 H   0  0  0  0  0  0  0  0  0  0  0  0
   -3.4382   -0.5065   -4.1781 H   0  0  0  0  0  0  0  0  0  0  0  0
    0.5170   -1.2262   -5.3875 N   0  0  0  0  0  0  0  0  0  0  0  0
    1.8521   -0.9774   -5.9188 C   0  0  0  0  0  0  0  0  0  0  0  0
   -0.0866   -1.8851   -5.8723 H   0  0  0  0  0  0  0  0  0  0  0  0
    1.9855    0.0871   -6.1387 H   0  0  0  0  0  0  0  0  0  0  0  0
    2.6169   -1.2878   -5.1991 H   0  0  0  0  0  0  0  0  0  0  0  0
    2.0020   -1.5416   -6.8447 H   0  0  0  0  0  0  0  0  0  0  0  0
  1  2  2  0  0  0  0
  1  3  1  0  0  0  0
  1  7  1  0  0  0  0
  3  4  1  0  0  0  0
  3  5  1  0  0  0  0
  3  6  1  0  0  0  0
  7  8  1  0  0  0  0
  7 12  1  0  0  0  0
  8  9  1  0  0  0  0
  8 11  1  0  0  0  0
  8 13  1  0  0  0  0
  9 10  2  0  0  0  0
  9 17  1  0  0  0  0
 11 14  1  0  0  0  0
 11 15  1  0  0  0  0
 11 16  1  0  0  0  0
 17 18  1  0  0  0  0
 17 27  1  0  0  0  0
 18 19  1  0  0  0  0
 18 21  1  0  0  0  0
 18 28  1  0  0  0  0
 19 20  2  0  0  0  0
 19 35  1  0  0  0  0
 21 22  1  0  0  0  0
 21 29  1  0  0  0  0
 21 30  1  0  0  0  0
 22 23  1  0  0  0  0
 22 24  2  0  0  0  0
 23 25  2  0  0  0  0
 23 31  1  0  0  0  0
 24 26  1  0  0  0  0
 24 32  1  0  0  0  0
 25 26  1  0  0  0  0
 25 33  1  0  0  0  0
 26 34  1  0  0  0  0
 35 36  1  0  0  0  0
 35 40  1  0  0  0  0
 36 37  1  0  0  0  0
 36 39  1  0  0  0  0
 36 41  1  0  0  0  0
 37 38  2  0  0  0  0
 37 45  1  0  0  0  0
 39 42  1  0  0  0  0
 39 43  1  0  0  0  0
 39 44  1  0  0  0  0
 45 46  1  0  0  0  0
 45 47  1  0  0  0  0
 46 48  1  0  0  0  0
 46 49  1  0  0  0  0
 46 50  1  0  0  0  0
M  CHG  1  23   1
M  END
$$$$

  -OEChem-05262216443D

 50 50  0     1  0  0  0  0  0999 V2000
   -0.8985    1.8124    4.7687 C   0  0  0  0  0  0  0  0  0  0  0  0
    0.1713    1.8398    4.1730 O   0  0  0  0  0  0  0  0  0  0  0  0
   -0.9042    1.7679    6.2848 C   0  0  0  0  0  0  0  0  0  0  0  0
   -1.3932    0.8535    6.6299 H   0  0  0  0  0  0  0  0  0  0  0  0
    0.1188    1.7863    6.6702 H   0  0  0  0  0  0  0  0  0  0  0  0
   -1.4432    2.6320    6.6814 H   0  0  0  0  0  0  0  0  0  0  0  0
   -2.1052    1.7957    4.0931 N   0  0  0  0  0  0  0  0  0  0  0  0
   -2.2786    1.7257    2.6287 C   0  0  2  0  0  0  0  0  0  0  0  0
   -1.6861    0.4501    1.9730 C   0  0  0  0  0  0  0  0  0  0  0  0
   -1.5236   -0.5573    2.6477 O   0  0  0  0  0  0  0  0  0  0  0  0
   -1.7433    3.0166    1.9870 C   0  0  0  0  0  0  0  0  0  0  0  0
   -2.9310    1.6587    4.6707 H   0  0  0  0  0  0  0  0  0  0  0  0
   -3.3547    1.6880    2.4319 H   0  0  0  0  0  0  0  0  0  0  0  0
   -0.6499    3.0469    2.0184 H   0  0  0  0  0  0  0  0  0  0  0  0
   -2.0619    3.0904    0.9433 H   0  0  0  0  0  0  0  0  0  0  0  0
   -2.1287    3.8915    2.5203 H   0  0  0  0  0  0  0  0  0  0  0  0
   -1.5084    0.3895    0.5965 N   0  0  0  0  0  0  0  0  0  0  0  0
   -0.5929   -0.4852   -0.1821 C   0  0  2  0  0  0  0  0  0  0  0  0
   -1.2723   -1.1281   -1.4071 C   0  0  0  0  0  0  0  0  0  0  0  0
   -1.3018   -2.3441   -1.5380 O   0  0  0  0  0  0  0  0  0  0  0  0
    0.3595   -1.4700    0.5453 C   0  0  0  0  0  0  0  0  0  0  0  0
    1.3731   -0.7306    1.3846 C   0  0  0  0  0  0  0  0  0  0  0  0
    2.4802   -0.0500    0.8761 N   0  3  0  0  0  0  0  0  0  0  0  0
    1.4134   -0.6149    2.7479 C   0  0  0  0  0  0  0  0  0  0  0  0
    3.1346    0.5390    1.8481 C   0  0  0  0  0  0  0  0  0  0  0  0
    2.4910    0.2069    3.0375 N   0  0  0  0  0  0  0  0  0  0  0  0
   -1.8305    1.2245    0.1153 H   0  0  0  0  0  0  0  0  0  0  0  0
    0.1034    0.2238   -0.6405 H   0  0  0  0  0  0  0  0  0  0  0  0
    0.8947   -2.0842   -0.1874 H   0  0  0  0  0  0  0  0  0  0  0  0
   -0.2288   -2.1576    1.1626 H   0  0  0  0  0  0  0  0  0  0  0  0
    2.6839    0.0052   -0.1266 H   0  0  0  0  0  0  0  0  0  0  0  0
    0.6880   -1.0240    3.4522 H   0  0  0  0  0  0  0  0  0  0  0  0
    4.0097    1.1817    1.7472 H   0  0  0  0  0  0  0  0  0  0  0  0
    2.6686    0.6255    3.9553 H   0  0  0  0  0  0  0  0  0  0  0  0
   -1.5073   -0.3254   -2.5095 N   0  0  0  0  0  0  0  0  0  0  0  0
   -1.1096   -0.8182   -3.8360 C   0  0  2  0  0  0  0  0  0  0  0  0
    0.4321   -0.8172   -3.9957 C   0  0  0  0  0  0  0  0  0  0  0  0
    1.1443   -0.2430   -3.1699 O   0  0  0  0  0  0  0  0  0  0  0  0
   -1.7691    0.0787   -4.8867 C   0  0  0  0  0  0  0  0  0  0  0  0
   -1.3120    0.6574   -2.3496 H   0  0  0  0  0  0  0  0  0  0  0  0
   -1.4702   -1.8429   -3.9819 H   0  0  0  0  0  0  0  0  0  0  0  0
   -1.4153    1.1103   -4.7920 H   0  0  0  0  0  0  0  0  0  0  0  0
   -1.5364   -0.2760   -5.8956 H   0  0  0  0  0  0  0  0  0  0  0  0
   -2.8569    0.0697   -4.7629 H   0  0  0  0  0  0  0  0  0  0  0  0
    1.0237   -1.4667   -5.0621 N   0  0  0  0  0  0  0  0  0  0  0  0
    2.4660   -1.5322   -5.2677 C   0  0  0  0  0  0  0  0  0  0  0  0
    0.4162   -1.9769   -5.6984 H   0  0  0  0  0  0  0  0  0  0  0  0
    2.8892   -0.5248   -5.3430 H   0  0  0  0  0  0  0  0  0  0  0  0
    2.9489   -2.0580   -4.4373 H   0  0  0  0  0  0  0  0  0  0  0  0
    2.6922   -2.0698   -6.1940 H   0  0  0  0  0  0  0  0  0  0  0  0
  1  2  2  0  0  0  0
  1  3  1  0  0  0  0
  1  7  1  0  0  0  0
  3  4  1  0  0  0  0
  3  5  1  0  0  0  0
  3  6  1  0  0  0  0
  7  8  1  0  0  0  0
  7 12  1  0  0  0  0
  8  9  1  0  0  0  0
  8 11  1  0  0  0  0
  8 13  1  0  0  0  0
  9 10  2  0  0  0  0
  9 17  1  0  0  0  0
 11 14  1  0  0  0  0
 11 15  1  0  0  0  0
 11 16  1  0  0  0  0
 17 18  1  0  0  0  0
 17 27  1  0  0  0  0
 18 19  1  0  0  0  0
 18 21  1  0  0  0  0
 18 28  1  0  0  0  0
 19 20  2  0  0  0  0
 19 35  1  0  0  0  0
 21 22  1  0  0  0  0
 21 29  1  0  0  0  0
 21 30  1  0  0  0  0
 22 23  1  0  0  0  0
 22 24  2  0  0  0  0
 23 25  2  0  0  0  0
 23 31  1  0  0  0  0
 24 26  1  0  0  0  0
 24 32  1  0  0  0  0
 25 26  1  0  0  0  0
 25 33  1  0  0  0  0
 26 34  1  0  0  0  0
 35 36  1  0  0  0  0
 35 40  1  0  0  0  0
 36 37  1  0  0  0  0
 36 39  1  0  0  0  0
 36 41  1  0  0  0  0
 37 38  2  0  0  0  0
 37 45  1  0  0  0  0
 39 42  1  0  0  0  0
 39 43  1  0  0  0  0
 39 44  1  0  0  0  0
 45 46  1  0  0  0  0
 45 47  1  0  0  0  0
 46 48  1  0  0  0  0
 46 49  1  0  0  0  0
 46 50  1  0  0  0  0
M  CHG  1  23   1
M  END
$$$$

  -OEChem-05262216443D

 50 50  0     1  0  0  0  0  0999 V2000
   -0.7081    1.6842    4.6836 C   0  0  0  0  0  0  0  0  0  0  0  0
    0.2857    1.7045    3.9679 O   0  0  0  0  0  0  0  0  0  0  0  0
   -0.5405    1.5449    6.1847 C   0  0  0  0  0  0  0  0  0  0  0  0
   -1.0263    0.6293    6.5312 H   0  0  0  0  0  0  0  0  0  0  0  0
    0.5201    1.5009    6.4463 H   0  0  0  0  0  0  0  0  0  0  0  0
   -0.9909    2.4016    6.6921 H   0  0  0  0  0  0  0  0  0  0  0  0
   -1.9841    1.7535    4.1542 N   0  0  0  0  0  0  0  0  0  0  0  0
   -2.3233    1.7772    2.7178 C   0  0  2  0  0  0  0  0  0  0  0  0
   -1.8508    0.5238    1.9334 C   0  0  0  0  0  0  0  0  0  0  0  0
   -1.7077   -0.5363    2.5282 O   0  0  0  0  0  0  0  0  0  0  0  0
   -1.8211    3.0920    2.0975 C   0  0  0  0  0  0  0  0  0  0  0  0
   -2.7442    1.6061    4.8139 H   0  0  0  0  0  0  0  0  0  0  0  0
   -3.4154    1.7810    2.6417 H   0  0  0  0  0  0  0  0  0  0  0  0
   -0.7310    3.0905    2.0013 H   0  0  0  0  0  0  0  0  0  0  0  0
   -2.2569    3.2426    1.1057 H   0  0  0  0  0  0  0  0  0  0  0  0
   -2.1113    3.9400    2.7260 H   0  0  0  0  0  0  0  0  0  0  0  0
   -1.6988    0.5760    0.5525 N   0  0  0  0  0  0  0  0  0  0  0  0
   -0.9502   -0.3580   -0.3256 C   0  0  2  0  0  0  0  0  0  0  0  0
   -1.6422   -0.8190   -1.6211 C   0  0  0  0  0  0  0  0  0  0  0  0
   -1.9327   -1.9958   -1.7808 O   0  0  0  0  0  0  0  0  0  0  0  0
   -0.0545   -1.4750    0.2666 C   0  0  0  0  0  0  0  0  0  0  0  0
    1.0892   -0.8625    1.0241 C   0  0  0  0  0  0  0  0  0  0  0  0
    2.1779   -0.2804    0.3765 N   0  3  0  0  0  0  0  0  0  0  0  0
    1.2795   -0.7381    2.3712 C   0  0  0  0  0  0  0  0  0  0  0  0
    2.9857    0.2540    1.2599 C   0  0  0  0  0  0  0  0  0  0  0  0
    2.4542   -0.0159    2.5214 N   0  0  0  0  0  0  0  0  0  0  0  0
   -1.9428    1.4754    0.1472 H   0  0  0  0  0  0  0  0  0  0  0  0
   -0.1990    0.3302   -0.7193 H   0  0  0  0  0  0  0  0  0  0  0  0
    0.3510   -2.1078   -0.5305 H   0  0  0  0  0  0  0  0  0  0  0  0
   -0.6519   -2.1276    0.9115 H   0  0  0  0  0  0  0  0  0  0  0  0
    2.2434   -0.2326   -0.6517 H   0  0  0  0  0  0  0  0  0  0  0  0
    0.5932   -1.0652    3.1529 H   0  0  0  0  0  0  0  0  0  0  0  0
    3.8921    0.8214    1.0476 H   0  0  0  0  0  0  0  0  0  0  0  0
    2.7780    0.3824    3.4072 H   0  0  0  0  0  0  0  0  0  0  0  0
   -1.4184   -0.0338   -2.7393 N   0  0  0  0  0  0  0  0  0  0  0  0
   -0.6972   -0.6404   -3.8698 C   0  0  2  0  0  0  0  0  0  0  0  0
    0.7957   -0.9295   -3.5428 C   0  0  0  0  0  0  0  0  0  0  0  0
    1.3531   -0.4272   -2.5601 O   0  0  0  0  0  0  0  0  0  0  0  0
   -0.8097    0.3194   -5.0571 C   0  0  0  0  0  0  0  0  0  0  0  0
   -1.1253    0.9129   -2.5190 H   0  0  0  0  0  0  0  0  0  0  0  0
   -1.1753   -1.5874   -4.1470 H   0  0  0  0  0  0  0  0  0  0  0  0
   -0.3210    1.2729   -4.8320 H   0  0  0  0  0  0  0  0  0  0  0  0
   -0.3371   -0.1114   -5.9455 H   0  0  0  0  0  0  0  0  0  0  0  0
   -1.8622    0.5128   -5.2890 H   0  0  0  0  0  0  0  0  0  0  0  0
    1.5257   -1.7769   -4.3537 N   0  0  0  0  0  0  0  0  0  0  0  0
    2.9211   -2.1310   -4.1176 C   0  0  0  0  0  0  0  0  0  0  0  0
    1.0368   -2.2218   -5.1276 H   0  0  0  0  0  0  0  0  0  0  0  0
    3.5421   -1.2310   -4.0548 H   0  0  0  0  0  0  0  0  0  0  0  0
    3.0219   -2.6970   -3.1856 H   0  0  0  0  0  0  0  0  0  0  0  0
    3.2976   -2.7489   -4.9391 H   0  0  0  0  0  0  0  0  0  0  0  0
  1  2  2  0  0  0  0
  1  3  1  0  0  0  0
  1  7  1  0  0  0  0
  3  4  1  0  0  0  0
  3  5  1  0  0  0  0
  3  6  1  0  0  0  0
  7  8  1  0  0  0  0
  7 12  1  0  0  0  0
  8  9  1  0  0  0  0
  8 11  1  0  0  0  0
  8 13  1  0  0  0  0
  9 10  2  0  0  0  0
  9 17  1  0  0  0  0
 11 14  1  0  0  0  0
 11 15  1  0  0  0  0
 11 16  1  0  0  0  0
 17 18  1  0  0  0  0
 17 27  1  0  0  0  0
 18 19  1  0  0  0  0
 18 21  1  0  0  0  0
 18 28  1  0  0  0  0
 19 20  2  0  0  0  0
 19 35  1  0  0  0  0
 21 22  1  0  0  0  0
 21 29  1  0  0  0  0
 21 30  1  0  0  0  0
 22 23  1  0  0  0  0
 22 24  2  0  0  0  0
 23 25  2  0  0  0  0
 23 31  1  0  0  0  0
 24 26  1  0  0  0  0
 24 32  1  0  0  0  0
 25 26  1  0  0  0  0
 25 33  1  0  0  0  0
 26 34  1  0  0  0  0
 35 36  1  0  0  0  0
 35 40  1  0  0  0  0
 36 37  1  0  0  0  0
 36 39  1  0  0  0  0
 36 41  1  0  0  0  0
 37 38  2  0  0  0  0
 37 45  1  0  0  0  0
 39 42  1  0  0  0  0
 39 43  1  0  0  0  0
 39 44  1  0  0  0  0
 45 46  1  0  0  0  0
 45 47  1  0  0  0  0
 46 48  1  0  0  0  0
 46 49  1  0  0  0  0
 46 50  1  0  0  0  0
M  CHG  1  23   1
M  END
$$$$

  -OEChem-05262216443D

 50 50  0     1  0  0  0  0  0999 V2000
   -0.7400    1.6035    4.7125 C   0  0  0  0  0  0  0  0  0  0  0  0
    0.2861    1.5138    4.0497 O   0  0  0  0  0  0  0  0  0  0  0  0
   -0.6705    1.4324    6.2182 C   0  0  0  0  0  0  0  0  0  0  0  0
   -1.2920    0.5885    6.5287 H   0  0  0  0  0  0  0  0  0  0  0  0
    0.3597    1.2441    6.5325 H   0  0  0  0  0  0  0  0  0  0  0  0
   -1.0276    2.3390    6.7136 H   0  0  0  0  0  0  0  0  0  0  0  0
   -1.9670    1.8397    4.1200 N   0  0  0  0  0  0  0  0  0  0  0  0
   -2.2204    1.9558    2.6706 C   0  0  2  0  0  0  0  0  0  0  0  0
   -1.8466    0.6910    1.8516 C   0  0  0  0  0  0  0  0  0  0  0  0
   -1.8561   -0.4030    2.3997 O   0  0  0  0  0  0  0  0  0  0  0  0
   -1.5381    3.2278    2.1392 C   0  0  0  0  0  0  0  0  0  0  0  0
   -2.7738    1.7908    4.7371 H   0  0  0  0  0  0  0  0  0  0  0  0
   -3.2993    2.0864    2.5384 H   0  0  0  0  0  0  0  0  0  0  0  0
   -0.4512    3.1047    2.1053 H   0  0  0  0  0  0  0  0  0  0  0  0
   -1.8925    3.4647    1.1319 H   0  0  0  0  0  0  0  0  0  0  0  0
   -1.7695    4.0793    2.7871 H   0  0  0  0  0  0  0  0  0  0  0  0
   -1.6303    0.7844    0.4816 N   0  0  0  0  0  0  0  0  0  0  0  0
   -0.9250   -0.1654   -0.4155 C   0  0  2  0  0  0  0  0  0  0  0  0
   -1.6067   -0.5015   -1.7539 C   0  0  0  0  0  0  0  0  0  0  0  0
   -2.1957   -1.5637   -1.8853 O   0  0  0  0  0  0  0  0  0  0  0  0
   -0.2067   -1.4128    0.1595 C   0  0  0  0  0  0  0  0  0  0  0  0
    0.9387   -0.9996    1.0397 C   0  0  0  0  0  0  0  0  0  0  0  0
    2.1327   -0.5166    0.5077 N   0  3  0  0  0  0  0  0  0  0  0  0
    1.0513   -0.9992    2.4017 C   0  0  0  0  0  0  0  0  0  0  0  0
    2.9383   -0.1548    1.4764 C   0  0  0  0  0  0  0  0  0  0  0  0
    2.2915   -0.4427    2.6784 N   0  0  0  0  0  0  0  0  0  0  0  0
   -1.7801    1.7182    0.1093 H   0  0  0  0  0  0  0  0  0  0  0  0
   -0.0814    0.4528   -0.7328 H   0  0  0  0  0  0  0  0  0  0  0  0
    0.1741   -2.0469   -0.6478 H   0  0  0  0  0  0  0  0  0  0  0  0
   -0.9250   -2.0219    0.7185 H   0  0  0  0  0  0  0  0  0  0  0  0
    2.2837   -0.4307   -0.5090 H   0  0  0  0  0  0  0  0  0  0  0  0
    0.2809   -1.2975    3.1134 H   0  0  0  0  0  0  0  0  0  0  0  0
    3.9224    0.3004    1.3640 H   0  0  0  0  0  0  0  0  0  0  0  0
    2.6016   -0.1562    3.6110 H   0  0  0  0  0  0  0  0  0  0  0  0
   -1.0525    0.0940   -2.8750 N   0  0  0  0  0  0  0  0  0  0  0  0
   -0.3768   -0.7485   -3.8737 C   0  0  2  0  0  0  0  0  0  0  0  0
    1.0731   -1.1065   -3.4461 C   0  0  0  0  0  0  0  0  0  0  0  0
    1.5878   -0.6069   -2.4391 O   0  0  0  0  0  0  0  0  0  0  0  0
   -0.3837    0.0171   -5.1997 C   0  0  0  0  0  0  0  0  0  0  0  0
   -0.5549    0.9548   -2.6667 H   0  0  0  0  0  0  0  0  0  0  0  0
   -0.9288   -1.6847   -4.0172 H   0  0  0  0  0  0  0  0  0  0  0  0
    0.1862    0.9477   -5.1121 H   0  0  0  0  0  0  0  0  0  0  0  0
    0.0591   -0.5873   -5.9972 H   0  0  0  0  0  0  0  0  0  0  0  0
   -1.4110    0.2629   -5.4887 H   0  0  0  0  0  0  0  0  0  0  0  0
    1.8057   -2.0192   -4.1799 N   0  0  0  0  0  0  0  0  0  0  0  0
    3.1775   -2.4043   -3.8672 C   0  0  0  0  0  0  0  0  0  0  0  0
    1.3581   -2.4358   -4.9935 H   0  0  0  0  0  0  0  0  0  0  0  0
    3.8363   -1.5296   -3.8867 H   0  0  0  0  0  0  0  0  0  0  0  0
    3.2315   -2.8668   -2.8762 H   0  0  0  0  0  0  0  0  0  0  0  0
    3.5447   -3.1259   -4.6042 H   0  0  0  0  0  0  0  0  0  0  0  0
  1  2  2  0  0  0  0
  1  3  1  0  0  0  0
  1  7  1  0  0  0  0
  3  4  1  0  0  0  0
  3  5  1  0  0  0  0
  3  6  1  0  0  0  0
  7  8  1  0  0  0  0
  7 12  1  0  0  0  0
  8  9  1  0  0  0  0
  8 11  1  0  0  0  0
  8 13  1  0  0  0  0
  9 10  2  0  0  0  0
  9 17  1  0  0  0  0
 11 14  1  0  0  0  0
 11 15  1  0  0  0  0
 11 16  1  0  0  0  0
 17 18  1  0  0  0  0
 17 27  1  0  0  0  0
 18 19  1  0  0  0  0
 18 21  1  0  0  0  0
 18 28  1  0  0  0  0
 19 20  2  0  0  0  0
 19 35  1  0  0  0  0
 21 22  1  0  0  0  0
 21 29  1  0  0  0  0
 21 30  1  0  0  0  0
 22 23  1  0  0  0  0
 22 24  2  0  0  0  0
 23 25  2  0  0  0  0
 23 31  1  0  0  0  0
 24 26  1  0  0  0  0
 24 32  1  0  0  0  0
 25 26  1  0  0  0  0
 25 33  1  0  0  0  0
 26 34  1  0  0  0  0
 35 36  1  0  0  0  0
 35 40  1  0  0  0  0
 36 37  1  0  0  0  0
 36 39  1  0  0  0  0
 36 41  1  0  0  0  0
 37 38  2  0  0  0  0
 37 45  1  0  0  0  0
 39 42  1  0  0  0  0
 39 43  1  0  0  0  0
 39 44  1  0  0  0  0
 45 46  1  0  0  0  0
 45 47  1  0  0  0  0
 46 48  1  0  0  0  0
 46 49  1  0  0  0  0
 46 50  1  0  0  0  0
M  CHG  1  23   1
M  END
$$$$

  -OEChem-05262216443D

 50 50  0     1  0  0  0  0  0999 V2000
   -0.8204    1.5191    4.7368 C   0  0  0  0  0  0  0  0  0  0  0  0
    0.2439    1.3634    4.1507 O   0  0  0  0  0  0  0  0  0  0  0  0
   -0.8984    1.2289    6.2236 C   0  0  0  0  0  0  0  0  0  0  0  0
   -1.6093    0.4199    6.4095 H   0  0  0  0  0  0  0  0  0  0  0  0
    0.0820    0.9304    6.6045 H   0  0  0  0  0  0  0  0  0  0  0  0
   -1.2258    2.1221    6.7616 H   0  0  0  0  0  0  0  0  0  0  0  0
   -1.9626    1.9255    4.0710 N   0  0  0  0  0  0  0  0  0  0  0  0
   -2.0837    2.1433    2.6159 C   0  0  2  0  0  0  0  0  0  0  0  0
   -1.7897    0.8849    1.7566 C   0  0  0  0  0  0  0  0  0  0  0  0
   -1.9417   -0.2254    2.2479 O   0  0  0  0  0  0  0  0  0  0  0  0
   -1.2231    3.3520    2.2105 C   0  0  0  0  0  0  0  0  0  0  0  0
   -2.8207    1.9111    4.6168 H   0  0  0  0  0  0  0  0  0  0  0  0
   -3.1268    2.4050    2.4114 H   0  0  0  0  0  0  0  0  0  0  0  0
   -0.1573    3.1074    2.2532 H   0  0  0  0  0  0  0  0  0  0  0  0
   -1.4640    3.6756    1.1938 H   0  0  0  0  0  0  0  0  0  0  0  0
   -1.4117    4.1930    2.8856 H   0  0  0  0  0  0  0  0  0  0  0  0
   -1.5043    1.0146    0.4029 N   0  0  0  0  0  0  0  0  0  0  0  0
   -0.8226    0.0606   -0.5089 C   0  0  2  0  0  0  0  0  0  0  0  0
   -1.4706   -0.1671   -1.8860 C   0  0  0  0  0  0  0  0  0  0  0  0
   -2.3055   -1.0483   -2.0166 O   0  0  0  0  0  0  0  0  0  0  0  0
   -0.2648   -1.2764    0.0477 C   0  0  0  0  0  0  0  0  0  0  0  0
    0.8460   -1.0317    1.0313 C   0  0  0  0  0  0  0  0  0  0  0  0
    2.1177   -0.6467    0.6106 N   0  3  0  0  0  0  0  0  0  0  0  0
    0.8624   -1.1155    2.3959 C   0  0  0  0  0  0  0  0  0  0  0  0
    2.8855   -0.4236    1.6494 C   0  0  0  0  0  0  0  0  0  0  0  0
    2.1276   -0.7016    2.7866 N   0  0  0  0  0  0  0  0  0  0  0  0
   -1.5690    1.9719    0.0670 H   0  0  0  0  0  0  0  0  0  0  0  0
    0.0875    0.6142   -0.7549 H   0  0  0  0  0  0  0  0  0  0  0  0
    0.1030   -1.9140   -0.7603 H   0  0  0  0  0  0  0  0  0  0  0  0
   -1.0793   -1.8324    0.5242 H   0  0  0  0  0  0  0  0  0  0  0  0
    2.3581   -0.5512   -0.3879 H   0  0  0  0  0  0  0  0  0  0  0  0
    0.0195   -1.3720    3.0382 H   0  0  0  0  0  0  0  0  0  0  0  0
    3.9186   -0.0758    1.6289 H   0  0  0  0  0  0  0  0  0  0  0  0
    2.3953   -0.4932    3.7526 H   0  0  0  0  0  0  0  0  0  0  0  0
   -0.6780    0.1585   -2.9743 N   0  0  0  0  0  0  0  0  0  0  0  0
   -0.1147   -0.8988   -3.8254 C   0  0  2  0  0  0  0  0  0  0  0  0
    1.2798   -1.3487   -3.3133 C   0  0  0  0  0  0  0  0  0  0  0  0
    1.8129   -0.7896   -2.3480 O   0  0  0  0  0  0  0  0  0  0  0  0
   -0.0276   -0.3458   -5.2506 C   0  0  0  0  0  0  0  0  0  0  0  0
   -0.0132    0.9007   -2.7726 H   0  0  0  0  0  0  0  0  0  0  0  0
   -0.7714   -1.7764   -3.8366 H   0  0  0  0  0  0  0  0  0  0  0  0
    0.6434    0.5184   -5.2903 H   0  0  0  0  0  0  0  0  0  0  0  0
    0.3473   -1.1089   -5.9397 H   0  0  0  0  0  0  0  0  0  0  0  0
   -1.0188   -0.0323   -5.5948 H   0  0  0  0  0  0  0  0  0  0  0  0
    1.9234   -2.4229   -3.8960 N   0  0  0  0  0  0  0  0  0  0  0  0
    3.2298   -2.9163   -3.4736 C   0  0  0  0  0  0  0  0  0  0  0  0
    1.4621   -2.8792   -4.6802 H   0  0  0  0  0  0  0  0  0  0  0  0
    3.9813   -2.1225   -3.5412 H   0  0  0  0  0  0  0  0  0  0  0  0
    3.1889   -3.2787   -2.4411 H   0  0  0  0  0  0  0  0  0  0  0  0
    3.5469   -3.7439   -4.1162 H   0  0  0  0  0  0  0  0  0  0  0  0
  1  2  2  0  0  0  0
  1  3  1  0  0  0  0
  1  7  1  0  0  0  0
  3  4  1  0  0  0  0
  3  5  1  0  0  0  0
  3  6  1  0  0  0  0
  7  8  1  0  0  0  0
  7 12  1  0  0  0  0
  8  9  1  0  0  0  0
  8 11  1  0  0  0  0
  8 13  1  0  0  0  0
  9 10  2  0  0  0  0
  9 17  1  0  0  0  0
 11 14  1  0  0  0  0
 11 15  1  0  0  0  0
 11 16  1  0  0  0  0
 17 18  1  0  0  0  0
 17 27  1  0  0  0  0
 18 19  1  0  0  0  0
 18 21  1  0  0  0  0
 18 28  1  0  0  0  0
 19 20  2  0  0  0  0
 19 35  1  0  0  0  0
 21 22  1  0  0  0  0
 21 29  1  0  0  0  0
 21 30  1  0  0  0  0
 22 23  1  0  0  0  0
 22 24  2  0  0  0  0
 23 25  2  0  0  0  0
 23 31  1  0  0  0  0
 24 26  1  0  0  0  0
 24 32  1  0  0  0  0
 25 26  1  0  0  0  0
 25 33  1  0  0  0  0
 26 34  1  0  0  0  0
 35 36  1  0  0  0  0
 35 40  1  0  0  0  0
 36 37  1  0  0  0  0
 36 39  1  0  0  0  0
 36 41  1  0  0  0  0
 37 38  2  0  0  0  0
 37 45  1  0  0  0  0
 39 42  1  0  0  0  0
 39 43  1  0  0  0  0
 39 44  1  0  0  0  0
 45 46  1  0  0  0  0
 45 47  1  0  0  0  0
 46 48  1  0  0  0  0
 46 49  1  0  0  0  0
 46 50  1  0  0  0  0
M  CHG  1  23   1
M  END
$$$$

  -OEChem-05262216443D

 50 50  0     1  0  0  0  0  0999 V2000
   -1.2474    1.6027    4.8346 C   0  0  0  0  0  0  0  0  0  0  0  0
   -0.0853    1.5595    4.4489 O   0  0  0  0  0  0  0  0  0  0  0  0
   -1.5540    1.3530    6.2990 C   0  0  0  0  0  0  0  0  0  0  0  0
   -2.1769    0.4609    6.4036 H   0  0  0  0  0  0  0  0  0  0  0  0
   -0.6283    1.2052    6.8618 H   0  0  0  0  0  0  0  0  0  0  0  0
   -2.0858    2.2099    6.7202 H   0  0  0  0  0  0  0  0  0  0  0  0
   -2.2941    1.8533    3.9660 N   0  0  0  0  0  0  0  0  0  0  0  0
   -2.1848    2.0303    2.5046 C   0  0  2  0  0  0  0  0  0  0  0  0
   -1.5900    0.8109    1.7526 C   0  0  0  0  0  0  0  0  0  0  0  0
   -1.6487   -0.3004    2.2604 O   0  0  0  0  0  0  0  0  0  0  0  0
   -1.4164    3.3285    2.2073 C   0  0  0  0  0  0  0  0  0  0  0  0
   -3.2271    1.7591    4.3593 H   0  0  0  0  0  0  0  0  0  0  0  0
   -3.2002    2.1551    2.1150 H   0  0  0  0  0  0  0  0  0  0  0  0
   -0.3531    3.2167    2.4409 H   0  0  0  0  0  0  0  0  0  0  0  0
   -1.5122    3.6016    1.1523 H   0  0  0  0  0  0  0  0  0  0  0  0
   -1.8176    4.1513    2.8076 H   0  0  0  0  0  0  0  0  0  0  0  0
   -1.1648    0.9396    0.4379 N   0  0  0  0  0  0  0  0  0  0  0  0
   -0.1648    0.1407   -0.3158 C   0  0  2  0  0  0  0  0  0  0  0  0
   -0.6648   -0.2417   -1.7224 C   0  0  0  0  0  0  0  0  0  0  0  0
   -1.7236   -0.8334   -1.8613 O   0  0  0  0  0  0  0  0  0  0  0  0
    0.5091   -1.0869    0.3525 C   0  0  0  0  0  0  0  0  0  0  0  0
    1.3637   -0.7088    1.5441 C   0  0  0  0  0  0  0  0  0  0  0  0
    2.6213   -0.1041    1.4802 N   0  3  0  0  0  0  0  0  0  0  0  0
    1.0955   -0.9291    2.8702 C   0  0  0  0  0  0  0  0  0  0  0  0
    3.0780    0.1323    2.6868 C   0  0  0  0  0  0  0  0  0  0  0  0
    2.1411   -0.3680    3.5848 N   0  0  0  0  0  0  0  0  0  0  0  0
   -1.4051    1.8355    0.0216 H   0  0  0  0  0  0  0  0  0  0  0  0
    0.6548    0.8423   -0.4921 H   0  0  0  0  0  0  0  0  0  0  0  0
    1.1339   -1.6144   -0.3766 H   0  0  0  0  0  0  0  0  0  0  0  0
   -0.2733   -1.7895    0.6613 H   0  0  0  0  0  0  0  0  0  0  0  0
    3.0837    0.1256    0.5976 H   0  0  0  0  0  0  0  0  0  0  0  0
    0.1943   -1.3885    3.2770 H   0  0  0  0  0  0  0  0  0  0  0  0
    4.0112    0.6347    2.9446 H   0  0  0  0  0  0  0  0  0  0  0  0
    2.1354   -0.2119    4.5967 H   0  0  0  0  0  0  0  0  0  0  0  0
    0.1903   -0.0976   -2.7993 N   0  0  0  0  0  0  0  0  0  0  0  0
    0.1778   -1.0378   -3.9290 C   0  0  2  0  0  0  0  0  0  0  0  0
    1.2881   -2.0965   -3.7451 C   0  0  0  0  0  0  0  0  0  0  0  0
    2.1506   -1.9258   -2.8843 O   0  0  0  0  0  0  0  0  0  0  0  0
    0.3926   -0.2341   -5.2138 C   0  0  0  0  0  0  0  0  0  0  0  0
    1.1168    0.2445   -2.5592 H   0  0  0  0  0  0  0  0  0  0  0  0
   -0.7830   -1.5598   -4.0014 H   0  0  0  0  0  0  0  0  0  0  0  0
    1.3586    0.2806   -5.1902 H   0  0  0  0  0  0  0  0  0  0  0  0
    0.3723   -0.8931   -6.0874 H   0  0  0  0  0  0  0  0  0  0  0  0
   -0.3987    0.5136   -5.3288 H   0  0  0  0  0  0  0  0  0  0  0  0
    1.3239   -3.2303   -4.5335 N   0  0  0  0  0  0  0  0  0  0  0  0
    2.3500   -4.2601   -4.4148 C   0  0  0  0  0  0  0  0  0  0  0  0
    0.5844   -3.3528   -5.2206 H   0  0  0  0  0  0  0  0  0  0  0  0
    3.3390   -3.8430   -4.6323 H   0  0  0  0  0  0  0  0  0  0  0  0
    2.3584   -4.6801   -3.4034 H   0  0  0  0  0  0  0  0  0  0  0  0
    2.1554   -5.0718   -5.1227 H   0  0  0  0  0  0  0  0  0  0  0  0
  1  2  2  0  0  0  0
  1  3  1  0  0  0  0
  1  7  1  0  0  0  0
  3  4  1  0  0  0  0
  3  5  1  0  0  0  0
  3  6  1  0  0  0  0
  7  8  1  0  0  0  0
  7 12  1  0  0  0  0
  8  9  1  0  0  0  0
  8 11  1  0  0  0  0
  8 13  1  0  0  0  0
  9 10  2  0  0  0  0
  9 17  1  0  0  0  0
 11 14  1  0  0  0  0
 11 15  1  0  0  0  0
 11 16  1  0  0  0  0
 17 18  1  0  0  0  0
 17 27  1  0  0  0  0
 18 19  1  0  0  0  0
 18 21  1  0  0  0  0
 18 28  1  0  0  0  0
 19 20  2  0  0  0  0
 19 35  1  0  0  0  0
 21 22  1  0  0  0  0
 21 29  1  0  0  0  0
 21 30  1  0  0  0  0
 22 23  1  0  0  0  0
 22 24  2  0  0  0  0
 23 25  2  0  0  0  0
 23 31  1  0  0  0  0
 24 26  1  0  0  0  0
 24 32  1  0  0  0  0
 25 26  1  0  0  0  0
 25 33  1  0  0  0  0
 26 34  1  0  0  0  0
 35 36  1  0  0  0  0
 35 40  1  0  0  0  0
 36 37  1  0  0  0  0
 36 39  1  0  0  0  0
 36 41  1  0  0  0  0
 37 38  2  0  0  0  0
 37 45  1  0  0  0  0
 39 42  1  0  0  0  0
 39 43  1  0  0  0  0
 39 44  1  0  0  0  0
 45 46  1  0  0  0  0
 45 47  1  0  0  0  0
 46 48  1  0  0  0  0
 46 49  1  0  0  0  0
 46 50  1  0  0  0  0
M  CHG  1  23   1
M  END
$$$$

  -OEChem-05262216443D

 50 50  0     1  0  0  0  0  0999 V2000
   -1.3557    1.5908    4.8067 C   0  0  0  0  0  0  0  0  0  0  0  0
   -0.1772    1.5864    4.4715 O   0  0  0  0  0  0  0  0  0  0  0  0
   -1.7154    1.3304    6.2572 C   0  0  0  0  0  0  0  0  0  0  0  0
   -2.2547    0.3838    6.3432 H   0  0  0  0  0  0  0  0  0  0  0  0
   -0.8116    1.2789    6.8703 H   0  0  0  0  0  0  0  0  0  0  0  0
   -2.3480    2.1368    6.6360 H   0  0  0  0  0  0  0  0  0  0  0  0
   -2.3721    1.8015    3.8923 N   0  0  0  0  0  0  0  0  0  0  0  0
   -2.2037    1.9829    2.4372 C   0  0  2  0  0  0  0  0  0  0  0  0
   -1.5068    0.7972    1.7195 C   0  0  0  0  0  0  0  0  0  0  0  0
   -1.5401   -0.3189    2.2197 O   0  0  0  0  0  0  0  0  0  0  0  0
   -1.4920    3.3203    2.1763 C   0  0  0  0  0  0  0  0  0  0  0  0
   -3.3187    1.6864    4.2458 H   0  0  0  0  0  0  0  0  0  0  0  0
   -3.2041    2.0523    1.9978 H   0  0  0  0  0  0  0  0  0  0  0  0
   -0.4410    3.2700    2.4770 H   0  0  0  0  0  0  0  0  0  0  0  0
   -1.5360    3.5810    1.1150 H   0  0  0  0  0  0  0  0  0  0  0  0
   -1.9761    4.1226    2.7420 H   0  0  0  0  0  0  0  0  0  0  0  0
   -1.0153    0.9503    0.4315 N   0  0  0  0  0  0  0  0  0  0  0  0
    0.0471    0.1946   -0.2804 C   0  0  2  0  0  0  0  0  0  0  0  0
   -0.3810   -0.1797   -1.7150 C   0  0  0  0  0  0  0  0  0  0  0  0
   -1.5485   -0.4289   -1.9738 O   0  0  0  0  0  0  0  0  0  0  0  0
    0.7325   -1.0129    0.4158 C   0  0  0  0  0  0  0  0  0  0  0  0
    1.5137   -0.6067    1.6495 C   0  0  0  0  0  0  0  0  0  0  0  0
    2.7492    0.0459    1.6610 N   0  3  0  0  0  0  0  0  0  0  0  0
    1.1888   -0.8595    2.9572 C   0  0  0  0  0  0  0  0  0  0  0  0
    3.1318    0.2838    2.8927 C   0  0  0  0  0  0  0  0  0  0  0  0
    2.1724   -0.2687    3.7334 N   0  0  0  0  0  0  0  0  0  0  0  0
   -1.3030    1.8173   -0.0157 H   0  0  0  0  0  0  0  0  0  0  0  0
    0.8471    0.9270   -0.4183 H   0  0  0  0  0  0  0  0  0  0  0  0
    1.4120   -1.5172   -0.2795 H   0  0  0  0  0  0  0  0  0  0  0  0
   -0.0373   -1.7450    0.6860 H   0  0  0  0  0  0  0  0  0  0  0  0
    3.2412    0.3222    0.8092 H   0  0  0  0  0  0  0  0  0  0  0  0
    0.2885   -1.3631    3.3106 H   0  0  0  0  0  0  0  0  0  0  0  0
    4.0264    0.8229    3.2066 H   0  0  0  0  0  0  0  0  0  0  0  0
    2.1107   -0.1317    4.7462 H   0  0  0  0  0  0  0  0  0  0  0  0
    0.5789   -0.2982   -2.7030 N   0  0  0  0  0  0  0  0  0  0  0  0
    0.4098   -1.2094   -3.8441 C   0  0  2  0  0  0  0  0  0  0  0  0
    1.2134   -2.5056   -3.6024 C   0  0  0  0  0  0  0  0  0  0  0  0
    2.0733   -2.5246   -2.7236 O   0  0  0  0  0  0  0  0  0  0  0  0
    0.8945   -0.4882   -5.1038 C   0  0  0  0  0  0  0  0  0  0  0  0
    1.5386   -0.2224   -2.3766 H   0  0  0  0  0  0  0  0  0  0  0  0
   -0.6419   -1.4827   -3.9824 H   0  0  0  0  0  0  0  0  0  0  0  0
    1.9544   -0.2282   -5.0162 H   0  0  0  0  0  0  0  0  0  0  0  0
    0.7648   -1.1253   -5.9843 H   0  0  0  0  0  0  0  0  0  0  0  0
    0.3207    0.4315   -5.2574 H   0  0  0  0  0  0  0  0  0  0  0  0
    0.9686   -3.6437   -4.3460 N   0  0  0  0  0  0  0  0  0  0  0  0
    1.6681   -4.9062   -4.1342 C   0  0  0  0  0  0  0  0  0  0  0  0
    0.2234   -3.6071   -5.0367 H   0  0  0  0  0  0  0  0  0  0  0  0
    2.7441   -4.7816   -4.2959 H   0  0  0  0  0  0  0  0  0  0  0  0
    1.5054   -5.2693   -3.1139 H   0  0  0  0  0  0  0  0  0  0  0  0
    1.3001   -5.6646   -4.8324 H   0  0  0  0  0  0  0  0  0  0  0  0
  1  2  2  0  0  0  0
  1  3  1  0  0  0  0
  1  7  1  0  0  0  0
  3  4  1  0  0  0  0
  3  5  1  0  0  0  0
  3  6  1  0  0  0  0
  7  8  1  0  0  0  0
  7 12  1  0  0  0  0
  8  9  1  0  0  0  0
  8 11  1  0  0  0  0
  8 13  1  0  0  0  0
  9 10  2  0  0  0  0
  9 17  1  0  0  0  0
 11 14  1  0  0  0  0
 11 15  1  0  0  0  0
 11 16  1  0  0  0  0
 17 18  1  0  0  0  0
 17 27  1  0  0  0  0
 18 19  1  0  0  0  0
 18 21  1  0  0  0  0
 18 28  1  0  0  0  0
 19 20  2  0  0  0  0
 19 35  1  0  0  0  0
 21 22  1  0  0  0  0
 21 29  1  0  0  0  0
 21 30  1  0  0  0  0
 22 23  1  0  0  0  0
 22 24  2  0  0  0  0
 23 25  2  0  0  0  0
 23 31  1  0  0  0  0
 24 26  1  0  0  0  0
 24 32  1  0  0  0  0
 25 26  1  0  0  0  0
 25 33  1  0  0  0  0
 26 34  1  0  0  0  0
 35 36  1  0  0  0  0
 35 40  1  0  0  0  0
 36 37  1  0  0  0  0
 36 39  1  0  0  0  0
 36 41  1  0  0  0  0
 37 38  2  0  0  0  0
 37 45  1  0  0  0  0
 39 42  1  0  0  0  0
 39 43  1  0  0  0  0
 39 44  1  0  0  0  0
 45 46  1  0  0  0  0
 45 47  1  0  0  0  0
 46 48  1  0  0  0  0
 46 49  1  0  0  0  0
 46 50  1  0  0  0  0
M  CHG  1  23   1
M  END
$$$$

  -OEChem-05262216443D

 50 50  0     1  0  0  0  0  0999 V2000
   -1.4504    1.6364    4.8041 C   0  0  0  0  0  0  0  0  0  0  0  0
   -0.2550    1.6282    4.5342 O   0  0  0  0  0  0  0  0  0  0  0  0
   -1.8897    1.3949    6.2358 C   0  0  0  0  0  0  0  0  0  0  0  0
   -2.4627    0.4663    6.2990 H   0  0  0  0  0  0  0  0  0  0  0  0
   -1.0192    1.3182    6.8931 H   0  0  0  0  0  0  0  0  0  0  0  0
   -2.5145    2.2233    6.5793 H   0  0  0  0  0  0  0  0  0  0  0  0
   -2.4158    1.8383    3.8341 N   0  0  0  0  0  0  0  0  0  0  0  0
   -2.1704    2.0084    2.3886 C   0  0  2  0  0  0  0  0  0  0  0  0
   -1.4437    0.8140    1.7174 C   0  0  0  0  0  0  0  0  0  0  0  0
   -1.4987   -0.2963    2.2291 O   0  0  0  0  0  0  0  0  0  0  0  0
   -1.4389    3.3403    2.1540 C   0  0  0  0  0  0  0  0  0  0  0  0
   -3.3795    1.7233    4.1373 H   0  0  0  0  0  0  0  0  0  0  0  0
   -3.1459    2.0803    1.8969 H   0  0  0  0  0  0  0  0  0  0  0  0
   -0.4038    3.2857    2.5044 H   0  0  0  0  0  0  0  0  0  0  0  0
   -1.4307    3.5949    1.0901 H   0  0  0  0  0  0  0  0  0  0  0  0
   -1.9435    4.1494    2.6915 H   0  0  0  0  0  0  0  0  0  0  0  0
   -0.8968    0.9494    0.4503 N   0  0  0  0  0  0  0  0  0  0  0  0
    0.1870    0.1826   -0.2162 C   0  0  2  0  0  0  0  0  0  0  0  0
   -0.1947   -0.1952   -1.6659 C   0  0  0  0  0  0  0  0  0  0  0  0
   -1.3466   -0.0882   -2.0612 O   0  0  0  0  0  0  0  0  0  0  0  0
    0.8472   -1.0088    0.5337 C   0  0  0  0  0  0  0  0  0  0  0  0
    1.5829   -0.5594    1.7810 C   0  0  0  0  0  0  0  0  0  0  0  0
    2.8152    0.0995    1.8186 N   0  3  0  0  0  0  0  0  0  0  0  0
    1.2103   -0.7727    3.0831 C   0  0  0  0  0  0  0  0  0  0  0  0
    3.1484    0.3792    3.0560 C   0  0  0  0  0  0  0  0  0  0  0  0
    2.1605   -0.1526    3.8770 N   0  0  0  0  0  0  0  0  0  0  0  0
   -1.1891    1.7934   -0.0375 H   0  0  0  0  0  0  0  0  0  0  0  0
    0.9929    0.9109   -0.3412 H   0  0  0  0  0  0  0  0  0  0  0  0
    1.5528   -1.5346   -0.1177 H   0  0  0  0  0  0  0  0  0  0  0  0
    0.0693   -1.7342    0.7977 H   0  0  0  0  0  0  0  0  0  0  0  0
    3.3316    0.3656    0.9780 H   0  0  0  0  0  0  0  0  0  0  0  0
    0.2992   -1.2681    3.4201 H   0  0  0  0  0  0  0  0  0  0  0  0
    4.0265    0.9363    3.3853 H   0  0  0  0  0  0  0  0  0  0  0  0
    2.0549    0.0207    4.8808 H   0  0  0  0  0  0  0  0  0  0  0  0
    0.7824   -0.6290   -2.5418 N   0  0  0  0  0  0  0  0  0  0  0  0
    0.4828   -1.4994   -3.6875 C   0  0  2  0  0  0  0  0  0  0  0  0
    1.0703   -2.9045   -3.4351 C   0  0  0  0  0  0  0  0  0  0  0  0
    1.8726   -3.0615   -2.5168 O   0  0  0  0  0  0  0  0  0  0  0  0
    1.0899   -0.8655   -4.9407 C   0  0  0  0  0  0  0  0  0  0  0  0
    1.6878   -0.8156   -2.1171 H   0  0  0  0  0  0  0  0  0  0  0  0
   -0.5976   -1.6084   -3.8339 H   0  0  0  0  0  0  0  0  0  0  0  0
    2.1763   -0.7747   -4.8397 H   0  0  0  0  0  0  0  0  0  0  0  0
    0.8730   -1.4749   -5.8234 H   0  0  0  0  0  0  0  0  0  0  0  0
    0.6694    0.1325   -5.0998 H   0  0  0  0  0  0  0  0  0  0  0  0
    0.6978   -3.9840   -4.2124 N   0  0  0  0  0  0  0  0  0  0  0  0
    1.2024   -5.3359   -3.9989 C   0  0  0  0  0  0  0  0  0  0  0  0
    0.0093   -3.8279   -4.9440 H   0  0  0  0  0  0  0  0  0  0  0  0
    2.2920   -5.3606   -4.1068 H   0  0  0  0  0  0  0  0  0  0  0  0
    0.9396   -5.6900   -2.9964 H   0  0  0  0  0  0  0  0  0  0  0  0
    0.7681   -6.0231   -4.7317 H   0  0  0  0  0  0  0  0  0  0  0  0
  1  2  2  0  0  0  0
  1  3  1  0  0  0  0
  1  7  1  0  0  0  0
  3  4  1  0  0  0  0
  3  5  1  0  0  0  0
  3  6  1  0  0  0  0
  7  8  1  0  0  0  0
  7 12  1  0  0  0  0
  8  9  1  0  0  0  0
  8 11  1  0  0  0  0
  8 13  1  0  0  0  0
  9 10  2  0  0  0  0
  9 17  1  0  0  0  0
 11 14  1  0  0  0  0
 11 15  1  0  0  0  0
 11 16  1  0  0  0  0
 17 18  1  0  0  0  0
 17 27  1  0  0  0  0
 18 19  1  0  0  0  0
 18 21  1  0  0  0  0
 18 28  1  0  0  0  0
 19 20  2  0  0  0  0
 19 35  1  0  0  0  0
 21 22  1  0  0  0  0
 21 29  1  0  0  0  0
 21 30  1  0  0  0  0
 22 23  1  0  0  0  0
 22 24  2  0  0  0  0
 23 25  2  0  0  0  0
 23 31  1  0  0  0  0
 24 26  1  0  0  0  0
 24 32  1  0  0  0  0
 25 26  1  0  0  0  0
 25 33  1  0  0  0  0
 26 34  1  0  0  0  0
 35 36  1  0  0  0  0
 35 40  1  0  0  0  0
 36 37  1  0  0  0  0
 36 39  1  0  0  0  0
 36 41  1  0  0  0  0
 37 38  2  0  0  0  0
 37 45  1  0  0  0  0
 39 42  1  0  0  0  0
 39 43  1  0  0  0  0
 39 44  1  0  0  0  0
 45 46  1  0  0  0  0
 45 47  1  0  0  0  0
 46 48  1  0  0  0  0
 46 49  1  0  0  0  0
 46 50  1  0  0  0  0
M  CHG  1  23   1
M  END
$$$$

  -OEChem-05262216443D

 50 50  0     1  0  0  0  0  0999 V2000
   -1.9993    0.4792    4.4039 C   0  0  0  0  0  0  0  0  0  0  0  0
   -1.6676   -0.5910    3.9124 O   0  0  0  0  0  0  0  0  0  0  0  0
   -2.2196    0.5911    5.9001 C   0  0  0  0  0  0  0  0  0  0  0  0
   -2.1310   -0.3920    6.3705 H   0  0  0  0  0  0  0  0  0  0  0  0
   -1.4773    1.2619    6.3393 H   0  0  0  0  0  0  0  0  0  0  0  0
   -3.2193    0.9847    6.1008 H   0  0  0  0  0  0  0  0  0  0  0  0
   -2.1536    1.5928    3.6050 N   0  0  0  0  0  0  0  0  0  0  0  0
   -1.9322    1.5949    2.1511 C   0  0  2  0  0  0  0  0  0  0  0  0
   -0.4420    1.5609    1.7278 C   0  0  0  0  0  0  0  0  0  0  0  0
    0.4593    1.6522    2.5541 O   0  0  0  0  0  0  0  0  0  0  0  0
   -2.6251    2.8440    1.5975 C   0  0  0  0  0  0  0  0  0  0  0  0
   -2.3115    2.4803    4.0743 H   0  0  0  0  0  0  0  0  0  0  0  0
   -2.4153    0.7120    1.7176 H   0  0  0  0  0  0  0  0  0  0  0  0
   -2.1367    3.7500    1.9710 H   0  0  0  0  0  0  0  0  0  0  0  0
   -2.5877    2.8556    0.5036 H   0  0  0  0  0  0  0  0  0  0  0  0
   -3.6767    2.8629    1.9013 H   0  0  0  0  0  0  0  0  0  0  0  0
   -0.1032    1.5849    0.3870 N   0  0  0  0  0  0  0  0  0  0  0  0
    0.9982    0.8744   -0.3056 C   0  0  2  0  0  0  0  0  0  0  0  0
    0.5152    0.6197   -1.7625 C   0  0  0  0  0  0  0  0  0  0  0  0
   -0.6556    0.8428   -2.0552 O   0  0  0  0  0  0  0  0  0  0  0  0
    1.3105   -0.5693    0.2126 C   0  0  0  0  0  0  0  0  0  0  0  0
    1.8061   -0.7028    1.6281 C   0  0  0  0  0  0  0  0  0  0  0  0
    3.0719   -0.4003    2.1320 N   0  3  0  0  0  0  0  0  0  0  0  0
    1.0926   -1.2887    2.6432 C   0  0  0  0  0  0  0  0  0  0  0  0
    3.1260   -0.6802    3.4125 C   0  0  0  0  0  0  0  0  0  0  0  0
    1.9062   -1.2526    3.7635 N   0  0  0  0  0  0  0  0  0  0  0  0
   -0.9163    1.7022   -0.2232 H   0  0  0  0  0  0  0  0  0  0  0  0
    1.8999    1.4937   -0.3058 H   0  0  0  0  0  0  0  0  0  0  0  0
    2.0649   -1.0389   -0.4261 H   0  0  0  0  0  0  0  0  0  0  0  0
    0.3978   -1.1696    0.1108 H   0  0  0  0  0  0  0  0  0  0  0  0
    3.7819    0.0948    1.5897 H   0  0  0  0  0  0  0  0  0  0  0  0
    0.0703   -1.6648    2.5871 H   0  0  0  0  0  0  0  0  0  0  0  0
    3.9618   -0.4832    4.0847 H   0  0  0  0  0  0  0  0  0  0  0  0
    1.6171   -1.5300    4.7050 H   0  0  0  0  0  0  0  0  0  0  0  0
    1.3165   -0.0288   -2.6875 N   0  0  0  0  0  0  0  0  0  0  0  0
    0.7437   -0.8396   -3.7739 C   0  0  2  0  0  0  0  0  0  0  0  0
    0.4530   -2.2811   -3.2990 C   0  0  0  0  0  0  0  0  0  0  0  0
    0.9735   -2.6983   -2.2673 O   0  0  0  0  0  0  0  0  0  0  0  0
    1.7424   -0.8425   -4.9336 C   0  0  0  0  0  0  0  0  0  0  0  0
    2.2194   -0.3393   -2.3419 H   0  0  0  0  0  0  0  0  0  0  0  0
   -0.1948   -0.4010   -4.1304 H   0  0  0  0  0  0  0  0  0  0  0  0
    2.6898   -1.2972   -4.6261 H   0  0  0  0  0  0  0  0  0  0  0  0
    1.3447   -1.4105   -5.7807 H   0  0  0  0  0  0  0  0  0  0  0  0
    1.9382    0.1812   -5.2685 H   0  0  0  0  0  0  0  0  0  0  0  0
   -0.3823   -3.1104   -4.0228 N   0  0  0  0  0  0  0  0  0  0  0  0
   -0.7009   -4.4761   -3.6211 C   0  0  0  0  0  0  0  0  0  0  0  0
   -0.8265   -2.7284   -4.8537 H   0  0  0  0  0  0  0  0  0  0  0  0
    0.2125   -5.0742   -3.5352 H   0  0  0  0  0  0  0  0  0  0  0  0
   -1.2183   -4.4821   -2.6559 H   0  0  0  0  0  0  0  0  0  0  0  0
   -1.3510   -4.9478   -4.3646 H   0  0  0  0  0  0  0  0  0  0  0  0
  1  2  2  0  0  0  0
  1  3  1  0  0  0  0
  1  7  1  0  0  0  0
  3  4  1  0  0  0  0
  3  5  1  0  0  0  0
  3  6  1  0  0  0  0
  7  8  1  0  0  0  0
  7 12  1  0  0  0  0
  8  9  1  0  0  0  0
  8 11  1  0  0  0  0
  8 13  1  0  0  0  0
  9 10  2  0  0  0  0
  9 17  1  0  0  0  0
 11 14  1  0  0  0  0
 11 15  1  0  0  0  0
 11 16  1  0  0  0  0
 17 18  1  0  0  0  0
 17 27  1  0  0  0  0
 18 19  1  0  0  0  0
 18 21  1  0  0  0  0
 18 28  1  0  0  0  0
 19 20  2  0  0  0  0
 19 35  1  0  0  0  0
 21 22  1  0  0  0  0
 21 29  1  0  0  0  0
 21 30  1  0  0  0  0
 22 23  1  0  0  0  0
 22 24  2  0  0  0  0
 23 25  2  0  0  0  0
 23 31  1  0  0  0  0
 24 26  1  0  0  0  0
 24 32  1  0  0  0  0
 25 26  1  0  0  0  0
 25 33  1  0  0  0  0
 26 34  1  0  0  0  0
 35 36  1  0  0  0  0
 35 40  1  0  0  0  0
 36 37  1  0  0  0  0
 36 39  1  0  0  0  0
 36 41  1  0  0  0  0
 37 38  2  0  0  0  0
 37 45  1  0  0  0  0
 39 42  1  0  0  0  0
 39 43  1  0  0  0  0
 39 44  1  0  0  0  0
 45 46  1  0  0  0  0
 45 47  1  0  0  0  0
 46 48  1  0  0  0  0
 46 49  1  0  0  0  0
 46 50  1  0  0  0  0
M  CHG  1  23   1
M  END
$$$$

  -OEChem-05262216443D

 50 50  0     1  0  0  0  0  0999 V2000
   -2.1181    0.4487    4.2489 C   0  0  0  0  0  0  0  0  0  0  0  0
   -1.7599   -0.6126    3.7572 O   0  0  0  0  0  0  0  0  0  0  0  0
   -2.3877    0.5420    5.7384 C   0  0  0  0  0  0  0  0  0  0  0  0
   -2.2794   -0.4411    6.2049 H   0  0  0  0  0  0  0  0  0  0  0  0
   -1.6817    1.2345    6.2030 H   0  0  0  0  0  0  0  0  0  0  0  0
   -3.4056    0.9002    5.9118 H   0  0  0  0  0  0  0  0  0  0  0  0
   -2.2448    1.5719    3.4585 N   0  0  0  0  0  0  0  0  0  0  0  0
   -1.9422    1.5941    2.0196 C   0  0  2  0  0  0  0  0  0  0  0  0
   -0.4311    1.5364    1.6823 C   0  0  0  0  0  0  0  0  0  0  0  0
    0.4221    1.6407    2.5567 O   0  0  0  0  0  0  0  0  0  0  0  0
   -2.5790    2.8648    1.4467 C   0  0  0  0  0  0  0  0  0  0  0  0
   -2.4141    2.4543    3.9334 H   0  0  0  0  0  0  0  0  0  0  0  0
   -2.4160    0.7276    1.5450 H   0  0  0  0  0  0  0  0  0  0  0  0
   -2.1086    3.7570    1.8732 H   0  0  0  0  0  0  0  0  0  0  0  0
   -2.4637    2.8994    0.3589 H   0  0  0  0  0  0  0  0  0  0  0  0
   -3.6494    2.8903    1.6750 H   0  0  0  0  0  0  0  0  0  0  0  0
   -0.0205    1.5368    0.3617 N   0  0  0  0  0  0  0  0  0  0  0  0
    1.1131    0.8258   -0.2784 C   0  0  2  0  0  0  0  0  0  0  0  0
    0.6840    0.5580   -1.7552 C   0  0  0  0  0  0  0  0  0  0  0  0
   -0.3865    1.0053   -2.1554 O   0  0  0  0  0  0  0  0  0  0  0  0
    1.4286   -0.5967    0.2987 C   0  0  0  0  0  0  0  0  0  0  0  0
    1.8821   -0.6765    1.7326 C   0  0  0  0  0  0  0  0  0  0  0  0
    3.1287   -0.3388    2.2615 N   0  3  0  0  0  0  0  0  0  0  0  0
    1.1540   -1.2524    2.7435 C   0  0  0  0  0  0  0  0  0  0  0  0
    3.1540   -0.5838    3.5500 C   0  0  0  0  0  0  0  0  0  0  0  0
    1.9372   -1.1724    3.8835 N   0  0  0  0  0  0  0  0  0  0  0  0
   -0.7917    1.6834   -0.2952 H   0  0  0  0  0  0  0  0  0  0  0  0
    2.0070    1.4563   -0.2578 H   0  0  0  0  0  0  0  0  0  0  0  0
    2.2096   -1.0790   -0.2952 H   0  0  0  0  0  0  0  0  0  0  0  0
    0.5258   -1.2105    0.1911 H   0  0  0  0  0  0  0  0  0  0  0  0
    3.8419    0.1595    1.7261 H   0  0  0  0  0  0  0  0  0  0  0  0
    0.1424   -1.6532    2.6680 H   0  0  0  0  0  0  0  0  0  0  0  0
    3.9676   -0.3512    4.2381 H   0  0  0  0  0  0  0  0  0  0  0  0
    1.6321   -1.4379    4.8233 H   0  0  0  0  0  0  0  0  0  0  0  0
    1.3544   -0.3396   -2.5712 N   0  0  0  0  0  0  0  0  0  0  0  0
    0.6695   -1.1065   -3.6237 C   0  0  2  0  0  0  0  0  0  0  0  0
    0.1275   -2.4397   -3.0623 C   0  0  0  0  0  0  0  0  0  0  0  0
    0.5547   -2.8647   -1.9914 O   0  0  0  0  0  0  0  0  0  0  0  0
    1.6746   -1.3606   -4.7495 C   0  0  0  0  0  0  0  0  0  0  0  0
    2.1450   -0.8116   -2.1442 H   0  0  0  0  0  0  0  0  0  0  0  0
   -0.1726   -0.5405   -4.0368 H   0  0  0  0  0  0  0  0  0  0  0  0
    2.5218   -1.9505   -4.3848 H   0  0  0  0  0  0  0  0  0  0  0  0
    1.2000   -1.9066   -5.5709 H   0  0  0  0  0  0  0  0  0  0  0  0
    2.0525   -0.4109   -5.1414 H   0  0  0  0  0  0  0  0  0  0  0  0
   -0.8294   -3.1610   -3.7497 N   0  0  0  0  0  0  0  0  0  0  0  0
   -1.3854   -4.4203   -3.2675 C   0  0  0  0  0  0  0  0  0  0  0  0
   -1.1849   -2.7701   -4.6183 H   0  0  0  0  0  0  0  0  0  0  0  0
   -0.5943   -5.1673   -3.1428 H   0  0  0  0  0  0  0  0  0  0  0  0
   -1.8876   -4.2749   -2.3054 H   0  0  0  0  0  0  0  0  0  0  0  0
   -2.1160   -4.8101   -3.9831 H   0  0  0  0  0  0  0  0  0  0  0  0
  1  2  2  0  0  0  0
  1  3  1  0  0  0  0
  1  7  1  0  0  0  0
  3  4  1  0  0  0  0
  3  5  1  0  0  0  0
  3  6  1  0  0  0  0
  7  8  1  0  0  0  0
  7 12  1  0  0  0  0
  8  9  1  0  0  0  0
  8 11  1  0  0  0  0
  8 13  1  0  0  0  0
  9 10  2  0  0  0  0
  9 17  1  0  0  0  0
 11 14  1  0  0  0  0
 11 15  1  0  0  0  0
 11 16  1  0  0  0  0
 17 18  1  0  0  0  0
 17 27  1  0  0  0  0
 18 19  1  0  0  0  0
 18 21  1  0  0  0  0
 18 28  1  0  0  0  0
 19 20  2  0  0  0  0
 19 35  1  0  0  0  0
 21 22  1  0  0  0  0
 21 29  1  0  0  0  0
 21 30  1  0  0  0  0
 22 23  1  0  0  0  0
 22 24  2  0  0  0  0
 23 25  2  0  0  0  0
 23 31  1  0  0  0  0
 24 26  1  0  0  0  0
 24 32  1  0  0  0  0
 25 26  1  0  0  0  0
 25 33  1  0  0  0  0
 26 34  1  0  0  0  0
 35 36  1  0  0  0  0
 35 40  1  0  0  0  0
 36 37  1  0  0  0  0
 36 39  1  0  0  0  0
 36 41  1  0  0  0  0
 37 38  2  0  0  0  0
 37 45  1  0  0  0  0
 39 42  1  0  0  0  0
 39 43  1  0  0  0  0
 39 44  1  0  0  0  0
 45 46  1  0  0  0  0
 45 47  1  0  0  0  0
 46 48  1  0  0  0  0
 46 49  1  0  0  0  0
 46 50  1  0  0  0  0
M  CHG  1  23   1
M  END
$$$$

  -OEChem-05262216443D

 50 50  0     1  0  0  0  0  0999 V2000
   -2.1701    0.4068    4.1384 C   0  0  0  0  0  0  0  0  0  0  0  0
   -1.7343   -0.6498    3.7023 O   0  0  0  0  0  0  0  0  0  0  0  0
   -2.5283    0.5303    5.6070 C   0  0  0  0  0  0  0  0  0  0  0  0
   -2.3991   -0.4320    6.1099 H   0  0  0  0  0  0  0  0  0  0  0  0
   -1.8846    1.2704    6.0883 H   0  0  0  0  0  0  0  0  0  0  0  0
   -3.5705    0.8417    5.7121 H   0  0  0  0  0  0  0  0  0  0  0  0
   -2.3096    1.4964    3.3038 N   0  0  0  0  0  0  0  0  0  0  0  0
   -1.9395    1.4860    1.8806 C   0  0  2  0  0  0  0  0  0  0  0  0
   -0.4133    1.4876    1.6142 C   0  0  0  0  0  0  0  0  0  0  0  0
    0.3942    1.6465    2.5228 O   0  0  0  0  0  0  0  0  0  0  0  0
   -2.6074    2.7034    1.2327 C   0  0  0  0  0  0  0  0  0  0  0  0
   -2.5563    2.3823    3.7363 H   0  0  0  0  0  0  0  0  0  0  0  0
   -2.3483    0.5818    1.4159 H   0  0  0  0  0  0  0  0  0  0  0  0
   -2.1974    3.6313    1.6446 H   0  0  0  0  0  0  0  0  0  0  0  0
   -2.4467    2.7036    0.1499 H   0  0  0  0  0  0  0  0  0  0  0  0
   -3.6867    2.6868    1.4151 H   0  0  0  0  0  0  0  0  0  0  0  0
    0.0565    1.4560    0.3139 N   0  0  0  0  0  0  0  0  0  0  0  0
    1.2325    0.7550   -0.2556 C   0  0  2  0  0  0  0  0  0  0  0  0
    0.8563    0.4389   -1.7394 C   0  0  0  0  0  0  0  0  0  0  0  0
   -0.0532    1.0748   -2.2623 O   0  0  0  0  0  0  0  0  0  0  0  0
    1.5884   -0.6235    0.3956 C   0  0  0  0  0  0  0  0  0  0  0  0
    2.0056   -0.6178    1.8422 C   0  0  0  0  0  0  0  0  0  0  0  0
    3.2224   -0.2052    2.3871 N   0  3  0  0  0  0  0  0  0  0  0  0
    1.2735   -1.1792    2.8583 C   0  0  0  0  0  0  0  0  0  0  0  0
    3.2218   -0.3934    3.6855 C   0  0  0  0  0  0  0  0  0  0  0  0
    2.0217   -1.0188    4.0131 N   0  0  0  0  0  0  0  0  0  0  0  0
   -0.6785    1.5953   -0.3843 H   0  0  0  0  0  0  0  0  0  0  0  0
    2.1024    1.4182   -0.2326 H   0  0  0  0  0  0  0  0  0  0  0  0
    2.4113   -1.0890   -0.1535 H   0  0  0  0  0  0  0  0  0  0  0  0
    0.7157   -1.2806    0.2950 H   0  0  0  0  0  0  0  0  0  0  0  0
    3.9288    0.3000    1.8487 H   0  0  0  0  0  0  0  0  0  0  0  0
    0.2806   -1.6234    2.7743 H   0  0  0  0  0  0  0  0  0  0  0  0
    4.0049   -0.0971    4.3843 H   0  0  0  0  0  0  0  0  0  0  0  0
    1.7026   -1.2580    4.9553 H   0  0  0  0  0  0  0  0  0  0  0  0
    1.3479   -0.6587   -2.4301 N   0  0  0  0  0  0  0  0  0  0  0  0
    0.5647   -1.3424   -3.4718 C   0  0  2  0  0  0  0  0  0  0  0  0
   -0.3002   -2.4611   -2.8506 C   0  0  0  0  0  0  0  0  0  0  0  0
   -0.0280   -2.8831   -1.7293 O   0  0  0  0  0  0  0  0  0  0  0  0
    1.5455   -1.9203   -4.4942 C   0  0  0  0  0  0  0  0  0  0  0  0
    1.9537   -1.2708   -1.8933 H   0  0  0  0  0  0  0  0  0  0  0  0
   -0.0985   -0.6419   -3.9908 H   0  0  0  0  0  0  0  0  0  0  0  0
    2.2109   -2.6500   -4.0216 H   0  0  0  0  0  0  0  0  0  0  0  0
    1.0038   -2.4186   -5.3044 H   0  0  0  0  0  0  0  0  0  0  0  0
    2.1547   -1.1213   -4.9287 H   0  0  0  0  0  0  0  0  0  0  0  0
   -1.3740   -2.9937   -3.5377 N   0  0  0  0  0  0  0  0  0  0  0  0
   -2.2303   -4.0438   -2.9968 C   0  0  0  0  0  0  0  0  0  0  0  0
   -1.5903   -2.6085   -4.4534 H   0  0  0  0  0  0  0  0  0  0  0  0
   -1.6484   -4.9506   -2.8005 H   0  0  0  0  0  0  0  0  0  0  0  0
   -2.6970   -3.7155   -2.0619 H   0  0  0  0  0  0  0  0  0  0  0  0
   -3.0237   -4.2908   -3.7094 H   0  0  0  0  0  0  0  0  0  0  0  0
  1  2  2  0  0  0  0
  1  3  1  0  0  0  0
  1  7  1  0  0  0  0
  3  4  1  0  0  0  0
  3  5  1  0  0  0  0
  3  6  1  0  0  0  0
  7  8  1  0  0  0  0
  7 12  1  0  0  0  0
  8  9  1  0  0  0  0
  8 11  1  0  0  0  0
  8 13  1  0  0  0  0
  9 10  2  0  0  0  0
  9 17  1  0  0  0  0
 11 14  1  0  0  0  0
 11 15  1  0  0  0  0
 11 16  1  0  0  0  0
 17 18  1  0  0  0  0
 17 27  1  0  0  0  0
 18 19  1  0  0  0  0
 18 21  1  0  0  0  0
 18 28  1  0  0  0  0
 19 20  2  0  0  0  0
 19 35  1  0  0  0  0
 21 22  1  0  0  0  0
 21 29  1  0  0  0  0
 21 30  1  0  0  0  0
 22 23  1  0  0  0  0
 22 24  2  0  0  0  0
 23 25  2  0  0  0  0
 23 31  1  0  0  0  0
 24 26  1  0  0  0  0
 24 32  1  0  0  0  0
 25 26  1  0  0  0  0
 25 33  1  0  0  0  0
 26 34  1  0  0  0  0
 35 36  1  0  0  0  0
 35 40  1  0  0  0  0
 36 37  1  0  0  0  0
 36 39  1  0  0  0  0
 36 41  1  0  0  0  0
 37 38  2  0  0  0  0
 37 45  1  0  0  0  0
 39 42  1  0  0  0  0
 39 43  1  0  0  0  0
 39 44  1  0  0  0  0
 45 46  1  0  0  0  0
 45 47  1  0  0  0  0
 46 48  1  0  0  0  0
 46 49  1  0  0  0  0
 46 50  1  0  0  0  0
M  CHG  1  23   1
M  END
$$$$

  -OEChem-05262216443D

 50 50  0     1  0  0  0  0  0999 V2000
   -2.1897    0.3424    4.0530 C   0  0  0  0  0  0  0  0  0  0  0  0
   -1.6738   -0.7073    3.6943 O   0  0  0  0  0  0  0  0  0  0  0  0
   -2.5777    0.5370    5.5060 C   0  0  0  0  0  0  0  0  0  0  0  0
   -2.4363   -0.3936    6.0624 H   0  0  0  0  0  0  0  0  0  0  0  0
   -1.9592    1.3172    5.9564 H   0  0  0  0  0  0  0  0  0  0  0  0
   -3.6284    0.8292    5.5764 H   0  0  0  0  0  0  0  0  0  0  0  0
   -2.3860    1.3656    3.1486 N   0  0  0  0  0  0  0  0  0  0  0  0
   -1.9683    1.2976    1.7401 C   0  0  2  0  0  0  0  0  0  0  0  0
   -0.4363    1.3813    1.5239 C   0  0  0  0  0  0  0  0  0  0  0  0
    0.3271    1.6248    2.4517 O   0  0  0  0  0  0  0  0  0  0  0  0
   -2.6867    2.4322    1.0016 C   0  0  0  0  0  0  0  0  0  0  0  0
   -2.6901    2.2602    3.5228 H   0  0  0  0  0  0  0  0  0  0  0  0
   -2.3050    0.3442    1.3173 H   0  0  0  0  0  0  0  0  0  0  0  0
   -2.3466    3.4059    1.3692 H   0  0  0  0  0  0  0  0  0  0  0  0
   -2.4909    2.3805   -0.0741 H   0  0  0  0  0  0  0  0  0  0  0  0
   -3.7685    2.3593    1.1528 H   0  0  0  0  0  0  0  0  0  0  0  0
    0.0834    1.3282    0.2436 N   0  0  0  0  0  0  0  0  0  0  0  0
    1.3131    0.6673   -0.2542 C   0  0  2  0  0  0  0  0  0  0  0  0
    1.0014    0.2847   -1.7355 C   0  0  0  0  0  0  0  0  0  0  0  0
    0.2646    1.0245   -2.3774 O   0  0  0  0  0  0  0  0  0  0  0  0
    1.7344   -0.6535    0.4689 C   0  0  0  0  0  0  0  0  0  0  0  0
    2.1107   -0.5509    1.9230 C   0  0  0  0  0  0  0  0  0  0  0  0
    3.2844   -0.0360    2.4751 N   0  3  0  0  0  0  0  0  0  0  0  0
    1.3838   -1.1015    2.9489 C   0  0  0  0  0  0  0  0  0  0  0  0
    3.2557   -0.1528    3.7816 C   0  0  0  0  0  0  0  0  0  0  0  0
    2.0862   -0.8325    4.1121 N   0  0  0  0  0  0  0  0  0  0  0  0
   -0.6261    1.4224   -0.4864 H   0  0  0  0  0  0  0  0  0  0  0  0
    2.1429    1.3806   -0.2334 H   0  0  0  0  0  0  0  0  0  0  0  0
    2.5968   -1.0891   -0.0456 H   0  0  0  0  0  0  0  0  0  0  0  0
    0.9031   -1.3647    0.3868 H   0  0  0  0  0  0  0  0  0  0  0  0
    3.9712    0.4879    1.9289 H   0  0  0  0  0  0  0  0  0  0  0  0
    0.4196   -1.6053    2.8639 H   0  0  0  0  0  0  0  0  0  0  0  0
    3.9975    0.2308    4.4830 H   0  0  0  0  0  0  0  0  0  0  0  0
    1.7507   -1.0326    5.0579 H   0  0  0  0  0  0  0  0  0  0  0  0
    1.3088   -0.9495   -2.2906 N   0  0  0  0  0  0  0  0  0  0  0  0
    0.4494   -1.5622   -3.3162 C   0  0  2  0  0  0  0  0  0  0  0  0
   -0.7301   -2.3100   -2.6557 C   0  0  0  0  0  0  0  0  0  0  0  0
   -0.6608   -2.6194   -1.4687 O   0  0  0  0  0  0  0  0  0  0  0  0
    1.3075   -2.5257   -4.1393 C   0  0  0  0  0  0  0  0  0  0  0  0
    1.7287   -1.6134   -1.6485 H   0  0  0  0  0  0  0  0  0  0  0  0
    0.0430   -0.8014   -3.9919 H   0  0  0  0  0  0  0  0  0  0  0  0
    1.7152   -3.3188   -3.5043 H   0  0  0  0  0  0  0  0  0  0  0  0
    0.7104   -2.9891   -4.9310 H   0  0  0  0  0  0  0  0  0  0  0  0
    2.1393   -1.9883   -4.6057 H   0  0  0  0  0  0  0  0  0  0  0  0
   -1.8620   -2.6318   -3.3795 N   0  0  0  0  0  0  0  0  0  0  0  0
   -3.0154   -3.3118   -2.8007 C   0  0  0  0  0  0  0  0  0  0  0  0
   -1.9063   -2.3305   -4.3496 H   0  0  0  0  0  0  0  0  0  0  0  0
   -2.7268   -4.2934   -2.4100 H   0  0  0  0  0  0  0  0  0  0  0  0
   -3.4401   -2.7188   -1.9838 H   0  0  0  0  0  0  0  0  0  0  0  0
   -3.7902   -3.4577   -3.5597 H   0  0  0  0  0  0  0  0  0  0  0  0
  1  2  2  0  0  0  0
  1  3  1  0  0  0  0
  1  7  1  0  0  0  0
  3  4  1  0  0  0  0
  3  5  1  0  0  0  0
  3  6  1  0  0  0  0
  7  8  1  0  0  0  0
  7 12  1  0  0  0  0
  8  9  1  0  0  0  0
  8 11  1  0  0  0  0
  8 13  1  0  0  0  0
  9 10  2  0  0  0  0
  9 17  1  0  0  0  0
 11 14  1  0  0  0  0
 11 15  1  0  0  0  0
 11 16  1  0  0  0  0
 17 18  1  0  0  0  0
 17 27  1  0  0  0  0
 18 19  1  0  0  0  0
 18 21  1  0  0  0  0
 18 28  1  0  0  0  0
 19 20  2  0  0  0  0
 19 35  1  0  0  0  0
 21 22  1  0  0  0  0
 21 29  1  0  0  0  0
 21 30  1  0  0  0  0
 22 23  1  0  0  0  0
 22 24  2  0  0  0  0
 23 25  2  0  0  0  0
 23 31  1  0  0  0  0
 24 26  1  0  0  0  0
 24 32  1  0  0  0  0
 25 26  1  0  0  0  0
 25 33  1  0  0  0  0
 26 34  1  0  0  0  0
 35 36  1  0  0  0  0
 35 40  1  0  0  0  0
 36 37  1  0  0  0  0
 36 39  1  0  0  0  0
 36 41  1  0  0  0  0
 37 38  2  0  0  0  0
 37 45  1  0  0  0  0
 39 42  1  0  0  0  0
 39 43  1  0  0  0  0
 39 44  1  0  0  0  0
 45 46  1  0  0  0  0
 45 47  1  0  0  0  0
 46 48  1  0  0  0  0
 46 49  1  0  0  0  0
 46 50  1  0  0  0  0
M  CHG  1  23   1
M  END
$$$$

  -OEChem-05262216443D

 50 50  0     1  0  0  0  0  0999 V2000
   -2.1494    0.3454    4.0420 C   0  0  0  0  0  0  0  0  0  0  0  0
   -1.5000   -0.6841    3.9137 O   0  0  0  0  0  0  0  0  0  0  0  0
   -2.6223    0.7721    5.4184 C   0  0  0  0  0  0  0  0  0  0  0  0
   -2.3575    0.0148    6.1614 H   0  0  0  0  0  0  0  0  0  0  0  0
   -2.1537    1.7191    5.6970 H   0  0  0  0  0  0  0  0  0  0  0  0
   -3.7082    0.8968    5.4184 H   0  0  0  0  0  0  0  0  0  0  0  0
   -2.4286    1.1403    2.9489 N   0  0  0  0  0  0  0  0  0  0  0  0
   -1.9246    0.8724    1.5926 C   0  0  2  0  0  0  0  0  0  0  0  0
   -0.4312    1.2338    1.3899 C   0  0  0  0  0  0  0  0  0  0  0  0
    0.2686    1.6214    2.3193 O   0  0  0  0  0  0  0  0  0  0  0  0
   -2.8233    1.6390    0.6157 C   0  0  0  0  0  0  0  0  0  0  0  0
   -2.8458    2.0475    3.1383 H   0  0  0  0  0  0  0  0  0  0  0  0
   -2.0280   -0.1972    1.3758 H   0  0  0  0  0  0  0  0  0  0  0  0
   -2.7049    2.7193    0.7494 H   0  0  0  0  0  0  0  0  0  0  0  0
   -2.5738    1.3865   -0.4199 H   0  0  0  0  0  0  0  0  0  0  0  0
   -3.8737    1.3790    0.7822 H   0  0  0  0  0  0  0  0  0  0  0  0
    0.1316    1.1978    0.1290 N   0  0  0  0  0  0  0  0  0  0  0  0
    1.4176    0.5942   -0.2882 C   0  0  2  0  0  0  0  0  0  0  0  0
    1.1846    0.1721   -1.7685 C   0  0  0  0  0  0  0  0  0  0  0  0
    0.6336    0.9729   -2.5132 O   0  0  0  0  0  0  0  0  0  0  0  0
    1.8853   -0.6747    0.4930 C   0  0  0  0  0  0  0  0  0  0  0  0
    2.1877   -0.4944    1.9570 C   0  0  0  0  0  0  0  0  0  0  0  0
    3.2990    0.1135    2.5426 N   0  3  0  0  0  0  0  0  0  0  0  0
    1.4365   -1.0340    2.9707 C   0  0  0  0  0  0  0  0  0  0  0  0
    3.1997    0.0656    3.8504 C   0  0  0  0  0  0  0  0  0  0  0  0
    2.0532   -0.6643    4.1538 N   0  0  0  0  0  0  0  0  0  0  0  0
   -0.5672    1.1657   -0.6153 H   0  0  0  0  0  0  0  0  0  0  0  0
    2.2027    1.3557   -0.2541 H   0  0  0  0  0  0  0  0  0  0  0  0
    2.7874   -1.0763    0.0197 H   0  0  0  0  0  0  0  0  0  0  0  0
    1.0973   -1.4331    0.4123 H   0  0  0  0  0  0  0  0  0  0  0  0
    3.9808    0.6552    2.0076 H   0  0  0  0  0  0  0  0  0  0  0  0
    0.5020   -1.5874    2.8668 H   0  0  0  0  0  0  0  0  0  0  0  0
    3.8736    0.5335    4.5689 H   0  0  0  0  0  0  0  0  0  0  0  0
    1.6603   -0.8149    5.0868 H   0  0  0  0  0  0  0  0  0  0  0  0
    1.2909   -1.1400   -2.2086 N   0  0  0  0  0  0  0  0  0  0  0  0
    0.2763   -1.6676   -3.1356 C   0  0  2  0  0  0  0  0  0  0  0  0
   -1.0914   -1.8406   -2.4288 C   0  0  0  0  0  0  0  0  0  0  0  0
   -1.1642   -1.7820   -1.2020 O   0  0  0  0  0  0  0  0  0  0  0  0
    0.7808   -3.0093   -3.6726 C   0  0  0  0  0  0  0  0  0  0  0  0
    1.5932   -1.7981   -1.4994 H   0  0  0  0  0  0  0  0  0  0  0  0
    0.1439   -0.9839   -3.9819 H   0  0  0  0  0  0  0  0  0  0  0  0
    0.9031   -3.7305   -2.8580 H   0  0  0  0  0  0  0  0  0  0  0  0
    0.0722   -3.4230   -4.3973 H   0  0  0  0  0  0  0  0  0  0  0  0
    1.7459   -2.8794   -4.1730 H   0  0  0  0  0  0  0  0  0  0  0  0
   -2.2422   -2.0581   -3.1613 N   0  0  0  0  0  0  0  0  0  0  0  0
   -3.5580   -2.2304   -2.5559 C   0  0  0  0  0  0  0  0  0  0  0  0
   -2.1651   -2.0636   -4.1751 H   0  0  0  0  0  0  0  0  0  0  0  0
   -3.5605   -3.0949   -1.8835 H   0  0  0  0  0  0  0  0  0  0  0  0
   -3.8379   -1.3388   -1.9851 H   0  0  0  0  0  0  0  0  0  0  0  0
   -4.3131   -2.3954   -3.3309 H   0  0  0  0  0  0  0  0  0  0  0  0
  1  2  2  0  0  0  0
  1  3  1  0  0  0  0
  1  7  1  0  0  0  0
  3  4  1  0  0  0  0
  3  5  1  0  0  0  0
  3  6  1  0  0  0  0
  7  8  1  0  0  0  0
  7 12  1  0  0  0  0
  8  9  1  0  0  0  0
  8 11  1  0  0  0  0
  8 13  1  0  0  0  0
  9 10  2  0  0  0  0
  9 17  1  0  0  0  0
 11 14  1  0  0  0  0
 11 15  1  0  0  0  0
 11 16  1  0  0  0  0
 17 18  1  0  0  0  0
 17 27  1  0  0  0  0
 18 19  1  0  0  0  0
 18 21  1  0  0  0  0
 18 28  1  0  0  0  0
 19 20  2  0  0  0  0
 19 35  1  0  0  0  0
 21 22  1  0  0  0  0
 21 29  1  0  0  0  0
 21 30  1  0  0  0  0
 22 23  1  0  0  0  0
 22 24  2  0  0  0  0
 23 25  2  0  0  0  0
 23 31  1  0  0  0  0
 24 26  1  0  0  0  0
 24 32  1  0  0  0  0
 25 26  1  0  0  0  0
 25 33  1  0  0  0  0
 26 34  1  0  0  0  0
 35 36  1  0  0  0  0
 35 40  1  0  0  0  0
 36 37  1  0  0  0  0
 36 39  1  0  0  0  0
 36 41  1  0  0  0  0
 37 38  2  0  0  0  0
 37 45  1  0  0  0  0
 39 42  1  0  0  0  0
 39 43  1  0  0  0  0
 39 44  1  0  0  0  0
 45 46  1  0  0  0  0
 45 47  1  0  0  0  0
 46 48  1  0  0  0  0
 46 49  1  0  0  0  0
 46 50  1  0  0  0  0
M  CHG  1  23   1
M  END
$$$$

  -OEChem-05262216443D

 50 50  0     1  0  0  0  0  0999 V2000
   -2.1598    0.2297    3.9884 C   0  0  0  0  0  0  0  0  0  0  0  0
   -1.4691   -0.7688    3.8336 O   0  0  0  0  0  0  0  0  0  0  0  0
   -2.6412    0.6095    5.3752 C   0  0  0  0  0  0  0  0  0  0  0  0
   -2.3687   -0.1660    6.0961 H   0  0  0  0  0  0  0  0  0  0  0  0
   -2.1870    1.5545    5.6826 H   0  0  0  0  0  0  0  0  0  0  0  0
   -3.7284    0.7199    5.3752 H   0  0  0  0  0  0  0  0  0  0  0  0
   -2.4744    1.0347    2.9136 N   0  0  0  0  0  0  0  0  0  0  0  0
   -1.9914    0.7933    1.5460 C   0  0  2  0  0  0  0  0  0  0  0  0
   -0.4963    1.1363    1.3285 C   0  0  0  0  0  0  0  0  0  0  0  0
    0.1915    1.6198    2.2209 O   0  0  0  0  0  0  0  0  0  0  0  0
   -2.8851    1.6030    0.6005 C   0  0  0  0  0  0  0  0  0  0  0  0
   -2.9369    1.9164    3.1161 H   0  0  0  0  0  0  0  0  0  0  0  0
   -2.1182   -0.2686    1.3054 H   0  0  0  0  0  0  0  0  0  0  0  0
   -2.7576    2.6763    0.7754 H   0  0  0  0  0  0  0  0  0  0  0  0
   -2.6374    1.3882   -0.4439 H   0  0  0  0  0  0  0  0  0  0  0  0
   -3.9370    1.3439    0.7577 H   0  0  0  0  0  0  0  0  0  0  0  0
    0.0638    0.9810    0.0759 N   0  0  0  0  0  0  0  0  0  0  0  0
    1.3695    0.3827   -0.2818 C   0  0  2  0  0  0  0  0  0  0  0  0
    1.1401   -0.2035   -1.6963 C   0  0  0  0  0  0  0  0  0  0  0  0
    0.8838    0.5711   -2.6071 O   0  0  0  0  0  0  0  0  0  0  0  0
    1.9560   -0.7381    0.6291 C   0  0  0  0  0  0  0  0  0  0  0  0
    2.3020   -0.3361    2.0390 C   0  0  0  0  0  0  0  0  0  0  0  0
    3.3966    0.4218    2.4573 N   0  3  0  0  0  0  0  0  0  0  0  0
    1.6522   -0.7712    3.1674 C   0  0  0  0  0  0  0  0  0  0  0  0
    3.3815    0.5537    3.7624 C   0  0  0  0  0  0  0  0  0  0  0  0
    2.3120   -0.1976    4.2425 N   0  0  0  0  0  0  0  0  0  0  0  0
   -0.6515    0.7902   -0.6309 H   0  0  0  0  0  0  0  0  0  0  0  0
    2.1071    1.1875   -0.3605 H   0  0  0  0  0  0  0  0  0  0  0  0
    2.8575   -1.1469    0.1593 H   0  0  0  0  0  0  0  0  0  0  0  0
    1.2196   -1.5460    0.6962 H   0  0  0  0  0  0  0  0  0  0  0  0
    4.0092    0.9171    1.8055 H   0  0  0  0  0  0  0  0  0  0  0  0
    0.7606   -1.3981    3.2044 H   0  0  0  0  0  0  0  0  0  0  0  0
    4.0639    1.1590    4.3605 H   0  0  0  0  0  0  0  0  0  0  0  0
    2.0015   -0.2509    5.2161 H   0  0  0  0  0  0  0  0  0  0  0  0
    0.9879   -1.5620   -1.9285 N   0  0  0  0  0  0  0  0  0  0  0  0
   -0.0227   -1.9881   -2.9113 C   0  0  2  0  0  0  0  0  0  0  0  0
   -1.4587   -1.5990   -2.4696 C   0  0  0  0  0  0  0  0  0  0  0  0
   -1.6797   -1.2509   -1.3096 O   0  0  0  0  0  0  0  0  0  0  0  0
    0.0950   -3.5050   -3.0780 C   0  0  0  0  0  0  0  0  0  0  0  0
    1.0375   -2.1378   -1.0956 H   0  0  0  0  0  0  0  0  0  0  0  0
    0.1791   -1.5136   -3.8785 H   0  0  0  0  0  0  0  0  0  0  0  0
   -0.1239   -4.0151   -2.1343 H   0  0  0  0  0  0  0  0  0  0  0  0
   -0.6092   -3.8631   -3.8357 H   0  0  0  0  0  0  0  0  0  0  0  0
    1.1073   -3.7748   -3.3958 H   0  0  0  0  0  0  0  0  0  0  0  0
   -2.5020   -1.6157   -3.3753 N   0  0  0  0  0  0  0  0  0  0  0  0
   -3.8606   -1.1999   -3.0437 C   0  0  0  0  0  0  0  0  0  0  0  0
   -2.2809   -1.8286   -4.3446 H   0  0  0  0  0  0  0  0  0  0  0  0
   -4.2527   -1.7930   -2.2106 H   0  0  0  0  0  0  0  0  0  0  0  0
   -3.8805   -0.1414   -2.7633 H   0  0  0  0  0  0  0  0  0  0  0  0
   -4.5207   -1.3415   -3.9052 H   0  0  0  0  0  0  0  0  0  0  0  0
  1  2  2  0  0  0  0
  1  3  1  0  0  0  0
  1  7  1  0  0  0  0
  3  4  1  0  0  0  0
  3  5  1  0  0  0  0
  3  6  1  0  0  0  0
  7  8  1  0  0  0  0
  7 12  1  0  0  0  0
  8  9  1  0  0  0  0
  8 11  1  0  0  0  0
  8 13  1  0  0  0  0
  9 10  2  0  0  0  0
  9 17  1  0  0  0  0
 11 14  1  0  0  0  0
 11 15  1  0  0  0  0
 11 16  1  0  0  0  0
 17 18  1  0  0  0  0
 17 27  1  0  0  0  0
 18 19  1  0  0  0  0
 18 21  1  0  0  0  0
 18 28  1  0  0  0  0
 19 20  2  0  0  0  0
 19 35  1  0  0  0  0
 21 22  1  0  0  0  0
 21 29  1  0  0  0  0
 21 30  1  0  0  0  0
 22 23  1  0  0  0  0
 22 24  2  0  0  0  0
 23 25  2  0  0  0  0
 23 31  1  0  0  0  0
 24 26  1  0  0  0  0
 24 32  1  0  0  0  0
 25 26  1  0  0  0  0
 25 33  1  0  0  0  0
 26 34  1  0  0  0  0
 35 36  1  0  0  0  0
 35 40  1  0  0  0  0
 36 37  1  0  0  0  0
 36 39  1  0  0  0  0
 36 41  1  0  0  0  0
 37 38  2  0  0  0  0
 37 45  1  0  0  0  0
 39 42  1  0  0  0  0
 39 43  1  0  0  0  0
 39 44  1  0  0  0  0
 45 46  1  0  0  0  0
 45 47  1  0  0  0  0
 46 48  1  0  0  0  0
 46 49  1  0  0  0  0
 46 50  1  0  0  0  0
M  CHG  1  23   1
M  END
$$$$

  -OEChem-05262216443D

 50 50  0     1  0  0  0  0  0999 V2000
   -2.1930   -0.1101    3.5283 C   0  0  0  0  0  0  0  0  0  0  0  0
   -1.4603   -0.9690    3.0547 O   0  0  0  0  0  0  0  0  0  0  0  0
   -2.8031   -0.3083    4.9026 C   0  0  0  0  0  0  0  0  0  0  0  0
   -2.5223   -1.2858    5.3042 H   0  0  0  0  0  0  0  0  0  0  0  0
   -2.4512    0.4687    5.5852 H   0  0  0  0  0  0  0  0  0  0  0  0
   -3.8929   -0.2583    4.8371 H   0  0  0  0  0  0  0  0  0  0  0  0
   -2.4459    1.0506    2.8274 N   0  0  0  0  0  0  0  0  0  0  0  0
   -2.0130    1.2701    1.4400 C   0  0  2  0  0  0  0  0  0  0  0  0
   -0.4786    1.3160    1.2460 C   0  0  0  0  0  0  0  0  0  0  0  0
    0.2539    1.7973    2.1023 O   0  0  0  0  0  0  0  0  0  0  0  0
   -2.6380    2.5813    0.9575 C   0  0  0  0  0  0  0  0  0  0  0  0
   -3.0478    1.7422    3.2652 H   0  0  0  0  0  0  0  0  0  0  0  0
   -2.4025    0.4523    0.8242 H   0  0  0  0  0  0  0  0  0  0  0  0
   -2.2701    3.4237    1.5526 H   0  0  0  0  0  0  0  0  0  0  0  0
   -2.3827    2.7608   -0.0920 H   0  0  0  0  0  0  0  0  0  0  0  0
   -3.7285    2.5403    1.0424 H   0  0  0  0  0  0  0  0  0  0  0  0
    0.0449    0.9213    0.0295 N   0  0  0  0  0  0  0  0  0  0  0  0
    1.3035    0.1961   -0.2575 C   0  0  2  0  0  0  0  0  0  0  0  0
    1.0140   -0.5994   -1.5452 C   0  0  0  0  0  0  0  0  0  0  0  0
    1.1241   -0.0358   -2.6238 O   0  0  0  0  0  0  0  0  0  0  0  0
    1.9154   -0.7775    0.7920 C   0  0  0  0  0  0  0  0  0  0  0  0
    2.3693   -0.1540    2.0855 C   0  0  0  0  0  0  0  0  0  0  0  0
    3.5178    0.6155    2.2730 N   0  3  0  0  0  0  0  0  0  0  0  0
    1.8089   -0.3601    3.3215 C   0  0  0  0  0  0  0  0  0  0  0  0
    3.6258    0.9683    3.5308 C   0  0  0  0  0  0  0  0  0  0  0  0
    2.5805    0.3612    4.2214 N   0  0  0  0  0  0  0  0  0  0  0  0
   -0.6995    0.6995   -0.6409 H   0  0  0  0  0  0  0  0  0  0  0  0
    2.0655    0.9453   -0.4948 H   0  0  0  0  0  0  0  0  0  0  0  0
    2.7665   -1.3003    0.3415 H   0  0  0  0  0  0  0  0  0  0  0  0
    1.1632   -1.5326    1.0429 H   0  0  0  0  0  0  0  0  0  0  0  0
    4.0894    0.9552    1.4964 H   0  0  0  0  0  0  0  0  0  0  0  0
    0.9091   -0.9380    3.5318 H   0  0  0  0  0  0  0  0  0  0  0  0
    4.3812    1.6311    3.9546 H   0  0  0  0  0  0  0  0  0  0  0  0
    2.3674    0.4842    5.2143 H   0  0  0  0  0  0  0  0  0  0  0  0
    0.4948   -1.8823   -1.5003 N   0  0  0  0  0  0  0  0  0  0  0  0
   -0.4602   -2.2779   -2.5474 C   0  0  2  0  0  0  0  0  0  0  0  0
   -1.7765   -1.4612   -2.4628 C   0  0  0  0  0  0  0  0  0  0  0  0
   -2.0190   -0.7713   -1.4722 O   0  0  0  0  0  0  0  0  0  0  0  0
   -0.7408   -3.7735   -2.3838 C   0  0  0  0  0  0  0  0  0  0  0  0
    0.2467   -2.1894   -0.5645 H   0  0  0  0  0  0  0  0  0  0  0  0
   -0.0177   -2.1119   -3.5362 H   0  0  0  0  0  0  0  0  0  0  0  0
   -1.2093   -3.9744   -1.4147 H   0  0  0  0  0  0  0  0  0  0  0  0
   -1.4125   -4.1264   -3.1728 H   0  0  0  0  0  0  0  0  0  0  0  0
    0.1916   -4.3437   -2.4467 H   0  0  0  0  0  0  0  0  0  0  0  0
   -2.6844   -1.4831   -3.5041 N   0  0  0  0  0  0  0  0  0  0  0  0
   -3.9028   -0.6811   -3.5206 C   0  0  0  0  0  0  0  0  0  0  0  0
   -2.4238   -1.9910   -4.3454 H   0  0  0  0  0  0  0  0  0  0  0  0
   -4.5288   -0.9147   -2.6527 H   0  0  0  0  0  0  0  0  0  0  0  0
   -3.6590    0.3864   -3.5027 H   0  0  0  0  0  0  0  0  0  0  0  0
   -4.4813   -0.8886   -4.4263 H   0  0  0  0  0  0  0  0  0  0  0  0
  1  2  2  0  0  0  0
  1  3  1  0  0  0  0
  1  7  1  0  0  0  0
  3  4  1  0  0  0  0
  3  5  1  0  0  0  0
  3  6  1  0  0  0  0
  7  8  1  0  0  0  0
  7 12  1  0  0  0  0
  8  9  1  0  0  0  0
  8 11  1  0  0  0  0
  8 13  1  0  0  0  0
  9 10  2  0  0  0  0
  9 17  1  0  0  0  0
 11 14  1  0  0  0  0
 11 15  1  0  0  0  0
 11 16  1  0  0  0  0
 17 18  1  0  0  0  0
 17 27  1  0  0  0  0
 18 19  1  0  0  0  0
 18 21  1  0  0  0  0
 18 28  1  0  0  0  0
 19 20  2  0  0  0  0
 19 35  1  0  0  0  0
 21 22  1  0  0  0  0
 21 29  1  0  0  0  0
 21 30  1  0  0  0  0
 22 23  1  0  0  0  0
 22 24  2  0  0  0  0
 23 25  2  0  0  0  0
 23 31  1  0  0  0  0
 24 26  1  0  0  0  0
 24 32  1  0  0  0  0
 25 26  1  0  0  0  0
 25 33  1  0  0  0  0
 26 34  1  0  0  0  0
 35 36  1  0  0  0  0
 35 40  1  0  0  0  0
 36 37  1  0  0  0  0
 36 39  1  0  0  0  0
 36 41  1  0  0  0  0
 37 38  2  0  0  0  0
 37 45  1  0  0  0  0
 39 42  1  0  0  0  0
 39 43  1  0  0  0  0
 39 44  1  0  0  0  0
 45 46  1  0  0  0  0
 45 47  1  0  0  0  0
 46 48  1  0  0  0  0
 46 49  1  0  0  0  0
 46 50  1  0  0  0  0
M  CHG  1  23   1
M  END
$$$$

  -OEChem-05262216443D

 50 50  0     1  0  0  0  0  0999 V2000
   -2.1731   -0.1167    3.3843 C   0  0  0  0  0  0  0  0  0  0  0  0
   -1.4558   -0.9463    2.8385 O   0  0  0  0  0  0  0  0  0  0  0  0
   -2.7657   -0.4088    4.7495 C   0  0  0  0  0  0  0  0  0  0  0  0
   -2.5031   -1.4216    5.0679 H   0  0  0  0  0  0  0  0  0  0  0  0
   -2.3836    0.3033    5.4850 H   0  0  0  0  0  0  0  0  0  0  0  0
   -3.8550   -0.3276    4.7077 H   0  0  0  0  0  0  0  0  0  0  0  0
   -2.4171    1.0988    2.7789 N   0  0  0  0  0  0  0  0  0  0  0  0
   -2.0042    1.4174    1.4048 C   0  0  2  0  0  0  0  0  0  0  0  0
   -0.4735    1.3859    1.1838 C   0  0  0  0  0  0  0  0  0  0  0  0
    0.2910    1.8806    2.0036 O   0  0  0  0  0  0  0  0  0  0  0  0
   -2.5568    2.8001    1.0523 C   0  0  0  0  0  0  0  0  0  0  0  0
   -3.0110    1.7585    3.2733 H   0  0  0  0  0  0  0  0  0  0  0  0
   -2.4572    0.6827    0.7309 H   0  0  0  0  0  0  0  0  0  0  0  0
   -2.1282    3.5648    1.7084 H   0  0  0  0  0  0  0  0  0  0  0  0
   -2.3099    3.0542    0.0165 H   0  0  0  0  0  0  0  0  0  0  0  0
   -3.6459    2.8158    1.1581 H   0  0  0  0  0  0  0  0  0  0  0  0
    0.0112    0.8699   -0.0028 N   0  0  0  0  0  0  0  0  0  0  0  0
    1.2457    0.0905   -0.2536 C   0  0  2  0  0  0  0  0  0  0  0  0
    0.9133   -0.8120   -1.4543 C   0  0  0  0  0  0  0  0  0  0  0  0
    1.2622   -0.4744   -2.5751 O   0  0  0  0  0  0  0  0  0  0  0  0
    1.8479   -0.8279    0.8484 C   0  0  0  0  0  0  0  0  0  0  0  0
    2.3390   -0.1365    2.0918 C   0  0  0  0  0  0  0  0  0  0  0  0
    3.5106    0.6106    2.2136 N   0  3  0  0  0  0  0  0  0  0  0  0
    1.7910   -0.2478    3.3447 C   0  0  0  0  0  0  0  0  0  0  0  0
    3.6490    1.0363    3.4456 C   0  0  0  0  0  0  0  0  0  0  0  0
    2.5973    0.5045    4.1874 N   0  0  0  0  0  0  0  0  0  0  0  0
   -0.7492    0.6498   -0.6580 H   0  0  0  0  0  0  0  0  0  0  0  0
    2.0232    0.7963   -0.5636 H   0  0  0  0  0  0  0  0  0  0  0  0
    2.6790   -1.3992    0.4200 H   0  0  0  0  0  0  0  0  0  0  0  0
    1.0834   -1.5495    1.1552 H   0  0  0  0  0  0  0  0  0  0  0  0
    4.0821    0.8791    1.4093 H   0  0  0  0  0  0  0  0  0  0  0  0
    0.8787   -0.7864    3.5993 H   0  0  0  0  0  0  0  0  0  0  0  0
    4.4314    1.6996    3.8167 H   0  0  0  0  0  0  0  0  0  0  0  0
    2.4070    0.6914    5.1749 H   0  0  0  0  0  0  0  0  0  0  0  0
    0.1002   -1.9200   -1.2883 N   0  0  0  0  0  0  0  0  0  0  0  0
   -0.8307   -2.2716   -2.3709 C   0  0  2  0  0  0  0  0  0  0  0  0
   -1.9610   -1.2205   -2.5076 C   0  0  0  0  0  0  0  0  0  0  0  0
   -2.1570   -0.4032   -1.6080 O   0  0  0  0  0  0  0  0  0  0  0  0
   -1.4127   -3.6521   -2.0600 C   0  0  0  0  0  0  0  0  0  0  0  0
   -0.2870   -2.0021   -0.3509 H   0  0  0  0  0  0  0  0  0  0  0  0
   -0.2934   -2.3260   -3.3246 H   0  0  0  0  0  0  0  0  0  0  0  0
   -1.9759   -3.6307   -1.1213 H   0  0  0  0  0  0  0  0  0  0  0  0
   -2.0861   -3.9732   -2.8609 H   0  0  0  0  0  0  0  0  0  0  0  0
   -0.6097   -4.3905   -1.9696 H   0  0  0  0  0  0  0  0  0  0  0  0
   -2.7494   -1.1768   -3.6412 N   0  0  0  0  0  0  0  0  0  0  0  0
   -3.7780   -0.1665   -3.8632 C   0  0  0  0  0  0  0  0  0  0  0  0
   -2.5136   -1.8075   -4.4030 H   0  0  0  0  0  0  0  0  0  0  0  0
   -4.5215   -0.1910   -3.0594 H   0  0  0  0  0  0  0  0  0  0  0  0
   -3.3322    0.8331   -3.9008 H   0  0  0  0  0  0  0  0  0  0  0  0
   -4.2923   -0.3514   -4.8115 H   0  0  0  0  0  0  0  0  0  0  0  0
  1  2  2  0  0  0  0
  1  3  1  0  0  0  0
  1  7  1  0  0  0  0
  3  4  1  0  0  0  0
  3  5  1  0  0  0  0
  3  6  1  0  0  0  0
  7  8  1  0  0  0  0
  7 12  1  0  0  0  0
  8  9  1  0  0  0  0
  8 11  1  0  0  0  0
  8 13  1  0  0  0  0
  9 10  2  0  0  0  0
  9 17  1  0  0  0  0
 11 14  1  0  0  0  0
 11 15  1  0  0  0  0
 11 16  1  0  0  0  0
 17 18  1  0  0  0  0
 17 27  1  0  0  0  0
 18 19  1  0  0  0  0
 18 21  1  0  0  0  0
 18 28  1  0  0  0  0
 19 20  2  0  0  0  0
 19 35  1  0  0  0  0
 21 22  1  0  0  0  0
 21 29  1  0  0  0  0
 21 30  1  0  0  0  0
 22 23  1  0  0  0  0
 22 24  2  0  0  0  0
 23 25  2  0  0  0  0
 23 31  1  0  0  0  0
 24 26  1  0  0  0  0
 24 32  1  0  0  0  0
 25 26  1  0  0  0  0
 25 33  1  0  0  0  0
 26 34  1  0  0  0  0
 35 36  1  0  0  0  0
 35 40  1  0  0  0  0
 36 37  1  0  0  0  0
 36 39  1  0  0  0  0
 36 41  1  0  0  0  0
 37 38  2  0  0  0  0
 37 45  1  0  0  0  0
 39 42  1  0  0  0  0
 39 43  1  0  0  0  0
 39 44  1  0  0  0  0
 45 46  1  0  0  0  0
 45 47  1  0  0  0  0
 46 48  1  0  0  0  0
 46 49  1  0  0  0  0
 46 50  1  0  0  0  0
M  CHG  1  23   1
M  END
$$$$

  -OEChem-05262216443D

 50 50  0     1  0  0  0  0  0999 V2000
   -2.1999   -0.0351    3.3020 C   0  0  0  0  0  0  0  0  0  0  0  0
   -1.5124   -0.8698    2.7263 O   0  0  0  0  0  0  0  0  0  0  0  0
   -2.7974   -0.3508    4.6598 C   0  0  0  0  0  0  0  0  0  0  0  0
   -2.5396   -1.3704    4.9597 H   0  0  0  0  0  0  0  0  0  0  0  0
   -2.4145    0.3455    5.4097 H   0  0  0  0  0  0  0  0  0  0  0  0
   -3.8860   -0.2637    4.6168 H   0  0  0  0  0  0  0  0  0  0  0  0
   -2.4015    1.2091    2.7402 N   0  0  0  0  0  0  0  0  0  0  0  0
   -1.9729    1.5675    1.3805 C   0  0  2  0  0  0  0  0  0  0  0  0
   -0.4486    1.4362    1.1509 C   0  0  0  0  0  0  0  0  0  0  0  0
    0.3490    1.9161    1.9473 O   0  0  0  0  0  0  0  0  0  0  0  0
   -2.4263    3.0025    1.1027 C   0  0  0  0  0  0  0  0  0  0  0  0
   -2.9748    1.8696    3.2577 H   0  0  0  0  0  0  0  0  0  0  0  0
   -2.4809    0.9036    0.6733 H   0  0  0  0  0  0  0  0  0  0  0  0
   -1.9453    3.7001    1.7961 H   0  0  0  0  0  0  0  0  0  0  0  0
   -2.1617    3.2922    0.0805 H   0  0  0  0  0  0  0  0  0  0  0  0
   -3.5117    3.0889    1.2130 H   0  0  0  0  0  0  0  0  0  0  0  0
   -0.0086    0.8267   -0.0086 N   0  0  0  0  0  0  0  0  0  0  0  0
    1.1989    0.0020   -0.2518 C   0  0  2  0  0  0  0  0  0  0  0  0
    0.8164   -0.9748   -1.3757 C   0  0  0  0  0  0  0  0  0  0  0  0
    1.3417   -0.8736   -2.4733 O   0  0  0  0  0  0  0  0  0  0  0  0
    1.7839   -0.8939    0.8765 C   0  0  0  0  0  0  0  0  0  0  0  0
    2.3109   -0.1784    2.0900 C   0  0  0  0  0  0  0  0  0  0  0  0
    3.5066    0.5338    2.1777 N   0  3  0  0  0  0  0  0  0  0  0  0
    1.7675   -0.2286    3.3487 C   0  0  0  0  0  0  0  0  0  0  0  0
    3.6685    0.9954    3.3939 C   0  0  0  0  0  0  0  0  0  0  0  0
    2.6053    0.5238    4.1602 N   0  0  0  0  0  0  0  0  0  0  0  0
   -0.7781    0.6458   -0.6653 H   0  0  0  0  0  0  0  0  0  0  0  0
    1.9913    0.6636   -0.6166 H   0  0  0  0  0  0  0  0  0  0  0  0
    2.5932   -1.5045    0.4606 H   0  0  0  0  0  0  0  0  0  0  0  0
    1.0009   -1.5830    1.2119 H   0  0  0  0  0  0  0  0  0  0  0  0
    4.0801    0.7549    1.3605 H   0  0  0  0  0  0  0  0  0  0  0  0
    0.8381   -0.7268    3.6243 H   0  0  0  0  0  0  0  0  0  0  0  0
    4.4752    1.6443    3.7372 H   0  0  0  0  0  0  0  0  0  0  0  0
    2.4301    0.7491    5.1425 H   0  0  0  0  0  0  0  0  0  0  0  0
   -0.2353   -1.8530   -1.1813 N   0  0  0  0  0  0  0  0  0  0  0  0
   -1.1342   -2.1522   -2.3044 C   0  0  2  0  0  0  0  0  0  0  0  0
   -2.0839   -0.9627   -2.5849 C   0  0  0  0  0  0  0  0  0  0  0  0
   -2.2282   -0.0812   -1.7378 O   0  0  0  0  0  0  0  0  0  0  0  0
   -1.9295   -3.4092   -1.9466 C   0  0  0  0  0  0  0  0  0  0  0  0
   -0.6968   -1.7416   -0.2799 H   0  0  0  0  0  0  0  0  0  0  0  0
   -0.5539   -2.3537   -3.2121 H   0  0  0  0  0  0  0  0  0  0  0  0
   -2.5362   -3.2398   -1.0508 H   0  0  0  0  0  0  0  0  0  0  0  0
   -2.5954   -3.6887   -2.7691 H   0  0  0  0  0  0  0  0  0  0  0  0
   -1.2499   -4.2457   -1.7549 H   0  0  0  0  0  0  0  0  0  0  0  0
   -2.7622   -0.8658   -3.7843 N   0  0  0  0  0  0  0  0  0  0  0  0
   -3.6110    0.2678   -4.1346 C   0  0  0  0  0  0  0  0  0  0  0  0
   -2.5645   -1.5650   -4.4955 H   0  0  0  0  0  0  0  0  0  0  0  0
   -4.4190    0.3840   -3.4043 H   0  0  0  0  0  0  0  0  0  0  0  0
   -3.0244    1.1922   -4.1612 H   0  0  0  0  0  0  0  0  0  0  0  0
   -4.0592    0.1153   -5.1215 H   0  0  0  0  0  0  0  0  0  0  0  0
  1  2  2  0  0  0  0
  1  3  1  0  0  0  0
  1  7  1  0  0  0  0
  3  4  1  0  0  0  0
  3  5  1  0  0  0  0
  3  6  1  0  0  0  0
  7  8  1  0  0  0  0
  7 12  1  0  0  0  0
  8  9  1  0  0  0  0
  8 11  1  0  0  0  0
  8 13  1  0  0  0  0
  9 10  2  0  0  0  0
  9 17  1  0  0  0  0
 11 14  1  0  0  0  0
 11 15  1  0  0  0  0
 11 16  1  0  0  0  0
 17 18  1  0  0  0  0
 17 27  1  0  0  0  0
 18 19  1  0  0  0  0
 18 21  1  0  0  0  0
 18 28  1  0  0  0  0
 19 20  2  0  0  0  0
 19 35  1  0  0  0  0
 21 22  1  0  0  0  0
 21 29  1  0  0  0  0
 21 30  1  0  0  0  0
 22 23  1  0  0  0  0
 22 24  2  0  0  0  0
 23 25  2  0  0  0  0
 23 31  1  0  0  0  0
 24 26  1  0  0  0  0
 24 32  1  0  0  0  0
 25 26  1  0  0  0  0
 25 33  1  0  0  0  0
 26 34  1  0  0  0  0
 35 36  1  0  0  0  0
 35 40  1  0  0  0  0
 36 37  1  0  0  0  0
 36 39  1  0  0  0  0
 36 41  1  0  0  0  0
 37 38  2  0  0  0  0
 37 45  1  0  0  0  0
 39 42  1  0  0  0  0
 39 43  1  0  0  0  0
 39 44  1  0  0  0  0
 45 46  1  0  0  0  0
 45 47  1  0  0  0  0
 46 48  1  0  0  0  0
 46 49  1  0  0  0  0
 46 50  1  0  0  0  0
M  CHG  1  23   1
M  END
$$$$

  -OEChem-05262216443D

 50 50  0     1  0  0  0  0  0999 V2000
   -2.2438    0.1291    3.3197 C   0  0  0  0  0  0  0  0  0  0  0  0
   -1.6007   -0.7516    2.7617 O   0  0  0  0  0  0  0  0  0  0  0  0
   -2.8578   -0.1291    4.6823 C   0  0  0  0  0  0  0  0  0  0  0  0
   -2.6375   -1.1488    5.0104 H   0  0  0  0  0  0  0  0  0  0  0  0
   -2.4535    0.5725    5.4159 H   0  0  0  0  0  0  0  0  0  0  0  0
   -3.9425   -0.0050    4.6316 H   0  0  0  0  0  0  0  0  0  0  0  0
   -2.3832    1.3696    2.7305 N   0  0  0  0  0  0  0  0  0  0  0  0
   -1.9303    1.6785    1.3662 C   0  0  2  0  0  0  0  0  0  0  0  0
   -0.4171    1.4466    1.1450 C   0  0  0  0  0  0  0  0  0  0  0  0
    0.4088    1.9054    1.9243 O   0  0  0  0  0  0  0  0  0  0  0  0
   -2.2898    3.1342    1.0615 C   0  0  0  0  0  0  0  0  0  0  0  0
   -2.9234    2.0688    3.2328 H   0  0  0  0  0  0  0  0  0  0  0  0
   -2.4770    1.0362    0.6674 H   0  0  0  0  0  0  0  0  0  0  0  0
   -1.7697    3.8114    1.7468 H   0  0  0  0  0  0  0  0  0  0  0  0
   -2.0007    3.3884    0.0365 H   0  0  0  0  0  0  0  0  0  0  0  0
   -3.3680    3.2916    1.1624 H   0  0  0  0  0  0  0  0  0  0  0  0
   -0.0200    0.7693    0.0079 N   0  0  0  0  0  0  0  0  0  0  0  0
    1.1586   -0.0969   -0.2417 C   0  0  2  0  0  0  0  0  0  0  0  0
    0.7345   -1.1229   -1.3066 C   0  0  0  0  0  0  0  0  0  0  0  0
    1.3908   -1.2369   -2.3296 O   0  0  0  0  0  0  0  0  0  0  0  0
    1.7216   -0.9833    0.9043 C   0  0  0  0  0  0  0  0  0  0  0  0
    2.2841   -0.2640    2.0985 C   0  0  0  0  0  0  0  0  0  0  0  0
    3.5057    0.4047    2.1628 N   0  3  0  0  0  0  0  0  0  0  0  0
    1.7443   -0.2625    3.3596 C   0  0  0  0  0  0  0  0  0  0  0  0
    3.6936    0.8853    3.3678 C   0  0  0  0  0  0  0  0  0  0  0  0
    2.6165    0.4741    4.1495 N   0  0  0  0  0  0  0  0  0  0  0  0
   -0.7883    0.6485   -0.6637 H   0  0  0  0  0  0  0  0  0  0  0  0
    1.9650    0.5254   -0.6434 H   0  0  0  0  0  0  0  0  0  0  0  0
    2.5063   -1.6318    0.4979 H   0  0  0  0  0  0  0  0  0  0  0  0
    0.9159   -1.6371    1.2578 H   0  0  0  0  0  0  0  0  0  0  0  0
    4.0853    0.5790    1.3386 H   0  0  0  0  0  0  0  0  0  0  0  0
    0.7949   -0.7137    3.6484 H   0  0  0  0  0  0  0  0  0  0  0  0
    4.5286    1.5073    3.6929 H   0  0  0  0  0  0  0  0  0  0  0  0
    2.4553    0.7293    5.1268 H   0  0  0  0  0  0  0  0  0  0  0  0
   -0.4904   -1.7542   -1.1838 N   0  0  0  0  0  0  0  0  0  0  0  0
   -1.3337   -1.9616   -2.3683 C   0  0  2  0  0  0  0  0  0  0  0  0
   -2.1284   -0.6773   -2.7009 C   0  0  0  0  0  0  0  0  0  0  0  0
   -2.2278    0.2129   -1.8564 O   0  0  0  0  0  0  0  0  0  0  0  0
   -2.2801   -3.1278   -2.0748 C   0  0  0  0  0  0  0  0  0  0  0  0
   -0.9945   -1.5051   -0.3341 H   0  0  0  0  0  0  0  0  0  0  0  0
   -0.7182   -2.2228   -3.2365 H   0  0  0  0  0  0  0  0  0  0  0  0
   -2.9265   -2.8951   -1.2223 H   0  0  0  0  0  0  0  0  0  0  0  0
   -2.9130   -3.3362   -2.9431 H   0  0  0  0  0  0  0  0  0  0  0  0
   -1.7074   -4.0313   -1.8419 H   0  0  0  0  0  0  0  0  0  0  0  0
   -2.7128   -0.5058   -3.9405 N   0  0  0  0  0  0  0  0  0  0  0  0
   -3.4214    0.7079   -4.3321 C   0  0  0  0  0  0  0  0  0  0  0  0
   -2.5641   -1.2309   -4.6378 H   0  0  0  0  0  0  0  0  0  0  0  0
   -4.2701    0.8897   -3.6641 H   0  0  0  0  0  0  0  0  0  0  0  0
   -2.7510    1.5733   -4.2944 H   0  0  0  0  0  0  0  0  0  0  0  0
   -3.8029    0.6115   -5.3535 H   0  0  0  0  0  0  0  0  0  0  0  0
  1  2  2  0  0  0  0
  1  3  1  0  0  0  0
  1  7  1  0  0  0  0
  3  4  1  0  0  0  0
  3  5  1  0  0  0  0
  3  6  1  0  0  0  0
  7  8  1  0  0  0  0
  7 12  1  0  0  0  0
  8  9  1  0  0  0  0
  8 11  1  0  0  0  0
  8 13  1  0  0  0  0
  9 10  2  0  0  0  0
  9 17  1  0  0  0  0
 11 14  1  0  0  0  0
 11 15  1  0  0  0  0
 11 16  1  0  0  0  0
 17 18  1  0  0  0  0
 17 27  1  0  0  0  0
 18 19  1  0  0  0  0
 18 21  1  0  0  0  0
 18 28  1  0  0  0  0
 19 20  2  0  0  0  0
 19 35  1  0  0  0  0
 21 22  1  0  0  0  0
 21 29  1  0  0  0  0
 21 30  1  0  0  0  0
 22 23  1  0  0  0  0
 22 24  2  0  0  0  0
 23 25  2  0  0  0  0
 23 31  1  0  0  0  0
 24 26  1  0  0  0  0
 24 32  1  0  0  0  0
 25 26  1  0  0  0  0
 25 33  1  0  0  0  0
 26 34  1  0  0  0  0
 35 36  1  0  0  0  0
 35 40  1  0  0  0  0
 36 37  1  0  0  0  0
 36 39  1  0  0  0  0
 36 41  1  0  0  0  0
 37 38  2  0  0  0  0
 37 45  1  0  0  0  0
 39 42  1  0  0  0  0
 39 43  1  0  0  0  0
 39 44  1  0  0  0  0
 45 46  1  0  0  0  0
 45 47  1  0  0  0  0
 46 48  1  0  0  0  0
 46 49  1  0  0  0  0
 46 50  1  0  0  0  0
M  CHG  1  23   1
M  END
$$$$

  -OEChem-05262216443D

 50 50  0     1  0  0  0  0  0999 V2000
   -2.2722    0.3951    3.4436 C   0  0  0  0  0  0  0  0  0  0  0  0
   -1.6902   -0.5671    2.9589 O   0  0  0  0  0  0  0  0  0  0  0  0
   -2.8886    0.2901    4.8254 C   0  0  0  0  0  0  0  0  0  0  0  0
   -2.7316   -0.7116    5.2352 H   0  0  0  0  0  0  0  0  0  0  0  0
   -2.4321    1.0214    5.4967 H   0  0  0  0  0  0  0  0  0  0  0  0
   -3.9636    0.4801    4.7697 H   0  0  0  0  0  0  0  0  0  0  0  0
   -2.3455    1.5867    2.7507 N   0  0  0  0  0  0  0  0  0  0  0  0
   -1.8787    1.7564    1.3666 C   0  0  2  0  0  0  0  0  0  0  0  0
   -0.3864    1.4054    1.1605 C   0  0  0  0  0  0  0  0  0  0  0  0
    0.4700    1.8341    1.9238 O   0  0  0  0  0  0  0  0  0  0  0  0
   -2.1356    3.2067    0.9523 C   0  0  0  0  0  0  0  0  0  0  0  0
   -2.8296    2.3595    3.1992 H   0  0  0  0  0  0  0  0  0  0  0  0
   -2.4723    1.1023    0.7183 H   0  0  0  0  0  0  0  0  0  0  0  0
   -1.5585    3.8945    1.5790 H   0  0  0  0  0  0  0  0  0  0  0  0
   -1.8419    3.3595   -0.0915 H   0  0  0  0  0  0  0  0  0  0  0  0
   -3.1981    3.4504    1.0488 H   0  0  0  0  0  0  0  0  0  0  0  0
   -0.0361    0.6850    0.0341 N   0  0  0  0  0  0  0  0  0  0  0  0
    1.1095   -0.2218   -0.2327 C   0  0  2  0  0  0  0  0  0  0  0  0
    0.6483   -1.2750   -1.2593 C   0  0  0  0  0  0  0  0  0  0  0  0
    1.3974   -1.5809   -2.1734 O   0  0  0  0  0  0  0  0  0  0  0  0
    1.6478   -1.1129    0.9228 C   0  0  0  0  0  0  0  0  0  0  0  0
    2.2464   -0.4070    2.1072 C   0  0  0  0  0  0  0  0  0  0  0  0
    3.4931    0.2140    2.1614 N   0  3  0  0  0  0  0  0  0  0  0  0
    1.7123   -0.3751    3.3707 C   0  0  0  0  0  0  0  0  0  0  0  0
    3.7043    0.6965    3.3618 C   0  0  0  0  0  0  0  0  0  0  0  0
    2.6152    0.3337    4.1511 N   0  0  0  0  0  0  0  0  0  0  0  0
   -0.7925    0.6431   -0.6594 H   0  0  0  0  0  0  0  0  0  0  0  0
    1.9303    0.3648   -0.6577 H   0  0  0  0  0  0  0  0  0  0  0  0
    2.4058   -1.7954    0.5209 H   0  0  0  0  0  0  0  0  0  0  0  0
    0.8194   -1.7320    1.2863 H   0  0  0  0  0  0  0  0  0  0  0  0
    4.0752    0.3590    1.3334 H   0  0  0  0  0  0  0  0  0  0  0  0
    0.7466   -0.7855    3.6679 H   0  0  0  0  0  0  0  0  0  0  0  0
    4.5640    1.2879    3.6791 H   0  0  0  0  0  0  0  0  0  0  0  0
    2.4677    0.6030    5.1268 H   0  0  0  0  0  0  0  0  0  0  0  0
   -0.6792   -1.6615   -1.2873 N   0  0  0  0  0  0  0  0  0  0  0  0
   -1.4174   -1.7389   -2.5538 C   0  0  2  0  0  0  0  0  0  0  0  0
   -2.1091   -0.3882   -2.8471 C   0  0  0  0  0  0  0  0  0  0  0  0
   -2.1911    0.4567   -1.9550 O   0  0  0  0  0  0  0  0  0  0  0  0
   -2.4436   -2.8676   -2.4322 C   0  0  0  0  0  0  0  0  0  0  0  0
   -1.2218   -1.3076   -0.5013 H   0  0  0  0  0  0  0  0  0  0  0  0
   -0.7422   -1.9690   -3.3856 H   0  0  0  0  0  0  0  0  0  0  0  0
   -3.1503   -2.6610   -1.6218 H   0  0  0  0  0  0  0  0  0  0  0  0
   -3.0068   -2.9775   -3.3642 H   0  0  0  0  0  0  0  0  0  0  0  0
   -1.9392   -3.8160   -2.2211 H   0  0  0  0  0  0  0  0  0  0  0  0
   -2.6127   -0.1052   -4.1014 N   0  0  0  0  0  0  0  0  0  0  0  0
   -3.2278    1.1707   -4.4504 C   0  0  0  0  0  0  0  0  0  0  0  0
   -2.4863   -0.8025   -4.8307 H   0  0  0  0  0  0  0  0  0  0  0  0
   -4.0875    1.3740   -3.8028 H   0  0  0  0  0  0  0  0  0  0  0  0
   -2.5055    1.9870   -4.3441 H   0  0  0  0  0  0  0  0  0  0  0  0
   -3.5765    1.1521   -5.4877 H   0  0  0  0  0  0  0  0  0  0  0  0
  1  2  2  0  0  0  0
  1  3  1  0  0  0  0
  1  7  1  0  0  0  0
  3  4  1  0  0  0  0
  3  5  1  0  0  0  0
  3  6  1  0  0  0  0
  7  8  1  0  0  0  0
  7 12  1  0  0  0  0
  8  9  1  0  0  0  0
  8 11  1  0  0  0  0
  8 13  1  0  0  0  0
  9 10  2  0  0  0  0
  9 17  1  0  0  0  0
 11 14  1  0  0  0  0
 11 15  1  0  0  0  0
 11 16  1  0  0  0  0
 17 18  1  0  0  0  0
 17 27  1  0  0  0  0
 18 19  1  0  0  0  0
 18 21  1  0  0  0  0
 18 28  1  0  0  0  0
 19 20  2  0  0  0  0
 19 35  1  0  0  0  0
 21 22  1  0  0  0  0
 21 29  1  0  0  0  0
 21 30  1  0  0  0  0
 22 23  1  0  0  0  0
 22 24  2  0  0  0  0
 23 25  2  0  0  0  0
 23 31  1  0  0  0  0
 24 26  1  0  0  0  0
 24 32  1  0  0  0  0
 25 26  1  0  0  0  0
 25 33  1  0  0  0  0
 26 34  1  0  0  0  0
 35 36  1  0  0  0  0
 35 40  1  0  0  0  0
 36 37  1  0  0  0  0
 36 39  1  0  0  0  0
 36 41  1  0  0  0  0
 37 38  2  0  0  0  0
 37 45  1  0  0  0  0
 39 42  1  0  0  0  0
 39 43  1  0  0  0  0
 39 44  1  0  0  0  0
 45 46  1  0  0  0  0
 45 47  1  0  0  0  0
 46 48  1  0  0  0  0
 46 49  1  0  0  0  0
 46 50  1  0  0  0  0
M  CHG  1  23   1
M  END
$$$$

  -OEChem-05262216443D

 50 50  0     1  0  0  0  0  0999 V2000
   -2.2253    0.7797    3.6797 C   0  0  0  0  0  0  0  0  0  0  0  0
   -1.7770   -0.2989    3.3138 O   0  0  0  0  0  0  0  0  0  0  0  0
   -2.7180    0.9507    5.1037 C   0  0  0  0  0  0  0  0  0  0  0  0
   -2.1809    1.7680    5.5912 H   0  0  0  0  0  0  0  0  0  0  0  0
   -3.7873    1.1773    5.1033 H   0  0  0  0  0  0  0  0  0  0  0  0
   -2.5546    0.0317    5.6737 H   0  0  0  0  0  0  0  0  0  0  0  0
   -2.2564    1.8511    2.8100 N   0  0  0  0  0  0  0  0  0  0  0  0
   -1.8440    1.7723    1.4012 C   0  0  2  0  0  0  0  0  0  0  0  0
   -0.3817    1.3111    1.1975 C   0  0  0  0  0  0  0  0  0  0  0  0
    0.5077    1.6964    1.9456 O   0  0  0  0  0  0  0  0  0  0  0  0
   -2.0486    3.1531    0.7733 C   0  0  0  0  0  0  0  0  0  0  0  0
   -2.5983    2.7377    3.1696 H   0  0  0  0  0  0  0  0  0  0  0  0
   -2.4958    1.0573    0.8872 H   0  0  0  0  0  0  0  0  0  0  0  0
   -1.4028    3.8945    1.2554 H   0  0  0  0  0  0  0  0  0  0  0  0
   -1.8076    3.1249   -0.2944 H   0  0  0  0  0  0  0  0  0  0  0  0
   -3.0903    3.4717    0.8799 H   0  0  0  0  0  0  0  0  0  0  0  0
   -0.0812    0.5673    0.0715 N   0  0  0  0  0  0  0  0  0  0  0  0
    1.0121   -0.4008   -0.2070 C   0  0  2  0  0  0  0  0  0  0  0  0
    0.5087   -1.4476   -1.2257 C   0  0  0  0  0  0  0  0  0  0  0  0
    1.3125   -1.9392   -2.0025 O   0  0  0  0  0  0  0  0  0  0  0  0
    1.4974   -1.3148    0.9577 C   0  0  0  0  0  0  0  0  0  0  0  0
    2.1363   -0.6455    2.1433 C   0  0  0  0  0  0  0  0  0  0  0  0
    3.4188   -0.1021    2.1985 N   0  3  0  0  0  0  0  0  0  0  0  0
    1.6041   -0.5785    3.4068 C   0  0  0  0  0  0  0  0  0  0  0  0
    3.6599    0.3642    3.3997 C   0  0  0  0  0  0  0  0  0  0  0  0
    2.5493    0.0719    4.1878 N   0  0  0  0  0  0  0  0  0  0  0  0
   -0.8080    0.6286   -0.6506 H   0  0  0  0  0  0  0  0  0  0  0  0
    1.8625    0.1409   -0.6333 H   0  0  0  0  0  0  0  0  0  0  0  0
    2.2168   -2.0426    0.5631 H   0  0  0  0  0  0  0  0  0  0  0  0
    0.6339   -1.8845    1.3209 H   0  0  0  0  0  0  0  0  0  0  0  0
    4.0132   -0.0013    1.3727 H   0  0  0  0  0  0  0  0  0  0  0  0
    0.6144   -0.9261    3.7063 H   0  0  0  0  0  0  0  0  0  0  0  0
    4.5563    0.8971    3.7185 H   0  0  0  0  0  0  0  0  0  0  0  0
    2.4186    0.3476    5.1641 H   0  0  0  0  0  0  0  0  0  0  0  0
   -0.8445   -1.5714   -1.4766 N   0  0  0  0  0  0  0  0  0  0  0  0
   -1.3841   -1.4765   -2.8379 C   0  0  2  0  0  0  0  0  0  0  0  0
   -1.9866   -0.0693   -3.0549 C   0  0  0  0  0  0  0  0  0  0  0  0
   -2.0752    0.7025   -2.0985 O   0  0  0  0  0  0  0  0  0  0  0  0
   -2.4419   -2.5699   -3.0043 C   0  0  0  0  0  0  0  0  0  0  0  0
   -1.4265   -1.1237   -0.7719 H   0  0  0  0  0  0  0  0  0  0  0  0
   -0.5974   -1.6309   -3.5850 H   0  0  0  0  0  0  0  0  0  0  0  0
   -3.2584   -2.4297   -2.2885 H   0  0  0  0  0  0  0  0  0  0  0  0
   -2.8590   -2.5528   -4.0158 H   0  0  0  0  0  0  0  0  0  0  0  0
   -1.9953   -3.5548   -2.8335 H   0  0  0  0  0  0  0  0  0  0  0  0
   -2.3970    0.3464   -4.3065 N   0  0  0  0  0  0  0  0  0  0  0  0
   -2.9386    1.6744   -4.5739 C   0  0  0  0  0  0  0  0  0  0  0  0
   -2.2905   -0.3037   -5.0815 H   0  0  0  0  0  0  0  0  0  0  0  0
   -3.8206    1.8621   -3.9525 H   0  0  0  0  0  0  0  0  0  0  0  0
   -2.1889    2.4446   -4.3638 H   0  0  0  0  0  0  0  0  0  0  0  0
   -3.2345    1.7587   -5.6244 H   0  0  0  0  0  0  0  0  0  0  0  0
  1  2  2  0  0  0  0
  1  3  1  0  0  0  0
  1  7  1  0  0  0  0
  3  4  1  0  0  0  0
  3  5  1  0  0  0  0
  3  6  1  0  0  0  0
  7  8  1  0  0  0  0
  7 12  1  0  0  0  0
  8  9  1  0  0  0  0
  8 11  1  0  0  0  0
  8 13  1  0  0  0  0
  9 10  2  0  0  0  0
  9 17  1  0  0  0  0
 11 14  1  0  0  0  0
 11 15  1  0  0  0  0
 11 16  1  0  0  0  0
 17 18  1  0  0  0  0
 17 27  1  0  0  0  0
 18 19  1  0  0  0  0
 18 21  1  0  0  0  0
 18 28  1  0  0  0  0
 19 20  2  0  0  0  0
 19 35  1  0  0  0  0
 21 22  1  0  0  0  0
 21 29  1  0  0  0  0
 21 30  1  0  0  0  0
 22 23  1  0  0  0  0
 22 24  2  0  0  0  0
 23 25  2  0  0  0  0
 23 31  1  0  0  0  0
 24 26  1  0  0  0  0
 24 32  1  0  0  0  0
 25 26  1  0  0  0  0
 25 33  1  0  0  0  0
 26 34  1  0  0  0  0
 35 36  1  0  0  0  0
 35 40  1  0  0  0  0
 36 37  1  0  0  0  0
 36 39  1  0  0  0  0
 36 41  1  0  0  0  0
 37 38  2  0  0  0  0
 37 45  1  0  0  0  0
 39 42  1  0  0  0  0
 39 43  1  0  0  0  0
 39 44  1  0  0  0  0
 45 46  1  0  0  0  0
 45 47  1  0  0  0  0
 46 48  1  0  0  0  0
 46 49  1  0  0  0  0
 46 50  1  0  0  0  0
M  CHG  1  23   1
M  END
$$$$

  -OEChem-05262216443D

 50 50  0     1  0  0  0  0  0999 V2000
   -2.2265    0.9344    3.8597 C   0  0  0  0  0  0  0  0  0  0  0  0
   -1.8050   -0.1788    3.5753 O   0  0  0  0  0  0  0  0  0  0  0  0
   -2.6287    1.2499    5.2873 C   0  0  0  0  0  0  0  0  0  0  0  0
   -2.4732    0.3758    5.9260 H   0  0  0  0  0  0  0  0  0  0  0  0
   -2.0292    2.0791    5.6709 H   0  0  0  0  0  0  0  0  0  0  0  0
   -3.6856    1.5263    5.3243 H   0  0  0  0  0  0  0  0  0  0  0  0
   -2.3101    1.9141    2.8910 N   0  0  0  0  0  0  0  0  0  0  0  0
   -1.9596    1.6977    1.4796 C   0  0  2  0  0  0  0  0  0  0  0  0
   -0.4954    1.2530    1.2511 C   0  0  0  0  0  0  0  0  0  0  0  0
    0.4028    1.6654    1.9740 O   0  0  0  0  0  0  0  0  0  0  0  0
   -2.2342    3.0015    0.7256 C   0  0  0  0  0  0  0  0  0  0  0  0
   -2.6048    2.8409    3.1854 H   0  0  0  0  0  0  0  0  0  0  0  0
   -2.6116    0.9158    1.0754 H   0  0  0  0  0  0  0  0  0  0  0  0
   -1.5883    3.8039    1.0969 H   0  0  0  0  0  0  0  0  0  0  0  0
   -2.0436    2.8721   -0.3446 H   0  0  0  0  0  0  0  0  0  0  0  0
   -3.2784    3.3039    0.8522 H   0  0  0  0  0  0  0  0  0  0  0  0
   -0.1954    0.5172    0.1182 N   0  0  0  0  0  0  0  0  0  0  0  0
    0.9219   -0.4196   -0.1795 C   0  0  2  0  0  0  0  0  0  0  0  0
    0.4527   -1.4943   -1.1904 C   0  0  0  0  0  0  0  0  0  0  0  0
    1.3050   -2.0847   -1.8369 O   0  0  0  0  0  0  0  0  0  0  0  0
    1.4369   -1.3172    0.9904 C   0  0  0  0  0  0  0  0  0  0  0  0
    2.0662   -0.6367    2.1745 C   0  0  0  0  0  0  0  0  0  0  0  0
    3.3366   -0.0658    2.2266 N   0  3  0  0  0  0  0  0  0  0  0  0
    1.5380   -0.5869    3.4405 C   0  0  0  0  0  0  0  0  0  0  0  0
    3.5729    0.4002    3.4289 C   0  0  0  0  0  0  0  0  0  0  0  0
    2.4715    0.0810    4.2199 N   0  0  0  0  0  0  0  0  0  0  0  0
   -0.8900    0.6298   -0.6280 H   0  0  0  0  0  0  0  0  0  0  0  0
    1.7534    0.1460   -0.6117 H   0  0  0  0  0  0  0  0  0  0  0  0
    2.1741   -2.0289    0.6001 H   0  0  0  0  0  0  0  0  0  0  0  0
    0.5889   -1.9074    1.3571 H   0  0  0  0  0  0  0  0  0  0  0  0
    3.9263    0.0477    1.3993 H   0  0  0  0  0  0  0  0  0  0  0  0
    0.5580   -0.9576    3.7443 H   0  0  0  0  0  0  0  0  0  0  0  0
    4.4600    0.9491    3.7471 H   0  0  0  0  0  0  0  0  0  0  0  0
    2.3387    0.3475    5.1984 H   0  0  0  0  0  0  0  0  0  0  0  0
   -0.8435   -1.4819   -1.6659 N   0  0  0  0  0  0  0  0  0  0  0  0
   -1.1398   -1.2878   -3.0892 C   0  0  2  0  0  0  0  0  0  0  0  0
   -1.6987    0.1387   -3.2954 C   0  0  0  0  0  0  0  0  0  0  0  0
   -1.9013    0.8511   -2.3104 O   0  0  0  0  0  0  0  0  0  0  0  0
   -2.1482   -2.3578   -3.5135 C   0  0  0  0  0  0  0  0  0  0  0  0
   -1.4890   -0.9899   -1.0529 H   0  0  0  0  0  0  0  0  0  0  0  0
   -0.2354   -1.3913   -3.6993 H   0  0  0  0  0  0  0  0  0  0  0  0
   -3.0762   -2.2627   -2.9407 H   0  0  0  0  0  0  0  0  0  0  0  0
   -2.3849   -2.2652   -4.5778 H   0  0  0  0  0  0  0  0  0  0  0  0
   -1.7330   -3.3558   -3.3390 H   0  0  0  0  0  0  0  0  0  0  0  0
   -1.9454    0.6358   -4.5601 N   0  0  0  0  0  0  0  0  0  0  0  0
   -2.4625    1.9772   -4.8086 C   0  0  0  0  0  0  0  0  0  0  0  0
   -1.7606    0.0276   -5.3541 H   0  0  0  0  0  0  0  0  0  0  0  0
   -3.4296    2.1145   -4.3135 H   0  0  0  0  0  0  0  0  0  0  0  0
   -1.7645    2.7335   -4.4342 H   0  0  0  0  0  0  0  0  0  0  0  0
   -2.6000    2.1377   -5.8826 H   0  0  0  0  0  0  0  0  0  0  0  0
  1  2  2  0  0  0  0
  1  3  1  0  0  0  0
  1  7  1  0  0  0  0
  3  4  1  0  0  0  0
  3  5  1  0  0  0  0
  3  6  1  0  0  0  0
  7  8  1  0  0  0  0
  7 12  1  0  0  0  0
  8  9  1  0  0  0  0
  8 11  1  0  0  0  0
  8 13  1  0  0  0  0
  9 10  2  0  0  0  0
  9 17  1  0  0  0  0
 11 14  1  0  0  0  0
 11 15  1  0  0  0  0
 11 16  1  0  0  0  0
 17 18  1  0  0  0  0
 17 27  1  0  0  0  0
 18 19  1  0  0  0  0
 18 21  1  0  0  0  0
 18 28  1  0  0  0  0
 19 20  2  0  0  0  0
 19 35  1  0  0  0  0
 21 22  1  0  0  0  0
 21 29  1  0  0  0  0
 21 30  1  0  0  0  0
 22 23  1  0  0  0  0
 22 24  2  0  0  0  0
 23 25  2  0  0  0  0
 23 31  1  0  0  0  0
 24 26  1  0  0  0  0
 24 32  1  0  0  0  0
 25 26  1  0  0  0  0
 25 33  1  0  0  0  0
 26 34  1  0  0  0  0
 35 36  1  0  0  0  0
 35 40  1  0  0  0  0
 36 37  1  0  0  0  0
 36 39  1  0  0  0  0
 36 41  1  0  0  0  0
 37 38  2  0  0  0  0
 37 45  1  0  0  0  0
 39 42  1  0  0  0  0
 39 43  1  0  0  0  0
 39 44  1  0  0  0  0
 45 46  1  0  0  0  0
 45 47  1  0  0  0  0
 46 48  1  0  0  0  0
 46 49  1  0  0  0  0
 46 50  1  0  0  0  0
M  CHG  1  23   1
M  END
$$$$

  -OEChem-05262216443D

 50 50  0     1  0  0  0  0  0999 V2000
   -1.9443    1.2060    4.4175 C   0  0  0  0  0  0  0  0  0  0  0  0
   -1.7162    0.0175    4.2380 O   0  0  0  0  0  0  0  0  0  0  0  0
   -2.0750    1.7520    5.8262 C   0  0  0  0  0  0  0  0  0  0  0  0
   -2.0098    0.9392    6.5548 H   0  0  0  0  0  0  0  0  0  0  0  0
   -1.2758    2.4700    6.0248 H   0  0  0  0  0  0  0  0  0  0  0  0
   -3.0403    2.2507    5.9449 H   0  0  0  0  0  0  0  0  0  0  0  0
   -2.0413    2.0589    3.3381 N   0  0  0  0  0  0  0  0  0  0  0  0
   -1.8320    1.6325    1.9471 C   0  0  2  0  0  0  0  0  0  0  0  0
   -0.3511    1.3511    1.5855 C   0  0  0  0  0  0  0  0  0  0  0  0
    0.5572    1.6457    2.3524 O   0  0  0  0  0  0  0  0  0  0  0  0
   -2.4169    2.7284    1.0493 C   0  0  0  0  0  0  0  0  0  0  0  0
   -2.0922    3.0539    3.5399 H   0  0  0  0  0  0  0  0  0  0  0  0
   -2.3948    0.7087    1.7728 H   0  0  0  0  0  0  0  0  0  0  0  0
   -1.8575    3.6623    1.1677 H   0  0  0  0  0  0  0  0  0  0  0  0
   -2.3775    2.4326   -0.0037 H   0  0  0  0  0  0  0  0  0  0  0  0
   -3.4641    2.9137    1.3098 H   0  0  0  0  0  0  0  0  0  0  0  0
   -0.0175    0.9419    0.3055 N   0  0  0  0  0  0  0  0  0  0  0  0
    1.0164   -0.0518   -0.0971 C   0  0  2  0  0  0  0  0  0  0  0  0
    0.5627   -0.7246   -1.4253 C   0  0  0  0  0  0  0  0  0  0  0  0
    1.0700   -1.7655   -1.8190 O   0  0  0  0  0  0  0  0  0  0  0  0
    1.2751   -1.2471    0.8833 C   0  0  0  0  0  0  0  0  0  0  0  0
    1.8229   -0.9190    2.2468 C   0  0  0  0  0  0  0  0  0  0  0  0
    3.1311   -0.5467    2.5560 N   0  3  0  0  0  0  0  0  0  0  0  0
    1.1525   -1.0789    3.4337 C   0  0  0  0  0  0  0  0  0  0  0  0
    3.2626   -0.3859    3.8508 C   0  0  0  0  0  0  0  0  0  0  0  0
    2.0432   -0.7210    4.4341 N   0  0  0  0  0  0  0  0  0  0  0  0
   -0.8435    0.9231   -0.2880 H   0  0  0  0  0  0  0  0  0  0  0  0
    1.9567    0.4783   -0.2778 H   0  0  0  0  0  0  0  0  0  0  0  0
    1.9862   -1.9464    0.4287 H   0  0  0  0  0  0  0  0  0  0  0  0
    0.3326   -1.7917    1.0086 H   0  0  0  0  0  0  0  0  0  0  0  0
    3.8307   -0.3358    1.8411 H   0  0  0  0  0  0  0  0  0  0  0  0
    0.1156   -1.3924    3.5580 H   0  0  0  0  0  0  0  0  0  0  0  0
    4.1556   -0.0413    4.3736 H   0  0  0  0  0  0  0  0  0  0  0  0
    1.8161   -0.6660    5.4302 H   0  0  0  0  0  0  0  0  0  0  0  0
   -0.4485   -0.1631   -2.1838 N   0  0  0  0  0  0  0  0  0  0  0  0
   -0.8712   -0.6401   -3.5074 C   0  0  2  0  0  0  0  0  0  0  0  0
   -1.4912    0.5283   -4.3037 C   0  0  0  0  0  0  0  0  0  0  0  0
   -1.6997    1.5948   -3.7315 O   0  0  0  0  0  0  0  0  0  0  0  0
   -1.8822   -1.7784   -3.3311 C   0  0  0  0  0  0  0  0  0  0  0  0
   -0.6494    0.8231   -2.0155 H   0  0  0  0  0  0  0  0  0  0  0  0
   -0.0046   -1.0044   -4.0702 H   0  0  0  0  0  0  0  0  0  0  0  0
   -2.7603   -1.4298   -2.7784 H   0  0  0  0  0  0  0  0  0  0  0  0
   -2.2115   -2.1556   -4.3042 H   0  0  0  0  0  0  0  0  0  0  0  0
   -1.4298   -2.6081   -2.7786 H   0  0  0  0  0  0  0  0  0  0  0  0
   -1.7851    0.4036   -5.6481 N   0  0  0  0  0  0  0  0  0  0  0  0
   -2.3403    1.4899   -6.4486 C   0  0  0  0  0  0  0  0  0  0  0  0
   -1.5853   -0.4853   -6.0989 H   0  0  0  0  0  0  0  0  0  0  0  0
   -3.3039    1.8141   -6.0410 H   0  0  0  0  0  0  0  0  0  0  0  0
   -1.6574    2.3462   -6.4607 H   0  0  0  0  0  0  0  0  0  0  0  0
   -2.4965    1.1596   -7.4803 H   0  0  0  0  0  0  0  0  0  0  0  0
  1  2  2  0  0  0  0
  1  3  1  0  0  0  0
  1  7  1  0  0  0  0
  3  4  1  0  0  0  0
  3  5  1  0  0  0  0
  3  6  1  0  0  0  0
  7  8  1  0  0  0  0
  7 12  1  0  0  0  0
  8  9  1  0  0  0  0
  8 11  1  0  0  0  0
  8 13  1  0  0  0  0
  9 10  2  0  0  0  0
  9 17  1  0  0  0  0
 11 14  1  0  0  0  0
 11 15  1  0  0  0  0
 11 16  1  0  0  0  0
 17 18  1  0  0  0  0
 17 27  1  0  0  0  0
 18 19  1  0  0  0  0
 18 21  1  0  0  0  0
 18 28  1  0  0  0  0
 19 20  2  0  0  0  0
 19 35  1  0  0  0  0
 21 22  1  0  0  0  0
 21 29  1  0  0  0  0
 21 30  1  0  0  0  0
 22 23  1  0  0  0  0
 22 24  2  0  0  0  0
 23 25  2  0  0  0  0
 23 31  1  0  0  0  0
 24 26  1  0  0  0  0
 24 32  1  0  0  0  0
 25 26  1  0  0  0  0
 25 33  1  0  0  0  0
 26 34  1  0  0  0  0
 35 36  1  0  0  0  0
 35 40  1  0  0  0  0
 36 37  1  0  0  0  0
 36 39  1  0  0  0  0
 36 41  1  0  0  0  0
 37 38  2  0  0  0  0
 37 45  1  0  0  0  0
 39 42  1  0  0  0  0
 39 43  1  0  0  0  0
 39 44  1  0  0  0  0
 45 46  1  0  0  0  0
 45 47  1  0  0  0  0
 46 48  1  0  0  0  0
 46 49  1  0  0  0  0
 46 50  1  0  0  0  0
M  CHG  1  23   1
M  END
$$$$

  -OEChem-05262216443D

 50 50  0     1  0  0  0  0  0999 V2000
   -1.8579    1.3077    4.4549 C   0  0  0  0  0  0  0  0  0  0  0  0
   -1.6608    0.1082    4.3159 O   0  0  0  0  0  0  0  0  0  0  0  0
   -1.9501    1.9088    5.8442 C   0  0  0  0  0  0  0  0  0  0  0  0
   -1.8940    1.1221    6.6018 H   0  0  0  0  0  0  0  0  0  0  0  0
   -1.1289    2.6120    6.0030 H   0  0  0  0  0  0  0  0  0  0  0  0
   -2.8997    2.4378    5.9591 H   0  0  0  0  0  0  0  0  0  0  0  0
   -1.9609    2.1223    3.3466 N   0  0  0  0  0  0  0  0  0  0  0  0
   -1.7970    1.6408    1.9673 C   0  0  2  0  0  0  0  0  0  0  0  0
   -0.3332    1.3109    1.5796 C   0  0  0  0  0  0  0  0  0  0  0  0
    0.6000    1.5931    2.3210 O   0  0  0  0  0  0  0  0  0  0  0  0
   -2.3785    2.7180    1.0448 C   0  0  0  0  0  0  0  0  0  0  0  0
   -1.9845    3.1249    3.5128 H   0  0  0  0  0  0  0  0  0  0  0  0
   -2.3845    0.7246    1.8411 H   0  0  0  0  0  0  0  0  0  0  0  0
   -1.7932    3.6410    1.1148 H   0  0  0  0  0  0  0  0  0  0  0  0
   -2.3738    2.3836    0.0028 H   0  0  0  0  0  0  0  0  0  0  0  0
   -3.4138    2.9392    1.3240 H   0  0  0  0  0  0  0  0  0  0  0  0
   -0.0367    0.8647    0.3031 N   0  0  0  0  0  0  0  0  0  0  0  0
    0.9560   -0.1695   -0.0945 C   0  0  2  0  0  0  0  0  0  0  0  0
    0.4296   -0.8349   -1.3988 C   0  0  0  0  0  0  0  0  0  0  0  0
    0.6651   -2.0017   -1.6810 O   0  0  0  0  0  0  0  0  0  0  0  0
    1.1981   -1.3507    0.9065 C   0  0  0  0  0  0  0  0  0  0  0  0
    1.7832   -1.0135    2.2522 C   0  0  0  0  0  0  0  0  0  0  0  0
    3.1072   -0.6765    2.5331 N   0  3  0  0  0  0  0  0  0  0  0  0
    1.1268   -1.1265    3.4523 C   0  0  0  0  0  0  0  0  0  0  0  0
    3.2639   -0.4923    3.8220 C   0  0  0  0  0  0  0  0  0  0  0  0
    2.0439   -0.7758    4.4309 N   0  0  0  0  0  0  0  0  0  0  0  0
   -0.8669    0.8684   -0.2873 H   0  0  0  0  0  0  0  0  0  0  0  0
    1.9093    0.3226   -0.3101 H   0  0  0  0  0  0  0  0  0  0  0  0
    1.8766   -2.0794    0.4486 H   0  0  0  0  0  0  0  0  0  0  0  0
    0.2420   -1.8632    1.0620 H   0  0  0  0  0  0  0  0  0  0  0  0
    3.8013   -0.5018    1.8034 H   0  0  0  0  0  0  0  0  0  0  0  0
    0.0819   -1.4019    3.5991 H   0  0  0  0  0  0  0  0  0  0  0  0
    4.1755   -0.1649    4.3232 H   0  0  0  0  0  0  0  0  0  0  0  0
    1.8334   -0.6897    5.4285 H   0  0  0  0  0  0  0  0  0  0  0  0
   -0.3419   -0.0925   -2.2736 N   0  0  0  0  0  0  0  0  0  0  0  0
   -0.7894   -0.5460   -3.5978 C   0  0  2  0  0  0  0  0  0  0  0  0
   -1.0609    0.6726   -4.5059 C   0  0  0  0  0  0  0  0  0  0  0  0
   -1.0531    1.7972   -4.0141 O   0  0  0  0  0  0  0  0  0  0  0  0
   -2.0567   -1.3943   -3.4402 C   0  0  0  0  0  0  0  0  0  0  0  0
   -0.3244    0.9221   -2.1529 H   0  0  0  0  0  0  0  0  0  0  0  0
   -0.0047   -1.1471   -4.0703 H   0  0  0  0  0  0  0  0  0  0  0  0
   -2.8569   -0.8064   -2.9793 H   0  0  0  0  0  0  0  0  0  0  0  0
   -2.4039   -1.7510   -4.4148 H   0  0  0  0  0  0  0  0  0  0  0  0
   -1.8571   -2.2664   -2.8096 H   0  0  0  0  0  0  0  0  0  0  0  0
   -1.2896    0.5201   -5.8601 N   0  0  0  0  0  0  0  0  0  0  0  0
   -1.5375    1.6415   -6.7600 C   0  0  0  0  0  0  0  0  0  0  0  0
   -1.2802   -0.4219   -6.2417 H   0  0  0  0  0  0  0  0  0  0  0  0
   -2.4408    2.1831   -6.4595 H   0  0  0  0  0  0  0  0  0  0  0  0
   -0.6911    2.3366   -6.7496 H   0  0  0  0  0  0  0  0  0  0  0  0
   -1.6763    1.2828   -7.7848 H   0  0  0  0  0  0  0  0  0  0  0  0
  1  2  2  0  0  0  0
  1  3  1  0  0  0  0
  1  7  1  0  0  0  0
  3  4  1  0  0  0  0
  3  5  1  0  0  0  0
  3  6  1  0  0  0  0
  7  8  1  0  0  0  0
  7 12  1  0  0  0  0
  8  9  1  0  0  0  0
  8 11  1  0  0  0  0
  8 13  1  0  0  0  0
  9 10  2  0  0  0  0
  9 17  1  0  0  0  0
 11 14  1  0  0  0  0
 11 15  1  0  0  0  0
 11 16  1  0  0  0  0
 17 18  1  0  0  0  0
 17 27  1  0  0  0  0
 18 19  1  0  0  0  0
 18 21  1  0  0  0  0
 18 28  1  0  0  0  0
 19 20  2  0  0  0  0
 19 35  1  0  0  0  0
 21 22  1  0  0  0  0
 21 29  1  0  0  0  0
 21 30  1  0  0  0  0
 22 23  1  0  0  0  0
 22 24  2  0  0  0  0
 23 25  2  0  0  0  0
 23 31  1  0  0  0  0
 24 26  1  0  0  0  0
 24 32  1  0  0  0  0
 25 26  1  0  0  0  0
 25 33  1  0  0  0  0
 26 34  1  0  0  0  0
 35 36  1  0  0  0  0
 35 40  1  0  0  0  0
 36 37  1  0  0  0  0
 36 39  1  0  0  0  0
 36 41  1  0  0  0  0
 37 38  2  0  0  0  0
 37 45  1  0  0  0  0
 39 42  1  0  0  0  0
 39 43  1  0  0  0  0
 39 44  1  0  0  0  0
 45 46  1  0  0  0  0
 45 47  1  0  0  0  0
 46 48  1  0  0  0  0
 46 49  1  0  0  0  0
 46 50  1  0  0  0  0
M  CHG  1  23   1
M  END
$$$$

  -OEChem-05262216443D

 50 50  0     1  0  0  0  0  0999 V2000
   -1.8386    0.5983    4.5983 C   0  0  0  0  0  0  0  0  0  0  0  0
   -1.5460   -0.4587    4.0576 O   0  0  0  0  0  0  0  0  0  0  0  0
   -1.9009    0.6899    6.1108 C   0  0  0  0  0  0  0  0  0  0  0  0
   -1.7276   -0.2939    6.5560 H   0  0  0  0  0  0  0  0  0  0  0  0
   -1.1398    1.3839    6.4762 H   0  0  0  0  0  0  0  0  0  0  0  0
   -2.8868    1.0444    6.4222 H   0  0  0  0  0  0  0  0  0  0  0  0
   -2.0788    1.7165    3.8278 N   0  0  0  0  0  0  0  0  0  0  0  0
   -2.0536    1.7091    2.3583 C   0  0  2  0  0  0  0  0  0  0  0  0
   -0.6540    1.4663    1.7417 C   0  0  0  0  0  0  0  0  0  0  0  0
    0.3610    1.7988    2.3403 O   0  0  0  0  0  0  0  0  0  0  0  0
   -2.6102    3.0569    1.8897 C   0  0  0  0  0  0  0  0  0  0  0  0
   -2.2319    2.5967    4.3127 H   0  0  0  0  0  0  0  0  0  0  0  0
   -2.7159    0.9119    2.0029 H   0  0  0  0  0  0  0  0  0  0  0  0
   -1.9617    3.8749    2.2212 H   0  0  0  0  0  0  0  0  0  0  0  0
   -2.6753    3.0894    0.7977 H   0  0  0  0  0  0  0  0  0  0  0  0
   -3.6134    3.2194    2.2969 H   0  0  0  0  0  0  0  0  0  0  0  0
   -0.5576    1.0805    0.4149 N   0  0  0  0  0  0  0  0  0  0  0  0
    0.4438    0.1830   -0.2177 C   0  0  2  0  0  0  0  0  0  0  0  0
   -0.2648   -0.5031   -1.4171 C   0  0  0  0  0  0  0  0  0  0  0  0
   -0.1755   -1.7041   -1.6369 O   0  0  0  0  0  0  0  0  0  0  0  0
    1.0719   -0.9615    0.6438 C   0  0  0  0  0  0  0  0  0  0  0  0
    1.9098   -0.5544    1.8253 C   0  0  0  0  0  0  0  0  0  0  0  0
    3.2039   -0.0362    1.7869 N   0  3  0  0  0  0  0  0  0  0  0  0
    1.5980   -0.7819    3.1420 C   0  0  0  0  0  0  0  0  0  0  0  0
    3.6549    0.1461    3.0042 C   0  0  0  0  0  0  0  0  0  0  0  0
    2.6778   -0.3200    3.8803 N   0  0  0  0  0  0  0  0  0  0  0  0
   -1.4760    1.0211   -0.0222 H   0  0  0  0  0  0  0  0  0  0  0  0
    1.2558    0.8016   -0.6124 H   0  0  0  0  0  0  0  0  0  0  0  0
    1.7043   -1.5866    0.0033 H   0  0  0  0  0  0  0  0  0  0  0  0
    0.2562   -1.5993    1.0042 H   0  0  0  0  0  0  0  0  0  0  0  0
    3.6640    0.2416    0.9172 H   0  0  0  0  0  0  0  0  0  0  0  0
    0.6719   -1.2165    3.5185 H   0  0  0  0  0  0  0  0  0  0  0  0
    4.6125    0.5893    3.2799 H   0  0  0  0  0  0  0  0  0  0  0  0
    2.7250   -0.2939    4.9016 H   0  0  0  0  0  0  0  0  0  0  0  0
   -1.0378    0.2768   -2.2592 N   0  0  0  0  0  0  0  0  0  0  0  0
   -1.4023   -0.1821   -3.6091 C   0  0  2  0  0  0  0  0  0  0  0  0
   -0.2896    0.1557   -4.6259 C   0  0  0  0  0  0  0  0  0  0  0  0
    0.5395    1.0174   -4.3514 O   0  0  0  0  0  0  0  0  0  0  0  0
   -2.7161    0.5010   -3.9962 C   0  0  0  0  0  0  0  0  0  0  0  0
   -0.8365    1.2729   -2.1886 H   0  0  0  0  0  0  0  0  0  0  0  0
   -1.5610   -1.2660   -3.6219 H   0  0  0  0  0  0  0  0  0  0  0  0
   -2.5931    1.5889   -4.0158 H   0  0  0  0  0  0  0  0  0  0  0  0
   -3.0417    0.1716   -4.9879 H   0  0  0  0  0  0  0  0  0  0  0  0
   -3.5013    0.2504   -3.2758 H   0  0  0  0  0  0  0  0  0  0  0  0
   -0.2187   -0.4943   -5.8434 N   0  0  0  0  0  0  0  0  0  0  0  0
    0.8248   -0.2334   -6.8292 C   0  0  0  0  0  0  0  0  0  0  0  0
   -0.8871   -1.2384   -6.0234 H   0  0  0  0  0  0  0  0  0  0  0  0
    0.8263    0.8233   -7.1177 H   0  0  0  0  0  0  0  0  0  0  0  0
    1.8095   -0.4880   -6.4229 H   0  0  0  0  0  0  0  0  0  0  0  0
    0.6557   -0.8343   -7.7282 H   0  0  0  0  0  0  0  0  0  0  0  0
  1  2  2  0  0  0  0
  1  3  1  0  0  0  0
  1  7  1  0  0  0  0
  3  4  1  0  0  0  0
  3  5  1  0  0  0  0
  3  6  1  0  0  0  0
  7  8  1  0  0  0  0
  7 12  1  0  0  0  0
  8  9  1  0  0  0  0
  8 11  1  0  0  0  0
  8 13  1  0  0  0  0
  9 10  2  0  0  0  0
  9 17  1  0  0  0  0
 11 14  1  0  0  0  0
 11 15  1  0  0  0  0
 11 16  1  0  0  0  0
 17 18  1  0  0  0  0
 17 27  1  0  0  0  0
 18 19  1  0  0  0  0
 18 21  1  0  0  0  0
 18 28  1  0  0  0  0
 19 20  2  0  0  0  0
 19 35  1  0  0  0  0
 21 22  1  0  0  0  0
 21 29  1  0  0  0  0
 21 30  1  0  0  0  0
 22 23  1  0  0  0  0
 22 24  2  0  0  0  0
 23 25  2  0  0  0  0
 23 31  1  0  0  0  0
 24 26  1  0  0  0  0
 24 32  1  0  0  0  0
 25 26  1  0  0  0  0
 25 33  1  0  0  0  0
 26 34  1  0  0  0  0
 35 36  1  0  0  0  0
 35 40  1  0  0  0  0
 36 37  1  0  0  0  0
 36 39  1  0  0  0  0
 36 41  1  0  0  0  0
 37 38  2  0  0  0  0
 37 45  1  0  0  0  0
 39 42  1  0  0  0  0
 39 43  1  0  0  0  0
 39 44  1  0  0  0  0
 45 46  1  0  0  0  0
 45 47  1  0  0  0  0
 46 48  1  0  0  0  0
 46 49  1  0  0  0  0
 46 50  1  0  0  0  0
M  CHG  1  23   1
M  END
$$$$

  -OEChem-05262216443D

 50 50  0     1  0  0  0  0  0999 V2000
   -1.7469    0.6702    4.7218 C   0  0  0  0  0  0  0  0  0  0  0  0
   -1.5203   -0.4205    4.2178 O   0  0  0  0  0  0  0  0  0  0  0  0
   -1.6794    0.8420    6.2267 C   0  0  0  0  0  0  0  0  0  0  0  0
   -1.4450   -0.1124    6.7065 H   0  0  0  0  0  0  0  0  0  0  0  0
   -0.9054    1.5681    6.4869 H   0  0  0  0  0  0  0  0  0  0  0  0
   -2.6424    1.1952    6.6042 H   0  0  0  0  0  0  0  0  0  0  0  0
   -2.0251    1.7540    3.9158 N   0  0  0  0  0  0  0  0  0  0  0  0
   -2.0719    1.6801    2.4487 C   0  0  2  0  0  0  0  0  0  0  0  0
   -0.6947    1.4583    1.7763 C   0  0  0  0  0  0  0  0  0  0  0  0
    0.3440    1.7418    2.3599 O   0  0  0  0  0  0  0  0  0  0  0  0
   -2.7050    2.9827    1.9497 C   0  0  0  0  0  0  0  0  0  0  0  0
   -2.0875    2.6642    4.3636 H   0  0  0  0  0  0  0  0  0  0  0  0
   -2.7190    0.8438    2.1611 H   0  0  0  0  0  0  0  0  0  0  0  0
   -2.0694    3.8386    2.1999 H   0  0  0  0  0  0  0  0  0  0  0  0
   -2.8385    2.9569    0.8637 H   0  0  0  0  0  0  0  0  0  0  0  0
   -3.6870    3.1301    2.4105 H   0  0  0  0  0  0  0  0  0  0  0  0
   -0.6370    1.1368    0.4304 N   0  0  0  0  0  0  0  0  0  0  0  0
    0.3246    0.2384   -0.2566 C   0  0  2  0  0  0  0  0  0  0  0  0
   -0.4204   -0.3682   -1.4737 C   0  0  0  0  0  0  0  0  0  0  0  0
   -0.5832   -1.5732   -1.6164 O   0  0  0  0  0  0  0  0  0  0  0  0
    0.9235   -0.9667    0.5398 C   0  0  0  0  0  0  0  0  0  0  0  0
    1.7900   -0.6498    1.7283 C   0  0  0  0  0  0  0  0  0  0  0  0
    3.1013   -0.1764    1.7003 N   0  3  0  0  0  0  0  0  0  0  0  0
    1.4822   -0.9300    3.0358 C   0  0  0  0  0  0  0  0  0  0  0  0
    3.5711   -0.0741    2.9199 C   0  0  0  0  0  0  0  0  0  0  0  0
    2.5861   -0.5474    3.7833 N   0  0  0  0  0  0  0  0  0  0  0  0
   -1.5635    1.1304    0.0065 H   0  0  0  0  0  0  0  0  0  0  0  0
    1.1549    0.8453   -0.6312 H   0  0  0  0  0  0  0  0  0  0  0  0
    1.5181   -1.5835   -0.1438 H   0  0  0  0  0  0  0  0  0  0  0  0
    0.0905   -1.5894    0.8869 H   0  0  0  0  0  0  0  0  0  0  0  0
    3.5607    0.1326    0.8409 H   0  0  0  0  0  0  0  0  0  0  0  0
    0.5438   -1.3471    3.4025 H   0  0  0  0  0  0  0  0  0  0  0  0
    4.5470    0.3195    3.2062 H   0  0  0  0  0  0  0  0  0  0  0  0
    2.6447   -0.5757    4.8040 H   0  0  0  0  0  0  0  0  0  0  0  0
   -0.9102    0.4950   -2.4364 N   0  0  0  0  0  0  0  0  0  0  0  0
   -1.1581    0.0323   -3.8111 C   0  0  2  0  0  0  0  0  0  0  0  0
    0.1466    0.0230   -4.6390 C   0  0  0  0  0  0  0  0  0  0  0  0
    1.1227    0.6539   -4.2445 O   0  0  0  0  0  0  0  0  0  0  0  0
   -2.1941    0.9654   -4.4433 C   0  0  0  0  0  0  0  0  0  0  0  0
   -0.5506    1.4444   -2.3590 H   0  0  0  0  0  0  0  0  0  0  0  0
   -1.5667   -0.9842   -3.8072 H   0  0  0  0  0  0  0  0  0  0  0  0
   -1.8154    1.9920   -4.4834 H   0  0  0  0  0  0  0  0  0  0  0  0
   -2.4280    0.6434   -5.4630 H   0  0  0  0  0  0  0  0  0  0  0  0
   -3.1197    0.9566   -3.8593 H   0  0  0  0  0  0  0  0  0  0  0  0
    0.2291   -0.6880   -5.8209 N   0  0  0  0  0  0  0  0  0  0  0  0
    1.4385   -0.7473   -6.6341 C   0  0  0  0  0  0  0  0  0  0  0  0
   -0.5801   -1.2339   -6.1040 H   0  0  0  0  0  0  0  0  0  0  0  0
    1.7314    0.2570   -6.9584 H   0  0  0  0  0  0  0  0  0  0  0  0
    2.2637   -1.1876   -6.0643 H   0  0  0  0  0  0  0  0  0  0  0  0
    1.2679   -1.3609   -7.5240 H   0  0  0  0  0  0  0  0  0  0  0  0
  1  2  2  0  0  0  0
  1  3  1  0  0  0  0
  1  7  1  0  0  0  0
  3  4  1  0  0  0  0
  3  5  1  0  0  0  0
  3  6  1  0  0  0  0
  7  8  1  0  0  0  0
  7 12  1  0  0  0  0
  8  9  1  0  0  0  0
  8 11  1  0  0  0  0
  8 13  1  0  0  0  0
  9 10  2  0  0  0  0
  9 17  1  0  0  0  0
 11 14  1  0  0  0  0
 11 15  1  0  0  0  0
 11 16  1  0  0  0  0
 17 18  1  0  0  0  0
 17 27  1  0  0  0  0
 18 19  1  0  0  0  0
 18 21  1  0  0  0  0
 18 28  1  0  0  0  0
 19 20  2  0  0  0  0
 19 35  1  0  0  0  0
 21 22  1  0  0  0  0
 21 29  1  0  0  0  0
 21 30  1  0  0  0  0
 22 23  1  0  0  0  0
 22 24  2  0  0  0  0
 23 25  2  0  0  0  0
 23 31  1  0  0  0  0
 24 26  1  0  0  0  0
 24 32  1  0  0  0  0
 25 26  1  0  0  0  0
 25 33  1  0  0  0  0
 26 34  1  0  0  0  0
 35 36  1  0  0  0  0
 35 40  1  0  0  0  0
 36 37  1  0  0  0  0
 36 39  1  0  0  0  0
 36 41  1  0  0  0  0
 37 38  2  0  0  0  0
 37 45  1  0  0  0  0
 39 42  1  0  0  0  0
 39 43  1  0  0  0  0
 39 44  1  0  0  0  0
 45 46  1  0  0  0  0
 45 47  1  0  0  0  0
 46 48  1  0  0  0  0
 46 49  1  0  0  0  0
 46 50  1  0  0  0  0
M  CHG  1  23   1
M  END
$$$$

  -OEChem-05262216443D

 50 50  0     1  0  0  0  0  0999 V2000
   -1.6642    0.7091    4.8151 C   0  0  0  0  0  0  0  0  0  0  0  0
   -1.4610   -0.3981    4.3376 O   0  0  0  0  0  0  0  0  0  0  0  0
   -1.5326    0.9286    6.3096 C   0  0  0  0  0  0  0  0  0  0  0  0
   -1.3408   -0.0215    6.8158 H   0  0  0  0  0  0  0  0  0  0  0  0
   -0.7062    1.6129    6.5148 H   0  0  0  0  0  0  0  0  0  0  0  0
   -2.4568    1.3551    6.7075 H   0  0  0  0  0  0  0  0  0  0  0  0
   -1.9732    1.7689    3.9886 N   0  0  0  0  0  0  0  0  0  0  0  0
   -2.0705    1.6538    2.5264 C   0  0  2  0  0  0  0  0  0  0  0  0
   -0.7102    1.4711    1.8077 C   0  0  0  0  0  0  0  0  0  0  0  0
    0.3466    1.6990    2.3838 O   0  0  0  0  0  0  0  0  0  0  0  0
   -2.7839    2.9124    2.0221 C   0  0  0  0  0  0  0  0  0  0  0  0
   -2.0049    2.6928    4.4110 H   0  0  0  0  0  0  0  0  0  0  0  0
   -2.6895    0.7825    2.2845 H   0  0  0  0  0  0  0  0  0  0  0  0
   -2.1752    3.8021    2.2150 H   0  0  0  0  0  0  0  0  0  0  0  0
   -2.9699    2.8468    0.9457 H   0  0  0  0  0  0  0  0  0  0  0  0
   -3.7479    3.0325    2.5274 H   0  0  0  0  0  0  0  0  0  0  0  0
   -0.6783    1.2382    0.4432 N   0  0  0  0  0  0  0  0  0  0  0  0
    0.2438    0.3472   -0.3020 C   0  0  2  0  0  0  0  0  0  0  0  0
   -0.5190   -0.1574   -1.5508 C   0  0  0  0  0  0  0  0  0  0  0  0
   -0.9633   -1.2952   -1.6332 O   0  0  0  0  0  0  0  0  0  0  0  0
    0.7924   -0.9326    0.4079 C   0  0  0  0  0  0  0  0  0  0  0  0
    1.6726   -0.7297    1.6110 C   0  0  0  0  0  0  0  0  0  0  0  0
    3.0020   -0.3088    1.6099 N   0  3  0  0  0  0  0  0  0  0  0  0
    1.3510   -1.0717    2.9002 C   0  0  0  0  0  0  0  0  0  0  0  0
    3.4732   -0.2962    2.8333 C   0  0  0  0  0  0  0  0  0  0  0  0
    2.4678   -0.7783    3.6680 N   0  0  0  0  0  0  0  0  0  0  0  0
   -1.6112    1.2762    0.0355 H   0  0  0  0  0  0  0  0  0  0  0  0
    1.1004    0.9409   -0.6361 H   0  0  0  0  0  0  0  0  0  0  0  0
    1.3535   -1.5281   -0.3222 H   0  0  0  0  0  0  0  0  0  0  0  0
   -0.0633   -1.5413    0.7228 H   0  0  0  0  0  0  0  0  0  0  0  0
    3.4763    0.0267    0.7687 H   0  0  0  0  0  0  0  0  0  0  0  0
    0.3950   -1.4665    3.2454 H   0  0  0  0  0  0  0  0  0  0  0  0
    4.4636    0.0401    3.1419 H   0  0  0  0  0  0  0  0  0  0  0  0
    2.5198   -0.8632    4.6862 H   0  0  0  0  0  0  0  0  0  0  0  0
   -0.6999    0.7147   -2.6069 N   0  0  0  0  0  0  0  0  0  0  0  0
   -0.8481    0.2007   -3.9770 C   0  0  2  0  0  0  0  0  0  0  0  0
    0.5201   -0.2024   -4.5750 C   0  0  0  0  0  0  0  0  0  0  0  0
    1.5577    0.1710   -4.0345 O   0  0  0  0  0  0  0  0  0  0  0  0
   -1.5064    1.2956   -4.8200 C   0  0  0  0  0  0  0  0  0  0  0  0
   -0.1749    1.5823   -2.5238 H   0  0  0  0  0  0  0  0  0  0  0  0
   -1.4982   -0.6814   -3.9858 H   0  0  0  0  0  0  0  0  0  0  0  0
   -0.8758    2.1903   -4.8492 H   0  0  0  0  0  0  0  0  0  0  0  0
   -1.6619    0.9484   -5.8463 H   0  0  0  0  0  0  0  0  0  0  0  0
   -2.4792    1.5667   -4.3977 H   0  0  0  0  0  0  0  0  0  0  0  0
    0.5905   -0.9826   -5.7134 N   0  0  0  0  0  0  0  0  0  0  0  0
    1.8484   -1.3979   -6.3242 C   0  0  0  0  0  0  0  0  0  0  0  0
   -0.2825   -1.3043   -6.1225 H   0  0  0  0  0  0  0  0  0  0  0  0
    2.4152   -0.5253   -6.6661 H   0  0  0  0  0  0  0  0  0  0  0  0
    2.4595   -1.9553   -5.6063 H   0  0  0  0  0  0  0  0  0  0  0  0
    1.6563   -2.0437   -7.1868 H   0  0  0  0  0  0  0  0  0  0  0  0
  1  2  2  0  0  0  0
  1  3  1  0  0  0  0
  1  7  1  0  0  0  0
  3  4  1  0  0  0  0
  3  5  1  0  0  0  0
  3  6  1  0  0  0  0
  7  8  1  0  0  0  0
  7 12  1  0  0  0  0
  8  9  1  0  0  0  0
  8 11  1  0  0  0  0
  8 13  1  0  0  0  0
  9 10  2  0  0  0  0
  9 17  1  0  0  0  0
 11 14  1  0  0  0  0
 11 15  1  0  0  0  0
 11 16  1  0  0  0  0
 17 18  1  0  0  0  0
 17 27  1  0  0  0  0
 18 19  1  0  0  0  0
 18 21  1  0  0  0  0
 18 28  1  0  0  0  0
 19 20  2  0  0  0  0
 19 35  1  0  0  0  0
 21 22  1  0  0  0  0
 21 29  1  0  0  0  0
 21 30  1  0  0  0  0
 22 23  1  0  0  0  0
 22 24  2  0  0  0  0
 23 25  2  0  0  0  0
 23 31  1  0  0  0  0
 24 26  1  0  0  0  0
 24 32  1  0  0  0  0
 25 26  1  0  0  0  0
 25 33  1  0  0  0  0
 26 34  1  0  0  0  0
 35 36  1  0  0  0  0
 35 40  1  0  0  0  0
 36 37  1  0  0  0  0
 36 39  1  0  0  0  0
 36 41  1  0  0  0  0
 37 38  2  0  0  0  0
 37 45  1  0  0  0  0
 39 42  1  0  0  0  0
 39 43  1  0  0  0  0
 39 44  1  0  0  0  0
 45 46  1  0  0  0  0
 45 47  1  0  0  0  0
 46 48  1  0  0  0  0
 46 49  1  0  0  0  0
 46 50  1  0  0  0  0
M  CHG  1  23   1
M  END
$$$$

  -OEChem-05262216443D

 50 50  0     1  0  0  0  0  0999 V2000
   -1.7289    0.5490    4.7193 C   0  0  0  0  0  0  0  0  0  0  0  0
   -1.5630   -0.5066    4.1253 O   0  0  0  0  0  0  0  0  0  0  0  0
   -1.6234    0.5953    6.2311 C   0  0  0  0  0  0  0  0  0  0  0  0
   -1.4950   -0.4140    6.6323 H   0  0  0  0  0  0  0  0  0  0  0  0
   -0.7675    1.2062    6.5271 H   0  0  0  0  0  0  0  0  0  0  0  0
   -2.5336    1.0264    6.6553 H   0  0  0  0  0  0  0  0  0  0  0  0
   -1.9732    1.7062    4.0105 N   0  0  0  0  0  0  0  0  0  0  0  0
   -2.0567    1.7567    2.5439 C   0  0  2  0  0  0  0  0  0  0  0  0
   -0.7023    1.5638    1.8183 C   0  0  0  0  0  0  0  0  0  0  0  0
    0.3601    1.7228    2.4074 O   0  0  0  0  0  0  0  0  0  0  0  0
   -2.6729    3.1100    2.1762 C   0  0  0  0  0  0  0  0  0  0  0  0
   -1.9889    2.5778    4.5326 H   0  0  0  0  0  0  0  0  0  0  0  0
   -2.7293    0.9619    2.2024 H   0  0  0  0  0  0  0  0  0  0  0  0
   -2.0099    3.9278    2.4777 H   0  0  0  0  0  0  0  0  0  0  0  0
   -2.8388    3.1792    1.0966 H   0  0  0  0  0  0  0  0  0  0  0  0
   -3.6373    3.2385    2.6781 H   0  0  0  0  0  0  0  0  0  0  0  0
   -0.6807    1.4074    0.4431 N   0  0  0  0  0  0  0  0  0  0  0  0
    0.2187    0.5410   -0.3540 C   0  0  2  0  0  0  0  0  0  0  0  0
   -0.5466    0.1159   -1.6270 C   0  0  0  0  0  0  0  0  0  0  0  0
   -1.2300   -0.8992   -1.6580 O   0  0  0  0  0  0  0  0  0  0  0  0
    0.7429   -0.7926    0.2671 C   0  0  0  0  0  0  0  0  0  0  0  0
    1.6328   -0.6835    1.4748 C   0  0  0  0  0  0  0  0  0  0  0  0
    2.9700   -0.2891    1.4854 N   0  3  0  0  0  0  0  0  0  0  0  0
    1.3145   -1.0930    2.7446 C   0  0  0  0  0  0  0  0  0  0  0  0
    3.4523   -0.3583    2.7025 C   0  0  0  0  0  0  0  0  0  0  0  0
    2.4437   -0.8666    3.5176 N   0  0  0  0  0  0  0  0  0  0  0  0
   -1.6155    1.4818    0.0440 H   0  0  0  0  0  0  0  0  0  0  0  0
    1.0883    1.1354   -0.6504 H   0  0  0  0  0  0  0  0  0  0  0  0
    1.2850   -1.3522   -0.5042 H   0  0  0  0  0  0  0  0  0  0  0  0
   -0.1231   -1.4023    0.5509 H   0  0  0  0  0  0  0  0  0  0  0  0
    3.4460    0.0765    0.6577 H   0  0  0  0  0  0  0  0  0  0  0  0
    0.3533   -1.4889    3.0731 H   0  0  0  0  0  0  0  0  0  0  0  0
    4.4531   -0.0635    3.0194 H   0  0  0  0  0  0  0  0  0  0  0  0
    2.5046   -1.0155    4.5277 H   0  0  0  0  0  0  0  0  0  0  0  0
   -0.4533    0.9025   -2.7589 N   0  0  0  0  0  0  0  0  0  0  0  0
   -0.5270    0.2677   -4.0832 C   0  0  2  0  0  0  0  0  0  0  0  0
    0.7709   -0.5144   -4.4003 C   0  0  0  0  0  0  0  0  0  0  0  0
    1.7742   -0.3454   -3.7103 O   0  0  0  0  0  0  0  0  0  0  0  0
   -0.7695    1.3660   -5.1216 C   0  0  0  0  0  0  0  0  0  0  0  0
    0.2133    1.6665   -2.6810 H   0  0  0  0  0  0  0  0  0  0  0  0
   -1.3678   -0.4341   -4.1194 H   0  0  0  0  0  0  0  0  0  0  0  0
    0.0611    2.0796   -5.1299 H   0  0  0  0  0  0  0  0  0  0  0  0
   -0.8642    0.9333   -6.1226 H   0  0  0  0  0  0  0  0  0  0  0  0
   -1.6934    1.9069   -4.8924 H   0  0  0  0  0  0  0  0  0  0  0  0
    0.8113   -1.4201   -5.4431 N   0  0  0  0  0  0  0  0  0  0  0  0
    1.9842   -2.2284   -5.7576 C   0  0  0  0  0  0  0  0  0  0  0  0
   -0.0485   -1.5848   -5.9596 H   0  0  0  0  0  0  0  0  0  0  0  0
    2.8543   -1.5896   -5.9430 H   0  0  0  0  0  0  0  0  0  0  0  0
    2.2160   -2.9070   -4.9300 H   0  0  0  0  0  0  0  0  0  0  0  0
    1.8019   -2.8274   -6.6552 H   0  0  0  0  0  0  0  0  0  0  0  0
  1  2  2  0  0  0  0
  1  3  1  0  0  0  0
  1  7  1  0  0  0  0
  3  4  1  0  0  0  0
  3  5  1  0  0  0  0
  3  6  1  0  0  0  0
  7  8  1  0  0  0  0
  7 12  1  0  0  0  0
  8  9  1  0  0  0  0
  8 11  1  0  0  0  0
  8 13  1  0  0  0  0
  9 10  2  0  0  0  0
  9 17  1  0  0  0  0
 11 14  1  0  0  0  0
 11 15  1  0  0  0  0
 11 16  1  0  0  0  0
 17 18  1  0  0  0  0
 17 27  1  0  0  0  0
 18 19  1  0  0  0  0
 18 21  1  0  0  0  0
 18 28  1  0  0  0  0
 19 20  2  0  0  0  0
 19 35  1  0  0  0  0
 21 22  1  0  0  0  0
 21 29  1  0  0  0  0
 21 30  1  0  0  0  0
 22 23  1  0  0  0  0
 22 24  2  0  0  0  0
 23 25  2  0  0  0  0
 23 31  1  0  0  0  0
 24 26  1  0  0  0  0
 24 32  1  0  0  0  0
 25 26  1  0  0  0  0
 25 33  1  0  0  0  0
 26 34  1  0  0  0  0
 35 36  1  0  0  0  0
 35 40  1  0  0  0  0
 36 37  1  0  0  0  0
 36 39  1  0  0  0  0
 36 41  1  0  0  0  0
 37 38  2  0  0  0  0
 37 45  1  0  0  0  0
 39 42  1  0  0  0  0
 39 43  1  0  0  0  0
 39 44  1  0  0  0  0
 45 46  1  0  0  0  0
 45 47  1  0  0  0  0
 46 48  1  0  0  0  0
 46 49  1  0  0  0  0
 46 50  1  0  0  0  0
M  CHG  1  23   1
M  END
$$$$

  -OEChem-05262216443D

 50 50  0     1  0  0  0  0  0999 V2000
   -1.6791    0.5924    4.7648 C   0  0  0  0  0  0  0  0  0  0  0  0
   -1.4968   -0.4897    4.2252 O   0  0  0  0  0  0  0  0  0  0  0  0
   -1.5719    0.7159    6.2724 C   0  0  0  0  0  0  0  0  0  0  0  0
   -1.3791   -0.2636    6.7188 H   0  0  0  0  0  0  0  0  0  0  0  0
   -0.7547    1.3917    6.5358 H   0  0  0  0  0  0  0  0  0  0  0  0
   -2.5060    1.1086    6.6821 H   0  0  0  0  0  0  0  0  0  0  0  0
   -1.9500    1.7084    4.0010 N   0  0  0  0  0  0  0  0  0  0  0  0
   -2.0260    1.6910    2.5328 C   0  0  2  0  0  0  0  0  0  0  0  0
   -0.6558    1.5686    1.8202 C   0  0  0  0  0  0  0  0  0  0  0  0
    0.3970    1.6798    2.4377 O   0  0  0  0  0  0  0  0  0  0  0  0
   -2.7461    2.9749    2.1077 C   0  0  0  0  0  0  0  0  0  0  0  0
   -1.9708    2.6043    4.4802 H   0  0  0  0  0  0  0  0  0  0  0  0
   -2.6341    0.8346    2.2205 H   0  0  0  0  0  0  0  0  0  0  0  0
   -2.1485    3.8549    2.3681 H   0  0  0  0  0  0  0  0  0  0  0  0
   -2.9208    2.9815    1.0274 H   0  0  0  0  0  0  0  0  0  0  0  0
   -3.7168    3.0508    2.6086 H   0  0  0  0  0  0  0  0  0  0  0  0
   -0.6006    1.5019    0.4392 N   0  0  0  0  0  0  0  0  0  0  0  0
    0.3112    0.6701   -0.3781 C   0  0  2  0  0  0  0  0  0  0  0  0
   -0.4191    0.3364   -1.6953 C   0  0  0  0  0  0  0  0  0  0  0  0
   -1.3322   -0.4788   -1.7164 O   0  0  0  0  0  0  0  0  0  0  0  0
    0.7537   -0.7270    0.1607 C   0  0  0  0  0  0  0  0  0  0  0  0
    1.5767   -0.7479    1.4197 C   0  0  0  0  0  0  0  0  0  0  0  0
    2.9235   -0.4100    1.5457 N   0  3  0  0  0  0  0  0  0  0  0  0
    1.1579   -1.2273    2.6345 C   0  0  0  0  0  0  0  0  0  0  0  0
    3.3187   -0.5830    2.7842 C   0  0  0  0  0  0  0  0  0  0  0  0
    2.2382   -1.1016    3.4940 N   0  0  0  0  0  0  0  0  0  0  0  0
   -1.5273    1.5902    0.0232 H   0  0  0  0  0  0  0  0  0  0  0  0
    1.2082    1.2561   -0.5981 H   0  0  0  0  0  0  0  0  0  0  0  0
    1.3204   -1.2439   -0.6232 H   0  0  0  0  0  0  0  0  0  0  0  0
   -0.1458   -1.3256    0.3463 H   0  0  0  0  0  0  0  0  0  0  0  0
    3.4687   -0.0104    0.7790 H   0  0  0  0  0  0  0  0  0  0  0  0
    0.1611   -1.5976    2.8759 H   0  0  0  0  0  0  0  0  0  0  0  0
    4.3057   -0.3538    3.1871 H   0  0  0  0  0  0  0  0  0  0  0  0
    2.2180   -1.3081    4.4958 H   0  0  0  0  0  0  0  0  0  0  0  0
   -0.0547    0.9821   -2.8605 N   0  0  0  0  0  0  0  0  0  0  0  0
   -0.1593    0.2648   -4.1391 C   0  0  2  0  0  0  0  0  0  0  0  0
    0.9530   -0.8038   -4.2714 C   0  0  0  0  0  0  0  0  0  0  0  0
    1.8987   -0.8073   -3.4855 O   0  0  0  0  0  0  0  0  0  0  0  0
   -0.0616    1.2959   -5.2658 C   0  0  0  0  0  0  0  0  0  0  0  0
    0.7587    1.5849   -2.7678 H   0  0  0  0  0  0  0  0  0  0  0  0
   -1.1302   -0.2381   -4.2124 H   0  0  0  0  0  0  0  0  0  0  0  0
    0.9070    1.8056   -5.2391 H   0  0  0  0  0  0  0  0  0  0  0  0
   -0.1711    0.8111   -6.2408 H   0  0  0  0  0  0  0  0  0  0  0  0
   -0.8537    2.0446   -5.1638 H   0  0  0  0  0  0  0  0  0  0  0  0
    0.8880   -1.7716   -5.2553 N   0  0  0  0  0  0  0  0  0  0  0  0
    1.8852   -2.8247   -5.4115 C   0  0  0  0  0  0  0  0  0  0  0  0
    0.0746   -1.7739   -5.8650 H   0  0  0  0  0  0  0  0  0  0  0  0
    2.8738   -2.3926   -5.5990 H   0  0  0  0  0  0  0  0  0  0  0  0
    1.9358   -3.4423   -4.5085 H   0  0  0  0  0  0  0  0  0  0  0  0
    1.6261   -3.4698   -6.2568 H   0  0  0  0  0  0  0  0  0  0  0  0
  1  2  2  0  0  0  0
  1  3  1  0  0  0  0
  1  7  1  0  0  0  0
  3  4  1  0  0  0  0
  3  5  1  0  0  0  0
  3  6  1  0  0  0  0
  7  8  1  0  0  0  0
  7 12  1  0  0  0  0
  8  9  1  0  0  0  0
  8 11  1  0  0  0  0
  8 13  1  0  0  0  0
  9 10  2  0  0  0  0
  9 17  1  0  0  0  0
 11 14  1  0  0  0  0
 11 15  1  0  0  0  0
 11 16  1  0  0  0  0
 17 18  1  0  0  0  0
 17 27  1  0  0  0  0
 18 19  1  0  0  0  0
 18 21  1  0  0  0  0
 18 28  1  0  0  0  0
 19 20  2  0  0  0  0
 19 35  1  0  0  0  0
 21 22  1  0  0  0  0
 21 29  1  0  0  0  0
 21 30  1  0  0  0  0
 22 23  1  0  0  0  0
 22 24  2  0  0  0  0
 23 25  2  0  0  0  0
 23 31  1  0  0  0  0
 24 26  1  0  0  0  0
 24 32  1  0  0  0  0
 25 26  1  0  0  0  0
 25 33  1  0  0  0  0
 26 34  1  0  0  0  0
 35 36  1  0  0  0  0
 35 40  1  0  0  0  0
 36 37  1  0  0  0  0
 36 39  1  0  0  0  0
 36 41  1  0  0  0  0
 37 38  2  0  0  0  0
 37 45  1  0  0  0  0
 39 42  1  0  0  0  0
 39 43  1  0  0  0  0
 39 44  1  0  0  0  0
 45 46  1  0  0  0  0
 45 47  1  0  0  0  0
 46 48  1  0  0  0  0
 46 49  1  0  0  0  0
 46 50  1  0  0  0  0
M  CHG  1  23   1
M  END
$$$$

  -OEChem-05262216443D

 50 50  0     1  0  0  0  0  0999 V2000
   -1.7101    0.6085    4.7446 C   0  0  0  0  0  0  0  0  0  0  0  0
   -1.5127   -0.4816    4.2262 O   0  0  0  0  0  0  0  0  0  0  0  0
   -1.6517    0.7516    6.2535 C   0  0  0  0  0  0  0  0  0  0  0  0
   -1.5746   -0.2330    6.7230 H   0  0  0  0  0  0  0  0  0  0  0  0
   -0.7833    1.3499    6.5397 H   0  0  0  0  0  0  0  0  0  0  0  0
   -2.5585    1.2411    6.6178 H   0  0  0  0  0  0  0  0  0  0  0  0
   -1.9562    1.7149    3.9584 N   0  0  0  0  0  0  0  0  0  0  0  0
   -1.9883    1.6826    2.4883 C   0  0  2  0  0  0  0  0  0  0  0  0
   -0.5948    1.5839    1.8175 C   0  0  0  0  0  0  0  0  0  0  0  0
    0.4374    1.6691    2.4733 O   0  0  0  0  0  0  0  0  0  0  0  0
   -2.7248    2.9468    2.0319 C   0  0  0  0  0  0  0  0  0  0  0  0
   -1.9892    2.6164    4.4264 H   0  0  0  0  0  0  0  0  0  0  0  0
   -2.5678    0.8105    2.1653 H   0  0  0  0  0  0  0  0  0  0  0  0
   -2.1526    3.8418    2.2972 H   0  0  0  0  0  0  0  0  0  0  0  0
   -2.8742    2.9390    0.9478 H   0  0  0  0  0  0  0  0  0  0  0  0
   -3.7082    3.0077    2.5092 H   0  0  0  0  0  0  0  0  0  0  0  0
   -0.4878    1.5590    0.4382 N   0  0  0  0  0  0  0  0  0  0  0  0
    0.4556    0.7494   -0.3650 C   0  0  2  0  0  0  0  0  0  0  0  0
   -0.2252    0.4570   -1.7169 C   0  0  0  0  0  0  0  0  0  0  0  0
   -1.2969   -0.1346   -1.7467 O   0  0  0  0  0  0  0  0  0  0  0  0
    0.8299   -0.6811    0.1361 C   0  0  0  0  0  0  0  0  0  0  0  0
    1.5685   -0.7761    1.4430 C   0  0  0  0  0  0  0  0  0  0  0  0
    2.9106   -0.4797    1.6796 N   0  3  0  0  0  0  0  0  0  0  0  0
    1.0503   -1.2878    2.6049 C   0  0  0  0  0  0  0  0  0  0  0  0
    3.2074   -0.7040    2.9373 C   0  0  0  0  0  0  0  0  0  0  0  0
    2.0661   -1.2219    3.5451 N   0  0  0  0  0  0  0  0  0  0  0  0
   -1.3993    1.6484   -0.0114 H   0  0  0  0  0  0  0  0  0  0  0  0
    1.3698    1.3291   -0.5228 H   0  0  0  0  0  0  0  0  0  0  0  0
    1.4351   -1.1808   -0.6296 H   0  0  0  0  0  0  0  0  0  0  0  0
   -0.0940   -1.2631    0.2346 H   0  0  0  0  0  0  0  0  0  0  0  0
    3.5192   -0.0605    0.9737 H   0  0  0  0  0  0  0  0  0  0  0  0
    0.0286   -1.6350    2.7625 H   0  0  0  0  0  0  0  0  0  0  0  0
    4.1646   -0.5084    3.4217 H   0  0  0  0  0  0  0  0  0  0  0  0
    1.9628   -1.4564    4.5355 H   0  0  0  0  0  0  0  0  0  0  0  0
    0.3617    0.8825   -2.8924 N   0  0  0  0  0  0  0  0  0  0  0  0
    0.1583    0.1182   -4.1316 C   0  0  2  0  0  0  0  0  0  0  0  0
    1.0509   -1.1453   -4.1567 C   0  0  0  0  0  0  0  0  0  0  0  0
    1.9462   -1.2788   -3.3247 O   0  0  0  0  0  0  0  0  0  0  0  0
    0.4851    1.0394   -5.3100 C   0  0  0  0  0  0  0  0  0  0  0  0
    1.2892    1.2824   -2.7788 H   0  0  0  0  0  0  0  0  0  0  0  0
   -0.8876   -0.1977   -4.2185 H   0  0  0  0  0  0  0  0  0  0  0  0
    1.5325    1.3563   -5.2725 H   0  0  0  0  0  0  0  0  0  0  0  0
    0.3137    0.5242   -6.2604 H   0  0  0  0  0  0  0  0  0  0  0  0
   -0.1511    1.9300   -5.2830 H   0  0  0  0  0  0  0  0  0  0  0  0
    0.8494   -2.1348   -5.1000 N   0  0  0  0  0  0  0  0  0  0  0  0
    1.6453   -3.3557   -5.1627 C   0  0  0  0  0  0  0  0  0  0  0  0
    0.0785   -2.0190   -5.7527 H   0  0  0  0  0  0  0  0  0  0  0  0
    2.7070   -3.1167   -5.2864 H   0  0  0  0  0  0  0  0  0  0  0  0
    1.5211   -3.9423   -4.2463 H   0  0  0  0  0  0  0  0  0  0  0  0
    1.3307   -3.9706   -6.0118 H   0  0  0  0  0  0  0  0  0  0  0  0
  1  2  2  0  0  0  0
  1  3  1  0  0  0  0
  1  7  1  0  0  0  0
  3  4  1  0  0  0  0
  3  5  1  0  0  0  0
  3  6  1  0  0  0  0
  7  8  1  0  0  0  0
  7 12  1  0  0  0  0
  8  9  1  0  0  0  0
  8 11  1  0  0  0  0
  8 13  1  0  0  0  0
  9 10  2  0  0  0  0
  9 17  1  0  0  0  0
 11 14  1  0  0  0  0
 11 15  1  0  0  0  0
 11 16  1  0  0  0  0
 17 18  1  0  0  0  0
 17 27  1  0  0  0  0
 18 19  1  0  0  0  0
 18 21  1  0  0  0  0
 18 28  1  0  0  0  0
 19 20  2  0  0  0  0
 19 35  1  0  0  0  0
 21 22  1  0  0  0  0
 21 29  1  0  0  0  0
 21 30  1  0  0  0  0
 22 23  1  0  0  0  0
 22 24  2  0  0  0  0
 23 25  2  0  0  0  0
 23 31  1  0  0  0  0
 24 26  1  0  0  0  0
 24 32  1  0  0  0  0
 25 26  1  0  0  0  0
 25 33  1  0  0  0  0
 26 34  1  0  0  0  0
 35 36  1  0  0  0  0
 35 40  1  0  0  0  0
 36 37  1  0  0  0  0
 36 39  1  0  0  0  0
 36 41  1  0  0  0  0
 37 38  2  0  0  0  0
 37 45  1  0  0  0  0
 39 42  1  0  0  0  0
 39 43  1  0  0  0  0
 39 44  1  0  0  0  0
 45 46  1  0  0  0  0
 45 47  1  0  0  0  0
 46 48  1  0  0  0  0
 46 49  1  0  0  0  0
 46 50  1  0  0  0  0
M  CHG  1  23   1
M  END
$$$$

  -OEChem-05262216443D

 50 50  0     1  0  0  0  0  0999 V2000
   -1.7380    0.6347    4.7174 C   0  0  0  0  0  0  0  0  0  0  0  0
   -1.5174   -0.4659    4.2310 O   0  0  0  0  0  0  0  0  0  0  0  0
   -1.7102    0.8174    6.2224 C   0  0  0  0  0  0  0  0  0  0  0  0
   -1.5806   -0.1484    6.7183 H   0  0  0  0  0  0  0  0  0  0  0  0
   -0.8832    1.4738    6.5036 H   0  0  0  0  0  0  0  0  0  0  0  0
   -2.6496    1.2609    6.5619 H   0  0  0  0  0  0  0  0  0  0  0  0
   -1.9806    1.7200    3.9015 N   0  0  0  0  0  0  0  0  0  0  0  0
   -1.9609    1.6615    2.4320 C   0  0  2  0  0  0  0  0  0  0  0  0
   -0.5413    1.5925    1.8131 C   0  0  0  0  0  0  0  0  0  0  0  0
    0.4650    1.6637    2.5102 O   0  0  0  0  0  0  0  0  0  0  0  0
   -2.7202    2.8945    1.9298 C   0  0  0  0  0  0  0  0  0  0  0  0
   -2.0332    2.6302    4.3504 H   0  0  0  0  0  0  0  0  0  0  0  0
   -2.5031    0.7673    2.1043 H   0  0  0  0  0  0  0  0  0  0  0  0
   -2.1878    3.8118    2.2022 H   0  0  0  0  0  0  0  0  0  0  0  0
   -2.8296    2.8670    0.8413 H   0  0  0  0  0  0  0  0  0  0  0  0
   -3.7220    2.9286    2.3701 H   0  0  0  0  0  0  0  0  0  0  0  0
   -0.3783    1.5883    0.4393 N   0  0  0  0  0  0  0  0  0  0  0  0
    0.6010    0.7958   -0.3378 C   0  0  2  0  0  0  0  0  0  0  0  0
   -0.0301    0.5244   -1.7189 C   0  0  0  0  0  0  0  0  0  0  0  0
   -1.1922    0.1418   -1.7852 O   0  0  0  0  0  0  0  0  0  0  0  0
    0.9226   -0.6523    0.1485 C   0  0  0  0  0  0  0  0  0  0  0  0
    1.5795   -0.7931    1.4948 C   0  0  0  0  0  0  0  0  0  0  0  0
    2.9080   -0.5276    1.8257 N   0  3  0  0  0  0  0  0  0  0  0  0
    0.9793   -1.3246    2.6075 C   0  0  0  0  0  0  0  0  0  0  0  0
    3.1185   -0.7891    3.0937 C   0  0  0  0  0  0  0  0  0  0  0  0
    1.9322   -1.3016    3.6128 N   0  0  0  0  0  0  0  0  0  0  0  0
   -1.2702    1.6778   -0.0501 H   0  0  0  0  0  0  0  0  0  0  0  0
    1.5252    1.3713   -0.4452 H   0  0  0  0  0  0  0  0  0  0  0  0
    1.5681   -1.1437   -0.5886 H   0  0  0  0  0  0  0  0  0  0  0  0
   -0.0146   -1.2213    0.1724 H   0  0  0  0  0  0  0  0  0  0  0  0
    3.5663   -0.0946    1.1753 H   0  0  0  0  0  0  0  0  0  0  0  0
   -0.0563   -1.6551    2.6931 H   0  0  0  0  0  0  0  0  0  0  0  0
    4.0450   -0.6228    3.6440 H   0  0  0  0  0  0  0  0  0  0  0  0
    1.7593   -1.5577    4.5882 H   0  0  0  0  0  0  0  0  0  0  0  0
    0.7159    0.6849   -2.8704 N   0  0  0  0  0  0  0  0  0  0  0  0
    0.4087   -0.0906   -4.0813 C   0  0  2  0  0  0  0  0  0  0  0  0
    1.0586   -1.4923   -4.0238 C   0  0  0  0  0  0  0  0  0  0  0  0
    1.9119   -1.7348   -3.1734 O   0  0  0  0  0  0  0  0  0  0  0  0
    0.9237    0.7006   -5.2863 C   0  0  0  0  0  0  0  0  0  0  0  0
    1.7015    0.8820   -2.7179 H   0  0  0  0  0  0  0  0  0  0  0  0
   -0.6740   -0.2199   -4.1902 H   0  0  0  0  0  0  0  0  0  0  0  0
    2.0101    0.8252   -5.2302 H   0  0  0  0  0  0  0  0  0  0  0  0
    0.6822    0.1811   -6.2188 H   0  0  0  0  0  0  0  0  0  0  0  0
    0.4597    1.6917   -5.3159 H   0  0  0  0  0  0  0  0  0  0  0  0
    0.6905   -2.4800   -4.9172 N   0  0  0  0  0  0  0  0  0  0  0  0
    1.2664   -3.8202   -4.9139 C   0  0  0  0  0  0  0  0  0  0  0  0
   -0.0368   -2.2618   -5.5930 H   0  0  0  0  0  0  0  0  0  0  0  0
    2.3515   -3.7725   -5.0557 H   0  0  0  0  0  0  0  0  0  0  0  0
    1.0562   -4.3256   -3.9654 H   0  0  0  0  0  0  0  0  0  0  0  0
    0.8400   -4.4184   -5.7254 H   0  0  0  0  0  0  0  0  0  0  0  0
  1  2  2  0  0  0  0
  1  3  1  0  0  0  0
  1  7  1  0  0  0  0
  3  4  1  0  0  0  0
  3  5  1  0  0  0  0
  3  6  1  0  0  0  0
  7  8  1  0  0  0  0
  7 12  1  0  0  0  0
  8  9  1  0  0  0  0
  8 11  1  0  0  0  0
  8 13  1  0  0  0  0
  9 10  2  0  0  0  0
  9 17  1  0  0  0  0
 11 14  1  0  0  0  0
 11 15  1  0  0  0  0
 11 16  1  0  0  0  0
 17 18  1  0  0  0  0
 17 27  1  0  0  0  0
 18 19  1  0  0  0  0
 18 21  1  0  0  0  0
 18 28  1  0  0  0  0
 19 20  2  0  0  0  0
 19 35  1  0  0  0  0
 21 22  1  0  0  0  0
 21 29  1  0  0  0  0
 21 30  1  0  0  0  0
 22 23  1  0  0  0  0
 22 24  2  0  0  0  0
 23 25  2  0  0  0  0
 23 31  1  0  0  0  0
 24 26  1  0  0  0  0
 24 32  1  0  0  0  0
 25 26  1  0  0  0  0
 25 33  1  0  0  0  0
 26 34  1  0  0  0  0
 35 36  1  0  0  0  0
 35 40  1  0  0  0  0
 36 37  1  0  0  0  0
 36 39  1  0  0  0  0
 36 41  1  0  0  0  0
 37 38  2  0  0  0  0
 37 45  1  0  0  0  0
 39 42  1  0  0  0  0
 39 43  1  0  0  0  0
 39 44  1  0  0  0  0
 45 46  1  0  0  0  0
 45 47  1  0  0  0  0
 46 48  1  0  0  0  0
 46 49  1  0  0  0  0
 46 50  1  0  0  0  0
M  CHG  1  23   1
M  END
$$$$

  -OEChem-05262216443D

 50 50  0     1  0  0  0  0  0999 V2000
   -1.7482    0.6836    4.7140 C   0  0  0  0  0  0  0  0  0  0  0  0
   -1.4784   -0.4320    4.2890 O   0  0  0  0  0  0  0  0  0  0  0  0
   -1.7744    0.9387    6.2088 C   0  0  0  0  0  0  0  0  0  0  0  0
   -1.6074    0.0064    6.7554 H   0  0  0  0  0  0  0  0  0  0  0  0
   -0.9929    1.6527    6.4797 H   0  0  0  0  0  0  0  0  0  0  0  0
   -2.7463    1.3450    6.5004 H   0  0  0  0  0  0  0  0  0  0  0  0
   -2.0031    1.7209    3.8407 N   0  0  0  0  0  0  0  0  0  0  0  0
   -1.9307    1.5978    2.3767 C   0  0  2  0  0  0  0  0  0  0  0  0
   -0.4887    1.5777    1.8079 C   0  0  0  0  0  0  0  0  0  0  0  0
    0.4914    1.6503    2.5411 O   0  0  0  0  0  0  0  0  0  0  0  0
   -2.7413    2.7602    1.7915 C   0  0  0  0  0  0  0  0  0  0  0  0
   -2.0943    2.6489    4.2451 H   0  0  0  0  0  0  0  0  0  0  0  0
   -2.4113    0.6608    2.0738 H   0  0  0  0  0  0  0  0  0  0  0  0
   -2.2673    3.7180    2.0296 H   0  0  0  0  0  0  0  0  0  0  0  0
   -2.8183    2.6721    0.7033 H   0  0  0  0  0  0  0  0  0  0  0  0
   -3.7563    2.7609    2.2024 H   0  0  0  0  0  0  0  0  0  0  0  0
   -0.2724    1.5967    0.4422 N   0  0  0  0  0  0  0  0  0  0  0  0
    0.7381    0.8209   -0.3117 C   0  0  2  0  0  0  0  0  0  0  0  0
    0.1525    0.5762   -1.7206 C   0  0  0  0  0  0  0  0  0  0  0  0
   -1.0554    0.4062   -1.8456 O   0  0  0  0  0  0  0  0  0  0  0  0
    1.0131   -0.6413    0.1641 C   0  0  0  0  0  0  0  0  0  0  0  0
    1.5961   -0.8189    1.5404 C   0  0  0  0  0  0  0  0  0  0  0  0
    2.9073   -0.5837    1.9546 N   0  3  0  0  0  0  0  0  0  0  0  0
    0.9217   -1.3562    2.6071 C   0  0  0  0  0  0  0  0  0  0  0  0
    3.0352   -0.8650    3.2296 C   0  0  0  0  0  0  0  0  0  0  0  0
    1.8112   -1.3639    3.6682 N   0  0  0  0  0  0  0  0  0  0  0  0
   -1.1435    1.6915   -0.0842 H   0  0  0  0  0  0  0  0  0  0  0  0
    1.6695    1.3912   -0.3730 H   0  0  0  0  0  0  0  0  0  0  0  0
    1.6924   -1.1293   -0.5432 H   0  0  0  0  0  0  0  0  0  0  0  0
    0.0683   -1.1969    0.1237 H   0  0  0  0  0  0  0  0  0  0  0  0
    3.6100   -0.1478    1.3548 H   0  0  0  0  0  0  0  0  0  0  0  0
   -0.1238   -1.6648    2.6310 H   0  0  0  0  0  0  0  0  0  0  0  0
    3.9272   -0.7188    3.8395 H   0  0  0  0  0  0  0  0  0  0  0  0
    1.5688   -1.6152    4.6303 H   0  0  0  0  0  0  0  0  0  0  0  0
    0.9865    0.4568   -2.8164 N   0  0  0  0  0  0  0  0  0  0  0  0
    0.5905   -0.3141   -4.0051 C   0  0  2  0  0  0  0  0  0  0  0  0
    0.9688   -1.8050   -3.8525 C   0  0  0  0  0  0  0  0  0  0  0  0
    1.7275   -2.1521   -2.9509 O   0  0  0  0  0  0  0  0  0  0  0  0
    1.2871    0.3058   -5.2191 C   0  0  0  0  0  0  0  0  0  0  0  0
    1.9811    0.4562   -2.6066 H   0  0  0  0  0  0  0  0  0  0  0  0
   -0.4920   -0.2525   -4.1622 H   0  0  0  0  0  0  0  0  0  0  0  0
    2.3751    0.2414   -5.1146 H   0  0  0  0  0  0  0  0  0  0  0  0
    0.9953   -0.2148   -6.1365 H   0  0  0  0  0  0  0  0  0  0  0  0
    1.0075    1.3596   -5.3190 H   0  0  0  0  0  0  0  0  0  0  0  0
    0.4605   -2.7576   -4.7146 N   0  0  0  0  0  0  0  0  0  0  0  0
    0.7758   -4.1788   -4.6146 C   0  0  0  0  0  0  0  0  0  0  0  0
   -0.1866   -2.4492   -5.4355 H   0  0  0  0  0  0  0  0  0  0  0  0
    1.8578   -4.3379   -4.6744 H   0  0  0  0  0  0  0  0  0  0  0  0
    0.4119   -4.5867   -3.6655 H   0  0  0  0  0  0  0  0  0  0  0  0
    0.3027   -4.7311   -5.4327 H   0  0  0  0  0  0  0  0  0  0  0  0
  1  2  2  0  0  0  0
  1  3  1  0  0  0  0
  1  7  1  0  0  0  0
  3  4  1  0  0  0  0
  3  5  1  0  0  0  0
  3  6  1  0  0  0  0
  7  8  1  0  0  0  0
  7 12  1  0  0  0  0
  8  9  1  0  0  0  0
  8 11  1  0  0  0  0
  8 13  1  0  0  0  0
  9 10  2  0  0  0  0
  9 17  1  0  0  0  0
 11 14  1  0  0  0  0
 11 15  1  0  0  0  0
 11 16  1  0  0  0  0
 17 18  1  0  0  0  0
 17 27  1  0  0  0  0
 18 19  1  0  0  0  0
 18 21  1  0  0  0  0
 18 28  1  0  0  0  0
 19 20  2  0  0  0  0
 19 35  1  0  0  0  0
 21 22  1  0  0  0  0
 21 29  1  0  0  0  0
 21 30  1  0  0  0  0
 22 23  1  0  0  0  0
 22 24  2  0  0  0  0
 23 25  2  0  0  0  0
 23 31  1  0  0  0  0
 24 26  1  0  0  0  0
 24 32  1  0  0  0  0
 25 26  1  0  0  0  0
 25 33  1  0  0  0  0
 26 34  1  0  0  0  0
 35 36  1  0  0  0  0
 35 40  1  0  0  0  0
 36 37  1  0  0  0  0
 36 39  1  0  0  0  0
 36 41  1  0  0  0  0
 37 38  2  0  0  0  0
 37 45  1  0  0  0  0
 39 42  1  0  0  0  0
 39 43  1  0  0  0  0
 39 44  1  0  0  0  0
 45 46  1  0  0  0  0
 45 47  1  0  0  0  0
 46 48  1  0  0  0  0
 46 49  1  0  0  0  0
 46 50  1  0  0  0  0
M  CHG  1  23   1
M  END
$$$$

  -OEChem-05262216443D

 50 50  0     1  0  0  0  0  0999 V2000
   -1.8671    0.5847    4.5808 C   0  0  0  0  0  0  0  0  0  0  0  0
   -1.5788   -0.5094    4.1149 O   0  0  0  0  0  0  0  0  0  0  0  0
   -1.9721    0.7634    6.0834 C   0  0  0  0  0  0  0  0  0  0  0  0
   -1.8354   -0.1963    6.5895 H   0  0  0  0  0  0  0  0  0  0  0  0
   -1.2060    1.4599    6.4327 H   0  0  0  0  0  0  0  0  0  0  0  0
   -2.9576    1.1577    6.3432 H   0  0  0  0  0  0  0  0  0  0  0  0
   -2.0721    1.6644    3.7468 N   0  0  0  0  0  0  0  0  0  0  0  0
   -1.9348    1.6078    2.2834 C   0  0  2  0  0  0  0  0  0  0  0  0
   -0.4693    1.5748    1.7791 C   0  0  0  0  0  0  0  0  0  0  0  0
    0.4763    1.6610    2.5551 O   0  0  0  0  0  0  0  0  0  0  0  0
   -2.6810    2.8216    1.7182 C   0  0  0  0  0  0  0  0  0  0  0  0
   -2.1813    2.5731    4.1888 H   0  0  0  0  0  0  0  0  0  0  0  0
   -2.4275    0.7008    1.9158 H   0  0  0  0  0  0  0  0  0  0  0  0
   -2.1867    3.7511    2.0193 H   0  0  0  0  0  0  0  0  0  0  0  0
   -2.7126    2.7838    0.6248 H   0  0  0  0  0  0  0  0  0  0  0  0
   -3.7122    2.8399    2.0857 H   0  0  0  0  0  0  0  0  0  0  0  0
   -0.1962    1.5922    0.4232 N   0  0  0  0  0  0  0  0  0  0  0  0
    0.8617    0.8500   -0.3019 C   0  0  2  0  0  0  0  0  0  0  0  0
    0.3254    0.5921   -1.7329 C   0  0  0  0  0  0  0  0  0  0  0  0
   -0.8843    0.6136   -1.9353 O   0  0  0  0  0  0  0  0  0  0  0  0
    1.1583   -0.6037    0.1921 C   0  0  0  0  0  0  0  0  0  0  0  0
    1.6986   -0.7558    1.5890 C   0  0  0  0  0  0  0  0  0  0  0  0
    2.9870   -0.4834    2.0505 N   0  3  0  0  0  0  0  0  0  0  0  0
    1.0020   -1.3133    2.6309 C   0  0  0  0  0  0  0  0  0  0  0  0
    3.0733   -0.7532    3.3315 C   0  0  0  0  0  0  0  0  0  0  0  0
    1.8498   -1.2883    3.7255 N   0  0  0  0  0  0  0  0  0  0  0  0
   -1.0420    1.6894   -0.1439 H   0  0  0  0  0  0  0  0  0  0  0  0
    1.7779    1.4472   -0.3352 H   0  0  0  0  0  0  0  0  0  0  0  0
    1.8763   -1.0816   -0.4824 H   0  0  0  0  0  0  0  0  0  0  0  0
    0.2297   -1.1833    0.1203 H   0  0  0  0  0  0  0  0  0  0  0  0
    3.6961   -0.0218    1.4783 H   0  0  0  0  0  0  0  0  0  0  0  0
   -0.0326   -1.6578    2.6133 H   0  0  0  0  0  0  0  0  0  0  0  0
    3.9354   -0.5742    3.9747 H   0  0  0  0  0  0  0  0  0  0  0  0
    1.5802   -1.5447    4.6788 H   0  0  0  0  0  0  0  0  0  0  0  0
    1.1779    0.1991   -2.7491 N   0  0  0  0  0  0  0  0  0  0  0  0
    0.7033   -0.5820   -3.9021 C   0  0  2  0  0  0  0  0  0  0  0  0
    0.7310   -2.0976   -3.6021 C   0  0  0  0  0  0  0  0  0  0  0  0
    1.3604   -2.5159   -2.6337 O   0  0  0  0  0  0  0  0  0  0  0  0
    1.6030   -0.2497   -5.0952 C   0  0  0  0  0  0  0  0  0  0  0  0
    2.1419    0.0349   -2.4738 H   0  0  0  0  0  0  0  0  0  0  0  0
   -0.3248   -0.3037   -4.1589 H   0  0  0  0  0  0  0  0  0  0  0  0
    2.6386   -0.5396   -4.8902 H   0  0  0  0  0  0  0  0  0  0  0  0
    1.2653   -0.7819   -5.9901 H   0  0  0  0  0  0  0  0  0  0  0  0
    1.5755    0.8245   -5.3039 H   0  0  0  0  0  0  0  0  0  0  0  0
    0.0644   -2.9919   -4.4175 N   0  0  0  0  0  0  0  0  0  0  0  0
    0.0597   -4.4332   -4.1925 C   0  0  0  0  0  0  0  0  0  0  0  0
   -0.4712   -2.6160   -5.1955 H   0  0  0  0  0  0  0  0  0  0  0  0
    1.0823   -4.8255   -4.1897 H   0  0  0  0  0  0  0  0  0  0  0  0
   -0.4112   -4.6705   -3.2327 H   0  0  0  0  0  0  0  0  0  0  0  0
   -0.4996   -4.9385   -4.9861 H   0  0  0  0  0  0  0  0  0  0  0  0
  1  2  2  0  0  0  0
  1  3  1  0  0  0  0
  1  7  1  0  0  0  0
  3  4  1  0  0  0  0
  3  5  1  0  0  0  0
  3  6  1  0  0  0  0
  7  8  1  0  0  0  0
  7 12  1  0  0  0  0
  8  9  1  0  0  0  0
  8 11  1  0  0  0  0
  8 13  1  0  0  0  0
  9 10  2  0  0  0  0
  9 17  1  0  0  0  0
 11 14  1  0  0  0  0
 11 15  1  0  0  0  0
 11 16  1  0  0  0  0
 17 18  1  0  0  0  0
 17 27  1  0  0  0  0
 18 19  1  0  0  0  0
 18 21  1  0  0  0  0
 18 28  1  0  0  0  0
 19 20  2  0  0  0  0
 19 35  1  0  0  0  0
 21 22  1  0  0  0  0
 21 29  1  0  0  0  0
 21 30  1  0  0  0  0
 22 23  1  0  0  0  0
 22 24  2  0  0  0  0
 23 25  2  0  0  0  0
 23 31  1  0  0  0  0
 24 26  1  0  0  0  0
 24 32  1  0  0  0  0
 25 26  1  0  0  0  0
 25 33  1  0  0  0  0
 26 34  1  0  0  0  0
 35 36  1  0  0  0  0
 35 40  1  0  0  0  0
 36 37  1  0  0  0  0
 36 39  1  0  0  0  0
 36 41  1  0  0  0  0
 37 38  2  0  0  0  0
 37 45  1  0  0  0  0
 39 42  1  0  0  0  0
 39 43  1  0  0  0  0
 39 44  1  0  0  0  0
 45 46  1  0  0  0  0
 45 47  1  0  0  0  0
 46 48  1  0  0  0  0
 46 49  1  0  0  0  0
 46 50  1  0  0  0  0
M  CHG  1  23   1
M  END
$$$$

  -OEChem-05262216443D

 50 50  0     1  0  0  0  0  0999 V2000
   -2.5263    0.4980    2.0514 C   0  0  0  0  0  0  0  0  0  0  0  0
   -1.6581   -0.3281    2.2925 O   0  0  0  0  0  0  0  0  0  0  0  0
   -3.8541    0.0520    1.4710 C   0  0  0  0  0  0  0  0  0  0  0  0
   -3.9982    0.4975    0.4833 H   0  0  0  0  0  0  0  0  0  0  0  0
   -3.8764   -1.0369    1.3713 H   0  0  0  0  0  0  0  0  0  0  0  0
   -4.6726    0.3607    2.1261 H   0  0  0  0  0  0  0  0  0  0  0  0
   -2.2880    1.8438    2.2673 N   0  0  0  0  0  0  0  0  0  0  0  0
   -1.0654    2.4076    2.8773 C   0  0  2  0  0  0  0  0  0  0  0  0
    0.2296    2.0520    2.1041 C   0  0  0  0  0  0  0  0  0  0  0  0
    1.3252    2.0708    2.6545 O   0  0  0  0  0  0  0  0  0  0  0  0
   -0.9980    2.0080    4.3596 C   0  0  0  0  0  0  0  0  0  0  0  0
   -3.0640    2.4741    2.0768 H   0  0  0  0  0  0  0  0  0  0  0  0
   -1.1459    3.4985    2.8344 H   0  0  0  0  0  0  0  0  0  0  0  0
   -0.8269    0.9331    4.4679 H   0  0  0  0  0  0  0  0  0  0  0  0
   -0.1806    2.5384    4.8587 H   0  0  0  0  0  0  0  0  0  0  0  0
   -1.9331    2.2651    4.8664 H   0  0  0  0  0  0  0  0  0  0  0  0
    0.1598    1.8602    0.7369 N   0  0  0  0  0  0  0  0  0  0  0  0
    1.0572    1.0824   -0.1417 C   0  0  2  0  0  0  0  0  0  0  0  0
    0.3214    0.8941   -1.4966 C   0  0  0  0  0  0  0  0  0  0  0  0
   -0.8662    1.1924   -1.5890 O   0  0  0  0  0  0  0  0  0  0  0  0
    1.3285   -0.3775    0.3459 C   0  0  0  0  0  0  0  0  0  0  0  0
    2.0535   -0.5254    1.6577 C   0  0  0  0  0  0  0  0  0  0  0  0
    3.4109   -0.3186    1.9041 N   0  3  0  0  0  0  0  0  0  0  0  0
    1.4938   -0.9984    2.8179 C   0  0  0  0  0  0  0  0  0  0  0  0
    3.6838   -0.5616    3.1633 C   0  0  0  0  0  0  0  0  0  0  0  0
    2.5087   -1.0059    3.7636 N   0  0  0  0  0  0  0  0  0  0  0  0
   -0.7887    1.9469    0.3659 H   0  0  0  0  0  0  0  0  0  0  0  0
    1.9942    1.6257   -0.2955 H   0  0  0  0  0  0  0  0  0  0  0  0
    1.9101   -0.9229   -0.4033 H   0  0  0  0  0  0  0  0  0  0  0  0
    0.3625   -0.8910    0.4267 H   0  0  0  0  0  0  0  0  0  0  0  0
    4.0440    0.0892    1.2142 H   0  0  0  0  0  0  0  0  0  0  0  0
    0.4496   -1.2785    2.9597 H   0  0  0  0  0  0  0  0  0  0  0  0
    4.6472   -0.4230    3.6551 H   0  0  0  0  0  0  0  0  0  0  0  0
    2.3926   -1.2440    4.7519 H   0  0  0  0  0  0  0  0  0  0  0  0
    0.9185    0.2007   -2.5351 N   0  0  0  0  0  0  0  0  0  0  0  0
    0.1498   -0.5453   -3.5433 C   0  0  2  0  0  0  0  0  0  0  0  0
    0.0744   -2.0435   -3.1748 C   0  0  0  0  0  0  0  0  0  0  0  0
    0.8116   -2.4915   -2.3004 O   0  0  0  0  0  0  0  0  0  0  0  0
    0.8402   -0.3468   -4.8952 C   0  0  0  0  0  0  0  0  0  0  0  0
    1.8383   -0.1798   -2.3303 H   0  0  0  0  0  0  0  0  0  0  0  0
   -0.8739   -0.1635   -3.6198 H   0  0  0  0  0  0  0  0  0  0  0  0
    1.8603   -0.7439   -4.8698 H   0  0  0  0  0  0  0  0  0  0  0  0
    0.2878   -0.8603   -5.6884 H   0  0  0  0  0  0  0  0  0  0  0  0
    0.8869    0.7185   -5.1438 H   0  0  0  0  0  0  0  0  0  0  0  0
   -0.8109   -2.8882   -3.8165 N   0  0  0  0  0  0  0  0  0  0  0  0
   -0.9213   -4.3117   -3.5163 C   0  0  0  0  0  0  0  0  0  0  0  0
   -1.4174   -2.4890   -4.5278 H   0  0  0  0  0  0  0  0  0  0  0  0
    0.0358   -4.8162   -3.6879 H   0  0  0  0  0  0  0  0  0  0  0  0
   -1.2169   -4.4627   -2.4726 H   0  0  0  0  0  0  0  0  0  0  0  0
   -1.6755   -4.7775   -4.1586 H   0  0  0  0  0  0  0  0  0  0  0  0
  1  2  2  0  0  0  0
  1  3  1  0  0  0  0
  1  7  1  0  0  0  0
  3  4  1  0  0  0  0
  3  5  1  0  0  0  0
  3  6  1  0  0  0  0
  7  8  1  0  0  0  0
  7 12  1  0  0  0  0
  8  9  1  0  0  0  0
  8 11  1  0  0  0  0
  8 13  1  0  0  0  0
  9 10  2  0  0  0  0
  9 17  1  0  0  0  0
 11 14  1  0  0  0  0
 11 15  1  0  0  0  0
 11 16  1  0  0  0  0
 17 18  1  0  0  0  0
 17 27  1  0  0  0  0
 18 19  1  0  0  0  0
 18 21  1  0  0  0  0
 18 28  1  0  0  0  0
 19 20  2  0  0  0  0
 19 35  1  0  0  0  0
 21 22  1  0  0  0  0
 21 29  1  0  0  0  0
 21 30  1  0  0  0  0
 22 23  1  0  0  0  0
 22 24  2  0  0  0  0
 23 25  2  0  0  0  0
 23 31  1  0  0  0  0
 24 26  1  0  0  0  0
 24 32  1  0  0  0  0
 25 26  1  0  0  0  0
 25 33  1  0  0  0  0
 26 34  1  0  0  0  0
 35 36  1  0  0  0  0
 35 40  1  0  0  0  0
 36 37  1  0  0  0  0
 36 39  1  0  0  0  0
 36 41  1  0  0  0  0
 37 38  2  0  0  0  0
 37 45  1  0  0  0  0
 39 42  1  0  0  0  0
 39 43  1  0  0  0  0
 39 44  1  0  0  0  0
 45 46  1  0  0  0  0
 45 47  1  0  0  0  0
 46 48  1  0  0  0  0
 46 49  1  0  0  0  0
 46 50  1  0  0  0  0
M  CHG  1  23   1
M  END
$$$$

  -OEChem-05262216443D

 50 50  0     1  0  0  0  0  0999 V2000
   -2.5243    0.4867    1.8257 C   0  0  0  0  0  0  0  0  0  0  0  0
   -1.6750   -0.3394    2.1266 O   0  0  0  0  0  0  0  0  0  0  0  0
   -3.8187    0.0373    1.1764 C   0  0  0  0  0  0  0  0  0  0  0  0
   -3.9031    0.4675    0.1752 H   0  0  0  0  0  0  0  0  0  0  0  0
   -3.8410   -1.0530    1.0928 H   0  0  0  0  0  0  0  0  0  0  0  0
   -4.6721    0.3603    1.7779 H   0  0  0  0  0  0  0  0  0  0  0  0
   -2.2928    1.8345    2.0362 N   0  0  0  0  0  0  0  0  0  0  0  0
   -1.1051    2.4005    2.7091 C   0  0  2  0  0  0  0  0  0  0  0  0
    0.2312    2.0196    2.0240 C   0  0  0  0  0  0  0  0  0  0  0  0
    1.2885    2.0318    2.6446 O   0  0  0  0  0  0  0  0  0  0  0  0
   -1.1327    2.0290    4.2000 C   0  0  0  0  0  0  0  0  0  0  0  0
   -3.0555    2.4650    1.7983 H   0  0  0  0  0  0  0  0  0  0  0  0
   -1.1724    3.4908    2.6406 H   0  0  0  0  0  0  0  0  0  0  0  0
   -0.9776    0.9553    4.3384 H   0  0  0  0  0  0  0  0  0  0  0  0
   -0.3434    2.5627    4.7388 H   0  0  0  0  0  0  0  0  0  0  0  0
   -2.0948    2.3031    4.6434 H   0  0  0  0  0  0  0  0  0  0  0  0
    0.2510    1.8247    0.6552 N   0  0  0  0  0  0  0  0  0  0  0  0
    1.1954    1.0414   -0.1696 C   0  0  2  0  0  0  0  0  0  0  0  0
    0.5350    0.8630   -1.5707 C   0  0  0  0  0  0  0  0  0  0  0  0
   -0.5533    1.3862   -1.7935 O   0  0  0  0  0  0  0  0  0  0  0  0
    1.4295   -0.4153    0.3535 C   0  0  0  0  0  0  0  0  0  0  0  0
    2.0753   -0.5544    1.7068 C   0  0  0  0  0  0  0  0  0  0  0  0
    3.4167   -0.3547    2.0332 N   0  3  0  0  0  0  0  0  0  0  0  0
    1.4456   -1.0280    2.8308 C   0  0  0  0  0  0  0  0  0  0  0  0
    3.6115   -0.5949    3.3075 C   0  0  0  0  0  0  0  0  0  0  0  0
    2.4020   -1.0389    3.8354 N   0  0  0  0  0  0  0  0  0  0  0  0
   -0.6595    1.9587    0.2107 H   0  0  0  0  0  0  0  0  0  0  0  0
    2.1432    1.5782   -0.2695 H   0  0  0  0  0  0  0  0  0  0  0  0
    2.0569   -0.9732   -0.3469 H   0  0  0  0  0  0  0  0  0  0  0  0
    0.4574   -0.9237    0.3819 H   0  0  0  0  0  0  0  0  0  0  0  0
    4.0884    0.0610    1.3855 H   0  0  0  0  0  0  0  0  0  0  0  0
    0.3945   -1.3082    2.9084 H   0  0  0  0  0  0  0  0  0  0  0  0
    4.5422   -0.4524    3.8575 H   0  0  0  0  0  0  0  0  0  0  0  0
    2.2269   -1.2802    4.8139 H   0  0  0  0  0  0  0  0  0  0  0  0
    1.0067   -0.0665   -2.4837 N   0  0  0  0  0  0  0  0  0  0  0  0
    0.1322   -0.7643   -3.4389 C   0  0  2  0  0  0  0  0  0  0  0  0
   -0.2951   -2.1372   -2.8759 C   0  0  0  0  0  0  0  0  0  0  0  0
    0.3142   -2.6177   -1.9236 O   0  0  0  0  0  0  0  0  0  0  0  0
    0.9099   -0.9323   -4.7465 C   0  0  0  0  0  0  0  0  0  0  0  0
    1.8104   -0.6056   -2.1755 H   0  0  0  0  0  0  0  0  0  0  0  0
   -0.7724   -0.1825   -3.6464 H   0  0  0  0  0  0  0  0  0  0  0  0
    1.8106   -1.5333   -4.5846 H   0  0  0  0  0  0  0  0  0  0  0  0
    0.2923   -1.4304   -5.5003 H   0  0  0  0  0  0  0  0  0  0  0  0
    1.2085    0.0454   -5.1382 H   0  0  0  0  0  0  0  0  0  0  0  0
   -1.3492   -2.8356   -3.4325 N   0  0  0  0  0  0  0  0  0  0  0  0
   -1.7843   -4.1435   -2.9551 C   0  0  0  0  0  0  0  0  0  0  0  0
   -1.8389   -2.4120   -4.2162 H   0  0  0  0  0  0  0  0  0  0  0  0
   -0.9764   -4.8765   -3.0539 H   0  0  0  0  0  0  0  0  0  0  0  0
   -2.0833   -4.0889   -1.9029 H   0  0  0  0  0  0  0  0  0  0  0  0
   -2.6413   -4.4946   -3.5386 H   0  0  0  0  0  0  0  0  0  0  0  0
  1  2  2  0  0  0  0
  1  3  1  0  0  0  0
  1  7  1  0  0  0  0
  3  4  1  0  0  0  0
  3  5  1  0  0  0  0
  3  6  1  0  0  0  0
  7  8  1  0  0  0  0
  7 12  1  0  0  0  0
  8  9  1  0  0  0  0
  8 11  1  0  0  0  0
  8 13  1  0  0  0  0
  9 10  2  0  0  0  0
  9 17  1  0  0  0  0
 11 14  1  0  0  0  0
 11 15  1  0  0  0  0
 11 16  1  0  0  0  0
 17 18  1  0  0  0  0
 17 27  1  0  0  0  0
 18 19  1  0  0  0  0
 18 21  1  0  0  0  0
 18 28  1  0  0  0  0
 19 20  2  0  0  0  0
 19 35  1  0  0  0  0
 21 22  1  0  0  0  0
 21 29  1  0  0  0  0
 21 30  1  0  0  0  0
 22 23  1  0  0  0  0
 22 24  2  0  0  0  0
 23 25  2  0  0  0  0
 23 31  1  0  0  0  0
 24 26  1  0  0  0  0
 24 32  1  0  0  0  0
 25 26  1  0  0  0  0
 25 33  1  0  0  0  0
 26 34  1  0  0  0  0
 35 36  1  0  0  0  0
 35 40  1  0  0  0  0
 36 37  1  0  0  0  0
 36 39  1  0  0  0  0
 36 41  1  0  0  0  0
 37 38  2  0  0  0  0
 37 45  1  0  0  0  0
 39 42  1  0  0  0  0
 39 43  1  0  0  0  0
 39 44  1  0  0  0  0
 45 46  1  0  0  0  0
 45 47  1  0  0  0  0
 46 48  1  0  0  0  0
 46 49  1  0  0  0  0
 46 50  1  0  0  0  0
M  CHG  1  23   1
M  END
$$$$

  -OEChem-05262216443D

 50 50  0     1  0  0  0  0  0999 V2000
   -2.4698    0.4131    1.6169 C   0  0  0  0  0  0  0  0  0  0  0  0
   -1.6327   -0.3796    2.0228 O   0  0  0  0  0  0  0  0  0  0  0  0
   -3.6893   -0.0927    0.8715 C   0  0  0  0  0  0  0  0  0  0  0  0
   -3.6609   -1.1836    0.7983 H   0  0  0  0  0  0  0  0  0  0  0  0
   -4.5997    0.2007    1.3997 H   0  0  0  0  0  0  0  0  0  0  0  0
   -3.7105    0.3253   -0.1381 H   0  0  0  0  0  0  0  0  0  0  0  0
   -2.2826    1.7738    1.7863 N   0  0  0  0  0  0  0  0  0  0  0  0
   -1.1531    2.3928    2.5114 C   0  0  2  0  0  0  0  0  0  0  0  0
    0.2306    2.0022    1.9333 C   0  0  0  0  0  0  0  0  0  0  0  0
    1.2420    2.0379    2.6250 O   0  0  0  0  0  0  0  0  0  0  0  0
   -1.2760    2.0855    4.0124 C   0  0  0  0  0  0  0  0  0  0  0  0
   -3.0341    2.3780    1.4603 H   0  0  0  0  0  0  0  0  0  0  0  0
   -1.2320    3.4777    2.3888 H   0  0  0  0  0  0  0  0  0  0  0  0
   -1.1157    1.0213    4.2080 H   0  0  0  0  0  0  0  0  0  0  0  0
   -0.5320    2.6547    4.5785 H   0  0  0  0  0  0  0  0  0  0  0  0
   -2.2695    2.3617    4.3785 H   0  0  0  0  0  0  0  0  0  0  0  0
    0.3390    1.7508    0.5777 N   0  0  0  0  0  0  0  0  0  0  0  0
    1.3237    0.9314   -0.1608 C   0  0  2  0  0  0  0  0  0  0  0  0
    0.7273    0.7168   -1.5885 C   0  0  0  0  0  0  0  0  0  0  0  0
   -0.1724    1.4577   -1.9726 O   0  0  0  0  0  0  0  0  0  0  0  0
    1.5471   -0.4953    0.4399 C   0  0  0  0  0  0  0  0  0  0  0  0
    2.1343   -0.5606    1.8248 C   0  0  0  0  0  0  0  0  0  0  0  0
    3.4571   -0.3305    2.2042 N   0  3  0  0  0  0  0  0  0  0  0  0
    1.4562   -0.9881    2.9388 C   0  0  0  0  0  0  0  0  0  0  0  0
    3.5926   -0.5078    3.4966 C   0  0  0  0  0  0  0  0  0  0  0  0
    2.3631   -0.9402    3.9872 N   0  0  0  0  0  0  0  0  0  0  0  0
   -0.5275    1.9094    0.0606 H   0  0  0  0  0  0  0  0  0  0  0  0
    2.2739    1.4679   -0.2388 H   0  0  0  0  0  0  0  0  0  0  0  0
    2.2164   -1.0713   -0.2046 H   0  0  0  0  0  0  0  0  0  0  0  0
    0.5803   -1.0143    0.4511 H   0  0  0  0  0  0  0  0  0  0  0  0
    4.1539    0.0667    1.5714 H   0  0  0  0  0  0  0  0  0  0  0  0
    0.4044   -1.2746    2.9797 H   0  0  0  0  0  0  0  0  0  0  0  0
    4.4941   -0.3280    4.0834 H   0  0  0  0  0  0  0  0  0  0  0  0
    2.1418   -1.1326    4.9673 H   0  0  0  0  0  0  0  0  0  0  0  0
    0.9915   -0.4128   -2.3482 N   0  0  0  0  0  0  0  0  0  0  0  0
    0.0217   -0.9806   -3.2987 C   0  0  2  0  0  0  0  0  0  0  0  0
   -0.7618   -2.1351   -2.6369 C   0  0  0  0  0  0  0  0  0  0  0  0
   -0.3320   -2.6421   -1.6044 O   0  0  0  0  0  0  0  0  0  0  0  0
    0.7955   -1.4776   -4.5221 C   0  0  0  0  0  0  0  0  0  0  0  0
    1.5850   -1.1039   -1.8995 H   0  0  0  0  0  0  0  0  0  0  0  0
   -0.6983   -0.2255   -3.6316 H   0  0  0  0  0  0  0  0  0  0  0  0
    1.4986   -2.2682   -4.2402 H   0  0  0  0  0  0  0  0  0  0  0  0
    0.1079   -1.8770   -5.2741 H   0  0  0  0  0  0  0  0  0  0  0  0
    1.3585   -0.6547   -4.9741 H   0  0  0  0  0  0  0  0  0  0  0  0
   -1.9385   -2.6061   -3.1871 N   0  0  0  0  0  0  0  0  0  0  0  0
   -2.7007   -3.7126   -2.6186 C   0  0  0  0  0  0  0  0  0  0  0  0
   -2.2616   -2.1811   -4.0521 H   0  0  0  0  0  0  0  0  0  0  0  0
   -2.1106   -4.6351   -2.6378 H   0  0  0  0  0  0  0  0  0  0  0  0
   -2.9795   -3.4952   -1.5821 H   0  0  0  0  0  0  0  0  0  0  0  0
   -3.6173   -3.8770   -3.1936 H   0  0  0  0  0  0  0  0  0  0  0  0
  1  2  2  0  0  0  0
  1  3  1  0  0  0  0
  1  7  1  0  0  0  0
  3  4  1  0  0  0  0
  3  5  1  0  0  0  0
  3  6  1  0  0  0  0
  7  8  1  0  0  0  0
  7 12  1  0  0  0  0
  8  9  1  0  0  0  0
  8 11  1  0  0  0  0
  8 13  1  0  0  0  0
  9 10  2  0  0  0  0
  9 17  1  0  0  0  0
 11 14  1  0  0  0  0
 11 15  1  0  0  0  0
 11 16  1  0  0  0  0
 17 18  1  0  0  0  0
 17 27  1  0  0  0  0
 18 19  1  0  0  0  0
 18 21  1  0  0  0  0
 18 28  1  0  0  0  0
 19 20  2  0  0  0  0
 19 35  1  0  0  0  0
 21 22  1  0  0  0  0
 21 29  1  0  0  0  0
 21 30  1  0  0  0  0
 22 23  1  0  0  0  0
 22 24  2  0  0  0  0
 23 25  2  0  0  0  0
 23 31  1  0  0  0  0
 24 26  1  0  0  0  0
 24 32  1  0  0  0  0
 25 26  1  0  0  0  0
 25 33  1  0  0  0  0
 26 34  1  0  0  0  0
 35 36  1  0  0  0  0
 35 40  1  0  0  0  0
 36 37  1  0  0  0  0
 36 39  1  0  0  0  0
 36 41  1  0  0  0  0
 37 38  2  0  0  0  0
 37 45  1  0  0  0  0
 39 42  1  0  0  0  0
 39 43  1  0  0  0  0
 39 44  1  0  0  0  0
 45 46  1  0  0  0  0
 45 47  1  0  0  0  0
 46 48  1  0  0  0  0
 46 49  1  0  0  0  0
 46 50  1  0  0  0  0
M  CHG  1  23   1
M  END
$$$$

  -OEChem-05262216443D

 50 50  0     1  0  0  0  0  0999 V2000
   -2.3550    0.0876    1.6316 C   0  0  0  0  0  0  0  0  0  0  0  0
   -1.4691   -0.5335    2.2014 O   0  0  0  0  0  0  0  0  0  0  0  0
   -3.4995   -0.6542    0.9705 C   0  0  0  0  0  0  0  0  0  0  0  0
   -3.5759   -0.3613   -0.0794 H   0  0  0  0  0  0  0  0  0  0  0  0
   -3.3259   -1.7330    1.0175 H   0  0  0  0  0  0  0  0  0  0  0  0
   -4.4396   -0.4245    1.4772 H   0  0  0  0  0  0  0  0  0  0  0  0
   -2.3080    1.4703    1.5733 N   0  0  0  0  0  0  0  0  0  0  0  0
   -1.2760    2.3153    2.2113 C   0  0  2  0  0  0  0  0  0  0  0  0
    0.1591    1.9730    1.7378 C   0  0  0  0  0  0  0  0  0  0  0  0
    1.1343    2.1483    2.4596 O   0  0  0  0  0  0  0  0  0  0  0  0
   -1.4323    2.2551    3.7391 C   0  0  0  0  0  0  0  0  0  0  0  0
   -3.0990    1.9288    1.1272 H   0  0  0  0  0  0  0  0  0  0  0  0
   -1.4528    3.3505    1.9028 H   0  0  0  0  0  0  0  0  0  0  0  0
   -1.1825    1.2603    4.1192 H   0  0  0  0  0  0  0  0  0  0  0  0
   -0.7685    2.9823    4.2176 H   0  0  0  0  0  0  0  0  0  0  0  0
   -2.4618    2.4894    4.0266 H   0  0  0  0  0  0  0  0  0  0  0  0
    0.3404    1.5805    0.4249 N   0  0  0  0  0  0  0  0  0  0  0  0
    1.3876    0.7265   -0.1721 C   0  0  2  0  0  0  0  0  0  0  0  0
    0.8597    0.3403   -1.5852 C   0  0  0  0  0  0  0  0  0  0  0  0
    0.2347    1.1775   -2.2257 O   0  0  0  0  0  0  0  0  0  0  0  0
    1.7011   -0.5945    0.5970 C   0  0  0  0  0  0  0  0  0  0  0  0
    2.2700   -0.4384    1.9831 C   0  0  0  0  0  0  0  0  0  0  0  0
    3.5699   -0.0621    2.3235 N   0  3  0  0  0  0  0  0  0  0  0  0
    1.6193   -0.7625    3.1477 C   0  0  0  0  0  0  0  0  0  0  0  0
    3.7078   -0.0467    3.6274 C   0  0  0  0  0  0  0  0  0  0  0  0
    2.5122   -0.5019    4.1765 N   0  0  0  0  0  0  0  0  0  0  0  0
   -0.5092    1.6422   -0.1375 H   0  0  0  0  0  0  0  0  0  0  0  0
    2.3062    1.3095   -0.2878 H   0  0  0  0  0  0  0  0  0  0  0  0
    2.4175   -1.1902    0.0231 H   0  0  0  0  0  0  0  0  0  0  0  0
    0.7704   -1.1714    0.6723 H   0  0  0  0  0  0  0  0  0  0  0  0
    4.2367    0.3042    1.6413 H   0  0  0  0  0  0  0  0  0  0  0  0
    0.5914   -1.1155    3.2362 H   0  0  0  0  0  0  0  0  0  0  0  0
    4.5862    0.2858    4.1818 H   0  0  0  0  0  0  0  0  0  0  0  0
    2.2952   -0.5638    5.1745 H   0  0  0  0  0  0  0  0  0  0  0  0
    0.9213   -0.9473   -2.0977 N   0  0  0  0  0  0  0  0  0  0  0  0
   -0.0083   -1.3981   -3.1458 C   0  0  2  0  0  0  0  0  0  0  0  0
   -1.3905   -1.7701   -2.5610 C   0  0  0  0  0  0  0  0  0  0  0  0
   -1.5239   -1.9325   -1.3516 O   0  0  0  0  0  0  0  0  0  0  0  0
    0.6254   -2.6050   -3.8417 C   0  0  0  0  0  0  0  0  0  0  0  0
    1.2001   -1.6611   -1.4330 H   0  0  0  0  0  0  0  0  0  0  0  0
   -0.1535   -0.6089   -3.8919 H   0  0  0  0  0  0  0  0  0  0  0  0
    0.7675   -3.4279   -3.1335 H   0  0  0  0  0  0  0  0  0  0  0  0
   -0.0145   -2.9567   -4.6572 H   0  0  0  0  0  0  0  0  0  0  0  0
    1.5989   -2.3329   -4.2624 H   0  0  0  0  0  0  0  0  0  0  0  0
   -2.4819   -1.9478   -3.3899 N   0  0  0  0  0  0  0  0  0  0  0  0
   -3.8025   -2.3385   -2.9093 C   0  0  0  0  0  0  0  0  0  0  0  0
   -2.3510   -1.7856   -4.3849 H   0  0  0  0  0  0  0  0  0  0  0  0
   -3.7437   -3.2719   -2.3392 H   0  0  0  0  0  0  0  0  0  0  0  0
   -4.2230   -1.5586   -2.2667 H   0  0  0  0  0  0  0  0  0  0  0  0
   -4.4820   -2.4945   -3.7529 H   0  0  0  0  0  0  0  0  0  0  0  0
  1  2  2  0  0  0  0
  1  3  1  0  0  0  0
  1  7  1  0  0  0  0
  3  4  1  0  0  0  0
  3  5  1  0  0  0  0
  3  6  1  0  0  0  0
  7  8  1  0  0  0  0
  7 12  1  0  0  0  0
  8  9  1  0  0  0  0
  8 11  1  0  0  0  0
  8 13  1  0  0  0  0
  9 10  2  0  0  0  0
  9 17  1  0  0  0  0
 11 14  1  0  0  0  0
 11 15  1  0  0  0  0
 11 16  1  0  0  0  0
 17 18  1  0  0  0  0
 17 27  1  0  0  0  0
 18 19  1  0  0  0  0
 18 21  1  0  0  0  0
 18 28  1  0  0  0  0
 19 20  2  0  0  0  0
 19 35  1  0  0  0  0
 21 22  1  0  0  0  0
 21 29  1  0  0  0  0
 21 30  1  0  0  0  0
 22 23  1  0  0  0  0
 22 24  2  0  0  0  0
 23 25  2  0  0  0  0
 23 31  1  0  0  0  0
 24 26  1  0  0  0  0
 24 32  1  0  0  0  0
 25 26  1  0  0  0  0
 25 33  1  0  0  0  0
 26 34  1  0  0  0  0
 35 36  1  0  0  0  0
 35 40  1  0  0  0  0
 36 37  1  0  0  0  0
 36 39  1  0  0  0  0
 36 41  1  0  0  0  0
 37 38  2  0  0  0  0
 37 45  1  0  0  0  0
 39 42  1  0  0  0  0
 39 43  1  0  0  0  0
 39 44  1  0  0  0  0
 45 46  1  0  0  0  0
 45 47  1  0  0  0  0
 46 48  1  0  0  0  0
 46 49  1  0  0  0  0
 46 50  1  0  0  0  0
M  CHG  1  23   1
M  END
$$$$

  -OEChem-05262216443D

 50 50  0     1  0  0  0  0  0999 V2000
   -2.3570   -0.0616    1.7162 C   0  0  0  0  0  0  0  0  0  0  0  0
   -1.4053   -0.6174    2.2485 O   0  0  0  0  0  0  0  0  0  0  0  0
   -3.5766   -0.8681    1.3147 C   0  0  0  0  0  0  0  0  0  0  0  0
   -3.3143   -1.9261    1.2276 H   0  0  0  0  0  0  0  0  0  0  0  0
   -4.3631   -0.7560    2.0646 H   0  0  0  0  0  0  0  0  0  0  0  0
   -3.9533   -0.5256    0.3478 H   0  0  0  0  0  0  0  0  0  0  0  0
   -2.3482    1.3104    1.5296 N   0  0  0  0  0  0  0  0  0  0  0  0
   -1.3280    2.2368    2.0640 C   0  0  2  0  0  0  0  0  0  0  0  0
    0.1110    1.9076    1.5929 C   0  0  0  0  0  0  0  0  0  0  0  0
    1.0862    2.1731    2.2866 O   0  0  0  0  0  0  0  0  0  0  0  0
   -1.4522    2.3000    3.5948 C   0  0  0  0  0  0  0  0  0  0  0  0
   -3.1954    1.7092    1.1318 H   0  0  0  0  0  0  0  0  0  0  0  0
   -1.5470    3.2357    1.6737 H   0  0  0  0  0  0  0  0  0  0  0  0
   -1.1678    1.3466    4.0495 H   0  0  0  0  0  0  0  0  0  0  0  0
   -0.7987    3.0806    3.9970 H   0  0  0  0  0  0  0  0  0  0  0  0
   -2.4815    2.5319    3.8848 H   0  0  0  0  0  0  0  0  0  0  0  0
    0.2989    1.4303    0.3093 N   0  0  0  0  0  0  0  0  0  0  0  0
    1.3689    0.5541   -0.2117 C   0  0  2  0  0  0  0  0  0  0  0  0
    0.8700    0.0528   -1.5929 C   0  0  0  0  0  0  0  0  0  0  0  0
    0.5363    0.8871   -2.4232 O   0  0  0  0  0  0  0  0  0  0  0  0
    1.7394   -0.6871    0.6563 C   0  0  0  0  0  0  0  0  0  0  0  0
    2.3186   -0.3968    2.0165 C   0  0  0  0  0  0  0  0  0  0  0  0
    3.6088    0.0526    2.2999 N   0  3  0  0  0  0  0  0  0  0  0  0
    1.6950   -0.6343    3.2164 C   0  0  0  0  0  0  0  0  0  0  0  0
    3.7650    0.1889    3.5945 C   0  0  0  0  0  0  0  0  0  0  0  0
    2.5932   -0.2533    4.2024 N   0  0  0  0  0  0  0  0  0  0  0  0
   -0.5648    1.3988   -0.2332 H   0  0  0  0  0  0  0  0  0  0  0  0
    2.2681    1.1565   -0.3729 H   0  0  0  0  0  0  0  0  0  0  0  0
    2.4600   -1.3074    0.1128 H   0  0  0  0  0  0  0  0  0  0  0  0
    0.8298   -1.2818    0.8029 H   0  0  0  0  0  0  0  0  0  0  0  0
    4.2528    0.3780    1.5760 H   0  0  0  0  0  0  0  0  0  0  0  0
    0.6795   -1.0064    3.3537 H   0  0  0  0  0  0  0  0  0  0  0  0
    4.6393    0.5985    4.1016 H   0  0  0  0  0  0  0  0  0  0  0  0
    2.3914   -0.2273    5.2052 H   0  0  0  0  0  0  0  0  0  0  0  0
    0.6788   -1.2864   -1.9007 N   0  0  0  0  0  0  0  0  0  0  0  0
   -0.2335   -1.6778   -2.9878 C   0  0  2  0  0  0  0  0  0  0  0  0
   -1.7167   -1.4928   -2.5889 C   0  0  0  0  0  0  0  0  0  0  0  0
   -2.0295   -1.3760   -1.4071 O   0  0  0  0  0  0  0  0  0  0  0  0
    0.0505   -3.1403   -3.3398 C   0  0  0  0  0  0  0  0  0  0  0  0
    0.7038   -1.9156   -1.1047 H   0  0  0  0  0  0  0  0  0  0  0  0
   -0.0403   -1.0658   -3.8761 H   0  0  0  0  0  0  0  0  0  0  0  0
   -0.1534   -3.7905   -2.4829 H   0  0  0  0  0  0  0  0  0  0  0  0
   -0.5797   -3.4615   -4.1751 H   0  0  0  0  0  0  0  0  0  0  0  0
    1.0979   -3.2642   -3.6328 H   0  0  0  0  0  0  0  0  0  0  0  0
   -2.7066   -1.4694   -3.5527 N   0  0  0  0  0  0  0  0  0  0  0  0
   -4.1197   -1.2751   -3.2486 C   0  0  0  0  0  0  0  0  0  0  0  0
   -2.4176   -1.5116   -4.5264 H   0  0  0  0  0  0  0  0  0  0  0  0
   -4.4778   -2.0574   -2.5708 H   0  0  0  0  0  0  0  0  0  0  0  0
   -4.2800   -0.2994   -2.7779 H   0  0  0  0  0  0  0  0  0  0  0  0
   -4.7141   -1.3178   -4.1668 H   0  0  0  0  0  0  0  0  0  0  0  0
  1  2  2  0  0  0  0
  1  3  1  0  0  0  0
  1  7  1  0  0  0  0
  3  4  1  0  0  0  0
  3  5  1  0  0  0  0
  3  6  1  0  0  0  0
  7  8  1  0  0  0  0
  7 12  1  0  0  0  0
  8  9  1  0  0  0  0
  8 11  1  0  0  0  0
  8 13  1  0  0  0  0
  9 10  2  0  0  0  0
  9 17  1  0  0  0  0
 11 14  1  0  0  0  0
 11 15  1  0  0  0  0
 11 16  1  0  0  0  0
 17 18  1  0  0  0  0
 17 27  1  0  0  0  0
 18 19  1  0  0  0  0
 18 21  1  0  0  0  0
 18 28  1  0  0  0  0
 19 20  2  0  0  0  0
 19 35  1  0  0  0  0
 21 22  1  0  0  0  0
 21 29  1  0  0  0  0
 21 30  1  0  0  0  0
 22 23  1  0  0  0  0
 22 24  2  0  0  0  0
 23 25  2  0  0  0  0
 23 31  1  0  0  0  0
 24 26  1  0  0  0  0
 24 32  1  0  0  0  0
 25 26  1  0  0  0  0
 25 33  1  0  0  0  0
 26 34  1  0  0  0  0
 35 36  1  0  0  0  0
 35 40  1  0  0  0  0
 36 37  1  0  0  0  0
 36 39  1  0  0  0  0
 36 41  1  0  0  0  0
 37 38  2  0  0  0  0
 37 45  1  0  0  0  0
 39 42  1  0  0  0  0
 39 43  1  0  0  0  0
 39 44  1  0  0  0  0
 45 46  1  0  0  0  0
 45 47  1  0  0  0  0
 46 48  1  0  0  0  0
 46 49  1  0  0  0  0
 46 50  1  0  0  0  0
M  CHG  1  23   1
M  END
$$$$

  -OEChem-05262216443D

 50 50  0     1  0  0  0  0  0999 V2000
   -2.3600   -0.1140    1.7412 C   0  0  0  0  0  0  0  0  0  0  0  0
   -1.3820   -0.6412    2.2562 O   0  0  0  0  0  0  0  0  0  0  0  0
   -3.5984   -0.9426    1.4574 C   0  0  0  0  0  0  0  0  0  0  0  0
   -3.3205   -1.9858    1.2859 H   0  0  0  0  0  0  0  0  0  0  0  0
   -4.2847   -0.8902    2.3061 H   0  0  0  0  0  0  0  0  0  0  0  0
   -4.1082   -0.5696    0.5656 H   0  0  0  0  0  0  0  0  0  0  0  0
   -2.3628    1.2439    1.4733 N   0  0  0  0  0  0  0  0  0  0  0  0
   -1.3399    2.2088    1.9267 C   0  0  2  0  0  0  0  0  0  0  0  0
    0.0936    1.8674    1.4498 C   0  0  0  0  0  0  0  0  0  0  0  0
    1.0773    2.1933    2.1047 O   0  0  0  0  0  0  0  0  0  0  0  0
   -1.4366    2.3622    3.4528 C   0  0  0  0  0  0  0  0  0  0  0  0
   -3.2164    1.6104    1.0581 H   0  0  0  0  0  0  0  0  0  0  0  0
   -1.5770    3.1802    1.4813 H   0  0  0  0  0  0  0  0  0  0  0  0
   -1.1315    1.4410    3.9579 H   0  0  0  0  0  0  0  0  0  0  0  0
   -0.7871    3.1744    3.7949 H   0  0  0  0  0  0  0  0  0  0  0  0
   -2.4636    2.5982    3.7480 H   0  0  0  0  0  0  0  0  0  0  0  0
    0.2655    1.2964    0.2030 N   0  0  0  0  0  0  0  0  0  0  0  0
    1.3340    0.3798   -0.2468 C   0  0  2  0  0  0  0  0  0  0  0  0
    0.8303   -0.2251   -1.5780 C   0  0  0  0  0  0  0  0  0  0  0  0
    0.7809    0.4979   -2.5626 O   0  0  0  0  0  0  0  0  0  0  0  0
    1.7315   -0.7878    0.7055 C   0  0  0  0  0  0  0  0  0  0  0  0
    2.3298   -0.3841    2.0277 C   0  0  0  0  0  0  0  0  0  0  0  0
    3.6201    0.0994    2.2469 N   0  3  0  0  0  0  0  0  0  0  0  0
    1.7276   -0.5186    3.2543 C   0  0  0  0  0  0  0  0  0  0  0  0
    3.7982    0.3482    3.5218 C   0  0  0  0  0  0  0  0  0  0  0  0
    2.6409   -0.0480    4.1870 N   0  0  0  0  0  0  0  0  0  0  0  0
   -0.6167    1.1883   -0.3008 H   0  0  0  0  0  0  0  0  0  0  0  0
    2.2278    0.9737   -0.4628 H   0  0  0  0  0  0  0  0  0  0  0  0
    2.4447   -1.4425    0.1924 H   0  0  0  0  0  0  0  0  0  0  0  0
    0.8357   -1.3794    0.9200 H   0  0  0  0  0  0  0  0  0  0  0  0
    4.2495    0.3617    1.4853 H   0  0  0  0  0  0  0  0  0  0  0  0
    0.7154   -0.8794    3.4397 H   0  0  0  0  0  0  0  0  0  0  0  0
    4.6785    0.8060    3.9750 H   0  0  0  0  0  0  0  0  0  0  0  0
    2.4574    0.0642    5.1873 H   0  0  0  0  0  0  0  0  0  0  0  0
    0.3506   -1.5213   -1.6839 N   0  0  0  0  0  0  0  0  0  0  0  0
   -0.5885   -1.8607   -2.7642 C   0  0  2  0  0  0  0  0  0  0  0  0
   -1.9688   -1.1915   -2.5569 C   0  0  0  0  0  0  0  0  0  0  0  0
   -2.3020   -0.7891   -1.4440 O   0  0  0  0  0  0  0  0  0  0  0  0
   -0.7316   -3.3838   -2.8044 C   0  0  0  0  0  0  0  0  0  0  0  0
    0.1740   -1.9784   -0.7947 H   0  0  0  0  0  0  0  0  0  0  0  0
   -0.1849   -1.5243   -3.7261 H   0  0  0  0  0  0  0  0  0  0  0  0
   -1.1532   -3.7565   -1.8651 H   0  0  0  0  0  0  0  0  0  0  0  0
   -1.3925   -3.6845   -3.6237 H   0  0  0  0  0  0  0  0  0  0  0  0
    0.2451   -3.8527   -2.9609 H   0  0  0  0  0  0  0  0  0  0  0  0
   -2.8439   -1.0471   -3.6163 N   0  0  0  0  0  0  0  0  0  0  0  0
   -4.1355   -0.3789   -3.5056 C   0  0  0  0  0  0  0  0  0  0  0  0
   -2.5120   -1.3154   -4.5392 H   0  0  0  0  0  0  0  0  0  0  0  0
   -4.7770   -0.8994   -2.7867 H   0  0  0  0  0  0  0  0  0  0  0  0
   -4.0049    0.6575   -3.1768 H   0  0  0  0  0  0  0  0  0  0  0  0
   -4.6418   -0.3714   -4.4760 H   0  0  0  0  0  0  0  0  0  0  0  0
  1  2  2  0  0  0  0
  1  3  1  0  0  0  0
  1  7  1  0  0  0  0
  3  4  1  0  0  0  0
  3  5  1  0  0  0  0
  3  6  1  0  0  0  0
  7  8  1  0  0  0  0
  7 12  1  0  0  0  0
  8  9  1  0  0  0  0
  8 11  1  0  0  0  0
  8 13  1  0  0  0  0
  9 10  2  0  0  0  0
  9 17  1  0  0  0  0
 11 14  1  0  0  0  0
 11 15  1  0  0  0  0
 11 16  1  0  0  0  0
 17 18  1  0  0  0  0
 17 27  1  0  0  0  0
 18 19  1  0  0  0  0
 18 21  1  0  0  0  0
 18 28  1  0  0  0  0
 19 20  2  0  0  0  0
 19 35  1  0  0  0  0
 21 22  1  0  0  0  0
 21 29  1  0  0  0  0
 21 30  1  0  0  0  0
 22 23  1  0  0  0  0
 22 24  2  0  0  0  0
 23 25  2  0  0  0  0
 23 31  1  0  0  0  0
 24 26  1  0  0  0  0
 24 32  1  0  0  0  0
 25 26  1  0  0  0  0
 25 33  1  0  0  0  0
 26 34  1  0  0  0  0
 35 36  1  0  0  0  0
 35 40  1  0  0  0  0
 36 37  1  0  0  0  0
 36 39  1  0  0  0  0
 36 41  1  0  0  0  0
 37 38  2  0  0  0  0
 37 45  1  0  0  0  0
 39 42  1  0  0  0  0
 39 43  1  0  0  0  0
 39 44  1  0  0  0  0
 45 46  1  0  0  0  0
 45 47  1  0  0  0  0
 46 48  1  0  0  0  0
 46 49  1  0  0  0  0
 46 50  1  0  0  0  0
M  CHG  1  23   1
M  END
$$$$

  -OEChem-05262216443D

 50 50  0     1  0  0  0  0  0999 V2000
   -2.3779   -0.1216    1.7305 C   0  0  0  0  0  0  0  0  0  0  0  0
   -1.3946   -0.6419    2.2427 O   0  0  0  0  0  0  0  0  0  0  0  0
   -3.6175   -0.9568    1.4709 C   0  0  0  0  0  0  0  0  0  0  0  0
   -3.3638   -2.0200    1.4715 H   0  0  0  0  0  0  0  0  0  0  0  0
   -4.3604   -0.7689    2.2497 H   0  0  0  0  0  0  0  0  0  0  0  0
   -4.0515   -0.7022    0.5012 H   0  0  0  0  0  0  0  0  0  0  0  0
   -2.3762    1.2253    1.4161 N   0  0  0  0  0  0  0  0  0  0  0  0
   -1.3347    2.2002    1.7973 C   0  0  2  0  0  0  0  0  0  0  0  0
    0.0867    1.8247    1.3091 C   0  0  0  0  0  0  0  0  0  0  0  0
    1.0835    2.1882    1.9231 O   0  0  0  0  0  0  0  0  0  0  0  0
   -1.3985    2.4251    3.3163 C   0  0  0  0  0  0  0  0  0  0  0  0
   -3.2033    1.5695    0.9329 H   0  0  0  0  0  0  0  0  0  0  0  0
   -1.5741    3.1509    1.3101 H   0  0  0  0  0  0  0  0  0  0  0  0
   -1.0979    1.5227    3.8569 H   0  0  0  0  0  0  0  0  0  0  0  0
   -0.7307    3.2417    3.6087 H   0  0  0  0  0  0  0  0  0  0  0  0
   -2.4160    2.6906    3.6192 H   0  0  0  0  0  0  0  0  0  0  0  0
    0.2372    1.1687    0.1017 N   0  0  0  0  0  0  0  0  0  0  0  0
    1.3020    0.2186   -0.2861 C   0  0  2  0  0  0  0  0  0  0  0  0
    0.7865   -0.4777   -1.5611 C   0  0  0  0  0  0  0  0  0  0  0  0
    0.9637    0.0612   -2.6435 O   0  0  0  0  0  0  0  0  0  0  0  0
    1.7091   -0.8881    0.7320 C   0  0  0  0  0  0  0  0  0  0  0  0
    2.3175   -0.3982    2.0186 C   0  0  0  0  0  0  0  0  0  0  0  0
    3.6083    0.1011    2.1929 N   0  3  0  0  0  0  0  0  0  0  0  0
    1.7233   -0.4479    3.2551 C   0  0  0  0  0  0  0  0  0  0  0  0
    3.7950    0.4379    3.4459 C   0  0  0  0  0  0  0  0  0  0  0  0
    2.6436    0.0866    4.1460 N   0  0  0  0  0  0  0  0  0  0  0  0
   -0.6576    1.0179   -0.3735 H   0  0  0  0  0  0  0  0  0  0  0  0
    2.1951    0.7942   -0.5502 H   0  0  0  0  0  0  0  0  0  0  0  0
    2.4175   -1.5726    0.2524 H   0  0  0  0  0  0  0  0  0  0  0  0
    0.8206   -1.4706    0.9940 H   0  0  0  0  0  0  0  0  0  0  0  0
    4.2302    0.3126    1.4095 H   0  0  0  0  0  0  0  0  0  0  0  0
    0.7122   -0.7951    3.4704 H   0  0  0  0  0  0  0  0  0  0  0  0
    4.6774    0.9280    3.8586 H   0  0  0  0  0  0  0  0  0  0  0  0
    2.4676    0.2691    5.1373 H   0  0  0  0  0  0  0  0  0  0  0  0
    0.0336   -1.6389   -1.5020 N   0  0  0  0  0  0  0  0  0  0  0  0
   -0.9688   -1.8838   -2.5496 C   0  0  2  0  0  0  0  0  0  0  0  0
   -2.1245   -0.8545   -2.4831 C   0  0  0  0  0  0  0  0  0  0  0  0
   -2.3297   -0.2193   -1.4490 O   0  0  0  0  0  0  0  0  0  0  0  0
   -1.5040   -3.3059   -2.3661 C   0  0  0  0  0  0  0  0  0  0  0  0
   -0.2517   -1.8971   -0.5615 H   0  0  0  0  0  0  0  0  0  0  0  0
   -0.4995   -1.8111   -3.5374 H   0  0  0  0  0  0  0  0  0  0  0  0
   -1.9959   -3.4107   -1.3936 H   0  0  0  0  0  0  0  0  0  0  0  0
   -2.2304   -3.5452   -3.1491 H   0  0  0  0  0  0  0  0  0  0  0  0
   -0.6854   -4.0305   -2.4240 H   0  0  0  0  0  0  0  0  0  0  0  0
   -2.9393   -0.6415   -3.5781 N   0  0  0  0  0  0  0  0  0  0  0  0
   -3.9919    0.3678   -3.6087 C   0  0  0  0  0  0  0  0  0  0  0  0
   -2.6863   -1.1053   -4.4470 H   0  0  0  0  0  0  0  0  0  0  0  0
   -4.7419    0.1646   -2.8370 H   0  0  0  0  0  0  0  0  0  0  0  0
   -3.5723    1.3653   -3.4397 H   0  0  0  0  0  0  0  0  0  0  0  0
   -4.4920    0.3644   -4.5823 H   0  0  0  0  0  0  0  0  0  0  0  0
  1  2  2  0  0  0  0
  1  3  1  0  0  0  0
  1  7  1  0  0  0  0
  3  4  1  0  0  0  0
  3  5  1  0  0  0  0
  3  6  1  0  0  0  0
  7  8  1  0  0  0  0
  7 12  1  0  0  0  0
  8  9  1  0  0  0  0
  8 11  1  0  0  0  0
  8 13  1  0  0  0  0
  9 10  2  0  0  0  0
  9 17  1  0  0  0  0
 11 14  1  0  0  0  0
 11 15  1  0  0  0  0
 11 16  1  0  0  0  0
 17 18  1  0  0  0  0
 17 27  1  0  0  0  0
 18 19  1  0  0  0  0
 18 21  1  0  0  0  0
 18 28  1  0  0  0  0
 19 20  2  0  0  0  0
 19 35  1  0  0  0  0
 21 22  1  0  0  0  0
 21 29  1  0  0  0  0
 21 30  1  0  0  0  0
 22 23  1  0  0  0  0
 22 24  2  0  0  0  0
 23 25  2  0  0  0  0
 23 31  1  0  0  0  0
 24 26  1  0  0  0  0
 24 32  1  0  0  0  0
 25 26  1  0  0  0  0
 25 33  1  0  0  0  0
 26 34  1  0  0  0  0
 35 36  1  0  0  0  0
 35 40  1  0  0  0  0
 36 37  1  0  0  0  0
 36 39  1  0  0  0  0
 36 41  1  0  0  0  0
 37 38  2  0  0  0  0
 37 45  1  0  0  0  0
 39 42  1  0  0  0  0
 39 43  1  0  0  0  0
 39 44  1  0  0  0  0
 45 46  1  0  0  0  0
 45 47  1  0  0  0  0
 46 48  1  0  0  0  0
 46 49  1  0  0  0  0
 46 50  1  0  0  0  0
M  CHG  1  23   1
M  END
$$$$

  -OEChem-05262216443D

 50 50  0     1  0  0  0  0  0999 V2000
   -2.3996   -0.0685    1.7134 C   0  0  0  0  0  0  0  0  0  0  0  0
   -1.4184   -0.6230    2.1930 O   0  0  0  0  0  0  0  0  0  0  0  0
   -3.6505   -0.8784    1.4278 C   0  0  0  0  0  0  0  0  0  0  0  0
   -3.4418   -1.9465    1.5311 H   0  0  0  0  0  0  0  0  0  0  0  0
   -4.4375   -0.6029    2.1339 H   0  0  0  0  0  0  0  0  0  0  0  0
   -4.0055   -0.6875    0.4125 H   0  0  0  0  0  0  0  0  0  0  0  0
   -2.3713    1.2823    1.4202 N   0  0  0  0  0  0  0  0  0  0  0  0
   -1.2891    2.2244    1.7678 C   0  0  2  0  0  0  0  0  0  0  0  0
    0.1049    1.8139    1.2311 C   0  0  0  0  0  0  0  0  0  0  0  0
    1.1303    2.1834    1.7919 O   0  0  0  0  0  0  0  0  0  0  0  0
   -1.2922    2.4380    3.2895 C   0  0  0  0  0  0  0  0  0  0  0  0
   -3.1723    1.6412    0.9038 H   0  0  0  0  0  0  0  0  0  0  0  0
   -1.5191    3.1845    1.2952 H   0  0  0  0  0  0  0  0  0  0  0  0
   -0.9928    1.5241    3.8111 H   0  0  0  0  0  0  0  0  0  0  0  0
   -0.5951    3.2365    3.5634 H   0  0  0  0  0  0  0  0  0  0  0  0
   -2.2913    2.7241    3.6324 H   0  0  0  0  0  0  0  0  0  0  0  0
    0.1981    1.0892    0.0575 N   0  0  0  0  0  0  0  0  0  0  0  0
    1.2451    0.1145   -0.3201 C   0  0  2  0  0  0  0  0  0  0  0  0
    0.6727   -0.6524   -1.5246 C   0  0  0  0  0  0  0  0  0  0  0  0
    0.9941   -0.3295   -2.6578 O   0  0  0  0  0  0  0  0  0  0  0  0
    1.6684   -0.9574    0.7273 C   0  0  0  0  0  0  0  0  0  0  0  0
    2.3116   -0.4253    1.9789 C   0  0  0  0  0  0  0  0  0  0  0  0
    3.6087    0.0701    2.1088 N   0  3  0  0  0  0  0  0  0  0  0  0
    1.7388   -0.4208    3.2261 C   0  0  0  0  0  0  0  0  0  0  0  0
    3.8221    0.4507    3.3450 C   0  0  0  0  0  0  0  0  0  0  0  0
    2.6811    0.1362    4.0795 N   0  0  0  0  0  0  0  0  0  0  0  0
   -0.7112    0.9495   -0.3963 H   0  0  0  0  0  0  0  0  0  0  0  0
    2.1337    0.6656   -0.6455 H   0  0  0  0  0  0  0  0  0  0  0  0
    2.3610   -1.6623    0.2545 H   0  0  0  0  0  0  0  0  0  0  0  0
    0.7863   -1.5293    1.0298 H   0  0  0  0  0  0  0  0  0  0  0  0
    4.2168    0.2459    1.3058 H   0  0  0  0  0  0  0  0  0  0  0  0
    0.7275   -0.7493    3.4698 H   0  0  0  0  0  0  0  0  0  0  0  0
    4.7168    0.9475    3.7221 H   0  0  0  0  0  0  0  0  0  0  0  0
    2.5280    0.3519    5.0678 H   0  0  0  0  0  0  0  0  0  0  0  0
   -0.3146   -1.6045   -1.3367 N   0  0  0  0  0  0  0  0  0  0  0  0
   -1.3432   -1.7721   -2.3724 C   0  0  2  0  0  0  0  0  0  0  0  0
   -2.2715   -0.5352   -2.4456 C   0  0  0  0  0  0  0  0  0  0  0  0
   -2.3821    0.2082   -1.4706 O   0  0  0  0  0  0  0  0  0  0  0  0
   -2.1474   -3.0300   -2.0372 C   0  0  0  0  0  0  0  0  0  0  0  0
   -0.6487   -1.6615   -0.3774 H   0  0  0  0  0  0  0  0  0  0  0  0
   -0.8697   -1.9096   -3.3512 H   0  0  0  0  0  0  0  0  0  0  0  0
   -2.6443   -2.9239   -1.0675 H   0  0  0  0  0  0  0  0  0  0  0  0
   -2.9110   -3.2105   -2.8004 H   0  0  0  0  0  0  0  0  0  0  0  0
   -1.4873   -3.9025   -1.9981 H   0  0  0  0  0  0  0  0  0  0  0  0
   -2.9882   -0.2574   -3.5931 N   0  0  0  0  0  0  0  0  0  0  0  0
   -3.8033    0.9414   -3.7572 C   0  0  0  0  0  0  0  0  0  0  0  0
   -2.7954   -0.8272   -4.4131 H   0  0  0  0  0  0  0  0  0  0  0  0
   -4.5902    0.9792   -2.9967 H   0  0  0  0  0  0  0  0  0  0  0  0
   -3.1848    1.8410   -3.6705 H   0  0  0  0  0  0  0  0  0  0  0  0
   -4.2791    0.9435   -4.7429 H   0  0  0  0  0  0  0  0  0  0  0  0
  1  2  2  0  0  0  0
  1  3  1  0  0  0  0
  1  7  1  0  0  0  0
  3  4  1  0  0  0  0
  3  5  1  0  0  0  0
  3  6  1  0  0  0  0
  7  8  1  0  0  0  0
  7 12  1  0  0  0  0
  8  9  1  0  0  0  0
  8 11  1  0  0  0  0
  8 13  1  0  0  0  0
  9 10  2  0  0  0  0
  9 17  1  0  0  0  0
 11 14  1  0  0  0  0
 11 15  1  0  0  0  0
 11 16  1  0  0  0  0
 17 18  1  0  0  0  0
 17 27  1  0  0  0  0
 18 19  1  0  0  0  0
 18 21  1  0  0  0  0
 18 28  1  0  0  0  0
 19 20  2  0  0  0  0
 19 35  1  0  0  0  0
 21 22  1  0  0  0  0
 21 29  1  0  0  0  0
 21 30  1  0  0  0  0
 22 23  1  0  0  0  0
 22 24  2  0  0  0  0
 23 25  2  0  0  0  0
 23 31  1  0  0  0  0
 24 26  1  0  0  0  0
 24 32  1  0  0  0  0
 25 26  1  0  0  0  0
 25 33  1  0  0  0  0
 26 34  1  0  0  0  0
 35 36  1  0  0  0  0
 35 40  1  0  0  0  0
 36 37  1  0  0  0  0
 36 39  1  0  0  0  0
 36 41  1  0  0  0  0
 37 38  2  0  0  0  0
 37 45  1  0  0  0  0
 39 42  1  0  0  0  0
 39 43  1  0  0  0  0
 39 44  1  0  0  0  0
 45 46  1  0  0  0  0
 45 47  1  0  0  0  0
 46 48  1  0  0  0  0
 46 49  1  0  0  0  0
 46 50  1  0  0  0  0
M  CHG  1  23   1
M  END
$$$$

  -OEChem-05262216443D

 50 50  0     1  0  0  0  0  0999 V2000
   -2.4712    0.1860    1.6502 C   0  0  0  0  0  0  0  0  0  0  0  0
   -1.5405   -0.4595    2.1167 O   0  0  0  0  0  0  0  0  0  0  0  0
   -3.7901   -0.5036    1.3559 C   0  0  0  0  0  0  0  0  0  0  0  0
   -4.1320   -0.2549    0.3484 H   0  0  0  0  0  0  0  0  0  0  0  0
   -3.6758   -1.5883    1.4297 H   0  0  0  0  0  0  0  0  0  0  0  0
   -4.5458   -0.1789    2.0755 H   0  0  0  0  0  0  0  0  0  0  0  0
   -2.3180    1.5280    1.3569 N   0  0  0  0  0  0  0  0  0  0  0  0
   -1.1538    2.3671    1.7026 C   0  0  2  0  0  0  0  0  0  0  0  0
    0.2014    1.8293    1.1788 C   0  0  0  0  0  0  0  0  0  0  0  0
    1.2533    2.1582    1.7151 O   0  0  0  0  0  0  0  0  0  0  0  0
   -1.1453    2.5878    3.2232 C   0  0  0  0  0  0  0  0  0  0  0  0
   -3.0840    1.9607    0.8438 H   0  0  0  0  0  0  0  0  0  0  0  0
   -1.2921    3.3416    1.2237 H   0  0  0  0  0  0  0  0  0  0  0  0
   -0.9373    1.6523    3.7506 H   0  0  0  0  0  0  0  0  0  0  0  0
   -0.3775    3.3181    3.4978 H   0  0  0  0  0  0  0  0  0  0  0  0
   -2.1145    2.9693    3.5588 H   0  0  0  0  0  0  0  0  0  0  0  0
    0.2376    1.0314    0.0496 N   0  0  0  0  0  0  0  0  0  0  0  0
    1.2388   -0.0047   -0.2931 C   0  0  2  0  0  0  0  0  0  0  0  0
    0.6290   -0.8349   -1.4341 C   0  0  0  0  0  0  0  0  0  0  0  0
    1.1118   -0.7805   -2.5540 O   0  0  0  0  0  0  0  0  0  0  0  0
    1.5951   -1.0532    0.8011 C   0  0  0  0  0  0  0  0  0  0  0  0
    2.2517   -0.5094    2.0390 C   0  0  0  0  0  0  0  0  0  0  0  0
    3.5708   -0.0781    2.1706 N   0  3  0  0  0  0  0  0  0  0  0  0
    1.6571   -0.4182    3.2722 C   0  0  0  0  0  0  0  0  0  0  0  0
    3.7844    0.3424    3.3938 C   0  0  0  0  0  0  0  0  0  0  0  0
    2.6150    0.1228    4.1191 N   0  0  0  0  0  0  0  0  0  0  0  0
   -0.6745    0.9423   -0.4110 H   0  0  0  0  0  0  0  0  0  0  0  0
    2.1520    0.4837   -0.6488 H   0  0  0  0  0  0  0  0  0  0  0  0
    2.2567   -1.8104    0.3654 H   0  0  0  0  0  0  0  0  0  0  0  0
    0.6807   -1.5698    1.1110 H   0  0  0  0  0  0  0  0  0  0  0  0
    4.2007    0.0270    1.3721 H   0  0  0  0  0  0  0  0  0  0  0  0
    0.6232   -0.6773    3.5059 H   0  0  0  0  0  0  0  0  0  0  0  0
    4.6990    0.8044    3.7670 H   0  0  0  0  0  0  0  0  0  0  0  0
    2.4584    0.3879    5.0947 H   0  0  0  0  0  0  0  0  0  0  0  0
   -0.5655   -1.5004   -1.2211 N   0  0  0  0  0  0  0  0  0  0  0  0
   -1.5452   -1.6105   -2.3095 C   0  0  2  0  0  0  0  0  0  0  0  0
   -2.3320   -0.2904   -2.4741 C   0  0  0  0  0  0  0  0  0  0  0  0
   -2.3806    0.5114   -1.5414 O   0  0  0  0  0  0  0  0  0  0  0  0
   -2.4890   -2.7692   -1.9801 C   0  0  0  0  0  0  0  0  0  0  0  0
   -0.9558   -1.3516   -0.2920 H   0  0  0  0  0  0  0  0  0  0  0  0
   -1.0399   -1.8328   -3.2562 H   0  0  0  0  0  0  0  0  0  0  0  0
   -3.0198   -2.5813   -1.0415 H   0  0  0  0  0  0  0  0  0  0  0  0
   -3.2285   -2.8990   -2.7766 H   0  0  0  0  0  0  0  0  0  0  0  0
   -1.9239   -3.7015   -1.8803 H   0  0  0  0  0  0  0  0  0  0  0  0
   -2.9952   -0.0050   -3.6512 N   0  0  0  0  0  0  0  0  0  0  0  0
   -3.6964    1.2514   -3.8915 C   0  0  0  0  0  0  0  0  0  0  0  0
   -2.8601   -0.6429   -4.4319 H   0  0  0  0  0  0  0  0  0  0  0  0
   -4.4717    1.4111   -3.1346 H   0  0  0  0  0  0  0  0  0  0  0  0
   -2.9964    2.0933   -3.8623 H   0  0  0  0  0  0  0  0  0  0  0  0
   -4.1762    1.2349   -4.8752 H   0  0  0  0  0  0  0  0  0  0  0  0
  1  2  2  0  0  0  0
  1  3  1  0  0  0  0
  1  7  1  0  0  0  0
  3  4  1  0  0  0  0
  3  5  1  0  0  0  0
  3  6  1  0  0  0  0
  7  8  1  0  0  0  0
  7 12  1  0  0  0  0
  8  9  1  0  0  0  0
  8 11  1  0  0  0  0
  8 13  1  0  0  0  0
  9 10  2  0  0  0  0
  9 17  1  0  0  0  0
 11 14  1  0  0  0  0
 11 15  1  0  0  0  0
 11 16  1  0  0  0  0
 17 18  1  0  0  0  0
 17 27  1  0  0  0  0
 18 19  1  0  0  0  0
 18 21  1  0  0  0  0
 18 28  1  0  0  0  0
 19 20  2  0  0  0  0
 19 35  1  0  0  0  0
 21 22  1  0  0  0  0
 21 29  1  0  0  0  0
 21 30  1  0  0  0  0
 22 23  1  0  0  0  0
 22 24  2  0  0  0  0
 23 25  2  0  0  0  0
 23 31  1  0  0  0  0
 24 26  1  0  0  0  0
 24 32  1  0  0  0  0
 25 26  1  0  0  0  0
 25 33  1  0  0  0  0
 26 34  1  0  0  0  0
 35 36  1  0  0  0  0
 35 40  1  0  0  0  0
 36 37  1  0  0  0  0
 36 39  1  0  0  0  0
 36 41  1  0  0  0  0
 37 38  2  0  0  0  0
 37 45  1  0  0  0  0
 39 42  1  0  0  0  0
 39 43  1  0  0  0  0
 39 44  1  0  0  0  0
 45 46  1  0  0  0  0
 45 47  1  0  0  0  0
 46 48  1  0  0  0  0
 46 49  1  0  0  0  0
 46 50  1  0  0  0  0
M  CHG  1  23   1
M  END
$$$$

  -OEChem-05262216443D

 50 50  0     1  0  0  0  0  0999 V2000
   -2.4802    0.4168    1.6986 C   0  0  0  0  0  0  0  0  0  0  0  0
   -1.6064   -0.2446    2.2447 O   0  0  0  0  0  0  0  0  0  0  0  0
   -3.8219   -0.2203    1.3890 C   0  0  0  0  0  0  0  0  0  0  0  0
   -3.9964   -0.2307    0.3107 H   0  0  0  0  0  0  0  0  0  0  0  0
   -3.8491   -1.2483    1.7609 H   0  0  0  0  0  0  0  0  0  0  0  0
   -4.6224    0.3468    1.8708 H   0  0  0  0  0  0  0  0  0  0  0  0
   -2.2303    1.7174    1.3035 N   0  0  0  0  0  0  0  0  0  0  0  0
   -1.0139    2.4978    1.6051 C   0  0  2  0  0  0  0  0  0  0  0  0
    0.3022    1.8183    1.1517 C   0  0  0  0  0  0  0  0  0  0  0  0
    1.3677    2.0878    1.6940 O   0  0  0  0  0  0  0  0  0  0  0  0
   -1.0097    2.8454    3.1018 C   0  0  0  0  0  0  0  0  0  0  0  0
   -2.9343    2.1424    0.7015 H   0  0  0  0  0  0  0  0  0  0  0  0
   -1.0731    3.4366    1.0451 H   0  0  0  0  0  0  0  0  0  0  0  0
   -0.8757    1.9458    3.7099 H   0  0  0  0  0  0  0  0  0  0  0  0
   -0.1956    3.5411    3.3289 H   0  0  0  0  0  0  0  0  0  0  0  0
   -1.9540    3.3208    3.3846 H   0  0  0  0  0  0  0  0  0  0  0  0
    0.2905    0.9685    0.0601 N   0  0  0  0  0  0  0  0  0  0  0  0
    1.2375   -0.1271   -0.2574 C   0  0  2  0  0  0  0  0  0  0  0  0
    0.5919   -0.9920   -1.3532 C   0  0  0  0  0  0  0  0  0  0  0  0
    1.1937   -1.2061   -2.3928 O   0  0  0  0  0  0  0  0  0  0  0  0
    1.5173   -1.1600    0.8721 C   0  0  0  0  0  0  0  0  0  0  0  0
    2.1880   -0.6258    2.1068 C   0  0  0  0  0  0  0  0  0  0  0  0
    3.5287   -0.2717    2.2500 N   0  3  0  0  0  0  0  0  0  0  0  0
    1.5814   -0.4662    3.3273 C   0  0  0  0  0  0  0  0  0  0  0  0
    3.7491    0.1649    3.4665 C   0  0  0  0  0  0  0  0  0  0  0  0
    2.5570    0.0373    4.1768 N   0  0  0  0  0  0  0  0  0  0  0  0
   -0.6073    0.9546   -0.4345 H   0  0  0  0  0  0  0  0  0  0  0  0
    2.1769    0.2972   -0.6274 H   0  0  0  0  0  0  0  0  0  0  0  0
    2.1397   -1.9671    0.4691 H   0  0  0  0  0  0  0  0  0  0  0  0
    0.5668   -1.6117    1.1767 H   0  0  0  0  0  0  0  0  0  0  0  0
    4.1779   -0.2308    1.4611 H   0  0  0  0  0  0  0  0  0  0  0  0
    0.5303   -0.6557    3.5513 H   0  0  0  0  0  0  0  0  0  0  0  0
    4.6854    0.5767    3.8446 H   0  0  0  0  0  0  0  0  0  0  0  0
    2.4014    0.3378    5.1423 H   0  0  0  0  0  0  0  0  0  0  0  0
   -0.7389   -1.3460   -1.2271 N   0  0  0  0  0  0  0  0  0  0  0  0
   -1.6374   -1.3524   -2.3884 C   0  0  2  0  0  0  0  0  0  0  0  0
   -2.3554    0.0094   -2.5183 C   0  0  0  0  0  0  0  0  0  0  0  0
   -2.3425    0.7956   -1.5708 O   0  0  0  0  0  0  0  0  0  0  0  0
   -2.6430   -2.4894   -2.1974 C   0  0  0  0  0  0  0  0  0  0  0  0
   -1.1610   -1.0364   -0.3537 H   0  0  0  0  0  0  0  0  0  0  0  0
   -1.0788   -1.5345   -3.3135 H   0  0  0  0  0  0  0  0  0  0  0  0
   -3.2329   -2.3359   -1.2883 H   0  0  0  0  0  0  0  0  0  0  0  0
   -3.3264   -2.5447   -3.0504 H   0  0  0  0  0  0  0  0  0  0  0  0
   -2.1182   -3.4466   -2.1148 H   0  0  0  0  0  0  0  0  0  0  0  0
   -3.0223    0.3541   -3.6772 N   0  0  0  0  0  0  0  0  0  0  0  0
   -3.6786    1.6420   -3.8745 C   0  0  0  0  0  0  0  0  0  0  0  0
   -2.9648   -0.2885   -4.4637 H   0  0  0  0  0  0  0  0  0  0  0  0
   -4.4367    1.8107   -3.1024 H   0  0  0  0  0  0  0  0  0  0  0  0
   -2.9468    2.4557   -3.8343 H   0  0  0  0  0  0  0  0  0  0  0  0
   -4.1724    1.6698   -4.8509 H   0  0  0  0  0  0  0  0  0  0  0  0
  1  2  2  0  0  0  0
  1  3  1  0  0  0  0
  1  7  1  0  0  0  0
  3  4  1  0  0  0  0
  3  5  1  0  0  0  0
  3  6  1  0  0  0  0
  7  8  1  0  0  0  0
  7 12  1  0  0  0  0
  8  9  1  0  0  0  0
  8 11  1  0  0  0  0
  8 13  1  0  0  0  0
  9 10  2  0  0  0  0
  9 17  1  0  0  0  0
 11 14  1  0  0  0  0
 11 15  1  0  0  0  0
 11 16  1  0  0  0  0
 17 18  1  0  0  0  0
 17 27  1  0  0  0  0
 18 19  1  0  0  0  0
 18 21  1  0  0  0  0
 18 28  1  0  0  0  0
 19 20  2  0  0  0  0
 19 35  1  0  0  0  0
 21 22  1  0  0  0  0
 21 29  1  0  0  0  0
 21 30  1  0  0  0  0
 22 23  1  0  0  0  0
 22 24  2  0  0  0  0
 23 25  2  0  0  0  0
 23 31  1  0  0  0  0
 24 26  1  0  0  0  0
 24 32  1  0  0  0  0
 25 26  1  0  0  0  0
 25 33  1  0  0  0  0
 26 34  1  0  0  0  0
 35 36  1  0  0  0  0
 35 40  1  0  0  0  0
 36 37  1  0  0  0  0
 36 39  1  0  0  0  0
 36 41  1  0  0  0  0
 37 38  2  0  0  0  0
 37 45  1  0  0  0  0
 39 42  1  0  0  0  0
 39 43  1  0  0  0  0
 39 44  1  0  0  0  0
 45 46  1  0  0  0  0
 45 47  1  0  0  0  0
 46 48  1  0  0  0  0
 46 49  1  0  0  0  0
 46 50  1  0  0  0  0
M  CHG  1  23   1
M  END
$$$$

  -OEChem-05262216443D

 50 50  0     1  0  0  0  0  0999 V2000
   -2.4781    0.6117    1.8081 C   0  0  0  0  0  0  0  0  0  0  0  0
   -1.6537   -0.0227    2.4530 O   0  0  0  0  0  0  0  0  0  0  0  0
   -3.8189   -0.0156    1.4778 C   0  0  0  0  0  0  0  0  0  0  0  0
   -3.9270   -0.1282    0.3964 H   0  0  0  0  0  0  0  0  0  0  0  0
   -3.9021   -1.0006    1.9457 H   0  0  0  0  0  0  0  0  0  0  0  0
   -4.6277    0.6176    1.8509 H   0  0  0  0  0  0  0  0  0  0  0  0
   -2.1589    1.8538    1.2930 N   0  0  0  0  0  0  0  0  0  0  0  0
   -0.9013    2.5890    1.5333 C   0  0  2  0  0  0  0  0  0  0  0  0
    0.3639    1.7936    1.1291 C   0  0  0  0  0  0  0  0  0  0  0  0
    1.4500    2.0244    1.6470 O   0  0  0  0  0  0  0  0  0  0  0  0
   -0.8616    3.0560    2.9964 C   0  0  0  0  0  0  0  0  0  0  0  0
   -2.8066    2.2286    0.5999 H   0  0  0  0  0  0  0  0  0  0  0  0
   -0.9105    3.4818    0.8999 H   0  0  0  0  0  0  0  0  0  0  0  0
   -0.7704    2.2031    3.6753 H   0  0  0  0  0  0  0  0  0  0  0  0
   -0.0072    3.7205    3.1608 H   0  0  0  0  0  0  0  0  0  0  0  0
   -1.7749    3.6047    3.2457 H   0  0  0  0  0  0  0  0  0  0  0  0
    0.2781    0.8829    0.0911 N   0  0  0  0  0  0  0  0  0  0  0  0
    1.1523   -0.2798   -0.2012 C   0  0  2  0  0  0  0  0  0  0  0  0
    0.4439   -1.1845   -1.2269 C   0  0  0  0  0  0  0  0  0  0  0  0
    1.0820   -1.6558   -2.1540 O   0  0  0  0  0  0  0  0  0  0  0  0
    1.3910   -1.2654    0.9787 C   0  0  0  0  0  0  0  0  0  0  0  0
    2.1186   -0.7109    2.1715 C   0  0  0  0  0  0  0  0  0  0  0  0
    3.4820   -0.4374    2.2679 N   0  3  0  0  0  0  0  0  0  0  0  0
    1.5537   -0.4513    3.3950 C   0  0  0  0  0  0  0  0  0  0  0  0
    3.7599    0.0455    3.4546 C   0  0  0  0  0  0  0  0  0  0  0  0
    2.5798    0.0319    4.1952 N   0  0  0  0  0  0  0  0  0  0  0  0
   -0.6045    0.9406   -0.4251 H   0  0  0  0  0  0  0  0  0  0  0  0
    2.1057    0.0700   -0.6110 H   0  0  0  0  0  0  0  0  0  0  0  0
    1.9530   -2.1326    0.6123 H   0  0  0  0  0  0  0  0  0  0  0  0
    0.4180   -1.6365    1.3213 H   0  0  0  0  0  0  0  0  0  0  0  0
    4.1135   -0.4829    1.4651 H   0  0  0  0  0  0  0  0  0  0  0  0
    0.4993   -0.5619    3.6536 H   0  0  0  0  0  0  0  0  0  0  0  0
    4.7299    0.4135    3.7910 H   0  0  0  0  0  0  0  0  0  0  0  0
    2.4666    0.3905    5.1466 H   0  0  0  0  0  0  0  0  0  0  0  0
   -0.9368   -1.2325   -1.2384 N   0  0  0  0  0  0  0  0  0  0  0  0
   -1.7046   -1.1165   -2.4834 C   0  0  2  0  0  0  0  0  0  0  0  0
   -2.3098    0.3007   -2.5885 C   0  0  0  0  0  0  0  0  0  0  0  0
   -2.3181    1.0293   -1.5947 O   0  0  0  0  0  0  0  0  0  0  0  0
   -2.7988   -2.1862   -2.4693 C   0  0  0  0  0  0  0  0  0  0  0  0
   -1.3634   -0.7759   -0.4354 H   0  0  0  0  0  0  0  0  0  0  0  0
   -1.0634   -1.2794   -3.3573 H   0  0  0  0  0  0  0  0  0  0  0  0
   -3.4716   -2.0413   -1.6181 H   0  0  0  0  0  0  0  0  0  0  0  0
   -3.3889   -2.1446   -3.3901 H   0  0  0  0  0  0  0  0  0  0  0  0
   -2.3508   -3.1823   -2.3931 H   0  0  0  0  0  0  0  0  0  0  0  0
   -2.8265    0.7665   -3.7811 N   0  0  0  0  0  0  0  0  0  0  0  0
   -3.3668    2.1103   -3.9550 C   0  0  0  0  0  0  0  0  0  0  0  0
   -2.7628    0.1582   -4.5942 H   0  0  0  0  0  0  0  0  0  0  0  0
   -4.2041    2.2807   -3.2700 H   0  0  0  0  0  0  0  0  0  0  0  0
   -2.5944    2.8626   -3.7631 H   0  0  0  0  0  0  0  0  0  0  0  0
   -3.7293    2.2423   -4.9795 H   0  0  0  0  0  0  0  0  0  0  0  0
  1  2  2  0  0  0  0
  1  3  1  0  0  0  0
  1  7  1  0  0  0  0
  3  4  1  0  0  0  0
  3  5  1  0  0  0  0
  3  6  1  0  0  0  0
  7  8  1  0  0  0  0
  7 12  1  0  0  0  0
  8  9  1  0  0  0  0
  8 11  1  0  0  0  0
  8 13  1  0  0  0  0
  9 10  2  0  0  0  0
  9 17  1  0  0  0  0
 11 14  1  0  0  0  0
 11 15  1  0  0  0  0
 11 16  1  0  0  0  0
 17 18  1  0  0  0  0
 17 27  1  0  0  0  0
 18 19  1  0  0  0  0
 18 21  1  0  0  0  0
 18 28  1  0  0  0  0
 19 20  2  0  0  0  0
 19 35  1  0  0  0  0
 21 22  1  0  0  0  0
 21 29  1  0  0  0  0
 21 30  1  0  0  0  0
 22 23  1  0  0  0  0
 22 24  2  0  0  0  0
 23 25  2  0  0  0  0
 23 31  1  0  0  0  0
 24 26  1  0  0  0  0
 24 32  1  0  0  0  0
 25 26  1  0  0  0  0
 25 33  1  0  0  0  0
 26 34  1  0  0  0  0
 35 36  1  0  0  0  0
 35 40  1  0  0  0  0
 36 37  1  0  0  0  0
 36 39  1  0  0  0  0
 36 41  1  0  0  0  0
 37 38  2  0  0  0  0
 37 45  1  0  0  0  0
 39 42  1  0  0  0  0
 39 43  1  0  0  0  0
 39 44  1  0  0  0  0
 45 46  1  0  0  0  0
 45 47  1  0  0  0  0
 46 48  1  0  0  0  0
 46 49  1  0  0  0  0
 46 50  1  0  0  0  0
M  CHG  1  23   1
M  END
$$$$

  -OEChem-05262216443D

 50 50  0     1  0  0  0  0  0999 V2000
   -2.4970    0.7876    1.8421 C   0  0  0  0  0  0  0  0  0  0  0  0
   -1.7197    0.1368    2.5284 O   0  0  0  0  0  0  0  0  0  0  0  0
   -3.8554    0.2132    1.4903 C   0  0  0  0  0  0  0  0  0  0  0  0
   -3.9487    0.1044    0.4068 H   0  0  0  0  0  0  0  0  0  0  0  0
   -3.9847   -0.7678    1.9561 H   0  0  0  0  0  0  0  0  0  0  0  0
   -4.6445    0.8784    1.8499 H   0  0  0  0  0  0  0  0  0  0  0  0
   -2.1044    1.9933    1.2915 N   0  0  0  0  0  0  0  0  0  0  0  0
   -0.8061    2.6586    1.5193 C   0  0  2  0  0  0  0  0  0  0  0  0
    0.4064    1.7736    1.1416 C   0  0  0  0  0  0  0  0  0  0  0  0
    1.5125    1.9710    1.6297 O   0  0  0  0  0  0  0  0  0  0  0  0
   -0.7408    3.1635    2.9691 C   0  0  0  0  0  0  0  0  0  0  0  0
   -2.7254    2.3866    0.5843 H   0  0  0  0  0  0  0  0  0  0  0  0
   -0.7589    3.5323    0.8614 H   0  0  0  0  0  0  0  0  0  0  0  0
   -0.7077    2.3272    3.6736 H   0  0  0  0  0  0  0  0  0  0  0  0
    0.1544    3.7755    3.1186 H   0  0  0  0  0  0  0  0  0  0  0  0
   -1.6174    3.7772    3.1976 H   0  0  0  0  0  0  0  0  0  0  0  0
    0.2493    0.8230    0.1486 N   0  0  0  0  0  0  0  0  0  0  0  0
    1.0681   -0.3804   -0.1402 C   0  0  2  0  0  0  0  0  0  0  0  0
    0.2978   -1.3146   -1.0979 C   0  0  0  0  0  0  0  0  0  0  0  0
    0.9282   -1.9749   -1.9079 O   0  0  0  0  0  0  0  0  0  0  0  0
    1.2891   -1.3283    1.0754 C   0  0  0  0  0  0  0  0  0  0  0  0
    2.0646   -0.7692    2.2354 C   0  0  0  0  0  0  0  0  0  0  0  0
    3.4403   -0.5556    2.3048 N   0  3  0  0  0  0  0  0  0  0  0  0
    1.5284   -0.4396    3.4551 C   0  0  0  0  0  0  0  0  0  0  0  0
    3.7570   -0.0478    3.4714 C   0  0  0  0  0  0  0  0  0  0  0  0
    2.5874    0.0200    4.2261 N   0  0  0  0  0  0  0  0  0  0  0  0
   -0.6168    0.9381   -0.3837 H   0  0  0  0  0  0  0  0  0  0  0  0
    2.0220   -0.0855   -0.5900 H   0  0  0  0  0  0  0  0  0  0  0  0
    1.8051   -2.2338    0.7341 H   0  0  0  0  0  0  0  0  0  0  0  0
    0.3069   -1.6415    1.4492 H   0  0  0  0  0  0  0  0  0  0  0  0
    4.0583   -0.6618    1.4974 H   0  0  0  0  0  0  0  0  0  0  0  0
    0.4723   -0.4877    3.7270 H   0  0  0  0  0  0  0  0  0  0  0  0
    4.7481    0.2834    3.7842 H   0  0  0  0  0  0  0  0  0  0  0  0
    2.5043    0.4139    5.1666 H   0  0  0  0  0  0  0  0  0  0  0  0
   -1.0572   -1.1262   -1.2862 N   0  0  0  0  0  0  0  0  0  0  0  0
   -1.6403   -0.9016   -2.6121 C   0  0  2  0  0  0  0  0  0  0  0  0
   -2.1550    0.5528   -2.6938 C   0  0  0  0  0  0  0  0  0  0  0  0
   -2.2117    1.2299   -1.6646 O   0  0  0  0  0  0  0  0  0  0  0  0
   -2.7754   -1.9076   -2.8148 C   0  0  0  0  0  0  0  0  0  0  0  0
   -1.4932   -0.5770   -0.5493 H   0  0  0  0  0  0  0  0  0  0  0  0
   -0.8917   -1.0450   -3.3996 H   0  0  0  0  0  0  0  0  0  0  0  0
   -3.5513   -1.7732   -2.0545 H   0  0  0  0  0  0  0  0  0  0  0  0
   -3.2302   -1.7820   -3.8023 H   0  0  0  0  0  0  0  0  0  0  0  0
   -2.3896   -2.9297   -2.7417 H   0  0  0  0  0  0  0  0  0  0  0  0
   -2.5192    1.1130   -3.9018 N   0  0  0  0  0  0  0  0  0  0  0  0
   -2.9684    2.4933   -4.0465 C   0  0  0  0  0  0  0  0  0  0  0  0
   -2.4308    0.5381   -4.7365 H   0  0  0  0  0  0  0  0  0  0  0  0
   -3.8682    2.6692   -3.4476 H   0  0  0  0  0  0  0  0  0  0  0  0
   -2.1861    3.1879   -3.7222 H   0  0  0  0  0  0  0  0  0  0  0  0
   -3.2056    2.7065   -5.0936 H   0  0  0  0  0  0  0  0  0  0  0  0
  1  2  2  0  0  0  0
  1  3  1  0  0  0  0
  1  7  1  0  0  0  0
  3  4  1  0  0  0  0
  3  5  1  0  0  0  0
  3  6  1  0  0  0  0
  7  8  1  0  0  0  0
  7 12  1  0  0  0  0
  8  9  1  0  0  0  0
  8 11  1  0  0  0  0
  8 13  1  0  0  0  0
  9 10  2  0  0  0  0
  9 17  1  0  0  0  0
 11 14  1  0  0  0  0
 11 15  1  0  0  0  0
 11 16  1  0  0  0  0
 17 18  1  0  0  0  0
 17 27  1  0  0  0  0
 18 19  1  0  0  0  0
 18 21  1  0  0  0  0
 18 28  1  0  0  0  0
 19 20  2  0  0  0  0
 19 35  1  0  0  0  0
 21 22  1  0  0  0  0
 21 29  1  0  0  0  0
 21 30  1  0  0  0  0
 22 23  1  0  0  0  0
 22 24  2  0  0  0  0
 23 25  2  0  0  0  0
 23 31  1  0  0  0  0
 24 26  1  0  0  0  0
 24 32  1  0  0  0  0
 25 26  1  0  0  0  0
 25 33  1  0  0  0  0
 26 34  1  0  0  0  0
 35 36  1  0  0  0  0
 35 40  1  0  0  0  0
 36 37  1  0  0  0  0
 36 39  1  0  0  0  0
 36 41  1  0  0  0  0
 37 38  2  0  0  0  0
 37 45  1  0  0  0  0
 39 42  1  0  0  0  0
 39 43  1  0  0  0  0
 39 44  1  0  0  0  0
 45 46  1  0  0  0  0
 45 47  1  0  0  0  0
 46 48  1  0  0  0  0
 46 49  1  0  0  0  0
 46 50  1  0  0  0  0
M  CHG  1  23   1
M  END
$$$$

  -OEChem-05262216443D

 50 50  0     1  0  0  0  0  0999 V2000
   -2.3978    1.0068    1.5211 C   0  0  0  0  0  0  0  0  0  0  0  0
   -1.7524    0.1270    2.0733 O   0  0  0  0  0  0  0  0  0  0  0  0
   -3.7236    0.6791    0.8627 C   0  0  0  0  0  0  0  0  0  0  0  0
   -3.6835    0.9198   -0.2028 H   0  0  0  0  0  0  0  0  0  0  0  0
   -3.9484   -0.3855    0.9736 H   0  0  0  0  0  0  0  0  0  0  0  0
   -4.5258    1.2576    1.3275 H   0  0  0  0  0  0  0  0  0  0  0  0
   -1.8730    2.2833    1.4216 N   0  0  0  0  0  0  0  0  0  0  0  0
   -0.6389    2.7568    2.0888 C   0  0  2  0  0  0  0  0  0  0  0  0
    0.6313    1.9751    1.6691 C   0  0  0  0  0  0  0  0  0  0  0  0
    1.6616    2.0278    2.3293 O   0  0  0  0  0  0  0  0  0  0  0  0
   -0.8428    2.7678    3.6116 C   0  0  0  0  0  0  0  0  0  0  0  0
   -2.4655    2.9748    0.9634 H   0  0  0  0  0  0  0  0  0  0  0  0
   -0.4683    3.7912    1.7728 H   0  0  0  0  0  0  0  0  0  0  0  0
   -0.9298    1.7508    4.0039 H   0  0  0  0  0  0  0  0  0  0  0  0
    0.0054    3.2544    4.1035 H   0  0  0  0  0  0  0  0  0  0  0  0
   -1.7515    3.3201    3.8704 H   0  0  0  0  0  0  0  0  0  0  0  0
    0.6301    1.3359    0.4434 N   0  0  0  0  0  0  0  0  0  0  0  0
    1.4130    0.1413    0.0386 C   0  0  2  0  0  0  0  0  0  0  0  0
    0.8189   -0.4246   -1.2789 C   0  0  0  0  0  0  0  0  0  0  0  0
    1.2603   -1.4511   -1.7747 O   0  0  0  0  0  0  0  0  0  0  0  0
    1.3215   -1.0658    1.0245 C   0  0  0  0  0  0  0  0  0  0  0  0
    1.8808   -0.8456    2.4021 C   0  0  0  0  0  0  0  0  0  0  0  0
    3.2265   -0.7966    2.7616 N   0  3  0  0  0  0  0  0  0  0  0  0
    1.1382   -0.7495    3.5516 C   0  0  0  0  0  0  0  0  0  0  0  0
    3.3397   -0.6008    4.0528 C   0  0  0  0  0  0  0  0  0  0  0  0
    2.0515   -0.5830    4.5841 N   0  0  0  0  0  0  0  0  0  0  0  0
   -0.3020    1.3819    0.0412 H   0  0  0  0  0  0  0  0  0  0  0  0
    2.4570    0.4241   -0.1278 H   0  0  0  0  0  0  0  0  0  0  0  0
    1.8479   -1.9277    0.5992 H   0  0  0  0  0  0  0  0  0  0  0  0
    0.2689   -1.3547    1.1175 H   0  0  0  0  0  0  0  0  0  0  0  0
    3.9833   -0.7918    2.0743 H   0  0  0  0  0  0  0  0  0  0  0  0
    0.0489   -0.7685    3.6141 H   0  0  0  0  0  0  0  0  0  0  0  0
    4.2693   -0.4580    4.6053 H   0  0  0  0  0  0  0  0  0  0  0  0
    1.8112   -0.4191    5.5650 H   0  0  0  0  0  0  0  0  0  0  0  0
   -0.2696    0.1912   -1.8682 N   0  0  0  0  0  0  0  0  0  0  0  0
   -1.0649   -0.2892   -3.0027 C   0  0  2  0  0  0  0  0  0  0  0  0
   -2.0948    0.7994   -3.3765 C   0  0  0  0  0  0  0  0  0  0  0  0
   -2.3578    1.6811   -2.5592 O   0  0  0  0  0  0  0  0  0  0  0  0
   -1.8058   -1.5803   -2.6262 C   0  0  0  0  0  0  0  0  0  0  0  0
   -0.5016    1.1292   -1.5496 H   0  0  0  0  0  0  0  0  0  0  0  0
   -0.4119   -0.4720   -3.8628 H   0  0  0  0  0  0  0  0  0  0  0  0
   -2.4320   -1.4185   -1.7429 H   0  0  0  0  0  0  0  0  0  0  0  0
   -2.4462   -1.9089   -3.4506 H   0  0  0  0  0  0  0  0  0  0  0  0
   -1.0981   -2.3852   -2.4073 H   0  0  0  0  0  0  0  0  0  0  0  0
   -2.7224    0.7980   -4.6071 N   0  0  0  0  0  0  0  0  0  0  0  0
   -3.6917    1.8096   -5.0144 C   0  0  0  0  0  0  0  0  0  0  0  0
   -2.4762    0.0632   -5.2653 H   0  0  0  0  0  0  0  0  0  0  0  0
   -4.5719    1.7821   -4.3630 H   0  0  0  0  0  0  0  0  0  0  0  0
   -3.2480    2.8098   -4.9652 H   0  0  0  0  0  0  0  0  0  0  0  0
   -4.0181    1.6291   -6.0436 H   0  0  0  0  0  0  0  0  0  0  0  0
  1  2  2  0  0  0  0
  1  3  1  0  0  0  0
  1  7  1  0  0  0  0
  3  4  1  0  0  0  0
  3  5  1  0  0  0  0
  3  6  1  0  0  0  0
  7  8  1  0  0  0  0
  7 12  1  0  0  0  0
  8  9  1  0  0  0  0
  8 11  1  0  0  0  0
  8 13  1  0  0  0  0
  9 10  2  0  0  0  0
  9 17  1  0  0  0  0
 11 14  1  0  0  0  0
 11 15  1  0  0  0  0
 11 16  1  0  0  0  0
 17 18  1  0  0  0  0
 17 27  1  0  0  0  0
 18 19  1  0  0  0  0
 18 21  1  0  0  0  0
 18 28  1  0  0  0  0
 19 20  2  0  0  0  0
 19 35  1  0  0  0  0
 21 22  1  0  0  0  0
 21 29  1  0  0  0  0
 21 30  1  0  0  0  0
 22 23  1  0  0  0  0
 22 24  2  0  0  0  0
 23 25  2  0  0  0  0
 23 31  1  0  0  0  0
 24 26  1  0  0  0  0
 24 32  1  0  0  0  0
 25 26  1  0  0  0  0
 25 33  1  0  0  0  0
 26 34  1  0  0  0  0
 35 36  1  0  0  0  0
 35 40  1  0  0  0  0
 36 37  1  0  0  0  0
 36 39  1  0  0  0  0
 36 41  1  0  0  0  0
 37 38  2  0  0  0  0
 37 45  1  0  0  0  0
 39 42  1  0  0  0  0
 39 43  1  0  0  0  0
 39 44  1  0  0  0  0
 45 46  1  0  0  0  0
 45 47  1  0  0  0  0
 46 48  1  0  0  0  0
 46 49  1  0  0  0  0
 46 50  1  0  0  0  0
M  CHG  1  23   1
M  END
$$$$

  -OEChem-05262216443D

 50 50  0     1  0  0  0  0  0999 V2000
   -2.4640    0.9320    2.0549 C   0  0  0  0  0  0  0  0  0  0  0  0
   -1.7072    0.1049    2.5418 O   0  0  0  0  0  0  0  0  0  0  0  0
   -3.8937    0.5515    1.7237 C   0  0  0  0  0  0  0  0  0  0  0  0
   -4.0776    0.6775    0.6538 H   0  0  0  0  0  0  0  0  0  0  0  0
   -4.0785   -0.4929    1.9910 H   0  0  0  0  0  0  0  0  0  0  0  0
   -4.5884    1.1836    2.2826 H   0  0  0  0  0  0  0  0  0  0  0  0
   -2.0017    2.2017    1.7585 N   0  0  0  0  0  0  0  0  0  0  0  0
   -0.7011    2.7511    2.1964 C   0  0  2  0  0  0  0  0  0  0  0  0
    0.5238    1.9540    1.6813 C   0  0  0  0  0  0  0  0  0  0  0  0
    1.6136    2.0472    2.2331 O   0  0  0  0  0  0  0  0  0  0  0  0
   -0.7013    2.9057    3.7257 C   0  0  0  0  0  0  0  0  0  0  0  0
   -2.6995    2.8581    1.4123 H   0  0  0  0  0  0  0  0  0  0  0  0
   -0.6036    3.7528    1.7651 H   0  0  0  0  0  0  0  0  0  0  0  0
   -0.7045    1.9292    4.2184 H   0  0  0  0  0  0  0  0  0  0  0  0
    0.1891    3.4528    4.0525 H   0  0  0  0  0  0  0  0  0  0  0  0
   -1.5840    3.4644    4.0518 H   0  0  0  0  0  0  0  0  0  0  0  0
    0.4318    1.2814    0.4753 N   0  0  0  0  0  0  0  0  0  0  0  0
    1.2021    0.0836    0.0542 C   0  0  2  0  0  0  0  0  0  0  0  0
    0.5176   -0.5311   -1.1974 C   0  0  0  0  0  0  0  0  0  0  0  0
    0.7935   -1.6584   -1.5841 O   0  0  0  0  0  0  0  0  0  0  0  0
    1.2444   -1.0825    1.0958 C   0  0  0  0  0  0  0  0  0  0  0  0
    1.9313   -0.7968    2.4037 C   0  0  0  0  0  0  0  0  0  0  0  0
    3.3054   -0.7050    2.6215 N   0  3  0  0  0  0  0  0  0  0  0  0
    1.3104   -0.6839    3.6220 C   0  0  0  0  0  0  0  0  0  0  0  0
    3.5461   -0.4632    3.8872 C   0  0  0  0  0  0  0  0  0  0  0  0
    2.3198   -0.4595    4.5483 N   0  0  0  0  0  0  0  0  0  0  0  0
   -0.5235    1.3101    0.1246 H   0  0  0  0  0  0  0  0  0  0  0  0
    2.2197    0.3852   -0.2115 H   0  0  0  0  0  0  0  0  0  0  0  0
    1.7519   -1.9489    0.6571 H   0  0  0  0  0  0  0  0  0  0  0  0
    0.2136   -1.3908    1.3033 H   0  0  0  0  0  0  0  0  0  0  0  0
    3.9873   -0.7067    1.8600 H   0  0  0  0  0  0  0  0  0  0  0  0
    0.2358   -0.7337    3.8023 H   0  0  0  0  0  0  0  0  0  0  0  0
    4.5232   -0.2802    4.3358 H   0  0  0  0  0  0  0  0  0  0  0  0
    2.1770   -0.2701    5.5435 H   0  0  0  0  0  0  0  0  0  0  0  0
   -0.4169    0.1977   -1.9100 N   0  0  0  0  0  0  0  0  0  0  0  0
   -1.0609   -0.2321   -3.1579 C   0  0  2  0  0  0  0  0  0  0  0  0
   -1.6304    0.9932   -3.9033 C   0  0  0  0  0  0  0  0  0  0  0  0
   -1.7451    2.0588   -3.3040 O   0  0  0  0  0  0  0  0  0  0  0  0
   -2.1837   -1.2259   -2.8371 C   0  0  0  0  0  0  0  0  0  0  0  0
   -0.4590    1.1998   -1.7229 H   0  0  0  0  0  0  0  0  0  0  0  0
   -0.3221   -0.7121   -3.8088 H   0  0  0  0  0  0  0  0  0  0  0  0
   -2.9261   -0.7651   -2.1778 H   0  0  0  0  0  0  0  0  0  0  0  0
   -2.6855   -1.5474   -3.7550 H   0  0  0  0  0  0  0  0  0  0  0  0
   -1.7800   -2.1137   -2.3404 H   0  0  0  0  0  0  0  0  0  0  0  0
   -1.9951    0.9122   -5.2338 N   0  0  0  0  0  0  0  0  0  0  0  0
   -2.4977    2.0502   -5.9962 C   0  0  0  0  0  0  0  0  0  0  0  0
   -1.8625    0.0239   -5.7099 H   0  0  0  0  0  0  0  0  0  0  0  0
   -3.4134    2.4436   -5.5419 H   0  0  0  0  0  0  0  0  0  0  0  0
   -1.7501    2.8499   -6.0300 H   0  0  0  0  0  0  0  0  0  0  0  0
   -2.7257    1.7480   -7.0231 H   0  0  0  0  0  0  0  0  0  0  0  0
  1  2  2  0  0  0  0
  1  3  1  0  0  0  0
  1  7  1  0  0  0  0
  3  4  1  0  0  0  0
  3  5  1  0  0  0  0
  3  6  1  0  0  0  0
  7  8  1  0  0  0  0
  7 12  1  0  0  0  0
  8  9  1  0  0  0  0
  8 11  1  0  0  0  0
  8 13  1  0  0  0  0
  9 10  2  0  0  0  0
  9 17  1  0  0  0  0
 11 14  1  0  0  0  0
 11 15  1  0  0  0  0
 11 16  1  0  0  0  0
 17 18  1  0  0  0  0
 17 27  1  0  0  0  0
 18 19  1  0  0  0  0
 18 21  1  0  0  0  0
 18 28  1  0  0  0  0
 19 20  2  0  0  0  0
 19 35  1  0  0  0  0
 21 22  1  0  0  0  0
 21 29  1  0  0  0  0
 21 30  1  0  0  0  0
 22 23  1  0  0  0  0
 22 24  2  0  0  0  0
 23 25  2  0  0  0  0
 23 31  1  0  0  0  0
 24 26  1  0  0  0  0
 24 32  1  0  0  0  0
 25 26  1  0  0  0  0
 25 33  1  0  0  0  0
 26 34  1  0  0  0  0
 35 36  1  0  0  0  0
 35 40  1  0  0  0  0
 36 37  1  0  0  0  0
 36 39  1  0  0  0  0
 36 41  1  0  0  0  0
 37 38  2  0  0  0  0
 37 45  1  0  0  0  0
 39 42  1  0  0  0  0
 39 43  1  0  0  0  0
 39 44  1  0  0  0  0
 45 46  1  0  0  0  0
 45 47  1  0  0  0  0
 46 48  1  0  0  0  0
 46 49  1  0  0  0  0
 46 50  1  0  0  0  0
M  CHG  1  23   1
M  END
$$$$

  -OEChem-05262216443D

 50 50  0     1  0  0  0  0  0999 V2000
   -2.5051    0.4778    2.7201 C   0  0  0  0  0  0  0  0  0  0  0  0
   -1.5366   -0.2132    2.9969 O   0  0  0  0  0  0  0  0  0  0  0  0
   -3.8911   -0.1367    2.6904 C   0  0  0  0  0  0  0  0  0  0  0  0
   -4.3310   -0.0272    1.6960 H   0  0  0  0  0  0  0  0  0  0  0  0
   -3.8376   -1.2017    2.9345 H   0  0  0  0  0  0  0  0  0  0  0  0
   -4.5357    0.3569    3.4219 H   0  0  0  0  0  0  0  0  0  0  0  0
   -2.3336    1.8125    2.3980 N   0  0  0  0  0  0  0  0  0  0  0  0
   -1.0787    2.5701    2.5923 C   0  0  2  0  0  0  0  0  0  0  0  0
    0.1350    1.9977    1.8159 C   0  0  0  0  0  0  0  0  0  0  0  0
    1.2806    2.2319    2.1807 O   0  0  0  0  0  0  0  0  0  0  0  0
   -0.7989    2.7126    4.0973 C   0  0  0  0  0  0  0  0  0  0  0  0
   -3.1905    2.3478    2.2733 H   0  0  0  0  0  0  0  0  0  0  0  0
   -1.2346    3.5768    2.1912 H   0  0  0  0  0  0  0  0  0  0  0  0
   -0.5471    1.7454    4.5421 H   0  0  0  0  0  0  0  0  0  0  0  0
    0.0397    3.3964    4.2646 H   0  0  0  0  0  0  0  0  0  0  0  0
   -1.6758    3.1162    4.6124 H   0  0  0  0  0  0  0  0  0  0  0  0
   -0.0665    1.3858    0.5907 N   0  0  0  0  0  0  0  0  0  0  0  0
    0.7714    0.3297   -0.0307 C   0  0  2  0  0  0  0  0  0  0  0  0
   -0.0364   -0.2946   -1.2018 C   0  0  0  0  0  0  0  0  0  0  0  0
    0.1121   -1.4617   -1.5392 O   0  0  0  0  0  0  0  0  0  0  0  0
    1.1811   -0.8581    0.9012 C   0  0  0  0  0  0  0  0  0  0  0  0
    2.0607   -0.5223    2.0754 C   0  0  0  0  0  0  0  0  0  0  0  0
    3.4232   -0.2293    2.0320 N   0  3  0  0  0  0  0  0  0  0  0  0
    1.6896   -0.5640    3.3957 C   0  0  0  0  0  0  0  0  0  0  0  0
    3.8780   -0.0131    3.2421 C   0  0  0  0  0  0  0  0  0  0  0  0
    2.8227   -0.2298    4.1246 N   0  0  0  0  0  0  0  0  0  0  0  0
   -1.0595    1.3072    0.3791 H   0  0  0  0  0  0  0  0  0  0  0  0
    1.6727    0.7936   -0.4437 H   0  0  0  0  0  0  0  0  0  0  0  0
    1.7133   -1.6158    0.3154 H   0  0  0  0  0  0  0  0  0  0  0  0
    0.2645   -1.3300    1.2730 H   0  0  0  0  0  0  0  0  0  0  0  0
    3.9313   -0.0917    1.1558 H   0  0  0  0  0  0  0  0  0  0  0  0
    0.6936   -0.7912    3.7769 H   0  0  0  0  0  0  0  0  0  0  0  0
    4.8900    0.2958    3.5064 H   0  0  0  0  0  0  0  0  0  0  0  0
    2.8595   -0.1164    5.1405 H   0  0  0  0  0  0  0  0  0  0  0  0
   -0.9501    0.4886   -1.8860 N   0  0  0  0  0  0  0  0  0  0  0  0
   -1.5073    0.1084   -3.1950 C   0  0  2  0  0  0  0  0  0  0  0  0
   -0.8100    0.8841   -4.3319 C   0  0  0  0  0  0  0  0  0  0  0  0
   -0.2311    1.9341   -4.0753 O   0  0  0  0  0  0  0  0  0  0  0  0
   -3.0059    0.4163   -3.1742 C   0  0  0  0  0  0  0  0  0  0  0  0
   -0.7916    1.4899   -1.7717 H   0  0  0  0  0  0  0  0  0  0  0  0
   -1.3756   -0.9615   -3.3879 H   0  0  0  0  0  0  0  0  0  0  0  0
   -3.1761    1.4855   -3.0113 H   0  0  0  0  0  0  0  0  0  0  0  0
   -3.4681    0.1330   -4.1251 H   0  0  0  0  0  0  0  0  0  0  0  0
   -3.4969   -0.1434   -2.3722 H   0  0  0  0  0  0  0  0  0  0  0  0
   -0.8356    0.4165   -5.6321 N   0  0  0  0  0  0  0  0  0  0  0  0
   -0.1635    1.0918   -6.7369 C   0  0  0  0  0  0  0  0  0  0  0  0
   -1.2943   -0.4730   -5.8081 H   0  0  0  0  0  0  0  0  0  0  0  0
   -0.5607    2.1040   -6.8679 H   0  0  0  0  0  0  0  0  0  0  0  0
    0.9133    1.1581   -6.5483 H   0  0  0  0  0  0  0  0  0  0  0  0
   -0.3168    0.5386   -7.6688 H   0  0  0  0  0  0  0  0  0  0  0  0
  1  2  2  0  0  0  0
  1  3  1  0  0  0  0
  1  7  1  0  0  0  0
  3  4  1  0  0  0  0
  3  5  1  0  0  0  0
  3  6  1  0  0  0  0
  7  8  1  0  0  0  0
  7 12  1  0  0  0  0
  8  9  1  0  0  0  0
  8 11  1  0  0  0  0
  8 13  1  0  0  0  0
  9 10  2  0  0  0  0
  9 17  1  0  0  0  0
 11 14  1  0  0  0  0
 11 15  1  0  0  0  0
 11 16  1  0  0  0  0
 17 18  1  0  0  0  0
 17 27  1  0  0  0  0
 18 19  1  0  0  0  0
 18 21  1  0  0  0  0
 18 28  1  0  0  0  0
 19 20  2  0  0  0  0
 19 35  1  0  0  0  0
 21 22  1  0  0  0  0
 21 29  1  0  0  0  0
 21 30  1  0  0  0  0
 22 23  1  0  0  0  0
 22 24  2  0  0  0  0
 23 25  2  0  0  0  0
 23 31  1  0  0  0  0
 24 26  1  0  0  0  0
 24 32  1  0  0  0  0
 25 26  1  0  0  0  0
 25 33  1  0  0  0  0
 26 34  1  0  0  0  0
 35 36  1  0  0  0  0
 35 40  1  0  0  0  0
 36 37  1  0  0  0  0
 36 39  1  0  0  0  0
 36 41  1  0  0  0  0
 37 38  2  0  0  0  0
 37 45  1  0  0  0  0
 39 42  1  0  0  0  0
 39 43  1  0  0  0  0
 39 44  1  0  0  0  0
 45 46  1  0  0  0  0
 45 47  1  0  0  0  0
 46 48  1  0  0  0  0
 46 49  1  0  0  0  0
 46 50  1  0  0  0  0
M  CHG  1  23   1
M  END
$$$$

  -OEChem-05262216443D

 50 50  0     1  0  0  0  0  0999 V2000
   -2.4879    0.3980    2.8981 C   0  0  0  0  0  0  0  0  0  0  0  0
   -1.4824   -0.2639    3.1059 O   0  0  0  0  0  0  0  0  0  0  0  0
   -3.8518   -0.2640    2.9313 C   0  0  0  0  0  0  0  0  0  0  0  0
   -4.3630   -0.1208    1.9762 H   0  0  0  0  0  0  0  0  0  0  0  0
   -3.7461   -1.3372    3.1135 H   0  0  0  0  0  0  0  0  0  0  0  0
   -4.4593    0.1686    3.7302 H   0  0  0  0  0  0  0  0  0  0  0  0
   -2.3810    1.7450    2.5992 N   0  0  0  0  0  0  0  0  0  0  0  0
   -1.1427    2.5406    2.7389 C   0  0  2  0  0  0  0  0  0  0  0  0
    0.0411    2.0228    1.8824 C   0  0  0  0  0  0  0  0  0  0  0  0
    1.1988    2.2747    2.1932 O   0  0  0  0  0  0  0  0  0  0  0  0
   -0.7836    2.6609    4.2291 C   0  0  0  0  0  0  0  0  0  0  0  0
   -3.2616    2.2517    2.5337 H   0  0  0  0  0  0  0  0  0  0  0  0
   -1.3529    3.5492    2.3686 H   0  0  0  0  0  0  0  0  0  0  0  0
   -0.4803    1.6926    4.6377 H   0  0  0  0  0  0  0  0  0  0  0  0
    0.0433    3.3650    4.3654 H   0  0  0  0  0  0  0  0  0  0  0  0
   -1.6419    3.0275    4.8005 H   0  0  0  0  0  0  0  0  0  0  0  0
   -0.2101    1.4519    0.6466 N   0  0  0  0  0  0  0  0  0  0  0  0
    0.6173    0.4392   -0.0538 C   0  0  2  0  0  0  0  0  0  0  0  0
   -0.2421   -0.1538   -1.2019 C   0  0  0  0  0  0  0  0  0  0  0  0
   -0.2798   -1.3531   -1.4463 O   0  0  0  0  0  0  0  0  0  0  0  0
    1.1151   -0.7679    0.8059 C   0  0  0  0  0  0  0  0  0  0  0  0
    2.0555   -0.4476    1.9366 C   0  0  0  0  0  0  0  0  0  0  0  0
    3.4039   -0.1128    1.8206 N   0  3  0  0  0  0  0  0  0  0  0  0
    1.7690   -0.5494    3.2747 C   0  0  0  0  0  0  0  0  0  0  0  0
    3.9265    0.0734    3.0081 C   0  0  0  0  0  0  0  0  0  0  0  0
    2.9353   -0.2078    3.9452 N   0  0  0  0  0  0  0  0  0  0  0  0
   -1.2103    1.3636    0.4762 H   0  0  0  0  0  0  0  0  0  0  0  0
    1.4823    0.9405   -0.4996 H   0  0  0  0  0  0  0  0  0  0  0  0
    1.6256   -1.4882    0.1566 H   0  0  0  0  0  0  0  0  0  0  0  0
    0.2360   -1.2775    1.2177 H   0  0  0  0  0  0  0  0  0  0  0  0
    3.8509    0.0761    0.9209 H   0  0  0  0  0  0  0  0  0  0  0  0
    0.8058   -0.8219    3.7069 H   0  0  0  0  0  0  0  0  0  0  0  0
    4.9431    0.4053    3.2216 H   0  0  0  0  0  0  0  0  0  0  0  0
    3.0317   -0.1304    4.9606 H   0  0  0  0  0  0  0  0  0  0  0  0
   -0.9663    0.7156   -1.9975 N   0  0  0  0  0  0  0  0  0  0  0  0
   -1.4027    0.3436   -3.3533 C   0  0  2  0  0  0  0  0  0  0  0  0
   -0.3277    0.7080   -4.4007 C   0  0  0  0  0  0  0  0  0  0  0  0
    0.5374    1.5304   -4.1187 O   0  0  0  0  0  0  0  0  0  0  0  0
   -2.7100    1.0844   -3.6437 C   0  0  0  0  0  0  0  0  0  0  0  0
   -0.6841    1.6892   -1.8915 H   0  0  0  0  0  0  0  0  0  0  0  0
   -1.5932   -0.7330   -3.4209 H   0  0  0  0  0  0  0  0  0  0  0  0
   -2.5539    2.1677   -3.6079 H   0  0  0  0  0  0  0  0  0  0  0  0
   -3.0867    0.8219   -4.6373 H   0  0  0  0  0  0  0  0  0  0  0  0
   -3.4710    0.8156   -2.9046 H   0  0  0  0  0  0  0  0  0  0  0  0
   -0.3346    0.1315   -5.6567 N   0  0  0  0  0  0  0  0  0  0  0  0
    0.6585    0.4369   -6.6810 C   0  0  0  0  0  0  0  0  0  0  0  0
   -1.0369   -0.5768   -5.8505 H   0  0  0  0  0  0  0  0  0  0  0  0
    0.6619    1.5091   -6.9053 H   0  0  0  0  0  0  0  0  0  0  0  0
    1.6592    0.1449   -6.3451 H   0  0  0  0  0  0  0  0  0  0  0  0
    0.4316   -0.1063   -7.6037 H   0  0  0  0  0  0  0  0  0  0  0  0
  1  2  2  0  0  0  0
  1  3  1  0  0  0  0
  1  7  1  0  0  0  0
  3  4  1  0  0  0  0
  3  5  1  0  0  0  0
  3  6  1  0  0  0  0
  7  8  1  0  0  0  0
  7 12  1  0  0  0  0
  8  9  1  0  0  0  0
  8 11  1  0  0  0  0
  8 13  1  0  0  0  0
  9 10  2  0  0  0  0
  9 17  1  0  0  0  0
 11 14  1  0  0  0  0
 11 15  1  0  0  0  0
 11 16  1  0  0  0  0
 17 18  1  0  0  0  0
 17 27  1  0  0  0  0
 18 19  1  0  0  0  0
 18 21  1  0  0  0  0
 18 28  1  0  0  0  0
 19 20  2  0  0  0  0
 19 35  1  0  0  0  0
 21 22  1  0  0  0  0
 21 29  1  0  0  0  0
 21 30  1  0  0  0  0
 22 23  1  0  0  0  0
 22 24  2  0  0  0  0
 23 25  2  0  0  0  0
 23 31  1  0  0  0  0
 24 26  1  0  0  0  0
 24 32  1  0  0  0  0
 25 26  1  0  0  0  0
 25 33  1  0  0  0  0
 26 34  1  0  0  0  0
 35 36  1  0  0  0  0
 35 40  1  0  0  0  0
 36 37  1  0  0  0  0
 36 39  1  0  0  0  0
 36 41  1  0  0  0  0
 37 38  2  0  0  0  0
 37 45  1  0  0  0  0
 39 42  1  0  0  0  0
 39 43  1  0  0  0  0
 39 44  1  0  0  0  0
 45 46  1  0  0  0  0
 45 47  1  0  0  0  0
 46 48  1  0  0  0  0
 46 49  1  0  0  0  0
 46 50  1  0  0  0  0
M  CHG  1  23   1
M  END
$$$$

  -OEChem-05262216443D

 50 50  0     1  0  0  0  0  0999 V2000
   -2.4764    0.3404    2.9370 C   0  0  0  0  0  0  0  0  0  0  0  0
   -1.4571   -0.3090    3.1132 O   0  0  0  0  0  0  0  0  0  0  0  0
   -3.8263   -0.3512    2.9430 C   0  0  0  0  0  0  0  0  0  0  0  0
   -4.3525   -0.1574    2.0051 H   0  0  0  0  0  0  0  0  0  0  0  0
   -3.6972   -1.4319    3.0539 H   0  0  0  0  0  0  0  0  0  0  0  0
   -4.4324    0.0160    3.7751 H   0  0  0  0  0  0  0  0  0  0  0  0
   -2.3982    1.7027    2.7048 N   0  0  0  0  0  0  0  0  0  0  0  0
   -1.1732    2.5150    2.8651 C   0  0  2  0  0  0  0  0  0  0  0  0
    0.0025    2.0671    1.9595 C   0  0  0  0  0  0  0  0  0  0  0  0
    1.1624    2.3198    2.2616 O   0  0  0  0  0  0  0  0  0  0  0  0
   -0.7847    2.5639    4.3516 C   0  0  0  0  0  0  0  0  0  0  0  0
   -3.2887    2.1940    2.6625 H   0  0  0  0  0  0  0  0  0  0  0  0
   -1.4103    3.5376    2.5550 H   0  0  0  0  0  0  0  0  0  0  0  0
   -0.4505    1.5829    4.7018 H   0  0  0  0  0  0  0  0  0  0  0  0
    0.0291    3.2792    4.5083 H   0  0  0  0  0  0  0  0  0  0  0  0
   -1.6386    2.8793    4.9590 H   0  0  0  0  0  0  0  0  0  0  0  0
   -0.2645    1.5532    0.7026 N   0  0  0  0  0  0  0  0  0  0  0  0
    0.5607    0.5869   -0.0593 C   0  0  2  0  0  0  0  0  0  0  0  0
   -0.3166    0.0431   -1.2151 C   0  0  0  0  0  0  0  0  0  0  0  0
   -0.5729   -1.1470   -1.3490 O   0  0  0  0  0  0  0  0  0  0  0  0
    1.0944   -0.6532    0.7275 C   0  0  0  0  0  0  0  0  0  0  0  0
    2.0565   -0.3780    1.8524 C   0  0  0  0  0  0  0  0  0  0  0  0
    3.3982   -0.0193    1.7275 N   0  3  0  0  0  0  0  0  0  0  0  0
    1.7980   -0.5471    3.1893 C   0  0  0  0  0  0  0  0  0  0  0  0
    3.9432    0.1125    2.9124 C   0  0  0  0  0  0  0  0  0  0  0  0
    2.9736   -0.2257    3.8535 N   0  0  0  0  0  0  0  0  0  0  0  0
   -1.2663    1.4634    0.5425 H   0  0  0  0  0  0  0  0  0  0  0  0
    1.4118    1.1193   -0.4958 H   0  0  0  0  0  0  0  0  0  0  0  0
    1.5885   -1.3362    0.0270 H   0  0  0  0  0  0  0  0  0  0  0  0
    0.2322   -1.1903    1.1399 H   0  0  0  0  0  0  0  0  0  0  0  0
    3.8270    0.2143    0.8294 H   0  0  0  0  0  0  0  0  0  0  0  0
    0.8462   -0.8505    3.6260 H   0  0  0  0  0  0  0  0  0  0  0  0
    4.9613    0.4425    3.1219 H   0  0  0  0  0  0  0  0  0  0  0  0
    3.0896   -0.1984    4.8695 H   0  0  0  0  0  0  0  0  0  0  0  0
   -0.8106    0.9439   -2.1400 N   0  0  0  0  0  0  0  0  0  0  0  0
   -1.1811    0.5176   -3.4988 C   0  0  2  0  0  0  0  0  0  0  0  0
    0.0544    0.4642   -4.4255 C   0  0  0  0  0  0  0  0  0  0  0  0
    1.0902    1.0327   -4.0946 O   0  0  0  0  0  0  0  0  0  0  0  0
   -2.2159    1.5091   -4.0363 C   0  0  0  0  0  0  0  0  0  0  0  0
   -0.3926    1.8700   -2.0736 H   0  0  0  0  0  0  0  0  0  0  0  0
   -1.6364   -0.4787   -3.4790 H   0  0  0  0  0  0  0  0  0  0  0  0
   -1.7890    2.5156   -4.0990 H   0  0  0  0  0  0  0  0  0  0  0  0
   -2.5487    1.2116   -5.0357 H   0  0  0  0  0  0  0  0  0  0  0  0
   -3.0896    1.5400   -3.3779 H   0  0  0  0  0  0  0  0  0  0  0  0
    0.0054   -0.2093   -5.6312 N   0  0  0  0  0  0  0  0  0  0  0  0
    1.1389   -0.2967   -6.5451 C   0  0  0  0  0  0  0  0  0  0  0  0
   -0.8506   -0.7049   -5.8634 H   0  0  0  0  0  0  0  0  0  0  0  0
    1.4616    0.7035   -6.8538 H   0  0  0  0  0  0  0  0  0  0  0  0
    1.9813   -0.8054   -6.0645 H   0  0  0  0  0  0  0  0  0  0  0  0
    0.8607   -0.8603   -7.4411 H   0  0  0  0  0  0  0  0  0  0  0  0
  1  2  2  0  0  0  0
  1  3  1  0  0  0  0
  1  7  1  0  0  0  0
  3  4  1  0  0  0  0
  3  5  1  0  0  0  0
  3  6  1  0  0  0  0
  7  8  1  0  0  0  0
  7 12  1  0  0  0  0
  8  9  1  0  0  0  0
  8 11  1  0  0  0  0
  8 13  1  0  0  0  0
  9 10  2  0  0  0  0
  9 17  1  0  0  0  0
 11 14  1  0  0  0  0
 11 15  1  0  0  0  0
 11 16  1  0  0  0  0
 17 18  1  0  0  0  0
 17 27  1  0  0  0  0
 18 19  1  0  0  0  0
 18 21  1  0  0  0  0
 18 28  1  0  0  0  0
 19 20  2  0  0  0  0
 19 35  1  0  0  0  0
 21 22  1  0  0  0  0
 21 29  1  0  0  0  0
 21 30  1  0  0  0  0
 22 23  1  0  0  0  0
 22 24  2  0  0  0  0
 23 25  2  0  0  0  0
 23 31  1  0  0  0  0
 24 26  1  0  0  0  0
 24 32  1  0  0  0  0
 25 26  1  0  0  0  0
 25 33  1  0  0  0  0
 26 34  1  0  0  0  0
 35 36  1  0  0  0  0
 35 40  1  0  0  0  0
 36 37  1  0  0  0  0
 36 39  1  0  0  0  0
 36 41  1  0  0  0  0
 37 38  2  0  0  0  0
 37 45  1  0  0  0  0
 39 42  1  0  0  0  0
 39 43  1  0  0  0  0
 39 44  1  0  0  0  0
 45 46  1  0  0  0  0
 45 47  1  0  0  0  0
 46 48  1  0  0  0  0
 46 49  1  0  0  0  0
 46 50  1  0  0  0  0
M  CHG  1  23   1
M  END
$$$$

  -OEChem-05262216443D

 50 50  0     1  0  0  0  0  0999 V2000
   -2.4590    0.3070    2.9687 C   0  0  0  0  0  0  0  0  0  0  0  0
   -1.4324   -0.3370    3.1212 O   0  0  0  0  0  0  0  0  0  0  0  0
   -3.7997   -0.4003    2.9344 C   0  0  0  0  0  0  0  0  0  0  0  0
   -4.3128   -0.1885    1.9928 H   0  0  0  0  0  0  0  0  0  0  0  0
   -3.6582   -1.4815    3.0195 H   0  0  0  0  0  0  0  0  0  0  0  0
   -4.4231   -0.0622    3.7659 H   0  0  0  0  0  0  0  0  0  0  0  0
   -2.3976    1.6793    2.7993 N   0  0  0  0  0  0  0  0  0  0  0  0
   -1.1784    2.4965    2.9769 C   0  0  2  0  0  0  0  0  0  0  0  0
   -0.0193    2.0995    2.0271 C   0  0  0  0  0  0  0  0  0  0  0  0
    1.1472    2.3334    2.3197 O   0  0  0  0  0  0  0  0  0  0  0  0
   -0.7615    2.4812    4.4567 C   0  0  0  0  0  0  0  0  0  0  0  0
   -3.2933    2.1621    2.7701 H   0  0  0  0  0  0  0  0  0  0  0  0
   -1.4313    3.5300    2.7194 H   0  0  0  0  0  0  0  0  0  0  0  0
   -0.4073    1.4898    4.7535 H   0  0  0  0  0  0  0  0  0  0  0  0
    0.0453    3.2002    4.6315 H   0  0  0  0  0  0  0  0  0  0  0  0
   -1.6076    2.7545    5.0944 H   0  0  0  0  0  0  0  0  0  0  0  0
   -0.3132    1.6544    0.7503 N   0  0  0  0  0  0  0  0  0  0  0  0
    0.4906    0.7271   -0.0770 C   0  0  2  0  0  0  0  0  0  0  0  0
   -0.4027    0.2445   -1.2442 C   0  0  0  0  0  0  0  0  0  0  0  0
   -0.8894   -0.8788   -1.2790 O   0  0  0  0  0  0  0  0  0  0  0  0
    1.0413   -0.5565    0.6204 C   0  0  0  0  0  0  0  0  0  0  0  0
    2.0327   -0.3412    1.7318 C   0  0  0  0  0  0  0  0  0  0  0  0
    3.3694    0.0270    1.5857 N   0  3  0  0  0  0  0  0  0  0  0  0
    1.8133   -0.5787    3.0650 C   0  0  0  0  0  0  0  0  0  0  0  0
    3.9476    0.1039    2.7597 C   0  0  0  0  0  0  0  0  0  0  0  0
    3.0059   -0.2834    3.7103 N   0  0  0  0  0  0  0  0  0  0  0  0
   -1.3183    1.5723    0.6075 H   0  0  0  0  0  0  0  0  0  0  0  0
    1.3367    1.2796   -0.4973 H   0  0  0  0  0  0  0  0  0  0  0  0
    1.5085   -1.1997   -0.1338 H   0  0  0  0  0  0  0  0  0  0  0  0
    0.1915   -1.1143    1.0311 H   0  0  0  0  0  0  0  0  0  0  0  0
    3.7726    0.2996    0.6867 H   0  0  0  0  0  0  0  0  0  0  0  0
    0.8757   -0.9079    3.5135 H   0  0  0  0  0  0  0  0  0  0  0  0
    4.9705    0.4268    2.9565 H   0  0  0  0  0  0  0  0  0  0  0  0
    3.1489   -0.3023    4.7231 H   0  0  0  0  0  0  0  0  0  0  0  0
   -0.6498    1.1184   -2.2854 N   0  0  0  0  0  0  0  0  0  0  0  0
   -0.9372    0.6093   -3.6347 C   0  0  2  0  0  0  0  0  0  0  0  0
    0.3585    0.1705   -4.3564 C   0  0  0  0  0  0  0  0  0  0  0  0
    1.4525    0.5003   -3.9065 O   0  0  0  0  0  0  0  0  0  0  0  0
   -1.6422    1.7224   -4.4137 C   0  0  0  0  0  0  0  0  0  0  0  0
   -0.0926    1.9690   -2.2504 H   0  0  0  0  0  0  0  0  0  0  0  0
   -1.6087   -0.2547   -3.5819 H   0  0  0  0  0  0  0  0  0  0  0  0
   -0.9906    2.5969   -4.5111 H   0  0  0  0  0  0  0  0  0  0  0  0
   -1.9113    1.3779   -5.4171 H   0  0  0  0  0  0  0  0  0  0  0  0
   -2.5585    2.0251   -3.8971 H   0  0  0  0  0  0  0  0  0  0  0  0
    0.3023   -0.5909   -5.5085 N   0  0  0  0  0  0  0  0  0  0  0  0
    1.4880   -1.0410   -6.2293 C   0  0  0  0  0  0  0  0  0  0  0  0
   -0.6130   -0.8795   -5.8423 H   0  0  0  0  0  0  0  0  0  0  0  0
    2.0828   -0.1840   -6.5628 H   0  0  0  0  0  0  0  0  0  0  0  0
    2.1103   -1.6733   -5.5870 H   0  0  0  0  0  0  0  0  0  0  0  0
    1.1990   -1.6229   -7.1100 H   0  0  0  0  0  0  0  0  0  0  0  0
  1  2  2  0  0  0  0
  1  3  1  0  0  0  0
  1  7  1  0  0  0  0
  3  4  1  0  0  0  0
  3  5  1  0  0  0  0
  3  6  1  0  0  0  0
  7  8  1  0  0  0  0
  7 12  1  0  0  0  0
  8  9  1  0  0  0  0
  8 11  1  0  0  0  0
  8 13  1  0  0  0  0
  9 10  2  0  0  0  0
  9 17  1  0  0  0  0
 11 14  1  0  0  0  0
 11 15  1  0  0  0  0
 11 16  1  0  0  0  0
 17 18  1  0  0  0  0
 17 27  1  0  0  0  0
 18 19  1  0  0  0  0
 18 21  1  0  0  0  0
 18 28  1  0  0  0  0
 19 20  2  0  0  0  0
 19 35  1  0  0  0  0
 21 22  1  0  0  0  0
 21 29  1  0  0  0  0
 21 30  1  0  0  0  0
 22 23  1  0  0  0  0
 22 24  2  0  0  0  0
 23 25  2  0  0  0  0
 23 31  1  0  0  0  0
 24 26  1  0  0  0  0
 24 32  1  0  0  0  0
 25 26  1  0  0  0  0
 25 33  1  0  0  0  0
 26 34  1  0  0  0  0
 35 36  1  0  0  0  0
 35 40  1  0  0  0  0
 36 37  1  0  0  0  0
 36 39  1  0  0  0  0
 36 41  1  0  0  0  0
 37 38  2  0  0  0  0
 37 45  1  0  0  0  0
 39 42  1  0  0  0  0
 39 43  1  0  0  0  0
 39 44  1  0  0  0  0
 45 46  1  0  0  0  0
 45 47  1  0  0  0  0
 46 48  1  0  0  0  0
 46 49  1  0  0  0  0
 46 50  1  0  0  0  0
M  CHG  1  23   1
M  END
$$$$

  -OEChem-05262216443D

 50 50  0     1  0  0  0  0  0999 V2000
   -2.4594    0.3276    2.9679 C   0  0  0  0  0  0  0  0  0  0  0  0
   -1.4473   -0.3482    3.0735 O   0  0  0  0  0  0  0  0  0  0  0  0
   -3.8168   -0.3446    2.8983 C   0  0  0  0  0  0  0  0  0  0  0  0
   -4.3390   -0.0432    1.9866 H   0  0  0  0  0  0  0  0  0  0  0  0
   -3.6993   -1.4321    2.8901 H   0  0  0  0  0  0  0  0  0  0  0  0
   -4.4190   -0.0629    3.7656 H   0  0  0  0  0  0  0  0  0  0  0  0
   -2.3674    1.7059    2.8837 N   0  0  0  0  0  0  0  0  0  0  0  0
   -1.1246    2.4833    3.0756 C   0  0  2  0  0  0  0  0  0  0  0  0
   -0.0060    2.1216    2.0657 C   0  0  0  0  0  0  0  0  0  0  0  0
    1.1749    2.3138    2.3305 O   0  0  0  0  0  0  0  0  0  0  0  0
   -0.6614    2.3637    4.5369 C   0  0  0  0  0  0  0  0  0  0  0  0
   -3.2512    2.2109    2.8868 H   0  0  0  0  0  0  0  0  0  0  0  0
   -1.3606    3.5365    2.8918 H   0  0  0  0  0  0  0  0  0  0  0  0
   -0.3216    1.3479    4.7591 H   0  0  0  0  0  0  0  0  0  0  0  0
    0.1681    3.0516    4.7298 H   0  0  0  0  0  0  0  0  0  0  0  0
   -1.4801    2.6144    5.2183 H   0  0  0  0  0  0  0  0  0  0  0  0
   -0.3507    1.7536    0.7776 N   0  0  0  0  0  0  0  0  0  0  0  0
    0.4062    0.8529   -0.1165 C   0  0  2  0  0  0  0  0  0  0  0  0
   -0.5161    0.4436   -1.2845 C   0  0  0  0  0  0  0  0  0  0  0  0
   -1.2169   -0.5596   -1.2379 O   0  0  0  0  0  0  0  0  0  0  0  0
    0.9421   -0.4810    0.4877 C   0  0  0  0  0  0  0  0  0  0  0  0
    1.9686   -0.3520    1.5795 C   0  0  0  0  0  0  0  0  0  0  0  0
    3.3077   -0.0060    1.4076 N   0  3  0  0  0  0  0  0  0  0  0  0
    1.7873   -0.6568    2.9045 C   0  0  0  0  0  0  0  0  0  0  0  0
    3.9275   -0.0099    2.5622 C   0  0  0  0  0  0  0  0  0  0  0  0
    3.0087   -0.4269    3.5223 N   0  0  0  0  0  0  0  0  0  0  0  0
   -1.3613    1.6904    0.6655 H   0  0  0  0  0  0  0  0  0  0  0  0
    1.2567    1.4075   -0.5247 H   0  0  0  0  0  0  0  0  0  0  0  0
    1.3703   -1.0902   -0.3170 H   0  0  0  0  0  0  0  0  0  0  0  0
    0.0914   -1.0412    0.8933 H   0  0  0  0  0  0  0  0  0  0  0  0
    3.6873    0.3040    0.5104 H   0  0  0  0  0  0  0  0  0  0  0  0
    0.8572   -0.9877    3.3669 H   0  0  0  0  0  0  0  0  0  0  0  0
    4.9649    0.2748    2.7396 H   0  0  0  0  0  0  0  0  0  0  0  0
    3.1872   -0.5084    4.5262 H   0  0  0  0  0  0  0  0  0  0  0  0
   -0.5233    1.2256   -2.4228 N   0  0  0  0  0  0  0  0  0  0  0  0
   -0.7041    0.5898   -3.7357 C   0  0  2  0  0  0  0  0  0  0  0  0
    0.5860   -0.1383   -4.1864 C   0  0  0  0  0  0  0  0  0  0  0  0
    1.6321    0.0183   -3.5601 O   0  0  0  0  0  0  0  0  0  0  0  0
   -1.0914    1.6847   -4.7330 C   0  0  0  0  0  0  0  0  0  0  0  0
    0.1526    1.9854   -2.4015 H   0  0  0  0  0  0  0  0  0  0  0  0
   -1.5159   -0.1449   -3.6937 H   0  0  0  0  0  0  0  0  0  0  0  0
   -0.2904    2.4259   -4.8220 H   0  0  0  0  0  0  0  0  0  0  0  0
   -1.2780    1.2559   -5.7224 H   0  0  0  0  0  0  0  0  0  0  0  0
   -2.0024    2.1931   -4.4016 H   0  0  0  0  0  0  0  0  0  0  0  0
    0.5799   -0.9710   -5.2894 N   0  0  0  0  0  0  0  0  0  0  0  0
    1.7624   -1.6825   -5.7626 C   0  0  0  0  0  0  0  0  0  0  0  0
   -0.3020   -1.1085   -5.7755 H   0  0  0  0  0  0  0  0  0  0  0  0
    2.5605   -0.9756   -6.0142 H   0  0  0  0  0  0  0  0  0  0  0  0
    2.1303   -2.3701   -4.9935 H   0  0  0  0  0  0  0  0  0  0  0  0
    1.5225   -2.2634   -6.6587 H   0  0  0  0  0  0  0  0  0  0  0  0
  1  2  2  0  0  0  0
  1  3  1  0  0  0  0
  1  7  1  0  0  0  0
  3  4  1  0  0  0  0
  3  5  1  0  0  0  0
  3  6  1  0  0  0  0
  7  8  1  0  0  0  0
  7 12  1  0  0  0  0
  8  9  1  0  0  0  0
  8 11  1  0  0  0  0
  8 13  1  0  0  0  0
  9 10  2  0  0  0  0
  9 17  1  0  0  0  0
 11 14  1  0  0  0  0
 11 15  1  0  0  0  0
 11 16  1  0  0  0  0
 17 18  1  0  0  0  0
 17 27  1  0  0  0  0
 18 19  1  0  0  0  0
 18 21  1  0  0  0  0
 18 28  1  0  0  0  0
 19 20  2  0  0  0  0
 19 35  1  0  0  0  0
 21 22  1  0  0  0  0
 21 29  1  0  0  0  0
 21 30  1  0  0  0  0
 22 23  1  0  0  0  0
 22 24  2  0  0  0  0
 23 25  2  0  0  0  0
 23 31  1  0  0  0  0
 24 26  1  0  0  0  0
 24 32  1  0  0  0  0
 25 26  1  0  0  0  0
 25 33  1  0  0  0  0
 26 34  1  0  0  0  0
 35 36  1  0  0  0  0
 35 40  1  0  0  0  0
 36 37  1  0  0  0  0
 36 39  1  0  0  0  0
 36 41  1  0  0  0  0
 37 38  2  0  0  0  0
 37 45  1  0  0  0  0
 39 42  1  0  0  0  0
 39 43  1  0  0  0  0
 39 44  1  0  0  0  0
 45 46  1  0  0  0  0
 45 47  1  0  0  0  0
 46 48  1  0  0  0  0
 46 49  1  0  0  0  0
 46 50  1  0  0  0  0
M  CHG  1  23   1
M  END
$$$$

  -OEChem-05262216443D

 50 50  0     1  0  0  0  0  0999 V2000
   -2.4586    0.3173    2.8827 C   0  0  0  0  0  0  0  0  0  0  0  0
   -1.4587   -0.3736    3.0044 O   0  0  0  0  0  0  0  0  0  0  0  0
   -3.8161   -0.3383    2.7214 C   0  0  0  0  0  0  0  0  0  0  0  0
   -4.2446   -0.0768    1.7505 H   0  0  0  0  0  0  0  0  0  0  0  0
   -3.7195   -1.4263    2.7796 H   0  0  0  0  0  0  0  0  0  0  0  0
   -4.4912   -0.0040    3.5129 H   0  0  0  0  0  0  0  0  0  0  0  0
   -2.3510    1.6968    2.8591 N   0  0  0  0  0  0  0  0  0  0  0  0
   -1.1074    2.4551    3.1123 C   0  0  2  0  0  0  0  0  0  0  0  0
    0.0328    2.1168    2.1184 C   0  0  0  0  0  0  0  0  0  0  0  0
    1.2108    2.2567    2.4267 O   0  0  0  0  0  0  0  0  0  0  0  0
   -0.6852    2.2829    4.5803 C   0  0  0  0  0  0  0  0  0  0  0  0
   -3.2284    2.2118    2.8315 H   0  0  0  0  0  0  0  0  0  0  0  0
   -1.3291    3.5160    2.9584 H   0  0  0  0  0  0  0  0  0  0  0  0
   -0.3609    1.2567    4.7763 H   0  0  0  0  0  0  0  0  0  0  0  0
    0.1446    2.9562    4.8185 H   0  0  0  0  0  0  0  0  0  0  0  0
   -1.5194    2.5195    5.2478 H   0  0  0  0  0  0  0  0  0  0  0  0
   -0.2875    1.8294    0.8040 N   0  0  0  0  0  0  0  0  0  0  0  0
    0.4790    0.9818   -0.1307 C   0  0  2  0  0  0  0  0  0  0  0  0
   -0.4243    0.6524   -1.3353 C   0  0  0  0  0  0  0  0  0  0  0  0
   -1.3284   -0.1686   -1.2417 O   0  0  0  0  0  0  0  0  0  0  0  0
    0.9731   -0.4034    0.3852 C   0  0  0  0  0  0  0  0  0  0  0  0
    1.9693   -0.3753    1.5121 C   0  0  0  0  0  0  0  0  0  0  0  0
    3.3188   -0.0432    1.4048 N   0  3  0  0  0  0  0  0  0  0  0  0
    1.7430   -0.7691    2.8066 C   0  0  0  0  0  0  0  0  0  0  0  0
    3.9024   -0.1388    2.5745 C   0  0  0  0  0  0  0  0  0  0  0  0
    2.9476   -0.6041    3.4755 N   0  0  0  0  0  0  0  0  0  0  0  0
   -1.2961    1.7852    0.6639 H   0  0  0  0  0  0  0  0  0  0  0  0
    1.3460    1.5505   -0.4806 H   0  0  0  0  0  0  0  0  0  0  0  0
    1.4130   -0.9599   -0.4510 H   0  0  0  0  0  0  0  0  0  0  0  0
    0.1015   -0.9756    0.7249 H   0  0  0  0  0  0  0  0  0  0  0  0
    3.7326    0.3169    0.5422 H   0  0  0  0  0  0  0  0  0  0  0  0
    0.7952   -1.1153    3.2183 H   0  0  0  0  0  0  0  0  0  0  0  0
    4.9383    0.1138    2.8024 H   0  0  0  0  0  0  0  0  0  0  0  0
    3.0917   -0.7544    4.4770 H   0  0  0  0  0  0  0  0  0  0  0  0
   -0.2013    1.2928   -2.5385 N   0  0  0  0  0  0  0  0  0  0  0  0
   -0.4269    0.5640   -3.7945 C   0  0  2  0  0  0  0  0  0  0  0  0
    0.7144   -0.4467   -4.0650 C   0  0  0  0  0  0  0  0  0  0  0  0
    1.7348   -0.4214   -3.3792 O   0  0  0  0  0  0  0  0  0  0  0  0
   -0.5243    1.5953   -4.9222 C   0  0  0  0  0  0  0  0  0  0  0  0
    0.6102    1.9054   -2.5359 H   0  0  0  0  0  0  0  0  0  0  0  0
   -1.3715    0.0105   -3.7477 H   0  0  0  0  0  0  0  0  0  0  0  0
    0.4132    2.1529   -5.0180 H   0  0  0  0  0  0  0  0  0  0  0  0
   -0.7333    1.1031   -5.8770 H   0  0  0  0  0  0  0  0  0  0  0  0
   -1.3326    2.3046   -4.7173 H   0  0  0  0  0  0  0  0  0  0  0  0
    0.5975   -1.3914   -5.0665 N   0  0  0  0  0  0  0  0  0  0  0  0
    1.6302   -2.3779   -5.3635 C   0  0  0  0  0  0  0  0  0  0  0  0
   -0.2706   -1.4176   -5.5944 H   0  0  0  0  0  0  0  0  0  0  0  0
    2.5714   -1.8820   -5.6238 H   0  0  0  0  0  0  0  0  0  0  0  0
    1.8016   -3.0273   -4.4983 H   0  0  0  0  0  0  0  0  0  0  0  0
    1.3254   -3.0030   -6.2088 H   0  0  0  0  0  0  0  0  0  0  0  0
  1  2  2  0  0  0  0
  1  3  1  0  0  0  0
  1  7  1  0  0  0  0
  3  4  1  0  0  0  0
  3  5  1  0  0  0  0
  3  6  1  0  0  0  0
  7  8  1  0  0  0  0
  7 12  1  0  0  0  0
  8  9  1  0  0  0  0
  8 11  1  0  0  0  0
  8 13  1  0  0  0  0
  9 10  2  0  0  0  0
  9 17  1  0  0  0  0
 11 14  1  0  0  0  0
 11 15  1  0  0  0  0
 11 16  1  0  0  0  0
 17 18  1  0  0  0  0
 17 27  1  0  0  0  0
 18 19  1  0  0  0  0
 18 21  1  0  0  0  0
 18 28  1  0  0  0  0
 19 20  2  0  0  0  0
 19 35  1  0  0  0  0
 21 22  1  0  0  0  0
 21 29  1  0  0  0  0
 21 30  1  0  0  0  0
 22 23  1  0  0  0  0
 22 24  2  0  0  0  0
 23 25  2  0  0  0  0
 23 31  1  0  0  0  0
 24 26  1  0  0  0  0
 24 32  1  0  0  0  0
 25 26  1  0  0  0  0
 25 33  1  0  0  0  0
 26 34  1  0  0  0  0
 35 36  1  0  0  0  0
 35 40  1  0  0  0  0
 36 37  1  0  0  0  0
 36 39  1  0  0  0  0
 36 41  1  0  0  0  0
 37 38  2  0  0  0  0
 37 45  1  0  0  0  0
 39 42  1  0  0  0  0
 39 43  1  0  0  0  0
 39 44  1  0  0  0  0
 45 46  1  0  0  0  0
 45 47  1  0  0  0  0
 46 48  1  0  0  0  0
 46 49  1  0  0  0  0
 46 50  1  0  0  0  0
M  CHG  1  23   1
M  END
$$$$

  -OEChem-05262216443D

 50 50  0     1  0  0  0  0  0999 V2000
   -2.4984    0.4206    2.7072 C   0  0  0  0  0  0  0  0  0  0  0  0
   -1.5482   -0.3384    2.8275 O   0  0  0  0  0  0  0  0  0  0  0  0
   -3.8813   -0.1334    2.4250 C   0  0  0  0  0  0  0  0  0  0  0  0
   -4.2582    0.2650    1.4796 H   0  0  0  0  0  0  0  0  0  0  0  0
   -3.8439   -1.2242    2.3545 H   0  0  0  0  0  0  0  0  0  0  0  0
   -4.5679    0.1429    3.2289 H   0  0  0  0  0  0  0  0  0  0  0  0
   -2.3093    1.7891    2.7938 N   0  0  0  0  0  0  0  0  0  0  0  0
   -1.0331    2.4512    3.1374 C   0  0  2  0  0  0  0  0  0  0  0  0
    0.1128    2.1267    2.1459 C   0  0  0  0  0  0  0  0  0  0  0  0
    1.2891    2.2236    2.4770 O   0  0  0  0  0  0  0  0  0  0  0  0
   -0.6621    2.1384    4.5961 C   0  0  0  0  0  0  0  0  0  0  0  0
   -3.1495    2.3617    2.7490 H   0  0  0  0  0  0  0  0  0  0  0  0
   -1.1903    3.5320    3.0646 H   0  0  0  0  0  0  0  0  0  0  0  0
   -0.4025    1.0827    4.7178 H   0  0  0  0  0  0  0  0  0  0  0  0
    0.1976    2.7406    4.9069 H   0  0  0  0  0  0  0  0  0  0  0  0
   -1.5004    2.3702    5.2601 H   0  0  0  0  0  0  0  0  0  0  0  0
   -0.1979    1.8747    0.8221 N   0  0  0  0  0  0  0  0  0  0  0  0
    0.5662    1.0426   -0.1264 C   0  0  2  0  0  0  0  0  0  0  0  0
   -0.3367    0.7574   -1.3422 C   0  0  0  0  0  0  0  0  0  0  0  0
   -1.3900    0.1485   -1.1974 O   0  0  0  0  0  0  0  0  0  0  0  0
    0.9976   -0.3737    0.3583 C   0  0  0  0  0  0  0  0  0  0  0  0
    1.9590   -0.4183    1.5142 C   0  0  0  0  0  0  0  0  0  0  0  0
    3.3226   -0.1331    1.4668 N   0  3  0  0  0  0  0  0  0  0  0  0
    1.6684   -0.8385    2.7871 C   0  0  0  0  0  0  0  0  0  0  0  0
    3.8580   -0.2878    2.6531 C   0  0  0  0  0  0  0  0  0  0  0  0
    2.8528   -0.7420    3.5040 N   0  0  0  0  0  0  0  0  0  0  0  0
   -1.2055    1.8445    0.6673 H   0  0  0  0  0  0  0  0  0  0  0  0
    1.4512    1.5992   -0.4482 H   0  0  0  0  0  0  0  0  0  0  0  0
    1.4454   -0.9191   -0.4801 H   0  0  0  0  0  0  0  0  0  0  0  0
    0.0961   -0.9255    0.6504 H   0  0  0  0  0  0  0  0  0  0  0  0
    3.7824    0.2334    0.6307 H   0  0  0  0  0  0  0  0  0  0  0  0
    0.6907   -1.1548    3.1517 H   0  0  0  0  0  0  0  0  0  0  0  0
    4.8940   -0.0845    2.9264 H   0  0  0  0  0  0  0  0  0  0  0  0
    2.9537   -0.9285    4.5048 H   0  0  0  0  0  0  0  0  0  0  0  0
    0.0595    1.1661   -2.6005 N   0  0  0  0  0  0  0  0  0  0  0  0
   -0.2494    0.3304   -3.7699 C   0  0  2  0  0  0  0  0  0  0  0  0
    0.8011   -0.7953   -3.9271 C   0  0  0  0  0  0  0  0  0  0  0  0
    1.8016   -0.8029   -3.2122 O   0  0  0  0  0  0  0  0  0  0  0  0
   -0.2792    1.2373   -5.0028 C   0  0  0  0  0  0  0  0  0  0  0  0
    0.9784    1.6012   -2.6221 H   0  0  0  0  0  0  0  0  0  0  0  0
   -1.2353   -0.1355   -3.6620 H   0  0  0  0  0  0  0  0  0  0  0  0
    0.7002    1.6979   -5.1674 H   0  0  0  0  0  0  0  0  0  0  0  0
   -0.5482    0.6637   -5.8951 H   0  0  0  0  0  0  0  0  0  0  0  0
   -1.0204    2.0321   -4.8701 H   0  0  0  0  0  0  0  0  0  0  0  0
    0.6265   -1.8072   -4.8516 N   0  0  0  0  0  0  0  0  0  0  0  0
    1.5869   -2.8882   -5.0463 C   0  0  0  0  0  0  0  0  0  0  0  0
   -0.2161   -1.7918   -5.4200 H   0  0  0  0  0  0  0  0  0  0  0  0
    2.5633   -2.4860   -5.3373 H   0  0  0  0  0  0  0  0  0  0  0  0
    1.7053   -3.4675   -4.1245 H   0  0  0  0  0  0  0  0  0  0  0  0
    1.2441   -3.5639   -5.8361 H   0  0  0  0  0  0  0  0  0  0  0  0
  1  2  2  0  0  0  0
  1  3  1  0  0  0  0
  1  7  1  0  0  0  0
  3  4  1  0  0  0  0
  3  5  1  0  0  0  0
  3  6  1  0  0  0  0
  7  8  1  0  0  0  0
  7 12  1  0  0  0  0
  8  9  1  0  0  0  0
  8 11  1  0  0  0  0
  8 13  1  0  0  0  0
  9 10  2  0  0  0  0
  9 17  1  0  0  0  0
 11 14  1  0  0  0  0
 11 15  1  0  0  0  0
 11 16  1  0  0  0  0
 17 18  1  0  0  0  0
 17 27  1  0  0  0  0
 18 19  1  0  0  0  0
 18 21  1  0  0  0  0
 18 28  1  0  0  0  0
 19 20  2  0  0  0  0
 19 35  1  0  0  0  0
 21 22  1  0  0  0  0
 21 29  1  0  0  0  0
 21 30  1  0  0  0  0
 22 23  1  0  0  0  0
 22 24  2  0  0  0  0
 23 25  2  0  0  0  0
 23 31  1  0  0  0  0
 24 26  1  0  0  0  0
 24 32  1  0  0  0  0
 25 26  1  0  0  0  0
 25 33  1  0  0  0  0
 26 34  1  0  0  0  0
 35 36  1  0  0  0  0
 35 40  1  0  0  0  0
 36 37  1  0  0  0  0
 36 39  1  0  0  0  0
 36 41  1  0  0  0  0
 37 38  2  0  0  0  0
 37 45  1  0  0  0  0
 39 42  1  0  0  0  0
 39 43  1  0  0  0  0
 39 44  1  0  0  0  0
 45 46  1  0  0  0  0
 45 47  1  0  0  0  0
 46 48  1  0  0  0  0
 46 49  1  0  0  0  0
 46 50  1  0  0  0  0
M  CHG  1  23   1
M  END
$$$$

  -OEChem-05262216443D

 50 50  0     1  0  0  0  0  0999 V2000
   -2.4977    0.4449    2.5540 C   0  0  0  0  0  0  0  0  0  0  0  0
   -1.5705   -0.3320    2.7266 O   0  0  0  0  0  0  0  0  0  0  0  0
   -3.8599   -0.0813    2.1470 C   0  0  0  0  0  0  0  0  0  0  0  0
   -4.1360    0.3173    1.1674 H   0  0  0  0  0  0  0  0  0  0  0  0
   -3.8402   -1.1733    2.0870 H   0  0  0  0  0  0  0  0  0  0  0  0
   -4.6131    0.2166    2.8804 H   0  0  0  0  0  0  0  0  0  0  0  0
   -2.2970    1.8081    2.6846 N   0  0  0  0  0  0  0  0  0  0  0  0
   -1.0324    2.4478    3.1058 C   0  0  2  0  0  0  0  0  0  0  0  0
    0.1600    2.1206    2.1717 C   0  0  0  0  0  0  0  0  0  0  0  0
    1.3192    2.1975    2.5632 O   0  0  0  0  0  0  0  0  0  0  0  0
   -0.7426    2.1100    4.5769 C   0  0  0  0  0  0  0  0  0  0  0  0
   -3.1226    2.3951    2.5849 H   0  0  0  0  0  0  0  0  0  0  0  0
   -1.1717    3.5315    3.0400 H   0  0  0  0  0  0  0  0  0  0  0  0
   -0.4978    1.0506    4.6949 H   0  0  0  0  0  0  0  0  0  0  0  0
    0.1036    2.7008    4.9425 H   0  0  0  0  0  0  0  0  0  0  0  0
   -1.6136    2.3379    5.1987 H   0  0  0  0  0  0  0  0  0  0  0  0
   -0.0879    1.8800    0.8329 N   0  0  0  0  0  0  0  0  0  0  0  0
    0.7163    1.0636   -0.0954 C   0  0  2  0  0  0  0  0  0  0  0  0
   -0.1447    0.7976   -1.3460 C   0  0  0  0  0  0  0  0  0  0  0  0
   -1.3038    0.4196   -1.2156 O   0  0  0  0  0  0  0  0  0  0  0  0
    1.0993   -0.3667    0.3871 C   0  0  0  0  0  0  0  0  0  0  0  0
    1.9935   -0.4455    1.5956 C   0  0  0  0  0  0  0  0  0  0  0  0
    3.3617   -0.1814    1.6380 N   0  3  0  0  0  0  0  0  0  0  0  0
    1.6199   -0.8815    2.8416 C   0  0  0  0  0  0  0  0  0  0  0  0
    3.8199   -0.3626    2.8527 C   0  0  0  0  0  0  0  0  0  0  0  0
    2.7581   -0.8143    3.6321 N   0  0  0  0  0  0  0  0  0  0  0  0
   -1.0864    1.8639    0.6224 H   0  0  0  0  0  0  0  0  0  0  0  0
    1.6170    1.6194   -0.3723 H   0  0  0  0  0  0  0  0  0  0  0  0
    1.5860   -0.9081   -0.4322 H   0  0  0  0  0  0  0  0  0  0  0  0
    0.1734   -0.9078    0.6164 H   0  0  0  0  0  0  0  0  0  0  0  0
    3.8782    0.1950    0.8409 H   0  0  0  0  0  0  0  0  0  0  0  0
    0.6181   -1.1888    3.1418 H   0  0  0  0  0  0  0  0  0  0  0  0
    4.8392   -0.1788    3.1936 H   0  0  0  0  0  0  0  0  0  0  0  0
    2.7939   -1.0179    4.6340 H   0  0  0  0  0  0  0  0  0  0  0  0
    0.4077    0.9370   -2.6041 N   0  0  0  0  0  0  0  0  0  0  0  0
   -0.0595    0.1257   -3.7375 C   0  0  2  0  0  0  0  0  0  0  0  0
    0.7446   -1.1915   -3.8362 C   0  0  0  0  0  0  0  0  0  0  0  0
    1.7340   -1.3572   -3.1262 O   0  0  0  0  0  0  0  0  0  0  0  0
    0.0991    0.9649   -5.0080 C   0  0  0  0  0  0  0  0  0  0  0  0
    1.4039    1.1409   -2.6067 H   0  0  0  0  0  0  0  0  0  0  0  0
   -1.1182   -0.1310   -3.6226 H   0  0  0  0  0  0  0  0  0  0  0  0
    1.1510    1.2202   -5.1725 H   0  0  0  0  0  0  0  0  0  0  0  0
   -0.2649    0.4151   -5.8814 H   0  0  0  0  0  0  0  0  0  0  0  0
   -0.4758    1.8928   -4.9226 H   0  0  0  0  0  0  0  0  0  0  0  0
    0.3643   -2.1902   -4.7124 N   0  0  0  0  0  0  0  0  0  0  0  0
    1.0951   -3.4433   -4.8677 C   0  0  0  0  0  0  0  0  0  0  0  0
   -0.4642   -2.0334   -5.2801 H   0  0  0  0  0  0  0  0  0  0  0  0
    2.1238   -3.2500   -5.1897 H   0  0  0  0  0  0  0  0  0  0  0  0
    1.1198   -3.9939   -3.9214 H   0  0  0  0  0  0  0  0  0  0  0  0
    0.6115   -4.0735   -5.6208 H   0  0  0  0  0  0  0  0  0  0  0  0
  1  2  2  0  0  0  0
  1  3  1  0  0  0  0
  1  7  1  0  0  0  0
  3  4  1  0  0  0  0
  3  5  1  0  0  0  0
  3  6  1  0  0  0  0
  7  8  1  0  0  0  0
  7 12  1  0  0  0  0
  8  9  1  0  0  0  0
  8 11  1  0  0  0  0
  8 13  1  0  0  0  0
  9 10  2  0  0  0  0
  9 17  1  0  0  0  0
 11 14  1  0  0  0  0
 11 15  1  0  0  0  0
 11 16  1  0  0  0  0
 17 18  1  0  0  0  0
 17 27  1  0  0  0  0
 18 19  1  0  0  0  0
 18 21  1  0  0  0  0
 18 28  1  0  0  0  0
 19 20  2  0  0  0  0
 19 35  1  0  0  0  0
 21 22  1  0  0  0  0
 21 29  1  0  0  0  0
 21 30  1  0  0  0  0
 22 23  1  0  0  0  0
 22 24  2  0  0  0  0
 23 25  2  0  0  0  0
 23 31  1  0  0  0  0
 24 26  1  0  0  0  0
 24 32  1  0  0  0  0
 25 26  1  0  0  0  0
 25 33  1  0  0  0  0
 26 34  1  0  0  0  0
 35 36  1  0  0  0  0
 35 40  1  0  0  0  0
 36 37  1  0  0  0  0
 36 39  1  0  0  0  0
 36 41  1  0  0  0  0
 37 38  2  0  0  0  0
 37 45  1  0  0  0  0
 39 42  1  0  0  0  0
 39 43  1  0  0  0  0
 39 44  1  0  0  0  0
 45 46  1  0  0  0  0
 45 47  1  0  0  0  0
 46 48  1  0  0  0  0
 46 49  1  0  0  0  0
 46 50  1  0  0  0  0
M  CHG  1  23   1
M  END
$$$$

  -OEChem-05262216443D

 50 50  0     1  0  0  0  0  0999 V2000
   -2.5189    0.4727    2.4289 C   0  0  0  0  0  0  0  0  0  0  0  0
   -1.6122   -0.3288    2.6004 O   0  0  0  0  0  0  0  0  0  0  0  0
   -3.8910   -0.0149    2.0057 C   0  0  0  0  0  0  0  0  0  0  0  0
   -4.1557    0.4103    1.0341 H   0  0  0  0  0  0  0  0  0  0  0  0
   -3.8956   -1.1054    1.9234 H   0  0  0  0  0  0  0  0  0  0  0  0
   -4.6400    0.2836    2.7433 H   0  0  0  0  0  0  0  0  0  0  0  0
   -2.2896    1.8281    2.5899 N   0  0  0  0  0  0  0  0  0  0  0  0
   -1.0252    2.4302    3.0638 C   0  0  2  0  0  0  0  0  0  0  0  0
    0.1927    2.0942    2.1667 C   0  0  0  0  0  0  0  0  0  0  0  0
    1.3383    2.1466    2.6006 O   0  0  0  0  0  0  0  0  0  0  0  0
   -0.7942    2.0591    4.5373 C   0  0  0  0  0  0  0  0  0  0  0  0
   -3.0994    2.4352    2.4828 H   0  0  0  0  0  0  0  0  0  0  0  0
   -1.1373    3.5179    3.0138 H   0  0  0  0  0  0  0  0  0  0  0  0
   -0.5856    0.9909    4.6444 H   0  0  0  0  0  0  0  0  0  0  0  0
    0.0568    2.6174    4.9401 H   0  0  0  0  0  0  0  0  0  0  0  0
   -1.6776    2.3035    5.1348 H   0  0  0  0  0  0  0  0  0  0  0  0
   -0.0078    1.8787    0.8161 N   0  0  0  0  0  0  0  0  0  0  0  0
    0.8239    1.0800   -0.1044 C   0  0  2  0  0  0  0  0  0  0  0  0
   -0.0000    0.8429   -1.3878 C   0  0  0  0  0  0  0  0  0  0  0  0
   -1.2147    0.6903   -1.3095 O   0  0  0  0  0  0  0  0  0  0  0  0
    1.1663   -0.3658    0.3648 C   0  0  0  0  0  0  0  0  0  0  0  0
    2.0072   -0.4828    1.6085 C   0  0  0  0  0  0  0  0  0  0  0  0
    3.3761   -0.2415    1.7201 N   0  3  0  0  0  0  0  0  0  0  0  0
    1.5705   -0.9407    2.8260 C   0  0  0  0  0  0  0  0  0  0  0  0
    3.7743   -0.4542    2.9507 C   0  0  0  0  0  0  0  0  0  0  0  0
    2.6718   -0.9088    3.6695 N   0  0  0  0  0  0  0  0  0  0  0  0
   -0.9961    1.8900    0.5588 H   0  0  0  0  0  0  0  0  0  0  0  0
    1.7378    1.6335   -0.3396 H   0  0  0  0  0  0  0  0  0  0  0  0
    1.6829   -0.8989   -0.4407 H   0  0  0  0  0  0  0  0  0  0  0  0
    0.2232   -0.8975    0.5404 H   0  0  0  0  0  0  0  0  0  0  0  0
    3.9338    0.1498    0.9590 H   0  0  0  0  0  0  0  0  0  0  0  0
    0.5513   -1.2388    3.0729 H   0  0  0  0  0  0  0  0  0  0  0  0
    4.7780   -0.2892    3.3433 H   0  0  0  0  0  0  0  0  0  0  0  0
    2.6575   -1.1326    4.6676 H   0  0  0  0  0  0  0  0  0  0  0  0
    0.6428    0.7021   -2.6028 N   0  0  0  0  0  0  0  0  0  0  0  0
    0.0701   -0.0886   -3.7023 C   0  0  2  0  0  0  0  0  0  0  0  0
    0.6226   -1.5315   -3.6850 C   0  0  0  0  0  0  0  0  0  0  0  0
    1.5656   -1.8141   -2.9499 O   0  0  0  0  0  0  0  0  0  0  0  0
    0.4188    0.6174   -5.0150 C   0  0  0  0  0  0  0  0  0  0  0  0
    1.6583    0.6919   -2.5510 H   0  0  0  0  0  0  0  0  0  0  0  0
   -1.0207   -0.1441   -3.6180 H   0  0  0  0  0  0  0  0  0  0  0  0
    1.5041    0.6639   -5.1512 H   0  0  0  0  0  0  0  0  0  0  0  0
   -0.0151    0.0842   -5.8666 H   0  0  0  0  0  0  0  0  0  0  0  0
    0.0238    1.6384   -5.0118 H   0  0  0  0  0  0  0  0  0  0  0  0
    0.0685   -2.5111   -4.4865 N   0  0  0  0  0  0  0  0  0  0  0  0
    0.5554   -3.8857   -4.5256 C   0  0  0  0  0  0  0  0  0  0  0  0
   -0.7189   -2.2532   -5.0754 H   0  0  0  0  0  0  0  0  0  0  0  0
    1.6047   -3.9130   -4.8387 H   0  0  0  0  0  0  0  0  0  0  0  0
    0.4704   -4.3516   -3.5381 H   0  0  0  0  0  0  0  0  0  0  0  0
   -0.0313   -4.4756   -5.2368 H   0  0  0  0  0  0  0  0  0  0  0  0
  1  2  2  0  0  0  0
  1  3  1  0  0  0  0
  1  7  1  0  0  0  0
  3  4  1  0  0  0  0
  3  5  1  0  0  0  0
  3  6  1  0  0  0  0
  7  8  1  0  0  0  0
  7 12  1  0  0  0  0
  8  9  1  0  0  0  0
  8 11  1  0  0  0  0
  8 13  1  0  0  0  0
  9 10  2  0  0  0  0
  9 17  1  0  0  0  0
 11 14  1  0  0  0  0
 11 15  1  0  0  0  0
 11 16  1  0  0  0  0
 17 18  1  0  0  0  0
 17 27  1  0  0  0  0
 18 19  1  0  0  0  0
 18 21  1  0  0  0  0
 18 28  1  0  0  0  0
 19 20  2  0  0  0  0
 19 35  1  0  0  0  0
 21 22  1  0  0  0  0
 21 29  1  0  0  0  0
 21 30  1  0  0  0  0
 22 23  1  0  0  0  0
 22 24  2  0  0  0  0
 23 25  2  0  0  0  0
 23 31  1  0  0  0  0
 24 26  1  0  0  0  0
 24 32  1  0  0  0  0
 25 26  1  0  0  0  0
 25 33  1  0  0  0  0
 26 34  1  0  0  0  0
 35 36  1  0  0  0  0
 35 40  1  0  0  0  0
 36 37  1  0  0  0  0
 36 39  1  0  0  0  0
 36 41  1  0  0  0  0
 37 38  2  0  0  0  0
 37 45  1  0  0  0  0
 39 42  1  0  0  0  0
 39 43  1  0  0  0  0
 39 44  1  0  0  0  0
 45 46  1  0  0  0  0
 45 47  1  0  0  0  0
 46 48  1  0  0  0  0
 46 49  1  0  0  0  0
 46 50  1  0  0  0  0
M  CHG  1  23   1
M  END
$$$$

  -OEChem-05262216443D

 50 50  0     1  0  0  0  0  0999 V2000
   -2.5208    0.5065    2.2246 C   0  0  0  0  0  0  0  0  0  0  0  0
   -1.6428   -0.3192    2.4289 O   0  0  0  0  0  0  0  0  0  0  0  0
   -3.8637    0.0649    1.6770 C   0  0  0  0  0  0  0  0  0  0  0  0
   -4.0337    0.5188    0.6971 H   0  0  0  0  0  0  0  0  0  0  0  0
   -3.8888   -1.0229    1.5683 H   0  0  0  0  0  0  0  0  0  0  0  0
   -4.6646    0.3676    2.3561 H   0  0  0  0  0  0  0  0  0  0  0  0
   -2.2793    1.8512    2.4449 N   0  0  0  0  0  0  0  0  0  0  0  0
   -1.0300    2.4176    2.9962 C   0  0  2  0  0  0  0  0  0  0  0  0
    0.2224    2.0871    2.1466 C   0  0  0  0  0  0  0  0  0  0  0  0
    1.3488    2.1216    2.6297 O   0  0  0  0  0  0  0  0  0  0  0  0
   -0.8726    1.9959    4.4651 C   0  0  0  0  0  0  0  0  0  0  0  0
   -3.0651    2.4796    2.2919 H   0  0  0  0  0  0  0  0  0  0  0  0
   -1.1233    3.5080    2.9755 H   0  0  0  0  0  0  0  0  0  0  0  0
   -0.6830    0.9217    4.5461 H   0  0  0  0  0  0  0  0  0  0  0  0
   -0.0339    2.5289    4.9243 H   0  0  0  0  0  0  0  0  0  0  0  0
   -1.7794    2.2340    5.0290 H   0  0  0  0  0  0  0  0  0  0  0  0
    0.0741    1.8864    0.7875 N   0  0  0  0  0  0  0  0  0  0  0  0
    0.9325    1.1000   -0.1187 C   0  0  2  0  0  0  0  0  0  0  0  0
    0.1411    0.8879   -1.4319 C   0  0  0  0  0  0  0  0  0  0  0  0
   -1.0848    0.9526   -1.4192 O   0  0  0  0  0  0  0  0  0  0  0  0
    1.2346   -0.3556    0.3542 C   0  0  0  0  0  0  0  0  0  0  0  0
    2.0209   -0.4977    1.6309 C   0  0  0  0  0  0  0  0  0  0  0  0
    3.3870   -0.2807    1.8091 N   0  3  0  0  0  0  0  0  0  0  0  0
    1.5232   -0.9744    2.8176 C   0  0  0  0  0  0  0  0  0  0  0  0
    3.7251   -0.5225    3.0526 C   0  0  0  0  0  0  0  0  0  0  0  0
    2.5850   -0.9767    3.7106 N   0  0  0  0  0  0  0  0  0  0  0  0
   -0.9004    1.9270    0.4828 H   0  0  0  0  0  0  0  0  0  0  0  0
    1.8587    1.6465   -0.3190 H   0  0  0  0  0  0  0  0  0  0  0  0
    1.7805   -0.8925   -0.4280 H   0  0  0  0  0  0  0  0  0  0  0  0
    0.2769   -0.8749    0.4826 H   0  0  0  0  0  0  0  0  0  0  0  0
    3.9823    0.1272    1.0862 H   0  0  0  0  0  0  0  0  0  0  0  0
    0.4902   -1.2649    3.0113 H   0  0  0  0  0  0  0  0  0  0  0  0
    4.7114   -0.3775    3.4947 H   0  0  0  0  0  0  0  0  0  0  0  0
    2.5231   -1.2251    4.7011 H   0  0  0  0  0  0  0  0  0  0  0  0
    0.7927    0.4609   -2.5743 N   0  0  0  0  0  0  0  0  0  0  0  0
    0.1214   -0.3235   -3.6220 C   0  0  2  0  0  0  0  0  0  0  0  0
    0.3952   -1.8322   -3.4351 C   0  0  0  0  0  0  0  0  0  0  0  0
    1.2775   -2.1976   -2.6626 O   0  0  0  0  0  0  0  0  0  0  0  0
    0.6445    0.1634   -4.9753 C   0  0  0  0  0  0  0  0  0  0  0  0
    1.7831    0.2620   -2.4580 H   0  0  0  0  0  0  0  0  0  0  0  0
   -0.9627   -0.1697   -3.5948 H   0  0  0  0  0  0  0  0  0  0  0  0
    1.7251    0.0034   -5.0514 H   0  0  0  0  0  0  0  0  0  0  0  0
    0.1556   -0.3754   -5.7931 H   0  0  0  0  0  0  0  0  0  0  0  0
    0.4408    1.2322   -5.0972 H   0  0  0  0  0  0  0  0  0  0  0  0
   -0.3371   -2.7791   -4.1252 N   0  0  0  0  0  0  0  0  0  0  0  0
   -0.1071   -4.2143   -4.0015 C   0  0  0  0  0  0  0  0  0  0  0  0
   -1.0655   -2.4514   -4.7541 H   0  0  0  0  0  0  0  0  0  0  0  0
    0.9085   -4.4686   -4.3230 H   0  0  0  0  0  0  0  0  0  0  0  0
   -0.2386   -4.5363   -2.9632 H   0  0  0  0  0  0  0  0  0  0  0  0
   -0.8154   -4.7678   -4.6257 H   0  0  0  0  0  0  0  0  0  0  0  0
  1  2  2  0  0  0  0
  1  3  1  0  0  0  0
  1  7  1  0  0  0  0
  3  4  1  0  0  0  0
  3  5  1  0  0  0  0
  3  6  1  0  0  0  0
  7  8  1  0  0  0  0
  7 12  1  0  0  0  0
  8  9  1  0  0  0  0
  8 11  1  0  0  0  0
  8 13  1  0  0  0  0
  9 10  2  0  0  0  0
  9 17  1  0  0  0  0
 11 14  1  0  0  0  0
 11 15  1  0  0  0  0
 11 16  1  0  0  0  0
 17 18  1  0  0  0  0
 17 27  1  0  0  0  0
 18 19  1  0  0  0  0
 18 21  1  0  0  0  0
 18 28  1  0  0  0  0
 19 20  2  0  0  0  0
 19 35  1  0  0  0  0
 21 22  1  0  0  0  0
 21 29  1  0  0  0  0
 21 30  1  0  0  0  0
 22 23  1  0  0  0  0
 22 24  2  0  0  0  0
 23 25  2  0  0  0  0
 23 31  1  0  0  0  0
 24 26  1  0  0  0  0
 24 32  1  0  0  0  0
 25 26  1  0  0  0  0
 25 33  1  0  0  0  0
 26 34  1  0  0  0  0
 35 36  1  0  0  0  0
 35 40  1  0  0  0  0
 36 37  1  0  0  0  0
 36 39  1  0  0  0  0
 36 41  1  0  0  0  0
 37 38  2  0  0  0  0
 37 45  1  0  0  0  0
 39 42  1  0  0  0  0
 39 43  1  0  0  0  0
 39 44  1  0  0  0  0
 45 46  1  0  0  0  0
 45 47  1  0  0  0  0
 46 48  1  0  0  0  0
 46 49  1  0  0  0  0
 46 50  1  0  0  0  0
M  CHG  1  23   1
M  END
$$$$
