
  -OEChem-05262214473D

 50 50  0     1  0  0  0  0  0999 V2000
   -1.6938    0.4865    3.8080 C   0  0  0  0  0  0  0  0  0  0  0  0
   -0.7464   -0.1282    3.3323 O   0  0  0  0  0  0  0  0  0  0  0  0
   -2.1257    0.2041    5.2087 C   0  0  0  0  0  0  0  0  0  0  0  0
   -2.8853   -0.5922    5.2621 H   0  0  0  0  0  0  0  0  0  0  0  0
   -1.2944   -0.1435    5.8430 H   0  0  0  0  0  0  0  0  0  0  0  0
   -2.5637    1.0590    5.7483 H   0  0  0  0  0  0  0  0  0  0  0  0
   -2.4435    1.4589    3.1669 N   0  0  0  0  0  0  0  0  0  0  0  0
   -2.1966    1.8850    1.8145 C   0  0  2  0  0  0  0  0  0  0  0  0
   -0.8617    1.2996    1.3733 C   0  0  0  0  0  0  0  0  0  0  0  0
    0.0104    0.9468    2.1646 O   0  0  0  0  0  0  0  0  0  0  0  0
   -2.1879    3.4017    1.7050 C   0  0  0  0  0  0  0  0  0  0  0  0
   -3.2085    1.8948    3.6787 H   0  0  0  0  0  0  0  0  0  0  0  0
   -3.0007    1.4665    1.1994 H   0  0  0  0  0  0  0  0  0  0  0  0
   -1.3888    3.8390    2.3147 H   0  0  0  0  0  0  0  0  0  0  0  0
   -2.0284    3.7240    0.6708 H   0  0  0  0  0  0  0  0  0  0  0  0
   -3.1380    3.8230    2.0508 H   0  0  0  0  0  0  0  0  0  0  0  0
   -0.7390    1.2565   -0.0101 N   0  0  0  0  0  0  0  0  0  0  0  0
    0.4383    0.7557   -0.6738 C   0  0  2  0  0  0  0  0  0  0  0  0
    0.1937    0.8710   -2.1741 C   0  0  0  0  0  0  0  0  0  0  0  0
   -0.8299    1.3577   -2.6497 O   0  0  0  0  0  0  0  0  0  0  0  0
    0.7431   -0.6978   -0.2937 C   0  0  0  0  0  0  0  0  0  0  0  0
    1.0766   -0.8610    1.1691 C   0  0  0  0  0  0  0  0  0  0  0  0
    2.2902   -0.4740    1.6844 N   0  3  0  0  0  0  0  0  0  0  0  0
    0.3518   -1.3699    2.2096 C   0  0  0  0  0  0  0  0  0  0  0  0
    2.3206   -0.7325    2.9957 C   0  0  0  0  0  0  0  0  0  0  0  0
    1.1460   -1.2784    3.3272 N   0  0  0  0  0  0  0  0  0  0  0  0
   -1.5221    1.5532   -0.5874 H   0  0  0  0  0  0  0  0  0  0  0  0
    1.2626    1.4215   -0.3923 H   0  0  0  0  0  0  0  0  0  0  0  0
    1.5681   -1.0862   -0.9062 H   0  0  0  0  0  0  0  0  0  0  0  0
   -0.1152   -1.3427   -0.5246 H   0  0  0  0  0  0  0  0  0  0  0  0
    3.0506   -0.0568    1.1547 H   0  0  0  0  0  0  0  0  0  0  0  0
   -0.6253   -1.7932    2.3312 H   0  0  0  0  0  0  0  0  0  0  0  0
    3.1427   -0.5370    3.6638 H   0  0  0  0  0  0  0  0  0  0  0  0
    0.8841   -1.5789    4.2618 H   0  0  0  0  0  0  0  0  0  0  0  0
    1.2749    0.4120   -2.9136 N   0  0  0  0  0  0  0  0  0  0  0  0
    1.3131    0.4300   -4.3583 C   0  0  2  0  0  0  0  0  0  0  0  0
    0.0267   -0.2041   -4.8707 C   0  0  0  0  0  0  0  0  0  0  0  0
   -0.6535   -0.9774   -4.1997 O   0  0  0  0  0  0  0  0  0  0  0  0
    2.5321   -0.3086   -4.8887 C   0  0  0  0  0  0  0  0  0  0  0  0
    2.0797    0.0450   -2.4144 H   0  0  0  0  0  0  0  0  0  0  0  0
    1.3479    1.4824   -4.6606 H   0  0  0  0  0  0  0  0  0  0  0  0
    2.5147   -1.3647   -4.5958 H   0  0  0  0  0  0  0  0  0  0  0  0
    2.5748   -0.2696   -5.9822 H   0  0  0  0  0  0  0  0  0  0  0  0
    3.4554    0.1303   -4.4955 H   0  0  0  0  0  0  0  0  0  0  0  0
   -0.2493    0.1614   -6.1808 N   0  0  0  0  0  0  0  0  0  0  0  0
   -1.4082   -0.3191   -6.8966 C   0  0  0  0  0  0  0  0  0  0  0  0
    0.3595    0.8225   -6.6541 H   0  0  0  0  0  0  0  0  0  0  0  0
   -1.1430   -1.2277   -7.4570 H   0  0  0  0  0  0  0  0  0  0  0  0
   -2.2108   -0.5509   -6.1810 H   0  0  0  0  0  0  0  0  0  0  0  0
   -1.7537    0.4557   -7.5968 H   0  0  0  0  0  0  0  0  0  0  0  0
 22 24  2  0  0  0  0
 24 26  1  0  0  0  0
 25 26  1  0  0  0  0
 23 25  2  0  0  0  0
 21 22  1  0  0  0  0
 22 23  1  0  0  0  0
  1  3  1  0  0  0  0
  1  7  1  0  0  0  0
  1  2  2  0  0  0  0
 36 37  1  0  0  0  0
 37 45  1  0  0  0  0
 37 38  2  0  0  0  0
  8  9  1  0  0  0  0
  9 17  1  0  0  0  0
  9 10  2  0  0  0  0
 18 19  1  0  0  0  0
 19 35  1  0  0  0  0
 19 20  2  0  0  0  0
 36 39  1  0  0  0  0
  8 11  1  0  0  0  0
 45 46  1  0  0  0  0
 18 21  1  0  0  0  0
 35 36  1  0  0  0  0
  7  8  1  0  0  0  0
 17 18  1  0  0  0  0
 24 32  1  0  0  0  0
 25 33  1  0  0  0  0
  3  4  1  0  0  0  0
  3  5  1  0  0  0  0
  3  6  1  0  0  0  0
 39 42  1  0  0  0  0
 39 43  1  0  0  0  0
 39 44  1  0  0  0  0
 11 14  1  0  0  0  0
 11 15  1  0  0  0  0
 11 16  1  0  0  0  0
 46 48  1  0  0  0  0
 46 49  1  0  0  0  0
 46 50  1  0  0  0  0
 21 29  1  0  0  0  0
 21 30  1  0  0  0  0
 36 41  1  0  0  0  0
  8 13  1  0  0  0  0
 18 28  1  0  0  0  0
 26 34  1  0  0  0  0
 23 31  1  0  0  0  0
 45 47  1  0  0  0  0
  7 12  1  0  0  0  0
 35 40  1  0  0  0  0
 17 27  1  0  0  0  0
M  CHG  1  23   1
M  END
$$$$

  -OEChem-05262214473D

 50 50  0     1  0  0  0  0  0999 V2000
   -1.6938    0.4865    3.8080 C   0  0  0  0  0  0  0  0  0  0  0  0
   -0.7464   -0.1282    3.3323 O   0  0  0  0  0  0  0  0  0  0  0  0
   -2.1257    0.2041    5.2087 C   0  0  0  0  0  0  0  0  0  0  0  0
   -2.8853   -0.5922    5.2621 H   0  0  0  0  0  0  0  0  0  0  0  0
   -1.2944   -0.1435    5.8430 H   0  0  0  0  0  0  0  0  0  0  0  0
   -2.5637    1.0590    5.7483 H   0  0  0  0  0  0  0  0  0  0  0  0
   -2.4435    1.4589    3.1669 N   0  0  0  0  0  0  0  0  0  0  0  0
   -2.1966    1.8850    1.8145 C   0  0  2  0  0  0  0  0  0  0  0  0
   -0.8617    1.2996    1.3733 C   0  0  0  0  0  0  0  0  0  0  0  0
    0.0104    0.9468    2.1646 O   0  0  0  0  0  0  0  0  0  0  0  0
   -2.1879    3.4017    1.7050 C   0  0  0  0  0  0  0  0  0  0  0  0
   -3.2085    1.8948    3.6787 H   0  0  0  0  0  0  0  0  0  0  0  0
   -3.0007    1.4665    1.1994 H   0  0  0  0  0  0  0  0  0  0  0  0
   -1.3888    3.8390    2.3147 H   0  0  0  0  0  0  0  0  0  0  0  0
   -2.0284    3.7240    0.6708 H   0  0  0  0  0  0  0  0  0  0  0  0
   -3.1380    3.8230    2.0508 H   0  0  0  0  0  0  0  0  0  0  0  0
   -0.7390    1.2565   -0.0101 N   0  0  0  0  0  0  0  0  0  0  0  0
    0.4383    0.7557   -0.6738 C   0  0  2  0  0  0  0  0  0  0  0  0
    0.1937    0.8710   -2.1741 C   0  0  0  0  0  0  0  0  0  0  0  0
   -0.6841    1.5839   -2.6561 O   0  0  0  0  0  0  0  0  0  0  0  0
    0.7431   -0.6978   -0.2937 C   0  0  0  0  0  0  0  0  0  0  0  0
    1.0766   -0.8610    1.1691 C   0  0  0  0  0  0  0  0  0  0  0  0
    2.2902   -0.4740    1.6844 N   0  3  0  0  0  0  0  0  0  0  0  0
    0.3518   -1.3699    2.2096 C   0  0  0  0  0  0  0  0  0  0  0  0
    2.3206   -0.7325    2.9957 C   0  0  0  0  0  0  0  0  0  0  0  0
    1.1460   -1.2784    3.3272 N   0  0  0  0  0  0  0  0  0  0  0  0
   -1.5221    1.5532   -0.5874 H   0  0  0  0  0  0  0  0  0  0  0  0
    1.2626    1.4215   -0.3923 H   0  0  0  0  0  0  0  0  0  0  0  0
    1.5681   -1.0862   -0.9062 H   0  0  0  0  0  0  0  0  0  0  0  0
   -0.1152   -1.3427   -0.5246 H   0  0  0  0  0  0  0  0  0  0  0  0
    3.0506   -0.0568    1.1547 H   0  0  0  0  0  0  0  0  0  0  0  0
   -0.6253   -1.7932    2.3312 H   0  0  0  0  0  0  0  0  0  0  0  0
    3.1427   -0.5370    3.6638 H   0  0  0  0  0  0  0  0  0  0  0  0
    0.8841   -1.5789    4.2618 H   0  0  0  0  0  0  0  0  0  0  0  0
    1.1038    0.1229   -2.9080 N   0  0  0  0  0  0  0  0  0  0  0  0
    1.1093    0.0742   -4.3524 C   0  0  2  0  0  0  0  0  0  0  0  0
   -0.3084   -0.2302   -4.8181 C   0  0  0  0  0  0  0  0  0  0  0  0
   -1.1460   -0.7776   -4.1041 O   0  0  0  0  0  0  0  0  0  0  0  0
    2.0867   -0.9710   -4.8670 C   0  0  0  0  0  0  0  0  0  0  0  0
    1.8010   -0.4175   -2.4045 H   0  0  0  0  0  0  0  0  0  0  0  0
    1.4030    1.0702   -4.7013 H   0  0  0  0  0  0  0  0  0  0  0  0
    1.8087   -1.9755   -4.5276 H   0  0  0  0  0  0  0  0  0  0  0  0
    2.1107   -0.9869   -5.9617 H   0  0  0  0  0  0  0  0  0  0  0  0
    3.1008   -0.7673   -4.5066 H   0  0  0  0  0  0  0  0  0  0  0  0
   -0.5151    0.1422   -6.1390 N   0  0  0  0  0  0  0  0  0  0  0  0
   -1.7755   -0.0542   -6.8163 C   0  0  0  0  0  0  0  0  0  0  0  0
    0.2299    0.6071   -6.6495 H   0  0  0  0  0  0  0  0  0  0  0  0
   -1.7642   -1.0215   -7.3398 H   0  0  0  0  0  0  0  0  0  0  0  0
   -2.5926   -0.0455   -6.0799 H   0  0  0  0  0  0  0  0  0  0  0  0
   -1.9301    0.7552   -7.5450 H   0  0  0  0  0  0  0  0  0  0  0  0
 22 24  2  0  0  0  0
 24 26  1  0  0  0  0
 25 26  1  0  0  0  0
 23 25  2  0  0  0  0
 21 22  1  0  0  0  0
 22 23  1  0  0  0  0
  1  3  1  0  0  0  0
  1  7  1  0  0  0  0
  1  2  2  0  0  0  0
 36 37  1  0  0  0  0
 37 45  1  0  0  0  0
 37 38  2  0  0  0  0
  8  9  1  0  0  0  0
  9 17  1  0  0  0  0
  9 10  2  0  0  0  0
 18 19  1  0  0  0  0
 19 35  1  0  0  0  0
 19 20  2  0  0  0  0
 36 39  1  0  0  0  0
  8 11  1  0  0  0  0
 45 46  1  0  0  0  0
 18 21  1  0  0  0  0
 35 36  1  0  0  0  0
  7  8  1  0  0  0  0
 17 18  1  0  0  0  0
 24 32  1  0  0  0  0
 25 33  1  0  0  0  0
  3  4  1  0  0  0  0
  3  5  1  0  0  0  0
  3  6  1  0  0  0  0
 39 42  1  0  0  0  0
 39 43  1  0  0  0  0
 39 44  1  0  0  0  0
 11 14  1  0  0  0  0
 11 15  1  0  0  0  0
 11 16  1  0  0  0  0
 46 48  1  0  0  0  0
 46 49  1  0  0  0  0
 46 50  1  0  0  0  0
 21 29  1  0  0  0  0
 21 30  1  0  0  0  0
 36 41  1  0  0  0  0
  8 13  1  0  0  0  0
 18 28  1  0  0  0  0
 26 34  1  0  0  0  0
 23 31  1  0  0  0  0
 45 47  1  0  0  0  0
  7 12  1  0  0  0  0
 35 40  1  0  0  0  0
 17 27  1  0  0  0  0
M  CHG  1  23   1
M  END
$$$$

  -OEChem-05262214473D

 50 50  0     1  0  0  0  0  0999 V2000
   -1.6938    0.4865    3.8080 C   0  0  0  0  0  0  0  0  0  0  0  0
   -0.7464   -0.1282    3.3323 O   0  0  0  0  0  0  0  0  0  0  0  0
   -2.1257    0.2041    5.2087 C   0  0  0  0  0  0  0  0  0  0  0  0
   -2.8853   -0.5922    5.2621 H   0  0  0  0  0  0  0  0  0  0  0  0
   -1.2944   -0.1435    5.8430 H   0  0  0  0  0  0  0  0  0  0  0  0
   -2.5637    1.0590    5.7483 H   0  0  0  0  0  0  0  0  0  0  0  0
   -2.4435    1.4589    3.1669 N   0  0  0  0  0  0  0  0  0  0  0  0
   -2.1966    1.8850    1.8145 C   0  0  2  0  0  0  0  0  0  0  0  0
   -0.8617    1.2996    1.3733 C   0  0  0  0  0  0  0  0  0  0  0  0
    0.0104    0.9468    2.1646 O   0  0  0  0  0  0  0  0  0  0  0  0
   -2.1879    3.4017    1.7050 C   0  0  0  0  0  0  0  0  0  0  0  0
   -3.2085    1.8948    3.6787 H   0  0  0  0  0  0  0  0  0  0  0  0
   -3.0007    1.4665    1.1994 H   0  0  0  0  0  0  0  0  0  0  0  0
   -1.3888    3.8390    2.3147 H   0  0  0  0  0  0  0  0  0  0  0  0
   -2.0284    3.7240    0.6708 H   0  0  0  0  0  0  0  0  0  0  0  0
   -3.1380    3.8230    2.0508 H   0  0  0  0  0  0  0  0  0  0  0  0
   -0.7390    1.2565   -0.0101 N   0  0  0  0  0  0  0  0  0  0  0  0
    0.4383    0.7557   -0.6738 C   0  0  2  0  0  0  0  0  0  0  0  0
    0.1937    0.8710   -2.1741 C   0  0  0  0  0  0  0  0  0  0  0  0
   -0.4857    1.7649   -2.6745 O   0  0  0  0  0  0  0  0  0  0  0  0
    0.7431   -0.6978   -0.2937 C   0  0  0  0  0  0  0  0  0  0  0  0
    1.0766   -0.8610    1.1691 C   0  0  0  0  0  0  0  0  0  0  0  0
    2.2902   -0.4740    1.6844 N   0  3  0  0  0  0  0  0  0  0  0  0
    0.3518   -1.3699    2.2096 C   0  0  0  0  0  0  0  0  0  0  0  0
    2.3206   -0.7325    2.9957 C   0  0  0  0  0  0  0  0  0  0  0  0
    1.1460   -1.2784    3.3272 N   0  0  0  0  0  0  0  0  0  0  0  0
   -1.5221    1.5532   -0.5874 H   0  0  0  0  0  0  0  0  0  0  0  0
    1.2626    1.4215   -0.3923 H   0  0  0  0  0  0  0  0  0  0  0  0
    1.5681   -1.0862   -0.9062 H   0  0  0  0  0  0  0  0  0  0  0  0
   -0.1152   -1.3427   -0.5246 H   0  0  0  0  0  0  0  0  0  0  0  0
    3.0506   -0.0568    1.1547 H   0  0  0  0  0  0  0  0  0  0  0  0
   -0.6253   -1.7932    2.3312 H   0  0  0  0  0  0  0  0  0  0  0  0
    3.1427   -0.5370    3.6638 H   0  0  0  0  0  0  0  0  0  0  0  0
    0.8841   -1.5789    4.2618 H   0  0  0  0  0  0  0  0  0  0  0  0
    0.8650   -0.1125   -2.8871 N   0  0  0  0  0  0  0  0  0  0  0  0
    0.8219   -0.2173   -4.3279 C   0  0  2  0  0  0  0  0  0  0  0  0
   -0.6378   -0.1679   -4.7596 C   0  0  0  0  0  0  0  0  0  0  0  0
   -1.5690   -0.4552   -4.0103 O   0  0  0  0  0  0  0  0  0  0  0  0
    1.4882   -1.4966   -4.8099 C   0  0  0  0  0  0  0  0  0  0  0  0
    1.4142   -0.7929   -2.3703 H   0  0  0  0  0  0  0  0  0  0  0  0
    1.3504    0.6564   -4.7245 H   0  0  0  0  0  0  0  0  0  0  0  0
    0.9724   -2.3829   -4.4226 H   0  0  0  0  0  0  0  0  0  0  0  0
    1.4800   -1.5607   -5.9030 H   0  0  0  0  0  0  0  0  0  0  0  0
    2.5294   -1.5444   -4.4732 H   0  0  0  0  0  0  0  0  0  0  0  0
   -0.7759    0.1932   -6.0926 N   0  0  0  0  0  0  0  0  0  0  0  0
   -2.0613    0.2986   -6.7426 C   0  0  0  0  0  0  0  0  0  0  0  0
    0.0498    0.4324   -6.6336 H   0  0  0  0  0  0  0  0  0  0  0  0
   -2.3094   -0.6593   -7.2231 H   0  0  0  0  0  0  0  0  0  0  0  0
   -2.8307    0.5441   -5.9958 H   0  0  0  0  0  0  0  0  0  0  0  0
   -2.0231    1.0915   -7.5040 H   0  0  0  0  0  0  0  0  0  0  0  0
 22 24  2  0  0  0  0
 24 26  1  0  0  0  0
 25 26  1  0  0  0  0
 23 25  2  0  0  0  0
 21 22  1  0  0  0  0
 22 23  1  0  0  0  0
  1  3  1  0  0  0  0
  1  7  1  0  0  0  0
  1  2  2  0  0  0  0
 36 37  1  0  0  0  0
 37 45  1  0  0  0  0
 37 38  2  0  0  0  0
  8  9  1  0  0  0  0
  9 17  1  0  0  0  0
  9 10  2  0  0  0  0
 18 19  1  0  0  0  0
 19 35  1  0  0  0  0
 19 20  2  0  0  0  0
 36 39  1  0  0  0  0
  8 11  1  0  0  0  0
 45 46  1  0  0  0  0
 18 21  1  0  0  0  0
 35 36  1  0  0  0  0
  7  8  1  0  0  0  0
 17 18  1  0  0  0  0
 24 32  1  0  0  0  0
 25 33  1  0  0  0  0
  3  4  1  0  0  0  0
  3  5  1  0  0  0  0
  3  6  1  0  0  0  0
 39 42  1  0  0  0  0
 39 43  1  0  0  0  0
 39 44  1  0  0  0  0
 11 14  1  0  0  0  0
 11 15  1  0  0  0  0
 11 16  1  0  0  0  0
 46 48  1  0  0  0  0
 46 49  1  0  0  0  0
 46 50  1  0  0  0  0
 21 29  1  0  0  0  0
 21 30  1  0  0  0  0
 36 41  1  0  0  0  0
  8 13  1  0  0  0  0
 18 28  1  0  0  0  0
 26 34  1  0  0  0  0
 23 31  1  0  0  0  0
 45 47  1  0  0  0  0
  7 12  1  0  0  0  0
 35 40  1  0  0  0  0
 17 27  1  0  0  0  0
M  CHG  1  23   1
M  END
$$$$

  -OEChem-05262214473D

 50 50  0     1  0  0  0  0  0999 V2000
   -1.6938    0.4865    3.8080 C   0  0  0  0  0  0  0  0  0  0  0  0
   -0.7464   -0.1282    3.3323 O   0  0  0  0  0  0  0  0  0  0  0  0
   -2.1257    0.2041    5.2087 C   0  0  0  0  0  0  0  0  0  0  0  0
   -2.8853   -0.5922    5.2621 H   0  0  0  0  0  0  0  0  0  0  0  0
   -1.2944   -0.1435    5.8430 H   0  0  0  0  0  0  0  0  0  0  0  0
   -2.5637    1.0590    5.7483 H   0  0  0  0  0  0  0  0  0  0  0  0
   -2.4435    1.4589    3.1669 N   0  0  0  0  0  0  0  0  0  0  0  0
   -2.1966    1.8850    1.8145 C   0  0  2  0  0  0  0  0  0  0  0  0
   -0.8617    1.2996    1.3733 C   0  0  0  0  0  0  0  0  0  0  0  0
    0.0104    0.9468    2.1646 O   0  0  0  0  0  0  0  0  0  0  0  0
   -2.1879    3.4017    1.7050 C   0  0  0  0  0  0  0  0  0  0  0  0
   -3.2085    1.8948    3.6787 H   0  0  0  0  0  0  0  0  0  0  0  0
   -3.0007    1.4665    1.1994 H   0  0  0  0  0  0  0  0  0  0  0  0
   -1.3888    3.8390    2.3147 H   0  0  0  0  0  0  0  0  0  0  0  0
   -2.0284    3.7240    0.6708 H   0  0  0  0  0  0  0  0  0  0  0  0
   -3.1380    3.8230    2.0508 H   0  0  0  0  0  0  0  0  0  0  0  0
   -0.7390    1.2565   -0.0101 N   0  0  0  0  0  0  0  0  0  0  0  0
    0.4383    0.7557   -0.6738 C   0  0  2  0  0  0  0  0  0  0  0  0
    0.1937    0.8710   -2.1741 C   0  0  0  0  0  0  0  0  0  0  0  0
   -0.2483    1.8884   -2.7037 O   0  0  0  0  0  0  0  0  0  0  0  0
    0.7431   -0.6978   -0.2937 C   0  0  0  0  0  0  0  0  0  0  0  0
    1.0766   -0.8610    1.1691 C   0  0  0  0  0  0  0  0  0  0  0  0
    2.2902   -0.4740    1.6844 N   0  3  0  0  0  0  0  0  0  0  0  0
    0.3518   -1.3699    2.2096 C   0  0  0  0  0  0  0  0  0  0  0  0
    2.3206   -0.7325    2.9957 C   0  0  0  0  0  0  0  0  0  0  0  0
    1.1460   -1.2784    3.3272 N   0  0  0  0  0  0  0  0  0  0  0  0
   -1.5221    1.5532   -0.5874 H   0  0  0  0  0  0  0  0  0  0  0  0
    1.2626    1.4215   -0.3923 H   0  0  0  0  0  0  0  0  0  0  0  0
    1.5681   -1.0862   -0.9062 H   0  0  0  0  0  0  0  0  0  0  0  0
   -0.1152   -1.3427   -0.5246 H   0  0  0  0  0  0  0  0  0  0  0  0
    3.0506   -0.0568    1.1547 H   0  0  0  0  0  0  0  0  0  0  0  0
   -0.6253   -1.7932    2.3312 H   0  0  0  0  0  0  0  0  0  0  0  0
    3.1427   -0.5370    3.6638 H   0  0  0  0  0  0  0  0  0  0  0  0
    0.8841   -1.5789    4.2618 H   0  0  0  0  0  0  0  0  0  0  0  0
    0.5748   -0.2783   -2.8526 N   0  0  0  0  0  0  0  0  0  0  0  0
    0.4705   -0.4247   -4.2866 C   0  0  2  0  0  0  0  0  0  0  0  0
   -0.9389   -0.0213   -4.6993 C   0  0  0  0  0  0  0  0  0  0  0  0
   -1.8936   -0.0321   -3.9249 O   0  0  0  0  0  0  0  0  0  0  0  0
    0.7773   -1.8494   -4.7211 C   0  0  0  0  0  0  0  0  0  0  0  0
    0.9457   -1.0556   -2.3141 H   0  0  0  0  0  0  0  0  0  0  0  0
    1.1938    0.2691   -4.7288 H   0  0  0  0  0  0  0  0  0  0  0  0
    0.0630   -2.5590   -4.2879 H   0  0  0  0  0  0  0  0  0  0  0  0
    0.7258   -1.9519   -5.8101 H   0  0  0  0  0  0  0  0  0  0  0  0
    1.7803   -2.1481   -4.3975 H   0  0  0  0  0  0  0  0  0  0  0  0
   -1.0139    0.3107   -6.0447 N   0  0  0  0  0  0  0  0  0  0  0  0
   -2.2461    0.7152   -6.6804 C   0  0  0  0  0  0  0  0  0  0  0  0
   -0.1683    0.3101   -6.6074 H   0  0  0  0  0  0  0  0  0  0  0  0
   -2.7416   -0.1657   -7.1147 H   0  0  0  0  0  0  0  0  0  0  0  0
   -2.9088    1.1778   -5.9343 H   0  0  0  0  0  0  0  0  0  0  0  0
   -2.0265    1.4418   -7.4765 H   0  0  0  0  0  0  0  0  0  0  0  0
 22 24  2  0  0  0  0
 24 26  1  0  0  0  0
 25 26  1  0  0  0  0
 23 25  2  0  0  0  0
 21 22  1  0  0  0  0
 22 23  1  0  0  0  0
  1  3  1  0  0  0  0
  1  7  1  0  0  0  0
  1  2  2  0  0  0  0
 36 37  1  0  0  0  0
 37 45  1  0  0  0  0
 37 38  2  0  0  0  0
  8  9  1  0  0  0  0
  9 17  1  0  0  0  0
  9 10  2  0  0  0  0
 18 19  1  0  0  0  0
 19 35  1  0  0  0  0
 19 20  2  0  0  0  0
 36 39  1  0  0  0  0
  8 11  1  0  0  0  0
 45 46  1  0  0  0  0
 18 21  1  0  0  0  0
 35 36  1  0  0  0  0
  7  8  1  0  0  0  0
 17 18  1  0  0  0  0
 24 32  1  0  0  0  0
 25 33  1  0  0  0  0
  3  4  1  0  0  0  0
  3  5  1  0  0  0  0
  3  6  1  0  0  0  0
 39 42  1  0  0  0  0
 39 43  1  0  0  0  0
 39 44  1  0  0  0  0
 11 14  1  0  0  0  0
 11 15  1  0  0  0  0
 11 16  1  0  0  0  0
 46 48  1  0  0  0  0
 46 49  1  0  0  0  0
 46 50  1  0  0  0  0
 21 29  1  0  0  0  0
 21 30  1  0  0  0  0
 36 41  1  0  0  0  0
  8 13  1  0  0  0  0
 18 28  1  0  0  0  0
 26 34  1  0  0  0  0
 23 31  1  0  0  0  0
 45 47  1  0  0  0  0
  7 12  1  0  0  0  0
 35 40  1  0  0  0  0
 17 27  1  0  0  0  0
M  CHG  1  23   1
M  END
$$$$

  -OEChem-05262214473D

 50 50  0     1  0  0  0  0  0999 V2000
   -1.6938    0.4865    3.8080 C   0  0  0  0  0  0  0  0  0  0  0  0
   -0.7464   -0.1282    3.3323 O   0  0  0  0  0  0  0  0  0  0  0  0
   -2.1257    0.2041    5.2087 C   0  0  0  0  0  0  0  0  0  0  0  0
   -2.8853   -0.5922    5.2621 H   0  0  0  0  0  0  0  0  0  0  0  0
   -1.2944   -0.1435    5.8430 H   0  0  0  0  0  0  0  0  0  0  0  0
   -2.5637    1.0590    5.7483 H   0  0  0  0  0  0  0  0  0  0  0  0
   -2.4435    1.4589    3.1669 N   0  0  0  0  0  0  0  0  0  0  0  0
   -2.1966    1.8850    1.8145 C   0  0  2  0  0  0  0  0  0  0  0  0
   -0.8617    1.2996    1.3733 C   0  0  0  0  0  0  0  0  0  0  0  0
    0.0104    0.9468    2.1646 O   0  0  0  0  0  0  0  0  0  0  0  0
   -2.1879    3.4017    1.7050 C   0  0  0  0  0  0  0  0  0  0  0  0
   -3.2085    1.8948    3.6787 H   0  0  0  0  0  0  0  0  0  0  0  0
   -3.0007    1.4665    1.1994 H   0  0  0  0  0  0  0  0  0  0  0  0
   -1.3888    3.8390    2.3147 H   0  0  0  0  0  0  0  0  0  0  0  0
   -2.0284    3.7240    0.6708 H   0  0  0  0  0  0  0  0  0  0  0  0
   -3.1380    3.8230    2.0508 H   0  0  0  0  0  0  0  0  0  0  0  0
   -0.7390    1.2565   -0.0101 N   0  0  0  0  0  0  0  0  0  0  0  0
    0.4383    0.7557   -0.6738 C   0  0  2  0  0  0  0  0  0  0  0  0
    0.1937    0.8710   -2.1741 C   0  0  0  0  0  0  0  0  0  0  0  0
    0.0118    1.9461   -2.7417 O   0  0  0  0  0  0  0  0  0  0  0  0
    0.7431   -0.6978   -0.2937 C   0  0  0  0  0  0  0  0  0  0  0  0
    1.0766   -0.8610    1.1691 C   0  0  0  0  0  0  0  0  0  0  0  0
    2.2902   -0.4740    1.6844 N   0  3  0  0  0  0  0  0  0  0  0  0
    0.3518   -1.3699    2.2096 C   0  0  0  0  0  0  0  0  0  0  0  0
    2.3206   -0.7325    2.9957 C   0  0  0  0  0  0  0  0  0  0  0  0
    1.1460   -1.2784    3.3272 N   0  0  0  0  0  0  0  0  0  0  0  0
   -1.5221    1.5532   -0.5874 H   0  0  0  0  0  0  0  0  0  0  0  0
    1.2626    1.4215   -0.3923 H   0  0  0  0  0  0  0  0  0  0  0  0
    1.5681   -1.0862   -0.9062 H   0  0  0  0  0  0  0  0  0  0  0  0
   -0.1152   -1.3427   -0.5246 H   0  0  0  0  0  0  0  0  0  0  0  0
    3.0506   -0.0568    1.1547 H   0  0  0  0  0  0  0  0  0  0  0  0
   -0.6253   -1.7932    2.3312 H   0  0  0  0  0  0  0  0  0  0  0  0
    3.1427   -0.5370    3.6638 H   0  0  0  0  0  0  0  0  0  0  0  0
    0.8841   -1.5789    4.2618 H   0  0  0  0  0  0  0  0  0  0  0  0
    0.2529   -0.3630   -2.8066 N   0  0  0  0  0  0  0  0  0  0  0  0
    0.0791   -0.5338   -4.2312 C   0  0  2  0  0  0  0  0  0  0  0  0
   -1.1913    0.1994   -4.6411 C   0  0  0  0  0  0  0  0  0  0  0  0
   -2.0976    0.4627   -3.8536 O   0  0  0  0  0  0  0  0  0  0  0  0
    0.0026   -2.0054   -4.6068 C   0  0  0  0  0  0  0  0  0  0  0  0
    0.4273   -1.1876   -2.2397 H   0  0  0  0  0  0  0  0  0  0  0  0
    0.9437   -0.0652   -4.7137 H   0  0  0  0  0  0  0  0  0  0  0  0
   -0.8577   -2.4918   -4.1326 H   0  0  0  0  0  0  0  0  0  0  0  0
   -0.1005   -2.1338   -5.6894 H   0  0  0  0  0  0  0  0  0  0  0  0
    0.9043   -2.5373   -4.2846 H   0  0  0  0  0  0  0  0  0  0  0  0
   -1.2129    0.4869   -5.9987 N   0  0  0  0  0  0  0  0  0  0  0  0
   -2.3172    1.1672   -6.6341 C   0  0  0  0  0  0  0  0  0  0  0  0
   -0.4096    0.2486   -6.5728 H   0  0  0  0  0  0  0  0  0  0  0  0
   -3.0311    0.4256   -7.0220 H   0  0  0  0  0  0  0  0  0  0  0  0
   -2.8217    1.8124   -5.8997 H   0  0  0  0  0  0  0  0  0  0  0  0
   -1.9400    1.7822   -7.4645 H   0  0  0  0  0  0  0  0  0  0  0  0
 22 24  2  0  0  0  0
 24 26  1  0  0  0  0
 25 26  1  0  0  0  0
 23 25  2  0  0  0  0
 21 22  1  0  0  0  0
 22 23  1  0  0  0  0
  1  3  1  0  0  0  0
  1  7  1  0  0  0  0
  1  2  2  0  0  0  0
 36 37  1  0  0  0  0
 37 45  1  0  0  0  0
 37 38  2  0  0  0  0
  8  9  1  0  0  0  0
  9 17  1  0  0  0  0
  9 10  2  0  0  0  0
 18 19  1  0  0  0  0
 19 35  1  0  0  0  0
 19 20  2  0  0  0  0
 36 39  1  0  0  0  0
  8 11  1  0  0  0  0
 45 46  1  0  0  0  0
 18 21  1  0  0  0  0
 35 36  1  0  0  0  0
  7  8  1  0  0  0  0
 17 18  1  0  0  0  0
 24 32  1  0  0  0  0
 25 33  1  0  0  0  0
  3  4  1  0  0  0  0
  3  5  1  0  0  0  0
  3  6  1  0  0  0  0
 39 42  1  0  0  0  0
 39 43  1  0  0  0  0
 39 44  1  0  0  0  0
 11 14  1  0  0  0  0
 11 15  1  0  0  0  0
 11 16  1  0  0  0  0
 46 48  1  0  0  0  0
 46 49  1  0  0  0  0
 46 50  1  0  0  0  0
 21 29  1  0  0  0  0
 21 30  1  0  0  0  0
 36 41  1  0  0  0  0
  8 13  1  0  0  0  0
 18 28  1  0  0  0  0
 26 34  1  0  0  0  0
 23 31  1  0  0  0  0
 45 47  1  0  0  0  0
  7 12  1  0  0  0  0
 35 40  1  0  0  0  0
 17 27  1  0  0  0  0
M  CHG  1  23   1
M  END
$$$$

  -OEChem-05262214473D

 50 50  0     1  0  0  0  0  0999 V2000
   -1.6938    0.4865    3.8080 C   0  0  0  0  0  0  0  0  0  0  0  0
   -0.7464   -0.1282    3.3323 O   0  0  0  0  0  0  0  0  0  0  0  0
   -2.1257    0.2041    5.2087 C   0  0  0  0  0  0  0  0  0  0  0  0
   -2.8853   -0.5922    5.2621 H   0  0  0  0  0  0  0  0  0  0  0  0
   -1.2944   -0.1435    5.8430 H   0  0  0  0  0  0  0  0  0  0  0  0
   -2.5637    1.0590    5.7483 H   0  0  0  0  0  0  0  0  0  0  0  0
   -2.4435    1.4589    3.1669 N   0  0  0  0  0  0  0  0  0  0  0  0
   -2.1966    1.8850    1.8145 C   0  0  2  0  0  0  0  0  0  0  0  0
   -0.8617    1.2996    1.3733 C   0  0  0  0  0  0  0  0  0  0  0  0
    0.0104    0.9468    2.1646 O   0  0  0  0  0  0  0  0  0  0  0  0
   -2.1879    3.4017    1.7050 C   0  0  0  0  0  0  0  0  0  0  0  0
   -3.2085    1.8948    3.6787 H   0  0  0  0  0  0  0  0  0  0  0  0
   -3.0007    1.4665    1.1994 H   0  0  0  0  0  0  0  0  0  0  0  0
   -1.3888    3.8390    2.3147 H   0  0  0  0  0  0  0  0  0  0  0  0
   -2.0284    3.7240    0.6708 H   0  0  0  0  0  0  0  0  0  0  0  0
   -3.1380    3.8230    2.0508 H   0  0  0  0  0  0  0  0  0  0  0  0
   -0.7390    1.2565   -0.0101 N   0  0  0  0  0  0  0  0  0  0  0  0
    0.4383    0.7557   -0.6738 C   0  0  2  0  0  0  0  0  0  0  0  0
    0.1937    0.8710   -2.1741 C   0  0  0  0  0  0  0  0  0  0  0  0
    0.2771    1.9339   -2.7859 O   0  0  0  0  0  0  0  0  0  0  0  0
    0.7431   -0.6978   -0.2937 C   0  0  0  0  0  0  0  0  0  0  0  0
    1.0766   -0.8610    1.1691 C   0  0  0  0  0  0  0  0  0  0  0  0
    2.2902   -0.4740    1.6844 N   0  3  0  0  0  0  0  0  0  0  0  0
    0.3518   -1.3699    2.2096 C   0  0  0  0  0  0  0  0  0  0  0  0
    2.3206   -0.7325    2.9957 C   0  0  0  0  0  0  0  0  0  0  0  0
    1.1460   -1.2784    3.3272 N   0  0  0  0  0  0  0  0  0  0  0  0
   -1.5221    1.5532   -0.5874 H   0  0  0  0  0  0  0  0  0  0  0  0
    1.2626    1.4215   -0.3923 H   0  0  0  0  0  0  0  0  0  0  0  0
    1.5681   -1.0862   -0.9062 H   0  0  0  0  0  0  0  0  0  0  0  0
   -0.1152   -1.3427   -0.5246 H   0  0  0  0  0  0  0  0  0  0  0  0
    3.0506   -0.0568    1.1547 H   0  0  0  0  0  0  0  0  0  0  0  0
   -0.6253   -1.7932    2.3312 H   0  0  0  0  0  0  0  0  0  0  0  0
    3.1427   -0.5370    3.6638 H   0  0  0  0  0  0  0  0  0  0  0  0
    0.8841   -1.5789    4.2618 H   0  0  0  0  0  0  0  0  0  0  0  0
   -0.0786   -0.3610   -2.7524 N   0  0  0  0  0  0  0  0  0  0  0  0
   -0.3257   -0.5371   -4.1654 C   0  0  2  0  0  0  0  0  0  0  0  0
   -1.3777    0.4793   -4.5892 C   0  0  0  0  0  0  0  0  0  0  0  0
   -2.1673    0.9957   -3.8012 O   0  0  0  0  0  0  0  0  0  0  0  0
   -0.7833   -1.9541   -4.4747 C   0  0  0  0  0  0  0  0  0  0  0  0
   -0.1056   -1.1800   -2.1522 H   0  0  0  0  0  0  0  0  0  0  0  0
    0.6174   -0.3239   -4.6804 H   0  0  0  0  0  0  0  0  0  0  0  0
   -1.7269   -2.1860   -3.9674 H   0  0  0  0  0  0  0  0  0  0  0  0
   -0.9426   -2.0940   -5.5490 H   0  0  0  0  0  0  0  0  0  0  0  0
   -0.0387   -2.6854   -4.1423 H   0  0  0  0  0  0  0  0  0  0  0  0
   -1.3594    0.7097   -5.9577 N   0  0  0  0  0  0  0  0  0  0  0  0
   -2.2699    1.6239   -6.6067 C   0  0  0  0  0  0  0  0  0  0  0  0
   -0.6576    0.2521   -6.5321 H   0  0  0  0  0  0  0  0  0  0  0  0
   -3.1583    1.0745   -6.9514 H   0  0  0  0  0  0  0  0  0  0  0  0
   -2.5752    2.4045   -5.8944 H   0  0  0  0  0  0  0  0  0  0  0  0
   -1.7695    2.0894   -7.4686 H   0  0  0  0  0  0  0  0  0  0  0  0
 22 24  2  0  0  0  0
 24 26  1  0  0  0  0
 25 26  1  0  0  0  0
 23 25  2  0  0  0  0
 21 22  1  0  0  0  0
 22 23  1  0  0  0  0
  1  3  1  0  0  0  0
  1  7  1  0  0  0  0
  1  2  2  0  0  0  0
 36 37  1  0  0  0  0
 37 45  1  0  0  0  0
 37 38  2  0  0  0  0
  8  9  1  0  0  0  0
  9 17  1  0  0  0  0
  9 10  2  0  0  0  0
 18 19  1  0  0  0  0
 19 35  1  0  0  0  0
 19 20  2  0  0  0  0
 36 39  1  0  0  0  0
  8 11  1  0  0  0  0
 45 46  1  0  0  0  0
 18 21  1  0  0  0  0
 35 36  1  0  0  0  0
  7  8  1  0  0  0  0
 17 18  1  0  0  0  0
 24 32  1  0  0  0  0
 25 33  1  0  0  0  0
  3  4  1  0  0  0  0
  3  5  1  0  0  0  0
  3  6  1  0  0  0  0
 39 42  1  0  0  0  0
 39 43  1  0  0  0  0
 39 44  1  0  0  0  0
 11 14  1  0  0  0  0
 11 15  1  0  0  0  0
 11 16  1  0  0  0  0
 46 48  1  0  0  0  0
 46 49  1  0  0  0  0
 46 50  1  0  0  0  0
 21 29  1  0  0  0  0
 21 30  1  0  0  0  0
 36 41  1  0  0  0  0
  8 13  1  0  0  0  0
 18 28  1  0  0  0  0
 26 34  1  0  0  0  0
 23 31  1  0  0  0  0
 45 47  1  0  0  0  0
  7 12  1  0  0  0  0
 35 40  1  0  0  0  0
 17 27  1  0  0  0  0
M  CHG  1  23   1
M  END
$$$$

  -OEChem-05262214473D

 50 50  0     1  0  0  0  0  0999 V2000
   -1.6938    0.4865    3.8080 C   0  0  0  0  0  0  0  0  0  0  0  0
   -0.7464   -0.1282    3.3323 O   0  0  0  0  0  0  0  0  0  0  0  0
   -2.1257    0.2041    5.2087 C   0  0  0  0  0  0  0  0  0  0  0  0
   -2.8853   -0.5922    5.2621 H   0  0  0  0  0  0  0  0  0  0  0  0
   -1.2944   -0.1435    5.8430 H   0  0  0  0  0  0  0  0  0  0  0  0
   -2.5637    1.0590    5.7483 H   0  0  0  0  0  0  0  0  0  0  0  0
   -2.4435    1.4589    3.1669 N   0  0  0  0  0  0  0  0  0  0  0  0
   -2.1966    1.8850    1.8145 C   0  0  2  0  0  0  0  0  0  0  0  0
   -0.8617    1.2996    1.3733 C   0  0  0  0  0  0  0  0  0  0  0  0
    0.0104    0.9468    2.1646 O   0  0  0  0  0  0  0  0  0  0  0  0
   -2.1879    3.4017    1.7050 C   0  0  0  0  0  0  0  0  0  0  0  0
   -3.2085    1.8948    3.6787 H   0  0  0  0  0  0  0  0  0  0  0  0
   -3.0007    1.4665    1.1994 H   0  0  0  0  0  0  0  0  0  0  0  0
   -1.3888    3.8390    2.3147 H   0  0  0  0  0  0  0  0  0  0  0  0
   -2.0284    3.7240    0.6708 H   0  0  0  0  0  0  0  0  0  0  0  0
   -3.1380    3.8230    2.0508 H   0  0  0  0  0  0  0  0  0  0  0  0
   -0.7390    1.2565   -0.0101 N   0  0  0  0  0  0  0  0  0  0  0  0
    0.4383    0.7557   -0.6738 C   0  0  2  0  0  0  0  0  0  0  0  0
    0.1937    0.8710   -2.1741 C   0  0  0  0  0  0  0  0  0  0  0  0
    0.5293    1.8528   -2.8333 O   0  0  0  0  0  0  0  0  0  0  0  0
    0.7431   -0.6978   -0.2937 C   0  0  0  0  0  0  0  0  0  0  0  0
    1.0766   -0.8610    1.1691 C   0  0  0  0  0  0  0  0  0  0  0  0
    2.2902   -0.4740    1.6844 N   0  3  0  0  0  0  0  0  0  0  0  0
    0.3518   -1.3699    2.2096 C   0  0  0  0  0  0  0  0  0  0  0  0
    2.3206   -0.7325    2.9957 C   0  0  0  0  0  0  0  0  0  0  0  0
    1.1460   -1.2784    3.3272 N   0  0  0  0  0  0  0  0  0  0  0  0
   -1.5221    1.5532   -0.5874 H   0  0  0  0  0  0  0  0  0  0  0  0
    1.2626    1.4215   -0.3923 H   0  0  0  0  0  0  0  0  0  0  0  0
    1.5681   -1.0862   -0.9062 H   0  0  0  0  0  0  0  0  0  0  0  0
   -0.1152   -1.3427   -0.5246 H   0  0  0  0  0  0  0  0  0  0  0  0
    3.0506   -0.0568    1.1547 H   0  0  0  0  0  0  0  0  0  0  0  0
   -0.6253   -1.7932    2.3312 H   0  0  0  0  0  0  0  0  0  0  0  0
    3.1427   -0.5370    3.6638 H   0  0  0  0  0  0  0  0  0  0  0  0
    0.8841   -1.5789    4.2618 H   0  0  0  0  0  0  0  0  0  0  0  0
   -0.3973   -0.2723   -2.6936 N   0  0  0  0  0  0  0  0  0  0  0  0
   -0.7163   -0.4346   -4.0939 C   0  0  2  0  0  0  0  0  0  0  0  0
   -1.4854    0.7993   -4.5471 C   0  0  0  0  0  0  0  0  0  0  0  0
   -2.0979    1.5304   -3.7715 O   0  0  0  0  0  0  0  0  0  0  0  0
   -1.5267   -1.6988   -4.3339 C   0  0  0  0  0  0  0  0  0  0  0  0
   -0.6168   -1.0333   -2.0576 H   0  0  0  0  0  0  0  0  0  0  0  0
    0.2369   -0.4892   -4.6311 H   0  0  0  0  0  0  0  0  0  0  0  0
   -2.4853   -1.6624   -3.8035 H   0  0  0  0  0  0  0  0  0  0  0  0
   -1.7431   -1.8352   -5.3986 H   0  0  0  0  0  0  0  0  0  0  0  0
   -0.9845   -2.5823   -3.9801 H   0  0  0  0  0  0  0  0  0  0  0  0
   -1.4433    0.9638   -5.9245 N   0  0  0  0  0  0  0  0  0  0  0  0
   -2.1073    2.0541   -6.6001 C   0  0  0  0  0  0  0  0  0  0  0  0
   -0.8956    0.3203   -6.4881 H   0  0  0  0  0  0  0  0  0  0  0  0
   -3.1146    1.7365   -6.9077 H   0  0  0  0  0  0  0  0  0  0  0  0
   -2.1862    2.9139   -5.9186 H   0  0  0  0  0  0  0  0  0  0  0  0
   -1.5267    2.3426   -7.4888 H   0  0  0  0  0  0  0  0  0  0  0  0
 22 24  2  0  0  0  0
 24 26  1  0  0  0  0
 25 26  1  0  0  0  0
 23 25  2  0  0  0  0
 21 22  1  0  0  0  0
 22 23  1  0  0  0  0
  1  3  1  0  0  0  0
  1  7  1  0  0  0  0
  1  2  2  0  0  0  0
 36 37  1  0  0  0  0
 37 45  1  0  0  0  0
 37 38  2  0  0  0  0
  8  9  1  0  0  0  0
  9 17  1  0  0  0  0
  9 10  2  0  0  0  0
 18 19  1  0  0  0  0
 19 35  1  0  0  0  0
 19 20  2  0  0  0  0
 36 39  1  0  0  0  0
  8 11  1  0  0  0  0
 45 46  1  0  0  0  0
 18 21  1  0  0  0  0
 35 36  1  0  0  0  0
  7  8  1  0  0  0  0
 17 18  1  0  0  0  0
 24 32  1  0  0  0  0
 25 33  1  0  0  0  0
  3  4  1  0  0  0  0
  3  5  1  0  0  0  0
  3  6  1  0  0  0  0
 39 42  1  0  0  0  0
 39 43  1  0  0  0  0
 39 44  1  0  0  0  0
 11 14  1  0  0  0  0
 11 15  1  0  0  0  0
 11 16  1  0  0  0  0
 46 48  1  0  0  0  0
 46 49  1  0  0  0  0
 46 50  1  0  0  0  0
 21 29  1  0  0  0  0
 21 30  1  0  0  0  0
 36 41  1  0  0  0  0
  8 13  1  0  0  0  0
 18 28  1  0  0  0  0
 26 34  1  0  0  0  0
 23 31  1  0  0  0  0
 45 47  1  0  0  0  0
  7 12  1  0  0  0  0
 35 40  1  0  0  0  0
 17 27  1  0  0  0  0
M  CHG  1  23   1
M  END
$$$$

  -OEChem-05262214473D

 50 50  0     1  0  0  0  0  0999 V2000
   -1.6938    0.4865    3.8080 C   0  0  0  0  0  0  0  0  0  0  0  0
   -0.7464   -0.1282    3.3323 O   0  0  0  0  0  0  0  0  0  0  0  0
   -2.1257    0.2041    5.2087 C   0  0  0  0  0  0  0  0  0  0  0  0
   -2.8853   -0.5922    5.2621 H   0  0  0  0  0  0  0  0  0  0  0  0
   -1.2944   -0.1435    5.8430 H   0  0  0  0  0  0  0  0  0  0  0  0
   -2.5637    1.0590    5.7483 H   0  0  0  0  0  0  0  0  0  0  0  0
   -2.4435    1.4589    3.1669 N   0  0  0  0  0  0  0  0  0  0  0  0
   -2.1966    1.8850    1.8145 C   0  0  2  0  0  0  0  0  0  0  0  0
   -0.8617    1.2996    1.3733 C   0  0  0  0  0  0  0  0  0  0  0  0
    0.0104    0.9468    2.1646 O   0  0  0  0  0  0  0  0  0  0  0  0
   -2.1879    3.4017    1.7050 C   0  0  0  0  0  0  0  0  0  0  0  0
   -3.2085    1.8948    3.6787 H   0  0  0  0  0  0  0  0  0  0  0  0
   -3.0007    1.4665    1.1994 H   0  0  0  0  0  0  0  0  0  0  0  0
   -1.3888    3.8390    2.3147 H   0  0  0  0  0  0  0  0  0  0  0  0
   -2.0284    3.7240    0.6708 H   0  0  0  0  0  0  0  0  0  0  0  0
   -3.1380    3.8230    2.0508 H   0  0  0  0  0  0  0  0  0  0  0  0
   -0.7390    1.2565   -0.0101 N   0  0  0  0  0  0  0  0  0  0  0  0
    0.4383    0.7557   -0.6738 C   0  0  2  0  0  0  0  0  0  0  0  0
    0.1937    0.8710   -2.1741 C   0  0  0  0  0  0  0  0  0  0  0  0
    0.7514    1.7082   -2.8806 O   0  0  0  0  0  0  0  0  0  0  0  0
    0.7431   -0.6978   -0.2937 C   0  0  0  0  0  0  0  0  0  0  0  0
    1.0766   -0.8610    1.1691 C   0  0  0  0  0  0  0  0  0  0  0  0
    2.2902   -0.4740    1.6844 N   0  3  0  0  0  0  0  0  0  0  0  0
    0.3518   -1.3699    2.2096 C   0  0  0  0  0  0  0  0  0  0  0  0
    2.3206   -0.7325    2.9957 C   0  0  0  0  0  0  0  0  0  0  0  0
    1.1460   -1.2784    3.3272 N   0  0  0  0  0  0  0  0  0  0  0  0
   -1.5221    1.5532   -0.5874 H   0  0  0  0  0  0  0  0  0  0  0  0
    1.2626    1.4215   -0.3923 H   0  0  0  0  0  0  0  0  0  0  0  0
    1.5681   -1.0862   -0.9062 H   0  0  0  0  0  0  0  0  0  0  0  0
   -0.1152   -1.3427   -0.5246 H   0  0  0  0  0  0  0  0  0  0  0  0
    3.0506   -0.0568    1.1547 H   0  0  0  0  0  0  0  0  0  0  0  0
   -0.6253   -1.7932    2.3312 H   0  0  0  0  0  0  0  0  0  0  0  0
    3.1427   -0.5370    3.6638 H   0  0  0  0  0  0  0  0  0  0  0  0
    0.8841   -1.5789    4.2618 H   0  0  0  0  0  0  0  0  0  0  0  0
   -0.6814   -0.1030   -2.6343 N   0  0  0  0  0  0  0  0  0  0  0  0
   -1.0660   -0.2330   -4.0214 C   0  0  2  0  0  0  0  0  0  0  0  0
   -1.5071    1.1376   -4.5175 C   0  0  0  0  0  0  0  0  0  0  0  0
   -1.8940    2.0304   -3.7663 O   0  0  0  0  0  0  0  0  0  0  0  0
   -2.1770   -1.2570   -4.1939 C   0  0  0  0  0  0  0  0  0  0  0  0
   -1.0712   -0.7575   -1.9623 H   0  0  0  0  0  0  0  0  0  0  0  0
   -0.1718   -0.5499   -4.5691 H   0  0  0  0  0  0  0  0  0  0  0  0
   -3.0813   -0.9566   -3.6521 H   0  0  0  0  0  0  0  0  0  0  0  0
   -2.4475   -1.3751   -5.2484 H   0  0  0  0  0  0  0  0  0  0  0  0
   -1.8687   -2.2352   -3.8093 H   0  0  0  0  0  0  0  0  0  0  0  0
   -1.4590    1.2321   -5.9013 N   0  0  0  0  0  0  0  0  0  0  0  0
   -1.8406    2.4285   -6.6148 C   0  0  0  0  0  0  0  0  0  0  0  0
   -1.1071    0.4487   -6.4437 H   0  0  0  0  0  0  0  0  0  0  0  0
   -2.9028    2.3666   -6.8937 H   0  0  0  0  0  0  0  0  0  0  0  0
   -1.6812    3.3059   -5.9708 H   0  0  0  0  0  0  0  0  0  0  0  0
   -1.2280    2.5244   -7.5235 H   0  0  0  0  0  0  0  0  0  0  0  0
 22 24  2  0  0  0  0
 24 26  1  0  0  0  0
 25 26  1  0  0  0  0
 23 25  2  0  0  0  0
 21 22  1  0  0  0  0
 22 23  1  0  0  0  0
  1  3  1  0  0  0  0
  1  7  1  0  0  0  0
  1  2  2  0  0  0  0
 36 37  1  0  0  0  0
 37 45  1  0  0  0  0
 37 38  2  0  0  0  0
  8  9  1  0  0  0  0
  9 17  1  0  0  0  0
  9 10  2  0  0  0  0
 18 19  1  0  0  0  0
 19 35  1  0  0  0  0
 19 20  2  0  0  0  0
 36 39  1  0  0  0  0
  8 11  1  0  0  0  0
 45 46  1  0  0  0  0
 18 21  1  0  0  0  0
 35 36  1  0  0  0  0
  7  8  1  0  0  0  0
 17 18  1  0  0  0  0
 24 32  1  0  0  0  0
 25 33  1  0  0  0  0
  3  4  1  0  0  0  0
  3  5  1  0  0  0  0
  3  6  1  0  0  0  0
 39 42  1  0  0  0  0
 39 43  1  0  0  0  0
 39 44  1  0  0  0  0
 11 14  1  0  0  0  0
 11 15  1  0  0  0  0
 11 16  1  0  0  0  0
 46 48  1  0  0  0  0
 46 49  1  0  0  0  0
 46 50  1  0  0  0  0
 21 29  1  0  0  0  0
 21 30  1  0  0  0  0
 36 41  1  0  0  0  0
  8 13  1  0  0  0  0
 18 28  1  0  0  0  0
 26 34  1  0  0  0  0
 23 31  1  0  0  0  0
 45 47  1  0  0  0  0
  7 12  1  0  0  0  0
 35 40  1  0  0  0  0
 17 27  1  0  0  0  0
M  CHG  1  23   1
M  END
$$$$

  -OEChem-05262214473D

 50 50  0     1  0  0  0  0  0999 V2000
   -1.6938    0.4865    3.8080 C   0  0  0  0  0  0  0  0  0  0  0  0
   -0.7464   -0.1282    3.3323 O   0  0  0  0  0  0  0  0  0  0  0  0
   -2.1257    0.2041    5.2087 C   0  0  0  0  0  0  0  0  0  0  0  0
   -2.8853   -0.5922    5.2621 H   0  0  0  0  0  0  0  0  0  0  0  0
   -1.2944   -0.1435    5.8430 H   0  0  0  0  0  0  0  0  0  0  0  0
   -2.5637    1.0590    5.7483 H   0  0  0  0  0  0  0  0  0  0  0  0
   -2.4435    1.4589    3.1669 N   0  0  0  0  0  0  0  0  0  0  0  0
   -2.1966    1.8850    1.8145 C   0  0  2  0  0  0  0  0  0  0  0  0
   -0.8617    1.2996    1.3733 C   0  0  0  0  0  0  0  0  0  0  0  0
    0.0104    0.9468    2.1646 O   0  0  0  0  0  0  0  0  0  0  0  0
   -2.1879    3.4017    1.7050 C   0  0  0  0  0  0  0  0  0  0  0  0
   -3.2085    1.8948    3.6787 H   0  0  0  0  0  0  0  0  0  0  0  0
   -3.0007    1.4665    1.1994 H   0  0  0  0  0  0  0  0  0  0  0  0
   -1.3888    3.8390    2.3147 H   0  0  0  0  0  0  0  0  0  0  0  0
   -2.0284    3.7240    0.6708 H   0  0  0  0  0  0  0  0  0  0  0  0
   -3.1380    3.8230    2.0508 H   0  0  0  0  0  0  0  0  0  0  0  0
   -0.7390    1.2565   -0.0101 N   0  0  0  0  0  0  0  0  0  0  0  0
    0.4383    0.7557   -0.6738 C   0  0  2  0  0  0  0  0  0  0  0  0
    0.1937    0.8710   -2.1741 C   0  0  0  0  0  0  0  0  0  0  0  0
    0.9281    1.5100   -2.9246 O   0  0  0  0  0  0  0  0  0  0  0  0
    0.7431   -0.6978   -0.2937 C   0  0  0  0  0  0  0  0  0  0  0  0
    1.0766   -0.8610    1.1691 C   0  0  0  0  0  0  0  0  0  0  0  0
    2.2902   -0.4740    1.6844 N   0  3  0  0  0  0  0  0  0  0  0  0
    0.3518   -1.3699    2.2096 C   0  0  0  0  0  0  0  0  0  0  0  0
    2.3206   -0.7325    2.9957 C   0  0  0  0  0  0  0  0  0  0  0  0
    1.1460   -1.2784    3.3272 N   0  0  0  0  0  0  0  0  0  0  0  0
   -1.5221    1.5532   -0.5874 H   0  0  0  0  0  0  0  0  0  0  0  0
    1.2626    1.4215   -0.3923 H   0  0  0  0  0  0  0  0  0  0  0  0
    1.5681   -1.0862   -0.9062 H   0  0  0  0  0  0  0  0  0  0  0  0
   -0.1152   -1.3427   -0.5246 H   0  0  0  0  0  0  0  0  0  0  0  0
    3.0506   -0.0568    1.1547 H   0  0  0  0  0  0  0  0  0  0  0  0
   -0.6253   -1.7932    2.3312 H   0  0  0  0  0  0  0  0  0  0  0  0
    3.1427   -0.5370    3.6638 H   0  0  0  0  0  0  0  0  0  0  0  0
    0.8841   -1.5789    4.2618 H   0  0  0  0  0  0  0  0  0  0  0  0
   -0.9116    0.1353   -2.5784 N   0  0  0  0  0  0  0  0  0  0  0  0
   -1.3511    0.0538   -3.9528 C   0  0  2  0  0  0  0  0  0  0  0  0
   -1.4414    1.4712   -4.5026 C   0  0  0  0  0  0  0  0  0  0  0  0
   -1.5696    2.4617   -3.7860 O   0  0  0  0  0  0  0  0  0  0  0  0
   -2.6899   -0.6588   -4.0643 C   0  0  0  0  0  0  0  0  0  0  0  0
   -1.4381   -0.3714   -1.8728 H   0  0  0  0  0  0  0  0  0  0  0  0
   -0.5808   -0.5019   -4.4987 H   0  0  0  0  0  0  0  0  0  0  0  0
   -3.4742   -0.1168   -3.5235 H   0  0  0  0  0  0  0  0  0  0  0  0
   -3.0078   -0.7450   -5.1086 H   0  0  0  0  0  0  0  0  0  0  0  0
   -2.6310   -1.6675   -3.6414 H   0  0  0  0  0  0  0  0  0  0  0  0
   -1.4053    1.4962   -5.8898 N   0  0  0  0  0  0  0  0  0  0  0  0
   -1.4878    2.7216   -6.6498 C   0  0  0  0  0  0  0  0  0  0  0  0
   -1.2780    0.6284   -6.4020 H   0  0  0  0  0  0  0  0  0  0  0  0
   -2.5375    2.9220   -6.9106 H   0  0  0  0  0  0  0  0  0  0  0  0
   -1.0945    3.5537   -6.0474 H   0  0  0  0  0  0  0  0  0  0  0  0
   -0.8939    2.6226   -7.5704 H   0  0  0  0  0  0  0  0  0  0  0  0
 22 24  2  0  0  0  0
 24 26  1  0  0  0  0
 25 26  1  0  0  0  0
 23 25  2  0  0  0  0
 21 22  1  0  0  0  0
 22 23  1  0  0  0  0
  1  3  1  0  0  0  0
  1  7  1  0  0  0  0
  1  2  2  0  0  0  0
 36 37  1  0  0  0  0
 37 45  1  0  0  0  0
 37 38  2  0  0  0  0
  8  9  1  0  0  0  0
  9 17  1  0  0  0  0
  9 10  2  0  0  0  0
 18 19  1  0  0  0  0
 19 35  1  0  0  0  0
 19 20  2  0  0  0  0
 36 39  1  0  0  0  0
  8 11  1  0  0  0  0
 45 46  1  0  0  0  0
 18 21  1  0  0  0  0
 35 36  1  0  0  0  0
  7  8  1  0  0  0  0
 17 18  1  0  0  0  0
 24 32  1  0  0  0  0
 25 33  1  0  0  0  0
  3  4  1  0  0  0  0
  3  5  1  0  0  0  0
  3  6  1  0  0  0  0
 39 42  1  0  0  0  0
 39 43  1  0  0  0  0
 39 44  1  0  0  0  0
 11 14  1  0  0  0  0
 11 15  1  0  0  0  0
 11 16  1  0  0  0  0
 46 48  1  0  0  0  0
 46 49  1  0  0  0  0
 46 50  1  0  0  0  0
 21 29  1  0  0  0  0
 21 30  1  0  0  0  0
 36 41  1  0  0  0  0
  8 13  1  0  0  0  0
 18 28  1  0  0  0  0
 26 34  1  0  0  0  0
 23 31  1  0  0  0  0
 45 47  1  0  0  0  0
  7 12  1  0  0  0  0
 35 40  1  0  0  0  0
 17 27  1  0  0  0  0
M  CHG  1  23   1
M  END
$$$$

  -OEChem-05262214473D

 50 50  0     1  0  0  0  0  0999 V2000
   -1.6938    0.4865    3.8080 C   0  0  0  0  0  0  0  0  0  0  0  0
   -0.7464   -0.1282    3.3323 O   0  0  0  0  0  0  0  0  0  0  0  0
   -2.1257    0.2041    5.2087 C   0  0  0  0  0  0  0  0  0  0  0  0
   -2.8853   -0.5922    5.2621 H   0  0  0  0  0  0  0  0  0  0  0  0
   -1.2944   -0.1435    5.8430 H   0  0  0  0  0  0  0  0  0  0  0  0
   -2.5637    1.0590    5.7483 H   0  0  0  0  0  0  0  0  0  0  0  0
   -2.4435    1.4589    3.1669 N   0  0  0  0  0  0  0  0  0  0  0  0
   -2.1966    1.8850    1.8145 C   0  0  2  0  0  0  0  0  0  0  0  0
   -0.8617    1.2996    1.3733 C   0  0  0  0  0  0  0  0  0  0  0  0
    0.0104    0.9468    2.1646 O   0  0  0  0  0  0  0  0  0  0  0  0
   -2.1879    3.4017    1.7050 C   0  0  0  0  0  0  0  0  0  0  0  0
   -3.2085    1.8948    3.6787 H   0  0  0  0  0  0  0  0  0  0  0  0
   -3.0007    1.4665    1.1994 H   0  0  0  0  0  0  0  0  0  0  0  0
   -1.3888    3.8390    2.3147 H   0  0  0  0  0  0  0  0  0  0  0  0
   -2.0284    3.7240    0.6708 H   0  0  0  0  0  0  0  0  0  0  0  0
   -3.1380    3.8230    2.0508 H   0  0  0  0  0  0  0  0  0  0  0  0
   -0.7390    1.2565   -0.0101 N   0  0  0  0  0  0  0  0  0  0  0  0
    0.4383    0.7557   -0.6738 C   0  0  2  0  0  0  0  0  0  0  0  0
    0.1937    0.8710   -2.1741 C   0  0  0  0  0  0  0  0  0  0  0  0
    1.0475    1.2717   -2.9624 O   0  0  0  0  0  0  0  0  0  0  0  0
    0.7431   -0.6978   -0.2937 C   0  0  0  0  0  0  0  0  0  0  0  0
    1.0766   -0.8610    1.1691 C   0  0  0  0  0  0  0  0  0  0  0  0
    2.2902   -0.4740    1.6844 N   0  3  0  0  0  0  0  0  0  0  0  0
    0.3518   -1.3699    2.2096 C   0  0  0  0  0  0  0  0  0  0  0  0
    2.3206   -0.7325    2.9957 C   0  0  0  0  0  0  0  0  0  0  0  0
    1.1460   -1.2784    3.3272 N   0  0  0  0  0  0  0  0  0  0  0  0
   -1.5221    1.5532   -0.5874 H   0  0  0  0  0  0  0  0  0  0  0  0
    1.2626    1.4215   -0.3923 H   0  0  0  0  0  0  0  0  0  0  0  0
    1.5681   -1.0862   -0.9062 H   0  0  0  0  0  0  0  0  0  0  0  0
   -0.1152   -1.3427   -0.5246 H   0  0  0  0  0  0  0  0  0  0  0  0
    3.0506   -0.0568    1.1547 H   0  0  0  0  0  0  0  0  0  0  0  0
   -0.6253   -1.7932    2.3312 H   0  0  0  0  0  0  0  0  0  0  0  0
    3.1427   -0.5370    3.6638 H   0  0  0  0  0  0  0  0  0  0  0  0
    0.8841   -1.5789    4.2618 H   0  0  0  0  0  0  0  0  0  0  0  0
   -1.0721    0.4264   -2.5299 N   0  0  0  0  0  0  0  0  0  0  0  0
   -1.5520    0.4062   -3.8930 C   0  0  2  0  0  0  0  0  0  0  0  0
   -1.2926    1.7772   -4.5033 C   0  0  0  0  0  0  0  0  0  0  0  0
   -1.1468    2.7948   -3.8293 O   0  0  0  0  0  0  0  0  0  0  0  0
   -3.0304    0.0550   -3.9539 C   0  0  0  0  0  0  0  0  0  0  0  0
   -1.6923    0.0988   -1.7953 H   0  0  0  0  0  0  0  0  0  0  0  0
   -0.9623   -0.3484   -4.4247 H   0  0  0  0  0  0  0  0  0  0  0  0
   -3.6373    0.7999   -3.4264 H   0  0  0  0  0  0  0  0  0  0  0  0
   -3.3857    0.0121   -4.9888 H   0  0  0  0  0  0  0  0  0  0  0  0
   -3.2194   -0.9181   -3.4878 H   0  0  0  0  0  0  0  0  0  0  0  0
   -1.2860    1.7381   -5.8906 N   0  0  0  0  0  0  0  0  0  0  0  0
   -1.0731    2.9134   -6.7027 C   0  0  0  0  0  0  0  0  0  0  0  0
   -1.3963    0.8472   -6.3659 H   0  0  0  0  0  0  0  0  0  0  0  0
   -2.0435    3.3646   -6.9571 H   0  0  0  0  0  0  0  0  0  0  0  0
   -0.4662    3.6405   -6.1432 H   0  0  0  0  0  0  0  0  0  0  0  0
   -0.5471    2.6303   -7.6263 H   0  0  0  0  0  0  0  0  0  0  0  0
 22 24  2  0  0  0  0
 24 26  1  0  0  0  0
 25 26  1  0  0  0  0
 23 25  2  0  0  0  0
 21 22  1  0  0  0  0
 22 23  1  0  0  0  0
  1  3  1  0  0  0  0
  1  7  1  0  0  0  0
  1  2  2  0  0  0  0
 36 37  1  0  0  0  0
 37 45  1  0  0  0  0
 37 38  2  0  0  0  0
  8  9  1  0  0  0  0
  9 17  1  0  0  0  0
  9 10  2  0  0  0  0
 18 19  1  0  0  0  0
 19 35  1  0  0  0  0
 19 20  2  0  0  0  0
 36 39  1  0  0  0  0
  8 11  1  0  0  0  0
 45 46  1  0  0  0  0
 18 21  1  0  0  0  0
 35 36  1  0  0  0  0
  7  8  1  0  0  0  0
 17 18  1  0  0  0  0
 24 32  1  0  0  0  0
 25 33  1  0  0  0  0
  3  4  1  0  0  0  0
  3  5  1  0  0  0  0
  3  6  1  0  0  0  0
 39 42  1  0  0  0  0
 39 43  1  0  0  0  0
 39 44  1  0  0  0  0
 11 14  1  0  0  0  0
 11 15  1  0  0  0  0
 11 16  1  0  0  0  0
 46 48  1  0  0  0  0
 46 49  1  0  0  0  0
 46 50  1  0  0  0  0
 21 29  1  0  0  0  0
 21 30  1  0  0  0  0
 36 41  1  0  0  0  0
  8 13  1  0  0  0  0
 18 28  1  0  0  0  0
 26 34  1  0  0  0  0
 23 31  1  0  0  0  0
 45 47  1  0  0  0  0
  7 12  1  0  0  0  0
 35 40  1  0  0  0  0
 17 27  1  0  0  0  0
M  CHG  1  23   1
M  END
$$$$

  -OEChem-05262214473D

 50 50  0     1  0  0  0  0  0999 V2000
   -1.6938    0.4865    3.8080 C   0  0  0  0  0  0  0  0  0  0  0  0
   -0.7464   -0.1282    3.3323 O   0  0  0  0  0  0  0  0  0  0  0  0
   -2.1257    0.2041    5.2087 C   0  0  0  0  0  0  0  0  0  0  0  0
   -2.8853   -0.5922    5.2621 H   0  0  0  0  0  0  0  0  0  0  0  0
   -1.2944   -0.1435    5.8430 H   0  0  0  0  0  0  0  0  0  0  0  0
   -2.5637    1.0590    5.7483 H   0  0  0  0  0  0  0  0  0  0  0  0
   -2.4435    1.4589    3.1669 N   0  0  0  0  0  0  0  0  0  0  0  0
   -2.1966    1.8850    1.8145 C   0  0  2  0  0  0  0  0  0  0  0  0
   -0.8617    1.2996    1.3733 C   0  0  0  0  0  0  0  0  0  0  0  0
    0.0104    0.9468    2.1646 O   0  0  0  0  0  0  0  0  0  0  0  0
   -2.1879    3.4017    1.7050 C   0  0  0  0  0  0  0  0  0  0  0  0
   -3.2085    1.8948    3.6787 H   0  0  0  0  0  0  0  0  0  0  0  0
   -3.0007    1.4665    1.1994 H   0  0  0  0  0  0  0  0  0  0  0  0
   -1.3888    3.8390    2.3147 H   0  0  0  0  0  0  0  0  0  0  0  0
   -2.0284    3.7240    0.6708 H   0  0  0  0  0  0  0  0  0  0  0  0
   -3.1380    3.8230    2.0508 H   0  0  0  0  0  0  0  0  0  0  0  0
   -0.7390    1.2565   -0.0101 N   0  0  0  0  0  0  0  0  0  0  0  0
    0.4383    0.7557   -0.6738 C   0  0  2  0  0  0  0  0  0  0  0  0
    0.1937    0.8710   -2.1741 C   0  0  0  0  0  0  0  0  0  0  0  0
    1.1014    1.0096   -2.9913 O   0  0  0  0  0  0  0  0  0  0  0  0
    0.7431   -0.6978   -0.2937 C   0  0  0  0  0  0  0  0  0  0  0  0
    1.0766   -0.8610    1.1691 C   0  0  0  0  0  0  0  0  0  0  0  0
    2.2902   -0.4740    1.6844 N   0  3  0  0  0  0  0  0  0  0  0  0
    0.3518   -1.3699    2.2096 C   0  0  0  0  0  0  0  0  0  0  0  0
    2.3206   -0.7325    2.9957 C   0  0  0  0  0  0  0  0  0  0  0  0
    1.1460   -1.2784    3.3272 N   0  0  0  0  0  0  0  0  0  0  0  0
   -1.5221    1.5532   -0.5874 H   0  0  0  0  0  0  0  0  0  0  0  0
    1.2626    1.4215   -0.3923 H   0  0  0  0  0  0  0  0  0  0  0  0
    1.5681   -1.0862   -0.9062 H   0  0  0  0  0  0  0  0  0  0  0  0
   -0.1152   -1.3427   -0.5246 H   0  0  0  0  0  0  0  0  0  0  0  0
    3.0506   -0.0568    1.1547 H   0  0  0  0  0  0  0  0  0  0  0  0
   -0.6253   -1.7932    2.3312 H   0  0  0  0  0  0  0  0  0  0  0  0
    3.1427   -0.5370    3.6638 H   0  0  0  0  0  0  0  0  0  0  0  0
    0.8841   -1.5789    4.2618 H   0  0  0  0  0  0  0  0  0  0  0  0
   -1.1520    0.7506   -2.4919 N   0  0  0  0  0  0  0  0  0  0  0  0
   -1.6552    0.8003   -3.8459 C   0  0  2  0  0  0  0  0  0  0  0  0
   -1.0710    2.0349   -4.5196 C   0  0  0  0  0  0  0  0  0  0  0  0
   -0.6544    3.0071   -3.8933 O   0  0  0  0  0  0  0  0  0  0  0  0
   -3.1753    0.8358   -3.8703 C   0  0  0  0  0  0  0  0  0  0  0  0
   -1.8167    0.6209   -1.7348 H   0  0  0  0  0  0  0  0  0  0  0  0
   -1.2902   -0.0999   -4.3522 H   0  0  0  0  0  0  0  0  0  0  0  0
   -3.5595    1.7309   -3.3675 H   0  0  0  0  0  0  0  0  0  0  0  0
   -3.5556    0.8446   -4.8971 H   0  0  0  0  0  0  0  0  0  0  0  0
   -3.5938   -0.0379   -3.3591 H   0  0  0  0  0  0  0  0  0  0  0  0
   -1.1092    1.9414   -5.9038 N   0  0  0  0  0  0  0  0  0  0  0  0
   -0.6247    2.9908   -6.7698 C   0  0  0  0  0  0  0  0  0  0  0  0
   -1.4542    1.0903   -6.3378 H   0  0  0  0  0  0  0  0  0  0  0  0
   -1.4545    3.6644   -7.0301 H   0  0  0  0  0  0  0  0  0  0  0  0
    0.1609    3.5602   -6.2516 H   0  0  0  0  0  0  0  0  0  0  0  0
   -0.2112    2.5471   -7.6875 H   0  0  0  0  0  0  0  0  0  0  0  0
 22 24  2  0  0  0  0
 24 26  1  0  0  0  0
 25 26  1  0  0  0  0
 23 25  2  0  0  0  0
 21 22  1  0  0  0  0
 22 23  1  0  0  0  0
  1  3  1  0  0  0  0
  1  7  1  0  0  0  0
  1  2  2  0  0  0  0
 36 37  1  0  0  0  0
 37 45  1  0  0  0  0
 37 38  2  0  0  0  0
  8  9  1  0  0  0  0
  9 17  1  0  0  0  0
  9 10  2  0  0  0  0
 18 19  1  0  0  0  0
 19 35  1  0  0  0  0
 19 20  2  0  0  0  0
 36 39  1  0  0  0  0
  8 11  1  0  0  0  0
 45 46  1  0  0  0  0
 18 21  1  0  0  0  0
 35 36  1  0  0  0  0
  7  8  1  0  0  0  0
 17 18  1  0  0  0  0
 24 32  1  0  0  0  0
 25 33  1  0  0  0  0
  3  4  1  0  0  0  0
  3  5  1  0  0  0  0
  3  6  1  0  0  0  0
 39 42  1  0  0  0  0
 39 43  1  0  0  0  0
 39 44  1  0  0  0  0
 11 14  1  0  0  0  0
 11 15  1  0  0  0  0
 11 16  1  0  0  0  0
 46 48  1  0  0  0  0
 46 49  1  0  0  0  0
 46 50  1  0  0  0  0
 21 29  1  0  0  0  0
 21 30  1  0  0  0  0
 36 41  1  0  0  0  0
  8 13  1  0  0  0  0
 18 28  1  0  0  0  0
 26 34  1  0  0  0  0
 23 31  1  0  0  0  0
 45 47  1  0  0  0  0
  7 12  1  0  0  0  0
 35 40  1  0  0  0  0
 17 27  1  0  0  0  0
M  CHG  1  23   1
M  END
$$$$

  -OEChem-05262214473D

 50 50  0     1  0  0  0  0  0999 V2000
   -1.6938    0.4865    3.8080 C   0  0  0  0  0  0  0  0  0  0  0  0
   -0.7464   -0.1282    3.3323 O   0  0  0  0  0  0  0  0  0  0  0  0
   -2.1257    0.2041    5.2087 C   0  0  0  0  0  0  0  0  0  0  0  0
   -2.8853   -0.5922    5.2621 H   0  0  0  0  0  0  0  0  0  0  0  0
   -1.2944   -0.1435    5.8430 H   0  0  0  0  0  0  0  0  0  0  0  0
   -2.5637    1.0590    5.7483 H   0  0  0  0  0  0  0  0  0  0  0  0
   -2.4435    1.4589    3.1669 N   0  0  0  0  0  0  0  0  0  0  0  0
   -2.1966    1.8850    1.8145 C   0  0  2  0  0  0  0  0  0  0  0  0
   -0.8617    1.2996    1.3733 C   0  0  0  0  0  0  0  0  0  0  0  0
    0.0104    0.9468    2.1646 O   0  0  0  0  0  0  0  0  0  0  0  0
   -2.1879    3.4017    1.7050 C   0  0  0  0  0  0  0  0  0  0  0  0
   -3.2085    1.8948    3.6787 H   0  0  0  0  0  0  0  0  0  0  0  0
   -3.0007    1.4665    1.1994 H   0  0  0  0  0  0  0  0  0  0  0  0
   -1.3888    3.8390    2.3147 H   0  0  0  0  0  0  0  0  0  0  0  0
   -2.0284    3.7240    0.6708 H   0  0  0  0  0  0  0  0  0  0  0  0
   -3.1380    3.8230    2.0508 H   0  0  0  0  0  0  0  0  0  0  0  0
   -0.7390    1.2565   -0.0101 N   0  0  0  0  0  0  0  0  0  0  0  0
    0.4383    0.7557   -0.6738 C   0  0  2  0  0  0  0  0  0  0  0  0
    0.1937    0.8710   -2.1741 C   0  0  0  0  0  0  0  0  0  0  0  0
    1.0861    0.7415   -3.0095 O   0  0  0  0  0  0  0  0  0  0  0  0
    0.7431   -0.6978   -0.2937 C   0  0  0  0  0  0  0  0  0  0  0  0
    1.0766   -0.8610    1.1691 C   0  0  0  0  0  0  0  0  0  0  0  0
    2.2902   -0.4740    1.6844 N   0  3  0  0  0  0  0  0  0  0  0  0
    0.3518   -1.3699    2.2096 C   0  0  0  0  0  0  0  0  0  0  0  0
    2.3206   -0.7325    2.9957 C   0  0  0  0  0  0  0  0  0  0  0  0
    1.1460   -1.2784    3.3272 N   0  0  0  0  0  0  0  0  0  0  0  0
   -1.5221    1.5532   -0.5874 H   0  0  0  0  0  0  0  0  0  0  0  0
    1.2626    1.4215   -0.3923 H   0  0  0  0  0  0  0  0  0  0  0  0
    1.5681   -1.0862   -0.9062 H   0  0  0  0  0  0  0  0  0  0  0  0
   -0.1152   -1.3427   -0.5246 H   0  0  0  0  0  0  0  0  0  0  0  0
    3.0506   -0.0568    1.1547 H   0  0  0  0  0  0  0  0  0  0  0  0
   -0.6253   -1.7932    2.3312 H   0  0  0  0  0  0  0  0  0  0  0  0
    3.1427   -0.5370    3.6638 H   0  0  0  0  0  0  0  0  0  0  0  0
    0.8841   -1.5789    4.2618 H   0  0  0  0  0  0  0  0  0  0  0  0
   -1.1459    1.0856   -2.4672 N   0  0  0  0  0  0  0  0  0  0  0  0
   -1.6535    1.2092   -3.8147 C   0  0  2  0  0  0  0  0  0  0  0  0
   -0.7916    2.2267   -4.5505 C   0  0  0  0  0  0  0  0  0  0  0  0
   -0.1260    3.0841   -3.9735 O   0  0  0  0  0  0  0  0  0  0  0  0
   -3.1148    1.6304   -3.8190 C   0  0  0  0  0  0  0  0  0  0  0  0
   -1.8026    1.1594   -1.6957 H   0  0  0  0  0  0  0  0  0  0  0  0
   -1.5422    0.2266   -4.2860 H   0  0  0  0  0  0  0  0  0  0  0  0
   -3.2461    2.6128   -3.3508 H   0  0  0  0  0  0  0  0  0  0  0  0
   -3.5058    1.6959   -4.8398 H   0  0  0  0  0  0  0  0  0  0  0  0
   -3.7288    0.9130   -3.2640 H   0  0  0  0  0  0  0  0  0  0  0  0
   -0.8868    2.0921   -5.9285 N   0  0  0  0  0  0  0  0  0  0  0  0
   -0.1732    2.9486   -6.8467 C   0  0  0  0  0  0  0  0  0  0  0  0
   -1.4477    1.3409   -6.3196 H   0  0  0  0  0  0  0  0  0  0  0  0
   -0.8107    3.8010   -7.1246 H   0  0  0  0  0  0  0  0  0  0  0  0
    0.7440    3.3185   -6.3653 H   0  0  0  0  0  0  0  0  0  0  0  0
    0.0908    2.3787   -7.7497 H   0  0  0  0  0  0  0  0  0  0  0  0
 22 24  2  0  0  0  0
 24 26  1  0  0  0  0
 25 26  1  0  0  0  0
 23 25  2  0  0  0  0
 21 22  1  0  0  0  0
 22 23  1  0  0  0  0
  1  3  1  0  0  0  0
  1  7  1  0  0  0  0
  1  2  2  0  0  0  0
 36 37  1  0  0  0  0
 37 45  1  0  0  0  0
 37 38  2  0  0  0  0
  8  9  1  0  0  0  0
  9 17  1  0  0  0  0
  9 10  2  0  0  0  0
 18 19  1  0  0  0  0
 19 35  1  0  0  0  0
 19 20  2  0  0  0  0
 36 39  1  0  0  0  0
  8 11  1  0  0  0  0
 45 46  1  0  0  0  0
 18 21  1  0  0  0  0
 35 36  1  0  0  0  0
  7  8  1  0  0  0  0
 17 18  1  0  0  0  0
 24 32  1  0  0  0  0
 25 33  1  0  0  0  0
  3  4  1  0  0  0  0
  3  5  1  0  0  0  0
  3  6  1  0  0  0  0
 39 42  1  0  0  0  0
 39 43  1  0  0  0  0
 39 44  1  0  0  0  0
 11 14  1  0  0  0  0
 11 15  1  0  0  0  0
 11 16  1  0  0  0  0
 46 48  1  0  0  0  0
 46 49  1  0  0  0  0
 46 50  1  0  0  0  0
 21 29  1  0  0  0  0
 21 30  1  0  0  0  0
 36 41  1  0  0  0  0
  8 13  1  0  0  0  0
 18 28  1  0  0  0  0
 26 34  1  0  0  0  0
 23 31  1  0  0  0  0
 45 47  1  0  0  0  0
  7 12  1  0  0  0  0
 35 40  1  0  0  0  0
 17 27  1  0  0  0  0
M  CHG  1  23   1
M  END
$$$$

  -OEChem-05262214473D

 50 50  0     1  0  0  0  0  0999 V2000
   -1.6938    0.4865    3.8080 C   0  0  0  0  0  0  0  0  0  0  0  0
   -0.7464   -0.1282    3.3323 O   0  0  0  0  0  0  0  0  0  0  0  0
   -2.1257    0.2041    5.2087 C   0  0  0  0  0  0  0  0  0  0  0  0
   -2.8853   -0.5922    5.2621 H   0  0  0  0  0  0  0  0  0  0  0  0
   -1.2944   -0.1435    5.8430 H   0  0  0  0  0  0  0  0  0  0  0  0
   -2.5637    1.0590    5.7483 H   0  0  0  0  0  0  0  0  0  0  0  0
   -2.4435    1.4589    3.1669 N   0  0  0  0  0  0  0  0  0  0  0  0
   -2.1966    1.8850    1.8145 C   0  0  2  0  0  0  0  0  0  0  0  0
   -0.8617    1.2996    1.3733 C   0  0  0  0  0  0  0  0  0  0  0  0
    0.0104    0.9468    2.1646 O   0  0  0  0  0  0  0  0  0  0  0  0
   -2.1879    3.4017    1.7050 C   0  0  0  0  0  0  0  0  0  0  0  0
   -3.2085    1.8948    3.6787 H   0  0  0  0  0  0  0  0  0  0  0  0
   -3.0007    1.4665    1.1994 H   0  0  0  0  0  0  0  0  0  0  0  0
   -1.3888    3.8390    2.3147 H   0  0  0  0  0  0  0  0  0  0  0  0
   -2.0284    3.7240    0.6708 H   0  0  0  0  0  0  0  0  0  0  0  0
   -3.1380    3.8230    2.0508 H   0  0  0  0  0  0  0  0  0  0  0  0
   -0.7390    1.2565   -0.0101 N   0  0  0  0  0  0  0  0  0  0  0  0
    0.4383    0.7557   -0.6738 C   0  0  2  0  0  0  0  0  0  0  0  0
    0.1937    0.8710   -2.1741 C   0  0  0  0  0  0  0  0  0  0  0  0
    1.0026    0.4856   -3.0155 O   0  0  0  0  0  0  0  0  0  0  0  0
    0.7431   -0.6978   -0.2937 C   0  0  0  0  0  0  0  0  0  0  0  0
    1.0766   -0.8610    1.1691 C   0  0  0  0  0  0  0  0  0  0  0  0
    2.2902   -0.4740    1.6844 N   0  3  0  0  0  0  0  0  0  0  0  0
    0.3518   -1.3699    2.2096 C   0  0  0  0  0  0  0  0  0  0  0  0
    2.3206   -0.7325    2.9957 C   0  0  0  0  0  0  0  0  0  0  0  0
    1.1460   -1.2784    3.3272 N   0  0  0  0  0  0  0  0  0  0  0  0
   -1.5221    1.5532   -0.5874 H   0  0  0  0  0  0  0  0  0  0  0  0
    1.2626    1.4215   -0.3923 H   0  0  0  0  0  0  0  0  0  0  0  0
    1.5681   -1.0862   -0.9062 H   0  0  0  0  0  0  0  0  0  0  0  0
   -0.1152   -1.3427   -0.5246 H   0  0  0  0  0  0  0  0  0  0  0  0
    3.0506   -0.0568    1.1547 H   0  0  0  0  0  0  0  0  0  0  0  0
   -0.6253   -1.7932    2.3312 H   0  0  0  0  0  0  0  0  0  0  0  0
    3.1427   -0.5370    3.6638 H   0  0  0  0  0  0  0  0  0  0  0  0
    0.8841   -1.5789    4.2618 H   0  0  0  0  0  0  0  0  0  0  0  0
   -1.0542    1.4087   -2.4573 N   0  0  0  0  0  0  0  0  0  0  0  0
   -1.5472    1.6051   -3.8016 C   0  0  2  0  0  0  0  0  0  0  0  0
   -0.4734    2.3395   -4.5936 C   0  0  0  0  0  0  0  0  0  0  0  0
    0.4025    3.0205   -4.0645 O   0  0  0  0  0  0  0  0  0  0  0  0
   -2.8529    2.3846   -3.8038 C   0  0  0  0  0  0  0  0  0  0  0  0
   -1.6510    1.6776   -1.6806 H   0  0  0  0  0  0  0  0  0  0  0  0
   -1.7012    0.6090   -4.2307 H   0  0  0  0  0  0  0  0  0  0  0  0
   -2.7183    3.3854   -3.3775 H   0  0  0  0  0  0  0  0  0  0  0  0
   -3.2398    2.5079   -4.8207 H   0  0  0  0  0  0  0  0  0  0  0  0
   -3.6152    1.8698   -3.2090 H   0  0  0  0  0  0  0  0  0  0  0  0
   -0.6342    2.1800   -5.9629 N   0  0  0  0  0  0  0  0  0  0  0  0
    0.2506    2.7897   -6.9280 C   0  0  0  0  0  0  0  0  0  0  0  0
   -1.3772    1.5822   -6.3125 H   0  0  0  0  0  0  0  0  0  0  0  0
   -0.1558    3.7649   -7.2341 H   0  0  0  0  0  0  0  0  0  0  0  0
    1.2436    2.9318   -6.4764 H   0  0  0  0  0  0  0  0  0  0  0  0
    0.3385    2.1365   -7.8087 H   0  0  0  0  0  0  0  0  0  0  0  0
 22 24  2  0  0  0  0
 24 26  1  0  0  0  0
 25 26  1  0  0  0  0
 23 25  2  0  0  0  0
 21 22  1  0  0  0  0
 22 23  1  0  0  0  0
  1  3  1  0  0  0  0
  1  7  1  0  0  0  0
  1  2  2  0  0  0  0
 36 37  1  0  0  0  0
 37 45  1  0  0  0  0
 37 38  2  0  0  0  0
  8  9  1  0  0  0  0
  9 17  1  0  0  0  0
  9 10  2  0  0  0  0
 18 19  1  0  0  0  0
 19 35  1  0  0  0  0
 19 20  2  0  0  0  0
 36 39  1  0  0  0  0
  8 11  1  0  0  0  0
 45 46  1  0  0  0  0
 18 21  1  0  0  0  0
 35 36  1  0  0  0  0
  7  8  1  0  0  0  0
 17 18  1  0  0  0  0
 24 32  1  0  0  0  0
 25 33  1  0  0  0  0
  3  4  1  0  0  0  0
  3  5  1  0  0  0  0
  3  6  1  0  0  0  0
 39 42  1  0  0  0  0
 39 43  1  0  0  0  0
 39 44  1  0  0  0  0
 11 14  1  0  0  0  0
 11 15  1  0  0  0  0
 11 16  1  0  0  0  0
 46 48  1  0  0  0  0
 46 49  1  0  0  0  0
 46 50  1  0  0  0  0
 21 29  1  0  0  0  0
 21 30  1  0  0  0  0
 36 41  1  0  0  0  0
  8 13  1  0  0  0  0
 18 28  1  0  0  0  0
 26 34  1  0  0  0  0
 23 31  1  0  0  0  0
 45 47  1  0  0  0  0
  7 12  1  0  0  0  0
 35 40  1  0  0  0  0
 17 27  1  0  0  0  0
M  CHG  1  23   1
M  END
$$$$

  -OEChem-05262214473D

 50 50  0     1  0  0  0  0  0999 V2000
   -1.6938    0.4865    3.8080 C   0  0  0  0  0  0  0  0  0  0  0  0
   -0.7464   -0.1282    3.3323 O   0  0  0  0  0  0  0  0  0  0  0  0
   -2.1257    0.2041    5.2087 C   0  0  0  0  0  0  0  0  0  0  0  0
   -2.8853   -0.5922    5.2621 H   0  0  0  0  0  0  0  0  0  0  0  0
   -1.2944   -0.1435    5.8430 H   0  0  0  0  0  0  0  0  0  0  0  0
   -2.5637    1.0590    5.7483 H   0  0  0  0  0  0  0  0  0  0  0  0
   -2.4435    1.4589    3.1669 N   0  0  0  0  0  0  0  0  0  0  0  0
   -2.1966    1.8850    1.8145 C   0  0  2  0  0  0  0  0  0  0  0  0
   -0.8617    1.2996    1.3733 C   0  0  0  0  0  0  0  0  0  0  0  0
    0.0104    0.9468    2.1646 O   0  0  0  0  0  0  0  0  0  0  0  0
   -2.1879    3.4017    1.7050 C   0  0  0  0  0  0  0  0  0  0  0  0
   -3.2085    1.8948    3.6787 H   0  0  0  0  0  0  0  0  0  0  0  0
   -3.0007    1.4665    1.1994 H   0  0  0  0  0  0  0  0  0  0  0  0
   -1.3888    3.8390    2.3147 H   0  0  0  0  0  0  0  0  0  0  0  0
   -2.0284    3.7240    0.6708 H   0  0  0  0  0  0  0  0  0  0  0  0
   -3.1380    3.8230    2.0508 H   0  0  0  0  0  0  0  0  0  0  0  0
   -0.7390    1.2565   -0.0101 N   0  0  0  0  0  0  0  0  0  0  0  0
    0.4383    0.7557   -0.6738 C   0  0  2  0  0  0  0  0  0  0  0  0
    0.1937    0.8710   -2.1741 C   0  0  0  0  0  0  0  0  0  0  0  0
    0.8568    0.2595   -3.0091 O   0  0  0  0  0  0  0  0  0  0  0  0
    0.7431   -0.6978   -0.2937 C   0  0  0  0  0  0  0  0  0  0  0  0
    1.0766   -0.8610    1.1691 C   0  0  0  0  0  0  0  0  0  0  0  0
    2.2902   -0.4740    1.6844 N   0  3  0  0  0  0  0  0  0  0  0  0
    0.3518   -1.3699    2.2096 C   0  0  0  0  0  0  0  0  0  0  0  0
    2.3206   -0.7325    2.9957 C   0  0  0  0  0  0  0  0  0  0  0  0
    1.1460   -1.2784    3.3272 N   0  0  0  0  0  0  0  0  0  0  0  0
   -1.5221    1.5532   -0.5874 H   0  0  0  0  0  0  0  0  0  0  0  0
    1.2626    1.4215   -0.3923 H   0  0  0  0  0  0  0  0  0  0  0  0
    1.5681   -1.0862   -0.9062 H   0  0  0  0  0  0  0  0  0  0  0  0
   -0.1152   -1.3427   -0.5246 H   0  0  0  0  0  0  0  0  0  0  0  0
    3.0506   -0.0568    1.1547 H   0  0  0  0  0  0  0  0  0  0  0  0
   -0.6253   -1.7932    2.3312 H   0  0  0  0  0  0  0  0  0  0  0  0
    3.1427   -0.5370    3.6638 H   0  0  0  0  0  0  0  0  0  0  0  0
    0.8841   -1.5789    4.2618 H   0  0  0  0  0  0  0  0  0  0  0  0
   -0.8831    1.6978   -2.4630 N   0  0  0  0  0  0  0  0  0  0  0  0
   -1.3433    1.9609   -3.8075 C   0  0  2  0  0  0  0  0  0  0  0  0
   -0.1383    2.3656   -4.6463 C   0  0  0  0  0  0  0  0  0  0  0  0
    0.8950    2.8207   -4.1602 O   0  0  0  0  0  0  0  0  0  0  0  0
   -2.4075    3.0471   -3.8254 C   0  0  0  0  0  0  0  0  0  0  0  0
   -1.3724    2.1402   -1.6905 H   0  0  0  0  0  0  0  0  0  0  0  0
   -1.7563    1.0211   -4.1900 H   0  0  0  0  0  0  0  0  0  0  0  0
   -2.0123    3.9963   -3.4456 H   0  0  0  0  0  0  0  0  0  0  0  0
   -2.7756    3.2252   -4.8412 H   0  0  0  0  0  0  0  0  0  0  0  0
   -3.2606    2.7674   -3.1978 H   0  0  0  0  0  0  0  0  0  0  0  0
   -0.3684    2.1992   -6.0048 N   0  0  0  0  0  0  0  0  0  0  0  0
    0.6180    2.5248   -7.0083 C   0  0  0  0  0  0  0  0  0  0  0  0
   -1.2475    1.7975   -6.3171 H   0  0  0  0  0  0  0  0  0  0  0  0
    0.4654    3.5588   -7.3512 H   0  0  0  0  0  0  0  0  0  0  0  0
    1.6254    2.4264   -6.5775 H   0  0  0  0  0  0  0  0  0  0  0  0
    0.5148    1.8370   -7.8605 H   0  0  0  0  0  0  0  0  0  0  0  0
 22 24  2  0  0  0  0
 24 26  1  0  0  0  0
 25 26  1  0  0  0  0
 23 25  2  0  0  0  0
 21 22  1  0  0  0  0
 22 23  1  0  0  0  0
  1  3  1  0  0  0  0
  1  7  1  0  0  0  0
  1  2  2  0  0  0  0
 36 37  1  0  0  0  0
 37 45  1  0  0  0  0
 37 38  2  0  0  0  0
  8  9  1  0  0  0  0
  9 17  1  0  0  0  0
  9 10  2  0  0  0  0
 18 19  1  0  0  0  0
 19 35  1  0  0  0  0
 19 20  2  0  0  0  0
 36 39  1  0  0  0  0
  8 11  1  0  0  0  0
 45 46  1  0  0  0  0
 18 21  1  0  0  0  0
 35 36  1  0  0  0  0
  7  8  1  0  0  0  0
 17 18  1  0  0  0  0
 24 32  1  0  0  0  0
 25 33  1  0  0  0  0
  3  4  1  0  0  0  0
  3  5  1  0  0  0  0
  3  6  1  0  0  0  0
 39 42  1  0  0  0  0
 39 43  1  0  0  0  0
 39 44  1  0  0  0  0
 11 14  1  0  0  0  0
 11 15  1  0  0  0  0
 11 16  1  0  0  0  0
 46 48  1  0  0  0  0
 46 49  1  0  0  0  0
 46 50  1  0  0  0  0
 21 29  1  0  0  0  0
 21 30  1  0  0  0  0
 36 41  1  0  0  0  0
  8 13  1  0  0  0  0
 18 28  1  0  0  0  0
 26 34  1  0  0  0  0
 23 31  1  0  0  0  0
 45 47  1  0  0  0  0
  7 12  1  0  0  0  0
 35 40  1  0  0  0  0
 17 27  1  0  0  0  0
M  CHG  1  23   1
M  END
$$$$

  -OEChem-05262214473D

 50 50  0     1  0  0  0  0  0999 V2000
   -1.6938    0.4865    3.8080 C   0  0  0  0  0  0  0  0  0  0  0  0
   -0.7464   -0.1282    3.3323 O   0  0  0  0  0  0  0  0  0  0  0  0
   -2.1257    0.2041    5.2087 C   0  0  0  0  0  0  0  0  0  0  0  0
   -2.8853   -0.5922    5.2621 H   0  0  0  0  0  0  0  0  0  0  0  0
   -1.2944   -0.1435    5.8430 H   0  0  0  0  0  0  0  0  0  0  0  0
   -2.5637    1.0590    5.7483 H   0  0  0  0  0  0  0  0  0  0  0  0
   -2.4435    1.4589    3.1669 N   0  0  0  0  0  0  0  0  0  0  0  0
   -2.1966    1.8850    1.8145 C   0  0  2  0  0  0  0  0  0  0  0  0
   -0.8617    1.2996    1.3733 C   0  0  0  0  0  0  0  0  0  0  0  0
    0.0104    0.9468    2.1646 O   0  0  0  0  0  0  0  0  0  0  0  0
   -2.1879    3.4017    1.7050 C   0  0  0  0  0  0  0  0  0  0  0  0
   -3.2085    1.8948    3.6787 H   0  0  0  0  0  0  0  0  0  0  0  0
   -3.0007    1.4665    1.1994 H   0  0  0  0  0  0  0  0  0  0  0  0
   -1.3888    3.8390    2.3147 H   0  0  0  0  0  0  0  0  0  0  0  0
   -2.0284    3.7240    0.6708 H   0  0  0  0  0  0  0  0  0  0  0  0
   -3.1380    3.8230    2.0508 H   0  0  0  0  0  0  0  0  0  0  0  0
   -0.7390    1.2565   -0.0101 N   0  0  0  0  0  0  0  0  0  0  0  0
    0.4383    0.7557   -0.6738 C   0  0  2  0  0  0  0  0  0  0  0  0
    0.1937    0.8710   -2.1741 C   0  0  0  0  0  0  0  0  0  0  0  0
    0.6584    0.0785   -2.9907 O   0  0  0  0  0  0  0  0  0  0  0  0
    0.7431   -0.6978   -0.2937 C   0  0  0  0  0  0  0  0  0  0  0  0
    1.0766   -0.8610    1.1691 C   0  0  0  0  0  0  0  0  0  0  0  0
    2.2902   -0.4740    1.6844 N   0  3  0  0  0  0  0  0  0  0  0  0
    0.3518   -1.3699    2.2096 C   0  0  0  0  0  0  0  0  0  0  0  0
    2.3206   -0.7325    2.9957 C   0  0  0  0  0  0  0  0  0  0  0  0
    1.1460   -1.2784    3.3272 N   0  0  0  0  0  0  0  0  0  0  0  0
   -1.5221    1.5532   -0.5874 H   0  0  0  0  0  0  0  0  0  0  0  0
    1.2626    1.4215   -0.3923 H   0  0  0  0  0  0  0  0  0  0  0  0
    1.5681   -1.0862   -0.9062 H   0  0  0  0  0  0  0  0  0  0  0  0
   -0.1152   -1.3427   -0.5246 H   0  0  0  0  0  0  0  0  0  0  0  0
    3.0506   -0.0568    1.1547 H   0  0  0  0  0  0  0  0  0  0  0  0
   -0.6253   -1.7932    2.3312 H   0  0  0  0  0  0  0  0  0  0  0  0
    3.1427   -0.5370    3.6638 H   0  0  0  0  0  0  0  0  0  0  0  0
    0.8841   -1.5789    4.2618 H   0  0  0  0  0  0  0  0  0  0  0  0
   -0.6443    1.9332   -2.4838 N   0  0  0  0  0  0  0  0  0  0  0  0
   -1.0559    2.2524   -3.8319 C   0  0  2  0  0  0  0  0  0  0  0  0
    0.1911    2.3033   -4.7048 C   0  0  0  0  0  0  0  0  0  0  0  0
    1.3179    2.4983   -4.2539 O   0  0  0  0  0  0  0  0  0  0  0  0
   -1.8090    3.5726   -3.8826 C   0  0  0  0  0  0  0  0  0  0  0  0
   -0.9856    2.5156   -1.7247 H   0  0  0  0  0  0  0  0  0  0  0  0
   -1.7037    1.4349   -4.1668 H   0  0  0  0  0  0  0  0  0  0  0  0
   -1.1760    4.4036   -3.5506 H   0  0  0  0  0  0  0  0  0  0  0  0
   -2.1449    3.7990   -4.8999 H   0  0  0  0  0  0  0  0  0  0  0  0
   -2.6892    3.5445   -3.2312 H   0  0  0  0  0  0  0  0  0  0  0  0
   -0.1076    2.1482   -6.0512 N   0  0  0  0  0  0  0  0  0  0  0  0
    0.9038    2.1720   -7.0820 C   0  0  0  0  0  0  0  0  0  0  0  0
   -1.0675    1.9723   -6.3330 H   0  0  0  0  0  0  0  0  0  0  0  0
    1.0106    3.1965   -7.4679 H   0  0  0  0  0  0  0  0  0  0  0  0
    1.8634    1.8367   -6.6617 H   0  0  0  0  0  0  0  0  0  0  0  0
    0.6078    1.5006   -7.9015 H   0  0  0  0  0  0  0  0  0  0  0  0
 22 24  2  0  0  0  0
 24 26  1  0  0  0  0
 25 26  1  0  0  0  0
 23 25  2  0  0  0  0
 21 22  1  0  0  0  0
 22 23  1  0  0  0  0
  1  3  1  0  0  0  0
  1  7  1  0  0  0  0
  1  2  2  0  0  0  0
 36 37  1  0  0  0  0
 37 45  1  0  0  0  0
 37 38  2  0  0  0  0
  8  9  1  0  0  0  0
  9 17  1  0  0  0  0
  9 10  2  0  0  0  0
 18 19  1  0  0  0  0
 19 35  1  0  0  0  0
 19 20  2  0  0  0  0
 36 39  1  0  0  0  0
  8 11  1  0  0  0  0
 45 46  1  0  0  0  0
 18 21  1  0  0  0  0
 35 36  1  0  0  0  0
  7  8  1  0  0  0  0
 17 18  1  0  0  0  0
 24 32  1  0  0  0  0
 25 33  1  0  0  0  0
  3  4  1  0  0  0  0
  3  5  1  0  0  0  0
  3  6  1  0  0  0  0
 39 42  1  0  0  0  0
 39 43  1  0  0  0  0
 39 44  1  0  0  0  0
 11 14  1  0  0  0  0
 11 15  1  0  0  0  0
 11 16  1  0  0  0  0
 46 48  1  0  0  0  0
 46 49  1  0  0  0  0
 46 50  1  0  0  0  0
 21 29  1  0  0  0  0
 21 30  1  0  0  0  0
 36 41  1  0  0  0  0
  8 13  1  0  0  0  0
 18 28  1  0  0  0  0
 26 34  1  0  0  0  0
 23 31  1  0  0  0  0
 45 47  1  0  0  0  0
  7 12  1  0  0  0  0
 35 40  1  0  0  0  0
 17 27  1  0  0  0  0
M  CHG  1  23   1
M  END
$$$$

  -OEChem-05262214473D

 50 50  0     1  0  0  0  0  0999 V2000
   -1.6938    0.4865    3.8080 C   0  0  0  0  0  0  0  0  0  0  0  0
   -0.7464   -0.1282    3.3323 O   0  0  0  0  0  0  0  0  0  0  0  0
   -2.1257    0.2041    5.2087 C   0  0  0  0  0  0  0  0  0  0  0  0
   -2.8853   -0.5922    5.2621 H   0  0  0  0  0  0  0  0  0  0  0  0
   -1.2944   -0.1435    5.8430 H   0  0  0  0  0  0  0  0  0  0  0  0
   -2.5637    1.0590    5.7483 H   0  0  0  0  0  0  0  0  0  0  0  0
   -2.4435    1.4589    3.1669 N   0  0  0  0  0  0  0  0  0  0  0  0
   -2.1966    1.8850    1.8145 C   0  0  2  0  0  0  0  0  0  0  0  0
   -0.8617    1.2996    1.3733 C   0  0  0  0  0  0  0  0  0  0  0  0
    0.0104    0.9468    2.1646 O   0  0  0  0  0  0  0  0  0  0  0  0
   -2.1879    3.4017    1.7050 C   0  0  0  0  0  0  0  0  0  0  0  0
   -3.2085    1.8948    3.6787 H   0  0  0  0  0  0  0  0  0  0  0  0
   -3.0007    1.4665    1.1994 H   0  0  0  0  0  0  0  0  0  0  0  0
   -1.3888    3.8390    2.3147 H   0  0  0  0  0  0  0  0  0  0  0  0
   -2.0284    3.7240    0.6708 H   0  0  0  0  0  0  0  0  0  0  0  0
   -3.1380    3.8230    2.0508 H   0  0  0  0  0  0  0  0  0  0  0  0
   -0.7390    1.2565   -0.0101 N   0  0  0  0  0  0  0  0  0  0  0  0
    0.4383    0.7557   -0.6738 C   0  0  2  0  0  0  0  0  0  0  0  0
    0.1937    0.8710   -2.1741 C   0  0  0  0  0  0  0  0  0  0  0  0
    0.4210   -0.0451   -2.9615 O   0  0  0  0  0  0  0  0  0  0  0  0
    0.7431   -0.6978   -0.2937 C   0  0  0  0  0  0  0  0  0  0  0  0
    1.0766   -0.8610    1.1691 C   0  0  0  0  0  0  0  0  0  0  0  0
    2.2902   -0.4740    1.6844 N   0  3  0  0  0  0  0  0  0  0  0  0
    0.3518   -1.3699    2.2096 C   0  0  0  0  0  0  0  0  0  0  0  0
    2.3206   -0.7325    2.9957 C   0  0  0  0  0  0  0  0  0  0  0  0
    1.1460   -1.2784    3.3272 N   0  0  0  0  0  0  0  0  0  0  0  0
   -1.5221    1.5532   -0.5874 H   0  0  0  0  0  0  0  0  0  0  0  0
    1.2626    1.4215   -0.3923 H   0  0  0  0  0  0  0  0  0  0  0  0
    1.5681   -1.0862   -0.9062 H   0  0  0  0  0  0  0  0  0  0  0  0
   -0.1152   -1.3427   -0.5246 H   0  0  0  0  0  0  0  0  0  0  0  0
    3.0506   -0.0568    1.1547 H   0  0  0  0  0  0  0  0  0  0  0  0
   -0.6253   -1.7932    2.3312 H   0  0  0  0  0  0  0  0  0  0  0  0
    3.1427   -0.5370    3.6638 H   0  0  0  0  0  0  0  0  0  0  0  0
    0.8841   -1.5789    4.2618 H   0  0  0  0  0  0  0  0  0  0  0  0
   -0.3541    2.0990   -2.5184 N   0  0  0  0  0  0  0  0  0  0  0  0
   -0.7045    2.4598   -3.8733 C   0  0  2  0  0  0  0  0  0  0  0  0
    0.4922    2.1567   -4.7651 C   0  0  0  0  0  0  0  0  0  0  0  0
    1.6425    2.0753   -4.3394 O   0  0  0  0  0  0  0  0  0  0  0  0
   -1.0982    3.9255   -3.9714 C   0  0  0  0  0  0  0  0  0  0  0  0
   -0.5170    2.7782   -1.7809 H   0  0  0  0  0  0  0  0  0  0  0  0
   -1.5471    1.8222   -4.1625 H   0  0  0  0  0  0  0  0  0  0  0  0
   -0.2666    4.5797   -3.6854 H   0  0  0  0  0  0  0  0  0  0  0  0
   -1.3908    4.1902   -4.9928 H   0  0  0  0  0  0  0  0  0  0  0  0
   -1.9400    4.1482   -3.3069 H   0  0  0  0  0  0  0  0  0  0  0  0
    0.1304    2.0307   -6.0990 N   0  0  0  0  0  0  0  0  0  0  0  0
    1.0885    1.7554   -7.1441 C   0  0  0  0  0  0  0  0  0  0  0  0
   -0.8494    2.0946   -6.3592 H   0  0  0  0  0  0  0  0  0  0  0  0
    1.4427    2.7029   -7.5763 H   0  0  0  0  0  0  0  0  0  0  0  0
    1.9416    1.2031   -6.7231 H   0  0  0  0  0  0  0  0  0  0  0  0
    0.6112    1.1503   -7.9290 H   0  0  0  0  0  0  0  0  0  0  0  0
 22 24  2  0  0  0  0
 24 26  1  0  0  0  0
 25 26  1  0  0  0  0
 23 25  2  0  0  0  0
 21 22  1  0  0  0  0
 22 23  1  0  0  0  0
  1  3  1  0  0  0  0
  1  7  1  0  0  0  0
  1  2  2  0  0  0  0
 36 37  1  0  0  0  0
 37 45  1  0  0  0  0
 37 38  2  0  0  0  0
  8  9  1  0  0  0  0
  9 17  1  0  0  0  0
  9 10  2  0  0  0  0
 18 19  1  0  0  0  0
 19 35  1  0  0  0  0
 19 20  2  0  0  0  0
 36 39  1  0  0  0  0
  8 11  1  0  0  0  0
 45 46  1  0  0  0  0
 18 21  1  0  0  0  0
 35 36  1  0  0  0  0
  7  8  1  0  0  0  0
 17 18  1  0  0  0  0
 24 32  1  0  0  0  0
 25 33  1  0  0  0  0
  3  4  1  0  0  0  0
  3  5  1  0  0  0  0
  3  6  1  0  0  0  0
 39 42  1  0  0  0  0
 39 43  1  0  0  0  0
 39 44  1  0  0  0  0
 11 14  1  0  0  0  0
 11 15  1  0  0  0  0
 11 16  1  0  0  0  0
 46 48  1  0  0  0  0
 46 49  1  0  0  0  0
 46 50  1  0  0  0  0
 21 29  1  0  0  0  0
 21 30  1  0  0  0  0
 36 41  1  0  0  0  0
  8 13  1  0  0  0  0
 18 28  1  0  0  0  0
 26 34  1  0  0  0  0
 23 31  1  0  0  0  0
 45 47  1  0  0  0  0
  7 12  1  0  0  0  0
 35 40  1  0  0  0  0
 17 27  1  0  0  0  0
M  CHG  1  23   1
M  END
$$$$

  -OEChem-05262214473D

 50 50  0     1  0  0  0  0  0999 V2000
   -1.6938    0.4865    3.8080 C   0  0  0  0  0  0  0  0  0  0  0  0
   -0.7464   -0.1282    3.3323 O   0  0  0  0  0  0  0  0  0  0  0  0
   -2.1257    0.2041    5.2087 C   0  0  0  0  0  0  0  0  0  0  0  0
   -2.8853   -0.5922    5.2621 H   0  0  0  0  0  0  0  0  0  0  0  0
   -1.2944   -0.1435    5.8430 H   0  0  0  0  0  0  0  0  0  0  0  0
   -2.5637    1.0590    5.7483 H   0  0  0  0  0  0  0  0  0  0  0  0
   -2.4435    1.4589    3.1669 N   0  0  0  0  0  0  0  0  0  0  0  0
   -2.1966    1.8850    1.8145 C   0  0  2  0  0  0  0  0  0  0  0  0
   -0.8617    1.2996    1.3733 C   0  0  0  0  0  0  0  0  0  0  0  0
    0.0104    0.9468    2.1646 O   0  0  0  0  0  0  0  0  0  0  0  0
   -2.1879    3.4017    1.7050 C   0  0  0  0  0  0  0  0  0  0  0  0
   -3.2085    1.8948    3.6787 H   0  0  0  0  0  0  0  0  0  0  0  0
   -3.0007    1.4665    1.1994 H   0  0  0  0  0  0  0  0  0  0  0  0
   -1.3888    3.8390    2.3147 H   0  0  0  0  0  0  0  0  0  0  0  0
   -2.0284    3.7240    0.6708 H   0  0  0  0  0  0  0  0  0  0  0  0
   -3.1380    3.8230    2.0508 H   0  0  0  0  0  0  0  0  0  0  0  0
   -0.7390    1.2565   -0.0101 N   0  0  0  0  0  0  0  0  0  0  0  0
    0.4383    0.7557   -0.6738 C   0  0  2  0  0  0  0  0  0  0  0  0
    0.1937    0.8710   -2.1741 C   0  0  0  0  0  0  0  0  0  0  0  0
    0.1609   -0.1027   -2.9235 O   0  0  0  0  0  0  0  0  0  0  0  0
    0.7431   -0.6978   -0.2937 C   0  0  0  0  0  0  0  0  0  0  0  0
    1.0766   -0.8610    1.1691 C   0  0  0  0  0  0  0  0  0  0  0  0
    2.2902   -0.4740    1.6844 N   0  3  0  0  0  0  0  0  0  0  0  0
    0.3518   -1.3699    2.2096 C   0  0  0  0  0  0  0  0  0  0  0  0
    2.3206   -0.7325    2.9957 C   0  0  0  0  0  0  0  0  0  0  0  0
    1.1460   -1.2784    3.3272 N   0  0  0  0  0  0  0  0  0  0  0  0
   -1.5221    1.5532   -0.5874 H   0  0  0  0  0  0  0  0  0  0  0  0
    1.2626    1.4215   -0.3923 H   0  0  0  0  0  0  0  0  0  0  0  0
    1.5681   -1.0862   -0.9062 H   0  0  0  0  0  0  0  0  0  0  0  0
   -0.1152   -1.3427   -0.5246 H   0  0  0  0  0  0  0  0  0  0  0  0
    3.0506   -0.0568    1.1547 H   0  0  0  0  0  0  0  0  0  0  0  0
   -0.6253   -1.7932    2.3312 H   0  0  0  0  0  0  0  0  0  0  0  0
    3.1427   -0.5370    3.6638 H   0  0  0  0  0  0  0  0  0  0  0  0
    0.8841   -1.5789    4.2618 H   0  0  0  0  0  0  0  0  0  0  0  0
   -0.0323    2.1837   -2.5643 N   0  0  0  0  0  0  0  0  0  0  0  0
   -0.3131    2.5689   -3.9287 C   0  0  2  0  0  0  0  0  0  0  0  0
    0.7446    1.9360   -4.8232 C   0  0  0  0  0  0  0  0  0  0  0  0
    1.8466    1.5804   -4.4107 O   0  0  0  0  0  0  0  0  0  0  0  0
   -0.3234    4.0815   -4.0857 C   0  0  0  0  0  0  0  0  0  0  0  0
    0.0014    2.9103   -1.8553 H   0  0  0  0  0  0  0  0  0  0  0  0
   -1.2970    2.1566   -4.1776 H   0  0  0  0  0  0  0  0  0  0  0  0
    0.6541    4.5126   -3.8406 H   0  0  0  0  0  0  0  0  0  0  0  0
   -0.5645    4.3721   -5.1136 H   0  0  0  0  0  0  0  0  0  0  0  0
   -1.0641    4.5374   -3.4198 H   0  0  0  0  0  0  0  0  0  0  0  0
    0.3294    1.8545   -6.1450 N   0  0  0  0  0  0  0  0  0  0  0  0
    1.1597    1.3034   -7.1905 C   0  0  0  0  0  0  0  0  0  0  0  0
   -0.6081    2.1561   -6.3938 H   0  0  0  0  0  0  0  0  0  0  0  0
    1.7323    2.1116   -7.6690 H   0  0  0  0  0  0  0  0  0  0  0  0
    1.8544    0.5685   -6.7577 H   0  0  0  0  0  0  0  0  0  0  0  0
    0.5247    0.8100   -7.9410 H   0  0  0  0  0  0  0  0  0  0  0  0
 22 24  2  0  0  0  0
 24 26  1  0  0  0  0
 25 26  1  0  0  0  0
 23 25  2  0  0  0  0
 21 22  1  0  0  0  0
 22 23  1  0  0  0  0
  1  3  1  0  0  0  0
  1  7  1  0  0  0  0
  1  2  2  0  0  0  0
 36 37  1  0  0  0  0
 37 45  1  0  0  0  0
 37 38  2  0  0  0  0
  8  9  1  0  0  0  0
  9 17  1  0  0  0  0
  9 10  2  0  0  0  0
 18 19  1  0  0  0  0
 19 35  1  0  0  0  0
 19 20  2  0  0  0  0
 36 39  1  0  0  0  0
  8 11  1  0  0  0  0
 45 46  1  0  0  0  0
 18 21  1  0  0  0  0
 35 36  1  0  0  0  0
  7  8  1  0  0  0  0
 17 18  1  0  0  0  0
 24 32  1  0  0  0  0
 25 33  1  0  0  0  0
  3  4  1  0  0  0  0
  3  5  1  0  0  0  0
  3  6  1  0  0  0  0
 39 42  1  0  0  0  0
 39 43  1  0  0  0  0
 39 44  1  0  0  0  0
 11 14  1  0  0  0  0
 11 15  1  0  0  0  0
 11 16  1  0  0  0  0
 46 48  1  0  0  0  0
 46 49  1  0  0  0  0
 46 50  1  0  0  0  0
 21 29  1  0  0  0  0
 21 30  1  0  0  0  0
 36 41  1  0  0  0  0
  8 13  1  0  0  0  0
 18 28  1  0  0  0  0
 26 34  1  0  0  0  0
 23 31  1  0  0  0  0
 45 47  1  0  0  0  0
  7 12  1  0  0  0  0
 35 40  1  0  0  0  0
 17 27  1  0  0  0  0
M  CHG  1  23   1
M  END
$$$$

  -OEChem-05262214473D

 50 50  0     1  0  0  0  0  0999 V2000
   -1.6938    0.4865    3.8080 C   0  0  0  0  0  0  0  0  0  0  0  0
   -0.7464   -0.1282    3.3323 O   0  0  0  0  0  0  0  0  0  0  0  0
   -2.1257    0.2041    5.2087 C   0  0  0  0  0  0  0  0  0  0  0  0
   -2.8853   -0.5922    5.2621 H   0  0  0  0  0  0  0  0  0  0  0  0
   -1.2944   -0.1435    5.8430 H   0  0  0  0  0  0  0  0  0  0  0  0
   -2.5637    1.0590    5.7483 H   0  0  0  0  0  0  0  0  0  0  0  0
   -2.4435    1.4589    3.1669 N   0  0  0  0  0  0  0  0  0  0  0  0
   -2.1966    1.8850    1.8145 C   0  0  2  0  0  0  0  0  0  0  0  0
   -0.8617    1.2996    1.3733 C   0  0  0  0  0  0  0  0  0  0  0  0
    0.0104    0.9468    2.1646 O   0  0  0  0  0  0  0  0  0  0  0  0
   -2.1879    3.4017    1.7050 C   0  0  0  0  0  0  0  0  0  0  0  0
   -3.2085    1.8948    3.6787 H   0  0  0  0  0  0  0  0  0  0  0  0
   -3.0007    1.4665    1.1994 H   0  0  0  0  0  0  0  0  0  0  0  0
   -1.3888    3.8390    2.3147 H   0  0  0  0  0  0  0  0  0  0  0  0
   -2.0284    3.7240    0.6708 H   0  0  0  0  0  0  0  0  0  0  0  0
   -3.1380    3.8230    2.0508 H   0  0  0  0  0  0  0  0  0  0  0  0
   -0.7390    1.2565   -0.0101 N   0  0  0  0  0  0  0  0  0  0  0  0
    0.4383    0.7557   -0.6738 C   0  0  2  0  0  0  0  0  0  0  0  0
    0.1937    0.8710   -2.1741 C   0  0  0  0  0  0  0  0  0  0  0  0
   -0.1044   -0.0906   -2.8793 O   0  0  0  0  0  0  0  0  0  0  0  0
    0.7431   -0.6978   -0.2937 C   0  0  0  0  0  0  0  0  0  0  0  0
    1.0766   -0.8610    1.1691 C   0  0  0  0  0  0  0  0  0  0  0  0
    2.2902   -0.4740    1.6844 N   0  3  0  0  0  0  0  0  0  0  0  0
    0.3518   -1.3699    2.2096 C   0  0  0  0  0  0  0  0  0  0  0  0
    2.3206   -0.7325    2.9957 C   0  0  0  0  0  0  0  0  0  0  0  0
    1.1460   -1.2784    3.3272 N   0  0  0  0  0  0  0  0  0  0  0  0
   -1.5221    1.5532   -0.5874 H   0  0  0  0  0  0  0  0  0  0  0  0
    1.2626    1.4215   -0.3923 H   0  0  0  0  0  0  0  0  0  0  0  0
    1.5681   -1.0862   -0.9062 H   0  0  0  0  0  0  0  0  0  0  0  0
   -0.1152   -1.3427   -0.5246 H   0  0  0  0  0  0  0  0  0  0  0  0
    3.0506   -0.0568    1.1547 H   0  0  0  0  0  0  0  0  0  0  0  0
   -0.6253   -1.7932    2.3312 H   0  0  0  0  0  0  0  0  0  0  0  0
    3.1427   -0.5370    3.6638 H   0  0  0  0  0  0  0  0  0  0  0  0
    0.8841   -1.5789    4.2618 H   0  0  0  0  0  0  0  0  0  0  0  0
    0.2993    2.1817   -2.6185 N   0  0  0  0  0  0  0  0  0  0  0  0
    0.0917    2.5723   -3.9944 C   0  0  2  0  0  0  0  0  0  0  0  0
    0.9310    1.6561   -4.8752 C   0  0  0  0  0  0  0  0  0  0  0  0
    1.9163    1.0475   -4.4630 O   0  0  0  0  0  0  0  0  0  0  0  0
    0.4624    4.0301   -4.2178 C   0  0  0  0  0  0  0  0  0  0  0  0
    0.5343    2.9027   -1.9427 H   0  0  0  0  0  0  0  0  0  0  0  0
   -0.9706    2.4152   -4.2109 H   0  0  0  0  0  0  0  0  0  0  0  0
    1.5233    4.2068   -4.0058 H   0  0  0  0  0  0  0  0  0  0  0  0
    0.2777    4.3323   -5.2539 H   0  0  0  0  0  0  0  0  0  0  0  0
   -0.1211    4.6855   -3.5622 H   0  0  0  0  0  0  0  0  0  0  0  0
    0.4759    1.6317   -6.1860 N   0  0  0  0  0  0  0  0  0  0  0  0
    1.1123    0.8467   -7.2179 C   0  0  0  0  0  0  0  0  0  0  0  0
   -0.3600    2.1526   -6.4345 H   0  0  0  0  0  0  0  0  0  0  0  0
    1.8595    1.4628   -7.7396 H   0  0  0  0  0  0  0  0  0  0  0  0
    1.6079   -0.0236   -6.7630 H   0  0  0  0  0  0  0  0  0  0  0  0
    0.3542    0.5027   -7.9369 H   0  0  0  0  0  0  0  0  0  0  0  0
 22 24  2  0  0  0  0
 24 26  1  0  0  0  0
 25 26  1  0  0  0  0
 23 25  2  0  0  0  0
 21 22  1  0  0  0  0
 22 23  1  0  0  0  0
  1  3  1  0  0  0  0
  1  7  1  0  0  0  0
  1  2  2  0  0  0  0
 36 37  1  0  0  0  0
 37 45  1  0  0  0  0
 37 38  2  0  0  0  0
  8  9  1  0  0  0  0
  9 17  1  0  0  0  0
  9 10  2  0  0  0  0
 18 19  1  0  0  0  0
 19 35  1  0  0  0  0
 19 20  2  0  0  0  0
 36 39  1  0  0  0  0
  8 11  1  0  0  0  0
 45 46  1  0  0  0  0
 18 21  1  0  0  0  0
 35 36  1  0  0  0  0
  7  8  1  0  0  0  0
 17 18  1  0  0  0  0
 24 32  1  0  0  0  0
 25 33  1  0  0  0  0
  3  4  1  0  0  0  0
  3  5  1  0  0  0  0
  3  6  1  0  0  0  0
 39 42  1  0  0  0  0
 39 43  1  0  0  0  0
 39 44  1  0  0  0  0
 11 14  1  0  0  0  0
 11 15  1  0  0  0  0
 11 16  1  0  0  0  0
 46 48  1  0  0  0  0
 46 49  1  0  0  0  0
 46 50  1  0  0  0  0
 21 29  1  0  0  0  0
 21 30  1  0  0  0  0
 36 41  1  0  0  0  0
  8 13  1  0  0  0  0
 18 28  1  0  0  0  0
 26 34  1  0  0  0  0
 23 31  1  0  0  0  0
 45 47  1  0  0  0  0
  7 12  1  0  0  0  0
 35 40  1  0  0  0  0
 17 27  1  0  0  0  0
M  CHG  1  23   1
M  END
$$$$

  -OEChem-05262214473D

 50 50  0     1  0  0  0  0  0999 V2000
   -1.6938    0.4865    3.8080 C   0  0  0  0  0  0  0  0  0  0  0  0
   -0.7464   -0.1282    3.3323 O   0  0  0  0  0  0  0  0  0  0  0  0
   -2.1257    0.2041    5.2087 C   0  0  0  0  0  0  0  0  0  0  0  0
   -2.8853   -0.5922    5.2621 H   0  0  0  0  0  0  0  0  0  0  0  0
   -1.2944   -0.1435    5.8430 H   0  0  0  0  0  0  0  0  0  0  0  0
   -2.5637    1.0590    5.7483 H   0  0  0  0  0  0  0  0  0  0  0  0
   -2.4435    1.4589    3.1669 N   0  0  0  0  0  0  0  0  0  0  0  0
   -2.1966    1.8850    1.8145 C   0  0  2  0  0  0  0  0  0  0  0  0
   -0.8617    1.2996    1.3733 C   0  0  0  0  0  0  0  0  0  0  0  0
    0.0104    0.9468    2.1646 O   0  0  0  0  0  0  0  0  0  0  0  0
   -2.1879    3.4017    1.7050 C   0  0  0  0  0  0  0  0  0  0  0  0
   -3.2085    1.8948    3.6787 H   0  0  0  0  0  0  0  0  0  0  0  0
   -3.0007    1.4665    1.1994 H   0  0  0  0  0  0  0  0  0  0  0  0
   -1.3888    3.8390    2.3147 H   0  0  0  0  0  0  0  0  0  0  0  0
   -2.0284    3.7240    0.6708 H   0  0  0  0  0  0  0  0  0  0  0  0
   -3.1380    3.8230    2.0508 H   0  0  0  0  0  0  0  0  0  0  0  0
   -0.7390    1.2565   -0.0101 N   0  0  0  0  0  0  0  0  0  0  0  0
    0.4383    0.7557   -0.6738 C   0  0  2  0  0  0  0  0  0  0  0  0
    0.1937    0.8710   -2.1741 C   0  0  0  0  0  0  0  0  0  0  0  0
   -0.3566   -0.0094   -2.8320 O   0  0  0  0  0  0  0  0  0  0  0  0
    0.7431   -0.6978   -0.2937 C   0  0  0  0  0  0  0  0  0  0  0  0
    1.0766   -0.8610    1.1691 C   0  0  0  0  0  0  0  0  0  0  0  0
    2.2902   -0.4740    1.6844 N   0  3  0  0  0  0  0  0  0  0  0  0
    0.3518   -1.3699    2.2096 C   0  0  0  0  0  0  0  0  0  0  0  0
    2.3206   -0.7325    2.9957 C   0  0  0  0  0  0  0  0  0  0  0  0
    1.1460   -1.2784    3.3272 N   0  0  0  0  0  0  0  0  0  0  0  0
   -1.5221    1.5532   -0.5874 H   0  0  0  0  0  0  0  0  0  0  0  0
    1.2626    1.4215   -0.3923 H   0  0  0  0  0  0  0  0  0  0  0  0
    1.5681   -1.0862   -0.9062 H   0  0  0  0  0  0  0  0  0  0  0  0
   -0.1152   -1.3427   -0.5246 H   0  0  0  0  0  0  0  0  0  0  0  0
    3.0506   -0.0568    1.1547 H   0  0  0  0  0  0  0  0  0  0  0  0
   -0.6253   -1.7932    2.3312 H   0  0  0  0  0  0  0  0  0  0  0  0
    3.1427   -0.5370    3.6638 H   0  0  0  0  0  0  0  0  0  0  0  0
    0.8841   -1.5789    4.2618 H   0  0  0  0  0  0  0  0  0  0  0  0
    0.6180    2.0930   -2.6773 N   0  0  0  0  0  0  0  0  0  0  0  0
    0.4823    2.4697   -4.0660 C   0  0  2  0  0  0  0  0  0  0  0  0
    1.0387    1.3361   -4.9173 C   0  0  0  0  0  0  0  0  0  0  0  0
    1.8468    0.5128   -4.4928 O   0  0  0  0  0  0  0  0  0  0  0  0
    1.2059    3.7749   -4.3586 C   0  0  0  0  0  0  0  0  0  0  0  0
    1.0454    2.7560   -2.0373 H   0  0  0  0  0  0  0  0  0  0  0  0
   -0.5901    2.5806   -4.2602 H   0  0  0  0  0  0  0  0  0  0  0  0
    2.2817    3.6832   -4.1697 H   0  0  0  0  0  0  0  0  0  0  0  0
    1.0782    4.0735   -5.4043 H   0  0  0  0  0  0  0  0  0  0  0  0
    0.8247    4.5825   -3.7243 H   0  0  0  0  0  0  0  0  0  0  0  0
    0.5598    1.3775   -6.2193 N   0  0  0  0  0  0  0  0  0  0  0  0
    0.9498    0.4165   -7.2244 C   0  0  0  0  0  0  0  0  0  0  0  0
   -0.1221    2.0843   -6.4786 H   0  0  0  0  0  0  0  0  0  0  0  0
    1.8157    0.8007   -7.7834 H   0  0  0  0  0  0  0  0  0  0  0  0
    1.2189   -0.5331   -6.7388 H   0  0  0  0  0  0  0  0  0  0  0  0
    0.1114    0.2496   -7.9167 H   0  0  0  0  0  0  0  0  0  0  0  0
 22 24  2  0  0  0  0
 24 26  1  0  0  0  0
 25 26  1  0  0  0  0
 23 25  2  0  0  0  0
 21 22  1  0  0  0  0
 22 23  1  0  0  0  0
  1  3  1  0  0  0  0
  1  7  1  0  0  0  0
  1  2  2  0  0  0  0
 36 37  1  0  0  0  0
 37 45  1  0  0  0  0
 37 38  2  0  0  0  0
  8  9  1  0  0  0  0
  9 17  1  0  0  0  0
  9 10  2  0  0  0  0
 18 19  1  0  0  0  0
 19 35  1  0  0  0  0
 19 20  2  0  0  0  0
 36 39  1  0  0  0  0
  8 11  1  0  0  0  0
 45 46  1  0  0  0  0
 18 21  1  0  0  0  0
 35 36  1  0  0  0  0
  7  8  1  0  0  0  0
 17 18  1  0  0  0  0
 24 32  1  0  0  0  0
 25 33  1  0  0  0  0
  3  4  1  0  0  0  0
  3  5  1  0  0  0  0
  3  6  1  0  0  0  0
 39 42  1  0  0  0  0
 39 43  1  0  0  0  0
 39 44  1  0  0  0  0
 11 14  1  0  0  0  0
 11 15  1  0  0  0  0
 11 16  1  0  0  0  0
 46 48  1  0  0  0  0
 46 49  1  0  0  0  0
 46 50  1  0  0  0  0
 21 29  1  0  0  0  0
 21 30  1  0  0  0  0
 36 41  1  0  0  0  0
  8 13  1  0  0  0  0
 18 28  1  0  0  0  0
 26 34  1  0  0  0  0
 23 31  1  0  0  0  0
 45 47  1  0  0  0  0
  7 12  1  0  0  0  0
 35 40  1  0  0  0  0
 17 27  1  0  0  0  0
M  CHG  1  23   1
M  END
$$$$

  -OEChem-05262214473D

 50 50  0     1  0  0  0  0  0999 V2000
   -1.6938    0.4865    3.8080 C   0  0  0  0  0  0  0  0  0  0  0  0
   -0.7464   -0.1282    3.3323 O   0  0  0  0  0  0  0  0  0  0  0  0
   -2.1257    0.2041    5.2087 C   0  0  0  0  0  0  0  0  0  0  0  0
   -2.8853   -0.5922    5.2621 H   0  0  0  0  0  0  0  0  0  0  0  0
   -1.2944   -0.1435    5.8430 H   0  0  0  0  0  0  0  0  0  0  0  0
   -2.5637    1.0590    5.7483 H   0  0  0  0  0  0  0  0  0  0  0  0
   -2.4435    1.4589    3.1669 N   0  0  0  0  0  0  0  0  0  0  0  0
   -2.1966    1.8850    1.8145 C   0  0  2  0  0  0  0  0  0  0  0  0
   -0.8617    1.2996    1.3733 C   0  0  0  0  0  0  0  0  0  0  0  0
    0.0104    0.9468    2.1646 O   0  0  0  0  0  0  0  0  0  0  0  0
   -2.1879    3.4017    1.7050 C   0  0  0  0  0  0  0  0  0  0  0  0
   -3.2085    1.8948    3.6787 H   0  0  0  0  0  0  0  0  0  0  0  0
   -3.0007    1.4665    1.1994 H   0  0  0  0  0  0  0  0  0  0  0  0
   -1.3888    3.8390    2.3147 H   0  0  0  0  0  0  0  0  0  0  0  0
   -2.0284    3.7240    0.6708 H   0  0  0  0  0  0  0  0  0  0  0  0
   -3.1380    3.8230    2.0508 H   0  0  0  0  0  0  0  0  0  0  0  0
   -0.7390    1.2565   -0.0101 N   0  0  0  0  0  0  0  0  0  0  0  0
    0.4383    0.7557   -0.6738 C   0  0  2  0  0  0  0  0  0  0  0  0
    0.1937    0.8710   -2.1741 C   0  0  0  0  0  0  0  0  0  0  0  0
   -0.5787    0.1352   -2.7847 O   0  0  0  0  0  0  0  0  0  0  0  0
    0.7431   -0.6978   -0.2937 C   0  0  0  0  0  0  0  0  0  0  0  0
    1.0766   -0.8610    1.1691 C   0  0  0  0  0  0  0  0  0  0  0  0
    2.2902   -0.4740    1.6844 N   0  3  0  0  0  0  0  0  0  0  0  0
    0.3518   -1.3699    2.2096 C   0  0  0  0  0  0  0  0  0  0  0  0
    2.3206   -0.7325    2.9957 C   0  0  0  0  0  0  0  0  0  0  0  0
    1.1460   -1.2784    3.3272 N   0  0  0  0  0  0  0  0  0  0  0  0
   -1.5221    1.5532   -0.5874 H   0  0  0  0  0  0  0  0  0  0  0  0
    1.2626    1.4215   -0.3923 H   0  0  0  0  0  0  0  0  0  0  0  0
    1.5681   -1.0862   -0.9062 H   0  0  0  0  0  0  0  0  0  0  0  0
   -0.1152   -1.3427   -0.5246 H   0  0  0  0  0  0  0  0  0  0  0  0
    3.0506   -0.0568    1.1547 H   0  0  0  0  0  0  0  0  0  0  0  0
   -0.6253   -1.7932    2.3312 H   0  0  0  0  0  0  0  0  0  0  0  0
    3.1427   -0.5370    3.6638 H   0  0  0  0  0  0  0  0  0  0  0  0
    0.8841   -1.5789    4.2618 H   0  0  0  0  0  0  0  0  0  0  0  0
    0.9021    1.9238   -2.7366 N   0  0  0  0  0  0  0  0  0  0  0  0
    0.8320    2.2681   -4.1385 C   0  0  2  0  0  0  0  0  0  0  0  0
    1.0605    0.9978   -4.9469 C   0  0  0  0  0  0  0  0  0  0  0  0
    1.6430    0.0127   -4.4980 O   0  0  0  0  0  0  0  0  0  0  0  0
    1.8562    3.3331   -4.4986 C   0  0  0  0  0  0  0  0  0  0  0  0
    1.4999    2.4801   -2.1326 H   0  0  0  0  0  0  0  0  0  0  0  0
   -0.1814    2.6413   -4.3222 H   0  0  0  0  0  0  0  0  0  0  0  0
    2.8777    2.9774   -4.3212 H   0  0  0  0  0  0  0  0  0  0  0  0
    1.7826    3.6134   -5.5545 H   0  0  0  0  0  0  0  0  0  0  0  0
    1.7089    4.2353   -3.8951 H   0  0  0  0  0  0  0  0  0  0  0  0
    0.5755    1.1093   -6.2424 N   0  0  0  0  0  0  0  0  0  0  0  0
    0.6830    0.0421   -7.2097 C   0  0  0  0  0  0  0  0  0  0  0  0
    0.0895    1.9560   -6.5229 H   0  0  0  0  0  0  0  0  0  0  0  0
    1.6040    0.1706   -7.7973 H   0  0  0  0  0  0  0  0  0  0  0  0
    0.7139   -0.9250   -6.6866 H   0  0  0  0  0  0  0  0  0  0  0  0
   -0.1873    0.0677   -7.8820 H   0  0  0  0  0  0  0  0  0  0  0  0
 22 24  2  0  0  0  0
 24 26  1  0  0  0  0
 25 26  1  0  0  0  0
 23 25  2  0  0  0  0
 21 22  1  0  0  0  0
 22 23  1  0  0  0  0
  1  3  1  0  0  0  0
  1  7  1  0  0  0  0
  1  2  2  0  0  0  0
 36 37  1  0  0  0  0
 37 45  1  0  0  0  0
 37 38  2  0  0  0  0
  8  9  1  0  0  0  0
  9 17  1  0  0  0  0
  9 10  2  0  0  0  0
 18 19  1  0  0  0  0
 19 35  1  0  0  0  0
 19 20  2  0  0  0  0
 36 39  1  0  0  0  0
  8 11  1  0  0  0  0
 45 46  1  0  0  0  0
 18 21  1  0  0  0  0
 35 36  1  0  0  0  0
  7  8  1  0  0  0  0
 17 18  1  0  0  0  0
 24 32  1  0  0  0  0
 25 33  1  0  0  0  0
  3  4  1  0  0  0  0
  3  5  1  0  0  0  0
  3  6  1  0  0  0  0
 39 42  1  0  0  0  0
 39 43  1  0  0  0  0
 39 44  1  0  0  0  0
 11 14  1  0  0  0  0
 11 15  1  0  0  0  0
 11 16  1  0  0  0  0
 46 48  1  0  0  0  0
 46 49  1  0  0  0  0
 46 50  1  0  0  0  0
 21 29  1  0  0  0  0
 21 30  1  0  0  0  0
 36 41  1  0  0  0  0
  8 13  1  0  0  0  0
 18 28  1  0  0  0  0
 26 34  1  0  0  0  0
 23 31  1  0  0  0  0
 45 47  1  0  0  0  0
  7 12  1  0  0  0  0
 35 40  1  0  0  0  0
 17 27  1  0  0  0  0
M  CHG  1  23   1
M  END
$$$$

  -OEChem-05262214473D

 50 50  0     1  0  0  0  0  0999 V2000
   -1.6938    0.4865    3.8080 C   0  0  0  0  0  0  0  0  0  0  0  0
   -0.7464   -0.1282    3.3323 O   0  0  0  0  0  0  0  0  0  0  0  0
   -2.1257    0.2041    5.2087 C   0  0  0  0  0  0  0  0  0  0  0  0
   -2.8853   -0.5922    5.2621 H   0  0  0  0  0  0  0  0  0  0  0  0
   -1.2944   -0.1435    5.8430 H   0  0  0  0  0  0  0  0  0  0  0  0
   -2.5637    1.0590    5.7483 H   0  0  0  0  0  0  0  0  0  0  0  0
   -2.4435    1.4589    3.1669 N   0  0  0  0  0  0  0  0  0  0  0  0
   -2.1966    1.8850    1.8145 C   0  0  2  0  0  0  0  0  0  0  0  0
   -0.8617    1.2996    1.3733 C   0  0  0  0  0  0  0  0  0  0  0  0
    0.0104    0.9468    2.1646 O   0  0  0  0  0  0  0  0  0  0  0  0
   -2.1879    3.4017    1.7050 C   0  0  0  0  0  0  0  0  0  0  0  0
   -3.2085    1.8948    3.6787 H   0  0  0  0  0  0  0  0  0  0  0  0
   -3.0007    1.4665    1.1994 H   0  0  0  0  0  0  0  0  0  0  0  0
   -1.3888    3.8390    2.3147 H   0  0  0  0  0  0  0  0  0  0  0  0
   -2.0284    3.7240    0.6708 H   0  0  0  0  0  0  0  0  0  0  0  0
   -3.1380    3.8230    2.0508 H   0  0  0  0  0  0  0  0  0  0  0  0
   -0.7390    1.2565   -0.0101 N   0  0  0  0  0  0  0  0  0  0  0  0
    0.4383    0.7557   -0.6738 C   0  0  2  0  0  0  0  0  0  0  0  0
    0.1937    0.8710   -2.1741 C   0  0  0  0  0  0  0  0  0  0  0  0
   -0.7554    0.3333   -2.7406 O   0  0  0  0  0  0  0  0  0  0  0  0
    0.7431   -0.6978   -0.2937 C   0  0  0  0  0  0  0  0  0  0  0  0
    1.0766   -0.8610    1.1691 C   0  0  0  0  0  0  0  0  0  0  0  0
    2.2902   -0.4740    1.6844 N   0  3  0  0  0  0  0  0  0  0  0  0
    0.3518   -1.3699    2.2096 C   0  0  0  0  0  0  0  0  0  0  0  0
    2.3206   -0.7325    2.9957 C   0  0  0  0  0  0  0  0  0  0  0  0
    1.1460   -1.2784    3.3272 N   0  0  0  0  0  0  0  0  0  0  0  0
   -1.5221    1.5532   -0.5874 H   0  0  0  0  0  0  0  0  0  0  0  0
    1.2626    1.4215   -0.3923 H   0  0  0  0  0  0  0  0  0  0  0  0
    1.5681   -1.0862   -0.9062 H   0  0  0  0  0  0  0  0  0  0  0  0
   -0.1152   -1.3427   -0.5246 H   0  0  0  0  0  0  0  0  0  0  0  0
    3.0506   -0.0568    1.1547 H   0  0  0  0  0  0  0  0  0  0  0  0
   -0.6253   -1.7932    2.3312 H   0  0  0  0  0  0  0  0  0  0  0  0
    3.1427   -0.5370    3.6638 H   0  0  0  0  0  0  0  0  0  0  0  0
    0.8841   -1.5789    4.2618 H   0  0  0  0  0  0  0  0  0  0  0  0
    1.1323    1.6854   -2.7925 N   0  0  0  0  0  0  0  0  0  0  0  0
    1.1170    1.9814   -4.2070 C   0  0  2  0  0  0  0  0  0  0  0  0
    0.9947    0.6642   -4.9618 C   0  0  0  0  0  0  0  0  0  0  0  0
    1.3186   -0.4185   -4.4783 O   0  0  0  0  0  0  0  0  0  0  0  0
    2.3691    2.7349   -4.6282 C   0  0  0  0  0  0  0  0  0  0  0  0
    1.8668    2.0940   -2.2221 H   0  0  0  0  0  0  0  0  0  0  0  0
    0.2276    2.5933   -4.3926 H   0  0  0  0  0  0  0  0  0  0  0  0
    3.2706    2.1375   -4.4498 H   0  0  0  0  0  0  0  0  0  0  0  0
    2.3428    2.9833   -5.6943 H   0  0  0  0  0  0  0  0  0  0  0  0
    2.4712    3.6676   -4.0631 H   0  0  0  0  0  0  0  0  0  0  0  0
    0.5218    0.8452   -6.2540 N   0  0  0  0  0  0  0  0  0  0  0  0
    0.3303   -0.2510   -7.1747 C   0  0  0  0  0  0  0  0  0  0  0  0
    0.2603    1.7762   -6.5646 H   0  0  0  0  0  0  0  0  0  0  0  0
    1.2387   -0.3847   -7.7804 H   0  0  0  0  0  0  0  0  0  0  0  0
    0.1272   -1.1728   -6.6100 H   0  0  0  0  0  0  0  0  0  0  0  0
   -0.5214   -0.0304   -7.8351 H   0  0  0  0  0  0  0  0  0  0  0  0
 22 24  2  0  0  0  0
 24 26  1  0  0  0  0
 25 26  1  0  0  0  0
 23 25  2  0  0  0  0
 21 22  1  0  0  0  0
 22 23  1  0  0  0  0
  1  3  1  0  0  0  0
  1  7  1  0  0  0  0
  1  2  2  0  0  0  0
 36 37  1  0  0  0  0
 37 45  1  0  0  0  0
 37 38  2  0  0  0  0
  8  9  1  0  0  0  0
  9 17  1  0  0  0  0
  9 10  2  0  0  0  0
 18 19  1  0  0  0  0
 19 35  1  0  0  0  0
 19 20  2  0  0  0  0
 36 39  1  0  0  0  0
  8 11  1  0  0  0  0
 45 46  1  0  0  0  0
 18 21  1  0  0  0  0
 35 36  1  0  0  0  0
  7  8  1  0  0  0  0
 17 18  1  0  0  0  0
 24 32  1  0  0  0  0
 25 33  1  0  0  0  0
  3  4  1  0  0  0  0
  3  5  1  0  0  0  0
  3  6  1  0  0  0  0
 39 42  1  0  0  0  0
 39 43  1  0  0  0  0
 39 44  1  0  0  0  0
 11 14  1  0  0  0  0
 11 15  1  0  0  0  0
 11 16  1  0  0  0  0
 46 48  1  0  0  0  0
 46 49  1  0  0  0  0
 46 50  1  0  0  0  0
 21 29  1  0  0  0  0
 21 30  1  0  0  0  0
 36 41  1  0  0  0  0
  8 13  1  0  0  0  0
 18 28  1  0  0  0  0
 26 34  1  0  0  0  0
 23 31  1  0  0  0  0
 45 47  1  0  0  0  0
  7 12  1  0  0  0  0
 35 40  1  0  0  0  0
 17 27  1  0  0  0  0
M  CHG  1  23   1
M  END
$$$$

  -OEChem-05262214473D

 50 50  0     1  0  0  0  0  0999 V2000
   -1.6938    0.4865    3.8080 C   0  0  0  0  0  0  0  0  0  0  0  0
   -0.7464   -0.1282    3.3323 O   0  0  0  0  0  0  0  0  0  0  0  0
   -2.1257    0.2041    5.2087 C   0  0  0  0  0  0  0  0  0  0  0  0
   -2.8853   -0.5922    5.2621 H   0  0  0  0  0  0  0  0  0  0  0  0
   -1.2944   -0.1435    5.8430 H   0  0  0  0  0  0  0  0  0  0  0  0
   -2.5637    1.0590    5.7483 H   0  0  0  0  0  0  0  0  0  0  0  0
   -2.4435    1.4589    3.1669 N   0  0  0  0  0  0  0  0  0  0  0  0
   -2.1966    1.8850    1.8145 C   0  0  2  0  0  0  0  0  0  0  0  0
   -0.8617    1.2996    1.3733 C   0  0  0  0  0  0  0  0  0  0  0  0
    0.0104    0.9468    2.1646 O   0  0  0  0  0  0  0  0  0  0  0  0
   -2.1879    3.4017    1.7050 C   0  0  0  0  0  0  0  0  0  0  0  0
   -3.2085    1.8948    3.6787 H   0  0  0  0  0  0  0  0  0  0  0  0
   -3.0007    1.4665    1.1994 H   0  0  0  0  0  0  0  0  0  0  0  0
   -1.3888    3.8390    2.3147 H   0  0  0  0  0  0  0  0  0  0  0  0
   -2.0284    3.7240    0.6708 H   0  0  0  0  0  0  0  0  0  0  0  0
   -3.1380    3.8230    2.0508 H   0  0  0  0  0  0  0  0  0  0  0  0
   -0.7390    1.2565   -0.0101 N   0  0  0  0  0  0  0  0  0  0  0  0
    0.4383    0.7557   -0.6738 C   0  0  2  0  0  0  0  0  0  0  0  0
    0.1937    0.8710   -2.1741 C   0  0  0  0  0  0  0  0  0  0  0  0
   -0.8748    0.5716   -2.7028 O   0  0  0  0  0  0  0  0  0  0  0  0
    0.7431   -0.6978   -0.2937 C   0  0  0  0  0  0  0  0  0  0  0  0
    1.0766   -0.8610    1.1691 C   0  0  0  0  0  0  0  0  0  0  0  0
    2.2902   -0.4740    1.6844 N   0  3  0  0  0  0  0  0  0  0  0  0
    0.3518   -1.3699    2.2096 C   0  0  0  0  0  0  0  0  0  0  0  0
    2.3206   -0.7325    2.9957 C   0  0  0  0  0  0  0  0  0  0  0  0
    1.1460   -1.2784    3.3272 N   0  0  0  0  0  0  0  0  0  0  0  0
   -1.5221    1.5532   -0.5874 H   0  0  0  0  0  0  0  0  0  0  0  0
    1.2626    1.4215   -0.3923 H   0  0  0  0  0  0  0  0  0  0  0  0
    1.5681   -1.0862   -0.9062 H   0  0  0  0  0  0  0  0  0  0  0  0
   -0.1152   -1.3427   -0.5246 H   0  0  0  0  0  0  0  0  0  0  0  0
    3.0506   -0.0568    1.1547 H   0  0  0  0  0  0  0  0  0  0  0  0
   -0.6253   -1.7932    2.3312 H   0  0  0  0  0  0  0  0  0  0  0  0
    3.1427   -0.5370    3.6638 H   0  0  0  0  0  0  0  0  0  0  0  0
    0.8841   -1.5789    4.2618 H   0  0  0  0  0  0  0  0  0  0  0  0
    1.2928    1.3943   -2.8410 N   0  0  0  0  0  0  0  0  0  0  0  0
    1.3180    1.6289   -4.2669 C   0  0  2  0  0  0  0  0  0  0  0  0
    0.8459    0.3582   -4.9611 C   0  0  0  0  0  0  0  0  0  0  0  0
    0.8958   -0.7517   -4.4350 O   0  0  0  0  0  0  0  0  0  0  0  0
    2.7096    2.0211   -4.7386 C   0  0  0  0  0  0  0  0  0  0  0  0
    2.1210    1.6238   -2.2997 H   0  0  0  0  0  0  0  0  0  0  0  0
    0.6090    2.4398   -4.4666 H   0  0  0  0  0  0  0  0  0  0  0  0
    3.4337    1.2209   -4.5468 H   0  0  0  0  0  0  0  0  0  0  0  0
    2.7208    2.2262   -5.8141 H   0  0  0  0  0  0  0  0  0  0  0  0
    3.0596    2.9182   -4.2166 H   0  0  0  0  0  0  0  0  0  0  0  0
    0.4025    0.6033   -6.2531 N   0  0  0  0  0  0  0  0  0  0  0  0
   -0.0844   -0.4428   -7.1219 C   0  0  0  0  0  0  0  0  0  0  0  0
    0.3787    1.5574   -6.6007 H   0  0  0  0  0  0  0  0  0  0  0  0
    0.7447   -0.8274   -7.7339 H   0  0  0  0  0  0  0  0  0  0  0  0
   -0.5010   -1.2596   -6.5142 H   0  0  0  0  0  0  0  0  0  0  0  0
   -0.8682   -0.0382   -7.7791 H   0  0  0  0  0  0  0  0  0  0  0  0
 22 24  2  0  0  0  0
 24 26  1  0  0  0  0
 25 26  1  0  0  0  0
 23 25  2  0  0  0  0
 21 22  1  0  0  0  0
 22 23  1  0  0  0  0
  1  3  1  0  0  0  0
  1  7  1  0  0  0  0
  1  2  2  0  0  0  0
 36 37  1  0  0  0  0
 37 45  1  0  0  0  0
 37 38  2  0  0  0  0
  8  9  1  0  0  0  0
  9 17  1  0  0  0  0
  9 10  2  0  0  0  0
 18 19  1  0  0  0  0
 19 35  1  0  0  0  0
 19 20  2  0  0  0  0
 36 39  1  0  0  0  0
  8 11  1  0  0  0  0
 45 46  1  0  0  0  0
 18 21  1  0  0  0  0
 35 36  1  0  0  0  0
  7  8  1  0  0  0  0
 17 18  1  0  0  0  0
 24 32  1  0  0  0  0
 25 33  1  0  0  0  0
  3  4  1  0  0  0  0
  3  5  1  0  0  0  0
  3  6  1  0  0  0  0
 39 42  1  0  0  0  0
 39 43  1  0  0  0  0
 39 44  1  0  0  0  0
 11 14  1  0  0  0  0
 11 15  1  0  0  0  0
 11 16  1  0  0  0  0
 46 48  1  0  0  0  0
 46 49  1  0  0  0  0
 46 50  1  0  0  0  0
 21 29  1  0  0  0  0
 21 30  1  0  0  0  0
 36 41  1  0  0  0  0
  8 13  1  0  0  0  0
 18 28  1  0  0  0  0
 26 34  1  0  0  0  0
 23 31  1  0  0  0  0
 45 47  1  0  0  0  0
  7 12  1  0  0  0  0
 35 40  1  0  0  0  0
 17 27  1  0  0  0  0
M  CHG  1  23   1
M  END
$$$$

  -OEChem-05262214473D

 50 50  0     1  0  0  0  0  0999 V2000
   -1.6938    0.4865    3.8080 C   0  0  0  0  0  0  0  0  0  0  0  0
   -0.7464   -0.1282    3.3323 O   0  0  0  0  0  0  0  0  0  0  0  0
   -2.1257    0.2041    5.2087 C   0  0  0  0  0  0  0  0  0  0  0  0
   -2.8853   -0.5922    5.2621 H   0  0  0  0  0  0  0  0  0  0  0  0
   -1.2944   -0.1435    5.8430 H   0  0  0  0  0  0  0  0  0  0  0  0
   -2.5637    1.0590    5.7483 H   0  0  0  0  0  0  0  0  0  0  0  0
   -2.4435    1.4589    3.1669 N   0  0  0  0  0  0  0  0  0  0  0  0
   -2.1966    1.8850    1.8145 C   0  0  2  0  0  0  0  0  0  0  0  0
   -0.8617    1.2996    1.3733 C   0  0  0  0  0  0  0  0  0  0  0  0
    0.0104    0.9468    2.1646 O   0  0  0  0  0  0  0  0  0  0  0  0
   -2.1879    3.4017    1.7050 C   0  0  0  0  0  0  0  0  0  0  0  0
   -3.2085    1.8948    3.6787 H   0  0  0  0  0  0  0  0  0  0  0  0
   -3.0007    1.4665    1.1994 H   0  0  0  0  0  0  0  0  0  0  0  0
   -1.3888    3.8390    2.3147 H   0  0  0  0  0  0  0  0  0  0  0  0
   -2.0284    3.7240    0.6708 H   0  0  0  0  0  0  0  0  0  0  0  0
   -3.1380    3.8230    2.0508 H   0  0  0  0  0  0  0  0  0  0  0  0
   -0.7390    1.2565   -0.0101 N   0  0  0  0  0  0  0  0  0  0  0  0
    0.4383    0.7557   -0.6738 C   0  0  2  0  0  0  0  0  0  0  0  0
    0.1937    0.8710   -2.1741 C   0  0  0  0  0  0  0  0  0  0  0  0
   -0.9287    0.8338   -2.6739 O   0  0  0  0  0  0  0  0  0  0  0  0
    0.7431   -0.6978   -0.2937 C   0  0  0  0  0  0  0  0  0  0  0  0
    1.0766   -0.8610    1.1691 C   0  0  0  0  0  0  0  0  0  0  0  0
    2.2902   -0.4740    1.6844 N   0  3  0  0  0  0  0  0  0  0  0  0
    0.3518   -1.3699    2.2096 C   0  0  0  0  0  0  0  0  0  0  0  0
    2.3206   -0.7325    2.9957 C   0  0  0  0  0  0  0  0  0  0  0  0
    1.1460   -1.2784    3.3272 N   0  0  0  0  0  0  0  0  0  0  0  0
   -1.5221    1.5532   -0.5874 H   0  0  0  0  0  0  0  0  0  0  0  0
    1.2626    1.4215   -0.3923 H   0  0  0  0  0  0  0  0  0  0  0  0
    1.5681   -1.0862   -0.9062 H   0  0  0  0  0  0  0  0  0  0  0  0
   -0.1152   -1.3427   -0.5246 H   0  0  0  0  0  0  0  0  0  0  0  0
    3.0506   -0.0568    1.1547 H   0  0  0  0  0  0  0  0  0  0  0  0
   -0.6253   -1.7932    2.3312 H   0  0  0  0  0  0  0  0  0  0  0  0
    3.1427   -0.5370    3.6638 H   0  0  0  0  0  0  0  0  0  0  0  0
    0.8841   -1.5789    4.2618 H   0  0  0  0  0  0  0  0  0  0  0  0
    1.3727    1.0701   -2.8790 N   0  0  0  0  0  0  0  0  0  0  0  0
    1.4212    1.2348   -4.3140 C   0  0  2  0  0  0  0  0  0  0  0  0
    0.6243    0.1005   -4.9447 C   0  0  0  0  0  0  0  0  0  0  0  0
    0.4034   -0.9640   -4.3710 O   0  0  0  0  0  0  0  0  0  0  0  0
    2.8545    1.2403   -4.8222 C   0  0  0  0  0  0  0  0  0  0  0  0
    2.2453    1.1017   -2.3601 H   0  0  0  0  0  0  0  0  0  0  0  0
    0.9369    2.1913   -4.5391 H   0  0  0  0  0  0  0  0  0  0  0  0
    3.3559    0.2899   -4.6057 H   0  0  0  0  0  0  0  0  0  0  0  0
    2.8907    1.3937   -5.9058 H   0  0  0  0  0  0  0  0  0  0  0  0
    3.4341    2.0380   -4.3453 H   0  0  0  0  0  0  0  0  0  0  0  0
    0.2257    0.4000   -6.2399 N   0  0  0  0  0  0  0  0  0  0  0  0
   -0.5328   -0.5202   -7.0547 C   0  0  0  0  0  0  0  0  0  0  0  0
    0.4366    1.3144   -6.6288 H   0  0  0  0  0  0  0  0  0  0  0  0
    0.1557   -1.1272   -7.6610 H   0  0  0  0  0  0  0  0  0  0  0  0
   -1.1281   -1.1794   -6.4058 H   0  0  0  0  0  0  0  0  0  0  0  0
   -1.2041    0.0450   -7.7180 H   0  0  0  0  0  0  0  0  0  0  0  0
 22 24  2  0  0  0  0
 24 26  1  0  0  0  0
 25 26  1  0  0  0  0
 23 25  2  0  0  0  0
 21 22  1  0  0  0  0
 22 23  1  0  0  0  0
  1  3  1  0  0  0  0
  1  7  1  0  0  0  0
  1  2  2  0  0  0  0
 36 37  1  0  0  0  0
 37 45  1  0  0  0  0
 37 38  2  0  0  0  0
  8  9  1  0  0  0  0
  9 17  1  0  0  0  0
  9 10  2  0  0  0  0
 18 19  1  0  0  0  0
 19 35  1  0  0  0  0
 19 20  2  0  0  0  0
 36 39  1  0  0  0  0
  8 11  1  0  0  0  0
 45 46  1  0  0  0  0
 18 21  1  0  0  0  0
 35 36  1  0  0  0  0
  7  8  1  0  0  0  0
 17 18  1  0  0  0  0
 24 32  1  0  0  0  0
 25 33  1  0  0  0  0
  3  4  1  0  0  0  0
  3  5  1  0  0  0  0
  3  6  1  0  0  0  0
 39 42  1  0  0  0  0
 39 43  1  0  0  0  0
 39 44  1  0  0  0  0
 11 14  1  0  0  0  0
 11 15  1  0  0  0  0
 11 16  1  0  0  0  0
 46 48  1  0  0  0  0
 46 49  1  0  0  0  0
 46 50  1  0  0  0  0
 21 29  1  0  0  0  0
 21 30  1  0  0  0  0
 36 41  1  0  0  0  0
  8 13  1  0  0  0  0
 18 28  1  0  0  0  0
 26 34  1  0  0  0  0
 23 31  1  0  0  0  0
 45 47  1  0  0  0  0
  7 12  1  0  0  0  0
 35 40  1  0  0  0  0
 17 27  1  0  0  0  0
M  CHG  1  23   1
M  END
$$$$

  -OEChem-05262214473D

 50 50  0     1  0  0  0  0  0999 V2000
   -1.6938    0.4865    3.8080 C   0  0  0  0  0  0  0  0  0  0  0  0
   -0.7464   -0.1282    3.3323 O   0  0  0  0  0  0  0  0  0  0  0  0
   -2.1257    0.2041    5.2087 C   0  0  0  0  0  0  0  0  0  0  0  0
   -2.8853   -0.5922    5.2621 H   0  0  0  0  0  0  0  0  0  0  0  0
   -1.2944   -0.1435    5.8430 H   0  0  0  0  0  0  0  0  0  0  0  0
   -2.5637    1.0590    5.7483 H   0  0  0  0  0  0  0  0  0  0  0  0
   -2.4435    1.4589    3.1669 N   0  0  0  0  0  0  0  0  0  0  0  0
   -2.1966    1.8850    1.8145 C   0  0  2  0  0  0  0  0  0  0  0  0
   -0.8617    1.2996    1.3733 C   0  0  0  0  0  0  0  0  0  0  0  0
    0.0104    0.9468    2.1646 O   0  0  0  0  0  0  0  0  0  0  0  0
   -2.1879    3.4017    1.7050 C   0  0  0  0  0  0  0  0  0  0  0  0
   -3.2085    1.8948    3.6787 H   0  0  0  0  0  0  0  0  0  0  0  0
   -3.0007    1.4665    1.1994 H   0  0  0  0  0  0  0  0  0  0  0  0
   -1.3888    3.8390    2.3147 H   0  0  0  0  0  0  0  0  0  0  0  0
   -2.0284    3.7240    0.6708 H   0  0  0  0  0  0  0  0  0  0  0  0
   -3.1380    3.8230    2.0508 H   0  0  0  0  0  0  0  0  0  0  0  0
   -0.7390    1.2565   -0.0101 N   0  0  0  0  0  0  0  0  0  0  0  0
    0.4383    0.7557   -0.6738 C   0  0  2  0  0  0  0  0  0  0  0  0
    0.1937    0.8710   -2.1741 C   0  0  0  0  0  0  0  0  0  0  0  0
   -0.9134    1.1019   -2.6558 O   0  0  0  0  0  0  0  0  0  0  0  0
    0.7431   -0.6978   -0.2937 C   0  0  0  0  0  0  0  0  0  0  0  0
    1.0766   -0.8610    1.1691 C   0  0  0  0  0  0  0  0  0  0  0  0
    2.2902   -0.4740    1.6844 N   0  3  0  0  0  0  0  0  0  0  0  0
    0.3518   -1.3699    2.2096 C   0  0  0  0  0  0  0  0  0  0  0  0
    2.3206   -0.7325    2.9957 C   0  0  0  0  0  0  0  0  0  0  0  0
    1.1460   -1.2784    3.3272 N   0  0  0  0  0  0  0  0  0  0  0  0
   -1.5221    1.5532   -0.5874 H   0  0  0  0  0  0  0  0  0  0  0  0
    1.2626    1.4215   -0.3923 H   0  0  0  0  0  0  0  0  0  0  0  0
    1.5681   -1.0862   -0.9062 H   0  0  0  0  0  0  0  0  0  0  0  0
   -0.1152   -1.3427   -0.5246 H   0  0  0  0  0  0  0  0  0  0  0  0
    3.0506   -0.0568    1.1547 H   0  0  0  0  0  0  0  0  0  0  0  0
   -0.6253   -1.7932    2.3312 H   0  0  0  0  0  0  0  0  0  0  0  0
    3.1427   -0.5370    3.6638 H   0  0  0  0  0  0  0  0  0  0  0  0
    0.8841   -1.5789    4.2618 H   0  0  0  0  0  0  0  0  0  0  0  0
    1.3666    0.7351   -2.9037 N   0  0  0  0  0  0  0  0  0  0  0  0
    1.4195    0.8259   -4.3452 C   0  0  2  0  0  0  0  0  0  0  0  0
    0.3449   -0.0913   -4.9139 C   0  0  0  0  0  0  0  0  0  0  0  0
   -0.1251   -1.0409   -4.2908 O   0  0  0  0  0  0  0  0  0  0  0  0
    2.7939    0.4457   -4.8734 C   0  0  0  0  0  0  0  0  0  0  0  0
    2.2313    0.5632   -2.3992 H   0  0  0  0  0  0  0  0  0  0  0  0
    1.1890    1.8647   -4.6053 H   0  0  0  0  0  0  0  0  0  0  0  0
    3.0425   -0.5920   -4.6224 H   0  0  0  0  0  0  0  0  0  0  0  0
    2.8409    0.5424   -5.9632 H   0  0  0  0  0  0  0  0  0  0  0  0
    3.5691    1.0871   -4.4404 H   0  0  0  0  0  0  0  0  0  0  0  0
    0.0033    0.2493   -6.2153 N   0  0  0  0  0  0  0  0  0  0  0  0
   -0.9843   -0.4780   -6.9779 C   0  0  0  0  0  0  0  0  0  0  0  0
    0.4300    1.0637   -6.6470 H   0  0  0  0  0  0  0  0  0  0  0  0
   -0.4881   -1.2637   -7.5665 H   0  0  0  0  0  0  0  0  0  0  0  0
   -1.7113   -0.9376   -6.2922 H   0  0  0  0  0  0  0  0  0  0  0  0
   -1.5061    0.2135   -7.6558 H   0  0  0  0  0  0  0  0  0  0  0  0
 22 24  2  0  0  0  0
 24 26  1  0  0  0  0
 25 26  1  0  0  0  0
 23 25  2  0  0  0  0
 21 22  1  0  0  0  0
 22 23  1  0  0  0  0
  1  3  1  0  0  0  0
  1  7  1  0  0  0  0
  1  2  2  0  0  0  0
 36 37  1  0  0  0  0
 37 45  1  0  0  0  0
 37 38  2  0  0  0  0
  8  9  1  0  0  0  0
  9 17  1  0  0  0  0
  9 10  2  0  0  0  0
 18 19  1  0  0  0  0
 19 35  1  0  0  0  0
 19 20  2  0  0  0  0
 36 39  1  0  0  0  0
  8 11  1  0  0  0  0
 45 46  1  0  0  0  0
 18 21  1  0  0  0  0
 35 36  1  0  0  0  0
  7  8  1  0  0  0  0
 17 18  1  0  0  0  0
 24 32  1  0  0  0  0
 25 33  1  0  0  0  0
  3  4  1  0  0  0  0
  3  5  1  0  0  0  0
  3  6  1  0  0  0  0
 39 42  1  0  0  0  0
 39 43  1  0  0  0  0
 39 44  1  0  0  0  0
 11 14  1  0  0  0  0
 11 15  1  0  0  0  0
 11 16  1  0  0  0  0
 46 48  1  0  0  0  0
 46 49  1  0  0  0  0
 46 50  1  0  0  0  0
 21 29  1  0  0  0  0
 21 30  1  0  0  0  0
 36 41  1  0  0  0  0
  8 13  1  0  0  0  0
 18 28  1  0  0  0  0
 26 34  1  0  0  0  0
 23 31  1  0  0  0  0
 45 47  1  0  0  0  0
  7 12  1  0  0  0  0
 35 40  1  0  0  0  0
 17 27  1  0  0  0  0
M  CHG  1  23   1
M  END
$$$$

  -OEChem-05262214473D

 50 50  0     1  0  0  0  0  0999 V2000
   -1.6938    0.4865    3.8080 C   0  0  0  0  0  0  0  0  0  0  0  0
   -0.7464   -0.1282    3.3323 O   0  0  0  0  0  0  0  0  0  0  0  0
   -2.1257    0.2041    5.2087 C   0  0  0  0  0  0  0  0  0  0  0  0
   -2.8853   -0.5922    5.2621 H   0  0  0  0  0  0  0  0  0  0  0  0
   -1.2944   -0.1435    5.8430 H   0  0  0  0  0  0  0  0  0  0  0  0
   -2.5637    1.0590    5.7483 H   0  0  0  0  0  0  0  0  0  0  0  0
   -2.4435    1.4589    3.1669 N   0  0  0  0  0  0  0  0  0  0  0  0
   -2.1966    1.8850    1.8145 C   0  0  2  0  0  0  0  0  0  0  0  0
   -0.8617    1.2996    1.3733 C   0  0  0  0  0  0  0  0  0  0  0  0
    0.0104    0.9468    2.1646 O   0  0  0  0  0  0  0  0  0  0  0  0
   -2.1879    3.4017    1.7050 C   0  0  0  0  0  0  0  0  0  0  0  0
   -3.2085    1.8948    3.6787 H   0  0  0  0  0  0  0  0  0  0  0  0
   -3.0007    1.4665    1.1994 H   0  0  0  0  0  0  0  0  0  0  0  0
   -1.3888    3.8390    2.3147 H   0  0  0  0  0  0  0  0  0  0  0  0
   -2.0284    3.7240    0.6708 H   0  0  0  0  0  0  0  0  0  0  0  0
   -3.1380    3.8230    2.0508 H   0  0  0  0  0  0  0  0  0  0  0  0
   -0.7390    1.2565   -0.0101 N   0  0  0  0  0  0  0  0  0  0  0  0
    0.4383    0.7557   -0.6738 C   0  0  2  0  0  0  0  0  0  0  0  0
    0.3633    1.2081   -2.1277 C   0  0  0  0  0  0  0  0  0  0  0  0
   -0.5466    1.9101   -2.5639 O   0  0  0  0  0  0  0  0  0  0  0  0
    0.5414   -0.7718   -0.5956 C   0  0  0  0  0  0  0  0  0  0  0  0
    0.7029   -1.2743    0.8183 C   0  0  0  0  0  0  0  0  0  0  0  0
    1.8922   -1.1615    1.4972 N   0  3  0  0  0  0  0  0  0  0  0  0
   -0.1762   -1.8889    1.6646 C   0  0  0  0  0  0  0  0  0  0  0  0
    1.7592   -1.6862    2.7196 C   0  0  0  0  0  0  0  0  0  0  0  0
    0.5041   -2.1327    2.8332 N   0  0  0  0  0  0  0  0  0  0  0  0
   -1.5221    1.5532   -0.5874 H   0  0  0  0  0  0  0  0  0  0  0  0
    1.2973    1.2374   -0.1919 H   0  0  0  0  0  0  0  0  0  0  0  0
    1.3774   -1.1287   -1.2123 H   0  0  0  0  0  0  0  0  0  0  0  0
   -0.3540   -1.2392   -1.0264 H   0  0  0  0  0  0  0  0  0  0  0  0
    2.7442   -0.7457    1.1308 H   0  0  0  0  0  0  0  0  0  0  0  0
   -1.2011   -2.1987    1.6157 H   0  0  0  0  0  0  0  0  0  0  0  0
    2.5248   -1.7401    3.4755 H   0  0  0  0  0  0  0  0  0  0  0  0
    0.1163   -2.5829    3.6574 H   0  0  0  0  0  0  0  0  0  0  0  0
    1.4579    0.7759   -2.8635 N   0  0  0  0  0  0  0  0  0  0  0  0
    1.6461    1.0859   -4.2625 C   0  0  2  0  0  0  0  0  0  0  0  0
    0.3575    0.7421   -4.9979 C   0  0  0  0  0  0  0  0  0  0  0  0
   -0.4687   -0.0585   -4.5651 O   0  0  0  0  0  0  0  0  0  0  0  0
    2.8248    0.3217   -4.8449 C   0  0  0  0  0  0  0  0  0  0  0  0
    2.1621    0.2133   -2.3952 H   0  0  0  0  0  0  0  0  0  0  0  0
    1.8268    2.1645   -4.3259 H   0  0  0  0  0  0  0  0  0  0  0  0
    2.6620   -0.7609   -4.7902 H   0  0  0  0  0  0  0  0  0  0  0  0
    2.9838    0.5792   -5.8973 H   0  0  0  0  0  0  0  0  0  0  0  0
    3.7454    0.5474   -4.2958 H   0  0  0  0  0  0  0  0  0  0  0  0
    0.2592    1.4020   -6.2149 N   0  0  0  0  0  0  0  0  0  0  0  0
   -0.8656    1.2327   -7.1049 C   0  0  0  0  0  0  0  0  0  0  0  0
    0.9822    2.0624   -6.4851 H   0  0  0  0  0  0  0  0  0  0  0  0
   -0.6453    0.4326   -7.8269 H   0  0  0  0  0  0  0  0  0  0  0  0
   -1.7580    0.9639   -6.5208 H   0  0  0  0  0  0  0  0  0  0  0  0
   -1.0504    2.1730   -7.6450 H   0  0  0  0  0  0  0  0  0  0  0  0
 22 24  2  0  0  0  0
 24 26  1  0  0  0  0
 25 26  1  0  0  0  0
 23 25  2  0  0  0  0
 21 22  1  0  0  0  0
 22 23  1  0  0  0  0
  1  3  1  0  0  0  0
  1  7  1  0  0  0  0
  1  2  2  0  0  0  0
 36 37  1  0  0  0  0
 37 45  1  0  0  0  0
 37 38  2  0  0  0  0
  8  9  1  0  0  0  0
  9 17  1  0  0  0  0
  9 10  2  0  0  0  0
 18 19  1  0  0  0  0
 19 35  1  0  0  0  0
 19 20  2  0  0  0  0
 36 39  1  0  0  0  0
  8 11  1  0  0  0  0
 45 46  1  0  0  0  0
 18 21  1  0  0  0  0
 35 36  1  0  0  0  0
  7  8  1  0  0  0  0
 17 18  1  0  0  0  0
 24 32  1  0  0  0  0
 25 33  1  0  0  0  0
  3  4  1  0  0  0  0
  3  5  1  0  0  0  0
  3  6  1  0  0  0  0
 39 42  1  0  0  0  0
 39 43  1  0  0  0  0
 39 44  1  0  0  0  0
 11 14  1  0  0  0  0
 11 15  1  0  0  0  0
 11 16  1  0  0  0  0
 46 48  1  0  0  0  0
 46 49  1  0  0  0  0
 46 50  1  0  0  0  0
 21 29  1  0  0  0  0
 21 30  1  0  0  0  0
 36 41  1  0  0  0  0
  8 13  1  0  0  0  0
 18 28  1  0  0  0  0
 26 34  1  0  0  0  0
 23 31  1  0  0  0  0
 45 47  1  0  0  0  0
  7 12  1  0  0  0  0
 35 40  1  0  0  0  0
 17 27  1  0  0  0  0
M  CHG  1  23   1
M  END
$$$$

  -OEChem-05262214473D

 50 50  0     1  0  0  0  0  0999 V2000
   -1.6938    0.4865    3.8080 C   0  0  0  0  0  0  0  0  0  0  0  0
   -0.7464   -0.1282    3.3323 O   0  0  0  0  0  0  0  0  0  0  0  0
   -2.1257    0.2041    5.2087 C   0  0  0  0  0  0  0  0  0  0  0  0
   -2.8853   -0.5922    5.2621 H   0  0  0  0  0  0  0  0  0  0  0  0
   -1.2944   -0.1435    5.8430 H   0  0  0  0  0  0  0  0  0  0  0  0
   -2.5637    1.0590    5.7483 H   0  0  0  0  0  0  0  0  0  0  0  0
   -2.4435    1.4589    3.1669 N   0  0  0  0  0  0  0  0  0  0  0  0
   -2.1966    1.8850    1.8145 C   0  0  2  0  0  0  0  0  0  0  0  0
   -0.8617    1.2996    1.3733 C   0  0  0  0  0  0  0  0  0  0  0  0
    0.0104    0.9468    2.1646 O   0  0  0  0  0  0  0  0  0  0  0  0
   -2.1879    3.4017    1.7050 C   0  0  0  0  0  0  0  0  0  0  0  0
   -3.2085    1.8948    3.6787 H   0  0  0  0  0  0  0  0  0  0  0  0
   -3.0007    1.4665    1.1994 H   0  0  0  0  0  0  0  0  0  0  0  0
   -1.3888    3.8390    2.3147 H   0  0  0  0  0  0  0  0  0  0  0  0
   -2.0284    3.7240    0.6708 H   0  0  0  0  0  0  0  0  0  0  0  0
   -3.1380    3.8230    2.0508 H   0  0  0  0  0  0  0  0  0  0  0  0
   -0.7390    1.2565   -0.0101 N   0  0  0  0  0  0  0  0  0  0  0  0
    0.4383    0.7557   -0.6738 C   0  0  2  0  0  0  0  0  0  0  0  0
    0.3633    1.2081   -2.1277 C   0  0  0  0  0  0  0  0  0  0  0  0
   -0.3770    2.1119   -2.5098 O   0  0  0  0  0  0  0  0  0  0  0  0
    0.5414   -0.7718   -0.5956 C   0  0  0  0  0  0  0  0  0  0  0  0
    0.7029   -1.2743    0.8183 C   0  0  0  0  0  0  0  0  0  0  0  0
    1.8922   -1.1615    1.4972 N   0  3  0  0  0  0  0  0  0  0  0  0
   -0.1762   -1.8889    1.6646 C   0  0  0  0  0  0  0  0  0  0  0  0
    1.7592   -1.6862    2.7196 C   0  0  0  0  0  0  0  0  0  0  0  0
    0.5041   -2.1327    2.8332 N   0  0  0  0  0  0  0  0  0  0  0  0
   -1.5221    1.5532   -0.5874 H   0  0  0  0  0  0  0  0  0  0  0  0
    1.2973    1.2374   -0.1919 H   0  0  0  0  0  0  0  0  0  0  0  0
    1.3774   -1.1287   -1.2123 H   0  0  0  0  0  0  0  0  0  0  0  0
   -0.3540   -1.2392   -1.0264 H   0  0  0  0  0  0  0  0  0  0  0  0
    2.7442   -0.7457    1.1308 H   0  0  0  0  0  0  0  0  0  0  0  0
   -1.2011   -2.1987    1.6157 H   0  0  0  0  0  0  0  0  0  0  0  0
    2.5248   -1.7401    3.4755 H   0  0  0  0  0  0  0  0  0  0  0  0
    0.1163   -2.5829    3.6574 H   0  0  0  0  0  0  0  0  0  0  0  0
    1.2565    0.5163   -2.9339 N   0  0  0  0  0  0  0  0  0  0  0  0
    1.4050    0.7658   -4.3497 C   0  0  2  0  0  0  0  0  0  0  0  0
    0.0179    0.7492   -4.9782 C   0  0  0  0  0  0  0  0  0  0  0  0
   -0.9435    0.1790   -4.4667 O   0  0  0  0  0  0  0  0  0  0  0  0
    2.3098   -0.2680   -5.0018 C   0  0  0  0  0  0  0  0  0  0  0  0
    1.8349   -0.2015   -2.5074 H   0  0  0  0  0  0  0  0  0  0  0  0
    1.8403    1.7660   -4.4506 H   0  0  0  0  0  0  0  0  0  0  0  0
    1.8900   -1.2765   -4.9108 H   0  0  0  0  0  0  0  0  0  0  0  0
    2.4442   -0.0611   -6.0686 H   0  0  0  0  0  0  0  0  0  0  0  0
    3.2976   -0.2753   -4.5287 H   0  0  0  0  0  0  0  0  0  0  0  0
   -0.0100    1.4091   -6.1988 N   0  0  0  0  0  0  0  0  0  0  0  0
   -1.2080    1.5205   -6.9977 C   0  0  0  0  0  0  0  0  0  0  0  0
    0.8299    1.8692   -6.5373 H   0  0  0  0  0  0  0  0  0  0  0  0
   -1.2489    0.6885   -7.7161 H   0  0  0  0  0  0  0  0  0  0  0  0
   -2.0905    1.4825   -6.3422 H   0  0  0  0  0  0  0  0  0  0  0  0
   -1.1973    2.4756   -7.5433 H   0  0  0  0  0  0  0  0  0  0  0  0
 22 24  2  0  0  0  0
 24 26  1  0  0  0  0
 25 26  1  0  0  0  0
 23 25  2  0  0  0  0
 21 22  1  0  0  0  0
 22 23  1  0  0  0  0
  1  3  1  0  0  0  0
  1  7  1  0  0  0  0
  1  2  2  0  0  0  0
 36 37  1  0  0  0  0
 37 45  1  0  0  0  0
 37 38  2  0  0  0  0
  8  9  1  0  0  0  0
  9 17  1  0  0  0  0
  9 10  2  0  0  0  0
 18 19  1  0  0  0  0
 19 35  1  0  0  0  0
 19 20  2  0  0  0  0
 36 39  1  0  0  0  0
  8 11  1  0  0  0  0
 45 46  1  0  0  0  0
 18 21  1  0  0  0  0
 35 36  1  0  0  0  0
  7  8  1  0  0  0  0
 17 18  1  0  0  0  0
 24 32  1  0  0  0  0
 25 33  1  0  0  0  0
  3  4  1  0  0  0  0
  3  5  1  0  0  0  0
  3  6  1  0  0  0  0
 39 42  1  0  0  0  0
 39 43  1  0  0  0  0
 39 44  1  0  0  0  0
 11 14  1  0  0  0  0
 11 15  1  0  0  0  0
 11 16  1  0  0  0  0
 46 48  1  0  0  0  0
 46 49  1  0  0  0  0
 46 50  1  0  0  0  0
 21 29  1  0  0  0  0
 21 30  1  0  0  0  0
 36 41  1  0  0  0  0
  8 13  1  0  0  0  0
 18 28  1  0  0  0  0
 26 34  1  0  0  0  0
 23 31  1  0  0  0  0
 45 47  1  0  0  0  0
  7 12  1  0  0  0  0
 35 40  1  0  0  0  0
 17 27  1  0  0  0  0
M  CHG  1  23   1
M  END
$$$$

  -OEChem-05262214473D

 50 50  0     1  0  0  0  0  0999 V2000
   -1.6938    0.4865    3.8080 C   0  0  0  0  0  0  0  0  0  0  0  0
   -0.7464   -0.1282    3.3323 O   0  0  0  0  0  0  0  0  0  0  0  0
   -2.1257    0.2041    5.2087 C   0  0  0  0  0  0  0  0  0  0  0  0
   -2.8853   -0.5922    5.2621 H   0  0  0  0  0  0  0  0  0  0  0  0
   -1.2944   -0.1435    5.8430 H   0  0  0  0  0  0  0  0  0  0  0  0
   -2.5637    1.0590    5.7483 H   0  0  0  0  0  0  0  0  0  0  0  0
   -2.4435    1.4589    3.1669 N   0  0  0  0  0  0  0  0  0  0  0  0
   -2.1966    1.8850    1.8145 C   0  0  2  0  0  0  0  0  0  0  0  0
   -0.8617    1.2996    1.3733 C   0  0  0  0  0  0  0  0  0  0  0  0
    0.0104    0.9468    2.1646 O   0  0  0  0  0  0  0  0  0  0  0  0
   -2.1879    3.4017    1.7050 C   0  0  0  0  0  0  0  0  0  0  0  0
   -3.2085    1.8948    3.6787 H   0  0  0  0  0  0  0  0  0  0  0  0
   -3.0007    1.4665    1.1994 H   0  0  0  0  0  0  0  0  0  0  0  0
   -1.3888    3.8390    2.3147 H   0  0  0  0  0  0  0  0  0  0  0  0
   -2.0284    3.7240    0.6708 H   0  0  0  0  0  0  0  0  0  0  0  0
   -3.1380    3.8230    2.0508 H   0  0  0  0  0  0  0  0  0  0  0  0
   -0.7390    1.2565   -0.0101 N   0  0  0  0  0  0  0  0  0  0  0  0
    0.4383    0.7557   -0.6738 C   0  0  2  0  0  0  0  0  0  0  0  0
    0.3633    1.2081   -2.1277 C   0  0  0  0  0  0  0  0  0  0  0  0
   -0.1591    2.2658   -2.4732 O   0  0  0  0  0  0  0  0  0  0  0  0
    0.5414   -0.7718   -0.5956 C   0  0  0  0  0  0  0  0  0  0  0  0
    0.7029   -1.2743    0.8183 C   0  0  0  0  0  0  0  0  0  0  0  0
    1.8922   -1.1615    1.4972 N   0  3  0  0  0  0  0  0  0  0  0  0
   -0.1762   -1.8889    1.6646 C   0  0  0  0  0  0  0  0  0  0  0  0
    1.7592   -1.6862    2.7196 C   0  0  0  0  0  0  0  0  0  0  0  0
    0.5041   -2.1327    2.8332 N   0  0  0  0  0  0  0  0  0  0  0  0
   -1.5221    1.5532   -0.5874 H   0  0  0  0  0  0  0  0  0  0  0  0
    1.2973    1.2374   -0.1919 H   0  0  0  0  0  0  0  0  0  0  0  0
    1.3774   -1.1287   -1.2123 H   0  0  0  0  0  0  0  0  0  0  0  0
   -0.3540   -1.2392   -1.0264 H   0  0  0  0  0  0  0  0  0  0  0  0
    2.7442   -0.7457    1.1308 H   0  0  0  0  0  0  0  0  0  0  0  0
   -1.2011   -2.1987    1.6157 H   0  0  0  0  0  0  0  0  0  0  0  0
    2.5248   -1.7401    3.4755 H   0  0  0  0  0  0  0  0  0  0  0  0
    0.1163   -2.5829    3.6574 H   0  0  0  0  0  0  0  0  0  0  0  0
    0.9925    0.3144   -2.9831 N   0  0  0  0  0  0  0  0  0  0  0  0
    1.0864    0.5150   -4.4113 C   0  0  2  0  0  0  0  0  0  0  0  0
   -0.3069    0.8400   -4.9332 C   0  0  0  0  0  0  0  0  0  0  0  0
   -1.3360    0.5270   -4.3381 O   0  0  0  0  0  0  0  0  0  0  0  0
    1.6546   -0.7125   -5.1063 C   0  0  0  0  0  0  0  0  0  0  0  0
    1.4079   -0.5229   -2.5853 H   0  0  0  0  0  0  0  0  0  0  0  0
    1.7454    1.3762   -4.5670 H   0  0  0  0  0  0  0  0  0  0  0  0
    1.0079   -1.5855   -4.9614 H   0  0  0  0  0  0  0  0  0  0  0  0
    1.7518   -0.5485   -6.1846 H   0  0  0  0  0  0  0  0  0  0  0  0
    2.6442   -0.9624   -4.7088 H   0  0  0  0  0  0  0  0  0  0  0  0
   -0.2670    1.4826   -6.1627 N   0  0  0  0  0  0  0  0  0  0  0  0
   -1.4595    1.8843   -6.8715 C   0  0  0  0  0  0  0  0  0  0  0  0
    0.6312    1.7196   -6.5736 H   0  0  0  0  0  0  0  0  0  0  0  0
   -1.7603    1.0860   -7.5660 H   0  0  0  0  0  0  0  0  0  0  0  0
   -2.2700    2.0678   -6.1508 H   0  0  0  0  0  0  0  0  0  0  0  0
   -1.2566    2.8054   -7.4376 H   0  0  0  0  0  0  0  0  0  0  0  0
 22 24  2  0  0  0  0
 24 26  1  0  0  0  0
 25 26  1  0  0  0  0
 23 25  2  0  0  0  0
 21 22  1  0  0  0  0
 22 23  1  0  0  0  0
  1  3  1  0  0  0  0
  1  7  1  0  0  0  0
  1  2  2  0  0  0  0
 36 37  1  0  0  0  0
 37 45  1  0  0  0  0
 37 38  2  0  0  0  0
  8  9  1  0  0  0  0
  9 17  1  0  0  0  0
  9 10  2  0  0  0  0
 18 19  1  0  0  0  0
 19 35  1  0  0  0  0
 19 20  2  0  0  0  0
 36 39  1  0  0  0  0
  8 11  1  0  0  0  0
 45 46  1  0  0  0  0
 18 21  1  0  0  0  0
 35 36  1  0  0  0  0
  7  8  1  0  0  0  0
 17 18  1  0  0  0  0
 24 32  1  0  0  0  0
 25 33  1  0  0  0  0
  3  4  1  0  0  0  0
  3  5  1  0  0  0  0
  3  6  1  0  0  0  0
 39 42  1  0  0  0  0
 39 43  1  0  0  0  0
 39 44  1  0  0  0  0
 11 14  1  0  0  0  0
 11 15  1  0  0  0  0
 11 16  1  0  0  0  0
 46 48  1  0  0  0  0
 46 49  1  0  0  0  0
 46 50  1  0  0  0  0
 21 29  1  0  0  0  0
 21 30  1  0  0  0  0
 36 41  1  0  0  0  0
  8 13  1  0  0  0  0
 18 28  1  0  0  0  0
 26 34  1  0  0  0  0
 23 31  1  0  0  0  0
 45 47  1  0  0  0  0
  7 12  1  0  0  0  0
 35 40  1  0  0  0  0
 17 27  1  0  0  0  0
M  CHG  1  23   1
M  END
$$$$

  -OEChem-05262214473D

 50 50  0     1  0  0  0  0  0999 V2000
   -1.6938    0.4865    3.8080 C   0  0  0  0  0  0  0  0  0  0  0  0
   -0.7464   -0.1282    3.3323 O   0  0  0  0  0  0  0  0  0  0  0  0
   -2.1257    0.2041    5.2087 C   0  0  0  0  0  0  0  0  0  0  0  0
   -2.8853   -0.5922    5.2621 H   0  0  0  0  0  0  0  0  0  0  0  0
   -1.2944   -0.1435    5.8430 H   0  0  0  0  0  0  0  0  0  0  0  0
   -2.5637    1.0590    5.7483 H   0  0  0  0  0  0  0  0  0  0  0  0
   -2.4435    1.4589    3.1669 N   0  0  0  0  0  0  0  0  0  0  0  0
   -2.1966    1.8850    1.8145 C   0  0  2  0  0  0  0  0  0  0  0  0
   -0.8617    1.2996    1.3733 C   0  0  0  0  0  0  0  0  0  0  0  0
    0.0104    0.9468    2.1646 O   0  0  0  0  0  0  0  0  0  0  0  0
   -2.1879    3.4017    1.7050 C   0  0  0  0  0  0  0  0  0  0  0  0
   -3.2085    1.8948    3.6787 H   0  0  0  0  0  0  0  0  0  0  0  0
   -3.0007    1.4665    1.1994 H   0  0  0  0  0  0  0  0  0  0  0  0
   -1.3888    3.8390    2.3147 H   0  0  0  0  0  0  0  0  0  0  0  0
   -2.0284    3.7240    0.6708 H   0  0  0  0  0  0  0  0  0  0  0  0
   -3.1380    3.8230    2.0508 H   0  0  0  0  0  0  0  0  0  0  0  0
   -0.7390    1.2565   -0.0101 N   0  0  0  0  0  0  0  0  0  0  0  0
    0.4383    0.7557   -0.6738 C   0  0  2  0  0  0  0  0  0  0  0  0
    0.3633    1.2081   -2.1277 C   0  0  0  0  0  0  0  0  0  0  0  0
    0.0921    2.3610   -2.4565 O   0  0  0  0  0  0  0  0  0  0  0  0
    0.5414   -0.7718   -0.5956 C   0  0  0  0  0  0  0  0  0  0  0  0
    0.7029   -1.2743    0.8183 C   0  0  0  0  0  0  0  0  0  0  0  0
    1.8922   -1.1615    1.4972 N   0  3  0  0  0  0  0  0  0  0  0  0
   -0.1762   -1.8889    1.6646 C   0  0  0  0  0  0  0  0  0  0  0  0
    1.7592   -1.6862    2.7196 C   0  0  0  0  0  0  0  0  0  0  0  0
    0.5041   -2.1327    2.8332 N   0  0  0  0  0  0  0  0  0  0  0  0
   -1.5221    1.5532   -0.5874 H   0  0  0  0  0  0  0  0  0  0  0  0
    1.2973    1.2374   -0.1919 H   0  0  0  0  0  0  0  0  0  0  0  0
    1.3774   -1.1287   -1.2123 H   0  0  0  0  0  0  0  0  0  0  0  0
   -0.3540   -1.2392   -1.0264 H   0  0  0  0  0  0  0  0  0  0  0  0
    2.7442   -0.7457    1.1308 H   0  0  0  0  0  0  0  0  0  0  0  0
   -1.2011   -2.1987    1.6157 H   0  0  0  0  0  0  0  0  0  0  0  0
    2.5248   -1.7401    3.4755 H   0  0  0  0  0  0  0  0  0  0  0  0
    0.1163   -2.5829    3.6574 H   0  0  0  0  0  0  0  0  0  0  0  0
    0.6839    0.1839   -3.0078 N   0  0  0  0  0  0  0  0  0  0  0  0
    0.7121    0.3506   -4.4431 C   0  0  2  0  0  0  0  0  0  0  0  0
   -0.5948    1.0085   -4.8659 C   0  0  0  0  0  0  0  0  0  0  0  0
   -1.6193    0.9616   -4.1883 O   0  0  0  0  0  0  0  0  0  0  0  0
    0.9041   -0.9814   -5.1513 C   0  0  0  0  0  0  0  0  0  0  0  0
    0.9101   -0.7289   -2.6237 H   0  0  0  0  0  0  0  0  0  0  0  0
    1.5486    1.0215   -4.6672 H   0  0  0  0  0  0  0  0  0  0  0  0
    0.0756   -1.6669   -4.9386 H   0  0  0  0  0  0  0  0  0  0  0  0
    0.9538   -0.8499   -6.2372 H   0  0  0  0  0  0  0  0  0  0  0  0
    1.8297   -1.4671   -4.8238 H   0  0  0  0  0  0  0  0  0  0  0  0
   -0.4943    1.6174   -6.1090 N   0  0  0  0  0  0  0  0  0  0  0  0
   -1.6029    2.2994   -6.7350 C   0  0  0  0  0  0  0  0  0  0  0  0
    0.3995    1.6237   -6.5915 H   0  0  0  0  0  0  0  0  0  0  0  0
   -2.1446    1.5982   -7.3868 H   0  0  0  0  0  0  0  0  0  0  0  0
   -2.2842    2.6799   -5.9596 H   0  0  0  0  0  0  0  0  0  0  0  0
   -1.2245    3.1400   -7.3351 H   0  0  0  0  0  0  0  0  0  0  0  0
 22 24  2  0  0  0  0
 24 26  1  0  0  0  0
 25 26  1  0  0  0  0
 23 25  2  0  0  0  0
 21 22  1  0  0  0  0
 22 23  1  0  0  0  0
  1  3  1  0  0  0  0
  1  7  1  0  0  0  0
  1  2  2  0  0  0  0
 36 37  1  0  0  0  0
 37 45  1  0  0  0  0
 37 38  2  0  0  0  0
  8  9  1  0  0  0  0
  9 17  1  0  0  0  0
  9 10  2  0  0  0  0
 18 19  1  0  0  0  0
 19 35  1  0  0  0  0
 19 20  2  0  0  0  0
 36 39  1  0  0  0  0
  8 11  1  0  0  0  0
 45 46  1  0  0  0  0
 18 21  1  0  0  0  0
 35 36  1  0  0  0  0
  7  8  1  0  0  0  0
 17 18  1  0  0  0  0
 24 32  1  0  0  0  0
 25 33  1  0  0  0  0
  3  4  1  0  0  0  0
  3  5  1  0  0  0  0
  3  6  1  0  0  0  0
 39 42  1  0  0  0  0
 39 43  1  0  0  0  0
 39 44  1  0  0  0  0
 11 14  1  0  0  0  0
 11 15  1  0  0  0  0
 11 16  1  0  0  0  0
 46 48  1  0  0  0  0
 46 49  1  0  0  0  0
 46 50  1  0  0  0  0
 21 29  1  0  0  0  0
 21 30  1  0  0  0  0
 36 41  1  0  0  0  0
  8 13  1  0  0  0  0
 18 28  1  0  0  0  0
 26 34  1  0  0  0  0
 23 31  1  0  0  0  0
 45 47  1  0  0  0  0
  7 12  1  0  0  0  0
 35 40  1  0  0  0  0
 17 27  1  0  0  0  0
M  CHG  1  23   1
M  END
$$$$

  -OEChem-05262214473D

 50 50  0     1  0  0  0  0  0999 V2000
   -1.6938    0.4865    3.8080 C   0  0  0  0  0  0  0  0  0  0  0  0
   -0.7464   -0.1282    3.3323 O   0  0  0  0  0  0  0  0  0  0  0  0
   -2.1257    0.2041    5.2087 C   0  0  0  0  0  0  0  0  0  0  0  0
   -2.8853   -0.5922    5.2621 H   0  0  0  0  0  0  0  0  0  0  0  0
   -1.2944   -0.1435    5.8430 H   0  0  0  0  0  0  0  0  0  0  0  0
   -2.5637    1.0590    5.7483 H   0  0  0  0  0  0  0  0  0  0  0  0
   -2.4435    1.4589    3.1669 N   0  0  0  0  0  0  0  0  0  0  0  0
   -2.1966    1.8850    1.8145 C   0  0  2  0  0  0  0  0  0  0  0  0
   -0.8617    1.2996    1.3733 C   0  0  0  0  0  0  0  0  0  0  0  0
    0.0104    0.9468    2.1646 O   0  0  0  0  0  0  0  0  0  0  0  0
   -2.1879    3.4017    1.7050 C   0  0  0  0  0  0  0  0  0  0  0  0
   -3.2085    1.8948    3.6787 H   0  0  0  0  0  0  0  0  0  0  0  0
   -3.0007    1.4665    1.1994 H   0  0  0  0  0  0  0  0  0  0  0  0
   -1.3888    3.8390    2.3147 H   0  0  0  0  0  0  0  0  0  0  0  0
   -2.0284    3.7240    0.6708 H   0  0  0  0  0  0  0  0  0  0  0  0
   -3.1380    3.8230    2.0508 H   0  0  0  0  0  0  0  0  0  0  0  0
   -0.7390    1.2565   -0.0101 N   0  0  0  0  0  0  0  0  0  0  0  0
    0.4383    0.7557   -0.6738 C   0  0  2  0  0  0  0  0  0  0  0  0
    0.3633    1.2081   -2.1277 C   0  0  0  0  0  0  0  0  0  0  0  0
    0.3595    2.3913   -2.4609 O   0  0  0  0  0  0  0  0  0  0  0  0
    0.5414   -0.7718   -0.5956 C   0  0  0  0  0  0  0  0  0  0  0  0
    0.7029   -1.2743    0.8183 C   0  0  0  0  0  0  0  0  0  0  0  0
    1.8922   -1.1615    1.4972 N   0  3  0  0  0  0  0  0  0  0  0  0
   -0.1762   -1.8889    1.6646 C   0  0  0  0  0  0  0  0  0  0  0  0
    1.7592   -1.6862    2.7196 C   0  0  0  0  0  0  0  0  0  0  0  0
    0.5041   -2.1327    2.8332 N   0  0  0  0  0  0  0  0  0  0  0  0
   -1.5221    1.5532   -0.5874 H   0  0  0  0  0  0  0  0  0  0  0  0
    1.2973    1.2374   -0.1919 H   0  0  0  0  0  0  0  0  0  0  0  0
    1.3774   -1.1287   -1.2123 H   0  0  0  0  0  0  0  0  0  0  0  0
   -0.3540   -1.2392   -1.0264 H   0  0  0  0  0  0  0  0  0  0  0  0
    2.7442   -0.7457    1.1308 H   0  0  0  0  0  0  0  0  0  0  0  0
   -1.2011   -2.1987    1.6157 H   0  0  0  0  0  0  0  0  0  0  0  0
    2.5248   -1.7401    3.4755 H   0  0  0  0  0  0  0  0  0  0  0  0
    0.1163   -2.5829    3.6574 H   0  0  0  0  0  0  0  0  0  0  0  0
    0.3517    0.1337   -3.0062 N   0  0  0  0  0  0  0  0  0  0  0  0
    0.3075    0.2838   -4.4430 C   0  0  2  0  0  0  0  0  0  0  0  0
   -0.8261    1.2432   -4.7809 C   0  0  0  0  0  0  0  0  0  0  0  0
   -1.7743    1.4532   -4.0273 O   0  0  0  0  0  0  0  0  0  0  0  0
    0.1093   -1.0565   -5.1336 C   0  0  0  0  0  0  0  0  0  0  0  0
    0.3755   -0.8055   -2.6200 H   0  0  0  0  0  0  0  0  0  0  0  0
    1.2632    0.7263   -4.7443 H   0  0  0  0  0  0  0  0  0  0  0  0
   -0.8432   -1.5151   -4.8440 H   0  0  0  0  0  0  0  0  0  0  0  0
    0.1046   -0.9448   -6.2229 H   0  0  0  0  0  0  0  0  0  0  0  0
    0.9094   -1.7550   -4.8659 H   0  0  0  0  0  0  0  0  0  0  0  0
   -0.6765    1.8045   -6.0414 N   0  0  0  0  0  0  0  0  0  0  0  0
   -1.6285    2.7375   -6.5973 C   0  0  0  0  0  0  0  0  0  0  0  0
    0.1506    1.5880   -6.5898 H   0  0  0  0  0  0  0  0  0  0  0  0
   -2.3756    2.1901   -7.1907 H   0  0  0  0  0  0  0  0  0  0  0  0
   -2.1321    3.2771   -5.7816 H   0  0  0  0  0  0  0  0  0  0  0  0
   -1.1029    3.4565   -7.2429 H   0  0  0  0  0  0  0  0  0  0  0  0
 22 24  2  0  0  0  0
 24 26  1  0  0  0  0
 25 26  1  0  0  0  0
 23 25  2  0  0  0  0
 21 22  1  0  0  0  0
 22 23  1  0  0  0  0
  1  3  1  0  0  0  0
  1  7  1  0  0  0  0
  1  2  2  0  0  0  0
 36 37  1  0  0  0  0
 37 45  1  0  0  0  0
 37 38  2  0  0  0  0
  8  9  1  0  0  0  0
  9 17  1  0  0  0  0
  9 10  2  0  0  0  0
 18 19  1  0  0  0  0
 19 35  1  0  0  0  0
 19 20  2  0  0  0  0
 36 39  1  0  0  0  0
  8 11  1  0  0  0  0
 45 46  1  0  0  0  0
 18 21  1  0  0  0  0
 35 36  1  0  0  0  0
  7  8  1  0  0  0  0
 17 18  1  0  0  0  0
 24 32  1  0  0  0  0
 25 33  1  0  0  0  0
  3  4  1  0  0  0  0
  3  5  1  0  0  0  0
  3  6  1  0  0  0  0
 39 42  1  0  0  0  0
 39 43  1  0  0  0  0
 39 44  1  0  0  0  0
 11 14  1  0  0  0  0
 11 15  1  0  0  0  0
 11 16  1  0  0  0  0
 46 48  1  0  0  0  0
 46 49  1  0  0  0  0
 46 50  1  0  0  0  0
 21 29  1  0  0  0  0
 21 30  1  0  0  0  0
 36 41  1  0  0  0  0
  8 13  1  0  0  0  0
 18 28  1  0  0  0  0
 26 34  1  0  0  0  0
 23 31  1  0  0  0  0
 45 47  1  0  0  0  0
  7 12  1  0  0  0  0
 35 40  1  0  0  0  0
 17 27  1  0  0  0  0
M  CHG  1  23   1
M  END
$$$$

  -OEChem-05262214473D

 50 50  0     1  0  0  0  0  0999 V2000
   -1.6938    0.4865    3.8080 C   0  0  0  0  0  0  0  0  0  0  0  0
   -0.7464   -0.1282    3.3323 O   0  0  0  0  0  0  0  0  0  0  0  0
   -2.1257    0.2041    5.2087 C   0  0  0  0  0  0  0  0  0  0  0  0
   -2.8853   -0.5922    5.2621 H   0  0  0  0  0  0  0  0  0  0  0  0
   -1.2944   -0.1435    5.8430 H   0  0  0  0  0  0  0  0  0  0  0  0
   -2.5637    1.0590    5.7483 H   0  0  0  0  0  0  0  0  0  0  0  0
   -2.4435    1.4589    3.1669 N   0  0  0  0  0  0  0  0  0  0  0  0
   -2.1966    1.8850    1.8145 C   0  0  2  0  0  0  0  0  0  0  0  0
   -0.8617    1.2996    1.3733 C   0  0  0  0  0  0  0  0  0  0  0  0
    0.0104    0.9468    2.1646 O   0  0  0  0  0  0  0  0  0  0  0  0
   -2.1879    3.4017    1.7050 C   0  0  0  0  0  0  0  0  0  0  0  0
   -3.2085    1.8948    3.6787 H   0  0  0  0  0  0  0  0  0  0  0  0
   -3.0007    1.4665    1.1994 H   0  0  0  0  0  0  0  0  0  0  0  0
   -1.3888    3.8390    2.3147 H   0  0  0  0  0  0  0  0  0  0  0  0
   -2.0284    3.7240    0.6708 H   0  0  0  0  0  0  0  0  0  0  0  0
   -3.1380    3.8230    2.0508 H   0  0  0  0  0  0  0  0  0  0  0  0
   -0.7390    1.2565   -0.0101 N   0  0  0  0  0  0  0  0  0  0  0  0
    0.4383    0.7557   -0.6738 C   0  0  2  0  0  0  0  0  0  0  0  0
    0.3633    1.2081   -2.1277 C   0  0  0  0  0  0  0  0  0  0  0  0
    0.6249    2.3544   -2.4861 O   0  0  0  0  0  0  0  0  0  0  0  0
    0.5414   -0.7718   -0.5956 C   0  0  0  0  0  0  0  0  0  0  0  0
    0.7029   -1.2743    0.8183 C   0  0  0  0  0  0  0  0  0  0  0  0
    1.8922   -1.1615    1.4972 N   0  3  0  0  0  0  0  0  0  0  0  0
   -0.1762   -1.8889    1.6646 C   0  0  0  0  0  0  0  0  0  0  0  0
    1.7592   -1.6862    2.7196 C   0  0  0  0  0  0  0  0  0  0  0  0
    0.5041   -2.1327    2.8332 N   0  0  0  0  0  0  0  0  0  0  0  0
   -1.5221    1.5532   -0.5874 H   0  0  0  0  0  0  0  0  0  0  0  0
    1.2973    1.2374   -0.1919 H   0  0  0  0  0  0  0  0  0  0  0  0
    1.3774   -1.1287   -1.2123 H   0  0  0  0  0  0  0  0  0  0  0  0
   -0.3540   -1.2392   -1.0264 H   0  0  0  0  0  0  0  0  0  0  0  0
    2.7442   -0.7457    1.1308 H   0  0  0  0  0  0  0  0  0  0  0  0
   -1.2011   -2.1987    1.6157 H   0  0  0  0  0  0  0  0  0  0  0  0
    2.5248   -1.7401    3.4755 H   0  0  0  0  0  0  0  0  0  0  0  0
    0.1163   -2.5829    3.6574 H   0  0  0  0  0  0  0  0  0  0  0  0
    0.0185    0.1672   -2.9786 N   0  0  0  0  0  0  0  0  0  0  0  0
   -0.0999    0.3192   -4.4110 C   0  0  2  0  0  0  0  0  0  0  0  0
   -0.9851    1.5280   -4.6841 C   0  0  0  0  0  0  0  0  0  0  0  0
   -1.7902    1.9684   -3.8662 O   0  0  0  0  0  0  0  0  0  0  0  0
   -0.6757   -0.9326   -5.0545 C   0  0  0  0  0  0  0  0  0  0  0  0
   -0.1596   -0.7474   -2.5743 H   0  0  0  0  0  0  0  0  0  0  0  0
    0.9088    0.5106   -4.7931 H   0  0  0  0  0  0  0  0  0  0  0  0
   -1.6860   -1.1405   -4.6839 H   0  0  0  0  0  0  0  0  0  0  0  0
   -0.7381   -0.8266   -6.1426 H   0  0  0  0  0  0  0  0  0  0  0  0
   -0.0537   -1.8065   -4.8322 H   0  0  0  0  0  0  0  0  0  0  0  0
   -0.8011    2.0310   -5.9645 N   0  0  0  0  0  0  0  0  0  0  0  0
   -1.5345    3.1688   -6.4680 C   0  0  0  0  0  0  0  0  0  0  0  0
   -0.0984    1.6150   -6.5685 H   0  0  0  0  0  0  0  0  0  0  0  0
   -2.4376    2.8213   -6.9911 H   0  0  0  0  0  0  0  0  0  0  0  0
   -1.8241    3.8187   -5.6290 H   0  0  0  0  0  0  0  0  0  0  0  0
   -0.9003    3.7334   -7.1672 H   0  0  0  0  0  0  0  0  0  0  0  0
 22 24  2  0  0  0  0
 24 26  1  0  0  0  0
 25 26  1  0  0  0  0
 23 25  2  0  0  0  0
 21 22  1  0  0  0  0
 22 23  1  0  0  0  0
  1  3  1  0  0  0  0
  1  7  1  0  0  0  0
  1  2  2  0  0  0  0
 36 37  1  0  0  0  0
 37 45  1  0  0  0  0
 37 38  2  0  0  0  0
  8  9  1  0  0  0  0
  9 17  1  0  0  0  0
  9 10  2  0  0  0  0
 18 19  1  0  0  0  0
 19 35  1  0  0  0  0
 19 20  2  0  0  0  0
 36 39  1  0  0  0  0
  8 11  1  0  0  0  0
 45 46  1  0  0  0  0
 18 21  1  0  0  0  0
 35 36  1  0  0  0  0
  7  8  1  0  0  0  0
 17 18  1  0  0  0  0
 24 32  1  0  0  0  0
 25 33  1  0  0  0  0
  3  4  1  0  0  0  0
  3  5  1  0  0  0  0
  3  6  1  0  0  0  0
 39 42  1  0  0  0  0
 39 43  1  0  0  0  0
 39 44  1  0  0  0  0
 11 14  1  0  0  0  0
 11 15  1  0  0  0  0
 11 16  1  0  0  0  0
 46 48  1  0  0  0  0
 46 49  1  0  0  0  0
 46 50  1  0  0  0  0
 21 29  1  0  0  0  0
 21 30  1  0  0  0  0
 36 41  1  0  0  0  0
  8 13  1  0  0  0  0
 18 28  1  0  0  0  0
 26 34  1  0  0  0  0
 23 31  1  0  0  0  0
 45 47  1  0  0  0  0
  7 12  1  0  0  0  0
 35 40  1  0  0  0  0
 17 27  1  0  0  0  0
M  CHG  1  23   1
M  END
$$$$

  -OEChem-05262214473D

 50 50  0     1  0  0  0  0  0999 V2000
   -1.6938    0.4865    3.8080 C   0  0  0  0  0  0  0  0  0  0  0  0
   -0.7464   -0.1282    3.3323 O   0  0  0  0  0  0  0  0  0  0  0  0
   -2.1257    0.2041    5.2087 C   0  0  0  0  0  0  0  0  0  0  0  0
   -2.8853   -0.5922    5.2621 H   0  0  0  0  0  0  0  0  0  0  0  0
   -1.2944   -0.1435    5.8430 H   0  0  0  0  0  0  0  0  0  0  0  0
   -2.5637    1.0590    5.7483 H   0  0  0  0  0  0  0  0  0  0  0  0
   -2.4435    1.4589    3.1669 N   0  0  0  0  0  0  0  0  0  0  0  0
   -2.1966    1.8850    1.8145 C   0  0  2  0  0  0  0  0  0  0  0  0
   -0.8617    1.2996    1.3733 C   0  0  0  0  0  0  0  0  0  0  0  0
    0.0104    0.9468    2.1646 O   0  0  0  0  0  0  0  0  0  0  0  0
   -2.1879    3.4017    1.7050 C   0  0  0  0  0  0  0  0  0  0  0  0
   -3.2085    1.8948    3.6787 H   0  0  0  0  0  0  0  0  0  0  0  0
   -3.0007    1.4665    1.1994 H   0  0  0  0  0  0  0  0  0  0  0  0
   -1.3888    3.8390    2.3147 H   0  0  0  0  0  0  0  0  0  0  0  0
   -2.0284    3.7240    0.6708 H   0  0  0  0  0  0  0  0  0  0  0  0
   -3.1380    3.8230    2.0508 H   0  0  0  0  0  0  0  0  0  0  0  0
   -0.7390    1.2565   -0.0101 N   0  0  0  0  0  0  0  0  0  0  0  0
    0.4383    0.7557   -0.6738 C   0  0  2  0  0  0  0  0  0  0  0  0
    0.3633    1.2081   -2.1277 C   0  0  0  0  0  0  0  0  0  0  0  0
    0.8703    2.2530   -2.5303 O   0  0  0  0  0  0  0  0  0  0  0  0
    0.5414   -0.7718   -0.5956 C   0  0  0  0  0  0  0  0  0  0  0  0
    0.7029   -1.2743    0.8183 C   0  0  0  0  0  0  0  0  0  0  0  0
    1.8922   -1.1615    1.4972 N   0  3  0  0  0  0  0  0  0  0  0  0
   -0.1762   -1.8889    1.6646 C   0  0  0  0  0  0  0  0  0  0  0  0
    1.7592   -1.6862    2.7196 C   0  0  0  0  0  0  0  0  0  0  0  0
    0.5041   -2.1327    2.8332 N   0  0  0  0  0  0  0  0  0  0  0  0
   -1.5221    1.5532   -0.5874 H   0  0  0  0  0  0  0  0  0  0  0  0
    1.2973    1.2374   -0.1919 H   0  0  0  0  0  0  0  0  0  0  0  0
    1.3774   -1.1287   -1.2123 H   0  0  0  0  0  0  0  0  0  0  0  0
   -0.3540   -1.2392   -1.0264 H   0  0  0  0  0  0  0  0  0  0  0  0
    2.7442   -0.7457    1.1308 H   0  0  0  0  0  0  0  0  0  0  0  0
   -1.2011   -2.1987    1.6157 H   0  0  0  0  0  0  0  0  0  0  0  0
    2.5248   -1.7401    3.4755 H   0  0  0  0  0  0  0  0  0  0  0  0
    0.1163   -2.5829    3.6574 H   0  0  0  0  0  0  0  0  0  0  0  0
   -0.2929    0.2822   -2.9268 N   0  0  0  0  0  0  0  0  0  0  0  0
   -0.4821    0.4543   -4.3492 C   0  0  2  0  0  0  0  0  0  0  0  0
   -1.0609    1.8437   -4.5819 C   0  0  0  0  0  0  0  0  0  0  0  0
   -1.6660    2.4720   -3.7159 O   0  0  0  0  0  0  0  0  0  0  0  0
   -1.3972   -0.6182   -4.9195 C   0  0  0  0  0  0  0  0  0  0  0  0
   -0.6585   -0.5588   -2.4898 H   0  0  0  0  0  0  0  0  0  0  0  0
    0.5094    0.3891   -4.8103 H   0  0  0  0  0  0  0  0  0  0  0  0
   -2.3954   -0.5686   -4.4693 H   0  0  0  0  0  0  0  0  0  0  0  0
   -1.5166   -0.5034   -6.0018 H   0  0  0  0  0  0  0  0  0  0  0  0
   -0.9942   -1.6180   -4.7250 H   0  0  0  0  0  0  0  0  0  0  0  0
   -0.8597    2.2815   -5.8835 N   0  0  0  0  0  0  0  0  0  0  0  0
   -1.3273    3.5638   -6.3557 C   0  0  0  0  0  0  0  0  0  0  0  0
   -0.3307    1.7028   -6.5292 H   0  0  0  0  0  0  0  0  0  0  0  0
   -2.3264    3.4488   -6.8016 H   0  0  0  0  0  0  0  0  0  0  0  0
   -1.3812    4.2677   -5.5122 H   0  0  0  0  0  0  0  0  0  0  0  0
   -0.6304    3.9519   -7.1132 H   0  0  0  0  0  0  0  0  0  0  0  0
 22 24  2  0  0  0  0
 24 26  1  0  0  0  0
 25 26  1  0  0  0  0
 23 25  2  0  0  0  0
 21 22  1  0  0  0  0
 22 23  1  0  0  0  0
  1  3  1  0  0  0  0
  1  7  1  0  0  0  0
  1  2  2  0  0  0  0
 36 37  1  0  0  0  0
 37 45  1  0  0  0  0
 37 38  2  0  0  0  0
  8  9  1  0  0  0  0
  9 17  1  0  0  0  0
  9 10  2  0  0  0  0
 18 19  1  0  0  0  0
 19 35  1  0  0  0  0
 19 20  2  0  0  0  0
 36 39  1  0  0  0  0
  8 11  1  0  0  0  0
 45 46  1  0  0  0  0
 18 21  1  0  0  0  0
 35 36  1  0  0  0  0
  7  8  1  0  0  0  0
 17 18  1  0  0  0  0
 24 32  1  0  0  0  0
 25 33  1  0  0  0  0
  3  4  1  0  0  0  0
  3  5  1  0  0  0  0
  3  6  1  0  0  0  0
 39 42  1  0  0  0  0
 39 43  1  0  0  0  0
 39 44  1  0  0  0  0
 11 14  1  0  0  0  0
 11 15  1  0  0  0  0
 11 16  1  0  0  0  0
 46 48  1  0  0  0  0
 46 49  1  0  0  0  0
 46 50  1  0  0  0  0
 21 29  1  0  0  0  0
 21 30  1  0  0  0  0
 36 41  1  0  0  0  0
  8 13  1  0  0  0  0
 18 28  1  0  0  0  0
 26 34  1  0  0  0  0
 23 31  1  0  0  0  0
 45 47  1  0  0  0  0
  7 12  1  0  0  0  0
 35 40  1  0  0  0  0
 17 27  1  0  0  0  0
M  CHG  1  23   1
M  END
$$$$

  -OEChem-05262214473D

 50 50  0     1  0  0  0  0  0999 V2000
   -1.6938    0.4865    3.8080 C   0  0  0  0  0  0  0  0  0  0  0  0
   -0.7464   -0.1282    3.3323 O   0  0  0  0  0  0  0  0  0  0  0  0
   -2.1257    0.2041    5.2087 C   0  0  0  0  0  0  0  0  0  0  0  0
   -2.8853   -0.5922    5.2621 H   0  0  0  0  0  0  0  0  0  0  0  0
   -1.2944   -0.1435    5.8430 H   0  0  0  0  0  0  0  0  0  0  0  0
   -2.5637    1.0590    5.7483 H   0  0  0  0  0  0  0  0  0  0  0  0
   -2.4435    1.4589    3.1669 N   0  0  0  0  0  0  0  0  0  0  0  0
   -2.1966    1.8850    1.8145 C   0  0  2  0  0  0  0  0  0  0  0  0
   -0.8617    1.2996    1.3733 C   0  0  0  0  0  0  0  0  0  0  0  0
    0.0104    0.9468    2.1646 O   0  0  0  0  0  0  0  0  0  0  0  0
   -2.1879    3.4017    1.7050 C   0  0  0  0  0  0  0  0  0  0  0  0
   -3.2085    1.8948    3.6787 H   0  0  0  0  0  0  0  0  0  0  0  0
   -3.0007    1.4665    1.1994 H   0  0  0  0  0  0  0  0  0  0  0  0
   -1.3888    3.8390    2.3147 H   0  0  0  0  0  0  0  0  0  0  0  0
   -2.0284    3.7240    0.6708 H   0  0  0  0  0  0  0  0  0  0  0  0
   -3.1380    3.8230    2.0508 H   0  0  0  0  0  0  0  0  0  0  0  0
   -0.7390    1.2565   -0.0101 N   0  0  0  0  0  0  0  0  0  0  0  0
    0.4383    0.7557   -0.6738 C   0  0  2  0  0  0  0  0  0  0  0  0
    0.3633    1.2081   -2.1277 C   0  0  0  0  0  0  0  0  0  0  0  0
    1.0789    2.0938   -2.5906 O   0  0  0  0  0  0  0  0  0  0  0  0
    0.5414   -0.7718   -0.5956 C   0  0  0  0  0  0  0  0  0  0  0  0
    0.7029   -1.2743    0.8183 C   0  0  0  0  0  0  0  0  0  0  0  0
    1.8922   -1.1615    1.4972 N   0  3  0  0  0  0  0  0  0  0  0  0
   -0.1762   -1.8889    1.6646 C   0  0  0  0  0  0  0  0  0  0  0  0
    1.7592   -1.6862    2.7196 C   0  0  0  0  0  0  0  0  0  0  0  0
    0.5041   -2.1327    2.8332 N   0  0  0  0  0  0  0  0  0  0  0  0
   -1.5221    1.5532   -0.5874 H   0  0  0  0  0  0  0  0  0  0  0  0
    1.2973    1.2374   -0.1919 H   0  0  0  0  0  0  0  0  0  0  0  0
    1.3774   -1.1287   -1.2123 H   0  0  0  0  0  0  0  0  0  0  0  0
   -0.3540   -1.2392   -1.0264 H   0  0  0  0  0  0  0  0  0  0  0  0
    2.7442   -0.7457    1.1308 H   0  0  0  0  0  0  0  0  0  0  0  0
   -1.2011   -2.1987    1.6157 H   0  0  0  0  0  0  0  0  0  0  0  0
    2.5248   -1.7401    3.4755 H   0  0  0  0  0  0  0  0  0  0  0  0
    0.1163   -2.5829    3.6574 H   0  0  0  0  0  0  0  0  0  0  0  0
   -0.5613    0.4708   -2.8542 N   0  0  0  0  0  0  0  0  0  0  0  0
   -0.8133    0.6799   -4.2619 C   0  0  2  0  0  0  0  0  0  0  0  0
   -1.0483    2.1685   -4.4815 C   0  0  0  0  0  0  0  0  0  0  0  0
   -1.4102    2.9297   -3.5866 O   0  0  0  0  0  0  0  0  0  0  0  0
   -2.0061   -0.1347   -4.7376 C   0  0  0  0  0  0  0  0  0  0  0  0
   -1.0874   -0.2523   -2.3723 H   0  0  0  0  0  0  0  0  0  0  0  0
    0.0923    0.3701   -4.7947 H   0  0  0  0  0  0  0  0  0  0  0  0
   -2.9229    0.1616   -4.2149 H   0  0  0  0  0  0  0  0  0  0  0  0
   -2.1781    0.0028   -5.8102 H   0  0  0  0  0  0  0  0  0  0  0  0
   -1.8479   -1.2025   -4.5516 H   0  0  0  0  0  0  0  0  0  0  0  0
   -0.8482    2.5390   -5.8039 N   0  0  0  0  0  0  0  0  0  0  0  0
   -1.0211    3.8956   -6.2683 C   0  0  0  0  0  0  0  0  0  0  0  0
   -0.5304    1.8454   -6.4745 H   0  0  0  0  0  0  0  0  0  0  0  0
   -2.0494    4.0300   -6.6350 H   0  0  0  0  0  0  0  0  0  0  0  0
   -0.8336    4.5936   -5.4390 H   0  0  0  0  0  0  0  0  0  0  0  0
   -0.3117    4.0969   -7.0845 H   0  0  0  0  0  0  0  0  0  0  0  0
 22 24  2  0  0  0  0
 24 26  1  0  0  0  0
 25 26  1  0  0  0  0
 23 25  2  0  0  0  0
 21 22  1  0  0  0  0
 22 23  1  0  0  0  0
  1  3  1  0  0  0  0
  1  7  1  0  0  0  0
  1  2  2  0  0  0  0
 36 37  1  0  0  0  0
 37 45  1  0  0  0  0
 37 38  2  0  0  0  0
  8  9  1  0  0  0  0
  9 17  1  0  0  0  0
  9 10  2  0  0  0  0
 18 19  1  0  0  0  0
 19 35  1  0  0  0  0
 19 20  2  0  0  0  0
 36 39  1  0  0  0  0
  8 11  1  0  0  0  0
 45 46  1  0  0  0  0
 18 21  1  0  0  0  0
 35 36  1  0  0  0  0
  7  8  1  0  0  0  0
 17 18  1  0  0  0  0
 24 32  1  0  0  0  0
 25 33  1  0  0  0  0
  3  4  1  0  0  0  0
  3  5  1  0  0  0  0
  3  6  1  0  0  0  0
 39 42  1  0  0  0  0
 39 43  1  0  0  0  0
 39 44  1  0  0  0  0
 11 14  1  0  0  0  0
 11 15  1  0  0  0  0
 11 16  1  0  0  0  0
 46 48  1  0  0  0  0
 46 49  1  0  0  0  0
 46 50  1  0  0  0  0
 21 29  1  0  0  0  0
 21 30  1  0  0  0  0
 36 41  1  0  0  0  0
  8 13  1  0  0  0  0
 18 28  1  0  0  0  0
 26 34  1  0  0  0  0
 23 31  1  0  0  0  0
 45 47  1  0  0  0  0
  7 12  1  0  0  0  0
 35 40  1  0  0  0  0
 17 27  1  0  0  0  0
M  CHG  1  23   1
M  END
$$$$

  -OEChem-05262214473D

 50 50  0     1  0  0  0  0  0999 V2000
   -1.6938    0.4865    3.8080 C   0  0  0  0  0  0  0  0  0  0  0  0
   -0.7464   -0.1282    3.3323 O   0  0  0  0  0  0  0  0  0  0  0  0
   -2.1257    0.2041    5.2087 C   0  0  0  0  0  0  0  0  0  0  0  0
   -2.8853   -0.5922    5.2621 H   0  0  0  0  0  0  0  0  0  0  0  0
   -1.2944   -0.1435    5.8430 H   0  0  0  0  0  0  0  0  0  0  0  0
   -2.5637    1.0590    5.7483 H   0  0  0  0  0  0  0  0  0  0  0  0
   -2.4435    1.4589    3.1669 N   0  0  0  0  0  0  0  0  0  0  0  0
   -2.1966    1.8850    1.8145 C   0  0  2  0  0  0  0  0  0  0  0  0
   -0.8617    1.2996    1.3733 C   0  0  0  0  0  0  0  0  0  0  0  0
    0.0104    0.9468    2.1646 O   0  0  0  0  0  0  0  0  0  0  0  0
   -2.1879    3.4017    1.7050 C   0  0  0  0  0  0  0  0  0  0  0  0
   -3.2085    1.8948    3.6787 H   0  0  0  0  0  0  0  0  0  0  0  0
   -3.0007    1.4665    1.1994 H   0  0  0  0  0  0  0  0  0  0  0  0
   -1.3888    3.8390    2.3147 H   0  0  0  0  0  0  0  0  0  0  0  0
   -2.0284    3.7240    0.6708 H   0  0  0  0  0  0  0  0  0  0  0  0
   -3.1380    3.8230    2.0508 H   0  0  0  0  0  0  0  0  0  0  0  0
   -0.7390    1.2565   -0.0101 N   0  0  0  0  0  0  0  0  0  0  0  0
    0.4383    0.7557   -0.6738 C   0  0  2  0  0  0  0  0  0  0  0  0
    0.3633    1.2081   -2.1277 C   0  0  0  0  0  0  0  0  0  0  0  0
    1.2364    1.8879   -2.6628 O   0  0  0  0  0  0  0  0  0  0  0  0
    0.5414   -0.7718   -0.5956 C   0  0  0  0  0  0  0  0  0  0  0  0
    0.7029   -1.2743    0.8183 C   0  0  0  0  0  0  0  0  0  0  0  0
    1.8922   -1.1615    1.4972 N   0  3  0  0  0  0  0  0  0  0  0  0
   -0.1762   -1.8889    1.6646 C   0  0  0  0  0  0  0  0  0  0  0  0
    1.7592   -1.6862    2.7196 C   0  0  0  0  0  0  0  0  0  0  0  0
    0.5041   -2.1327    2.8332 N   0  0  0  0  0  0  0  0  0  0  0  0
   -1.5221    1.5532   -0.5874 H   0  0  0  0  0  0  0  0  0  0  0  0
    1.2973    1.2374   -0.1919 H   0  0  0  0  0  0  0  0  0  0  0  0
    1.3774   -1.1287   -1.2123 H   0  0  0  0  0  0  0  0  0  0  0  0
   -0.3540   -1.2392   -1.0264 H   0  0  0  0  0  0  0  0  0  0  0  0
    2.7442   -0.7457    1.1308 H   0  0  0  0  0  0  0  0  0  0  0  0
   -1.2011   -2.1987    1.6157 H   0  0  0  0  0  0  0  0  0  0  0  0
    2.5248   -1.7401    3.4755 H   0  0  0  0  0  0  0  0  0  0  0  0
    0.1163   -2.5829    3.6574 H   0  0  0  0  0  0  0  0  0  0  0  0
   -0.7685    0.7201   -2.7659 N   0  0  0  0  0  0  0  0  0  0  0  0
   -1.0707    0.9807   -4.1550 C   0  0  2  0  0  0  0  0  0  0  0  0
   -0.9483    2.4805   -4.3896 C   0  0  0  0  0  0  0  0  0  0  0  0
   -1.0403    3.3103   -3.4873 O   0  0  0  0  0  0  0  0  0  0  0  0
   -2.4610    0.4850   -4.5213 C   0  0  0  0  0  0  0  0  0  0  0  0
   -1.4170    0.1512   -2.2298 H   0  0  0  0  0  0  0  0  0  0  0  0
   -0.3140    0.4549   -4.7474 H   0  0  0  0  0  0  0  0  0  0  0  0
   -3.2326    1.0004   -3.9379 H   0  0  0  0  0  0  0  0  0  0  0  0
   -2.6774    0.6574   -5.5807 H   0  0  0  0  0  0  0  0  0  0  0  0
   -2.5566   -0.5882   -4.3239 H   0  0  0  0  0  0  0  0  0  0  0  0
   -0.7674    2.7859   -5.7313 N   0  0  0  0  0  0  0  0  0  0  0  0
   -0.6367    4.1417   -6.2116 C   0  0  0  0  0  0  0  0  0  0  0  0
   -0.6839    2.0332   -6.4082 H   0  0  0  0  0  0  0  0  0  0  0  0
   -1.6257    4.5250   -6.5028 H   0  0  0  0  0  0  0  0  0  0  0  0
   -0.2186    4.7742   -5.4146 H   0  0  0  0  0  0  0  0  0  0  0  0
    0.0342    4.1587   -7.0831 H   0  0  0  0  0  0  0  0  0  0  0  0
 22 24  2  0  0  0  0
 24 26  1  0  0  0  0
 25 26  1  0  0  0  0
 23 25  2  0  0  0  0
 21 22  1  0  0  0  0
 22 23  1  0  0  0  0
  1  3  1  0  0  0  0
  1  7  1  0  0  0  0
  1  2  2  0  0  0  0
 36 37  1  0  0  0  0
 37 45  1  0  0  0  0
 37 38  2  0  0  0  0
  8  9  1  0  0  0  0
  9 17  1  0  0  0  0
  9 10  2  0  0  0  0
 18 19  1  0  0  0  0
 19 35  1  0  0  0  0
 19 20  2  0  0  0  0
 36 39  1  0  0  0  0
  8 11  1  0  0  0  0
 45 46  1  0  0  0  0
 18 21  1  0  0  0  0
 35 36  1  0  0  0  0
  7  8  1  0  0  0  0
 17 18  1  0  0  0  0
 24 32  1  0  0  0  0
 25 33  1  0  0  0  0
  3  4  1  0  0  0  0
  3  5  1  0  0  0  0
  3  6  1  0  0  0  0
 39 42  1  0  0  0  0
 39 43  1  0  0  0  0
 39 44  1  0  0  0  0
 11 14  1  0  0  0  0
 11 15  1  0  0  0  0
 11 16  1  0  0  0  0
 46 48  1  0  0  0  0
 46 49  1  0  0  0  0
 46 50  1  0  0  0  0
 21 29  1  0  0  0  0
 21 30  1  0  0  0  0
 36 41  1  0  0  0  0
  8 13  1  0  0  0  0
 18 28  1  0  0  0  0
 26 34  1  0  0  0  0
 23 31  1  0  0  0  0
 45 47  1  0  0  0  0
  7 12  1  0  0  0  0
 35 40  1  0  0  0  0
 17 27  1  0  0  0  0
M  CHG  1  23   1
M  END
$$$$

  -OEChem-05262214473D

 50 50  0     1  0  0  0  0  0999 V2000
   -1.6938    0.4865    3.8080 C   0  0  0  0  0  0  0  0  0  0  0  0
   -0.7464   -0.1282    3.3323 O   0  0  0  0  0  0  0  0  0  0  0  0
   -2.1257    0.2041    5.2087 C   0  0  0  0  0  0  0  0  0  0  0  0
   -2.8853   -0.5922    5.2621 H   0  0  0  0  0  0  0  0  0  0  0  0
   -1.2944   -0.1435    5.8430 H   0  0  0  0  0  0  0  0  0  0  0  0
   -2.5637    1.0590    5.7483 H   0  0  0  0  0  0  0  0  0  0  0  0
   -2.4435    1.4589    3.1669 N   0  0  0  0  0  0  0  0  0  0  0  0
   -2.1966    1.8850    1.8145 C   0  0  2  0  0  0  0  0  0  0  0  0
   -0.8617    1.2996    1.3733 C   0  0  0  0  0  0  0  0  0  0  0  0
    0.0104    0.9468    2.1646 O   0  0  0  0  0  0  0  0  0  0  0  0
   -2.1879    3.4017    1.7050 C   0  0  0  0  0  0  0  0  0  0  0  0
   -3.2085    1.8948    3.6787 H   0  0  0  0  0  0  0  0  0  0  0  0
   -3.0007    1.4665    1.1994 H   0  0  0  0  0  0  0  0  0  0  0  0
   -1.3888    3.8390    2.3147 H   0  0  0  0  0  0  0  0  0  0  0  0
   -2.0284    3.7240    0.6708 H   0  0  0  0  0  0  0  0  0  0  0  0
   -3.1380    3.8230    2.0508 H   0  0  0  0  0  0  0  0  0  0  0  0
   -0.7390    1.2565   -0.0101 N   0  0  0  0  0  0  0  0  0  0  0  0
    0.4383    0.7557   -0.6738 C   0  0  2  0  0  0  0  0  0  0  0  0
    0.3633    1.2081   -2.1277 C   0  0  0  0  0  0  0  0  0  0  0  0
    1.3322    1.6491   -2.7421 O   0  0  0  0  0  0  0  0  0  0  0  0
    0.5414   -0.7718   -0.5956 C   0  0  0  0  0  0  0  0  0  0  0  0
    0.7029   -1.2743    0.8183 C   0  0  0  0  0  0  0  0  0  0  0  0
    1.8922   -1.1615    1.4972 N   0  3  0  0  0  0  0  0  0  0  0  0
   -0.1762   -1.8889    1.6646 C   0  0  0  0  0  0  0  0  0  0  0  0
    1.7592   -1.6862    2.7196 C   0  0  0  0  0  0  0  0  0  0  0  0
    0.5041   -2.1327    2.8332 N   0  0  0  0  0  0  0  0  0  0  0  0
   -1.5221    1.5532   -0.5874 H   0  0  0  0  0  0  0  0  0  0  0  0
    1.2973    1.2374   -0.1919 H   0  0  0  0  0  0  0  0  0  0  0  0
    1.3774   -1.1287   -1.2123 H   0  0  0  0  0  0  0  0  0  0  0  0
   -0.3540   -1.2392   -1.0264 H   0  0  0  0  0  0  0  0  0  0  0  0
    2.7442   -0.7457    1.1308 H   0  0  0  0  0  0  0  0  0  0  0  0
   -1.2011   -2.1987    1.6157 H   0  0  0  0  0  0  0  0  0  0  0  0
    2.5248   -1.7401    3.4755 H   0  0  0  0  0  0  0  0  0  0  0  0
    0.1163   -2.5829    3.6574 H   0  0  0  0  0  0  0  0  0  0  0  0
   -0.9003    1.0132   -2.6679 N   0  0  0  0  0  0  0  0  0  0  0  0
   -1.2370    1.3362   -4.0358 C   0  0  2  0  0  0  0  0  0  0  0  0
   -0.7677    2.7584   -4.3124 C   0  0  0  0  0  0  0  0  0  0  0  0
   -0.5813    3.5879   -3.4246 O   0  0  0  0  0  0  0  0  0  0  0  0
   -2.7308    1.1985   -4.2853 C   0  0  0  0  0  0  0  0  0  0  0  0
   -1.6249    0.6240   -2.0719 H   0  0  0  0  0  0  0  0  0  0  0  0
   -0.6819    0.6377   -4.6715 H   0  0  0  0  0  0  0  0  0  0  0  0
   -3.3035    1.8906   -3.6572 H   0  0  0  0  0  0  0  0  0  0  0  0
   -2.9804    1.4158   -5.3291 H   0  0  0  0  0  0  0  0  0  0  0  0
   -3.0720    0.1830   -4.0573 H   0  0  0  0  0  0  0  0  0  0  0  0
   -0.6229    3.0053   -5.6705 N   0  0  0  0  0  0  0  0  0  0  0  0
   -0.2003    4.2852   -6.1894 C   0  0  0  0  0  0  0  0  0  0  0  0
   -0.7807    2.2533   -6.3347 H   0  0  0  0  0  0  0  0  0  0  0  0
   -1.0841    4.9004   -6.4140 H   0  0  0  0  0  0  0  0  0  0  0  0
    0.4219    4.7971   -5.4405 H   0  0  0  0  0  0  0  0  0  0  0  0
    0.3837    4.1331   -7.1091 H   0  0  0  0  0  0  0  0  0  0  0  0
 22 24  2  0  0  0  0
 24 26  1  0  0  0  0
 25 26  1  0  0  0  0
 23 25  2  0  0  0  0
 21 22  1  0  0  0  0
 22 23  1  0  0  0  0
  1  3  1  0  0  0  0
  1  7  1  0  0  0  0
  1  2  2  0  0  0  0
 36 37  1  0  0  0  0
 37 45  1  0  0  0  0
 37 38  2  0  0  0  0
  8  9  1  0  0  0  0
  9 17  1  0  0  0  0
  9 10  2  0  0  0  0
 18 19  1  0  0  0  0
 19 35  1  0  0  0  0
 19 20  2  0  0  0  0
 36 39  1  0  0  0  0
  8 11  1  0  0  0  0
 45 46  1  0  0  0  0
 18 21  1  0  0  0  0
 35 36  1  0  0  0  0
  7  8  1  0  0  0  0
 17 18  1  0  0  0  0
 24 32  1  0  0  0  0
 25 33  1  0  0  0  0
  3  4  1  0  0  0  0
  3  5  1  0  0  0  0
  3  6  1  0  0  0  0
 39 42  1  0  0  0  0
 39 43  1  0  0  0  0
 39 44  1  0  0  0  0
 11 14  1  0  0  0  0
 11 15  1  0  0  0  0
 11 16  1  0  0  0  0
 46 48  1  0  0  0  0
 46 49  1  0  0  0  0
 46 50  1  0  0  0  0
 21 29  1  0  0  0  0
 21 30  1  0  0  0  0
 36 41  1  0  0  0  0
  8 13  1  0  0  0  0
 18 28  1  0  0  0  0
 26 34  1  0  0  0  0
 23 31  1  0  0  0  0
 45 47  1  0  0  0  0
  7 12  1  0  0  0  0
 35 40  1  0  0  0  0
 17 27  1  0  0  0  0
M  CHG  1  23   1
M  END
$$$$

  -OEChem-05262214473D

 50 50  0     1  0  0  0  0  0999 V2000
   -1.6938    0.4865    3.8080 C   0  0  0  0  0  0  0  0  0  0  0  0
   -0.7464   -0.1282    3.3323 O   0  0  0  0  0  0  0  0  0  0  0  0
   -2.1257    0.2041    5.2087 C   0  0  0  0  0  0  0  0  0  0  0  0
   -2.8853   -0.5922    5.2621 H   0  0  0  0  0  0  0  0  0  0  0  0
   -1.2944   -0.1435    5.8430 H   0  0  0  0  0  0  0  0  0  0  0  0
   -2.5637    1.0590    5.7483 H   0  0  0  0  0  0  0  0  0  0  0  0
   -2.4435    1.4589    3.1669 N   0  0  0  0  0  0  0  0  0  0  0  0
   -2.1966    1.8850    1.8145 C   0  0  2  0  0  0  0  0  0  0  0  0
   -0.8617    1.2996    1.3733 C   0  0  0  0  0  0  0  0  0  0  0  0
    0.0104    0.9468    2.1646 O   0  0  0  0  0  0  0  0  0  0  0  0
   -2.1879    3.4017    1.7050 C   0  0  0  0  0  0  0  0  0  0  0  0
   -3.2085    1.8948    3.6787 H   0  0  0  0  0  0  0  0  0  0  0  0
   -3.0007    1.4665    1.1994 H   0  0  0  0  0  0  0  0  0  0  0  0
   -1.3888    3.8390    2.3147 H   0  0  0  0  0  0  0  0  0  0  0  0
   -2.0284    3.7240    0.6708 H   0  0  0  0  0  0  0  0  0  0  0  0
   -3.1380    3.8230    2.0508 H   0  0  0  0  0  0  0  0  0  0  0  0
   -0.7390    1.2565   -0.0101 N   0  0  0  0  0  0  0  0  0  0  0  0
    0.4383    0.7557   -0.6738 C   0  0  2  0  0  0  0  0  0  0  0  0
    0.3633    1.2081   -2.1277 C   0  0  0  0  0  0  0  0  0  0  0  0
    1.3598    1.3939   -2.8229 O   0  0  0  0  0  0  0  0  0  0  0  0
    0.5414   -0.7718   -0.5956 C   0  0  0  0  0  0  0  0  0  0  0  0
    0.7029   -1.2743    0.8183 C   0  0  0  0  0  0  0  0  0  0  0  0
    1.8922   -1.1615    1.4972 N   0  3  0  0  0  0  0  0  0  0  0  0
   -0.1762   -1.8889    1.6646 C   0  0  0  0  0  0  0  0  0  0  0  0
    1.7592   -1.6862    2.7196 C   0  0  0  0  0  0  0  0  0  0  0  0
    0.5041   -2.1327    2.8332 N   0  0  0  0  0  0  0  0  0  0  0  0
   -1.5221    1.5532   -0.5874 H   0  0  0  0  0  0  0  0  0  0  0  0
    1.2973    1.2374   -0.1919 H   0  0  0  0  0  0  0  0  0  0  0  0
    1.3774   -1.1287   -1.2123 H   0  0  0  0  0  0  0  0  0  0  0  0
   -0.3540   -1.2392   -1.0264 H   0  0  0  0  0  0  0  0  0  0  0  0
    2.7442   -0.7457    1.1308 H   0  0  0  0  0  0  0  0  0  0  0  0
   -1.2011   -2.1987    1.6157 H   0  0  0  0  0  0  0  0  0  0  0  0
    2.5248   -1.7401    3.4755 H   0  0  0  0  0  0  0  0  0  0  0  0
    0.1163   -2.5829    3.6574 H   0  0  0  0  0  0  0  0  0  0  0  0
   -0.9477    1.3301   -2.5669 N   0  0  0  0  0  0  0  0  0  0  0  0
   -1.3006    1.7221   -3.9125 C   0  0  2  0  0  0  0  0  0  0  0  0
   -0.5186    2.9832   -4.2554 C   0  0  0  0  0  0  0  0  0  0  0  0
   -0.0647    3.7436   -3.4028 O   0  0  0  0  0  0  0  0  0  0  0  0
   -2.7972    1.9574   -4.0457 C   0  0  0  0  0  0  0  0  0  0  0  0
   -1.6968    1.1341   -1.9095 H   0  0  0  0  0  0  0  0  0  0  0  0
   -0.9864    0.9060   -4.5723 H   0  0  0  0  0  0  0  0  0  0  0  0
   -3.1306    2.7716   -3.3920 H   0  0  0  0  0  0  0  0  0  0  0  0
   -3.0666    2.2264   -5.0724 H   0  0  0  0  0  0  0  0  0  0  0  0
   -3.3591    1.0585   -3.7701 H   0  0  0  0  0  0  0  0  0  0  0  0
   -0.4244    3.1824   -5.6256 N   0  0  0  0  0  0  0  0  0  0  0  0
    0.2584    4.3164   -6.2034 C   0  0  0  0  0  0  0  0  0  0  0  0
   -0.8142    2.4907   -6.2591 H   0  0  0  0  0  0  0  0  0  0  0  0
   -0.4614    5.1303   -6.3746 H   0  0  0  0  0  0  0  0  0  0  0  0
    1.0442    4.6608   -5.5150 H   0  0  0  0  0  0  0  0  0  0  0  0
    0.7130    4.0217   -7.1608 H   0  0  0  0  0  0  0  0  0  0  0  0
 22 24  2  0  0  0  0
 24 26  1  0  0  0  0
 25 26  1  0  0  0  0
 23 25  2  0  0  0  0
 21 22  1  0  0  0  0
 22 23  1  0  0  0  0
  1  3  1  0  0  0  0
  1  7  1  0  0  0  0
  1  2  2  0  0  0  0
 36 37  1  0  0  0  0
 37 45  1  0  0  0  0
 37 38  2  0  0  0  0
  8  9  1  0  0  0  0
  9 17  1  0  0  0  0
  9 10  2  0  0  0  0
 18 19  1  0  0  0  0
 19 35  1  0  0  0  0
 19 20  2  0  0  0  0
 36 39  1  0  0  0  0
  8 11  1  0  0  0  0
 45 46  1  0  0  0  0
 18 21  1  0  0  0  0
 35 36  1  0  0  0  0
  7  8  1  0  0  0  0
 17 18  1  0  0  0  0
 24 32  1  0  0  0  0
 25 33  1  0  0  0  0
  3  4  1  0  0  0  0
  3  5  1  0  0  0  0
  3  6  1  0  0  0  0
 39 42  1  0  0  0  0
 39 43  1  0  0  0  0
 39 44  1  0  0  0  0
 11 14  1  0  0  0  0
 11 15  1  0  0  0  0
 11 16  1  0  0  0  0
 46 48  1  0  0  0  0
 46 49  1  0  0  0  0
 46 50  1  0  0  0  0
 21 29  1  0  0  0  0
 21 30  1  0  0  0  0
 36 41  1  0  0  0  0
  8 13  1  0  0  0  0
 18 28  1  0  0  0  0
 26 34  1  0  0  0  0
 23 31  1  0  0  0  0
 45 47  1  0  0  0  0
  7 12  1  0  0  0  0
 35 40  1  0  0  0  0
 17 27  1  0  0  0  0
M  CHG  1  23   1
M  END
$$$$

  -OEChem-05262214473D

 50 50  0     1  0  0  0  0  0999 V2000
   -1.6938    0.4865    3.8080 C   0  0  0  0  0  0  0  0  0  0  0  0
   -0.7464   -0.1282    3.3323 O   0  0  0  0  0  0  0  0  0  0  0  0
   -2.1257    0.2041    5.2087 C   0  0  0  0  0  0  0  0  0  0  0  0
   -2.8853   -0.5922    5.2621 H   0  0  0  0  0  0  0  0  0  0  0  0
   -1.2944   -0.1435    5.8430 H   0  0  0  0  0  0  0  0  0  0  0  0
   -2.5637    1.0590    5.7483 H   0  0  0  0  0  0  0  0  0  0  0  0
   -2.4435    1.4589    3.1669 N   0  0  0  0  0  0  0  0  0  0  0  0
   -2.1966    1.8850    1.8145 C   0  0  2  0  0  0  0  0  0  0  0  0
   -0.8617    1.2996    1.3733 C   0  0  0  0  0  0  0  0  0  0  0  0
    0.0104    0.9468    2.1646 O   0  0  0  0  0  0  0  0  0  0  0  0
   -2.1879    3.4017    1.7050 C   0  0  0  0  0  0  0  0  0  0  0  0
   -3.2085    1.8948    3.6787 H   0  0  0  0  0  0  0  0  0  0  0  0
   -3.0007    1.4665    1.1994 H   0  0  0  0  0  0  0  0  0  0  0  0
   -1.3888    3.8390    2.3147 H   0  0  0  0  0  0  0  0  0  0  0  0
   -2.0284    3.7240    0.6708 H   0  0  0  0  0  0  0  0  0  0  0  0
   -3.1380    3.8230    2.0508 H   0  0  0  0  0  0  0  0  0  0  0  0
   -0.7390    1.2565   -0.0101 N   0  0  0  0  0  0  0  0  0  0  0  0
    0.4383    0.7557   -0.6738 C   0  0  2  0  0  0  0  0  0  0  0  0
    0.3633    1.2081   -2.1277 C   0  0  0  0  0  0  0  0  0  0  0  0
    1.3171    1.1395   -2.8999 O   0  0  0  0  0  0  0  0  0  0  0  0
    0.5414   -0.7718   -0.5956 C   0  0  0  0  0  0  0  0  0  0  0  0
    0.7029   -1.2743    0.8183 C   0  0  0  0  0  0  0  0  0  0  0  0
    1.8922   -1.1615    1.4972 N   0  3  0  0  0  0  0  0  0  0  0  0
   -0.1762   -1.8889    1.6646 C   0  0  0  0  0  0  0  0  0  0  0  0
    1.7592   -1.6862    2.7196 C   0  0  0  0  0  0  0  0  0  0  0  0
    0.5041   -2.1327    2.8332 N   0  0  0  0  0  0  0  0  0  0  0  0
   -1.5221    1.5532   -0.5874 H   0  0  0  0  0  0  0  0  0  0  0  0
    1.2973    1.2374   -0.1919 H   0  0  0  0  0  0  0  0  0  0  0  0
    1.3774   -1.1287   -1.2123 H   0  0  0  0  0  0  0  0  0  0  0  0
   -0.3540   -1.2392   -1.0264 H   0  0  0  0  0  0  0  0  0  0  0  0
    2.7442   -0.7457    1.1308 H   0  0  0  0  0  0  0  0  0  0  0  0
   -1.2011   -2.1987    1.6157 H   0  0  0  0  0  0  0  0  0  0  0  0
    2.5248   -1.7401    3.4755 H   0  0  0  0  0  0  0  0  0  0  0  0
    0.1163   -2.5829    3.6574 H   0  0  0  0  0  0  0  0  0  0  0  0
   -0.9076    1.6492   -2.4696 N   0  0  0  0  0  0  0  0  0  0  0  0
   -1.2574    2.1121   -3.7933 C   0  0  2  0  0  0  0  0  0  0  0  0
   -0.2182    3.1395   -4.2222 C   0  0  0  0  0  0  0  0  0  0  0  0
    0.4744    3.7667   -3.4235 O   0  0  0  0  0  0  0  0  0  0  0  0
   -2.6555    2.7098   -3.8189 C   0  0  0  0  0  0  0  0  0  0  0  0
   -1.6279    1.6466   -1.7536 H   0  0  0  0  0  0  0  0  0  0  0  0
   -1.2066    1.2416   -4.4565 H   0  0  0  0  0  0  0  0  0  0  0  0
   -2.7259    3.5832   -3.1603 H   0  0  0  0  0  0  0  0  0  0  0  0
   -2.9301    3.0340   -4.8281 H   0  0  0  0  0  0  0  0  0  0  0  0
   -3.3982    1.9787   -3.4817 H   0  0  0  0  0  0  0  0  0  0  0  0
   -0.1856    3.3051   -5.5998 N   0  0  0  0  0  0  0  0  0  0  0  0
    0.7081    4.2331   -6.2525 C   0  0  0  0  0  0  0  0  0  0  0  0
   -0.7822    2.7293   -6.1865 H   0  0  0  0  0  0  0  0  0  0  0  0
    0.1998    5.1993   -6.3873 H   0  0  0  0  0  0  0  0  0  0  0  0
    1.6060    4.3746   -5.6331 H   0  0  0  0  0  0  0  0  0  0  0  0
    0.9995    3.8322   -7.2345 H   0  0  0  0  0  0  0  0  0  0  0  0
 22 24  2  0  0  0  0
 24 26  1  0  0  0  0
 25 26  1  0  0  0  0
 23 25  2  0  0  0  0
 21 22  1  0  0  0  0
 22 23  1  0  0  0  0
  1  3  1  0  0  0  0
  1  7  1  0  0  0  0
  1  2  2  0  0  0  0
 36 37  1  0  0  0  0
 37 45  1  0  0  0  0
 37 38  2  0  0  0  0
  8  9  1  0  0  0  0
  9 17  1  0  0  0  0
  9 10  2  0  0  0  0
 18 19  1  0  0  0  0
 19 35  1  0  0  0  0
 19 20  2  0  0  0  0
 36 39  1  0  0  0  0
  8 11  1  0  0  0  0
 45 46  1  0  0  0  0
 18 21  1  0  0  0  0
 35 36  1  0  0  0  0
  7  8  1  0  0  0  0
 17 18  1  0  0  0  0
 24 32  1  0  0  0  0
 25 33  1  0  0  0  0
  3  4  1  0  0  0  0
  3  5  1  0  0  0  0
  3  6  1  0  0  0  0
 39 42  1  0  0  0  0
 39 43  1  0  0  0  0
 39 44  1  0  0  0  0
 11 14  1  0  0  0  0
 11 15  1  0  0  0  0
 11 16  1  0  0  0  0
 46 48  1  0  0  0  0
 46 49  1  0  0  0  0
 46 50  1  0  0  0  0
 21 29  1  0  0  0  0
 21 30  1  0  0  0  0
 36 41  1  0  0  0  0
  8 13  1  0  0  0  0
 18 28  1  0  0  0  0
 26 34  1  0  0  0  0
 23 31  1  0  0  0  0
 45 47  1  0  0  0  0
  7 12  1  0  0  0  0
 35 40  1  0  0  0  0
 17 27  1  0  0  0  0
M  CHG  1  23   1
M  END
$$$$

  -OEChem-05262214473D

 50 50  0     1  0  0  0  0  0999 V2000
   -1.6938    0.4865    3.8080 C   0  0  0  0  0  0  0  0  0  0  0  0
   -0.7464   -0.1282    3.3323 O   0  0  0  0  0  0  0  0  0  0  0  0
   -2.1257    0.2041    5.2087 C   0  0  0  0  0  0  0  0  0  0  0  0
   -2.8853   -0.5922    5.2621 H   0  0  0  0  0  0  0  0  0  0  0  0
   -1.2944   -0.1435    5.8430 H   0  0  0  0  0  0  0  0  0  0  0  0
   -2.5637    1.0590    5.7483 H   0  0  0  0  0  0  0  0  0  0  0  0
   -2.4435    1.4589    3.1669 N   0  0  0  0  0  0  0  0  0  0  0  0
   -2.1966    1.8850    1.8145 C   0  0  2  0  0  0  0  0  0  0  0  0
   -0.8617    1.2996    1.3733 C   0  0  0  0  0  0  0  0  0  0  0  0
    0.0104    0.9468    2.1646 O   0  0  0  0  0  0  0  0  0  0  0  0
   -2.1879    3.4017    1.7050 C   0  0  0  0  0  0  0  0  0  0  0  0
   -3.2085    1.8948    3.6787 H   0  0  0  0  0  0  0  0  0  0  0  0
   -3.0007    1.4665    1.1994 H   0  0  0  0  0  0  0  0  0  0  0  0
   -1.3888    3.8390    2.3147 H   0  0  0  0  0  0  0  0  0  0  0  0
   -2.0284    3.7240    0.6708 H   0  0  0  0  0  0  0  0  0  0  0  0
   -3.1380    3.8230    2.0508 H   0  0  0  0  0  0  0  0  0  0  0  0
   -0.7390    1.2565   -0.0101 N   0  0  0  0  0  0  0  0  0  0  0  0
    0.4383    0.7557   -0.6738 C   0  0  2  0  0  0  0  0  0  0  0  0
    0.3633    1.2081   -2.1277 C   0  0  0  0  0  0  0  0  0  0  0  0
    1.2073    0.9033   -2.9677 O   0  0  0  0  0  0  0  0  0  0  0  0
    0.5414   -0.7718   -0.5956 C   0  0  0  0  0  0  0  0  0  0  0  0
    0.7029   -1.2743    0.8183 C   0  0  0  0  0  0  0  0  0  0  0  0
    1.8922   -1.1615    1.4972 N   0  3  0  0  0  0  0  0  0  0  0  0
   -0.1762   -1.8889    1.6646 C   0  0  0  0  0  0  0  0  0  0  0  0
    1.7592   -1.6862    2.7196 C   0  0  0  0  0  0  0  0  0  0  0  0
    0.5041   -2.1327    2.8332 N   0  0  0  0  0  0  0  0  0  0  0  0
   -1.5221    1.5532   -0.5874 H   0  0  0  0  0  0  0  0  0  0  0  0
    1.2973    1.2374   -0.1919 H   0  0  0  0  0  0  0  0  0  0  0  0
    1.3774   -1.1287   -1.2123 H   0  0  0  0  0  0  0  0  0  0  0  0
   -0.3540   -1.2392   -1.0264 H   0  0  0  0  0  0  0  0  0  0  0  0
    2.7442   -0.7457    1.1308 H   0  0  0  0  0  0  0  0  0  0  0  0
   -1.2011   -2.1987    1.6157 H   0  0  0  0  0  0  0  0  0  0  0  0
    2.5248   -1.7401    3.4755 H   0  0  0  0  0  0  0  0  0  0  0  0
    0.1163   -2.5829    3.6574 H   0  0  0  0  0  0  0  0  0  0  0  0
   -0.7825    1.9488   -2.3829 N   0  0  0  0  0  0  0  0  0  0  0  0
   -1.1103    2.4797   -3.6865 C   0  0  2  0  0  0  0  0  0  0  0  0
    0.1131    3.2168   -4.2152 C   0  0  0  0  0  0  0  0  0  0  0  0
    0.9993    3.6556   -3.4851 O   0  0  0  0  0  0  0  0  0  0  0  0
   -2.3156    3.4046   -3.6203 C   0  0  0  0  0  0  0  0  0  0  0  0
   -1.4229    2.1266   -1.6148 H   0  0  0  0  0  0  0  0  0  0  0  0
   -1.3276    1.6217   -4.3320 H   0  0  0  0  0  0  0  0  0  0  0  0
   -2.1168    4.2703   -2.9780 H   0  0  0  0  0  0  0  0  0  0  0  0
   -2.5801    3.7834   -4.6130 H   0  0  0  0  0  0  0  0  0  0  0  0
   -3.1867    2.8809   -3.2119 H   0  0  0  0  0  0  0  0  0  0  0  0
    0.0774    3.3649   -5.5947 N   0  0  0  0  0  0  0  0  0  0  0  0
    1.1181    4.0411   -6.3335 C   0  0  0  0  0  0  0  0  0  0  0  0
   -0.6868    2.9527   -6.1219 H   0  0  0  0  0  0  0  0  0  0  0  0
    0.8545    5.1025   -6.4512 H   0  0  0  0  0  0  0  0  0  0  0  0
    2.0689    3.9580   -5.7866 H   0  0  0  0  0  0  0  0  0  0  0  0
    1.2239    3.5775   -7.3254 H   0  0  0  0  0  0  0  0  0  0  0  0
 22 24  2  0  0  0  0
 24 26  1  0  0  0  0
 25 26  1  0  0  0  0
 23 25  2  0  0  0  0
 21 22  1  0  0  0  0
 22 23  1  0  0  0  0
  1  3  1  0  0  0  0
  1  7  1  0  0  0  0
  1  2  2  0  0  0  0
 36 37  1  0  0  0  0
 37 45  1  0  0  0  0
 37 38  2  0  0  0  0
  8  9  1  0  0  0  0
  9 17  1  0  0  0  0
  9 10  2  0  0  0  0
 18 19  1  0  0  0  0
 19 35  1  0  0  0  0
 19 20  2  0  0  0  0
 36 39  1  0  0  0  0
  8 11  1  0  0  0  0
 45 46  1  0  0  0  0
 18 21  1  0  0  0  0
 35 36  1  0  0  0  0
  7  8  1  0  0  0  0
 17 18  1  0  0  0  0
 24 32  1  0  0  0  0
 25 33  1  0  0  0  0
  3  4  1  0  0  0  0
  3  5  1  0  0  0  0
  3  6  1  0  0  0  0
 39 42  1  0  0  0  0
 39 43  1  0  0  0  0
 39 44  1  0  0  0  0
 11 14  1  0  0  0  0
 11 15  1  0  0  0  0
 11 16  1  0  0  0  0
 46 48  1  0  0  0  0
 46 49  1  0  0  0  0
 46 50  1  0  0  0  0
 21 29  1  0  0  0  0
 21 30  1  0  0  0  0
 36 41  1  0  0  0  0
  8 13  1  0  0  0  0
 18 28  1  0  0  0  0
 26 34  1  0  0  0  0
 23 31  1  0  0  0  0
 45 47  1  0  0  0  0
  7 12  1  0  0  0  0
 35 40  1  0  0  0  0
 17 27  1  0  0  0  0
M  CHG  1  23   1
M  END
$$$$

  -OEChem-05262214473D

 50 50  0     1  0  0  0  0  0999 V2000
   -1.6938    0.4865    3.8080 C   0  0  0  0  0  0  0  0  0  0  0  0
   -0.7464   -0.1282    3.3323 O   0  0  0  0  0  0  0  0  0  0  0  0
   -2.1257    0.2041    5.2087 C   0  0  0  0  0  0  0  0  0  0  0  0
   -2.8853   -0.5922    5.2621 H   0  0  0  0  0  0  0  0  0  0  0  0
   -1.2944   -0.1435    5.8430 H   0  0  0  0  0  0  0  0  0  0  0  0
   -2.5637    1.0590    5.7483 H   0  0  0  0  0  0  0  0  0  0  0  0
   -2.4435    1.4589    3.1669 N   0  0  0  0  0  0  0  0  0  0  0  0
   -2.1966    1.8850    1.8145 C   0  0  2  0  0  0  0  0  0  0  0  0
   -0.8617    1.2996    1.3733 C   0  0  0  0  0  0  0  0  0  0  0  0
    0.0104    0.9468    2.1646 O   0  0  0  0  0  0  0  0  0  0  0  0
   -2.1879    3.4017    1.7050 C   0  0  0  0  0  0  0  0  0  0  0  0
   -3.2085    1.8948    3.6787 H   0  0  0  0  0  0  0  0  0  0  0  0
   -3.0007    1.4665    1.1994 H   0  0  0  0  0  0  0  0  0  0  0  0
   -1.3888    3.8390    2.3147 H   0  0  0  0  0  0  0  0  0  0  0  0
   -2.0284    3.7240    0.6708 H   0  0  0  0  0  0  0  0  0  0  0  0
   -3.1380    3.8230    2.0508 H   0  0  0  0  0  0  0  0  0  0  0  0
   -0.7390    1.2565   -0.0101 N   0  0  0  0  0  0  0  0  0  0  0  0
    0.4383    0.7557   -0.6738 C   0  0  2  0  0  0  0  0  0  0  0  0
    0.3633    1.2081   -2.1277 C   0  0  0  0  0  0  0  0  0  0  0  0
    1.0376    0.7014   -3.0218 O   0  0  0  0  0  0  0  0  0  0  0  0
    0.5414   -0.7718   -0.5956 C   0  0  0  0  0  0  0  0  0  0  0  0
    0.7029   -1.2743    0.8183 C   0  0  0  0  0  0  0  0  0  0  0  0
    1.8922   -1.1615    1.4972 N   0  3  0  0  0  0  0  0  0  0  0  0
   -0.1762   -1.8889    1.6646 C   0  0  0  0  0  0  0  0  0  0  0  0
    1.7592   -1.6862    2.7196 C   0  0  0  0  0  0  0  0  0  0  0  0
    0.5041   -2.1327    2.8332 N   0  0  0  0  0  0  0  0  0  0  0  0
   -1.5221    1.5532   -0.5874 H   0  0  0  0  0  0  0  0  0  0  0  0
    1.2973    1.2374   -0.1919 H   0  0  0  0  0  0  0  0  0  0  0  0
    1.3774   -1.1287   -1.2123 H   0  0  0  0  0  0  0  0  0  0  0  0
   -0.3540   -1.2392   -1.0264 H   0  0  0  0  0  0  0  0  0  0  0  0
    2.7442   -0.7457    1.1308 H   0  0  0  0  0  0  0  0  0  0  0  0
   -1.2011   -2.1987    1.6157 H   0  0  0  0  0  0  0  0  0  0  0  0
    2.5248   -1.7401    3.4755 H   0  0  0  0  0  0  0  0  0  0  0  0
    0.1163   -2.5829    3.6574 H   0  0  0  0  0  0  0  0  0  0  0  0
   -0.5811    2.2083   -2.3125 N   0  0  0  0  0  0  0  0  0  0  0  0
   -0.8692    2.7998   -3.5994 C   0  0  2  0  0  0  0  0  0  0  0  0
    0.4527    3.2098   -4.2350 C   0  0  0  0  0  0  0  0  0  0  0  0
    1.4742    3.4181   -3.5835 O   0  0  0  0  0  0  0  0  0  0  0  0
   -1.8005    3.9943   -3.4633 C   0  0  0  0  0  0  0  0  0  0  0  0
   -1.0957    2.5414   -1.5026 H   0  0  0  0  0  0  0  0  0  0  0  0
   -1.3411    2.0202   -4.2073 H   0  0  0  0  0  0  0  0  0  0  0  0
   -1.3448    4.7858   -2.8574 H   0  0  0  0  0  0  0  0  0  0  0  0
   -2.0405    4.4237   -4.4416 H   0  0  0  0  0  0  0  0  0  0  0  0
   -2.7390    3.7036   -2.9790 H   0  0  0  0  0  0  0  0  0  0  0  0
    0.3466    3.3578   -5.6108 N   0  0  0  0  0  0  0  0  0  0  0  0
    1.4605    3.7533   -6.4407 C   0  0  0  0  0  0  0  0  0  0  0  0
   -0.5345    3.1458   -6.0697 H   0  0  0  0  0  0  0  0  0  0  0  0
    1.4581    4.8466   -6.5619 H   0  0  0  0  0  0  0  0  0  0  0  0
    2.4014    3.4393   -5.9652 H   0  0  0  0  0  0  0  0  0  0  0  0
    1.3707    3.2749   -7.4271 H   0  0  0  0  0  0  0  0  0  0  0  0
 22 24  2  0  0  0  0
 24 26  1  0  0  0  0
 25 26  1  0  0  0  0
 23 25  2  0  0  0  0
 21 22  1  0  0  0  0
 22 23  1  0  0  0  0
  1  3  1  0  0  0  0
  1  7  1  0  0  0  0
  1  2  2  0  0  0  0
 36 37  1  0  0  0  0
 37 45  1  0  0  0  0
 37 38  2  0  0  0  0
  8  9  1  0  0  0  0
  9 17  1  0  0  0  0
  9 10  2  0  0  0  0
 18 19  1  0  0  0  0
 19 35  1  0  0  0  0
 19 20  2  0  0  0  0
 36 39  1  0  0  0  0
  8 11  1  0  0  0  0
 45 46  1  0  0  0  0
 18 21  1  0  0  0  0
 35 36  1  0  0  0  0
  7  8  1  0  0  0  0
 17 18  1  0  0  0  0
 24 32  1  0  0  0  0
 25 33  1  0  0  0  0
  3  4  1  0  0  0  0
  3  5  1  0  0  0  0
  3  6  1  0  0  0  0
 39 42  1  0  0  0  0
 39 43  1  0  0  0  0
 39 44  1  0  0  0  0
 11 14  1  0  0  0  0
 11 15  1  0  0  0  0
 11 16  1  0  0  0  0
 46 48  1  0  0  0  0
 46 49  1  0  0  0  0
 46 50  1  0  0  0  0
 21 29  1  0  0  0  0
 21 30  1  0  0  0  0
 36 41  1  0  0  0  0
  8 13  1  0  0  0  0
 18 28  1  0  0  0  0
 26 34  1  0  0  0  0
 23 31  1  0  0  0  0
 45 47  1  0  0  0  0
  7 12  1  0  0  0  0
 35 40  1  0  0  0  0
 17 27  1  0  0  0  0
M  CHG  1  23   1
M  END
$$$$

  -OEChem-05262214473D

 50 50  0     1  0  0  0  0  0999 V2000
   -1.6938    0.4865    3.8080 C   0  0  0  0  0  0  0  0  0  0  0  0
   -0.7464   -0.1282    3.3323 O   0  0  0  0  0  0  0  0  0  0  0  0
   -2.1257    0.2041    5.2087 C   0  0  0  0  0  0  0  0  0  0  0  0
   -2.8853   -0.5922    5.2621 H   0  0  0  0  0  0  0  0  0  0  0  0
   -1.2944   -0.1435    5.8430 H   0  0  0  0  0  0  0  0  0  0  0  0
   -2.5637    1.0590    5.7483 H   0  0  0  0  0  0  0  0  0  0  0  0
   -2.4435    1.4589    3.1669 N   0  0  0  0  0  0  0  0  0  0  0  0
   -2.1966    1.8850    1.8145 C   0  0  2  0  0  0  0  0  0  0  0  0
   -0.8617    1.2996    1.3733 C   0  0  0  0  0  0  0  0  0  0  0  0
    0.0104    0.9468    2.1646 O   0  0  0  0  0  0  0  0  0  0  0  0
   -2.1879    3.4017    1.7050 C   0  0  0  0  0  0  0  0  0  0  0  0
   -3.2085    1.8948    3.6787 H   0  0  0  0  0  0  0  0  0  0  0  0
   -3.0007    1.4665    1.1994 H   0  0  0  0  0  0  0  0  0  0  0  0
   -1.3888    3.8390    2.3147 H   0  0  0  0  0  0  0  0  0  0  0  0
   -2.0284    3.7240    0.6708 H   0  0  0  0  0  0  0  0  0  0  0  0
   -3.1380    3.8230    2.0508 H   0  0  0  0  0  0  0  0  0  0  0  0
   -0.7390    1.2565   -0.0101 N   0  0  0  0  0  0  0  0  0  0  0  0
    0.4383    0.7557   -0.6738 C   0  0  2  0  0  0  0  0  0  0  0  0
    0.3633    1.2081   -2.1277 C   0  0  0  0  0  0  0  0  0  0  0  0
    0.8198    0.5476   -3.0584 O   0  0  0  0  0  0  0  0  0  0  0  0
    0.5414   -0.7718   -0.5956 C   0  0  0  0  0  0  0  0  0  0  0  0
    0.7029   -1.2743    0.8183 C   0  0  0  0  0  0  0  0  0  0  0  0
    1.8922   -1.1615    1.4972 N   0  3  0  0  0  0  0  0  0  0  0  0
   -0.1762   -1.8889    1.6646 C   0  0  0  0  0  0  0  0  0  0  0  0
    1.7592   -1.6862    2.7196 C   0  0  0  0  0  0  0  0  0  0  0  0
    0.5041   -2.1327    2.8332 N   0  0  0  0  0  0  0  0  0  0  0  0
   -1.5221    1.5532   -0.5874 H   0  0  0  0  0  0  0  0  0  0  0  0
    1.2973    1.2374   -0.1919 H   0  0  0  0  0  0  0  0  0  0  0  0
    1.3774   -1.1287   -1.2123 H   0  0  0  0  0  0  0  0  0  0  0  0
   -0.3540   -1.2392   -1.0264 H   0  0  0  0  0  0  0  0  0  0  0  0
    2.7442   -0.7457    1.1308 H   0  0  0  0  0  0  0  0  0  0  0  0
   -1.2011   -2.1987    1.6157 H   0  0  0  0  0  0  0  0  0  0  0  0
    2.5248   -1.7401    3.4755 H   0  0  0  0  0  0  0  0  0  0  0  0
    0.1163   -2.5829    3.6574 H   0  0  0  0  0  0  0  0  0  0  0  0
   -0.3171    2.4103   -2.2633 N   0  0  0  0  0  0  0  0  0  0  0  0
   -0.5506    3.0506   -3.5378 C   0  0  2  0  0  0  0  0  0  0  0  0
    0.7775    3.1190   -4.2800 C   0  0  0  0  0  0  0  0  0  0  0  0
    1.8666    3.0701   -3.7121 O   0  0  0  0  0  0  0  0  0  0  0  0
   -1.1454    4.4387   -3.3589 C   0  0  0  0  0  0  0  0  0  0  0  0
   -0.6687    2.8628   -1.4246 H   0  0  0  0  0  0  0  0  0  0  0  0
   -1.2461    2.4100   -4.0909 H   0  0  0  0  0  0  0  0  0  0  0  0
   -0.4627    5.0949   -2.8068 H   0  0  0  0  0  0  0  0  0  0  0  0
   -1.3482    4.9111   -4.3257 H   0  0  0  0  0  0  0  0  0  0  0  0
   -2.0856    4.3907   -2.7989 H   0  0  0  0  0  0  0  0  0  0  0  0
    0.6036    3.2844   -5.6469 N   0  0  0  0  0  0  0  0  0  0  0  0
    1.7120    3.3895   -6.5669 C   0  0  0  0  0  0  0  0  0  0  0  0
   -0.3357    3.2955   -6.0334 H   0  0  0  0  0  0  0  0  0  0  0  0
    1.9695    4.4490   -6.7121 H   0  0  0  0  0  0  0  0  0  0  0  0
    2.5809    2.8540   -6.1566 H   0  0  0  0  0  0  0  0  0  0  0  0
    1.4301    2.9451   -7.5328 H   0  0  0  0  0  0  0  0  0  0  0  0
 22 24  2  0  0  0  0
 24 26  1  0  0  0  0
 25 26  1  0  0  0  0
 23 25  2  0  0  0  0
 21 22  1  0  0  0  0
 22 23  1  0  0  0  0
  1  3  1  0  0  0  0
  1  7  1  0  0  0  0
  1  2  2  0  0  0  0
 36 37  1  0  0  0  0
 37 45  1  0  0  0  0
 37 38  2  0  0  0  0
  8  9  1  0  0  0  0
  9 17  1  0  0  0  0
  9 10  2  0  0  0  0
 18 19  1  0  0  0  0
 19 35  1  0  0  0  0
 19 20  2  0  0  0  0
 36 39  1  0  0  0  0
  8 11  1  0  0  0  0
 45 46  1  0  0  0  0
 18 21  1  0  0  0  0
 35 36  1  0  0  0  0
  7  8  1  0  0  0  0
 17 18  1  0  0  0  0
 24 32  1  0  0  0  0
 25 33  1  0  0  0  0
  3  4  1  0  0  0  0
  3  5  1  0  0  0  0
  3  6  1  0  0  0  0
 39 42  1  0  0  0  0
 39 43  1  0  0  0  0
 39 44  1  0  0  0  0
 11 14  1  0  0  0  0
 11 15  1  0  0  0  0
 11 16  1  0  0  0  0
 46 48  1  0  0  0  0
 46 49  1  0  0  0  0
 46 50  1  0  0  0  0
 21 29  1  0  0  0  0
 21 30  1  0  0  0  0
 36 41  1  0  0  0  0
  8 13  1  0  0  0  0
 18 28  1  0  0  0  0
 26 34  1  0  0  0  0
 23 31  1  0  0  0  0
 45 47  1  0  0  0  0
  7 12  1  0  0  0  0
 35 40  1  0  0  0  0
 17 27  1  0  0  0  0
M  CHG  1  23   1
M  END
$$$$

  -OEChem-05262214473D

 50 50  0     1  0  0  0  0  0999 V2000
   -1.6938    0.4865    3.8080 C   0  0  0  0  0  0  0  0  0  0  0  0
   -0.7464   -0.1282    3.3323 O   0  0  0  0  0  0  0  0  0  0  0  0
   -2.1257    0.2041    5.2087 C   0  0  0  0  0  0  0  0  0  0  0  0
   -2.8853   -0.5922    5.2621 H   0  0  0  0  0  0  0  0  0  0  0  0
   -1.2944   -0.1435    5.8430 H   0  0  0  0  0  0  0  0  0  0  0  0
   -2.5637    1.0590    5.7483 H   0  0  0  0  0  0  0  0  0  0  0  0
   -2.4435    1.4589    3.1669 N   0  0  0  0  0  0  0  0  0  0  0  0
   -2.1966    1.8850    1.8145 C   0  0  2  0  0  0  0  0  0  0  0  0
   -0.8617    1.2996    1.3733 C   0  0  0  0  0  0  0  0  0  0  0  0
    0.0104    0.9468    2.1646 O   0  0  0  0  0  0  0  0  0  0  0  0
   -2.1879    3.4017    1.7050 C   0  0  0  0  0  0  0  0  0  0  0  0
   -3.2085    1.8948    3.6787 H   0  0  0  0  0  0  0  0  0  0  0  0
   -3.0007    1.4665    1.1994 H   0  0  0  0  0  0  0  0  0  0  0  0
   -1.3888    3.8390    2.3147 H   0  0  0  0  0  0  0  0  0  0  0  0
   -2.0284    3.7240    0.6708 H   0  0  0  0  0  0  0  0  0  0  0  0
   -3.1380    3.8230    2.0508 H   0  0  0  0  0  0  0  0  0  0  0  0
   -0.7390    1.2565   -0.0101 N   0  0  0  0  0  0  0  0  0  0  0  0
    0.4383    0.7557   -0.6738 C   0  0  2  0  0  0  0  0  0  0  0  0
    0.3633    1.2081   -2.1277 C   0  0  0  0  0  0  0  0  0  0  0  0
    0.5686    0.4524   -3.0751 O   0  0  0  0  0  0  0  0  0  0  0  0
    0.5414   -0.7718   -0.5956 C   0  0  0  0  0  0  0  0  0  0  0  0
    0.7029   -1.2743    0.8183 C   0  0  0  0  0  0  0  0  0  0  0  0
    1.8922   -1.1615    1.4972 N   0  3  0  0  0  0  0  0  0  0  0  0
   -0.1762   -1.8889    1.6646 C   0  0  0  0  0  0  0  0  0  0  0  0
    1.7592   -1.6862    2.7196 C   0  0  0  0  0  0  0  0  0  0  0  0
    0.5041   -2.1327    2.8332 N   0  0  0  0  0  0  0  0  0  0  0  0
   -1.5221    1.5532   -0.5874 H   0  0  0  0  0  0  0  0  0  0  0  0
    1.2973    1.2374   -0.1919 H   0  0  0  0  0  0  0  0  0  0  0  0
    1.3774   -1.1287   -1.2123 H   0  0  0  0  0  0  0  0  0  0  0  0
   -0.3540   -1.2392   -1.0264 H   0  0  0  0  0  0  0  0  0  0  0  0
    2.7442   -0.7457    1.1308 H   0  0  0  0  0  0  0  0  0  0  0  0
   -1.2011   -2.1987    1.6157 H   0  0  0  0  0  0  0  0  0  0  0  0
    2.5248   -1.7401    3.4755 H   0  0  0  0  0  0  0  0  0  0  0  0
    0.1163   -2.5829    3.6574 H   0  0  0  0  0  0  0  0  0  0  0  0
   -0.0085    2.5408   -2.2386 N   0  0  0  0  0  0  0  0  0  0  0  0
   -0.1762    3.2150   -3.5059 C   0  0  2  0  0  0  0  0  0  0  0  0
    1.0654    2.9505   -4.3473 C   0  0  0  0  0  0  0  0  0  0  0  0
    2.1500    2.6355   -3.8619 O   0  0  0  0  0  0  0  0  0  0  0  0
   -0.3948    4.7077   -3.3139 C   0  0  0  0  0  0  0  0  0  0  0  0
   -0.1709    3.0688   -1.3862 H   0  0  0  0  0  0  0  0  0  0  0  0
   -1.0493    2.7646   -3.9907 H   0  0  0  0  0  0  0  0  0  0  0  0
    0.4696    5.1763   -2.8295 H   0  0  0  0  0  0  0  0  0  0  0  0
   -0.5501    5.2125   -4.2731 H   0  0  0  0  0  0  0  0  0  0  0  0
   -1.2710    4.8954   -2.6839 H   0  0  0  0  0  0  0  0  0  0  0  0
    0.8309    3.1495   -5.7006 N   0  0  0  0  0  0  0  0  0  0  0  0
    1.8555    2.9744   -6.7034 C   0  0  0  0  0  0  0  0  0  0  0  0
   -0.1040    3.3914   -6.0155 H   0  0  0  0  0  0  0  0  0  0  0  0
    2.3538    3.9368   -6.8913 H   0  0  0  0  0  0  0  0  0  0  0  0
    2.5951    2.2419   -6.3478 H   0  0  0  0  0  0  0  0  0  0  0  0
    1.3979    2.6105   -7.6353 H   0  0  0  0  0  0  0  0  0  0  0  0
 22 24  2  0  0  0  0
 24 26  1  0  0  0  0
 25 26  1  0  0  0  0
 23 25  2  0  0  0  0
 21 22  1  0  0  0  0
 22 23  1  0  0  0  0
  1  3  1  0  0  0  0
  1  7  1  0  0  0  0
  1  2  2  0  0  0  0
 36 37  1  0  0  0  0
 37 45  1  0  0  0  0
 37 38  2  0  0  0  0
  8  9  1  0  0  0  0
  9 17  1  0  0  0  0
  9 10  2  0  0  0  0
 18 19  1  0  0  0  0
 19 35  1  0  0  0  0
 19 20  2  0  0  0  0
 36 39  1  0  0  0  0
  8 11  1  0  0  0  0
 45 46  1  0  0  0  0
 18 21  1  0  0  0  0
 35 36  1  0  0  0  0
  7  8  1  0  0  0  0
 17 18  1  0  0  0  0
 24 32  1  0  0  0  0
 25 33  1  0  0  0  0
  3  4  1  0  0  0  0
  3  5  1  0  0  0  0
  3  6  1  0  0  0  0
 39 42  1  0  0  0  0
 39 43  1  0  0  0  0
 39 44  1  0  0  0  0
 11 14  1  0  0  0  0
 11 15  1  0  0  0  0
 11 16  1  0  0  0  0
 46 48  1  0  0  0  0
 46 49  1  0  0  0  0
 46 50  1  0  0  0  0
 21 29  1  0  0  0  0
 21 30  1  0  0  0  0
 36 41  1  0  0  0  0
  8 13  1  0  0  0  0
 18 28  1  0  0  0  0
 26 34  1  0  0  0  0
 23 31  1  0  0  0  0
 45 47  1  0  0  0  0
  7 12  1  0  0  0  0
 35 40  1  0  0  0  0
 17 27  1  0  0  0  0
M  CHG  1  23   1
M  END
$$$$

  -OEChem-05262214473D

 50 50  0     1  0  0  0  0  0999 V2000
   -1.6938    0.4865    3.8080 C   0  0  0  0  0  0  0  0  0  0  0  0
   -0.7464   -0.1282    3.3323 O   0  0  0  0  0  0  0  0  0  0  0  0
   -2.1257    0.2041    5.2087 C   0  0  0  0  0  0  0  0  0  0  0  0
   -2.8853   -0.5922    5.2621 H   0  0  0  0  0  0  0  0  0  0  0  0
   -1.2944   -0.1435    5.8430 H   0  0  0  0  0  0  0  0  0  0  0  0
   -2.5637    1.0590    5.7483 H   0  0  0  0  0  0  0  0  0  0  0  0
   -2.4435    1.4589    3.1669 N   0  0  0  0  0  0  0  0  0  0  0  0
   -2.1966    1.8850    1.8145 C   0  0  2  0  0  0  0  0  0  0  0  0
   -0.8617    1.2996    1.3733 C   0  0  0  0  0  0  0  0  0  0  0  0
    0.0104    0.9468    2.1646 O   0  0  0  0  0  0  0  0  0  0  0  0
   -2.1879    3.4017    1.7050 C   0  0  0  0  0  0  0  0  0  0  0  0
   -3.2085    1.8948    3.6787 H   0  0  0  0  0  0  0  0  0  0  0  0
   -3.0007    1.4665    1.1994 H   0  0  0  0  0  0  0  0  0  0  0  0
   -1.3888    3.8390    2.3147 H   0  0  0  0  0  0  0  0  0  0  0  0
   -2.0284    3.7240    0.6708 H   0  0  0  0  0  0  0  0  0  0  0  0
   -3.1380    3.8230    2.0508 H   0  0  0  0  0  0  0  0  0  0  0  0
   -0.7390    1.2565   -0.0101 N   0  0  0  0  0  0  0  0  0  0  0  0
    0.4383    0.7557   -0.6738 C   0  0  2  0  0  0  0  0  0  0  0  0
    0.3633    1.2081   -2.1277 C   0  0  0  0  0  0  0  0  0  0  0  0
    0.3012    0.4221   -3.0707 O   0  0  0  0  0  0  0  0  0  0  0  0
    0.5414   -0.7718   -0.5956 C   0  0  0  0  0  0  0  0  0  0  0  0
    0.7029   -1.2743    0.8183 C   0  0  0  0  0  0  0  0  0  0  0  0
    1.8922   -1.1615    1.4972 N   0  3  0  0  0  0  0  0  0  0  0  0
   -0.1762   -1.8889    1.6646 C   0  0  0  0  0  0  0  0  0  0  0  0
    1.7592   -1.6862    2.7196 C   0  0  0  0  0  0  0  0  0  0  0  0
    0.5041   -2.1327    2.8332 N   0  0  0  0  0  0  0  0  0  0  0  0
   -1.5221    1.5532   -0.5874 H   0  0  0  0  0  0  0  0  0  0  0  0
    1.2973    1.2374   -0.1919 H   0  0  0  0  0  0  0  0  0  0  0  0
    1.3774   -1.1287   -1.2123 H   0  0  0  0  0  0  0  0  0  0  0  0
   -0.3540   -1.2392   -1.0264 H   0  0  0  0  0  0  0  0  0  0  0  0
    2.7442   -0.7457    1.1308 H   0  0  0  0  0  0  0  0  0  0  0  0
   -1.2011   -2.1987    1.6157 H   0  0  0  0  0  0  0  0  0  0  0  0
    2.5248   -1.7401    3.4755 H   0  0  0  0  0  0  0  0  0  0  0  0
    0.1163   -2.5829    3.6574 H   0  0  0  0  0  0  0  0  0  0  0  0
    0.3237    2.5910   -2.2402 N   0  0  0  0  0  0  0  0  0  0  0  0
    0.2284    3.2818   -3.5060 C   0  0  2  0  0  0  0  0  0  0  0  0
    1.2967    2.7158   -4.4323 C   0  0  0  0  0  0  0  0  0  0  0  0
    2.3049    2.1439   -4.0229 O   0  0  0  0  0  0  0  0  0  0  0  0
    0.4000    4.7827   -3.3316 C   0  0  0  0  0  0  0  0  0  0  0  0
    0.3637    3.1454   -1.3900 H   0  0  0  0  0  0  0  0  0  0  0  0
   -0.7639    3.0599   -3.9135 H   0  0  0  0  0  0  0  0  0  0  0  0
    1.3884    5.0245   -2.9242 H   0  0  0  0  0  0  0  0  0  0  0  0
    0.2991    5.3074   -4.2874 H   0  0  0  0  0  0  0  0  0  0  0  0
   -0.3508    5.1833   -2.6418 H   0  0  0  0  0  0  0  0  0  0  0  0
    1.0131    2.9625   -5.7682 N   0  0  0  0  0  0  0  0  0  0  0  0
    1.8810    2.5362   -6.8411 C   0  0  0  0  0  0  0  0  0  0  0  0
    0.1448    3.4271   -6.0172 H   0  0  0  0  0  0  0  0  0  0  0  0
    2.5848    3.3450   -7.0874 H   0  0  0  0  0  0  0  0  0  0  0  0
    2.4430    1.6447   -6.5257 H   0  0  0  0  0  0  0  0  0  0  0  0
    1.2764    2.2940   -7.7275 H   0  0  0  0  0  0  0  0  0  0  0  0
 22 24  2  0  0  0  0
 24 26  1  0  0  0  0
 25 26  1  0  0  0  0
 23 25  2  0  0  0  0
 21 22  1  0  0  0  0
 22 23  1  0  0  0  0
  1  3  1  0  0  0  0
  1  7  1  0  0  0  0
  1  2  2  0  0  0  0
 36 37  1  0  0  0  0
 37 45  1  0  0  0  0
 37 38  2  0  0  0  0
  8  9  1  0  0  0  0
  9 17  1  0  0  0  0
  9 10  2  0  0  0  0
 18 19  1  0  0  0  0
 19 35  1  0  0  0  0
 19 20  2  0  0  0  0
 36 39  1  0  0  0  0
  8 11  1  0  0  0  0
 45 46  1  0  0  0  0
 18 21  1  0  0  0  0
 35 36  1  0  0  0  0
  7  8  1  0  0  0  0
 17 18  1  0  0  0  0
 24 32  1  0  0  0  0
 25 33  1  0  0  0  0
  3  4  1  0  0  0  0
  3  5  1  0  0  0  0
  3  6  1  0  0  0  0
 39 42  1  0  0  0  0
 39 43  1  0  0  0  0
 39 44  1  0  0  0  0
 11 14  1  0  0  0  0
 11 15  1  0  0  0  0
 11 16  1  0  0  0  0
 46 48  1  0  0  0  0
 46 49  1  0  0  0  0
 46 50  1  0  0  0  0
 21 29  1  0  0  0  0
 21 30  1  0  0  0  0
 36 41  1  0  0  0  0
  8 13  1  0  0  0  0
 18 28  1  0  0  0  0
 26 34  1  0  0  0  0
 23 31  1  0  0  0  0
 45 47  1  0  0  0  0
  7 12  1  0  0  0  0
 35 40  1  0  0  0  0
 17 27  1  0  0  0  0
M  CHG  1  23   1
M  END
$$$$

  -OEChem-05262214473D

 50 50  0     1  0  0  0  0  0999 V2000
   -1.6938    0.4865    3.8080 C   0  0  0  0  0  0  0  0  0  0  0  0
   -0.7464   -0.1282    3.3323 O   0  0  0  0  0  0  0  0  0  0  0  0
   -2.1257    0.2041    5.2087 C   0  0  0  0  0  0  0  0  0  0  0  0
   -2.8853   -0.5922    5.2621 H   0  0  0  0  0  0  0  0  0  0  0  0
   -1.2944   -0.1435    5.8430 H   0  0  0  0  0  0  0  0  0  0  0  0
   -2.5637    1.0590    5.7483 H   0  0  0  0  0  0  0  0  0  0  0  0
   -2.4435    1.4589    3.1669 N   0  0  0  0  0  0  0  0  0  0  0  0
   -2.1966    1.8850    1.8145 C   0  0  2  0  0  0  0  0  0  0  0  0
   -0.8617    1.2996    1.3733 C   0  0  0  0  0  0  0  0  0  0  0  0
    0.0104    0.9468    2.1646 O   0  0  0  0  0  0  0  0  0  0  0  0
   -2.1879    3.4017    1.7050 C   0  0  0  0  0  0  0  0  0  0  0  0
   -3.2085    1.8948    3.6787 H   0  0  0  0  0  0  0  0  0  0  0  0
   -3.0007    1.4665    1.1994 H   0  0  0  0  0  0  0  0  0  0  0  0
   -1.3888    3.8390    2.3147 H   0  0  0  0  0  0  0  0  0  0  0  0
   -2.0284    3.7240    0.6708 H   0  0  0  0  0  0  0  0  0  0  0  0
   -3.1380    3.8230    2.0508 H   0  0  0  0  0  0  0  0  0  0  0  0
   -0.7390    1.2565   -0.0101 N   0  0  0  0  0  0  0  0  0  0  0  0
    0.4383    0.7557   -0.6738 C   0  0  2  0  0  0  0  0  0  0  0  0
    0.3633    1.2081   -2.1277 C   0  0  0  0  0  0  0  0  0  0  0  0
    0.0357    0.4590   -3.0455 O   0  0  0  0  0  0  0  0  0  0  0  0
    0.5414   -0.7718   -0.5956 C   0  0  0  0  0  0  0  0  0  0  0  0
    0.7029   -1.2743    0.8183 C   0  0  0  0  0  0  0  0  0  0  0  0
    1.8922   -1.1615    1.4972 N   0  3  0  0  0  0  0  0  0  0  0  0
   -0.1762   -1.8889    1.6646 C   0  0  0  0  0  0  0  0  0  0  0  0
    1.7592   -1.6862    2.7196 C   0  0  0  0  0  0  0  0  0  0  0  0
    0.5041   -2.1327    2.8332 N   0  0  0  0  0  0  0  0  0  0  0  0
   -1.5221    1.5532   -0.5874 H   0  0  0  0  0  0  0  0  0  0  0  0
    1.2973    1.2374   -0.1919 H   0  0  0  0  0  0  0  0  0  0  0  0
    1.3774   -1.1287   -1.2123 H   0  0  0  0  0  0  0  0  0  0  0  0
   -0.3540   -1.2392   -1.0264 H   0  0  0  0  0  0  0  0  0  0  0  0
    2.7442   -0.7457    1.1308 H   0  0  0  0  0  0  0  0  0  0  0  0
   -1.2011   -2.1987    1.6157 H   0  0  0  0  0  0  0  0  0  0  0  0
    2.5248   -1.7401    3.4755 H   0  0  0  0  0  0  0  0  0  0  0  0
    0.1163   -2.5829    3.6574 H   0  0  0  0  0  0  0  0  0  0  0  0
    0.6569    2.5574   -2.2678 N   0  0  0  0  0  0  0  0  0  0  0  0
    0.6357    3.2464   -3.5381 C   0  0  2  0  0  0  0  0  0  0  0  0
    1.4557    2.4309   -4.5291 C   0  0  0  0  0  0  0  0  0  0  0  0
    2.3208    1.6287   -4.1840 O   0  0  0  0  0  0  0  0  0  0  0  0
    1.1849    4.6589   -3.4106 C   0  0  0  0  0  0  0  0  0  0  0  0
    0.8987    3.0873   -1.4356 H   0  0  0  0  0  0  0  0  0  0  0  0
   -0.4095    3.2756   -3.8647 H   0  0  0  0  0  0  0  0  0  0  0  0
    2.2312    4.6499   -3.0843 H   0  0  0  0  0  0  0  0  0  0  0  0
    1.1417    5.1892   -4.3677 H   0  0  0  0  0  0  0  0  0  0  0  0
    0.6124    5.2347   -2.6755 H   0  0  0  0  0  0  0  0  0  0  0  0
    1.1377    2.7360   -5.8452 N   0  0  0  0  0  0  0  0  0  0  0  0
    1.7870    2.1050   -6.9704 C   0  0  0  0  0  0  0  0  0  0  0  0
    0.3939    3.4001   -6.0385 H   0  0  0  0  0  0  0  0  0  0  0  0
    2.6468    2.7138   -7.2870 H   0  0  0  0  0  0  0  0  0  0  0  0
    2.1350    1.1032   -6.6784 H   0  0  0  0  0  0  0  0  0  0  0  0
    1.0737    2.0171   -7.8032 H   0  0  0  0  0  0  0  0  0  0  0  0
 22 24  2  0  0  0  0
 24 26  1  0  0  0  0
 25 26  1  0  0  0  0
 23 25  2  0  0  0  0
 21 22  1  0  0  0  0
 22 23  1  0  0  0  0
  1  3  1  0  0  0  0
  1  7  1  0  0  0  0
  1  2  2  0  0  0  0
 36 37  1  0  0  0  0
 37 45  1  0  0  0  0
 37 38  2  0  0  0  0
  8  9  1  0  0  0  0
  9 17  1  0  0  0  0
  9 10  2  0  0  0  0
 18 19  1  0  0  0  0
 19 35  1  0  0  0  0
 19 20  2  0  0  0  0
 36 39  1  0  0  0  0
  8 11  1  0  0  0  0
 45 46  1  0  0  0  0
 18 21  1  0  0  0  0
 35 36  1  0  0  0  0
  7  8  1  0  0  0  0
 17 18  1  0  0  0  0
 24 32  1  0  0  0  0
 25 33  1  0  0  0  0
  3  4  1  0  0  0  0
  3  5  1  0  0  0  0
  3  6  1  0  0  0  0
 39 42  1  0  0  0  0
 39 43  1  0  0  0  0
 39 44  1  0  0  0  0
 11 14  1  0  0  0  0
 11 15  1  0  0  0  0
 11 16  1  0  0  0  0
 46 48  1  0  0  0  0
 46 49  1  0  0  0  0
 46 50  1  0  0  0  0
 21 29  1  0  0  0  0
 21 30  1  0  0  0  0
 36 41  1  0  0  0  0
  8 13  1  0  0  0  0
 18 28  1  0  0  0  0
 26 34  1  0  0  0  0
 23 31  1  0  0  0  0
 45 47  1  0  0  0  0
  7 12  1  0  0  0  0
 35 40  1  0  0  0  0
 17 27  1  0  0  0  0
M  CHG  1  23   1
M  END
$$$$

  -OEChem-05262214473D

 50 50  0     1  0  0  0  0  0999 V2000
   -1.6938    0.4865    3.8080 C   0  0  0  0  0  0  0  0  0  0  0  0
   -0.7464   -0.1282    3.3323 O   0  0  0  0  0  0  0  0  0  0  0  0
   -2.1257    0.2041    5.2087 C   0  0  0  0  0  0  0  0  0  0  0  0
   -2.8853   -0.5922    5.2621 H   0  0  0  0  0  0  0  0  0  0  0  0
   -1.2944   -0.1435    5.8430 H   0  0  0  0  0  0  0  0  0  0  0  0
   -2.5637    1.0590    5.7483 H   0  0  0  0  0  0  0  0  0  0  0  0
   -2.4435    1.4589    3.1669 N   0  0  0  0  0  0  0  0  0  0  0  0
   -2.1966    1.8850    1.8145 C   0  0  2  0  0  0  0  0  0  0  0  0
   -0.8617    1.2996    1.3733 C   0  0  0  0  0  0  0  0  0  0  0  0
    0.0104    0.9468    2.1646 O   0  0  0  0  0  0  0  0  0  0  0  0
   -2.1879    3.4017    1.7050 C   0  0  0  0  0  0  0  0  0  0  0  0
   -3.2085    1.8948    3.6787 H   0  0  0  0  0  0  0  0  0  0  0  0
   -3.0007    1.4665    1.1994 H   0  0  0  0  0  0  0  0  0  0  0  0
   -1.3888    3.8390    2.3147 H   0  0  0  0  0  0  0  0  0  0  0  0
   -2.0284    3.7240    0.6708 H   0  0  0  0  0  0  0  0  0  0  0  0
   -3.1380    3.8230    2.0508 H   0  0  0  0  0  0  0  0  0  0  0  0
   -0.7390    1.2565   -0.0101 N   0  0  0  0  0  0  0  0  0  0  0  0
    0.4383    0.7557   -0.6738 C   0  0  2  0  0  0  0  0  0  0  0  0
    0.3633    1.2081   -2.1277 C   0  0  0  0  0  0  0  0  0  0  0  0
   -0.2097    0.5604   -3.0013 O   0  0  0  0  0  0  0  0  0  0  0  0
    0.5414   -0.7718   -0.5956 C   0  0  0  0  0  0  0  0  0  0  0  0
    0.7029   -1.2743    0.8183 C   0  0  0  0  0  0  0  0  0  0  0  0
    1.8922   -1.1615    1.4972 N   0  3  0  0  0  0  0  0  0  0  0  0
   -0.1762   -1.8889    1.6646 C   0  0  0  0  0  0  0  0  0  0  0  0
    1.7592   -1.6862    2.7196 C   0  0  0  0  0  0  0  0  0  0  0  0
    0.5041   -2.1327    2.8332 N   0  0  0  0  0  0  0  0  0  0  0  0
   -1.5221    1.5532   -0.5874 H   0  0  0  0  0  0  0  0  0  0  0  0
    1.2973    1.2374   -0.1919 H   0  0  0  0  0  0  0  0  0  0  0  0
    1.3774   -1.1287   -1.2123 H   0  0  0  0  0  0  0  0  0  0  0  0
   -0.3540   -1.2392   -1.0264 H   0  0  0  0  0  0  0  0  0  0  0  0
    2.7442   -0.7457    1.1308 H   0  0  0  0  0  0  0  0  0  0  0  0
   -1.2011   -2.1987    1.6157 H   0  0  0  0  0  0  0  0  0  0  0  0
    2.5248   -1.7401    3.4755 H   0  0  0  0  0  0  0  0  0  0  0  0
    0.1163   -2.5829    3.6574 H   0  0  0  0  0  0  0  0  0  0  0  0
    0.9683    2.4425   -2.3196 N   0  0  0  0  0  0  0  0  0  0  0  0
    1.0180    3.1113   -3.5998 C   0  0  2  0  0  0  0  0  0  0  0  0
    1.5315    2.1153   -4.6312 C   0  0  0  0  0  0  0  0  0  0  0  0
    2.1967    1.1251   -4.3343 O   0  0  0  0  0  0  0  0  0  0  0  0
    1.9064    4.3444   -3.5457 C   0  0  0  0  0  0  0  0  0  0  0  0
    1.3977    2.8986   -1.5201 H   0  0  0  0  0  0  0  0  0  0  0  0
   -0.0101    3.3971   -3.8475 H   0  0  0  0  0  0  0  0  0  0  0  0
    2.9406    4.0780   -3.2988 H   0  0  0  0  0  0  0  0  0  0  0  0
    1.9203    4.8660   -4.5084 H   0  0  0  0  0  0  0  0  0  0  0  0
    1.5529    5.0463   -2.7827 H   0  0  0  0  0  0  0  0  0  0  0  0
    1.1963    2.4854   -5.9261 N   0  0  0  0  0  0  0  0  0  0  0  0
    1.5799    1.7100   -7.0827 C   0  0  0  0  0  0  0  0  0  0  0  0
    0.6262    3.3123   -6.0778 H   0  0  0  0  0  0  0  0  0  0  0  0
    2.5355    2.0862   -7.4765 H   0  0  0  0  0  0  0  0  0  0  0  0
    1.6921    0.6541   -6.7952 H   0  0  0  0  0  0  0  0  0  0  0  0
    0.8039    1.7986   -7.8572 H   0  0  0  0  0  0  0  0  0  0  0  0
 22 24  2  0  0  0  0
 24 26  1  0  0  0  0
 25 26  1  0  0  0  0
 23 25  2  0  0  0  0
 21 22  1  0  0  0  0
 22 23  1  0  0  0  0
  1  3  1  0  0  0  0
  1  7  1  0  0  0  0
  1  2  2  0  0  0  0
 36 37  1  0  0  0  0
 37 45  1  0  0  0  0
 37 38  2  0  0  0  0
  8  9  1  0  0  0  0
  9 17  1  0  0  0  0
  9 10  2  0  0  0  0
 18 19  1  0  0  0  0
 19 35  1  0  0  0  0
 19 20  2  0  0  0  0
 36 39  1  0  0  0  0
  8 11  1  0  0  0  0
 45 46  1  0  0  0  0
 18 21  1  0  0  0  0
 35 36  1  0  0  0  0
  7  8  1  0  0  0  0
 17 18  1  0  0  0  0
 24 32  1  0  0  0  0
 25 33  1  0  0  0  0
  3  4  1  0  0  0  0
  3  5  1  0  0  0  0
  3  6  1  0  0  0  0
 39 42  1  0  0  0  0
 39 43  1  0  0  0  0
 39 44  1  0  0  0  0
 11 14  1  0  0  0  0
 11 15  1  0  0  0  0
 11 16  1  0  0  0  0
 46 48  1  0  0  0  0
 46 49  1  0  0  0  0
 46 50  1  0  0  0  0
 21 29  1  0  0  0  0
 21 30  1  0  0  0  0
 36 41  1  0  0  0  0
  8 13  1  0  0  0  0
 18 28  1  0  0  0  0
 26 34  1  0  0  0  0
 23 31  1  0  0  0  0
 45 47  1  0  0  0  0
  7 12  1  0  0  0  0
 35 40  1  0  0  0  0
 17 27  1  0  0  0  0
M  CHG  1  23   1
M  END
$$$$

  -OEChem-05262214473D

 50 50  0     1  0  0  0  0  0999 V2000
   -1.6938    0.4865    3.8080 C   0  0  0  0  0  0  0  0  0  0  0  0
   -0.7464   -0.1282    3.3323 O   0  0  0  0  0  0  0  0  0  0  0  0
   -2.1257    0.2041    5.2087 C   0  0  0  0  0  0  0  0  0  0  0  0
   -2.8853   -0.5922    5.2621 H   0  0  0  0  0  0  0  0  0  0  0  0
   -1.2944   -0.1435    5.8430 H   0  0  0  0  0  0  0  0  0  0  0  0
   -2.5637    1.0590    5.7483 H   0  0  0  0  0  0  0  0  0  0  0  0
   -2.4435    1.4589    3.1669 N   0  0  0  0  0  0  0  0  0  0  0  0
   -2.1966    1.8850    1.8145 C   0  0  2  0  0  0  0  0  0  0  0  0
   -0.8617    1.2996    1.3733 C   0  0  0  0  0  0  0  0  0  0  0  0
    0.0104    0.9468    2.1646 O   0  0  0  0  0  0  0  0  0  0  0  0
   -2.1879    3.4017    1.7050 C   0  0  0  0  0  0  0  0  0  0  0  0
   -3.2085    1.8948    3.6787 H   0  0  0  0  0  0  0  0  0  0  0  0
   -3.0007    1.4665    1.1994 H   0  0  0  0  0  0  0  0  0  0  0  0
   -1.3888    3.8390    2.3147 H   0  0  0  0  0  0  0  0  0  0  0  0
   -2.0284    3.7240    0.6708 H   0  0  0  0  0  0  0  0  0  0  0  0
   -3.1380    3.8230    2.0508 H   0  0  0  0  0  0  0  0  0  0  0  0
   -0.7390    1.2565   -0.0101 N   0  0  0  0  0  0  0  0  0  0  0  0
    0.4383    0.7557   -0.6738 C   0  0  2  0  0  0  0  0  0  0  0  0
    0.3633    1.2081   -2.1277 C   0  0  0  0  0  0  0  0  0  0  0  0
   -0.4182    0.7196   -2.9410 O   0  0  0  0  0  0  0  0  0  0  0  0
    0.5414   -0.7718   -0.5956 C   0  0  0  0  0  0  0  0  0  0  0  0
    0.7029   -1.2743    0.8183 C   0  0  0  0  0  0  0  0  0  0  0  0
    1.8922   -1.1615    1.4972 N   0  3  0  0  0  0  0  0  0  0  0  0
   -0.1762   -1.8889    1.6646 C   0  0  0  0  0  0  0  0  0  0  0  0
    1.7592   -1.6862    2.7196 C   0  0  0  0  0  0  0  0  0  0  0  0
    0.5041   -2.1327    2.8332 N   0  0  0  0  0  0  0  0  0  0  0  0
   -1.5221    1.5532   -0.5874 H   0  0  0  0  0  0  0  0  0  0  0  0
    1.2973    1.2374   -0.1919 H   0  0  0  0  0  0  0  0  0  0  0  0
    1.3774   -1.1287   -1.2123 H   0  0  0  0  0  0  0  0  0  0  0  0
   -0.3540   -1.2392   -1.0264 H   0  0  0  0  0  0  0  0  0  0  0  0
    2.7442   -0.7457    1.1308 H   0  0  0  0  0  0  0  0  0  0  0  0
   -1.2011   -2.1987    1.6157 H   0  0  0  0  0  0  0  0  0  0  0  0
    2.5248   -1.7401    3.4755 H   0  0  0  0  0  0  0  0  0  0  0  0
    0.1163   -2.5829    3.6574 H   0  0  0  0  0  0  0  0  0  0  0  0
    1.2367    2.2539   -2.3922 N   0  0  0  0  0  0  0  0  0  0  0  0
    1.3491    2.8857   -3.6871 C   0  0  2  0  0  0  0  0  0  0  0  0
    1.5190    1.7904   -4.7317 C   0  0  0  0  0  0  0  0  0  0  0  0
    1.9409    0.6674   -4.4636 O   0  0  0  0  0  0  0  0  0  0  0  0
    2.5153    3.8609   -3.7276 C   0  0  0  0  0  0  0  0  0  0  0  0
    1.8266    2.5921   -1.6376 H   0  0  0  0  0  0  0  0  0  0  0  0
    0.4069    3.4161   -3.8631 H   0  0  0  0  0  0  0  0  0  0  0  0
    3.4681    3.3477   -3.5533 H   0  0  0  0  0  0  0  0  0  0  0  0
    2.5818    4.3599   -4.7001 H   0  0  0  0  0  0  0  0  0  0  0  0
    2.4065    4.6308   -2.9561 H   0  0  0  0  0  0  0  0  0  0  0  0
    1.1848    2.2279   -6.0057 N   0  0  0  0  0  0  0  0  0  0  0  0
    1.2736    1.3781   -7.1701 C   0  0  0  0  0  0  0  0  0  0  0  0
    0.8258    3.1697   -6.1325 H   0  0  0  0  0  0  0  0  0  0  0  0
    2.2586    1.5051   -7.6431 H   0  0  0  0  0  0  0  0  0  0  0  0
    1.1445    0.3282   -6.8684 H   0  0  0  0  0  0  0  0  0  0  0  0
    0.4851    1.6536   -7.8859 H   0  0  0  0  0  0  0  0  0  0  0  0
 22 24  2  0  0  0  0
 24 26  1  0  0  0  0
 25 26  1  0  0  0  0
 23 25  2  0  0  0  0
 21 22  1  0  0  0  0
 22 23  1  0  0  0  0
  1  3  1  0  0  0  0
  1  7  1  0  0  0  0
  1  2  2  0  0  0  0
 36 37  1  0  0  0  0
 37 45  1  0  0  0  0
 37 38  2  0  0  0  0
  8  9  1  0  0  0  0
  9 17  1  0  0  0  0
  9 10  2  0  0  0  0
 18 19  1  0  0  0  0
 19 35  1  0  0  0  0
 19 20  2  0  0  0  0
 36 39  1  0  0  0  0
  8 11  1  0  0  0  0
 45 46  1  0  0  0  0
 18 21  1  0  0  0  0
 35 36  1  0  0  0  0
  7  8  1  0  0  0  0
 17 18  1  0  0  0  0
 24 32  1  0  0  0  0
 25 33  1  0  0  0  0
  3  4  1  0  0  0  0
  3  5  1  0  0  0  0
  3  6  1  0  0  0  0
 39 42  1  0  0  0  0
 39 43  1  0  0  0  0
 39 44  1  0  0  0  0
 11 14  1  0  0  0  0
 11 15  1  0  0  0  0
 11 16  1  0  0  0  0
 46 48  1  0  0  0  0
 46 49  1  0  0  0  0
 46 50  1  0  0  0  0
 21 29  1  0  0  0  0
 21 30  1  0  0  0  0
 36 41  1  0  0  0  0
  8 13  1  0  0  0  0
 18 28  1  0  0  0  0
 26 34  1  0  0  0  0
 23 31  1  0  0  0  0
 45 47  1  0  0  0  0
  7 12  1  0  0  0  0
 35 40  1  0  0  0  0
 17 27  1  0  0  0  0
M  CHG  1  23   1
M  END
$$$$

  -OEChem-05262214473D

 50 50  0     1  0  0  0  0  0999 V2000
   -1.6938    0.4865    3.8080 C   0  0  0  0  0  0  0  0  0  0  0  0
   -0.7464   -0.1282    3.3323 O   0  0  0  0  0  0  0  0  0  0  0  0
   -2.1257    0.2041    5.2087 C   0  0  0  0  0  0  0  0  0  0  0  0
   -2.8853   -0.5922    5.2621 H   0  0  0  0  0  0  0  0  0  0  0  0
   -1.2944   -0.1435    5.8430 H   0  0  0  0  0  0  0  0  0  0  0  0
   -2.5637    1.0590    5.7483 H   0  0  0  0  0  0  0  0  0  0  0  0
   -2.4435    1.4589    3.1669 N   0  0  0  0  0  0  0  0  0  0  0  0
   -2.1966    1.8850    1.8145 C   0  0  2  0  0  0  0  0  0  0  0  0
   -0.8617    1.2996    1.3733 C   0  0  0  0  0  0  0  0  0  0  0  0
    0.0104    0.9468    2.1646 O   0  0  0  0  0  0  0  0  0  0  0  0
   -2.1879    3.4017    1.7050 C   0  0  0  0  0  0  0  0  0  0  0  0
   -3.2085    1.8948    3.6787 H   0  0  0  0  0  0  0  0  0  0  0  0
   -3.0007    1.4665    1.1994 H   0  0  0  0  0  0  0  0  0  0  0  0
   -1.3888    3.8390    2.3147 H   0  0  0  0  0  0  0  0  0  0  0  0
   -2.0284    3.7240    0.6708 H   0  0  0  0  0  0  0  0  0  0  0  0
   -3.1380    3.8230    2.0508 H   0  0  0  0  0  0  0  0  0  0  0  0
   -0.7390    1.2565   -0.0101 N   0  0  0  0  0  0  0  0  0  0  0  0
    0.4383    0.7557   -0.6738 C   0  0  2  0  0  0  0  0  0  0  0  0
    0.3633    1.2081   -2.1277 C   0  0  0  0  0  0  0  0  0  0  0  0
   -0.5758    0.9255   -2.8688 O   0  0  0  0  0  0  0  0  0  0  0  0
    0.5414   -0.7718   -0.5956 C   0  0  0  0  0  0  0  0  0  0  0  0
    0.7029   -1.2743    0.8183 C   0  0  0  0  0  0  0  0  0  0  0  0
    1.8922   -1.1615    1.4972 N   0  3  0  0  0  0  0  0  0  0  0  0
   -0.1762   -1.8889    1.6646 C   0  0  0  0  0  0  0  0  0  0  0  0
    1.7592   -1.6862    2.7196 C   0  0  0  0  0  0  0  0  0  0  0  0
    0.5041   -2.1327    2.8332 N   0  0  0  0  0  0  0  0  0  0  0  0
   -1.5221    1.5532   -0.5874 H   0  0  0  0  0  0  0  0  0  0  0  0
    1.2973    1.2374   -0.1919 H   0  0  0  0  0  0  0  0  0  0  0  0
    1.3774   -1.1287   -1.2123 H   0  0  0  0  0  0  0  0  0  0  0  0
   -0.3540   -1.2392   -1.0264 H   0  0  0  0  0  0  0  0  0  0  0  0
    2.7442   -0.7457    1.1308 H   0  0  0  0  0  0  0  0  0  0  0  0
   -1.2011   -2.1987    1.6157 H   0  0  0  0  0  0  0  0  0  0  0  0
    2.5248   -1.7401    3.4755 H   0  0  0  0  0  0  0  0  0  0  0  0
    0.1163   -2.5829    3.6574 H   0  0  0  0  0  0  0  0  0  0  0  0
    1.4439    2.0045   -2.4805 N   0  0  0  0  0  0  0  0  0  0  0  0
    1.6066    2.5849   -3.7940 C   0  0  2  0  0  0  0  0  0  0  0  0
    1.4189    1.4785   -4.8236 C   0  0  0  0  0  0  0  0  0  0  0  0
    1.5709    0.2868   -4.5629 O   0  0  0  0  0  0  0  0  0  0  0  0
    2.9702    3.2413   -3.9439 C   0  0  0  0  0  0  0  0  0  0  0  0
    2.1562    2.1887   -1.7802 H   0  0  0  0  0  0  0  0  0  0  0  0
    0.8133    3.3313   -3.9105 H   0  0  0  0  0  0  0  0  0  0  0  0
    3.7778    2.5089   -3.8303 H   0  0  0  0  0  0  0  0  0  0  0  0
    3.0810    3.7053   -4.9295 H   0  0  0  0  0  0  0  0  0  0  0  0
    3.1152    4.0165   -3.1838 H   0  0  0  0  0  0  0  0  0  0  0  0
    1.1040    1.9811   -6.0783 N   0  0  0  0  0  0  0  0  0  0  0  0
    0.8892    1.1321   -7.2268 C   0  0  0  0  0  0  0  0  0  0  0  0
    0.9793    2.9819   -6.1988 H   0  0  0  0  0  0  0  0  0  0  0  0
    1.8349    1.0100   -7.7752 H   0  0  0  0  0  0  0  0  0  0  0  0
    0.5295    0.1477   -6.8928 H   0  0  0  0  0  0  0  0  0  0  0  0
    0.1392    1.5918   -7.8873 H   0  0  0  0  0  0  0  0  0  0  0  0
 22 24  2  0  0  0  0
 24 26  1  0  0  0  0
 25 26  1  0  0  0  0
 23 25  2  0  0  0  0
 21 22  1  0  0  0  0
 22 23  1  0  0  0  0
  1  3  1  0  0  0  0
  1  7  1  0  0  0  0
  1  2  2  0  0  0  0
 36 37  1  0  0  0  0
 37 45  1  0  0  0  0
 37 38  2  0  0  0  0
  8  9  1  0  0  0  0
  9 17  1  0  0  0  0
  9 10  2  0  0  0  0
 18 19  1  0  0  0  0
 19 35  1  0  0  0  0
 19 20  2  0  0  0  0
 36 39  1  0  0  0  0
  8 11  1  0  0  0  0
 45 46  1  0  0  0  0
 18 21  1  0  0  0  0
 35 36  1  0  0  0  0
  7  8  1  0  0  0  0
 17 18  1  0  0  0  0
 24 32  1  0  0  0  0
 25 33  1  0  0  0  0
  3  4  1  0  0  0  0
  3  5  1  0  0  0  0
  3  6  1  0  0  0  0
 39 42  1  0  0  0  0
 39 43  1  0  0  0  0
 39 44  1  0  0  0  0
 11 14  1  0  0  0  0
 11 15  1  0  0  0  0
 11 16  1  0  0  0  0
 46 48  1  0  0  0  0
 46 49  1  0  0  0  0
 46 50  1  0  0  0  0
 21 29  1  0  0  0  0
 21 30  1  0  0  0  0
 36 41  1  0  0  0  0
  8 13  1  0  0  0  0
 18 28  1  0  0  0  0
 26 34  1  0  0  0  0
 23 31  1  0  0  0  0
 45 47  1  0  0  0  0
  7 12  1  0  0  0  0
 35 40  1  0  0  0  0
 17 27  1  0  0  0  0
M  CHG  1  23   1
M  END
$$$$

  -OEChem-05262214473D

 50 50  0     1  0  0  0  0  0999 V2000
   -1.6938    0.4865    3.8080 C   0  0  0  0  0  0  0  0  0  0  0  0
   -0.7464   -0.1282    3.3323 O   0  0  0  0  0  0  0  0  0  0  0  0
   -2.1257    0.2041    5.2087 C   0  0  0  0  0  0  0  0  0  0  0  0
   -2.8853   -0.5922    5.2621 H   0  0  0  0  0  0  0  0  0  0  0  0
   -1.2944   -0.1435    5.8430 H   0  0  0  0  0  0  0  0  0  0  0  0
   -2.5637    1.0590    5.7483 H   0  0  0  0  0  0  0  0  0  0  0  0
   -2.4435    1.4589    3.1669 N   0  0  0  0  0  0  0  0  0  0  0  0
   -2.1966    1.8850    1.8145 C   0  0  2  0  0  0  0  0  0  0  0  0
   -0.8617    1.2996    1.3733 C   0  0  0  0  0  0  0  0  0  0  0  0
    0.0104    0.9468    2.1646 O   0  0  0  0  0  0  0  0  0  0  0  0
   -2.1879    3.4017    1.7050 C   0  0  0  0  0  0  0  0  0  0  0  0
   -3.2085    1.8948    3.6787 H   0  0  0  0  0  0  0  0  0  0  0  0
   -3.0007    1.4665    1.1994 H   0  0  0  0  0  0  0  0  0  0  0  0
   -1.3888    3.8390    2.3147 H   0  0  0  0  0  0  0  0  0  0  0  0
   -2.0284    3.7240    0.6708 H   0  0  0  0  0  0  0  0  0  0  0  0
   -3.1380    3.8230    2.0508 H   0  0  0  0  0  0  0  0  0  0  0  0
   -0.7390    1.2565   -0.0101 N   0  0  0  0  0  0  0  0  0  0  0  0
    0.4383    0.7557   -0.6738 C   0  0  2  0  0  0  0  0  0  0  0  0
    0.3633    1.2081   -2.1277 C   0  0  0  0  0  0  0  0  0  0  0  0
   -0.6716    1.1642   -2.7895 O   0  0  0  0  0  0  0  0  0  0  0  0
    0.5414   -0.7718   -0.5956 C   0  0  0  0  0  0  0  0  0  0  0  0
    0.7029   -1.2743    0.8183 C   0  0  0  0  0  0  0  0  0  0  0  0
    1.8922   -1.1615    1.4972 N   0  3  0  0  0  0  0  0  0  0  0  0
   -0.1762   -1.8889    1.6646 C   0  0  0  0  0  0  0  0  0  0  0  0
    1.7592   -1.6862    2.7196 C   0  0  0  0  0  0  0  0  0  0  0  0
    0.5041   -2.1327    2.8332 N   0  0  0  0  0  0  0  0  0  0  0  0
   -1.5221    1.5532   -0.5874 H   0  0  0  0  0  0  0  0  0  0  0  0
    1.2973    1.2374   -0.1919 H   0  0  0  0  0  0  0  0  0  0  0  0
    1.3774   -1.1287   -1.2123 H   0  0  0  0  0  0  0  0  0  0  0  0
   -0.3540   -1.2392   -1.0264 H   0  0  0  0  0  0  0  0  0  0  0  0
    2.7442   -0.7457    1.1308 H   0  0  0  0  0  0  0  0  0  0  0  0
   -1.2011   -2.1987    1.6157 H   0  0  0  0  0  0  0  0  0  0  0  0
    2.5248   -1.7401    3.4755 H   0  0  0  0  0  0  0  0  0  0  0  0
    0.1163   -2.5829    3.6574 H   0  0  0  0  0  0  0  0  0  0  0  0
    1.5757    1.7114   -2.5785 N   0  0  0  0  0  0  0  0  0  0  0  0
    1.7728    2.2295   -3.9132 C   0  0  2  0  0  0  0  0  0  0  0  0
    1.2383    1.2006   -4.9007 C   0  0  0  0  0  0  0  0  0  0  0  0
    1.1120    0.0092   -4.6256 O   0  0  0  0  0  0  0  0  0  0  0  0
    3.2400    2.5277   -4.1799 C   0  0  0  0  0  0  0  0  0  0  0  0
    2.3641    1.7159   -1.9380 H   0  0  0  0  0  0  0  0  0  0  0  0
    1.1812    3.1485   -3.9863 H   0  0  0  0  0  0  0  0  0  0  0  0
    3.8487    1.6187   -4.1110 H   0  0  0  0  0  0  0  0  0  0  0  0
    3.3841    2.9468   -5.1812 H   0  0  0  0  0  0  0  0  0  0  0  0
    3.6307    3.2453   -3.4504 H   0  0  0  0  0  0  0  0  0  0  0  0
    0.9595    1.7616   -6.1392 N   0  0  0  0  0  0  0  0  0  0  0  0
    0.4528    0.9886   -7.2490 C   0  0  0  0  0  0  0  0  0  0  0  0
    1.0761    2.7618   -6.2723 H   0  0  0  0  0  0  0  0  0  0  0  0
    1.2933    0.6347   -7.8641 H   0  0  0  0  0  0  0  0  0  0  0  0
   -0.1110    0.1248   -6.8669 H   0  0  0  0  0  0  0  0  0  0  0  0
   -0.2103    1.6174   -7.8613 H   0  0  0  0  0  0  0  0  0  0  0  0
 22 24  2  0  0  0  0
 24 26  1  0  0  0  0
 25 26  1  0  0  0  0
 23 25  2  0  0  0  0
 21 22  1  0  0  0  0
 22 23  1  0  0  0  0
  1  3  1  0  0  0  0
  1  7  1  0  0  0  0
  1  2  2  0  0  0  0
 36 37  1  0  0  0  0
 37 45  1  0  0  0  0
 37 38  2  0  0  0  0
  8  9  1  0  0  0  0
  9 17  1  0  0  0  0
  9 10  2  0  0  0  0
 18 19  1  0  0  0  0
 19 35  1  0  0  0  0
 19 20  2  0  0  0  0
 36 39  1  0  0  0  0
  8 11  1  0  0  0  0
 45 46  1  0  0  0  0
 18 21  1  0  0  0  0
 35 36  1  0  0  0  0
  7  8  1  0  0  0  0
 17 18  1  0  0  0  0
 24 32  1  0  0  0  0
 25 33  1  0  0  0  0
  3  4  1  0  0  0  0
  3  5  1  0  0  0  0
  3  6  1  0  0  0  0
 39 42  1  0  0  0  0
 39 43  1  0  0  0  0
 39 44  1  0  0  0  0
 11 14  1  0  0  0  0
 11 15  1  0  0  0  0
 11 16  1  0  0  0  0
 46 48  1  0  0  0  0
 46 49  1  0  0  0  0
 46 50  1  0  0  0  0
 21 29  1  0  0  0  0
 21 30  1  0  0  0  0
 36 41  1  0  0  0  0
  8 13  1  0  0  0  0
 18 28  1  0  0  0  0
 26 34  1  0  0  0  0
 23 31  1  0  0  0  0
 45 47  1  0  0  0  0
  7 12  1  0  0  0  0
 35 40  1  0  0  0  0
 17 27  1  0  0  0  0
M  CHG  1  23   1
M  END
$$$$

  -OEChem-05262214473D

 50 50  0     1  0  0  0  0  0999 V2000
   -1.6938    0.4865    3.8080 C   0  0  0  0  0  0  0  0  0  0  0  0
   -0.7464   -0.1282    3.3323 O   0  0  0  0  0  0  0  0  0  0  0  0
   -2.1257    0.2041    5.2087 C   0  0  0  0  0  0  0  0  0  0  0  0
   -2.8853   -0.5922    5.2621 H   0  0  0  0  0  0  0  0  0  0  0  0
   -1.2944   -0.1435    5.8430 H   0  0  0  0  0  0  0  0  0  0  0  0
   -2.5637    1.0590    5.7483 H   0  0  0  0  0  0  0  0  0  0  0  0
   -2.4435    1.4589    3.1669 N   0  0  0  0  0  0  0  0  0  0  0  0
   -2.1966    1.8850    1.8145 C   0  0  2  0  0  0  0  0  0  0  0  0
   -0.8617    1.2996    1.3733 C   0  0  0  0  0  0  0  0  0  0  0  0
    0.0104    0.9468    2.1646 O   0  0  0  0  0  0  0  0  0  0  0  0
   -2.1879    3.4017    1.7050 C   0  0  0  0  0  0  0  0  0  0  0  0
   -3.2085    1.8948    3.6787 H   0  0  0  0  0  0  0  0  0  0  0  0
   -3.0007    1.4665    1.1994 H   0  0  0  0  0  0  0  0  0  0  0  0
   -1.3888    3.8390    2.3147 H   0  0  0  0  0  0  0  0  0  0  0  0
   -2.0284    3.7240    0.6708 H   0  0  0  0  0  0  0  0  0  0  0  0
   -3.1380    3.8230    2.0508 H   0  0  0  0  0  0  0  0  0  0  0  0
   -0.7390    1.2565   -0.0101 N   0  0  0  0  0  0  0  0  0  0  0  0
    0.4383    0.7557   -0.6738 C   0  0  2  0  0  0  0  0  0  0  0  0
    0.3633    1.2081   -2.1277 C   0  0  0  0  0  0  0  0  0  0  0  0
   -0.6991    1.4195   -2.7087 O   0  0  0  0  0  0  0  0  0  0  0  0
    0.5414   -0.7718   -0.5956 C   0  0  0  0  0  0  0  0  0  0  0  0
    0.7029   -1.2743    0.8183 C   0  0  0  0  0  0  0  0  0  0  0  0
    1.8922   -1.1615    1.4972 N   0  3  0  0  0  0  0  0  0  0  0  0
   -0.1762   -1.8889    1.6646 C   0  0  0  0  0  0  0  0  0  0  0  0
    1.7592   -1.6862    2.7196 C   0  0  0  0  0  0  0  0  0  0  0  0
    0.5041   -2.1327    2.8332 N   0  0  0  0  0  0  0  0  0  0  0  0
   -1.5221    1.5532   -0.5874 H   0  0  0  0  0  0  0  0  0  0  0  0
    1.2973    1.2374   -0.1919 H   0  0  0  0  0  0  0  0  0  0  0  0
    1.3774   -1.1287   -1.2123 H   0  0  0  0  0  0  0  0  0  0  0  0
   -0.3540   -1.2392   -1.0264 H   0  0  0  0  0  0  0  0  0  0  0  0
    2.7442   -0.7457    1.1308 H   0  0  0  0  0  0  0  0  0  0  0  0
   -1.2011   -2.1987    1.6157 H   0  0  0  0  0  0  0  0  0  0  0  0
    2.5248   -1.7401    3.4755 H   0  0  0  0  0  0  0  0  0  0  0  0
    0.1163   -2.5829    3.6574 H   0  0  0  0  0  0  0  0  0  0  0  0
    1.6231    1.3945   -2.6795 N   0  0  0  0  0  0  0  0  0  0  0  0
    1.8365    1.8436   -4.0366 C   0  0  2  0  0  0  0  0  0  0  0  0
    0.9892    0.9758   -4.9578 C   0  0  0  0  0  0  0  0  0  0  0  0
    0.5953   -0.1464   -4.6474 O   0  0  0  0  0  0  0  0  0  0  0  0
    3.3064    1.7688   -4.4194 C   0  0  0  0  0  0  0  0  0  0  0  0
    2.4360    1.2058   -2.1005 H   0  0  0  0  0  0  0  0  0  0  0  0
    1.4857    2.8802   -4.0856 H   0  0  0  0  0  0  0  0  0  0  0  0
    3.6758    0.7378   -4.3762 H   0  0  0  0  0  0  0  0  0  0  0  0
    3.4703    2.1362   -5.4379 H   0  0  0  0  0  0  0  0  0  0  0  0
    3.9178    2.3698   -3.7376 H   0  0  0  0  0  0  0  0  0  0  0  0
    0.7610    1.5845   -6.1840 N   0  0  0  0  0  0  0  0  0  0  0  0
   -0.0059    0.9574   -7.2350 C   0  0  0  0  0  0  0  0  0  0  0  0
    1.1096    2.5244   -6.3479 H   0  0  0  0  0  0  0  0  0  0  0  0
    0.6706    0.4047   -7.9035 H   0  0  0  0  0  0  0  0  0  0  0  0
   -0.7333    0.2610   -6.7924 H   0  0  0  0  0  0  0  0  0  0  0  0
   -0.5395    1.7288   -7.8096 H   0  0  0  0  0  0  0  0  0  0  0  0
 22 24  2  0  0  0  0
 24 26  1  0  0  0  0
 25 26  1  0  0  0  0
 23 25  2  0  0  0  0
 21 22  1  0  0  0  0
 22 23  1  0  0  0  0
  1  3  1  0  0  0  0
  1  7  1  0  0  0  0
  1  2  2  0  0  0  0
 36 37  1  0  0  0  0
 37 45  1  0  0  0  0
 37 38  2  0  0  0  0
  8  9  1  0  0  0  0
  9 17  1  0  0  0  0
  9 10  2  0  0  0  0
 18 19  1  0  0  0  0
 19 35  1  0  0  0  0
 19 20  2  0  0  0  0
 36 39  1  0  0  0  0
  8 11  1  0  0  0  0
 45 46  1  0  0  0  0
 18 21  1  0  0  0  0
 35 36  1  0  0  0  0
  7  8  1  0  0  0  0
 17 18  1  0  0  0  0
 24 32  1  0  0  0  0
 25 33  1  0  0  0  0
  3  4  1  0  0  0  0
  3  5  1  0  0  0  0
  3  6  1  0  0  0  0
 39 42  1  0  0  0  0
 39 43  1  0  0  0  0
 39 44  1  0  0  0  0
 11 14  1  0  0  0  0
 11 15  1  0  0  0  0
 11 16  1  0  0  0  0
 46 48  1  0  0  0  0
 46 49  1  0  0  0  0
 46 50  1  0  0  0  0
 21 29  1  0  0  0  0
 21 30  1  0  0  0  0
 36 41  1  0  0  0  0
  8 13  1  0  0  0  0
 18 28  1  0  0  0  0
 26 34  1  0  0  0  0
 23 31  1  0  0  0  0
 45 47  1  0  0  0  0
  7 12  1  0  0  0  0
 35 40  1  0  0  0  0
 17 27  1  0  0  0  0
M  CHG  1  23   1
M  END
$$$$

  -OEChem-05262214473D

 50 50  0     1  0  0  0  0  0999 V2000
   -1.6938    0.4865    3.8080 C   0  0  0  0  0  0  0  0  0  0  0  0
   -0.7464   -0.1282    3.3323 O   0  0  0  0  0  0  0  0  0  0  0  0
   -2.1257    0.2041    5.2087 C   0  0  0  0  0  0  0  0  0  0  0  0
   -2.8853   -0.5922    5.2621 H   0  0  0  0  0  0  0  0  0  0  0  0
   -1.2944   -0.1435    5.8430 H   0  0  0  0  0  0  0  0  0  0  0  0
   -2.5637    1.0590    5.7483 H   0  0  0  0  0  0  0  0  0  0  0  0
   -2.4435    1.4589    3.1669 N   0  0  0  0  0  0  0  0  0  0  0  0
   -2.1966    1.8850    1.8145 C   0  0  2  0  0  0  0  0  0  0  0  0
   -0.8617    1.2996    1.3733 C   0  0  0  0  0  0  0  0  0  0  0  0
    0.0104    0.9468    2.1646 O   0  0  0  0  0  0  0  0  0  0  0  0
   -2.1879    3.4017    1.7050 C   0  0  0  0  0  0  0  0  0  0  0  0
   -3.2085    1.8948    3.6787 H   0  0  0  0  0  0  0  0  0  0  0  0
   -3.0007    1.4665    1.1994 H   0  0  0  0  0  0  0  0  0  0  0  0
   -1.3888    3.8390    2.3147 H   0  0  0  0  0  0  0  0  0  0  0  0
   -2.0284    3.7240    0.6708 H   0  0  0  0  0  0  0  0  0  0  0  0
   -3.1380    3.8230    2.0508 H   0  0  0  0  0  0  0  0  0  0  0  0
   -0.7390    1.2565   -0.0101 N   0  0  0  0  0  0  0  0  0  0  0  0
    0.4383    0.7557   -0.6738 C   0  0  2  0  0  0  0  0  0  0  0  0
    0.3633    1.2081   -2.1277 C   0  0  0  0  0  0  0  0  0  0  0  0
   -0.6565    1.6739   -2.6317 O   0  0  0  0  0  0  0  0  0  0  0  0
    0.5414   -0.7718   -0.5956 C   0  0  0  0  0  0  0  0  0  0  0  0
    0.7029   -1.2743    0.8183 C   0  0  0  0  0  0  0  0  0  0  0  0
    1.8922   -1.1615    1.4972 N   0  3  0  0  0  0  0  0  0  0  0  0
   -0.1762   -1.8889    1.6646 C   0  0  0  0  0  0  0  0  0  0  0  0
    1.7592   -1.6862    2.7196 C   0  0  0  0  0  0  0  0  0  0  0  0
    0.5041   -2.1327    2.8332 N   0  0  0  0  0  0  0  0  0  0  0  0
   -1.5221    1.5532   -0.5874 H   0  0  0  0  0  0  0  0  0  0  0  0
    1.2973    1.2374   -0.1919 H   0  0  0  0  0  0  0  0  0  0  0  0
    1.3774   -1.1287   -1.2123 H   0  0  0  0  0  0  0  0  0  0  0  0
   -0.3540   -1.2392   -1.0264 H   0  0  0  0  0  0  0  0  0  0  0  0
    2.7442   -0.7457    1.1308 H   0  0  0  0  0  0  0  0  0  0  0  0
   -1.2011   -2.1987    1.6157 H   0  0  0  0  0  0  0  0  0  0  0  0
    2.5248   -1.7401    3.4755 H   0  0  0  0  0  0  0  0  0  0  0  0
    0.1163   -2.5829    3.6574 H   0  0  0  0  0  0  0  0  0  0  0  0
    1.5829    1.0754   -2.7767 N   0  0  0  0  0  0  0  0  0  0  0  0
    1.7933    1.4535   -4.1557 C   0  0  2  0  0  0  0  0  0  0  0  0
    0.6888    0.8195   -4.9910 C   0  0  0  0  0  0  0  0  0  0  0  0
    0.0562   -0.1696   -4.6267 O   0  0  0  0  0  0  0  0  0  0  0  0
    3.1648    1.0164   -4.6463 C   0  0  0  0  0  0  0  0  0  0  0  0
    2.3671    0.6933   -2.2564 H   0  0  0  0  0  0  0  0  0  0  0  0
    1.7059    2.5445   -4.2014 H   0  0  0  0  0  0  0  0  0  0  0  0
    3.2711   -0.0739   -4.6079 H   0  0  0  0  0  0  0  0  0  0  0  0
    3.3337    1.3286   -5.6821 H   0  0  0  0  0  0  0  0  0  0  0  0
    3.9569    1.4496   -4.0260 H   0  0  0  0  0  0  0  0  0  0  0  0
    0.5222    1.4619   -6.2099 N   0  0  0  0  0  0  0  0  0  0  0  0
   -0.4556    1.0407   -7.1859 C   0  0  0  0  0  0  0  0  0  0  0  0
    1.0776    2.2858   -6.4205 H   0  0  0  0  0  0  0  0  0  0  0  0
    0.0094    0.3358   -7.8908 H   0  0  0  0  0  0  0  0  0  0  0  0
   -1.2951    0.5472   -6.6743 H   0  0  0  0  0  0  0  0  0  0  0  0
   -0.8261    1.9183   -7.7359 H   0  0  0  0  0  0  0  0  0  0  0  0
 22 24  2  0  0  0  0
 24 26  1  0  0  0  0
 25 26  1  0  0  0  0
 23 25  2  0  0  0  0
 21 22  1  0  0  0  0
 22 23  1  0  0  0  0
  1  3  1  0  0  0  0
  1  7  1  0  0  0  0
  1  2  2  0  0  0  0
 36 37  1  0  0  0  0
 37 45  1  0  0  0  0
 37 38  2  0  0  0  0
  8  9  1  0  0  0  0
  9 17  1  0  0  0  0
  9 10  2  0  0  0  0
 18 19  1  0  0  0  0
 19 35  1  0  0  0  0
 19 20  2  0  0  0  0
 36 39  1  0  0  0  0
  8 11  1  0  0  0  0
 45 46  1  0  0  0  0
 18 21  1  0  0  0  0
 35 36  1  0  0  0  0
  7  8  1  0  0  0  0
 17 18  1  0  0  0  0
 24 32  1  0  0  0  0
 25 33  1  0  0  0  0
  3  4  1  0  0  0  0
  3  5  1  0  0  0  0
  3  6  1  0  0  0  0
 39 42  1  0  0  0  0
 39 43  1  0  0  0  0
 39 44  1  0  0  0  0
 11 14  1  0  0  0  0
 11 15  1  0  0  0  0
 11 16  1  0  0  0  0
 46 48  1  0  0  0  0
 46 49  1  0  0  0  0
 46 50  1  0  0  0  0
 21 29  1  0  0  0  0
 21 30  1  0  0  0  0
 36 41  1  0  0  0  0
  8 13  1  0  0  0  0
 18 28  1  0  0  0  0
 26 34  1  0  0  0  0
 23 31  1  0  0  0  0
 45 47  1  0  0  0  0
  7 12  1  0  0  0  0
 35 40  1  0  0  0  0
 17 27  1  0  0  0  0
M  CHG  1  23   1
M  END
$$$$

  -OEChem-05262214473D

 50 50  0     1  0  0  0  0  0999 V2000
   -1.6938    0.4865    3.8080 C   0  0  0  0  0  0  0  0  0  0  0  0
   -0.7464   -0.1282    3.3323 O   0  0  0  0  0  0  0  0  0  0  0  0
   -2.1257    0.2041    5.2087 C   0  0  0  0  0  0  0  0  0  0  0  0
   -2.8853   -0.5922    5.2621 H   0  0  0  0  0  0  0  0  0  0  0  0
   -1.2944   -0.1435    5.8430 H   0  0  0  0  0  0  0  0  0  0  0  0
   -2.5637    1.0590    5.7483 H   0  0  0  0  0  0  0  0  0  0  0  0
   -2.4435    1.4589    3.1669 N   0  0  0  0  0  0  0  0  0  0  0  0
   -2.1966    1.8850    1.8145 C   0  0  2  0  0  0  0  0  0  0  0  0
   -0.8617    1.2996    1.3733 C   0  0  0  0  0  0  0  0  0  0  0  0
    0.0104    0.9468    2.1646 O   0  0  0  0  0  0  0  0  0  0  0  0
   -2.1879    3.4017    1.7050 C   0  0  0  0  0  0  0  0  0  0  0  0
   -3.2085    1.8948    3.6787 H   0  0  0  0  0  0  0  0  0  0  0  0
   -3.0007    1.4665    1.1994 H   0  0  0  0  0  0  0  0  0  0  0  0
   -1.3888    3.8390    2.3147 H   0  0  0  0  0  0  0  0  0  0  0  0
   -2.0284    3.7240    0.6708 H   0  0  0  0  0  0  0  0  0  0  0  0
   -3.1380    3.8230    2.0508 H   0  0  0  0  0  0  0  0  0  0  0  0
   -0.7390    1.2565   -0.0101 N   0  0  0  0  0  0  0  0  0  0  0  0
    0.4383    0.7557   -0.6738 C   0  0  2  0  0  0  0  0  0  0  0  0
    0.5630    1.5037   -1.9963 C   0  0  0  0  0  0  0  0  0  0  0  0
   -0.2148    2.3917   -2.3388 O   0  0  0  0  0  0  0  0  0  0  0  0
    0.3649   -0.7555   -0.9211 C   0  0  0  0  0  0  0  0  0  0  0  0
    0.3243   -1.5549    0.3584 C   0  0  0  0  0  0  0  0  0  0  0  0
    1.4428   -1.7385    1.1352 N   0  3  0  0  0  0  0  0  0  0  0  0
   -0.6991   -2.2121    0.9809 C   0  0  0  0  0  0  0  0  0  0  0  0
    1.1282   -2.4821    2.2008 C   0  0  0  0  0  0  0  0  0  0  0  0
   -0.1732   -2.7769    2.1177 N   0  0  0  0  0  0  0  0  0  0  0  0
   -1.5221    1.5532   -0.5874 H   0  0  0  0  0  0  0  0  0  0  0  0
    1.2908    1.0130   -0.0342 H   0  0  0  0  0  0  0  0  0  0  0  0
    1.2158   -1.0824   -1.5341 H   0  0  0  0  0  0  0  0  0  0  0  0
   -0.5272   -1.0047   -1.5106 H   0  0  0  0  0  0  0  0  0  0  0  0
    2.3682   -1.3695    0.9346 H   0  0  0  0  0  0  0  0  0  0  0  0
   -1.7413   -2.3705    0.7871 H   0  0  0  0  0  0  0  0  0  0  0  0
    1.8015   -2.7888    2.9837 H   0  0  0  0  0  0  0  0  0  0  0  0
   -0.6907   -3.3335    2.7923 H   0  0  0  0  0  0  0  0  0  0  0  0
    1.6735    1.0949   -2.7217 N   0  0  0  0  0  0  0  0  0  0  0  0
    2.0373    1.6596   -4.0014 C   0  0  2  0  0  0  0  0  0  0  0  0
    0.8013    1.6436   -4.8910 C   0  0  0  0  0  0  0  0  0  0  0  0
   -0.1477    0.8842   -4.7071 O   0  0  0  0  0  0  0  0  0  0  0  0
    3.1788    0.8863   -4.6430 C   0  0  0  0  0  0  0  0  0  0  0  0
    2.2600    0.3620   -2.3336 H   0  0  0  0  0  0  0  0  0  0  0  0
    2.3406    2.6956   -3.8152 H   0  0  0  0  0  0  0  0  0  0  0  0
    2.8936   -0.1542   -4.8371 H   0  0  0  0  0  0  0  0  0  0  0  0
    3.4723    1.3323   -5.5990 H   0  0  0  0  0  0  0  0  0  0  0  0
    4.0572    0.8735   -3.9887 H   0  0  0  0  0  0  0  0  0  0  0  0
    0.9013    2.5470   -5.9398 N   0  0  0  0  0  0  0  0  0  0  0  0
   -0.1378    2.7110   -6.9294 C   0  0  0  0  0  0  0  0  0  0  0  0
    1.7162    3.1501   -6.0038 H   0  0  0  0  0  0  0  0  0  0  0  0
    0.0665    2.0551   -7.7885 H   0  0  0  0  0  0  0  0  0  0  0  0
   -1.1096    2.4449   -6.4880 H   0  0  0  0  0  0  0  0  0  0  0  0
   -0.1621    3.7582   -7.2653 H   0  0  0  0  0  0  0  0  0  0  0  0
 22 24  2  0  0  0  0
 24 26  1  0  0  0  0
 25 26  1  0  0  0  0
 23 25  2  0  0  0  0
 21 22  1  0  0  0  0
 22 23  1  0  0  0  0
  1  3  1  0  0  0  0
  1  7  1  0  0  0  0
  1  2  2  0  0  0  0
 36 37  1  0  0  0  0
 37 45  1  0  0  0  0
 37 38  2  0  0  0  0
  8  9  1  0  0  0  0
  9 17  1  0  0  0  0
  9 10  2  0  0  0  0
 18 19  1  0  0  0  0
 19 35  1  0  0  0  0
 19 20  2  0  0  0  0
 36 39  1  0  0  0  0
  8 11  1  0  0  0  0
 45 46  1  0  0  0  0
 18 21  1  0  0  0  0
 35 36  1  0  0  0  0
  7  8  1  0  0  0  0
 17 18  1  0  0  0  0
 24 32  1  0  0  0  0
 25 33  1  0  0  0  0
  3  4  1  0  0  0  0
  3  5  1  0  0  0  0
  3  6  1  0  0  0  0
 39 42  1  0  0  0  0
 39 43  1  0  0  0  0
 39 44  1  0  0  0  0
 11 14  1  0  0  0  0
 11 15  1  0  0  0  0
 11 16  1  0  0  0  0
 46 48  1  0  0  0  0
 46 49  1  0  0  0  0
 46 50  1  0  0  0  0
 21 29  1  0  0  0  0
 21 30  1  0  0  0  0
 36 41  1  0  0  0  0
  8 13  1  0  0  0  0
 18 28  1  0  0  0  0
 26 34  1  0  0  0  0
 23 31  1  0  0  0  0
 45 47  1  0  0  0  0
  7 12  1  0  0  0  0
 35 40  1  0  0  0  0
 17 27  1  0  0  0  0
M  CHG  1  23   1
M  END
$$$$

  -OEChem-05262214473D

 50 50  0     1  0  0  0  0  0999 V2000
   -1.6938    0.4865    3.8080 C   0  0  0  0  0  0  0  0  0  0  0  0
   -0.7464   -0.1282    3.3323 O   0  0  0  0  0  0  0  0  0  0  0  0
   -2.1257    0.2041    5.2087 C   0  0  0  0  0  0  0  0  0  0  0  0
   -2.8853   -0.5922    5.2621 H   0  0  0  0  0  0  0  0  0  0  0  0
   -1.2944   -0.1435    5.8430 H   0  0  0  0  0  0  0  0  0  0  0  0
   -2.5637    1.0590    5.7483 H   0  0  0  0  0  0  0  0  0  0  0  0
   -2.4435    1.4589    3.1669 N   0  0  0  0  0  0  0  0  0  0  0  0
   -2.1966    1.8850    1.8145 C   0  0  2  0  0  0  0  0  0  0  0  0
   -0.8617    1.2996    1.3733 C   0  0  0  0  0  0  0  0  0  0  0  0
    0.0104    0.9468    2.1646 O   0  0  0  0  0  0  0  0  0  0  0  0
   -2.1879    3.4017    1.7050 C   0  0  0  0  0  0  0  0  0  0  0  0
   -3.2085    1.8948    3.6787 H   0  0  0  0  0  0  0  0  0  0  0  0
   -3.0007    1.4665    1.1994 H   0  0  0  0  0  0  0  0  0  0  0  0
   -1.3888    3.8390    2.3147 H   0  0  0  0  0  0  0  0  0  0  0  0
   -2.0284    3.7240    0.6708 H   0  0  0  0  0  0  0  0  0  0  0  0
   -3.1380    3.8230    2.0508 H   0  0  0  0  0  0  0  0  0  0  0  0
   -0.7390    1.2565   -0.0101 N   0  0  0  0  0  0  0  0  0  0  0  0
    0.4383    0.7557   -0.6738 C   0  0  2  0  0  0  0  0  0  0  0  0
    0.5630    1.5037   -1.9963 C   0  0  0  0  0  0  0  0  0  0  0  0
   -0.0306    2.5545   -2.2293 O   0  0  0  0  0  0  0  0  0  0  0  0
    0.3649   -0.7555   -0.9211 C   0  0  0  0  0  0  0  0  0  0  0  0
    0.3243   -1.5549    0.3584 C   0  0  0  0  0  0  0  0  0  0  0  0
    1.4428   -1.7385    1.1352 N   0  3  0  0  0  0  0  0  0  0  0  0
   -0.6991   -2.2121    0.9809 C   0  0  0  0  0  0  0  0  0  0  0  0
    1.1282   -2.4821    2.2008 C   0  0  0  0  0  0  0  0  0  0  0  0
   -0.1732   -2.7769    2.1177 N   0  0  0  0  0  0  0  0  0  0  0  0
   -1.5221    1.5532   -0.5874 H   0  0  0  0  0  0  0  0  0  0  0  0
    1.2908    1.0130   -0.0342 H   0  0  0  0  0  0  0  0  0  0  0  0
    1.2158   -1.0824   -1.5341 H   0  0  0  0  0  0  0  0  0  0  0  0
   -0.5272   -1.0047   -1.5106 H   0  0  0  0  0  0  0  0  0  0  0  0
    2.3682   -1.3695    0.9346 H   0  0  0  0  0  0  0  0  0  0  0  0
   -1.7413   -2.3705    0.7871 H   0  0  0  0  0  0  0  0  0  0  0  0
    1.8015   -2.7888    2.9837 H   0  0  0  0  0  0  0  0  0  0  0  0
   -0.6907   -3.3335    2.7923 H   0  0  0  0  0  0  0  0  0  0  0  0
    1.4532    0.8835   -2.8620 N   0  0  0  0  0  0  0  0  0  0  0  0
    1.7729    1.3981   -4.1742 C   0  0  2  0  0  0  0  0  0  0  0  0
    0.4642    1.6901   -4.8965 C   0  0  0  0  0  0  0  0  0  0  0  0
   -0.6013    1.1556   -4.5964 O   0  0  0  0  0  0  0  0  0  0  0  0
    2.6211    0.4129   -4.9633 C   0  0  0  0  0  0  0  0  0  0  0  0
    1.9027    0.0249   -2.5580 H   0  0  0  0  0  0  0  0  0  0  0  0
    2.3231    2.3330   -4.0219 H   0  0  0  0  0  0  0  0  0  0  0  0
    2.0864   -0.5300   -5.1258 H   0  0  0  0  0  0  0  0  0  0  0  0
    2.8863    0.8161   -5.9462 H   0  0  0  0  0  0  0  0  0  0  0  0
    3.5484    0.1812   -4.4283 H   0  0  0  0  0  0  0  0  0  0  0  0
    0.6344    2.5852   -5.9433 N   0  0  0  0  0  0  0  0  0  0  0  0
   -0.4558    3.0122   -6.7890 C   0  0  0  0  0  0  0  0  0  0  0  0
    1.5499    2.9931   -6.1082 H   0  0  0  0  0  0  0  0  0  0  0  0
   -0.5136    2.3583   -7.6717 H   0  0  0  0  0  0  0  0  0  0  0  0
   -1.3999    2.9541   -6.2274 H   0  0  0  0  0  0  0  0  0  0  0  0
   -0.2846    4.0497   -7.1120 H   0  0  0  0  0  0  0  0  0  0  0  0
 22 24  2  0  0  0  0
 24 26  1  0  0  0  0
 25 26  1  0  0  0  0
 23 25  2  0  0  0  0
 21 22  1  0  0  0  0
 22 23  1  0  0  0  0
  1  3  1  0  0  0  0
  1  7  1  0  0  0  0
  1  2  2  0  0  0  0
 36 37  1  0  0  0  0
 37 45  1  0  0  0  0
 37 38  2  0  0  0  0
  8  9  1  0  0  0  0
  9 17  1  0  0  0  0
  9 10  2  0  0  0  0
 18 19  1  0  0  0  0
 19 35  1  0  0  0  0
 19 20  2  0  0  0  0
 36 39  1  0  0  0  0
  8 11  1  0  0  0  0
 45 46  1  0  0  0  0
 18 21  1  0  0  0  0
 35 36  1  0  0  0  0
  7  8  1  0  0  0  0
 17 18  1  0  0  0  0
 24 32  1  0  0  0  0
 25 33  1  0  0  0  0
  3  4  1  0  0  0  0
  3  5  1  0  0  0  0
  3  6  1  0  0  0  0
 39 42  1  0  0  0  0
 39 43  1  0  0  0  0
 39 44  1  0  0  0  0
 11 14  1  0  0  0  0
 11 15  1  0  0  0  0
 11 16  1  0  0  0  0
 46 48  1  0  0  0  0
 46 49  1  0  0  0  0
 46 50  1  0  0  0  0
 21 29  1  0  0  0  0
 21 30  1  0  0  0  0
 36 41  1  0  0  0  0
  8 13  1  0  0  0  0
 18 28  1  0  0  0  0
 26 34  1  0  0  0  0
 23 31  1  0  0  0  0
 45 47  1  0  0  0  0
  7 12  1  0  0  0  0
 35 40  1  0  0  0  0
 17 27  1  0  0  0  0
M  CHG  1  23   1
M  END
$$$$

  -OEChem-05262214473D

 50 50  0     1  0  0  0  0  0999 V2000
   -1.6938    0.4865    3.8080 C   0  0  0  0  0  0  0  0  0  0  0  0
   -0.7464   -0.1282    3.3323 O   0  0  0  0  0  0  0  0  0  0  0  0
   -2.1257    0.2041    5.2087 C   0  0  0  0  0  0  0  0  0  0  0  0
   -2.8853   -0.5922    5.2621 H   0  0  0  0  0  0  0  0  0  0  0  0
   -1.2944   -0.1435    5.8430 H   0  0  0  0  0  0  0  0  0  0  0  0
   -2.5637    1.0590    5.7483 H   0  0  0  0  0  0  0  0  0  0  0  0
   -2.4435    1.4589    3.1669 N   0  0  0  0  0  0  0  0  0  0  0  0
   -2.1966    1.8850    1.8145 C   0  0  2  0  0  0  0  0  0  0  0  0
   -0.8617    1.2996    1.3733 C   0  0  0  0  0  0  0  0  0  0  0  0
    0.0104    0.9468    2.1646 O   0  0  0  0  0  0  0  0  0  0  0  0
   -2.1879    3.4017    1.7050 C   0  0  0  0  0  0  0  0  0  0  0  0
   -3.2085    1.8948    3.6787 H   0  0  0  0  0  0  0  0  0  0  0  0
   -3.0007    1.4665    1.1994 H   0  0  0  0  0  0  0  0  0  0  0  0
   -1.3888    3.8390    2.3147 H   0  0  0  0  0  0  0  0  0  0  0  0
   -2.0284    3.7240    0.6708 H   0  0  0  0  0  0  0  0  0  0  0  0
   -3.1380    3.8230    2.0508 H   0  0  0  0  0  0  0  0  0  0  0  0
   -0.7390    1.2565   -0.0101 N   0  0  0  0  0  0  0  0  0  0  0  0
    0.4383    0.7557   -0.6738 C   0  0  2  0  0  0  0  0  0  0  0  0
    0.5630    1.5037   -1.9963 C   0  0  0  0  0  0  0  0  0  0  0  0
    0.1979    2.6681   -2.1435 O   0  0  0  0  0  0  0  0  0  0  0  0
    0.3649   -0.7555   -0.9211 C   0  0  0  0  0  0  0  0  0  0  0  0
    0.3243   -1.5549    0.3584 C   0  0  0  0  0  0  0  0  0  0  0  0
    1.4428   -1.7385    1.1352 N   0  3  0  0  0  0  0  0  0  0  0  0
   -0.6991   -2.2121    0.9809 C   0  0  0  0  0  0  0  0  0  0  0  0
    1.1282   -2.4821    2.2008 C   0  0  0  0  0  0  0  0  0  0  0  0
   -0.1732   -2.7769    2.1177 N   0  0  0  0  0  0  0  0  0  0  0  0
   -1.5221    1.5532   -0.5874 H   0  0  0  0  0  0  0  0  0  0  0  0
    1.2908    1.0130   -0.0342 H   0  0  0  0  0  0  0  0  0  0  0  0
    1.2158   -1.0824   -1.5341 H   0  0  0  0  0  0  0  0  0  0  0  0
   -0.5272   -1.0047   -1.5106 H   0  0  0  0  0  0  0  0  0  0  0  0
    2.3682   -1.3695    0.9346 H   0  0  0  0  0  0  0  0  0  0  0  0
   -1.7413   -2.3705    0.7871 H   0  0  0  0  0  0  0  0  0  0  0  0
    1.8015   -2.7888    2.9837 H   0  0  0  0  0  0  0  0  0  0  0  0
   -0.6907   -3.3335    2.7923 H   0  0  0  0  0  0  0  0  0  0  0  0
    1.1752    0.7318   -2.9741 N   0  0  0  0  0  0  0  0  0  0  0  0
    1.4368    1.2085   -4.3131 C   0  0  2  0  0  0  0  0  0  0  0  0
    0.1484    1.8108   -4.8580 C   0  0  0  0  0  0  0  0  0  0  0  0
   -0.9644    1.5172   -4.4262 O   0  0  0  0  0  0  0  0  0  0  0  0
    1.9355    0.0877   -5.2119 C   0  0  0  0  0  0  0  0  0  0  0  0
    1.4533   -0.2158   -2.7365 H   0  0  0  0  0  0  0  0  0  0  0  0
    2.1986    1.9910   -4.2271 H   0  0  0  0  0  0  0  0  0  0  0  0
    1.1856   -0.7057   -5.3101 H   0  0  0  0  0  0  0  0  0  0  0  0
    2.1603    0.4563   -6.2182 H   0  0  0  0  0  0  0  0  0  0  0  0
    2.8457   -0.3641   -4.8029 H   0  0  0  0  0  0  0  0  0  0  0  0
    0.3846    2.6822   -5.9121 N   0  0  0  0  0  0  0  0  0  0  0  0
   -0.6776    3.3715   -6.6067 C   0  0  0  0  0  0  0  0  0  0  0  0
    1.3407    2.8810   -6.1913 H   0  0  0  0  0  0  0  0  0  0  0  0
   -0.9911    2.7790   -7.4789 H   0  0  0  0  0  0  0  0  0  0  0  0
   -1.5328    3.5055   -5.9281 H   0  0  0  0  0  0  0  0  0  0  0  0
   -0.3180    4.3555   -6.9422 H   0  0  0  0  0  0  0  0  0  0  0  0
 22 24  2  0  0  0  0
 24 26  1  0  0  0  0
 25 26  1  0  0  0  0
 23 25  2  0  0  0  0
 21 22  1  0  0  0  0
 22 23  1  0  0  0  0
  1  3  1  0  0  0  0
  1  7  1  0  0  0  0
  1  2  2  0  0  0  0
 36 37  1  0  0  0  0
 37 45  1  0  0  0  0
 37 38  2  0  0  0  0
  8  9  1  0  0  0  0
  9 17  1  0  0  0  0
  9 10  2  0  0  0  0
 18 19  1  0  0  0  0
 19 35  1  0  0  0  0
 19 20  2  0  0  0  0
 36 39  1  0  0  0  0
  8 11  1  0  0  0  0
 45 46  1  0  0  0  0
 18 21  1  0  0  0  0
 35 36  1  0  0  0  0
  7  8  1  0  0  0  0
 17 18  1  0  0  0  0
 24 32  1  0  0  0  0
 25 33  1  0  0  0  0
  3  4  1  0  0  0  0
  3  5  1  0  0  0  0
  3  6  1  0  0  0  0
 39 42  1  0  0  0  0
 39 43  1  0  0  0  0
 39 44  1  0  0  0  0
 11 14  1  0  0  0  0
 11 15  1  0  0  0  0
 11 16  1  0  0  0  0
 46 48  1  0  0  0  0
 46 49  1  0  0  0  0
 46 50  1  0  0  0  0
 21 29  1  0  0  0  0
 21 30  1  0  0  0  0
 36 41  1  0  0  0  0
  8 13  1  0  0  0  0
 18 28  1  0  0  0  0
 26 34  1  0  0  0  0
 23 31  1  0  0  0  0
 45 47  1  0  0  0  0
  7 12  1  0  0  0  0
 35 40  1  0  0  0  0
 17 27  1  0  0  0  0
M  CHG  1  23   1
M  END
$$$$

  -OEChem-05262214473D

 50 50  0     1  0  0  0  0  0999 V2000
   -1.6938    0.4865    3.8080 C   0  0  0  0  0  0  0  0  0  0  0  0
   -0.7464   -0.1282    3.3323 O   0  0  0  0  0  0  0  0  0  0  0  0
   -2.1257    0.2041    5.2087 C   0  0  0  0  0  0  0  0  0  0  0  0
   -2.8853   -0.5922    5.2621 H   0  0  0  0  0  0  0  0  0  0  0  0
   -1.2944   -0.1435    5.8430 H   0  0  0  0  0  0  0  0  0  0  0  0
   -2.5637    1.0590    5.7483 H   0  0  0  0  0  0  0  0  0  0  0  0
   -2.4435    1.4589    3.1669 N   0  0  0  0  0  0  0  0  0  0  0  0
   -2.1966    1.8850    1.8145 C   0  0  2  0  0  0  0  0  0  0  0  0
   -0.8617    1.2996    1.3733 C   0  0  0  0  0  0  0  0  0  0  0  0
    0.0104    0.9468    2.1646 O   0  0  0  0  0  0  0  0  0  0  0  0
   -2.1879    3.4017    1.7050 C   0  0  0  0  0  0  0  0  0  0  0  0
   -3.2085    1.8948    3.6787 H   0  0  0  0  0  0  0  0  0  0  0  0
   -3.0007    1.4665    1.1994 H   0  0  0  0  0  0  0  0  0  0  0  0
   -1.3888    3.8390    2.3147 H   0  0  0  0  0  0  0  0  0  0  0  0
   -2.0284    3.7240    0.6708 H   0  0  0  0  0  0  0  0  0  0  0  0
   -3.1380    3.8230    2.0508 H   0  0  0  0  0  0  0  0  0  0  0  0
   -0.7390    1.2565   -0.0101 N   0  0  0  0  0  0  0  0  0  0  0  0
    0.4383    0.7557   -0.6738 C   0  0  2  0  0  0  0  0  0  0  0  0
    0.5630    1.5037   -1.9963 C   0  0  0  0  0  0  0  0  0  0  0  0
    0.4550    2.7247   -2.0872 O   0  0  0  0  0  0  0  0  0  0  0  0
    0.3649   -0.7555   -0.9211 C   0  0  0  0  0  0  0  0  0  0  0  0
    0.3243   -1.5549    0.3584 C   0  0  0  0  0  0  0  0  0  0  0  0
    1.4428   -1.7385    1.1352 N   0  3  0  0  0  0  0  0  0  0  0  0
   -0.6991   -2.2121    0.9809 C   0  0  0  0  0  0  0  0  0  0  0  0
    1.1282   -2.4821    2.2008 C   0  0  0  0  0  0  0  0  0  0  0  0
   -0.1732   -2.7769    2.1177 N   0  0  0  0  0  0  0  0  0  0  0  0
   -1.5221    1.5532   -0.5874 H   0  0  0  0  0  0  0  0  0  0  0  0
    1.2908    1.0130   -0.0342 H   0  0  0  0  0  0  0  0  0  0  0  0
    1.2158   -1.0824   -1.5341 H   0  0  0  0  0  0  0  0  0  0  0  0
   -0.5272   -1.0047   -1.5106 H   0  0  0  0  0  0  0  0  0  0  0  0
    2.3682   -1.3695    0.9346 H   0  0  0  0  0  0  0  0  0  0  0  0
   -1.7413   -2.3705    0.7871 H   0  0  0  0  0  0  0  0  0  0  0  0
    1.8015   -2.7888    2.9837 H   0  0  0  0  0  0  0  0  0  0  0  0
   -0.6907   -3.3335    2.7923 H   0  0  0  0  0  0  0  0  0  0  0  0
    0.8583    0.6501   -3.0502 N   0  0  0  0  0  0  0  0  0  0  0  0
    1.0519    1.1038   -4.4086 C   0  0  2  0  0  0  0  0  0  0  0  0
   -0.1247    1.9975   -4.7782 C   0  0  0  0  0  0  0  0  0  0  0  0
   -1.2124    1.9444   -4.2079 O   0  0  0  0  0  0  0  0  0  0  0  0
    1.1686   -0.0672   -5.3718 C   0  0  0  0  0  0  0  0  0  0  0  0
    0.9425   -0.3436   -2.8569 H   0  0  0  0  0  0  0  0  0  0  0  0
    1.9754    1.6930   -4.4167 H   0  0  0  0  0  0  0  0  0  0  0  0
    0.2526   -0.6692   -5.3775 H   0  0  0  0  0  0  0  0  0  0  0  0
    1.3438    0.2776   -6.3963 H   0  0  0  0  0  0  0  0  0  0  0  0
    1.9969   -0.7250   -5.0871 H   0  0  0  0  0  0  0  0  0  0  0  0
    0.1691    2.8312   -5.8481 N   0  0  0  0  0  0  0  0  0  0  0  0
   -0.7880    3.7646   -6.3949 C   0  0  0  0  0  0  0  0  0  0  0  0
    1.1030    2.8215   -6.2474 H   0  0  0  0  0  0  0  0  0  0  0  0
   -1.3333    3.2884   -7.2230 H   0  0  0  0  0  0  0  0  0  0  0  0
   -1.4995    4.0618   -5.6103 H   0  0  0  0  0  0  0  0  0  0  0  0
   -0.2601    4.6548   -6.7674 H   0  0  0  0  0  0  0  0  0  0  0  0
 22 24  2  0  0  0  0
 24 26  1  0  0  0  0
 25 26  1  0  0  0  0
 23 25  2  0  0  0  0
 21 22  1  0  0  0  0
 22 23  1  0  0  0  0
  1  3  1  0  0  0  0
  1  7  1  0  0  0  0
  1  2  2  0  0  0  0
 36 37  1  0  0  0  0
 37 45  1  0  0  0  0
 37 38  2  0  0  0  0
  8  9  1  0  0  0  0
  9 17  1  0  0  0  0
  9 10  2  0  0  0  0
 18 19  1  0  0  0  0
 19 35  1  0  0  0  0
 19 20  2  0  0  0  0
 36 39  1  0  0  0  0
  8 11  1  0  0  0  0
 45 46  1  0  0  0  0
 18 21  1  0  0  0  0
 35 36  1  0  0  0  0
  7  8  1  0  0  0  0
 17 18  1  0  0  0  0
 24 32  1  0  0  0  0
 25 33  1  0  0  0  0
  3  4  1  0  0  0  0
  3  5  1  0  0  0  0
  3  6  1  0  0  0  0
 39 42  1  0  0  0  0
 39 43  1  0  0  0  0
 39 44  1  0  0  0  0
 11 14  1  0  0  0  0
 11 15  1  0  0  0  0
 11 16  1  0  0  0  0
 46 48  1  0  0  0  0
 46 49  1  0  0  0  0
 46 50  1  0  0  0  0
 21 29  1  0  0  0  0
 21 30  1  0  0  0  0
 36 41  1  0  0  0  0
  8 13  1  0  0  0  0
 18 28  1  0  0  0  0
 26 34  1  0  0  0  0
 23 31  1  0  0  0  0
 45 47  1  0  0  0  0
  7 12  1  0  0  0  0
 35 40  1  0  0  0  0
 17 27  1  0  0  0  0
M  CHG  1  23   1
M  END
$$$$

  -OEChem-05262214473D

 50 50  0     1  0  0  0  0  0999 V2000
   -1.6938    0.4865    3.8080 C   0  0  0  0  0  0  0  0  0  0  0  0
   -0.7464   -0.1282    3.3323 O   0  0  0  0  0  0  0  0  0  0  0  0
   -2.1257    0.2041    5.2087 C   0  0  0  0  0  0  0  0  0  0  0  0
   -2.8853   -0.5922    5.2621 H   0  0  0  0  0  0  0  0  0  0  0  0
   -1.2944   -0.1435    5.8430 H   0  0  0  0  0  0  0  0  0  0  0  0
   -2.5637    1.0590    5.7483 H   0  0  0  0  0  0  0  0  0  0  0  0
   -2.4435    1.4589    3.1669 N   0  0  0  0  0  0  0  0  0  0  0  0
   -2.1966    1.8850    1.8145 C   0  0  2  0  0  0  0  0  0  0  0  0
   -0.8617    1.2996    1.3733 C   0  0  0  0  0  0  0  0  0  0  0  0
    0.0104    0.9468    2.1646 O   0  0  0  0  0  0  0  0  0  0  0  0
   -2.1879    3.4017    1.7050 C   0  0  0  0  0  0  0  0  0  0  0  0
   -3.2085    1.8948    3.6787 H   0  0  0  0  0  0  0  0  0  0  0  0
   -3.0007    1.4665    1.1994 H   0  0  0  0  0  0  0  0  0  0  0  0
   -1.3888    3.8390    2.3147 H   0  0  0  0  0  0  0  0  0  0  0  0
   -2.0284    3.7240    0.6708 H   0  0  0  0  0  0  0  0  0  0  0  0
   -3.1380    3.8230    2.0508 H   0  0  0  0  0  0  0  0  0  0  0  0
   -0.7390    1.2565   -0.0101 N   0  0  0  0  0  0  0  0  0  0  0  0
    0.4383    0.7557   -0.6738 C   0  0  2  0  0  0  0  0  0  0  0  0
    0.5630    1.5037   -1.9963 C   0  0  0  0  0  0  0  0  0  0  0  0
    0.7231    2.7205   -2.0643 O   0  0  0  0  0  0  0  0  0  0  0  0
    0.3649   -0.7555   -0.9211 C   0  0  0  0  0  0  0  0  0  0  0  0
    0.3243   -1.5549    0.3584 C   0  0  0  0  0  0  0  0  0  0  0  0
    1.4428   -1.7385    1.1352 N   0  3  0  0  0  0  0  0  0  0  0  0
   -0.6991   -2.2121    0.9809 C   0  0  0  0  0  0  0  0  0  0  0  0
    1.1282   -2.4821    2.2008 C   0  0  0  0  0  0  0  0  0  0  0  0
   -0.1732   -2.7769    2.1177 N   0  0  0  0  0  0  0  0  0  0  0  0
   -1.5221    1.5532   -0.5874 H   0  0  0  0  0  0  0  0  0  0  0  0
    1.2908    1.0130   -0.0342 H   0  0  0  0  0  0  0  0  0  0  0  0
    1.2158   -1.0824   -1.5341 H   0  0  0  0  0  0  0  0  0  0  0  0
   -0.5272   -1.0047   -1.5106 H   0  0  0  0  0  0  0  0  0  0  0  0
    2.3682   -1.3695    0.9346 H   0  0  0  0  0  0  0  0  0  0  0  0
   -1.7413   -2.3705    0.7871 H   0  0  0  0  0  0  0  0  0  0  0  0
    1.8015   -2.7888    2.9837 H   0  0  0  0  0  0  0  0  0  0  0  0
   -0.6907   -3.3335    2.7923 H   0  0  0  0  0  0  0  0  0  0  0  0
    0.5242    0.6439   -3.0852 N   0  0  0  0  0  0  0  0  0  0  0  0
    0.6445    1.0912   -4.4542 C   0  0  2  0  0  0  0  0  0  0  0  0
   -0.3364    2.2374   -4.6624 C   0  0  0  0  0  0  0  0  0  0  0  0
   -1.3282    2.4081   -3.9566 O   0  0  0  0  0  0  0  0  0  0  0  0
    0.3728   -0.0412   -5.4322 C   0  0  0  0  0  0  0  0  0  0  0  0
    0.4052   -0.3498   -2.9111 H   0  0  0  0  0  0  0  0  0  0  0  0
    1.6689    1.4593   -4.5778 H   0  0  0  0  0  0  0  0  0  0  0  0
   -0.6489   -0.4231   -5.3233 H   0  0  0  0  0  0  0  0  0  0  0  0
    0.4923    0.2921   -6.4684 H   0  0  0  0  0  0  0  0  0  0  0  0
    1.0599   -0.8770   -5.2615 H   0  0  0  0  0  0  0  0  0  0  0  0
    0.0025    3.0222   -5.7558 N   0  0  0  0  0  0  0  0  0  0  0  0
   -0.7794    4.1645   -6.1679 C   0  0  0  0  0  0  0  0  0  0  0  0
    0.8529    2.8186   -6.2726 H   0  0  0  0  0  0  0  0  0  0  0  0
   -1.5171    3.8519   -6.9217 H   0  0  0  0  0  0  0  0  0  0  0  0
   -1.3020    4.5848   -5.2959 H   0  0  0  0  0  0  0  0  0  0  0  0
   -0.1147    4.9272   -6.5997 H   0  0  0  0  0  0  0  0  0  0  0  0
 22 24  2  0  0  0  0
 24 26  1  0  0  0  0
 25 26  1  0  0  0  0
 23 25  2  0  0  0  0
 21 22  1  0  0  0  0
 22 23  1  0  0  0  0
  1  3  1  0  0  0  0
  1  7  1  0  0  0  0
  1  2  2  0  0  0  0
 36 37  1  0  0  0  0
 37 45  1  0  0  0  0
 37 38  2  0  0  0  0
  8  9  1  0  0  0  0
  9 17  1  0  0  0  0
  9 10  2  0  0  0  0
 18 19  1  0  0  0  0
 19 35  1  0  0  0  0
 19 20  2  0  0  0  0
 36 39  1  0  0  0  0
  8 11  1  0  0  0  0
 45 46  1  0  0  0  0
 18 21  1  0  0  0  0
 35 36  1  0  0  0  0
  7  8  1  0  0  0  0
 17 18  1  0  0  0  0
 24 32  1  0  0  0  0
 25 33  1  0  0  0  0
  3  4  1  0  0  0  0
  3  5  1  0  0  0  0
  3  6  1  0  0  0  0
 39 42  1  0  0  0  0
 39 43  1  0  0  0  0
 39 44  1  0  0  0  0
 11 14  1  0  0  0  0
 11 15  1  0  0  0  0
 11 16  1  0  0  0  0
 46 48  1  0  0  0  0
 46 49  1  0  0  0  0
 46 50  1  0  0  0  0
 21 29  1  0  0  0  0
 21 30  1  0  0  0  0
 36 41  1  0  0  0  0
  8 13  1  0  0  0  0
 18 28  1  0  0  0  0
 26 34  1  0  0  0  0
 23 31  1  0  0  0  0
 45 47  1  0  0  0  0
  7 12  1  0  0  0  0
 35 40  1  0  0  0  0
 17 27  1  0  0  0  0
M  CHG  1  23   1
M  END
$$$$

  -OEChem-05262214473D

 50 50  0     1  0  0  0  0  0999 V2000
   -1.6938    0.4865    3.8080 C   0  0  0  0  0  0  0  0  0  0  0  0
   -0.7464   -0.1282    3.3323 O   0  0  0  0  0  0  0  0  0  0  0  0
   -2.1257    0.2041    5.2087 C   0  0  0  0  0  0  0  0  0  0  0  0
   -2.8853   -0.5922    5.2621 H   0  0  0  0  0  0  0  0  0  0  0  0
   -1.2944   -0.1435    5.8430 H   0  0  0  0  0  0  0  0  0  0  0  0
   -2.5637    1.0590    5.7483 H   0  0  0  0  0  0  0  0  0  0  0  0
   -2.4435    1.4589    3.1669 N   0  0  0  0  0  0  0  0  0  0  0  0
   -2.1966    1.8850    1.8145 C   0  0  2  0  0  0  0  0  0  0  0  0
   -0.8617    1.2996    1.3733 C   0  0  0  0  0  0  0  0  0  0  0  0
    0.0104    0.9468    2.1646 O   0  0  0  0  0  0  0  0  0  0  0  0
   -2.1879    3.4017    1.7050 C   0  0  0  0  0  0  0  0  0  0  0  0
   -3.2085    1.8948    3.6787 H   0  0  0  0  0  0  0  0  0  0  0  0
   -3.0007    1.4665    1.1994 H   0  0  0  0  0  0  0  0  0  0  0  0
   -1.3888    3.8390    2.3147 H   0  0  0  0  0  0  0  0  0  0  0  0
   -2.0284    3.7240    0.6708 H   0  0  0  0  0  0  0  0  0  0  0  0
   -3.1380    3.8230    2.0508 H   0  0  0  0  0  0  0  0  0  0  0  0
   -0.7390    1.2565   -0.0101 N   0  0  0  0  0  0  0  0  0  0  0  0
    0.4383    0.7557   -0.6738 C   0  0  2  0  0  0  0  0  0  0  0  0
    0.5630    1.5037   -1.9963 C   0  0  0  0  0  0  0  0  0  0  0  0
    0.9841    2.6557   -2.0764 O   0  0  0  0  0  0  0  0  0  0  0  0
    0.3649   -0.7555   -0.9211 C   0  0  0  0  0  0  0  0  0  0  0  0
    0.3243   -1.5549    0.3584 C   0  0  0  0  0  0  0  0  0  0  0  0
    1.4428   -1.7385    1.1352 N   0  3  0  0  0  0  0  0  0  0  0  0
   -0.6991   -2.2121    0.9809 C   0  0  0  0  0  0  0  0  0  0  0  0
    1.1282   -2.4821    2.2008 C   0  0  0  0  0  0  0  0  0  0  0  0
   -0.1732   -2.7769    2.1177 N   0  0  0  0  0  0  0  0  0  0  0  0
   -1.5221    1.5532   -0.5874 H   0  0  0  0  0  0  0  0  0  0  0  0
    1.2908    1.0130   -0.0342 H   0  0  0  0  0  0  0  0  0  0  0  0
    1.2158   -1.0824   -1.5341 H   0  0  0  0  0  0  0  0  0  0  0  0
   -0.5272   -1.0047   -1.5106 H   0  0  0  0  0  0  0  0  0  0  0  0
    2.3682   -1.3695    0.9346 H   0  0  0  0  0  0  0  0  0  0  0  0
   -1.7413   -2.3705    0.7871 H   0  0  0  0  0  0  0  0  0  0  0  0
    1.8015   -2.7888    2.9837 H   0  0  0  0  0  0  0  0  0  0  0  0
   -0.6907   -3.3335    2.7923 H   0  0  0  0  0  0  0  0  0  0  0  0
    0.1956    0.7136   -3.0767 N   0  0  0  0  0  0  0  0  0  0  0  0
    0.2424    1.1713   -4.4468 C   0  0  2  0  0  0  0  0  0  0  0  0
   -0.4723    2.5143   -4.5187 C   0  0  0  0  0  0  0  0  0  0  0  0
   -1.3041    2.8767   -3.6893 O   0  0  0  0  0  0  0  0  0  0  0  0
   -0.3978    0.1638   -5.3889 C   0  0  0  0  0  0  0  0  0  0  0  0
   -0.1221   -0.2339   -2.8954 H   0  0  0  0  0  0  0  0  0  0  0  0
    1.2998    1.3058   -4.6994 H   0  0  0  0  0  0  0  0  0  0  0  0
   -1.4576    0.0159   -5.1513 H   0  0  0  0  0  0  0  0  0  0  0  0
   -0.3361    0.4988   -6.4296 H   0  0  0  0  0  0  0  0  0  0  0  0
    0.0985   -0.8098   -5.3141 H   0  0  0  0  0  0  0  0  0  0  0  0
   -0.1038    3.2422   -5.6414 N   0  0  0  0  0  0  0  0  0  0  0  0
   -0.6526    4.5441   -5.9412 C   0  0  0  0  0  0  0  0  0  0  0  0
    0.6074    2.8725   -6.2653 H   0  0  0  0  0  0  0  0  0  0  0  0
   -1.5297    4.4311   -6.5953 H   0  0  0  0  0  0  0  0  0  0  0  0
   -0.9539    5.0390   -5.0062 H   0  0  0  0  0  0  0  0  0  0  0  0
    0.1082    5.1541   -6.4503 H   0  0  0  0  0  0  0  0  0  0  0  0
 22 24  2  0  0  0  0
 24 26  1  0  0  0  0
 25 26  1  0  0  0  0
 23 25  2  0  0  0  0
 21 22  1  0  0  0  0
 22 23  1  0  0  0  0
  1  3  1  0  0  0  0
  1  7  1  0  0  0  0
  1  2  2  0  0  0  0
 36 37  1  0  0  0  0
 37 45  1  0  0  0  0
 37 38  2  0  0  0  0
  8  9  1  0  0  0  0
  9 17  1  0  0  0  0
  9 10  2  0  0  0  0
 18 19  1  0  0  0  0
 19 35  1  0  0  0  0
 19 20  2  0  0  0  0
 36 39  1  0  0  0  0
  8 11  1  0  0  0  0
 45 46  1  0  0  0  0
 18 21  1  0  0  0  0
 35 36  1  0  0  0  0
  7  8  1  0  0  0  0
 17 18  1  0  0  0  0
 24 32  1  0  0  0  0
 25 33  1  0  0  0  0
  3  4  1  0  0  0  0
  3  5  1  0  0  0  0
  3  6  1  0  0  0  0
 39 42  1  0  0  0  0
 39 43  1  0  0  0  0
 39 44  1  0  0  0  0
 11 14  1  0  0  0  0
 11 15  1  0  0  0  0
 11 16  1  0  0  0  0
 46 48  1  0  0  0  0
 46 49  1  0  0  0  0
 46 50  1  0  0  0  0
 21 29  1  0  0  0  0
 21 30  1  0  0  0  0
 36 41  1  0  0  0  0
  8 13  1  0  0  0  0
 18 28  1  0  0  0  0
 26 34  1  0  0  0  0
 23 31  1  0  0  0  0
 45 47  1  0  0  0  0
  7 12  1  0  0  0  0
 35 40  1  0  0  0  0
 17 27  1  0  0  0  0
M  CHG  1  23   1
M  END
$$$$

  -OEChem-05262214473D

 50 50  0     1  0  0  0  0  0999 V2000
   -1.6938    0.4865    3.8080 C   0  0  0  0  0  0  0  0  0  0  0  0
   -0.7464   -0.1282    3.3323 O   0  0  0  0  0  0  0  0  0  0  0  0
   -2.1257    0.2041    5.2087 C   0  0  0  0  0  0  0  0  0  0  0  0
   -2.8853   -0.5922    5.2621 H   0  0  0  0  0  0  0  0  0  0  0  0
   -1.2944   -0.1435    5.8430 H   0  0  0  0  0  0  0  0  0  0  0  0
   -2.5637    1.0590    5.7483 H   0  0  0  0  0  0  0  0  0  0  0  0
   -2.4435    1.4589    3.1669 N   0  0  0  0  0  0  0  0  0  0  0  0
   -2.1966    1.8850    1.8145 C   0  0  2  0  0  0  0  0  0  0  0  0
   -0.8617    1.2996    1.3733 C   0  0  0  0  0  0  0  0  0  0  0  0
    0.0104    0.9468    2.1646 O   0  0  0  0  0  0  0  0  0  0  0  0
   -2.1879    3.4017    1.7050 C   0  0  0  0  0  0  0  0  0  0  0  0
   -3.2085    1.8948    3.6787 H   0  0  0  0  0  0  0  0  0  0  0  0
   -3.0007    1.4665    1.1994 H   0  0  0  0  0  0  0  0  0  0  0  0
   -1.3888    3.8390    2.3147 H   0  0  0  0  0  0  0  0  0  0  0  0
   -2.0284    3.7240    0.6708 H   0  0  0  0  0  0  0  0  0  0  0  0
   -3.1380    3.8230    2.0508 H   0  0  0  0  0  0  0  0  0  0  0  0
   -0.7390    1.2565   -0.0101 N   0  0  0  0  0  0  0  0  0  0  0  0
    0.4383    0.7557   -0.6738 C   0  0  2  0  0  0  0  0  0  0  0  0
    0.5630    1.5037   -1.9963 C   0  0  0  0  0  0  0  0  0  0  0  0
    1.2201    2.5348   -2.1225 O   0  0  0  0  0  0  0  0  0  0  0  0
    0.3649   -0.7555   -0.9211 C   0  0  0  0  0  0  0  0  0  0  0  0
    0.3243   -1.5549    0.3584 C   0  0  0  0  0  0  0  0  0  0  0  0
    1.4428   -1.7385    1.1352 N   0  3  0  0  0  0  0  0  0  0  0  0
   -0.6991   -2.2121    0.9809 C   0  0  0  0  0  0  0  0  0  0  0  0
    1.1282   -2.4821    2.2008 C   0  0  0  0  0  0  0  0  0  0  0  0
   -0.1732   -2.7769    2.1177 N   0  0  0  0  0  0  0  0  0  0  0  0
   -1.5221    1.5532   -0.5874 H   0  0  0  0  0  0  0  0  0  0  0  0
    1.2908    1.0130   -0.0342 H   0  0  0  0  0  0  0  0  0  0  0  0
    1.2158   -1.0824   -1.5341 H   0  0  0  0  0  0  0  0  0  0  0  0
   -0.5272   -1.0047   -1.5106 H   0  0  0  0  0  0  0  0  0  0  0  0
    2.3682   -1.3695    0.9346 H   0  0  0  0  0  0  0  0  0  0  0  0
   -1.7413   -2.3705    0.7871 H   0  0  0  0  0  0  0  0  0  0  0  0
    1.8015   -2.7888    2.9837 H   0  0  0  0  0  0  0  0  0  0  0  0
   -0.6907   -3.3335    2.7923 H   0  0  0  0  0  0  0  0  0  0  0  0
   -0.1050    0.8546   -3.0253 N   0  0  0  0  0  0  0  0  0  0  0  0
   -0.1271    1.3389   -4.3869 C   0  0  2  0  0  0  0  0  0  0  0  0
   -0.5232    2.8092   -4.3567 C   0  0  0  0  0  0  0  0  0  0  0  0
   -1.1416    3.3183   -3.4243 O   0  0  0  0  0  0  0  0  0  0  0  0
   -1.0906    0.5339   -5.2450 C   0  0  0  0  0  0  0  0  0  0  0  0
   -0.6034   -0.0040   -2.8107 H   0  0  0  0  0  0  0  0  0  0  0  0
    0.8935    1.2429   -4.7733 H   0  0  0  0  0  0  0  0  0  0  0  0
   -2.1183    0.6179   -4.8731 H   0  0  0  0  0  0  0  0  0  0  0  0
   -1.0849    0.8836   -6.2826 H   0  0  0  0  0  0  0  0  0  0  0  0
   -0.8217   -0.5279   -5.2415 H   0  0  0  0  0  0  0  0  0  0  0  0
   -0.1426    3.4761   -5.5128 N   0  0  0  0  0  0  0  0  0  0  0  0
   -0.4160    4.8774   -5.7304 C   0  0  0  0  0  0  0  0  0  0  0  0
    0.3833    2.9795   -6.2259 H   0  0  0  0  0  0  0  0  0  0  0  0
   -1.3705    4.9865   -6.2662 H   0  0  0  0  0  0  0  0  0  0  0  0
   -0.4788    5.3934   -4.7609 H   0  0  0  0  0  0  0  0  0  0  0  0
    0.3933    5.3201   -6.3296 H   0  0  0  0  0  0  0  0  0  0  0  0
 22 24  2  0  0  0  0
 24 26  1  0  0  0  0
 25 26  1  0  0  0  0
 23 25  2  0  0  0  0
 21 22  1  0  0  0  0
 22 23  1  0  0  0  0
  1  3  1  0  0  0  0
  1  7  1  0  0  0  0
  1  2  2  0  0  0  0
 36 37  1  0  0  0  0
 37 45  1  0  0  0  0
 37 38  2  0  0  0  0
  8  9  1  0  0  0  0
  9 17  1  0  0  0  0
  9 10  2  0  0  0  0
 18 19  1  0  0  0  0
 19 35  1  0  0  0  0
 19 20  2  0  0  0  0
 36 39  1  0  0  0  0
  8 11  1  0  0  0  0
 45 46  1  0  0  0  0
 18 21  1  0  0  0  0
 35 36  1  0  0  0  0
  7  8  1  0  0  0  0
 17 18  1  0  0  0  0
 24 32  1  0  0  0  0
 25 33  1  0  0  0  0
  3  4  1  0  0  0  0
  3  5  1  0  0  0  0
  3  6  1  0  0  0  0
 39 42  1  0  0  0  0
 39 43  1  0  0  0  0
 39 44  1  0  0  0  0
 11 14  1  0  0  0  0
 11 15  1  0  0  0  0
 11 16  1  0  0  0  0
 46 48  1  0  0  0  0
 46 49  1  0  0  0  0
 46 50  1  0  0  0  0
 21 29  1  0  0  0  0
 21 30  1  0  0  0  0
 36 41  1  0  0  0  0
  8 13  1  0  0  0  0
 18 28  1  0  0  0  0
 26 34  1  0  0  0  0
 23 31  1  0  0  0  0
 45 47  1  0  0  0  0
  7 12  1  0  0  0  0
 35 40  1  0  0  0  0
 17 27  1  0  0  0  0
M  CHG  1  23   1
M  END
$$$$

  -OEChem-05262214473D

 50 50  0     1  0  0  0  0  0999 V2000
   -1.6938    0.4865    3.8080 C   0  0  0  0  0  0  0  0  0  0  0  0
   -0.7464   -0.1282    3.3323 O   0  0  0  0  0  0  0  0  0  0  0  0
   -2.1257    0.2041    5.2087 C   0  0  0  0  0  0  0  0  0  0  0  0
   -2.8853   -0.5922    5.2621 H   0  0  0  0  0  0  0  0  0  0  0  0
   -1.2944   -0.1435    5.8430 H   0  0  0  0  0  0  0  0  0  0  0  0
   -2.5637    1.0590    5.7483 H   0  0  0  0  0  0  0  0  0  0  0  0
   -2.4435    1.4589    3.1669 N   0  0  0  0  0  0  0  0  0  0  0  0
   -2.1966    1.8850    1.8145 C   0  0  2  0  0  0  0  0  0  0  0  0
   -0.8617    1.2996    1.3733 C   0  0  0  0  0  0  0  0  0  0  0  0
    0.0104    0.9468    2.1646 O   0  0  0  0  0  0  0  0  0  0  0  0
   -2.1879    3.4017    1.7050 C   0  0  0  0  0  0  0  0  0  0  0  0
   -3.2085    1.8948    3.6787 H   0  0  0  0  0  0  0  0  0  0  0  0
   -3.0007    1.4665    1.1994 H   0  0  0  0  0  0  0  0  0  0  0  0
   -1.3888    3.8390    2.3147 H   0  0  0  0  0  0  0  0  0  0  0  0
   -2.0284    3.7240    0.6708 H   0  0  0  0  0  0  0  0  0  0  0  0
   -3.1380    3.8230    2.0508 H   0  0  0  0  0  0  0  0  0  0  0  0
   -0.7390    1.2565   -0.0101 N   0  0  0  0  0  0  0  0  0  0  0  0
    0.4383    0.7557   -0.6738 C   0  0  2  0  0  0  0  0  0  0  0  0
    0.5630    1.5037   -1.9963 C   0  0  0  0  0  0  0  0  0  0  0  0
    1.4151    2.3660   -2.1996 O   0  0  0  0  0  0  0  0  0  0  0  0
    0.3649   -0.7555   -0.9211 C   0  0  0  0  0  0  0  0  0  0  0  0
    0.3243   -1.5549    0.3584 C   0  0  0  0  0  0  0  0  0  0  0  0
    1.4428   -1.7385    1.1352 N   0  3  0  0  0  0  0  0  0  0  0  0
   -0.6991   -2.2121    0.9809 C   0  0  0  0  0  0  0  0  0  0  0  0
    1.1282   -2.4821    2.2008 C   0  0  0  0  0  0  0  0  0  0  0  0
   -0.1732   -2.7769    2.1177 N   0  0  0  0  0  0  0  0  0  0  0  0
   -1.5221    1.5532   -0.5874 H   0  0  0  0  0  0  0  0  0  0  0  0
    1.2908    1.0130   -0.0342 H   0  0  0  0  0  0  0  0  0  0  0  0
    1.2158   -1.0824   -1.5341 H   0  0  0  0  0  0  0  0  0  0  0  0
   -0.5272   -1.0047   -1.5106 H   0  0  0  0  0  0  0  0  0  0  0  0
    2.3682   -1.3695    0.9346 H   0  0  0  0  0  0  0  0  0  0  0  0
   -1.7413   -2.3705    0.7871 H   0  0  0  0  0  0  0  0  0  0  0  0
    1.8015   -2.7888    2.9837 H   0  0  0  0  0  0  0  0  0  0  0  0
   -0.6907   -3.3335    2.7923 H   0  0  0  0  0  0  0  0  0  0  0  0
   -0.3572    1.0572   -2.9346 N   0  0  0  0  0  0  0  0  0  0  0  0
   -0.4387    1.5825   -4.2785 C   0  0  2  0  0  0  0  0  0  0  0  0
   -0.4855    3.1020   -4.1875 C   0  0  0  0  0  0  0  0  0  0  0  0
   -0.8519    3.7027   -3.1795 O   0  0  0  0  0  0  0  0  0  0  0  0
   -1.6583    1.0439   -5.0100 C   0  0  0  0  0  0  0  0  0  0  0  0
   -1.0060    0.3244   -2.6630 H   0  0  0  0  0  0  0  0  0  0  0  0
    0.4775    1.2750   -4.7944 H   0  0  0  0  0  0  0  0  0  0  0  0
   -2.5860    1.3418   -4.5078 H   0  0  0  0  0  0  0  0  0  0  0  0
   -1.7031    1.4204   -6.0373 H   0  0  0  0  0  0  0  0  0  0  0  0
   -1.6380   -0.0506   -5.0485 H   0  0  0  0  0  0  0  0  0  0  0  0
   -0.1112    3.7080   -5.3787 N   0  0  0  0  0  0  0  0  0  0  0  0
   -0.0859    5.1419   -5.5497 C   0  0  0  0  0  0  0  0  0  0  0  0
    0.1959    3.1323   -6.1572 H   0  0  0  0  0  0  0  0  0  0  0  0
   -1.0502    5.4802   -5.9567 H   0  0  0  0  0  0  0  0  0  0  0  0
    0.0907    5.6240   -4.5768 H   0  0  0  0  0  0  0  0  0  0  0  0
    0.7214    5.4138   -6.2456 H   0  0  0  0  0  0  0  0  0  0  0  0
 22 24  2  0  0  0  0
 24 26  1  0  0  0  0
 25 26  1  0  0  0  0
 23 25  2  0  0  0  0
 21 22  1  0  0  0  0
 22 23  1  0  0  0  0
  1  3  1  0  0  0  0
  1  7  1  0  0  0  0
  1  2  2  0  0  0  0
 36 37  1  0  0  0  0
 37 45  1  0  0  0  0
 37 38  2  0  0  0  0
  8  9  1  0  0  0  0
  9 17  1  0  0  0  0
  9 10  2  0  0  0  0
 18 19  1  0  0  0  0
 19 35  1  0  0  0  0
 19 20  2  0  0  0  0
 36 39  1  0  0  0  0
  8 11  1  0  0  0  0
 45 46  1  0  0  0  0
 18 21  1  0  0  0  0
 35 36  1  0  0  0  0
  7  8  1  0  0  0  0
 17 18  1  0  0  0  0
 24 32  1  0  0  0  0
 25 33  1  0  0  0  0
  3  4  1  0  0  0  0
  3  5  1  0  0  0  0
  3  6  1  0  0  0  0
 39 42  1  0  0  0  0
 39 43  1  0  0  0  0
 39 44  1  0  0  0  0
 11 14  1  0  0  0  0
 11 15  1  0  0  0  0
 11 16  1  0  0  0  0
 46 48  1  0  0  0  0
 46 49  1  0  0  0  0
 46 50  1  0  0  0  0
 21 29  1  0  0  0  0
 21 30  1  0  0  0  0
 36 41  1  0  0  0  0
  8 13  1  0  0  0  0
 18 28  1  0  0  0  0
 26 34  1  0  0  0  0
 23 31  1  0  0  0  0
 45 47  1  0  0  0  0
  7 12  1  0  0  0  0
 35 40  1  0  0  0  0
 17 27  1  0  0  0  0
M  CHG  1  23   1
M  END
$$$$

  -OEChem-05262214473D

 50 50  0     1  0  0  0  0  0999 V2000
   -1.6938    0.4865    3.8080 C   0  0  0  0  0  0  0  0  0  0  0  0
   -0.7464   -0.1282    3.3323 O   0  0  0  0  0  0  0  0  0  0  0  0
   -2.1257    0.2041    5.2087 C   0  0  0  0  0  0  0  0  0  0  0  0
   -2.8853   -0.5922    5.2621 H   0  0  0  0  0  0  0  0  0  0  0  0
   -1.2944   -0.1435    5.8430 H   0  0  0  0  0  0  0  0  0  0  0  0
   -2.5637    1.0590    5.7483 H   0  0  0  0  0  0  0  0  0  0  0  0
   -2.4435    1.4589    3.1669 N   0  0  0  0  0  0  0  0  0  0  0  0
   -2.1966    1.8850    1.8145 C   0  0  2  0  0  0  0  0  0  0  0  0
   -0.8617    1.2996    1.3733 C   0  0  0  0  0  0  0  0  0  0  0  0
    0.0104    0.9468    2.1646 O   0  0  0  0  0  0  0  0  0  0  0  0
   -2.1879    3.4017    1.7050 C   0  0  0  0  0  0  0  0  0  0  0  0
   -3.2085    1.8948    3.6787 H   0  0  0  0  0  0  0  0  0  0  0  0
   -3.0007    1.4665    1.1994 H   0  0  0  0  0  0  0  0  0  0  0  0
   -1.3888    3.8390    2.3147 H   0  0  0  0  0  0  0  0  0  0  0  0
   -2.0284    3.7240    0.6708 H   0  0  0  0  0  0  0  0  0  0  0  0
   -3.1380    3.8230    2.0508 H   0  0  0  0  0  0  0  0  0  0  0  0
   -0.7390    1.2565   -0.0101 N   0  0  0  0  0  0  0  0  0  0  0  0
    0.4383    0.7557   -0.6738 C   0  0  2  0  0  0  0  0  0  0  0  0
    0.5630    1.5037   -1.9963 C   0  0  0  0  0  0  0  0  0  0  0  0
    1.5557    2.1608   -2.3024 O   0  0  0  0  0  0  0  0  0  0  0  0
    0.3649   -0.7555   -0.9211 C   0  0  0  0  0  0  0  0  0  0  0  0
    0.3243   -1.5549    0.3584 C   0  0  0  0  0  0  0  0  0  0  0  0
    1.4428   -1.7385    1.1352 N   0  3  0  0  0  0  0  0  0  0  0  0
   -0.6991   -2.2121    0.9809 C   0  0  0  0  0  0  0  0  0  0  0  0
    1.1282   -2.4821    2.2008 C   0  0  0  0  0  0  0  0  0  0  0  0
   -0.1732   -2.7769    2.1177 N   0  0  0  0  0  0  0  0  0  0  0  0
   -1.5221    1.5532   -0.5874 H   0  0  0  0  0  0  0  0  0  0  0  0
    1.2908    1.0130   -0.0342 H   0  0  0  0  0  0  0  0  0  0  0  0
    1.2158   -1.0824   -1.5341 H   0  0  0  0  0  0  0  0  0  0  0  0
   -0.5272   -1.0047   -1.5106 H   0  0  0  0  0  0  0  0  0  0  0  0
    2.3682   -1.3695    0.9346 H   0  0  0  0  0  0  0  0  0  0  0  0
   -1.7413   -2.3705    0.7871 H   0  0  0  0  0  0  0  0  0  0  0  0
    1.8015   -2.7888    2.9837 H   0  0  0  0  0  0  0  0  0  0  0  0
   -0.6907   -3.3335    2.7923 H   0  0  0  0  0  0  0  0  0  0  0  0
   -0.5438    1.3076   -2.8105 N   0  0  0  0  0  0  0  0  0  0  0  0
   -0.6713    1.8854   -4.1291 C   0  0  2  0  0  0  0  0  0  0  0  0
   -0.3619    3.3729   -4.0227 C   0  0  0  0  0  0  0  0  0  0  0  0
   -0.4547    4.0038   -2.9718 O   0  0  0  0  0  0  0  0  0  0  0  0
   -2.0624    1.6591   -4.7003 C   0  0  0  0  0  0  0  0  0  0  0  0
   -1.3023    0.7288   -2.4622 H   0  0  0  0  0  0  0  0  0  0  0  0
    0.0801    1.3998   -4.7612 H   0  0  0  0  0  0  0  0  0  0  0  0
   -2.8288    2.1384   -4.0802 H   0  0  0  0  0  0  0  0  0  0  0  0
   -2.1486    2.0724   -5.7106 H   0  0  0  0  0  0  0  0  0  0  0  0
   -2.2948    0.5897   -4.7483 H   0  0  0  0  0  0  0  0  0  0  0  0
   -0.0118    3.9221   -5.2482 N   0  0  0  0  0  0  0  0  0  0  0  0
    0.3153    5.3193   -5.4115 C   0  0  0  0  0  0  0  0  0  0  0  0
    0.0579    3.3206   -6.0637 H   0  0  0  0  0  0  0  0  0  0  0  0
   -0.5906    5.8786   -5.6880 H   0  0  0  0  0  0  0  0  0  0  0  0
    0.7160    5.7148   -4.4665 H   0  0  0  0  0  0  0  0  0  0  0  0
    1.0700    5.4289   -6.2042 H   0  0  0  0  0  0  0  0  0  0  0  0
 22 24  2  0  0  0  0
 24 26  1  0  0  0  0
 25 26  1  0  0  0  0
 23 25  2  0  0  0  0
 21 22  1  0  0  0  0
 22 23  1  0  0  0  0
  1  3  1  0  0  0  0
  1  7  1  0  0  0  0
  1  2  2  0  0  0  0
 36 37  1  0  0  0  0
 37 45  1  0  0  0  0
 37 38  2  0  0  0  0
  8  9  1  0  0  0  0
  9 17  1  0  0  0  0
  9 10  2  0  0  0  0
 18 19  1  0  0  0  0
 19 35  1  0  0  0  0
 19 20  2  0  0  0  0
 36 39  1  0  0  0  0
  8 11  1  0  0  0  0
 45 46  1  0  0  0  0
 18 21  1  0  0  0  0
 35 36  1  0  0  0  0
  7  8  1  0  0  0  0
 17 18  1  0  0  0  0
 24 32  1  0  0  0  0
 25 33  1  0  0  0  0
  3  4  1  0  0  0  0
  3  5  1  0  0  0  0
  3  6  1  0  0  0  0
 39 42  1  0  0  0  0
 39 43  1  0  0  0  0
 39 44  1  0  0  0  0
 11 14  1  0  0  0  0
 11 15  1  0  0  0  0
 11 16  1  0  0  0  0
 46 48  1  0  0  0  0
 46 49  1  0  0  0  0
 46 50  1  0  0  0  0
 21 29  1  0  0  0  0
 21 30  1  0  0  0  0
 36 41  1  0  0  0  0
  8 13  1  0  0  0  0
 18 28  1  0  0  0  0
 26 34  1  0  0  0  0
 23 31  1  0  0  0  0
 45 47  1  0  0  0  0
  7 12  1  0  0  0  0
 35 40  1  0  0  0  0
 17 27  1  0  0  0  0
M  CHG  1  23   1
M  END
$$$$

  -OEChem-05262214473D

 50 50  0     1  0  0  0  0  0999 V2000
   -1.6938    0.4865    3.8080 C   0  0  0  0  0  0  0  0  0  0  0  0
   -0.7464   -0.1282    3.3323 O   0  0  0  0  0  0  0  0  0  0  0  0
   -2.1257    0.2041    5.2087 C   0  0  0  0  0  0  0  0  0  0  0  0
   -2.8853   -0.5922    5.2621 H   0  0  0  0  0  0  0  0  0  0  0  0
   -1.2944   -0.1435    5.8430 H   0  0  0  0  0  0  0  0  0  0  0  0
   -2.5637    1.0590    5.7483 H   0  0  0  0  0  0  0  0  0  0  0  0
   -2.4435    1.4589    3.1669 N   0  0  0  0  0  0  0  0  0  0  0  0
   -2.1966    1.8850    1.8145 C   0  0  2  0  0  0  0  0  0  0  0  0
   -0.8617    1.2996    1.3733 C   0  0  0  0  0  0  0  0  0  0  0  0
    0.0104    0.9468    2.1646 O   0  0  0  0  0  0  0  0  0  0  0  0
   -2.1879    3.4017    1.7050 C   0  0  0  0  0  0  0  0  0  0  0  0
   -3.2085    1.8948    3.6787 H   0  0  0  0  0  0  0  0  0  0  0  0
   -3.0007    1.4665    1.1994 H   0  0  0  0  0  0  0  0  0  0  0  0
   -1.3888    3.8390    2.3147 H   0  0  0  0  0  0  0  0  0  0  0  0
   -2.0284    3.7240    0.6708 H   0  0  0  0  0  0  0  0  0  0  0  0
   -3.1380    3.8230    2.0508 H   0  0  0  0  0  0  0  0  0  0  0  0
   -0.7390    1.2565   -0.0101 N   0  0  0  0  0  0  0  0  0  0  0  0
    0.4383    0.7557   -0.6738 C   0  0  2  0  0  0  0  0  0  0  0  0
    0.5630    1.5037   -1.9963 C   0  0  0  0  0  0  0  0  0  0  0  0
    1.6325    1.9332   -2.4239 O   0  0  0  0  0  0  0  0  0  0  0  0
    0.3649   -0.7555   -0.9211 C   0  0  0  0  0  0  0  0  0  0  0  0
    0.3243   -1.5549    0.3584 C   0  0  0  0  0  0  0  0  0  0  0  0
    1.4428   -1.7385    1.1352 N   0  3  0  0  0  0  0  0  0  0  0  0
   -0.6991   -2.2121    0.9809 C   0  0  0  0  0  0  0  0  0  0  0  0
    1.1282   -2.4821    2.2008 C   0  0  0  0  0  0  0  0  0  0  0  0
   -0.1732   -2.7769    2.1177 N   0  0  0  0  0  0  0  0  0  0  0  0
   -1.5221    1.5532   -0.5874 H   0  0  0  0  0  0  0  0  0  0  0  0
    1.2908    1.0130   -0.0342 H   0  0  0  0  0  0  0  0  0  0  0  0
    1.2158   -1.0824   -1.5341 H   0  0  0  0  0  0  0  0  0  0  0  0
   -0.5272   -1.0047   -1.5106 H   0  0  0  0  0  0  0  0  0  0  0  0
    2.3682   -1.3695    0.9346 H   0  0  0  0  0  0  0  0  0  0  0  0
   -1.7413   -2.3705    0.7871 H   0  0  0  0  0  0  0  0  0  0  0  0
    1.8015   -2.7888    2.9837 H   0  0  0  0  0  0  0  0  0  0  0  0
   -0.6907   -3.3335    2.7923 H   0  0  0  0  0  0  0  0  0  0  0  0
   -0.6520    1.5887   -2.6618 N   0  0  0  0  0  0  0  0  0  0  0  0
   -0.8090    2.2271   -3.9489 C   0  0  2  0  0  0  0  0  0  0  0  0
   -0.1608    3.6032   -3.8734 C   0  0  0  0  0  0  0  0  0  0  0  0
    0.0230    4.2010   -2.8152 O   0  0  0  0  0  0  0  0  0  0  0  0
   -2.2753    2.3374   -4.3367 C   0  0  0  0  0  0  0  0  0  0  0  0
   -1.4723    1.1818   -2.2220 H   0  0  0  0  0  0  0  0  0  0  0  0
   -0.2714    1.6089   -4.6761 H   0  0  0  0  0  0  0  0  0  0  0  0
   -2.8302    2.9532   -3.6195 H   0  0  0  0  0  0  0  0  0  0  0  0
   -2.3911    2.7954   -5.3246 H   0  0  0  0  0  0  0  0  0  0  0  0
   -2.7473    1.3493   -4.3614 H   0  0  0  0  0  0  0  0  0  0  0  0
    0.1489    4.1038   -5.1303 N   0  0  0  0  0  0  0  0  0  0  0  0
    0.7602    5.3978   -5.3252 C   0  0  0  0  0  0  0  0  0  0  0  0
   -0.0212    3.5314   -5.9519 H   0  0  0  0  0  0  0  0  0  0  0  0
   -0.0232    6.1546   -5.4784 H   0  0  0  0  0  0  0  0  0  0  0  0
    1.3544    5.6599   -4.4373 H   0  0  0  0  0  0  0  0  0  0  0  0
    1.4154    5.3644   -6.2081 H   0  0  0  0  0  0  0  0  0  0  0  0
 22 24  2  0  0  0  0
 24 26  1  0  0  0  0
 25 26  1  0  0  0  0
 23 25  2  0  0  0  0
 21 22  1  0  0  0  0
 22 23  1  0  0  0  0
  1  3  1  0  0  0  0
  1  7  1  0  0  0  0
  1  2  2  0  0  0  0
 36 37  1  0  0  0  0
 37 45  1  0  0  0  0
 37 38  2  0  0  0  0
  8  9  1  0  0  0  0
  9 17  1  0  0  0  0
  9 10  2  0  0  0  0
 18 19  1  0  0  0  0
 19 35  1  0  0  0  0
 19 20  2  0  0  0  0
 36 39  1  0  0  0  0
  8 11  1  0  0  0  0
 45 46  1  0  0  0  0
 18 21  1  0  0  0  0
 35 36  1  0  0  0  0
  7  8  1  0  0  0  0
 17 18  1  0  0  0  0
 24 32  1  0  0  0  0
 25 33  1  0  0  0  0
  3  4  1  0  0  0  0
  3  5  1  0  0  0  0
  3  6  1  0  0  0  0
 39 42  1  0  0  0  0
 39 43  1  0  0  0  0
 39 44  1  0  0  0  0
 11 14  1  0  0  0  0
 11 15  1  0  0  0  0
 11 16  1  0  0  0  0
 46 48  1  0  0  0  0
 46 49  1  0  0  0  0
 46 50  1  0  0  0  0
 21 29  1  0  0  0  0
 21 30  1  0  0  0  0
 36 41  1  0  0  0  0
  8 13  1  0  0  0  0
 18 28  1  0  0  0  0
 26 34  1  0  0  0  0
 23 31  1  0  0  0  0
 45 47  1  0  0  0  0
  7 12  1  0  0  0  0
 35 40  1  0  0  0  0
 17 27  1  0  0  0  0
M  CHG  1  23   1
M  END
$$$$

  -OEChem-05262214473D

 50 50  0     1  0  0  0  0  0999 V2000
   -1.6938    0.4865    3.8080 C   0  0  0  0  0  0  0  0  0  0  0  0
   -0.7464   -0.1282    3.3323 O   0  0  0  0  0  0  0  0  0  0  0  0
   -2.1257    0.2041    5.2087 C   0  0  0  0  0  0  0  0  0  0  0  0
   -2.8853   -0.5922    5.2621 H   0  0  0  0  0  0  0  0  0  0  0  0
   -1.2944   -0.1435    5.8430 H   0  0  0  0  0  0  0  0  0  0  0  0
   -2.5637    1.0590    5.7483 H   0  0  0  0  0  0  0  0  0  0  0  0
   -2.4435    1.4589    3.1669 N   0  0  0  0  0  0  0  0  0  0  0  0
   -2.1966    1.8850    1.8145 C   0  0  2  0  0  0  0  0  0  0  0  0
   -0.8617    1.2996    1.3733 C   0  0  0  0  0  0  0  0  0  0  0  0
    0.0104    0.9468    2.1646 O   0  0  0  0  0  0  0  0  0  0  0  0
   -2.1879    3.4017    1.7050 C   0  0  0  0  0  0  0  0  0  0  0  0
   -3.2085    1.8948    3.6787 H   0  0  0  0  0  0  0  0  0  0  0  0
   -3.0007    1.4665    1.1994 H   0  0  0  0  0  0  0  0  0  0  0  0
   -1.3888    3.8390    2.3147 H   0  0  0  0  0  0  0  0  0  0  0  0
   -2.0284    3.7240    0.6708 H   0  0  0  0  0  0  0  0  0  0  0  0
   -3.1380    3.8230    2.0508 H   0  0  0  0  0  0  0  0  0  0  0  0
   -0.7390    1.2565   -0.0101 N   0  0  0  0  0  0  0  0  0  0  0  0
    0.4383    0.7557   -0.6738 C   0  0  2  0  0  0  0  0  0  0  0  0
    0.5630    1.5037   -1.9963 C   0  0  0  0  0  0  0  0  0  0  0  0
    1.6400    1.6987   -2.5558 O   0  0  0  0  0  0  0  0  0  0  0  0
    0.3649   -0.7555   -0.9211 C   0  0  0  0  0  0  0  0  0  0  0  0
    0.3243   -1.5549    0.3584 C   0  0  0  0  0  0  0  0  0  0  0  0
    1.4428   -1.7385    1.1352 N   0  3  0  0  0  0  0  0  0  0  0  0
   -0.6991   -2.2121    0.9809 C   0  0  0  0  0  0  0  0  0  0  0  0
    1.1282   -2.4821    2.2008 C   0  0  0  0  0  0  0  0  0  0  0  0
   -0.1732   -2.7769    2.1177 N   0  0  0  0  0  0  0  0  0  0  0  0
   -1.5221    1.5532   -0.5874 H   0  0  0  0  0  0  0  0  0  0  0  0
    1.2908    1.0130   -0.0342 H   0  0  0  0  0  0  0  0  0  0  0  0
    1.2158   -1.0824   -1.5341 H   0  0  0  0  0  0  0  0  0  0  0  0
   -0.5272   -1.0047   -1.5106 H   0  0  0  0  0  0  0  0  0  0  0  0
    2.3682   -1.3695    0.9346 H   0  0  0  0  0  0  0  0  0  0  0  0
   -1.7413   -2.3705    0.7871 H   0  0  0  0  0  0  0  0  0  0  0  0
    1.8015   -2.7888    2.9837 H   0  0  0  0  0  0  0  0  0  0  0  0
   -0.6907   -3.3335    2.7923 H   0  0  0  0  0  0  0  0  0  0  0  0
   -0.6746    1.8814   -2.4984 N   0  0  0  0  0  0  0  0  0  0  0  0
   -0.8423    2.5842   -3.7500 C   0  0  2  0  0  0  0  0  0  0  0  0
    0.1041    3.7774   -3.7499 C   0  0  0  0  0  0  0  0  0  0  0  0
    0.5486    4.2809   -2.7204 O   0  0  0  0  0  0  0  0  0  0  0  0
   -2.2824    3.0328   -3.9441 C   0  0  0  0  0  0  0  0  0  0  0  0
   -1.5042    1.6523   -1.9589 H   0  0  0  0  0  0  0  0  0  0  0  0
   -0.5532    1.8880   -4.5449 H   0  0  0  0  0  0  0  0  0  0  0  0
   -2.5901    3.7309   -3.1570 H   0  0  0  0  0  0  0  0  0  0  0  0
   -2.4139    3.5399   -4.9056 H   0  0  0  0  0  0  0  0  0  0  0  0
   -2.9648    2.1764   -3.9141 H   0  0  0  0  0  0  0  0  0  0  0  0
    0.3599    4.2408   -5.0329 N   0  0  0  0  0  0  0  0  0  0  0  0
    1.2185    5.3718   -5.2966 C   0  0  0  0  0  0  0  0  0  0  0  0
   -0.0361    3.7505   -5.8295 H   0  0  0  0  0  0  0  0  0  0  0  0
    0.6136    6.2894   -5.3422 H   0  0  0  0  0  0  0  0  0  0  0  0
    1.9624    5.4628   -4.4914 H   0  0  0  0  0  0  0  0  0  0  0  0
    1.7340    5.2245   -6.2571 H   0  0  0  0  0  0  0  0  0  0  0  0
 22 24  2  0  0  0  0
 24 26  1  0  0  0  0
 25 26  1  0  0  0  0
 23 25  2  0  0  0  0
 21 22  1  0  0  0  0
 22 23  1  0  0  0  0
  1  3  1  0  0  0  0
  1  7  1  0  0  0  0
  1  2  2  0  0  0  0
 36 37  1  0  0  0  0
 37 45  1  0  0  0  0
 37 38  2  0  0  0  0
  8  9  1  0  0  0  0
  9 17  1  0  0  0  0
  9 10  2  0  0  0  0
 18 19  1  0  0  0  0
 19 35  1  0  0  0  0
 19 20  2  0  0  0  0
 36 39  1  0  0  0  0
  8 11  1  0  0  0  0
 45 46  1  0  0  0  0
 18 21  1  0  0  0  0
 35 36  1  0  0  0  0
  7  8  1  0  0  0  0
 17 18  1  0  0  0  0
 24 32  1  0  0  0  0
 25 33  1  0  0  0  0
  3  4  1  0  0  0  0
  3  5  1  0  0  0  0
  3  6  1  0  0  0  0
 39 42  1  0  0  0  0
 39 43  1  0  0  0  0
 39 44  1  0  0  0  0
 11 14  1  0  0  0  0
 11 15  1  0  0  0  0
 11 16  1  0  0  0  0
 46 48  1  0  0  0  0
 46 49  1  0  0  0  0
 46 50  1  0  0  0  0
 21 29  1  0  0  0  0
 21 30  1  0  0  0  0
 36 41  1  0  0  0  0
  8 13  1  0  0  0  0
 18 28  1  0  0  0  0
 26 34  1  0  0  0  0
 23 31  1  0  0  0  0
 45 47  1  0  0  0  0
  7 12  1  0  0  0  0
 35 40  1  0  0  0  0
 17 27  1  0  0  0  0
M  CHG  1  23   1
M  END
$$$$

  -OEChem-05262214473D

 50 50  0     1  0  0  0  0  0999 V2000
   -1.6938    0.4865    3.8080 C   0  0  0  0  0  0  0  0  0  0  0  0
   -0.7464   -0.1282    3.3323 O   0  0  0  0  0  0  0  0  0  0  0  0
   -2.1257    0.2041    5.2087 C   0  0  0  0  0  0  0  0  0  0  0  0
   -2.8853   -0.5922    5.2621 H   0  0  0  0  0  0  0  0  0  0  0  0
   -1.2944   -0.1435    5.8430 H   0  0  0  0  0  0  0  0  0  0  0  0
   -2.5637    1.0590    5.7483 H   0  0  0  0  0  0  0  0  0  0  0  0
   -2.4435    1.4589    3.1669 N   0  0  0  0  0  0  0  0  0  0  0  0
   -2.1966    1.8850    1.8145 C   0  0  2  0  0  0  0  0  0  0  0  0
   -0.8617    1.2996    1.3733 C   0  0  0  0  0  0  0  0  0  0  0  0
    0.0104    0.9468    2.1646 O   0  0  0  0  0  0  0  0  0  0  0  0
   -2.1879    3.4017    1.7050 C   0  0  0  0  0  0  0  0  0  0  0  0
   -3.2085    1.8948    3.6787 H   0  0  0  0  0  0  0  0  0  0  0  0
   -3.0007    1.4665    1.1994 H   0  0  0  0  0  0  0  0  0  0  0  0
   -1.3888    3.8390    2.3147 H   0  0  0  0  0  0  0  0  0  0  0  0
   -2.0284    3.7240    0.6708 H   0  0  0  0  0  0  0  0  0  0  0  0
   -3.1380    3.8230    2.0508 H   0  0  0  0  0  0  0  0  0  0  0  0
   -0.7390    1.2565   -0.0101 N   0  0  0  0  0  0  0  0  0  0  0  0
    0.4383    0.7557   -0.6738 C   0  0  2  0  0  0  0  0  0  0  0  0
    0.5630    1.5037   -1.9963 C   0  0  0  0  0  0  0  0  0  0  0  0
    1.5779    1.4733   -2.6891 O   0  0  0  0  0  0  0  0  0  0  0  0
    0.3649   -0.7555   -0.9211 C   0  0  0  0  0  0  0  0  0  0  0  0
    0.3243   -1.5549    0.3584 C   0  0  0  0  0  0  0  0  0  0  0  0
    1.4428   -1.7385    1.1352 N   0  3  0  0  0  0  0  0  0  0  0  0
   -0.6991   -2.2121    0.9809 C   0  0  0  0  0  0  0  0  0  0  0  0
    1.1282   -2.4821    2.2008 C   0  0  0  0  0  0  0  0  0  0  0  0
   -0.1732   -2.7769    2.1177 N   0  0  0  0  0  0  0  0  0  0  0  0
   -1.5221    1.5532   -0.5874 H   0  0  0  0  0  0  0  0  0  0  0  0
    1.2908    1.0130   -0.0342 H   0  0  0  0  0  0  0  0  0  0  0  0
    1.2158   -1.0824   -1.5341 H   0  0  0  0  0  0  0  0  0  0  0  0
   -0.5272   -1.0047   -1.5106 H   0  0  0  0  0  0  0  0  0  0  0  0
    2.3682   -1.3695    0.9346 H   0  0  0  0  0  0  0  0  0  0  0  0
   -1.7413   -2.3705    0.7871 H   0  0  0  0  0  0  0  0  0  0  0  0
    1.8015   -2.7888    2.9837 H   0  0  0  0  0  0  0  0  0  0  0  0
   -0.6907   -3.3335    2.7923 H   0  0  0  0  0  0  0  0  0  0  0  0
   -0.6099    2.1657   -2.3314 N   0  0  0  0  0  0  0  0  0  0  0  0
   -0.7691    2.9325   -3.5462 C   0  0  2  0  0  0  0  0  0  0  0  0
    0.4149    3.8836   -3.6606 C   0  0  0  0  0  0  0  0  0  0  0  0
    1.0863    4.2381   -2.6939 O   0  0  0  0  0  0  0  0  0  0  0  0
   -2.0833    3.6977   -3.5492 C   0  0  0  0  0  0  0  0  0  0  0  0
   -1.3960    2.1085   -1.6907 H   0  0  0  0  0  0  0  0  0  0  0  0
   -0.7461    2.2181   -4.3764 H   0  0  0  0  0  0  0  0  0  0  0  0
   -2.1249    4.4184   -2.7244 H   0  0  0  0  0  0  0  0  0  0  0  0
   -2.2155    4.2554   -4.4823 H   0  0  0  0  0  0  0  0  0  0  0  0
   -2.9323    3.0147   -3.4369 H   0  0  0  0  0  0  0  0  0  0  0  0
    0.6068    4.3236   -4.9627 N   0  0  0  0  0  0  0  0  0  0  0  0
    1.6590    5.2432   -5.3278 C   0  0  0  0  0  0  0  0  0  0  0  0
    0.0142    3.9628   -5.7046 H   0  0  0  0  0  0  0  0  0  0  0  0
    1.2761    6.2736   -5.2886 H   0  0  0  0  0  0  0  0  0  0  0  0
    2.4986    5.1371   -4.6251 H   0  0  0  0  0  0  0  0  0  0  0  0
    2.0042    5.0190   -6.3479 H   0  0  0  0  0  0  0  0  0  0  0  0
 22 24  2  0  0  0  0
 24 26  1  0  0  0  0
 25 26  1  0  0  0  0
 23 25  2  0  0  0  0
 21 22  1  0  0  0  0
 22 23  1  0  0  0  0
  1  3  1  0  0  0  0
  1  7  1  0  0  0  0
  1  2  2  0  0  0  0
 36 37  1  0  0  0  0
 37 45  1  0  0  0  0
 37 38  2  0  0  0  0
  8  9  1  0  0  0  0
  9 17  1  0  0  0  0
  9 10  2  0  0  0  0
 18 19  1  0  0  0  0
 19 35  1  0  0  0  0
 19 20  2  0  0  0  0
 36 39  1  0  0  0  0
  8 11  1  0  0  0  0
 45 46  1  0  0  0  0
 18 21  1  0  0  0  0
 35 36  1  0  0  0  0
  7  8  1  0  0  0  0
 17 18  1  0  0  0  0
 24 32  1  0  0  0  0
 25 33  1  0  0  0  0
  3  4  1  0  0  0  0
  3  5  1  0  0  0  0
  3  6  1  0  0  0  0
 39 42  1  0  0  0  0
 39 43  1  0  0  0  0
 39 44  1  0  0  0  0
 11 14  1  0  0  0  0
 11 15  1  0  0  0  0
 11 16  1  0  0  0  0
 46 48  1  0  0  0  0
 46 49  1  0  0  0  0
 46 50  1  0  0  0  0
 21 29  1  0  0  0  0
 21 30  1  0  0  0  0
 36 41  1  0  0  0  0
  8 13  1  0  0  0  0
 18 28  1  0  0  0  0
 26 34  1  0  0  0  0
 23 31  1  0  0  0  0
 45 47  1  0  0  0  0
  7 12  1  0  0  0  0
 35 40  1  0  0  0  0
 17 27  1  0  0  0  0
M  CHG  1  23   1
M  END
$$$$

  -OEChem-05262214473D

 50 50  0     1  0  0  0  0  0999 V2000
   -1.6938    0.4865    3.8080 C   0  0  0  0  0  0  0  0  0  0  0  0
   -0.7464   -0.1282    3.3323 O   0  0  0  0  0  0  0  0  0  0  0  0
   -2.1257    0.2041    5.2087 C   0  0  0  0  0  0  0  0  0  0  0  0
   -2.8853   -0.5922    5.2621 H   0  0  0  0  0  0  0  0  0  0  0  0
   -1.2944   -0.1435    5.8430 H   0  0  0  0  0  0  0  0  0  0  0  0
   -2.5637    1.0590    5.7483 H   0  0  0  0  0  0  0  0  0  0  0  0
   -2.4435    1.4589    3.1669 N   0  0  0  0  0  0  0  0  0  0  0  0
   -2.1966    1.8850    1.8145 C   0  0  2  0  0  0  0  0  0  0  0  0
   -0.8617    1.2996    1.3733 C   0  0  0  0  0  0  0  0  0  0  0  0
    0.0104    0.9468    2.1646 O   0  0  0  0  0  0  0  0  0  0  0  0
   -2.1879    3.4017    1.7050 C   0  0  0  0  0  0  0  0  0  0  0  0
   -3.2085    1.8948    3.6787 H   0  0  0  0  0  0  0  0  0  0  0  0
   -3.0007    1.4665    1.1994 H   0  0  0  0  0  0  0  0  0  0  0  0
   -1.3888    3.8390    2.3147 H   0  0  0  0  0  0  0  0  0  0  0  0
   -2.0284    3.7240    0.6708 H   0  0  0  0  0  0  0  0  0  0  0  0
   -3.1380    3.8230    2.0508 H   0  0  0  0  0  0  0  0  0  0  0  0
   -0.7390    1.2565   -0.0101 N   0  0  0  0  0  0  0  0  0  0  0  0
    0.4383    0.7557   -0.6738 C   0  0  2  0  0  0  0  0  0  0  0  0
    0.5630    1.5037   -1.9963 C   0  0  0  0  0  0  0  0  0  0  0  0
    1.4504    1.2723   -2.8148 O   0  0  0  0  0  0  0  0  0  0  0  0
    0.3649   -0.7555   -0.9211 C   0  0  0  0  0  0  0  0  0  0  0  0
    0.3243   -1.5549    0.3584 C   0  0  0  0  0  0  0  0  0  0  0  0
    1.4428   -1.7385    1.1352 N   0  3  0  0  0  0  0  0  0  0  0  0
   -0.6991   -2.2121    0.9809 C   0  0  0  0  0  0  0  0  0  0  0  0
    1.1282   -2.4821    2.2008 C   0  0  0  0  0  0  0  0  0  0  0  0
   -0.1732   -2.7769    2.1177 N   0  0  0  0  0  0  0  0  0  0  0  0
   -1.5221    1.5532   -0.5874 H   0  0  0  0  0  0  0  0  0  0  0  0
    1.2908    1.0130   -0.0342 H   0  0  0  0  0  0  0  0  0  0  0  0
    1.2158   -1.0824   -1.5341 H   0  0  0  0  0  0  0  0  0  0  0  0
   -0.5272   -1.0047   -1.5106 H   0  0  0  0  0  0  0  0  0  0  0  0
    2.3682   -1.3695    0.9346 H   0  0  0  0  0  0  0  0  0  0  0  0
   -1.7413   -2.3705    0.7871 H   0  0  0  0  0  0  0  0  0  0  0  0
    1.8015   -2.7888    2.9837 H   0  0  0  0  0  0  0  0  0  0  0  0
   -0.6907   -3.3335    2.7923 H   0  0  0  0  0  0  0  0  0  0  0  0
   -0.4624    2.4223   -2.1724 N   0  0  0  0  0  0  0  0  0  0  0  0
   -0.5944    3.2481   -3.3512 C   0  0  2  0  0  0  0  0  0  0  0  0
    0.7502    3.9144   -3.6115 C   0  0  0  0  0  0  0  0  0  0  0  0
    1.5994    4.0755   -2.7375 O   0  0  0  0  0  0  0  0  0  0  0  0
   -1.6916    4.2869   -3.1791 C   0  0  0  0  0  0  0  0  0  0  0  0
   -1.1550    2.5191   -1.4357 H   0  0  0  0  0  0  0  0  0  0  0  0
   -0.8368    2.5767   -4.1821 H   0  0  0  0  0  0  0  0  0  0  0  0
   -1.4662    4.9688   -2.3510 H   0  0  0  0  0  0  0  0  0  0  0  0
   -1.8096    4.8930   -4.0834 H   0  0  0  0  0  0  0  0  0  0  0  0
   -2.6521    3.8071   -2.9624 H   0  0  0  0  0  0  0  0  0  0  0  0
    0.8728    4.3468   -4.9246 N   0  0  0  0  0  0  0  0  0  0  0  0
    2.0517    5.0207   -5.4166 C   0  0  0  0  0  0  0  0  0  0  0  0
    0.1264    4.1540   -5.5859 H   0  0  0  0  0  0  0  0  0  0  0  0
    1.9194    6.1086   -5.3213 H   0  0  0  0  0  0  0  0  0  0  0  0
    2.9264    4.7050   -4.8291 H   0  0  0  0  0  0  0  0  0  0  0  0
    2.2074    4.7617   -6.4743 H   0  0  0  0  0  0  0  0  0  0  0  0
 22 24  2  0  0  0  0
 24 26  1  0  0  0  0
 25 26  1  0  0  0  0
 23 25  2  0  0  0  0
 21 22  1  0  0  0  0
 22 23  1  0  0  0  0
  1  3  1  0  0  0  0
  1  7  1  0  0  0  0
  1  2  2  0  0  0  0
 36 37  1  0  0  0  0
 37 45  1  0  0  0  0
 37 38  2  0  0  0  0
  8  9  1  0  0  0  0
  9 17  1  0  0  0  0
  9 10  2  0  0  0  0
 18 19  1  0  0  0  0
 19 35  1  0  0  0  0
 19 20  2  0  0  0  0
 36 39  1  0  0  0  0
  8 11  1  0  0  0  0
 45 46  1  0  0  0  0
 18 21  1  0  0  0  0
 35 36  1  0  0  0  0
  7  8  1  0  0  0  0
 17 18  1  0  0  0  0
 24 32  1  0  0  0  0
 25 33  1  0  0  0  0
  3  4  1  0  0  0  0
  3  5  1  0  0  0  0
  3  6  1  0  0  0  0
 39 42  1  0  0  0  0
 39 43  1  0  0  0  0
 39 44  1  0  0  0  0
 11 14  1  0  0  0  0
 11 15  1  0  0  0  0
 11 16  1  0  0  0  0
 46 48  1  0  0  0  0
 46 49  1  0  0  0  0
 46 50  1  0  0  0  0
 21 29  1  0  0  0  0
 21 30  1  0  0  0  0
 36 41  1  0  0  0  0
  8 13  1  0  0  0  0
 18 28  1  0  0  0  0
 26 34  1  0  0  0  0
 23 31  1  0  0  0  0
 45 47  1  0  0  0  0
  7 12  1  0  0  0  0
 35 40  1  0  0  0  0
 17 27  1  0  0  0  0
M  CHG  1  23   1
M  END
$$$$

  -OEChem-05262214473D

 50 50  0     1  0  0  0  0  0999 V2000
   -1.6938    0.4865    3.8080 C   0  0  0  0  0  0  0  0  0  0  0  0
   -0.7464   -0.1282    3.3323 O   0  0  0  0  0  0  0  0  0  0  0  0
   -2.1257    0.2041    5.2087 C   0  0  0  0  0  0  0  0  0  0  0  0
   -2.8853   -0.5922    5.2621 H   0  0  0  0  0  0  0  0  0  0  0  0
   -1.2944   -0.1435    5.8430 H   0  0  0  0  0  0  0  0  0  0  0  0
   -2.5637    1.0590    5.7483 H   0  0  0  0  0  0  0  0  0  0  0  0
   -2.4435    1.4589    3.1669 N   0  0  0  0  0  0  0  0  0  0  0  0
   -2.1966    1.8850    1.8145 C   0  0  2  0  0  0  0  0  0  0  0  0
   -0.8617    1.2996    1.3733 C   0  0  0  0  0  0  0  0  0  0  0  0
    0.0104    0.9468    2.1646 O   0  0  0  0  0  0  0  0  0  0  0  0
   -2.1879    3.4017    1.7050 C   0  0  0  0  0  0  0  0  0  0  0  0
   -3.2085    1.8948    3.6787 H   0  0  0  0  0  0  0  0  0  0  0  0
   -3.0007    1.4665    1.1994 H   0  0  0  0  0  0  0  0  0  0  0  0
   -1.3888    3.8390    2.3147 H   0  0  0  0  0  0  0  0  0  0  0  0
   -2.0284    3.7240    0.6708 H   0  0  0  0  0  0  0  0  0  0  0  0
   -3.1380    3.8230    2.0508 H   0  0  0  0  0  0  0  0  0  0  0  0
   -0.7390    1.2565   -0.0101 N   0  0  0  0  0  0  0  0  0  0  0  0
    0.4383    0.7557   -0.6738 C   0  0  2  0  0  0  0  0  0  0  0  0
    0.5630    1.5037   -1.9963 C   0  0  0  0  0  0  0  0  0  0  0  0
    1.2661    1.1094   -2.9243 O   0  0  0  0  0  0  0  0  0  0  0  0
    0.3649   -0.7555   -0.9211 C   0  0  0  0  0  0  0  0  0  0  0  0
    0.3243   -1.5549    0.3584 C   0  0  0  0  0  0  0  0  0  0  0  0
    1.4428   -1.7385    1.1352 N   0  3  0  0  0  0  0  0  0  0  0  0
   -0.6991   -2.2121    0.9809 C   0  0  0  0  0  0  0  0  0  0  0  0
    1.1282   -2.4821    2.2008 C   0  0  0  0  0  0  0  0  0  0  0  0
   -0.1732   -2.7769    2.1177 N   0  0  0  0  0  0  0  0  0  0  0  0
   -1.5221    1.5532   -0.5874 H   0  0  0  0  0  0  0  0  0  0  0  0
    1.2908    1.0130   -0.0342 H   0  0  0  0  0  0  0  0  0  0  0  0
    1.2158   -1.0824   -1.5341 H   0  0  0  0  0  0  0  0  0  0  0  0
   -0.5272   -1.0047   -1.5106 H   0  0  0  0  0  0  0  0  0  0  0  0
    2.3682   -1.3695    0.9346 H   0  0  0  0  0  0  0  0  0  0  0  0
   -1.7413   -2.3705    0.7871 H   0  0  0  0  0  0  0  0  0  0  0  0
    1.8015   -2.7888    2.9837 H   0  0  0  0  0  0  0  0  0  0  0  0
   -0.6907   -3.3335    2.7923 H   0  0  0  0  0  0  0  0  0  0  0  0
   -0.2421    2.6337   -2.0321 N   0  0  0  0  0  0  0  0  0  0  0  0
   -0.3299    3.5096   -3.1783 C   0  0  2  0  0  0  0  0  0  0  0  0
    1.0872    3.8679   -3.6060 C   0  0  0  0  0  0  0  0  0  0  0  0
    2.0529    3.8041   -2.8482 O   0  0  0  0  0  0  0  0  0  0  0  0
   -1.1339    4.7603   -2.8588 C   0  0  0  0  0  0  0  0  0  0  0  0
   -0.7977    2.8563   -1.2114 H   0  0  0  0  0  0  0  0  0  0  0  0
   -0.8194    2.9393   -3.9754 H   0  0  0  0  0  0  0  0  0  0  0  0
   -0.6589    5.3446   -2.0623 H   0  0  0  0  0  0  0  0  0  0  0  0
   -1.2236    5.4092   -3.7362 H   0  0  0  0  0  0  0  0  0  0  0  0
   -2.1433    4.4994   -2.5228 H   0  0  0  0  0  0  0  0  0  0  0  0
    1.1398    4.3086   -4.9210 N   0  0  0  0  0  0  0  0  0  0  0  0
    2.3697    4.7196   -5.5569 C   0  0  0  0  0  0  0  0  0  0  0  0
    0.2927    4.3109   -5.4815 H   0  0  0  0  0  0  0  0  0  0  0  0
    2.4995    5.8054   -5.4380 H   0  0  0  0  0  0  0  0  0  0  0  0
    3.2167    4.1958   -5.0897 H   0  0  0  0  0  0  0  0  0  0  0  0
    2.3299    4.4702   -6.6276 H   0  0  0  0  0  0  0  0  0  0  0  0
 22 24  2  0  0  0  0
 24 26  1  0  0  0  0
 25 26  1  0  0  0  0
 23 25  2  0  0  0  0
 21 22  1  0  0  0  0
 22 23  1  0  0  0  0
  1  3  1  0  0  0  0
  1  7  1  0  0  0  0
  1  2  2  0  0  0  0
 36 37  1  0  0  0  0
 37 45  1  0  0  0  0
 37 38  2  0  0  0  0
  8  9  1  0  0  0  0
  9 17  1  0  0  0  0
  9 10  2  0  0  0  0
 18 19  1  0  0  0  0
 19 35  1  0  0  0  0
 19 20  2  0  0  0  0
 36 39  1  0  0  0  0
  8 11  1  0  0  0  0
 45 46  1  0  0  0  0
 18 21  1  0  0  0  0
 35 36  1  0  0  0  0
  7  8  1  0  0  0  0
 17 18  1  0  0  0  0
 24 32  1  0  0  0  0
 25 33  1  0  0  0  0
  3  4  1  0  0  0  0
  3  5  1  0  0  0  0
  3  6  1  0  0  0  0
 39 42  1  0  0  0  0
 39 43  1  0  0  0  0
 39 44  1  0  0  0  0
 11 14  1  0  0  0  0
 11 15  1  0  0  0  0
 11 16  1  0  0  0  0
 46 48  1  0  0  0  0
 46 49  1  0  0  0  0
 46 50  1  0  0  0  0
 21 29  1  0  0  0  0
 21 30  1  0  0  0  0
 36 41  1  0  0  0  0
  8 13  1  0  0  0  0
 18 28  1  0  0  0  0
 26 34  1  0  0  0  0
 23 31  1  0  0  0  0
 45 47  1  0  0  0  0
  7 12  1  0  0  0  0
 35 40  1  0  0  0  0
 17 27  1  0  0  0  0
M  CHG  1  23   1
M  END
$$$$

  -OEChem-05262214473D

 50 50  0     1  0  0  0  0  0999 V2000
   -1.6938    0.4865    3.8080 C   0  0  0  0  0  0  0  0  0  0  0  0
   -0.7464   -0.1282    3.3323 O   0  0  0  0  0  0  0  0  0  0  0  0
   -2.1257    0.2041    5.2087 C   0  0  0  0  0  0  0  0  0  0  0  0
   -2.8853   -0.5922    5.2621 H   0  0  0  0  0  0  0  0  0  0  0  0
   -1.2944   -0.1435    5.8430 H   0  0  0  0  0  0  0  0  0  0  0  0
   -2.5637    1.0590    5.7483 H   0  0  0  0  0  0  0  0  0  0  0  0
   -2.4435    1.4589    3.1669 N   0  0  0  0  0  0  0  0  0  0  0  0
   -2.1966    1.8850    1.8145 C   0  0  2  0  0  0  0  0  0  0  0  0
   -0.8617    1.2996    1.3733 C   0  0  0  0  0  0  0  0  0  0  0  0
    0.0104    0.9468    2.1646 O   0  0  0  0  0  0  0  0  0  0  0  0
   -2.1879    3.4017    1.7050 C   0  0  0  0  0  0  0  0  0  0  0  0
   -3.2085    1.8948    3.6787 H   0  0  0  0  0  0  0  0  0  0  0  0
   -3.0007    1.4665    1.1994 H   0  0  0  0  0  0  0  0  0  0  0  0
   -1.3888    3.8390    2.3147 H   0  0  0  0  0  0  0  0  0  0  0  0
   -2.0284    3.7240    0.6708 H   0  0  0  0  0  0  0  0  0  0  0  0
   -3.1380    3.8230    2.0508 H   0  0  0  0  0  0  0  0  0  0  0  0
   -0.7390    1.2565   -0.0101 N   0  0  0  0  0  0  0  0  0  0  0  0
    0.4383    0.7557   -0.6738 C   0  0  2  0  0  0  0  0  0  0  0  0
    0.5630    1.5037   -1.9963 C   0  0  0  0  0  0  0  0  0  0  0  0
    1.0377    0.9959   -3.0101 O   0  0  0  0  0  0  0  0  0  0  0  0
    0.3649   -0.7555   -0.9211 C   0  0  0  0  0  0  0  0  0  0  0  0
    0.3243   -1.5549    0.3584 C   0  0  0  0  0  0  0  0  0  0  0  0
    1.4428   -1.7385    1.1352 N   0  3  0  0  0  0  0  0  0  0  0  0
   -0.6991   -2.2121    0.9809 C   0  0  0  0  0  0  0  0  0  0  0  0
    1.1282   -2.4821    2.2008 C   0  0  0  0  0  0  0  0  0  0  0  0
   -0.1732   -2.7769    2.1177 N   0  0  0  0  0  0  0  0  0  0  0  0
   -1.5221    1.5532   -0.5874 H   0  0  0  0  0  0  0  0  0  0  0  0
    1.2908    1.0130   -0.0342 H   0  0  0  0  0  0  0  0  0  0  0  0
    1.2158   -1.0824   -1.5341 H   0  0  0  0  0  0  0  0  0  0  0  0
   -0.5272   -1.0047   -1.5106 H   0  0  0  0  0  0  0  0  0  0  0  0
    2.3682   -1.3695    0.9346 H   0  0  0  0  0  0  0  0  0  0  0  0
   -1.7413   -2.3705    0.7871 H   0  0  0  0  0  0  0  0  0  0  0  0
    1.8015   -2.7888    2.9837 H   0  0  0  0  0  0  0  0  0  0  0  0
   -0.6907   -3.3335    2.7923 H   0  0  0  0  0  0  0  0  0  0  0  0
    0.0359    2.7854   -1.9201 N   0  0  0  0  0  0  0  0  0  0  0  0
    0.0062    3.6991   -3.0394 C   0  0  2  0  0  0  0  0  0  0  0  0
    1.4030    3.7472   -3.6445 C   0  0  0  0  0  0  0  0  0  0  0  0
    2.4161    3.4425   -3.0184 O   0  0  0  0  0  0  0  0  0  0  0  0
   -0.4482    5.0855   -2.6102 C   0  0  0  0  0  0  0  0  0  0  0  0
   -0.3483    3.0969   -1.0329 H   0  0  0  0  0  0  0  0  0  0  0  0
   -0.6948    3.2813   -3.7702 H   0  0  0  0  0  0  0  0  0  0  0  0
    0.2419    5.5203   -1.8779 H   0  0  0  0  0  0  0  0  0  0  0  0
   -0.4976    5.7690   -3.4642 H   0  0  0  0  0  0  0  0  0  0  0  0
   -1.4406    5.0447   -2.1482 H   0  0  0  0  0  0  0  0  0  0  0  0
    1.3896    4.2116   -4.9523 N   0  0  0  0  0  0  0  0  0  0  0  0
    2.5915    4.3602   -5.7392 C   0  0  0  0  0  0  0  0  0  0  0  0
    0.5018    4.4230   -5.3984 H   0  0  0  0  0  0  0  0  0  0  0  0
    2.9770    5.3847   -5.6309 H   0  0  0  0  0  0  0  0  0  0  0  0
    3.3497    3.6443   -5.3891 H   0  0  0  0  0  0  0  0  0  0  0  0
    2.3633    4.1644   -6.7974 H   0  0  0  0  0  0  0  0  0  0  0  0
 22 24  2  0  0  0  0
 24 26  1  0  0  0  0
 25 26  1  0  0  0  0
 23 25  2  0  0  0  0
 21 22  1  0  0  0  0
 22 23  1  0  0  0  0
  1  3  1  0  0  0  0
  1  7  1  0  0  0  0
  1  2  2  0  0  0  0
 36 37  1  0  0  0  0
 37 45  1  0  0  0  0
 37 38  2  0  0  0  0
  8  9  1  0  0  0  0
  9 17  1  0  0  0  0
  9 10  2  0  0  0  0
 18 19  1  0  0  0  0
 19 35  1  0  0  0  0
 19 20  2  0  0  0  0
 36 39  1  0  0  0  0
  8 11  1  0  0  0  0
 45 46  1  0  0  0  0
 18 21  1  0  0  0  0
 35 36  1  0  0  0  0
  7  8  1  0  0  0  0
 17 18  1  0  0  0  0
 24 32  1  0  0  0  0
 25 33  1  0  0  0  0
  3  4  1  0  0  0  0
  3  5  1  0  0  0  0
  3  6  1  0  0  0  0
 39 42  1  0  0  0  0
 39 43  1  0  0  0  0
 39 44  1  0  0  0  0
 11 14  1  0  0  0  0
 11 15  1  0  0  0  0
 11 16  1  0  0  0  0
 46 48  1  0  0  0  0
 46 49  1  0  0  0  0
 46 50  1  0  0  0  0
 21 29  1  0  0  0  0
 21 30  1  0  0  0  0
 36 41  1  0  0  0  0
  8 13  1  0  0  0  0
 18 28  1  0  0  0  0
 26 34  1  0  0  0  0
 23 31  1  0  0  0  0
 45 47  1  0  0  0  0
  7 12  1  0  0  0  0
 35 40  1  0  0  0  0
 17 27  1  0  0  0  0
M  CHG  1  23   1
M  END
$$$$

  -OEChem-05262214473D

 50 50  0     1  0  0  0  0  0999 V2000
   -1.6938    0.4865    3.8080 C   0  0  0  0  0  0  0  0  0  0  0  0
   -0.7464   -0.1282    3.3323 O   0  0  0  0  0  0  0  0  0  0  0  0
   -2.1257    0.2041    5.2087 C   0  0  0  0  0  0  0  0  0  0  0  0
   -2.8853   -0.5922    5.2621 H   0  0  0  0  0  0  0  0  0  0  0  0
   -1.2944   -0.1435    5.8430 H   0  0  0  0  0  0  0  0  0  0  0  0
   -2.5637    1.0590    5.7483 H   0  0  0  0  0  0  0  0  0  0  0  0
   -2.4435    1.4589    3.1669 N   0  0  0  0  0  0  0  0  0  0  0  0
   -2.1966    1.8850    1.8145 C   0  0  2  0  0  0  0  0  0  0  0  0
   -0.8617    1.2996    1.3733 C   0  0  0  0  0  0  0  0  0  0  0  0
    0.0104    0.9468    2.1646 O   0  0  0  0  0  0  0  0  0  0  0  0
   -2.1879    3.4017    1.7050 C   0  0  0  0  0  0  0  0  0  0  0  0
   -3.2085    1.8948    3.6787 H   0  0  0  0  0  0  0  0  0  0  0  0
   -3.0007    1.4665    1.1994 H   0  0  0  0  0  0  0  0  0  0  0  0
   -1.3888    3.8390    2.3147 H   0  0  0  0  0  0  0  0  0  0  0  0
   -2.0284    3.7240    0.6708 H   0  0  0  0  0  0  0  0  0  0  0  0
   -3.1380    3.8230    2.0508 H   0  0  0  0  0  0  0  0  0  0  0  0
   -0.7390    1.2565   -0.0101 N   0  0  0  0  0  0  0  0  0  0  0  0
    0.4383    0.7557   -0.6738 C   0  0  2  0  0  0  0  0  0  0  0  0
    0.5630    1.5037   -1.9963 C   0  0  0  0  0  0  0  0  0  0  0  0
    0.7806    0.9392   -3.0663 O   0  0  0  0  0  0  0  0  0  0  0  0
    0.3649   -0.7555   -0.9211 C   0  0  0  0  0  0  0  0  0  0  0  0
    0.3243   -1.5549    0.3584 C   0  0  0  0  0  0  0  0  0  0  0  0
    1.4428   -1.7385    1.1352 N   0  3  0  0  0  0  0  0  0  0  0  0
   -0.6991   -2.2121    0.9809 C   0  0  0  0  0  0  0  0  0  0  0  0
    1.1282   -2.4821    2.2008 C   0  0  0  0  0  0  0  0  0  0  0  0
   -0.1732   -2.7769    2.1177 N   0  0  0  0  0  0  0  0  0  0  0  0
   -1.5221    1.5532   -0.5874 H   0  0  0  0  0  0  0  0  0  0  0  0
    1.2908    1.0130   -0.0342 H   0  0  0  0  0  0  0  0  0  0  0  0
    1.2158   -1.0824   -1.5341 H   0  0  0  0  0  0  0  0  0  0  0  0
   -0.5272   -1.0047   -1.5106 H   0  0  0  0  0  0  0  0  0  0  0  0
    2.3682   -1.3695    0.9346 H   0  0  0  0  0  0  0  0  0  0  0  0
   -1.7413   -2.3705    0.7871 H   0  0  0  0  0  0  0  0  0  0  0  0
    1.8015   -2.7888    2.9837 H   0  0  0  0  0  0  0  0  0  0  0  0
   -0.6907   -3.3335    2.7923 H   0  0  0  0  0  0  0  0  0  0  0  0
    0.3528    2.8672   -1.8439 N   0  0  0  0  0  0  0  0  0  0  0  0
    0.3911    3.8038   -2.9439 C   0  0  2  0  0  0  0  0  0  0  0  0
    1.6761    3.5605   -3.7243 C   0  0  0  0  0  0  0  0  0  0  0  0
    2.6640    3.0153   -3.2367 O   0  0  0  0  0  0  0  0  0  0  0  0
    0.3186    5.2404   -2.4502 C   0  0  0  0  0  0  0  0  0  0  0  0
    0.1625    3.2247   -0.9124 H   0  0  0  0  0  0  0  0  0  0  0  0
   -0.4716    3.5793   -3.5807 H   0  0  0  0  0  0  0  0  0  0  0  0
    1.1748    5.4838   -1.8106 H   0  0  0  0  0  0  0  0  0  0  0  0
    0.3189    5.9477   -3.2861 H   0  0  0  0  0  0  0  0  0  0  0  0
   -0.5918    5.4056   -1.8640 H   0  0  0  0  0  0  0  0  0  0  0  0
    1.6051    4.0626   -5.0162 N   0  0  0  0  0  0  0  0  0  0  0  0
    2.7019    3.9672   -5.9511 C   0  0  0  0  0  0  0  0  0  0  0  0
    0.7396    4.4825   -5.3423 H   0  0  0  0  0  0  0  0  0  0  0  0
    3.3193    4.8753   -5.8867 H   0  0  0  0  0  0  0  0  0  0  0  0
    3.3163    3.0881   -5.7068 H   0  0  0  0  0  0  0  0  0  0  0  0
    2.3054    3.8651   -6.9721 H   0  0  0  0  0  0  0  0  0  0  0  0
 22 24  2  0  0  0  0
 24 26  1  0  0  0  0
 25 26  1  0  0  0  0
 23 25  2  0  0  0  0
 21 22  1  0  0  0  0
 22 23  1  0  0  0  0
  1  3  1  0  0  0  0
  1  7  1  0  0  0  0
  1  2  2  0  0  0  0
 36 37  1  0  0  0  0
 37 45  1  0  0  0  0
 37 38  2  0  0  0  0
  8  9  1  0  0  0  0
  9 17  1  0  0  0  0
  9 10  2  0  0  0  0
 18 19  1  0  0  0  0
 19 35  1  0  0  0  0
 19 20  2  0  0  0  0
 36 39  1  0  0  0  0
  8 11  1  0  0  0  0
 45 46  1  0  0  0  0
 18 21  1  0  0  0  0
 35 36  1  0  0  0  0
  7  8  1  0  0  0  0
 17 18  1  0  0  0  0
 24 32  1  0  0  0  0
 25 33  1  0  0  0  0
  3  4  1  0  0  0  0
  3  5  1  0  0  0  0
  3  6  1  0  0  0  0
 39 42  1  0  0  0  0
 39 43  1  0  0  0  0
 39 44  1  0  0  0  0
 11 14  1  0  0  0  0
 11 15  1  0  0  0  0
 11 16  1  0  0  0  0
 46 48  1  0  0  0  0
 46 49  1  0  0  0  0
 46 50  1  0  0  0  0
 21 29  1  0  0  0  0
 21 30  1  0  0  0  0
 36 41  1  0  0  0  0
  8 13  1  0  0  0  0
 18 28  1  0  0  0  0
 26 34  1  0  0  0  0
 23 31  1  0  0  0  0
 45 47  1  0  0  0  0
  7 12  1  0  0  0  0
 35 40  1  0  0  0  0
 17 27  1  0  0  0  0
M  CHG  1  23   1
M  END
$$$$

  -OEChem-05262214473D

 50 50  0     1  0  0  0  0  0999 V2000
   -1.6938    0.4865    3.8080 C   0  0  0  0  0  0  0  0  0  0  0  0
   -0.7464   -0.1282    3.3323 O   0  0  0  0  0  0  0  0  0  0  0  0
   -2.1257    0.2041    5.2087 C   0  0  0  0  0  0  0  0  0  0  0  0
   -2.8853   -0.5922    5.2621 H   0  0  0  0  0  0  0  0  0  0  0  0
   -1.2944   -0.1435    5.8430 H   0  0  0  0  0  0  0  0  0  0  0  0
   -2.5637    1.0590    5.7483 H   0  0  0  0  0  0  0  0  0  0  0  0
   -2.4435    1.4589    3.1669 N   0  0  0  0  0  0  0  0  0  0  0  0
   -2.1966    1.8850    1.8145 C   0  0  2  0  0  0  0  0  0  0  0  0
   -0.8617    1.2996    1.3733 C   0  0  0  0  0  0  0  0  0  0  0  0
    0.0104    0.9468    2.1646 O   0  0  0  0  0  0  0  0  0  0  0  0
   -2.1879    3.4017    1.7050 C   0  0  0  0  0  0  0  0  0  0  0  0
   -3.2085    1.8948    3.6787 H   0  0  0  0  0  0  0  0  0  0  0  0
   -3.0007    1.4665    1.1994 H   0  0  0  0  0  0  0  0  0  0  0  0
   -1.3888    3.8390    2.3147 H   0  0  0  0  0  0  0  0  0  0  0  0
   -2.0284    3.7240    0.6708 H   0  0  0  0  0  0  0  0  0  0  0  0
   -3.1380    3.8230    2.0508 H   0  0  0  0  0  0  0  0  0  0  0  0
   -0.7390    1.2565   -0.0101 N   0  0  0  0  0  0  0  0  0  0  0  0
    0.4383    0.7557   -0.6738 C   0  0  2  0  0  0  0  0  0  0  0  0
    0.5630    1.5037   -1.9963 C   0  0  0  0  0  0  0  0  0  0  0  0
    0.5125    0.9435   -3.0892 O   0  0  0  0  0  0  0  0  0  0  0  0
    0.3649   -0.7555   -0.9211 C   0  0  0  0  0  0  0  0  0  0  0  0
    0.3243   -1.5549    0.3584 C   0  0  0  0  0  0  0  0  0  0  0  0
    1.4428   -1.7385    1.1352 N   0  3  0  0  0  0  0  0  0  0  0  0
   -0.6991   -2.2121    0.9809 C   0  0  0  0  0  0  0  0  0  0  0  0
    1.1282   -2.4821    2.2008 C   0  0  0  0  0  0  0  0  0  0  0  0
   -0.1732   -2.7769    2.1177 N   0  0  0  0  0  0  0  0  0  0  0  0
   -1.5221    1.5532   -0.5874 H   0  0  0  0  0  0  0  0  0  0  0  0
    1.2908    1.0130   -0.0342 H   0  0  0  0  0  0  0  0  0  0  0  0
    1.2158   -1.0824   -1.5341 H   0  0  0  0  0  0  0  0  0  0  0  0
   -0.5272   -1.0047   -1.5106 H   0  0  0  0  0  0  0  0  0  0  0  0
    2.3682   -1.3695    0.9346 H   0  0  0  0  0  0  0  0  0  0  0  0
   -1.7413   -2.3705    0.7871 H   0  0  0  0  0  0  0  0  0  0  0  0
    1.8015   -2.7888    2.9837 H   0  0  0  0  0  0  0  0  0  0  0  0
   -0.6907   -3.3335    2.7923 H   0  0  0  0  0  0  0  0  0  0  0  0
    0.6869    2.8734   -1.8089 N   0  0  0  0  0  0  0  0  0  0  0  0
    0.7984    3.8165   -2.8984 C   0  0  2  0  0  0  0  0  0  0  0  0
    1.8878    3.3206   -3.8401 C   0  0  0  0  0  0  0  0  0  0  0  0
    2.7799    2.5516   -3.4880 O   0  0  0  0  0  0  0  0  0  0  0  0
    1.1145    5.2144   -2.3898 C   0  0  0  0  0  0  0  0  0  0  0  0
    0.6998    3.2309   -0.8583 H   0  0  0  0  0  0  0  0  0  0  0  0
   -0.1651    3.8130   -3.4196 H   0  0  0  0  0  0  0  0  0  0  0  0
    2.0764    5.2377   -1.8648 H   0  0  0  0  0  0  0  0  0  0  0  0
    1.1704    5.9332   -3.2140 H   0  0  0  0  0  0  0  0  0  0  0  0
    0.3452    5.5576   -1.6897 H   0  0  0  0  0  0  0  0  0  0  0  0
    1.7717    3.8716   -5.1086 N   0  0  0  0  0  0  0  0  0  0  0  0
    2.6933    3.5672   -6.1781 C   0  0  0  0  0  0  0  0  0  0  0  0
    0.9897    4.4854   -5.3171 H   0  0  0  0  0  0  0  0  0  0  0  0
    3.5030    4.3118   -6.1881 H   0  0  0  0  0  0  0  0  0  0  0  0
    3.1189    2.5651   -6.0212 H   0  0  0  0  0  0  0  0  0  0  0  0
    2.1601    3.5927   -7.1399 H   0  0  0  0  0  0  0  0  0  0  0  0
 22 24  2  0  0  0  0
 24 26  1  0  0  0  0
 25 26  1  0  0  0  0
 23 25  2  0  0  0  0
 21 22  1  0  0  0  0
 22 23  1  0  0  0  0
  1  3  1  0  0  0  0
  1  7  1  0  0  0  0
  1  2  2  0  0  0  0
 36 37  1  0  0  0  0
 37 45  1  0  0  0  0
 37 38  2  0  0  0  0
  8  9  1  0  0  0  0
  9 17  1  0  0  0  0
  9 10  2  0  0  0  0
 18 19  1  0  0  0  0
 19 35  1  0  0  0  0
 19 20  2  0  0  0  0
 36 39  1  0  0  0  0
  8 11  1  0  0  0  0
 45 46  1  0  0  0  0
 18 21  1  0  0  0  0
 35 36  1  0  0  0  0
  7  8  1  0  0  0  0
 17 18  1  0  0  0  0
 24 32  1  0  0  0  0
 25 33  1  0  0  0  0
  3  4  1  0  0  0  0
  3  5  1  0  0  0  0
  3  6  1  0  0  0  0
 39 42  1  0  0  0  0
 39 43  1  0  0  0  0
 39 44  1  0  0  0  0
 11 14  1  0  0  0  0
 11 15  1  0  0  0  0
 11 16  1  0  0  0  0
 46 48  1  0  0  0  0
 46 49  1  0  0  0  0
 46 50  1  0  0  0  0
 21 29  1  0  0  0  0
 21 30  1  0  0  0  0
 36 41  1  0  0  0  0
  8 13  1  0  0  0  0
 18 28  1  0  0  0  0
 26 34  1  0  0  0  0
 23 31  1  0  0  0  0
 45 47  1  0  0  0  0
  7 12  1  0  0  0  0
 35 40  1  0  0  0  0
 17 27  1  0  0  0  0
M  CHG  1  23   1
M  END
$$$$

  -OEChem-05262214473D

 50 50  0     1  0  0  0  0  0999 V2000
   -1.6938    0.4865    3.8080 C   0  0  0  0  0  0  0  0  0  0  0  0
   -0.7464   -0.1282    3.3323 O   0  0  0  0  0  0  0  0  0  0  0  0
   -2.1257    0.2041    5.2087 C   0  0  0  0  0  0  0  0  0  0  0  0
   -2.8853   -0.5922    5.2621 H   0  0  0  0  0  0  0  0  0  0  0  0
   -1.2944   -0.1435    5.8430 H   0  0  0  0  0  0  0  0  0  0  0  0
   -2.5637    1.0590    5.7483 H   0  0  0  0  0  0  0  0  0  0  0  0
   -2.4435    1.4589    3.1669 N   0  0  0  0  0  0  0  0  0  0  0  0
   -2.1966    1.8850    1.8145 C   0  0  2  0  0  0  0  0  0  0  0  0
   -0.8617    1.2996    1.3733 C   0  0  0  0  0  0  0  0  0  0  0  0
    0.0104    0.9468    2.1646 O   0  0  0  0  0  0  0  0  0  0  0  0
   -2.1879    3.4017    1.7050 C   0  0  0  0  0  0  0  0  0  0  0  0
   -3.2085    1.8948    3.6787 H   0  0  0  0  0  0  0  0  0  0  0  0
   -3.0007    1.4665    1.1994 H   0  0  0  0  0  0  0  0  0  0  0  0
   -1.3888    3.8390    2.3147 H   0  0  0  0  0  0  0  0  0  0  0  0
   -2.0284    3.7240    0.6708 H   0  0  0  0  0  0  0  0  0  0  0  0
   -3.1380    3.8230    2.0508 H   0  0  0  0  0  0  0  0  0  0  0  0
   -0.7390    1.2565   -0.0101 N   0  0  0  0  0  0  0  0  0  0  0  0
    0.4383    0.7557   -0.6738 C   0  0  2  0  0  0  0  0  0  0  0  0
    0.5630    1.5037   -1.9963 C   0  0  0  0  0  0  0  0  0  0  0  0
    0.2515    1.0082   -3.0772 O   0  0  0  0  0  0  0  0  0  0  0  0
    0.3649   -0.7555   -0.9211 C   0  0  0  0  0  0  0  0  0  0  0  0
    0.3243   -1.5549    0.3584 C   0  0  0  0  0  0  0  0  0  0  0  0
    1.4428   -1.7385    1.1352 N   0  3  0  0  0  0  0  0  0  0  0  0
   -0.6991   -2.2121    0.9809 C   0  0  0  0  0  0  0  0  0  0  0  0
    1.1282   -2.4821    2.2008 C   0  0  0  0  0  0  0  0  0  0  0  0
   -0.1732   -2.7769    2.1177 N   0  0  0  0  0  0  0  0  0  0  0  0
   -1.5221    1.5532   -0.5874 H   0  0  0  0  0  0  0  0  0  0  0  0
    1.2908    1.0130   -0.0342 H   0  0  0  0  0  0  0  0  0  0  0  0
    1.2158   -1.0824   -1.5341 H   0  0  0  0  0  0  0  0  0  0  0  0
   -0.5272   -1.0047   -1.5106 H   0  0  0  0  0  0  0  0  0  0  0  0
    2.3682   -1.3695    0.9346 H   0  0  0  0  0  0  0  0  0  0  0  0
   -1.7413   -2.3705    0.7871 H   0  0  0  0  0  0  0  0  0  0  0  0
    1.8015   -2.7888    2.9837 H   0  0  0  0  0  0  0  0  0  0  0  0
   -0.6907   -3.3335    2.7923 H   0  0  0  0  0  0  0  0  0  0  0  0
    1.0155    2.8036   -1.8174 N   0  0  0  0  0  0  0  0  0  0  0  0
    1.2005    3.7363   -2.9058 C   0  0  2  0  0  0  0  0  0  0  0  0
    2.0237    3.0437   -3.9838 C   0  0  0  0  0  0  0  0  0  0  0  0
    2.7557    2.0830   -3.7553 O   0  0  0  0  0  0  0  0  0  0  0  0
    1.8850    5.0094   -2.4331 C   0  0  0  0  0  0  0  0  0  0  0  0
    1.2271    3.1151   -0.8740 H   0  0  0  0  0  0  0  0  0  0  0  0
    0.2039    3.9665   -3.2979 H   0  0  0  0  0  0  0  0  0  0  0  0
    2.8850    4.7987   -2.0368 H   0  0  0  0  0  0  0  0  0  0  0  0
    1.9988    5.7265   -3.2528 H   0  0  0  0  0  0  0  0  0  0  0  0
    1.3066    5.4904   -1.6370 H   0  0  0  0  0  0  0  0  0  0  0  0
    1.8780    3.6516   -5.2229 N   0  0  0  0  0  0  0  0  0  0  0  0
    2.5665    3.1877   -6.4048 C   0  0  0  0  0  0  0  0  0  0  0  0
    1.2352    4.4315   -5.3244 H   0  0  0  0  0  0  0  0  0  0  0  0
    3.5157    3.7326   -6.5145 H   0  0  0  0  0  0  0  0  0  0  0  0
    2.7708    2.1109   -6.3110 H   0  0  0  0  0  0  0  0  0  0  0  0
    1.9372    3.3658   -7.2892 H   0  0  0  0  0  0  0  0  0  0  0  0
 22 24  2  0  0  0  0
 24 26  1  0  0  0  0
 25 26  1  0  0  0  0
 23 25  2  0  0  0  0
 21 22  1  0  0  0  0
 22 23  1  0  0  0  0
  1  3  1  0  0  0  0
  1  7  1  0  0  0  0
  1  2  2  0  0  0  0
 36 37  1  0  0  0  0
 37 45  1  0  0  0  0
 37 38  2  0  0  0  0
  8  9  1  0  0  0  0
  9 17  1  0  0  0  0
  9 10  2  0  0  0  0
 18 19  1  0  0  0  0
 19 35  1  0  0  0  0
 19 20  2  0  0  0  0
 36 39  1  0  0  0  0
  8 11  1  0  0  0  0
 45 46  1  0  0  0  0
 18 21  1  0  0  0  0
 35 36  1  0  0  0  0
  7  8  1  0  0  0  0
 17 18  1  0  0  0  0
 24 32  1  0  0  0  0
 25 33  1  0  0  0  0
  3  4  1  0  0  0  0
  3  5  1  0  0  0  0
  3  6  1  0  0  0  0
 39 42  1  0  0  0  0
 39 43  1  0  0  0  0
 39 44  1  0  0  0  0
 11 14  1  0  0  0  0
 11 15  1  0  0  0  0
 11 16  1  0  0  0  0
 46 48  1  0  0  0  0
 46 49  1  0  0  0  0
 46 50  1  0  0  0  0
 21 29  1  0  0  0  0
 21 30  1  0  0  0  0
 36 41  1  0  0  0  0
  8 13  1  0  0  0  0
 18 28  1  0  0  0  0
 26 34  1  0  0  0  0
 23 31  1  0  0  0  0
 45 47  1  0  0  0  0
  7 12  1  0  0  0  0
 35 40  1  0  0  0  0
 17 27  1  0  0  0  0
M  CHG  1  23   1
M  END
$$$$

  -OEChem-05262214473D

 50 50  0     1  0  0  0  0  0999 V2000
   -1.6938    0.4865    3.8080 C   0  0  0  0  0  0  0  0  0  0  0  0
   -0.7464   -0.1282    3.3323 O   0  0  0  0  0  0  0  0  0  0  0  0
   -2.1257    0.2041    5.2087 C   0  0  0  0  0  0  0  0  0  0  0  0
   -2.8853   -0.5922    5.2621 H   0  0  0  0  0  0  0  0  0  0  0  0
   -1.2944   -0.1435    5.8430 H   0  0  0  0  0  0  0  0  0  0  0  0
   -2.5637    1.0590    5.7483 H   0  0  0  0  0  0  0  0  0  0  0  0
   -2.4435    1.4589    3.1669 N   0  0  0  0  0  0  0  0  0  0  0  0
   -2.1966    1.8850    1.8145 C   0  0  2  0  0  0  0  0  0  0  0  0
   -0.8617    1.2996    1.3733 C   0  0  0  0  0  0  0  0  0  0  0  0
    0.0104    0.9468    2.1646 O   0  0  0  0  0  0  0  0  0  0  0  0
   -2.1879    3.4017    1.7050 C   0  0  0  0  0  0  0  0  0  0  0  0
   -3.2085    1.8948    3.6787 H   0  0  0  0  0  0  0  0  0  0  0  0
   -3.0007    1.4665    1.1994 H   0  0  0  0  0  0  0  0  0  0  0  0
   -1.3888    3.8390    2.3147 H   0  0  0  0  0  0  0  0  0  0  0  0
   -2.0284    3.7240    0.6708 H   0  0  0  0  0  0  0  0  0  0  0  0
   -3.1380    3.8230    2.0508 H   0  0  0  0  0  0  0  0  0  0  0  0
   -0.7390    1.2565   -0.0101 N   0  0  0  0  0  0  0  0  0  0  0  0
    0.4383    0.7557   -0.6738 C   0  0  2  0  0  0  0  0  0  0  0  0
    0.5630    1.5037   -1.9963 C   0  0  0  0  0  0  0  0  0  0  0  0
    0.0154    1.1292   -3.0311 O   0  0  0  0  0  0  0  0  0  0  0  0
    0.3649   -0.7555   -0.9211 C   0  0  0  0  0  0  0  0  0  0  0  0
    0.3243   -1.5549    0.3584 C   0  0  0  0  0  0  0  0  0  0  0  0
    1.4428   -1.7385    1.1352 N   0  3  0  0  0  0  0  0  0  0  0  0
   -0.6991   -2.2121    0.9809 C   0  0  0  0  0  0  0  0  0  0  0  0
    1.1282   -2.4821    2.2008 C   0  0  0  0  0  0  0  0  0  0  0  0
   -0.1732   -2.7769    2.1177 N   0  0  0  0  0  0  0  0  0  0  0  0
   -1.5221    1.5532   -0.5874 H   0  0  0  0  0  0  0  0  0  0  0  0
    1.2908    1.0130   -0.0342 H   0  0  0  0  0  0  0  0  0  0  0  0
    1.2158   -1.0824   -1.5341 H   0  0  0  0  0  0  0  0  0  0  0  0
   -0.5272   -1.0047   -1.5106 H   0  0  0  0  0  0  0  0  0  0  0  0
    2.3682   -1.3695    0.9346 H   0  0  0  0  0  0  0  0  0  0  0  0
   -1.7413   -2.3705    0.7871 H   0  0  0  0  0  0  0  0  0  0  0  0
    1.8015   -2.7888    2.9837 H   0  0  0  0  0  0  0  0  0  0  0  0
   -0.6907   -3.3335    2.7923 H   0  0  0  0  0  0  0  0  0  0  0  0
    1.3161    2.6626   -1.8688 N   0  0  0  0  0  0  0  0  0  0  0  0
    1.5700    3.5687   -2.9657 C   0  0  2  0  0  0  0  0  0  0  0  0
    2.0746    2.7488   -4.1458 C   0  0  0  0  0  0  0  0  0  0  0  0
    2.5933    1.6414   -4.0203 O   0  0  0  0  0  0  0  0  0  0  0  0
    2.5778    4.6393   -2.5771 C   0  0  0  0  0  0  0  0  0  0  0  0
    1.7085    2.8851   -0.9587 H   0  0  0  0  0  0  0  0  0  0  0  0
    0.6103    4.0294   -3.2240 H   0  0  0  0  0  0  0  0  0  0  0  0
    3.5457    4.1967   -2.3149 H   0  0  0  0  0  0  0  0  0  0  0  0
    2.7476    5.3417   -3.3998 H   0  0  0  0  0  0  0  0  0  0  0  0
    2.2268    5.2085   -1.7096 H   0  0  0  0  0  0  0  0  0  0  0  0
    1.9168    3.4177   -5.3516 N   0  0  0  0  0  0  0  0  0  0  0  0
    2.3299    2.8543   -6.6156 C   0  0  0  0  0  0  0  0  0  0  0  0
    1.4593    4.3245   -5.3638 H   0  0  0  0  0  0  0  0  0  0  0  0
    3.3564    3.1772   -6.8436 H   0  0  0  0  0  0  0  0  0  0  0  0
    2.2957    1.7564   -6.5562 H   0  0  0  0  0  0  0  0  0  0  0  0
    1.6520    3.1998   -7.4100 H   0  0  0  0  0  0  0  0  0  0  0  0
 22 24  2  0  0  0  0
 24 26  1  0  0  0  0
 25 26  1  0  0  0  0
 23 25  2  0  0  0  0
 21 22  1  0  0  0  0
 22 23  1  0  0  0  0
  1  3  1  0  0  0  0
  1  7  1  0  0  0  0
  1  2  2  0  0  0  0
 36 37  1  0  0  0  0
 37 45  1  0  0  0  0
 37 38  2  0  0  0  0
  8  9  1  0  0  0  0
  9 17  1  0  0  0  0
  9 10  2  0  0  0  0
 18 19  1  0  0  0  0
 19 35  1  0  0  0  0
 19 20  2  0  0  0  0
 36 39  1  0  0  0  0
  8 11  1  0  0  0  0
 45 46  1  0  0  0  0
 18 21  1  0  0  0  0
 35 36  1  0  0  0  0
  7  8  1  0  0  0  0
 17 18  1  0  0  0  0
 24 32  1  0  0  0  0
 25 33  1  0  0  0  0
  3  4  1  0  0  0  0
  3  5  1  0  0  0  0
  3  6  1  0  0  0  0
 39 42  1  0  0  0  0
 39 43  1  0  0  0  0
 39 44  1  0  0  0  0
 11 14  1  0  0  0  0
 11 15  1  0  0  0  0
 11 16  1  0  0  0  0
 46 48  1  0  0  0  0
 46 49  1  0  0  0  0
 46 50  1  0  0  0  0
 21 29  1  0  0  0  0
 21 30  1  0  0  0  0
 36 41  1  0  0  0  0
  8 13  1  0  0  0  0
 18 28  1  0  0  0  0
 26 34  1  0  0  0  0
 23 31  1  0  0  0  0
 45 47  1  0  0  0  0
  7 12  1  0  0  0  0
 35 40  1  0  0  0  0
 17 27  1  0  0  0  0
M  CHG  1  23   1
M  END
$$$$

  -OEChem-05262214473D

 50 50  0     1  0  0  0  0  0999 V2000
   -1.6938    0.4865    3.8080 C   0  0  0  0  0  0  0  0  0  0  0  0
   -0.7464   -0.1282    3.3323 O   0  0  0  0  0  0  0  0  0  0  0  0
   -2.1257    0.2041    5.2087 C   0  0  0  0  0  0  0  0  0  0  0  0
   -2.8853   -0.5922    5.2621 H   0  0  0  0  0  0  0  0  0  0  0  0
   -1.2944   -0.1435    5.8430 H   0  0  0  0  0  0  0  0  0  0  0  0
   -2.5637    1.0590    5.7483 H   0  0  0  0  0  0  0  0  0  0  0  0
   -2.4435    1.4589    3.1669 N   0  0  0  0  0  0  0  0  0  0  0  0
   -2.1966    1.8850    1.8145 C   0  0  2  0  0  0  0  0  0  0  0  0
   -0.8617    1.2996    1.3733 C   0  0  0  0  0  0  0  0  0  0  0  0
    0.0104    0.9468    2.1646 O   0  0  0  0  0  0  0  0  0  0  0  0
   -2.1879    3.4017    1.7050 C   0  0  0  0  0  0  0  0  0  0  0  0
   -3.2085    1.8948    3.6787 H   0  0  0  0  0  0  0  0  0  0  0  0
   -3.0007    1.4665    1.1994 H   0  0  0  0  0  0  0  0  0  0  0  0
   -1.3888    3.8390    2.3147 H   0  0  0  0  0  0  0  0  0  0  0  0
   -2.0284    3.7240    0.6708 H   0  0  0  0  0  0  0  0  0  0  0  0
   -3.1380    3.8230    2.0508 H   0  0  0  0  0  0  0  0  0  0  0  0
   -0.7390    1.2565   -0.0101 N   0  0  0  0  0  0  0  0  0  0  0  0
    0.4383    0.7557   -0.6738 C   0  0  2  0  0  0  0  0  0  0  0  0
    0.5630    1.5037   -1.9963 C   0  0  0  0  0  0  0  0  0  0  0  0
   -0.1795    1.2980   -2.9540 O   0  0  0  0  0  0  0  0  0  0  0  0
    0.3649   -0.7555   -0.9211 C   0  0  0  0  0  0  0  0  0  0  0  0
    0.3243   -1.5549    0.3584 C   0  0  0  0  0  0  0  0  0  0  0  0
    1.4428   -1.7385    1.1352 N   0  3  0  0  0  0  0  0  0  0  0  0
   -0.6991   -2.2121    0.9809 C   0  0  0  0  0  0  0  0  0  0  0  0
    1.1282   -2.4821    2.2008 C   0  0  0  0  0  0  0  0  0  0  0  0
   -0.1732   -2.7769    2.1177 N   0  0  0  0  0  0  0  0  0  0  0  0
   -1.5221    1.5532   -0.5874 H   0  0  0  0  0  0  0  0  0  0  0  0
    1.2908    1.0130   -0.0342 H   0  0  0  0  0  0  0  0  0  0  0  0
    1.2158   -1.0824   -1.5341 H   0  0  0  0  0  0  0  0  0  0  0  0
   -0.5272   -1.0047   -1.5106 H   0  0  0  0  0  0  0  0  0  0  0  0
    2.3682   -1.3695    0.9346 H   0  0  0  0  0  0  0  0  0  0  0  0
   -1.7413   -2.3705    0.7871 H   0  0  0  0  0  0  0  0  0  0  0  0
    1.8015   -2.7888    2.9837 H   0  0  0  0  0  0  0  0  0  0  0  0
   -0.6907   -3.3335    2.7923 H   0  0  0  0  0  0  0  0  0  0  0  0
    1.5683    2.4600   -1.9596 N   0  0  0  0  0  0  0  0  0  0  0  0
    1.8817    3.3252   -3.0741 C   0  0  2  0  0  0  0  0  0  0  0  0
    2.0369    2.4560   -4.3150 C   0  0  0  0  0  0  0  0  0  0  0  0
    2.3036    1.2570   -4.2651 O   0  0  0  0  0  0  0  0  0  0  0  0
    3.1456    4.1293   -2.8120 C   0  0  0  0  0  0  0  0  0  0  0  0
    2.1110    2.5568   -1.1064 H   0  0  0  0  0  0  0  0  0  0  0  0
    1.0263    3.9973   -3.2030 H   0  0  0  0  0  0  0  0  0  0  0  0
    4.0134    3.4728   -2.6802 H   0  0  0  0  0  0  0  0  0  0  0  0
    3.3658    4.8050   -3.6451 H   0  0  0  0  0  0  0  0  0  0  0  0
    3.0431    4.7312   -1.9026 H   0  0  0  0  0  0  0  0  0  0  0  0
    1.8854    3.1858   -5.4857 N   0  0  0  0  0  0  0  0  0  0  0  0
    1.9998    2.5899   -6.7963 C   0  0  0  0  0  0  0  0  0  0  0  0
    1.6467    4.1717   -5.4325 H   0  0  0  0  0  0  0  0  0  0  0  0
    3.0361    2.6835   -7.1530 H   0  0  0  0  0  0  0  0  0  0  0  0
    1.7262    1.5259   -6.7403 H   0  0  0  0  0  0  0  0  0  0  0  0
    1.3239    3.1061   -7.4939 H   0  0  0  0  0  0  0  0  0  0  0  0
 22 24  2  0  0  0  0
 24 26  1  0  0  0  0
 25 26  1  0  0  0  0
 23 25  2  0  0  0  0
 21 22  1  0  0  0  0
 22 23  1  0  0  0  0
  1  3  1  0  0  0  0
  1  7  1  0  0  0  0
  1  2  2  0  0  0  0
 36 37  1  0  0  0  0
 37 45  1  0  0  0  0
 37 38  2  0  0  0  0
  8  9  1  0  0  0  0
  9 17  1  0  0  0  0
  9 10  2  0  0  0  0
 18 19  1  0  0  0  0
 19 35  1  0  0  0  0
 19 20  2  0  0  0  0
 36 39  1  0  0  0  0
  8 11  1  0  0  0  0
 45 46  1  0  0  0  0
 18 21  1  0  0  0  0
 35 36  1  0  0  0  0
  7  8  1  0  0  0  0
 17 18  1  0  0  0  0
 24 32  1  0  0  0  0
 25 33  1  0  0  0  0
  3  4  1  0  0  0  0
  3  5  1  0  0  0  0
  3  6  1  0  0  0  0
 39 42  1  0  0  0  0
 39 43  1  0  0  0  0
 39 44  1  0  0  0  0
 11 14  1  0  0  0  0
 11 15  1  0  0  0  0
 11 16  1  0  0  0  0
 46 48  1  0  0  0  0
 46 49  1  0  0  0  0
 46 50  1  0  0  0  0
 21 29  1  0  0  0  0
 21 30  1  0  0  0  0
 36 41  1  0  0  0  0
  8 13  1  0  0  0  0
 18 28  1  0  0  0  0
 26 34  1  0  0  0  0
 23 31  1  0  0  0  0
 45 47  1  0  0  0  0
  7 12  1  0  0  0  0
 35 40  1  0  0  0  0
 17 27  1  0  0  0  0
M  CHG  1  23   1
M  END
$$$$

  -OEChem-05262214473D

 50 50  0     1  0  0  0  0  0999 V2000
   -1.6938    0.4865    3.8080 C   0  0  0  0  0  0  0  0  0  0  0  0
   -0.7464   -0.1282    3.3323 O   0  0  0  0  0  0  0  0  0  0  0  0
   -2.1257    0.2041    5.2087 C   0  0  0  0  0  0  0  0  0  0  0  0
   -2.8853   -0.5922    5.2621 H   0  0  0  0  0  0  0  0  0  0  0  0
   -1.2944   -0.1435    5.8430 H   0  0  0  0  0  0  0  0  0  0  0  0
   -2.5637    1.0590    5.7483 H   0  0  0  0  0  0  0  0  0  0  0  0
   -2.4435    1.4589    3.1669 N   0  0  0  0  0  0  0  0  0  0  0  0
   -2.1966    1.8850    1.8145 C   0  0  2  0  0  0  0  0  0  0  0  0
   -0.8617    1.2996    1.3733 C   0  0  0  0  0  0  0  0  0  0  0  0
    0.0104    0.9468    2.1646 O   0  0  0  0  0  0  0  0  0  0  0  0
   -2.1879    3.4017    1.7050 C   0  0  0  0  0  0  0  0  0  0  0  0
   -3.2085    1.8948    3.6787 H   0  0  0  0  0  0  0  0  0  0  0  0
   -3.0007    1.4665    1.1994 H   0  0  0  0  0  0  0  0  0  0  0  0
   -1.3888    3.8390    2.3147 H   0  0  0  0  0  0  0  0  0  0  0  0
   -2.0284    3.7240    0.6708 H   0  0  0  0  0  0  0  0  0  0  0  0
   -3.1380    3.8230    2.0508 H   0  0  0  0  0  0  0  0  0  0  0  0
   -0.7390    1.2565   -0.0101 N   0  0  0  0  0  0  0  0  0  0  0  0
    0.4383    0.7557   -0.6738 C   0  0  2  0  0  0  0  0  0  0  0  0
    0.5630    1.5037   -1.9963 C   0  0  0  0  0  0  0  0  0  0  0  0
   -0.3202    1.5032   -2.8512 O   0  0  0  0  0  0  0  0  0  0  0  0
    0.3649   -0.7555   -0.9211 C   0  0  0  0  0  0  0  0  0  0  0  0
    0.3243   -1.5549    0.3584 C   0  0  0  0  0  0  0  0  0  0  0  0
    1.4428   -1.7385    1.1352 N   0  3  0  0  0  0  0  0  0  0  0  0
   -0.6991   -2.2121    0.9809 C   0  0  0  0  0  0  0  0  0  0  0  0
    1.1282   -2.4821    2.2008 C   0  0  0  0  0  0  0  0  0  0  0  0
   -0.1732   -2.7769    2.1177 N   0  0  0  0  0  0  0  0  0  0  0  0
   -1.5221    1.5532   -0.5874 H   0  0  0  0  0  0  0  0  0  0  0  0
    1.2908    1.0130   -0.0342 H   0  0  0  0  0  0  0  0  0  0  0  0
    1.2158   -1.0824   -1.5341 H   0  0  0  0  0  0  0  0  0  0  0  0
   -0.5272   -1.0047   -1.5106 H   0  0  0  0  0  0  0  0  0  0  0  0
    2.3682   -1.3695    0.9346 H   0  0  0  0  0  0  0  0  0  0  0  0
   -1.7413   -2.3705    0.7871 H   0  0  0  0  0  0  0  0  0  0  0  0
    1.8015   -2.7888    2.9837 H   0  0  0  0  0  0  0  0  0  0  0  0
   -0.6907   -3.3335    2.7923 H   0  0  0  0  0  0  0  0  0  0  0  0
    1.7549    2.2097   -2.0836 N   0  0  0  0  0  0  0  0  0  0  0  0
    2.1143    3.0222   -3.2235 C   0  0  2  0  0  0  0  0  0  0  0  0
    1.9133    2.1852   -4.4798 C   0  0  0  0  0  0  0  0  0  0  0  0
    1.9063    0.9559   -4.4728 O   0  0  0  0  0  0  0  0  0  0  0  0
    3.5497    3.5141   -3.1218 C   0  0  0  0  0  0  0  0  0  0  0  0
    2.4074    2.1523   -1.3072 H   0  0  0  0  0  0  0  0  0  0  0  0
    1.4236    3.8725   -3.2361 H   0  0  0  0  0  0  0  0  0  0  0  0
    4.2563    2.6762   -3.1078 H   0  0  0  0  0  0  0  0  0  0  0  0
    3.8113    4.1529   -3.9718 H   0  0  0  0  0  0  0  0  0  0  0  0
    3.6999    4.0909   -2.2028 H   0  0  0  0  0  0  0  0  0  0  0  0
    1.7860    2.9717   -5.6161 N   0  0  0  0  0  0  0  0  0  0  0  0
    1.5986    2.4124   -6.9345 C   0  0  0  0  0  0  0  0  0  0  0  0
    1.7846    3.9835   -5.5260 H   0  0  0  0  0  0  0  0  0  0  0  0
    2.5766    2.2851   -7.4217 H   0  0  0  0  0  0  0  0  0  0  0  0
    1.1009    1.4350   -6.8507 H   0  0  0  0  0  0  0  0  0  0  0  0
    0.9753    3.0910   -7.5354 H   0  0  0  0  0  0  0  0  0  0  0  0
 22 24  2  0  0  0  0
 24 26  1  0  0  0  0
 25 26  1  0  0  0  0
 23 25  2  0  0  0  0
 21 22  1  0  0  0  0
 22 23  1  0  0  0  0
  1  3  1  0  0  0  0
  1  7  1  0  0  0  0
  1  2  2  0  0  0  0
 36 37  1  0  0  0  0
 37 45  1  0  0  0  0
 37 38  2  0  0  0  0
  8  9  1  0  0  0  0
  9 17  1  0  0  0  0
  9 10  2  0  0  0  0
 18 19  1  0  0  0  0
 19 35  1  0  0  0  0
 19 20  2  0  0  0  0
 36 39  1  0  0  0  0
  8 11  1  0  0  0  0
 45 46  1  0  0  0  0
 18 21  1  0  0  0  0
 35 36  1  0  0  0  0
  7  8  1  0  0  0  0
 17 18  1  0  0  0  0
 24 32  1  0  0  0  0
 25 33  1  0  0  0  0
  3  4  1  0  0  0  0
  3  5  1  0  0  0  0
  3  6  1  0  0  0  0
 39 42  1  0  0  0  0
 39 43  1  0  0  0  0
 39 44  1  0  0  0  0
 11 14  1  0  0  0  0
 11 15  1  0  0  0  0
 11 16  1  0  0  0  0
 46 48  1  0  0  0  0
 46 49  1  0  0  0  0
 46 50  1  0  0  0  0
 21 29  1  0  0  0  0
 21 30  1  0  0  0  0
 36 41  1  0  0  0  0
  8 13  1  0  0  0  0
 18 28  1  0  0  0  0
 26 34  1  0  0  0  0
 23 31  1  0  0  0  0
 45 47  1  0  0  0  0
  7 12  1  0  0  0  0
 35 40  1  0  0  0  0
 17 27  1  0  0  0  0
M  CHG  1  23   1
M  END
$$$$

  -OEChem-05262214473D

 50 50  0     1  0  0  0  0  0999 V2000
   -1.6938    0.4865    3.8080 C   0  0  0  0  0  0  0  0  0  0  0  0
   -0.7464   -0.1282    3.3323 O   0  0  0  0  0  0  0  0  0  0  0  0
   -2.1257    0.2041    5.2087 C   0  0  0  0  0  0  0  0  0  0  0  0
   -2.8853   -0.5922    5.2621 H   0  0  0  0  0  0  0  0  0  0  0  0
   -1.2944   -0.1435    5.8430 H   0  0  0  0  0  0  0  0  0  0  0  0
   -2.5637    1.0590    5.7483 H   0  0  0  0  0  0  0  0  0  0  0  0
   -2.4435    1.4589    3.1669 N   0  0  0  0  0  0  0  0  0  0  0  0
   -2.1966    1.8850    1.8145 C   0  0  2  0  0  0  0  0  0  0  0  0
   -0.8617    1.2996    1.3733 C   0  0  0  0  0  0  0  0  0  0  0  0
    0.0104    0.9468    2.1646 O   0  0  0  0  0  0  0  0  0  0  0  0
   -2.1879    3.4017    1.7050 C   0  0  0  0  0  0  0  0  0  0  0  0
   -3.2085    1.8948    3.6787 H   0  0  0  0  0  0  0  0  0  0  0  0
   -3.0007    1.4665    1.1994 H   0  0  0  0  0  0  0  0  0  0  0  0
   -1.3888    3.8390    2.3147 H   0  0  0  0  0  0  0  0  0  0  0  0
   -2.0284    3.7240    0.6708 H   0  0  0  0  0  0  0  0  0  0  0  0
   -3.1380    3.8230    2.0508 H   0  0  0  0  0  0  0  0  0  0  0  0
   -0.7390    1.2565   -0.0101 N   0  0  0  0  0  0  0  0  0  0  0  0
    0.4383    0.7557   -0.6738 C   0  0  2  0  0  0  0  0  0  0  0  0
    0.5630    1.5037   -1.9963 C   0  0  0  0  0  0  0  0  0  0  0  0
   -0.3969    1.7308   -2.7297 O   0  0  0  0  0  0  0  0  0  0  0  0
    0.3649   -0.7555   -0.9211 C   0  0  0  0  0  0  0  0  0  0  0  0
    0.3243   -1.5549    0.3584 C   0  0  0  0  0  0  0  0  0  0  0  0
    1.4428   -1.7385    1.1352 N   0  3  0  0  0  0  0  0  0  0  0  0
   -0.6991   -2.2121    0.9809 C   0  0  0  0  0  0  0  0  0  0  0  0
    1.1282   -2.4821    2.2008 C   0  0  0  0  0  0  0  0  0  0  0  0
   -0.1732   -2.7769    2.1177 N   0  0  0  0  0  0  0  0  0  0  0  0
   -1.5221    1.5532   -0.5874 H   0  0  0  0  0  0  0  0  0  0  0  0
    1.2908    1.0130   -0.0342 H   0  0  0  0  0  0  0  0  0  0  0  0
    1.2158   -1.0824   -1.5341 H   0  0  0  0  0  0  0  0  0  0  0  0
   -0.5272   -1.0047   -1.5106 H   0  0  0  0  0  0  0  0  0  0  0  0
    2.3682   -1.3695    0.9346 H   0  0  0  0  0  0  0  0  0  0  0  0
   -1.7413   -2.3705    0.7871 H   0  0  0  0  0  0  0  0  0  0  0  0
    1.8015   -2.7888    2.9837 H   0  0  0  0  0  0  0  0  0  0  0  0
   -0.6907   -3.3335    2.7923 H   0  0  0  0  0  0  0  0  0  0  0  0
    1.8631    1.9285   -2.2324 N   0  0  0  0  0  0  0  0  0  0  0  0
    2.2519    2.6806   -3.4037 C   0  0  2  0  0  0  0  0  0  0  0  0
    1.7122    1.9548   -4.6291 C   0  0  0  0  0  0  0  0  0  0  0  0
    1.4286    0.7587   -4.6294 O   0  0  0  0  0  0  0  0  0  0  0  0
    3.7625    2.8357   -3.4854 C   0  0  0  0  0  0  0  0  0  0  0  0
    2.5773    1.6994   -1.5474 H   0  0  0  0  0  0  0  0  0  0  0  0
    1.7752    3.6634   -3.3212 H   0  0  0  0  0  0  0  0  0  0  0  0
    4.2577    1.8614   -3.5686 H   0  0  0  0  0  0  0  0  0  0  0  0
    4.0538    3.4300   -4.3578 H   0  0  0  0  0  0  0  0  0  0  0  0
    4.1524    3.3313   -2.5897 H   0  0  0  0  0  0  0  0  0  0  0  0
    1.6253    2.7900   -5.7341 N   0  0  0  0  0  0  0  0  0  0  0  0
    1.1537    2.3340   -7.0208 C   0  0  0  0  0  0  0  0  0  0  0  0
    1.8638    3.7726   -5.6377 H   0  0  0  0  0  0  0  0  0  0  0  0
    2.0091    2.0091   -7.6313 H   0  0  0  0  0  0  0  0  0  0  0  0
    0.4625    1.4900   -6.8798 H   0  0  0  0  0  0  0  0  0  0  0  0
    0.6299    3.1555   -7.5314 H   0  0  0  0  0  0  0  0  0  0  0  0
 22 24  2  0  0  0  0
 24 26  1  0  0  0  0
 25 26  1  0  0  0  0
 23 25  2  0  0  0  0
 21 22  1  0  0  0  0
 22 23  1  0  0  0  0
  1  3  1  0  0  0  0
  1  7  1  0  0  0  0
  1  2  2  0  0  0  0
 36 37  1  0  0  0  0
 37 45  1  0  0  0  0
 37 38  2  0  0  0  0
  8  9  1  0  0  0  0
  9 17  1  0  0  0  0
  9 10  2  0  0  0  0
 18 19  1  0  0  0  0
 19 35  1  0  0  0  0
 19 20  2  0  0  0  0
 36 39  1  0  0  0  0
  8 11  1  0  0  0  0
 45 46  1  0  0  0  0
 18 21  1  0  0  0  0
 35 36  1  0  0  0  0
  7  8  1  0  0  0  0
 17 18  1  0  0  0  0
 24 32  1  0  0  0  0
 25 33  1  0  0  0  0
  3  4  1  0  0  0  0
  3  5  1  0  0  0  0
  3  6  1  0  0  0  0
 39 42  1  0  0  0  0
 39 43  1  0  0  0  0
 39 44  1  0  0  0  0
 11 14  1  0  0  0  0
 11 15  1  0  0  0  0
 11 16  1  0  0  0  0
 46 48  1  0  0  0  0
 46 49  1  0  0  0  0
 46 50  1  0  0  0  0
 21 29  1  0  0  0  0
 21 30  1  0  0  0  0
 36 41  1  0  0  0  0
  8 13  1  0  0  0  0
 18 28  1  0  0  0  0
 26 34  1  0  0  0  0
 23 31  1  0  0  0  0
 45 47  1  0  0  0  0
  7 12  1  0  0  0  0
 35 40  1  0  0  0  0
 17 27  1  0  0  0  0
M  CHG  1  23   1
M  END
$$$$

  -OEChem-05262214473D

 50 50  0     1  0  0  0  0  0999 V2000
   -1.6938    0.4865    3.8080 C   0  0  0  0  0  0  0  0  0  0  0  0
   -0.7464   -0.1282    3.3323 O   0  0  0  0  0  0  0  0  0  0  0  0
   -2.1257    0.2041    5.2087 C   0  0  0  0  0  0  0  0  0  0  0  0
   -2.8853   -0.5922    5.2621 H   0  0  0  0  0  0  0  0  0  0  0  0
   -1.2944   -0.1435    5.8430 H   0  0  0  0  0  0  0  0  0  0  0  0
   -2.5637    1.0590    5.7483 H   0  0  0  0  0  0  0  0  0  0  0  0
   -2.4435    1.4589    3.1669 N   0  0  0  0  0  0  0  0  0  0  0  0
   -2.1966    1.8850    1.8145 C   0  0  2  0  0  0  0  0  0  0  0  0
   -0.8617    1.2996    1.3733 C   0  0  0  0  0  0  0  0  0  0  0  0
    0.0104    0.9468    2.1646 O   0  0  0  0  0  0  0  0  0  0  0  0
   -2.1879    3.4017    1.7050 C   0  0  0  0  0  0  0  0  0  0  0  0
   -3.2085    1.8948    3.6787 H   0  0  0  0  0  0  0  0  0  0  0  0
   -3.0007    1.4665    1.1994 H   0  0  0  0  0  0  0  0  0  0  0  0
   -1.3888    3.8390    2.3147 H   0  0  0  0  0  0  0  0  0  0  0  0
   -2.0284    3.7240    0.6708 H   0  0  0  0  0  0  0  0  0  0  0  0
   -3.1380    3.8230    2.0508 H   0  0  0  0  0  0  0  0  0  0  0  0
   -0.7390    1.2565   -0.0101 N   0  0  0  0  0  0  0  0  0  0  0  0
    0.4383    0.7557   -0.6738 C   0  0  2  0  0  0  0  0  0  0  0  0
    0.5630    1.5037   -1.9963 C   0  0  0  0  0  0  0  0  0  0  0  0
   -0.4044    1.9653   -2.5978 O   0  0  0  0  0  0  0  0  0  0  0  0
    0.3649   -0.7555   -0.9211 C   0  0  0  0  0  0  0  0  0  0  0  0
    0.3243   -1.5549    0.3584 C   0  0  0  0  0  0  0  0  0  0  0  0
    1.4428   -1.7385    1.1352 N   0  3  0  0  0  0  0  0  0  0  0  0
   -0.6991   -2.2121    0.9809 C   0  0  0  0  0  0  0  0  0  0  0  0
    1.1282   -2.4821    2.2008 C   0  0  0  0  0  0  0  0  0  0  0  0
   -0.1732   -2.7769    2.1177 N   0  0  0  0  0  0  0  0  0  0  0  0
   -1.5221    1.5532   -0.5874 H   0  0  0  0  0  0  0  0  0  0  0  0
    1.2908    1.0130   -0.0342 H   0  0  0  0  0  0  0  0  0  0  0  0
    1.2158   -1.0824   -1.5341 H   0  0  0  0  0  0  0  0  0  0  0  0
   -0.5272   -1.0047   -1.5106 H   0  0  0  0  0  0  0  0  0  0  0  0
    2.3682   -1.3695    0.9346 H   0  0  0  0  0  0  0  0  0  0  0  0
   -1.7413   -2.3705    0.7871 H   0  0  0  0  0  0  0  0  0  0  0  0
    1.8015   -2.7888    2.9837 H   0  0  0  0  0  0  0  0  0  0  0  0
   -0.6907   -3.3335    2.7923 H   0  0  0  0  0  0  0  0  0  0  0  0
    1.8857    1.6358   -2.3958 N   0  0  0  0  0  0  0  0  0  0  0  0
    2.2853    2.3234   -3.6025 C   0  0  2  0  0  0  0  0  0  0  0  0
    1.4473    1.7806   -4.7526 C   0  0  0  0  0  0  0  0  0  0  0  0
    0.9030    0.6788   -4.7242 O   0  0  0  0  0  0  0  0  0  0  0  0
    3.7697    2.1404   -3.8780 C   0  0  0  0  0  0  0  0  0  0  0  0
    2.6092    1.2288   -1.8105 H   0  0  0  0  0  0  0  0  0  0  0  0
    2.0570    3.3843   -3.4525 H   0  0  0  0  0  0  0  0  0  0  0  0
    4.0176    1.0837   -4.0310 H   0  0  0  0  0  0  0  0  0  0  0  0
    4.0766    2.6854   -4.7768 H   0  0  0  0  0  0  0  0  0  0  0  0
    4.3699    2.5042   -3.0370 H   0  0  0  0  0  0  0  0  0  0  0  0
    1.4143    2.6530   -5.8314 N   0  0  0  0  0  0  0  0  0  0  0  0
    0.6954    2.3600   -7.0493 C   0  0  0  0  0  0  0  0  0  0  0  0
    1.8787    3.5536   -5.7602 H   0  0  0  0  0  0  0  0  0  0  0  0
    1.3724    1.8744   -7.7676 H   0  0  0  0  0  0  0  0  0  0  0  0
   -0.1456    1.6870   -6.8257 H   0  0  0  0  0  0  0  0  0  0  0  0
    0.3113    3.2953   -7.4824 H   0  0  0  0  0  0  0  0  0  0  0  0
 22 24  2  0  0  0  0
 24 26  1  0  0  0  0
 25 26  1  0  0  0  0
 23 25  2  0  0  0  0
 21 22  1  0  0  0  0
 22 23  1  0  0  0  0
  1  3  1  0  0  0  0
  1  7  1  0  0  0  0
  1  2  2  0  0  0  0
 36 37  1  0  0  0  0
 37 45  1  0  0  0  0
 37 38  2  0  0  0  0
  8  9  1  0  0  0  0
  9 17  1  0  0  0  0
  9 10  2  0  0  0  0
 18 19  1  0  0  0  0
 19 35  1  0  0  0  0
 19 20  2  0  0  0  0
 36 39  1  0  0  0  0
  8 11  1  0  0  0  0
 45 46  1  0  0  0  0
 18 21  1  0  0  0  0
 35 36  1  0  0  0  0
  7  8  1  0  0  0  0
 17 18  1  0  0  0  0
 24 32  1  0  0  0  0
 25 33  1  0  0  0  0
  3  4  1  0  0  0  0
  3  5  1  0  0  0  0
  3  6  1  0  0  0  0
 39 42  1  0  0  0  0
 39 43  1  0  0  0  0
 39 44  1  0  0  0  0
 11 14  1  0  0  0  0
 11 15  1  0  0  0  0
 11 16  1  0  0  0  0
 46 48  1  0  0  0  0
 46 49  1  0  0  0  0
 46 50  1  0  0  0  0
 21 29  1  0  0  0  0
 21 30  1  0  0  0  0
 36 41  1  0  0  0  0
  8 13  1  0  0  0  0
 18 28  1  0  0  0  0
 26 34  1  0  0  0  0
 23 31  1  0  0  0  0
 45 47  1  0  0  0  0
  7 12  1  0  0  0  0
 35 40  1  0  0  0  0
 17 27  1  0  0  0  0
M  CHG  1  23   1
M  END
$$$$

  -OEChem-05262214473D

 50 50  0     1  0  0  0  0  0999 V2000
   -1.6938    0.4865    3.8080 C   0  0  0  0  0  0  0  0  0  0  0  0
   -0.7464   -0.1282    3.3323 O   0  0  0  0  0  0  0  0  0  0  0  0
   -2.1257    0.2041    5.2087 C   0  0  0  0  0  0  0  0  0  0  0  0
   -2.8853   -0.5922    5.2621 H   0  0  0  0  0  0  0  0  0  0  0  0
   -1.2944   -0.1435    5.8430 H   0  0  0  0  0  0  0  0  0  0  0  0
   -2.5637    1.0590    5.7483 H   0  0  0  0  0  0  0  0  0  0  0  0
   -2.4435    1.4589    3.1669 N   0  0  0  0  0  0  0  0  0  0  0  0
   -2.1966    1.8850    1.8145 C   0  0  2  0  0  0  0  0  0  0  0  0
   -0.8617    1.2996    1.3733 C   0  0  0  0  0  0  0  0  0  0  0  0
    0.0104    0.9468    2.1646 O   0  0  0  0  0  0  0  0  0  0  0  0
   -2.1879    3.4017    1.7050 C   0  0  0  0  0  0  0  0  0  0  0  0
   -3.2085    1.8948    3.6787 H   0  0  0  0  0  0  0  0  0  0  0  0
   -3.0007    1.4665    1.1994 H   0  0  0  0  0  0  0  0  0  0  0  0
   -1.3888    3.8390    2.3147 H   0  0  0  0  0  0  0  0  0  0  0  0
   -2.0284    3.7240    0.6708 H   0  0  0  0  0  0  0  0  0  0  0  0
   -3.1380    3.8230    2.0508 H   0  0  0  0  0  0  0  0  0  0  0  0
   -0.7390    1.2565   -0.0101 N   0  0  0  0  0  0  0  0  0  0  0  0
    0.4383    0.7557   -0.6738 C   0  0  2  0  0  0  0  0  0  0  0  0
    0.5630    1.5037   -1.9963 C   0  0  0  0  0  0  0  0  0  0  0  0
   -0.3424    2.1907   -2.4645 O   0  0  0  0  0  0  0  0  0  0  0  0
    0.3649   -0.7555   -0.9211 C   0  0  0  0  0  0  0  0  0  0  0  0
    0.3243   -1.5549    0.3584 C   0  0  0  0  0  0  0  0  0  0  0  0
    1.4428   -1.7385    1.1352 N   0  3  0  0  0  0  0  0  0  0  0  0
   -0.6991   -2.2121    0.9809 C   0  0  0  0  0  0  0  0  0  0  0  0
    1.1282   -2.4821    2.2008 C   0  0  0  0  0  0  0  0  0  0  0  0
   -0.1732   -2.7769    2.1177 N   0  0  0  0  0  0  0  0  0  0  0  0
   -1.5221    1.5532   -0.5874 H   0  0  0  0  0  0  0  0  0  0  0  0
    1.2908    1.0130   -0.0342 H   0  0  0  0  0  0  0  0  0  0  0  0
    1.2158   -1.0824   -1.5341 H   0  0  0  0  0  0  0  0  0  0  0  0
   -0.5272   -1.0047   -1.5106 H   0  0  0  0  0  0  0  0  0  0  0  0
    2.3682   -1.3695    0.9346 H   0  0  0  0  0  0  0  0  0  0  0  0
   -1.7413   -2.3705    0.7871 H   0  0  0  0  0  0  0  0  0  0  0  0
    1.8015   -2.7888    2.9837 H   0  0  0  0  0  0  0  0  0  0  0  0
   -0.6907   -3.3335    2.7923 H   0  0  0  0  0  0  0  0  0  0  0  0
    1.8210    1.3515   -2.5627 N   0  0  0  0  0  0  0  0  0  0  0  0
    2.2121    1.9752   -3.8064 C   0  0  2  0  0  0  0  0  0  0  0  0
    1.1366    1.6745   -4.8419 C   0  0  0  0  0  0  0  0  0  0  0  0
    0.3654    0.7216   -4.7507 O   0  0  0  0  0  0  0  0  0  0  0  0
    3.5706    1.4755   -4.2728 C   0  0  0  0  0  0  0  0  0  0  0  0
    2.5010    0.7726   -2.0787 H   0  0  0  0  0  0  0  0  0  0  0  0
    2.2498    3.0542   -3.6210 H   0  0  0  0  0  0  0  0  0  0  0  0
    3.5523    0.3963   -4.4637 H   0  0  0  0  0  0  0  0  0  0  0  0
    3.8782    1.9699   -5.2001 H   0  0  0  0  0  0  0  0  0  0  0  0
    4.3374    1.6659   -3.5142 H   0  0  0  0  0  0  0  0  0  0  0  0
    1.1674    2.5701   -5.9016 N   0  0  0  0  0  0  0  0  0  0  0  0
    0.2549    2.4886   -7.0182 C   0  0  0  0  0  0  0  0  0  0  0  0
    1.8284    3.3412   -5.8851 H   0  0  0  0  0  0  0  0  0  0  0  0
    0.7098    1.8901   -7.8212 H   0  0  0  0  0  0  0  0  0  0  0  0
   -0.6817    2.0127   -6.6921 H   0  0  0  0  0  0  0  0  0  0  0  0
    0.0412    3.5009   -7.3916 H   0  0  0  0  0  0  0  0  0  0  0  0
 22 24  2  0  0  0  0
 24 26  1  0  0  0  0
 25 26  1  0  0  0  0
 23 25  2  0  0  0  0
 21 22  1  0  0  0  0
 22 23  1  0  0  0  0
  1  3  1  0  0  0  0
  1  7  1  0  0  0  0
  1  2  2  0  0  0  0
 36 37  1  0  0  0  0
 37 45  1  0  0  0  0
 37 38  2  0  0  0  0
  8  9  1  0  0  0  0
  9 17  1  0  0  0  0
  9 10  2  0  0  0  0
 18 19  1  0  0  0  0
 19 35  1  0  0  0  0
 19 20  2  0  0  0  0
 36 39  1  0  0  0  0
  8 11  1  0  0  0  0
 45 46  1  0  0  0  0
 18 21  1  0  0  0  0
 35 36  1  0  0  0  0
  7  8  1  0  0  0  0
 17 18  1  0  0  0  0
 24 32  1  0  0  0  0
 25 33  1  0  0  0  0
  3  4  1  0  0  0  0
  3  5  1  0  0  0  0
  3  6  1  0  0  0  0
 39 42  1  0  0  0  0
 39 43  1  0  0  0  0
 39 44  1  0  0  0  0
 11 14  1  0  0  0  0
 11 15  1  0  0  0  0
 11 16  1  0  0  0  0
 46 48  1  0  0  0  0
 46 49  1  0  0  0  0
 46 50  1  0  0  0  0
 21 29  1  0  0  0  0
 21 30  1  0  0  0  0
 36 41  1  0  0  0  0
  8 13  1  0  0  0  0
 18 28  1  0  0  0  0
 26 34  1  0  0  0  0
 23 31  1  0  0  0  0
 45 47  1  0  0  0  0
  7 12  1  0  0  0  0
 35 40  1  0  0  0  0
 17 27  1  0  0  0  0
M  CHG  1  23   1
M  END
$$$$

  -OEChem-05262214473D

 50 50  0     1  0  0  0  0  0999 V2000
   -1.6938    0.4865    3.8080 C   0  0  0  0  0  0  0  0  0  0  0  0
   -0.7464   -0.1282    3.3323 O   0  0  0  0  0  0  0  0  0  0  0  0
   -2.1257    0.2041    5.2087 C   0  0  0  0  0  0  0  0  0  0  0  0
   -2.8853   -0.5922    5.2621 H   0  0  0  0  0  0  0  0  0  0  0  0
   -1.2944   -0.1435    5.8430 H   0  0  0  0  0  0  0  0  0  0  0  0
   -2.5637    1.0590    5.7483 H   0  0  0  0  0  0  0  0  0  0  0  0
   -2.4435    1.4589    3.1669 N   0  0  0  0  0  0  0  0  0  0  0  0
   -2.1966    1.8850    1.8145 C   0  0  2  0  0  0  0  0  0  0  0  0
   -0.8617    1.2996    1.3733 C   0  0  0  0  0  0  0  0  0  0  0  0
    0.0104    0.9468    2.1646 O   0  0  0  0  0  0  0  0  0  0  0  0
   -2.1879    3.4017    1.7050 C   0  0  0  0  0  0  0  0  0  0  0  0
   -3.2085    1.8948    3.6787 H   0  0  0  0  0  0  0  0  0  0  0  0
   -3.0007    1.4665    1.1994 H   0  0  0  0  0  0  0  0  0  0  0  0
   -1.3888    3.8390    2.3147 H   0  0  0  0  0  0  0  0  0  0  0  0
   -2.0284    3.7240    0.6708 H   0  0  0  0  0  0  0  0  0  0  0  0
   -3.1380    3.8230    2.0508 H   0  0  0  0  0  0  0  0  0  0  0  0
   -0.7390    1.2565   -0.0101 N   0  0  0  0  0  0  0  0  0  0  0  0
    0.4383    0.7557   -0.6738 C   0  0  2  0  0  0  0  0  0  0  0  0
    0.7794    1.7376   -1.7890 C   0  0  0  0  0  0  0  0  0  0  0  0
    0.1428    2.7698   -1.9896 O   0  0  0  0  0  0  0  0  0  0  0  0
    0.2257   -0.6498   -1.2478 C   0  0  0  0  0  0  0  0  0  0  0  0
   -0.0335   -1.6836   -0.1792 C   0  0  0  0  0  0  0  0  0  0  0  0
    0.9724   -2.1658    0.6232 N   0  3  0  0  0  0  0  0  0  0  0  0
   -1.1812   -2.3174    0.2051 C   0  0  0  0  0  0  0  0  0  0  0  0
    0.4705   -3.0661    1.4746 C   0  0  0  0  0  0  0  0  0  0  0  0
   -0.8400   -3.1672    1.2295 N   0  0  0  0  0  0  0  0  0  0  0  0
   -1.5221    1.5532   -0.5874 H   0  0  0  0  0  0  0  0  0  0  0  0
    1.2436    0.7637    0.0702 H   0  0  0  0  0  0  0  0  0  0  0  0
    1.0941   -0.9503   -1.8497 H   0  0  0  0  0  0  0  0  0  0  0  0
   -0.6231   -0.6552   -1.9444 H   0  0  0  0  0  0  0  0  0  0  0  0
    1.9483   -1.8857    0.5794 H   0  0  0  0  0  0  0  0  0  0  0  0
   -2.2091   -2.2969   -0.0982 H   0  0  0  0  0  0  0  0  0  0  0  0
    1.0221   -3.6116    2.2220 H   0  0  0  0  0  0  0  0  0  0  0  0
   -1.4818   -3.7794    1.7253 H   0  0  0  0  0  0  0  0  0  0  0  0
    1.9071    1.3474   -2.4979 N   0  0  0  0  0  0  0  0  0  0  0  0
    2.4601    2.1118   -3.5927 C   0  0  2  0  0  0  0  0  0  0  0  0
    1.3277    2.4388   -4.5572 C   0  0  0  0  0  0  0  0  0  0  0  0
    0.2874    1.7866   -4.6162 O   0  0  0  0  0  0  0  0  0  0  0  0
    3.5699    1.3468   -4.2968 C   0  0  0  0  0  0  0  0  0  0  0  0
    2.3668    0.4809   -2.2340 H   0  0  0  0  0  0  0  0  0  0  0  0
    2.8543    3.0394   -3.1635 H   0  0  0  0  0  0  0  0  0  0  0  0
    3.1939    0.4142   -4.7333 H   0  0  0  0  0  0  0  0  0  0  0  0
    4.0071    1.9386   -5.1078 H   0  0  0  0  0  0  0  0  0  0  0  0
    4.3697    1.0865   -3.5951 H   0  0  0  0  0  0  0  0  0  0  0  0
    1.6333    3.5183   -5.3742 N   0  0  0  0  0  0  0  0  0  0  0  0
    0.7256    4.0151   -6.3818 C   0  0  0  0  0  0  0  0  0  0  0  0
    2.5116    4.0114   -5.2429 H   0  0  0  0  0  0  0  0  0  0  0  0
    0.9441    3.5295   -7.3443 H   0  0  0  0  0  0  0  0  0  0  0  0
   -0.3096    3.7912   -6.0849 H   0  0  0  0  0  0  0  0  0  0  0  0
    0.8508    5.1032   -6.4835 H   0  0  0  0  0  0  0  0  0  0  0  0
 22 24  2  0  0  0  0
 24 26  1  0  0  0  0
 25 26  1  0  0  0  0
 23 25  2  0  0  0  0
 21 22  1  0  0  0  0
 22 23  1  0  0  0  0
  1  3  1  0  0  0  0
  1  7  1  0  0  0  0
  1  2  2  0  0  0  0
 36 37  1  0  0  0  0
 37 45  1  0  0  0  0
 37 38  2  0  0  0  0
  8  9  1  0  0  0  0
  9 17  1  0  0  0  0
  9 10  2  0  0  0  0
 18 19  1  0  0  0  0
 19 35  1  0  0  0  0
 19 20  2  0  0  0  0
 36 39  1  0  0  0  0
  8 11  1  0  0  0  0
 45 46  1  0  0  0  0
 18 21  1  0  0  0  0
 35 36  1  0  0  0  0
  7  8  1  0  0  0  0
 17 18  1  0  0  0  0
 24 32  1  0  0  0  0
 25 33  1  0  0  0  0
  3  4  1  0  0  0  0
  3  5  1  0  0  0  0
  3  6  1  0  0  0  0
 39 42  1  0  0  0  0
 39 43  1  0  0  0  0
 39 44  1  0  0  0  0
 11 14  1  0  0  0  0
 11 15  1  0  0  0  0
 11 16  1  0  0  0  0
 46 48  1  0  0  0  0
 46 49  1  0  0  0  0
 46 50  1  0  0  0  0
 21 29  1  0  0  0  0
 21 30  1  0  0  0  0
 36 41  1  0  0  0  0
  8 13  1  0  0  0  0
 18 28  1  0  0  0  0
 26 34  1  0  0  0  0
 23 31  1  0  0  0  0
 45 47  1  0  0  0  0
  7 12  1  0  0  0  0
 35 40  1  0  0  0  0
 17 27  1  0  0  0  0
M  CHG  1  23   1
M  END
$$$$

  -OEChem-05262214473D

 50 50  0     1  0  0  0  0  0999 V2000
   -1.6938    0.4865    3.8080 C   0  0  0  0  0  0  0  0  0  0  0  0
   -0.7464   -0.1282    3.3323 O   0  0  0  0  0  0  0  0  0  0  0  0
   -2.1257    0.2041    5.2087 C   0  0  0  0  0  0  0  0  0  0  0  0
   -2.8853   -0.5922    5.2621 H   0  0  0  0  0  0  0  0  0  0  0  0
   -1.2944   -0.1435    5.8430 H   0  0  0  0  0  0  0  0  0  0  0  0
   -2.5637    1.0590    5.7483 H   0  0  0  0  0  0  0  0  0  0  0  0
   -2.4435    1.4589    3.1669 N   0  0  0  0  0  0  0  0  0  0  0  0
   -2.1966    1.8850    1.8145 C   0  0  2  0  0  0  0  0  0  0  0  0
   -0.8617    1.2996    1.3733 C   0  0  0  0  0  0  0  0  0  0  0  0
    0.0104    0.9468    2.1646 O   0  0  0  0  0  0  0  0  0  0  0  0
   -2.1879    3.4017    1.7050 C   0  0  0  0  0  0  0  0  0  0  0  0
   -3.2085    1.8948    3.6787 H   0  0  0  0  0  0  0  0  0  0  0  0
   -3.0007    1.4665    1.1994 H   0  0  0  0  0  0  0  0  0  0  0  0
   -1.3888    3.8390    2.3147 H   0  0  0  0  0  0  0  0  0  0  0  0
   -2.0284    3.7240    0.6708 H   0  0  0  0  0  0  0  0  0  0  0  0
   -3.1380    3.8230    2.0508 H   0  0  0  0  0  0  0  0  0  0  0  0
   -0.7390    1.2565   -0.0101 N   0  0  0  0  0  0  0  0  0  0  0  0
    0.4383    0.7557   -0.6738 C   0  0  2  0  0  0  0  0  0  0  0  0
    0.7794    1.7376   -1.7890 C   0  0  0  0  0  0  0  0  0  0  0  0
    0.3316    2.8814   -1.8336 O   0  0  0  0  0  0  0  0  0  0  0  0
    0.2257   -0.6498   -1.2478 C   0  0  0  0  0  0  0  0  0  0  0  0
   -0.0335   -1.6836   -0.1792 C   0  0  0  0  0  0  0  0  0  0  0  0
    0.9724   -2.1658    0.6232 N   0  3  0  0  0  0  0  0  0  0  0  0
   -1.1812   -2.3174    0.2051 C   0  0  0  0  0  0  0  0  0  0  0  0
    0.4705   -3.0661    1.4746 C   0  0  0  0  0  0  0  0  0  0  0  0
   -0.8400   -3.1672    1.2295 N   0  0  0  0  0  0  0  0  0  0  0  0
   -1.5221    1.5532   -0.5874 H   0  0  0  0  0  0  0  0  0  0  0  0
    1.2436    0.7637    0.0702 H   0  0  0  0  0  0  0  0  0  0  0  0
    1.0941   -0.9503   -1.8497 H   0  0  0  0  0  0  0  0  0  0  0  0
   -0.6231   -0.6552   -1.9444 H   0  0  0  0  0  0  0  0  0  0  0  0
    1.9483   -1.8857    0.5794 H   0  0  0  0  0  0  0  0  0  0  0  0
   -2.2091   -2.2969   -0.0982 H   0  0  0  0  0  0  0  0  0  0  0  0
    1.0221   -3.6116    2.2220 H   0  0  0  0  0  0  0  0  0  0  0  0
   -1.4818   -3.7794    1.7253 H   0  0  0  0  0  0  0  0  0  0  0  0
    1.6806    1.1996   -2.6973 N   0  0  0  0  0  0  0  0  0  0  0  0
    2.1877    1.9278   -3.8380 C   0  0  2  0  0  0  0  0  0  0  0  0
    1.0001    2.5285   -4.5785 C   0  0  0  0  0  0  0  0  0  0  0  0
   -0.1427    2.0855   -4.4846 O   0  0  0  0  0  0  0  0  0  0  0  0
    2.9996    1.0254   -4.7542 C   0  0  0  0  0  0  0  0  0  0  0  0
    1.9996    0.2462   -2.5530 H   0  0  0  0  0  0  0  0  0  0  0  0
    2.8185    2.7325   -3.4446 H   0  0  0  0  0  0  0  0  0  0  0  0
    2.3843    0.2131   -5.1580 H   0  0  0  0  0  0  0  0  0  0  0  0
    3.4069    1.5848   -5.6028 H   0  0  0  0  0  0  0  0  0  0  0  0
    3.8360    0.5709   -4.2122 H   0  0  0  0  0  0  0  0  0  0  0  0
    1.3739    3.5905   -5.3900 N   0  0  0  0  0  0  0  0  0  0  0  0
    0.4297    4.3193   -6.2044 C   0  0  0  0  0  0  0  0  0  0  0  0
    2.3407    3.9021   -5.3914 H   0  0  0  0  0  0  0  0  0  0  0  0
    0.3917    3.8743   -7.2097 H   0  0  0  0  0  0  0  0  0  0  0  0
   -0.5677    4.2689   -5.7433 H   0  0  0  0  0  0  0  0  0  0  0  0
    0.7458    5.3702   -6.2805 H   0  0  0  0  0  0  0  0  0  0  0  0
 22 24  2  0  0  0  0
 24 26  1  0  0  0  0
 25 26  1  0  0  0  0
 23 25  2  0  0  0  0
 21 22  1  0  0  0  0
 22 23  1  0  0  0  0
  1  3  1  0  0  0  0
  1  7  1  0  0  0  0
  1  2  2  0  0  0  0
 36 37  1  0  0  0  0
 37 45  1  0  0  0  0
 37 38  2  0  0  0  0
  8  9  1  0  0  0  0
  9 17  1  0  0  0  0
  9 10  2  0  0  0  0
 18 19  1  0  0  0  0
 19 35  1  0  0  0  0
 19 20  2  0  0  0  0
 36 39  1  0  0  0  0
  8 11  1  0  0  0  0
 45 46  1  0  0  0  0
 18 21  1  0  0  0  0
 35 36  1  0  0  0  0
  7  8  1  0  0  0  0
 17 18  1  0  0  0  0
 24 32  1  0  0  0  0
 25 33  1  0  0  0  0
  3  4  1  0  0  0  0
  3  5  1  0  0  0  0
  3  6  1  0  0  0  0
 39 42  1  0  0  0  0
 39 43  1  0  0  0  0
 39 44  1  0  0  0  0
 11 14  1  0  0  0  0
 11 15  1  0  0  0  0
 11 16  1  0  0  0  0
 46 48  1  0  0  0  0
 46 49  1  0  0  0  0
 46 50  1  0  0  0  0
 21 29  1  0  0  0  0
 21 30  1  0  0  0  0
 36 41  1  0  0  0  0
  8 13  1  0  0  0  0
 18 28  1  0  0  0  0
 26 34  1  0  0  0  0
 23 31  1  0  0  0  0
 45 47  1  0  0  0  0
  7 12  1  0  0  0  0
 35 40  1  0  0  0  0
 17 27  1  0  0  0  0
M  CHG  1  23   1
M  END
$$$$

  -OEChem-05262214473D

 50 50  0     1  0  0  0  0  0999 V2000
   -1.6938    0.4865    3.8080 C   0  0  0  0  0  0  0  0  0  0  0  0
   -0.7464   -0.1282    3.3323 O   0  0  0  0  0  0  0  0  0  0  0  0
   -2.1257    0.2041    5.2087 C   0  0  0  0  0  0  0  0  0  0  0  0
   -2.8853   -0.5922    5.2621 H   0  0  0  0  0  0  0  0  0  0  0  0
   -1.2944   -0.1435    5.8430 H   0  0  0  0  0  0  0  0  0  0  0  0
   -2.5637    1.0590    5.7483 H   0  0  0  0  0  0  0  0  0  0  0  0
   -2.4435    1.4589    3.1669 N   0  0  0  0  0  0  0  0  0  0  0  0
   -2.1966    1.8850    1.8145 C   0  0  2  0  0  0  0  0  0  0  0  0
   -0.8617    1.2996    1.3733 C   0  0  0  0  0  0  0  0  0  0  0  0
    0.0104    0.9468    2.1646 O   0  0  0  0  0  0  0  0  0  0  0  0
   -2.1879    3.4017    1.7050 C   0  0  0  0  0  0  0  0  0  0  0  0
   -3.2085    1.8948    3.6787 H   0  0  0  0  0  0  0  0  0  0  0  0
   -3.0007    1.4665    1.1994 H   0  0  0  0  0  0  0  0  0  0  0  0
   -1.3888    3.8390    2.3147 H   0  0  0  0  0  0  0  0  0  0  0  0
   -2.0284    3.7240    0.6708 H   0  0  0  0  0  0  0  0  0  0  0  0
   -3.1380    3.8230    2.0508 H   0  0  0  0  0  0  0  0  0  0  0  0
   -0.7390    1.2565   -0.0101 N   0  0  0  0  0  0  0  0  0  0  0  0
    0.4383    0.7557   -0.6738 C   0  0  2  0  0  0  0  0  0  0  0  0
    0.7794    1.7376   -1.7890 C   0  0  0  0  0  0  0  0  0  0  0  0
    0.5610    2.9445   -1.7078 O   0  0  0  0  0  0  0  0  0  0  0  0
    0.2257   -0.6498   -1.2478 C   0  0  0  0  0  0  0  0  0  0  0  0
   -0.0335   -1.6836   -0.1792 C   0  0  0  0  0  0  0  0  0  0  0  0
    0.9724   -2.1658    0.6232 N   0  3  0  0  0  0  0  0  0  0  0  0
   -1.1812   -2.3174    0.2051 C   0  0  0  0  0  0  0  0  0  0  0  0
    0.4705   -3.0661    1.4746 C   0  0  0  0  0  0  0  0  0  0  0  0
   -0.8400   -3.1672    1.2295 N   0  0  0  0  0  0  0  0  0  0  0  0
   -1.5221    1.5532   -0.5874 H   0  0  0  0  0  0  0  0  0  0  0  0
    1.2436    0.7637    0.0702 H   0  0  0  0  0  0  0  0  0  0  0  0
    1.0941   -0.9503   -1.8497 H   0  0  0  0  0  0  0  0  0  0  0  0
   -0.6231   -0.6552   -1.9444 H   0  0  0  0  0  0  0  0  0  0  0  0
    1.9483   -1.8857    0.5794 H   0  0  0  0  0  0  0  0  0  0  0  0
   -2.2091   -2.2969   -0.0982 H   0  0  0  0  0  0  0  0  0  0  0  0
    1.0221   -3.6116    2.2220 H   0  0  0  0  0  0  0  0  0  0  0  0
   -1.4818   -3.7794    1.7253 H   0  0  0  0  0  0  0  0  0  0  0  0
    1.4005    1.1114   -2.8607 N   0  0  0  0  0  0  0  0  0  0  0  0
    1.8490    1.8159   -4.0402 C   0  0  2  0  0  0  0  0  0  0  0  0
    0.6971    2.6783   -4.5392 C   0  0  0  0  0  0  0  0  0  0  0  0
   -0.4796    2.4480   -4.2685 O   0  0  0  0  0  0  0  0  0  0  0  0
    2.3116    0.8495   -5.1195 C   0  0  0  0  0  0  0  0  0  0  0  0
    1.5473    0.1074   -2.8135 H   0  0  0  0  0  0  0  0  0  0  0  0
    2.6790    2.4590   -3.7281 H   0  0  0  0  0  0  0  0  0  0  0  0
    1.4934    0.1967   -5.4449 H   0  0  0  0  0  0  0  0  0  0  0  0
    2.6777    1.3854   -6.0014 H   0  0  0  0  0  0  0  0  0  0  0  0
    3.1200    0.2098   -4.7493 H   0  0  0  0  0  0  0  0  0  0  0  0
    1.1344    3.7103   -5.3578 N   0  0  0  0  0  0  0  0  0  0  0  0
    0.2311    4.6589   -5.9662 C   0  0  0  0  0  0  0  0  0  0  0  0
    2.1302    3.8375   -5.5127 H   0  0  0  0  0  0  0  0  0  0  0  0
   -0.0541    4.3041   -6.9676 H   0  0  0  0  0  0  0  0  0  0  0  0
   -0.6695    4.7593   -5.3426 H   0  0  0  0  0  0  0  0  0  0  0  0
    0.7288    5.6361   -6.0515 H   0  0  0  0  0  0  0  0  0  0  0  0
 22 24  2  0  0  0  0
 24 26  1  0  0  0  0
 25 26  1  0  0  0  0
 23 25  2  0  0  0  0
 21 22  1  0  0  0  0
 22 23  1  0  0  0  0
  1  3  1  0  0  0  0
  1  7  1  0  0  0  0
  1  2  2  0  0  0  0
 36 37  1  0  0  0  0
 37 45  1  0  0  0  0
 37 38  2  0  0  0  0
  8  9  1  0  0  0  0
  9 17  1  0  0  0  0
  9 10  2  0  0  0  0
 18 19  1  0  0  0  0
 19 35  1  0  0  0  0
 19 20  2  0  0  0  0
 36 39  1  0  0  0  0
  8 11  1  0  0  0  0
 45 46  1  0  0  0  0
 18 21  1  0  0  0  0
 35 36  1  0  0  0  0
  7  8  1  0  0  0  0
 17 18  1  0  0  0  0
 24 32  1  0  0  0  0
 25 33  1  0  0  0  0
  3  4  1  0  0  0  0
  3  5  1  0  0  0  0
  3  6  1  0  0  0  0
 39 42  1  0  0  0  0
 39 43  1  0  0  0  0
 39 44  1  0  0  0  0
 11 14  1  0  0  0  0
 11 15  1  0  0  0  0
 11 16  1  0  0  0  0
 46 48  1  0  0  0  0
 46 49  1  0  0  0  0
 46 50  1  0  0  0  0
 21 29  1  0  0  0  0
 21 30  1  0  0  0  0
 36 41  1  0  0  0  0
  8 13  1  0  0  0  0
 18 28  1  0  0  0  0
 26 34  1  0  0  0  0
 23 31  1  0  0  0  0
 45 47  1  0  0  0  0
  7 12  1  0  0  0  0
 35 40  1  0  0  0  0
 17 27  1  0  0  0  0
M  CHG  1  23   1
M  END
$$$$

  -OEChem-05262214473D

 50 50  0     1  0  0  0  0  0999 V2000
   -1.6938    0.4865    3.8080 C   0  0  0  0  0  0  0  0  0  0  0  0
   -0.7464   -0.1282    3.3323 O   0  0  0  0  0  0  0  0  0  0  0  0
   -2.1257    0.2041    5.2087 C   0  0  0  0  0  0  0  0  0  0  0  0
   -2.8853   -0.5922    5.2621 H   0  0  0  0  0  0  0  0  0  0  0  0
   -1.2944   -0.1435    5.8430 H   0  0  0  0  0  0  0  0  0  0  0  0
   -2.5637    1.0590    5.7483 H   0  0  0  0  0  0  0  0  0  0  0  0
   -2.4435    1.4589    3.1669 N   0  0  0  0  0  0  0  0  0  0  0  0
   -2.1966    1.8850    1.8145 C   0  0  2  0  0  0  0  0  0  0  0  0
   -0.8617    1.2996    1.3733 C   0  0  0  0  0  0  0  0  0  0  0  0
    0.0104    0.9468    2.1646 O   0  0  0  0  0  0  0  0  0  0  0  0
   -2.1879    3.4017    1.7050 C   0  0  0  0  0  0  0  0  0  0  0  0
   -3.2085    1.8948    3.6787 H   0  0  0  0  0  0  0  0  0  0  0  0
   -3.0007    1.4665    1.1994 H   0  0  0  0  0  0  0  0  0  0  0  0
   -1.3888    3.8390    2.3147 H   0  0  0  0  0  0  0  0  0  0  0  0
   -2.0284    3.7240    0.6708 H   0  0  0  0  0  0  0  0  0  0  0  0
   -3.1380    3.8230    2.0508 H   0  0  0  0  0  0  0  0  0  0  0  0
   -0.7390    1.2565   -0.0101 N   0  0  0  0  0  0  0  0  0  0  0  0
    0.4383    0.7557   -0.6738 C   0  0  2  0  0  0  0  0  0  0  0  0
    0.7794    1.7376   -1.7890 C   0  0  0  0  0  0  0  0  0  0  0  0
    0.8156    2.9547   -1.6210 O   0  0  0  0  0  0  0  0  0  0  0  0
    0.2257   -0.6498   -1.2478 C   0  0  0  0  0  0  0  0  0  0  0  0
   -0.0335   -1.6836   -0.1792 C   0  0  0  0  0  0  0  0  0  0  0  0
    0.9724   -2.1658    0.6232 N   0  3  0  0  0  0  0  0  0  0  0  0
   -1.1812   -2.3174    0.2051 C   0  0  0  0  0  0  0  0  0  0  0  0
    0.4705   -3.0661    1.4746 C   0  0  0  0  0  0  0  0  0  0  0  0
   -0.8400   -3.1672    1.2295 N   0  0  0  0  0  0  0  0  0  0  0  0
   -1.5221    1.5532   -0.5874 H   0  0  0  0  0  0  0  0  0  0  0  0
    1.2436    0.7637    0.0702 H   0  0  0  0  0  0  0  0  0  0  0  0
    1.0941   -0.9503   -1.8497 H   0  0  0  0  0  0  0  0  0  0  0  0
   -0.6231   -0.6552   -1.9444 H   0  0  0  0  0  0  0  0  0  0  0  0
    1.9483   -1.8857    0.5794 H   0  0  0  0  0  0  0  0  0  0  0  0
   -2.2091   -2.2969   -0.0982 H   0  0  0  0  0  0  0  0  0  0  0  0
    1.0221   -3.6116    2.2220 H   0  0  0  0  0  0  0  0  0  0  0  0
   -1.4818   -3.7794    1.7253 H   0  0  0  0  0  0  0  0  0  0  0  0
    1.0861    1.0886   -2.9769 N   0  0  0  0  0  0  0  0  0  0  0  0
    1.4668    1.7836   -4.1855 C   0  0  2  0  0  0  0  0  0  0  0  0
    0.4394    2.8782   -4.4421 C   0  0  0  0  0  0  0  0  0  0  0  0
   -0.7004    2.8494   -3.9825 O   0  0  0  0  0  0  0  0  0  0  0  0
    1.5529    0.8310   -5.3678 C   0  0  0  0  0  0  0  0  0  0  0  0
    1.0408    0.0741   -2.9978 H   0  0  0  0  0  0  0  0  0  0  0  0
    2.4452    2.2378   -3.9944 H   0  0  0  0  0  0  0  0  0  0  0  0
    0.5820    0.3662   -5.5745 H   0  0  0  0  0  0  0  0  0  0  0  0
    1.8691    1.3539   -6.2765 H   0  0  0  0  0  0  0  0  0  0  0  0
    2.2705    0.0275   -5.1695 H   0  0  0  0  0  0  0  0  0  0  0  0
    0.9311    3.8694   -5.2798 N   0  0  0  0  0  0  0  0  0  0  0  0
    0.1433    5.0107   -5.6833 C   0  0  0  0  0  0  0  0  0  0  0  0
    1.8944    3.8220   -5.5985 H   0  0  0  0  0  0  0  0  0  0  0  0
   -0.3630    4.7897   -6.6345 H   0  0  0  0  0  0  0  0  0  0  0  0
   -0.6082    5.2291   -4.9103 H   0  0  0  0  0  0  0  0  0  0  0  0
    0.8009    5.8830   -5.8121 H   0  0  0  0  0  0  0  0  0  0  0  0
 22 24  2  0  0  0  0
 24 26  1  0  0  0  0
 25 26  1  0  0  0  0
 23 25  2  0  0  0  0
 21 22  1  0  0  0  0
 22 23  1  0  0  0  0
  1  3  1  0  0  0  0
  1  7  1  0  0  0  0
  1  2  2  0  0  0  0
 36 37  1  0  0  0  0
 37 45  1  0  0  0  0
 37 38  2  0  0  0  0
  8  9  1  0  0  0  0
  9 17  1  0  0  0  0
  9 10  2  0  0  0  0
 18 19  1  0  0  0  0
 19 35  1  0  0  0  0
 19 20  2  0  0  0  0
 36 39  1  0  0  0  0
  8 11  1  0  0  0  0
 45 46  1  0  0  0  0
 18 21  1  0  0  0  0
 35 36  1  0  0  0  0
  7  8  1  0  0  0  0
 17 18  1  0  0  0  0
 24 32  1  0  0  0  0
 25 33  1  0  0  0  0
  3  4  1  0  0  0  0
  3  5  1  0  0  0  0
  3  6  1  0  0  0  0
 39 42  1  0  0  0  0
 39 43  1  0  0  0  0
 39 44  1  0  0  0  0
 11 14  1  0  0  0  0
 11 15  1  0  0  0  0
 11 16  1  0  0  0  0
 46 48  1  0  0  0  0
 46 49  1  0  0  0  0
 46 50  1  0  0  0  0
 21 29  1  0  0  0  0
 21 30  1  0  0  0  0
 36 41  1  0  0  0  0
  8 13  1  0  0  0  0
 18 28  1  0  0  0  0
 26 34  1  0  0  0  0
 23 31  1  0  0  0  0
 45 47  1  0  0  0  0
  7 12  1  0  0  0  0
 35 40  1  0  0  0  0
 17 27  1  0  0  0  0
M  CHG  1  23   1
M  END
$$$$

  -OEChem-05262214473D

 50 50  0     1  0  0  0  0  0999 V2000
   -1.6938    0.4865    3.8080 C   0  0  0  0  0  0  0  0  0  0  0  0
   -0.7464   -0.1282    3.3323 O   0  0  0  0  0  0  0  0  0  0  0  0
   -2.1257    0.2041    5.2087 C   0  0  0  0  0  0  0  0  0  0  0  0
   -2.8853   -0.5922    5.2621 H   0  0  0  0  0  0  0  0  0  0  0  0
   -1.2944   -0.1435    5.8430 H   0  0  0  0  0  0  0  0  0  0  0  0
   -2.5637    1.0590    5.7483 H   0  0  0  0  0  0  0  0  0  0  0  0
   -2.4435    1.4589    3.1669 N   0  0  0  0  0  0  0  0  0  0  0  0
   -2.1966    1.8850    1.8145 C   0  0  2  0  0  0  0  0  0  0  0  0
   -0.8617    1.2996    1.3733 C   0  0  0  0  0  0  0  0  0  0  0  0
    0.0104    0.9468    2.1646 O   0  0  0  0  0  0  0  0  0  0  0  0
   -2.1879    3.4017    1.7050 C   0  0  0  0  0  0  0  0  0  0  0  0
   -3.2085    1.8948    3.6787 H   0  0  0  0  0  0  0  0  0  0  0  0
   -3.0007    1.4665    1.1994 H   0  0  0  0  0  0  0  0  0  0  0  0
   -1.3888    3.8390    2.3147 H   0  0  0  0  0  0  0  0  0  0  0  0
   -2.0284    3.7240    0.6708 H   0  0  0  0  0  0  0  0  0  0  0  0
   -3.1380    3.8230    2.0508 H   0  0  0  0  0  0  0  0  0  0  0  0
   -0.7390    1.2565   -0.0101 N   0  0  0  0  0  0  0  0  0  0  0  0
    0.4383    0.7557   -0.6738 C   0  0  2  0  0  0  0  0  0  0  0  0
    0.7794    1.7376   -1.7890 C   0  0  0  0  0  0  0  0  0  0  0  0
    1.0779    2.9114   -1.5789 O   0  0  0  0  0  0  0  0  0  0  0  0
    0.2257   -0.6498   -1.2478 C   0  0  0  0  0  0  0  0  0  0  0  0
   -0.0335   -1.6836   -0.1792 C   0  0  0  0  0  0  0  0  0  0  0  0
    0.9724   -2.1658    0.6232 N   0  3  0  0  0  0  0  0  0  0  0  0
   -1.1812   -2.3174    0.2051 C   0  0  0  0  0  0  0  0  0  0  0  0
    0.4705   -3.0661    1.4746 C   0  0  0  0  0  0  0  0  0  0  0  0
   -0.8400   -3.1672    1.2295 N   0  0  0  0  0  0  0  0  0  0  0  0
   -1.5221    1.5532   -0.5874 H   0  0  0  0  0  0  0  0  0  0  0  0
    1.2436    0.7637    0.0702 H   0  0  0  0  0  0  0  0  0  0  0  0
    1.0941   -0.9503   -1.8497 H   0  0  0  0  0  0  0  0  0  0  0  0
   -0.6231   -0.6552   -1.9444 H   0  0  0  0  0  0  0  0  0  0  0  0
    1.9483   -1.8857    0.5794 H   0  0  0  0  0  0  0  0  0  0  0  0
   -2.2091   -2.2969   -0.0982 H   0  0  0  0  0  0  0  0  0  0  0  0
    1.0221   -3.6116    2.2220 H   0  0  0  0  0  0  0  0  0  0  0  0
   -1.4818   -3.7794    1.7253 H   0  0  0  0  0  0  0  0  0  0  0  0
    0.7587    1.1328   -3.0381 N   0  0  0  0  0  0  0  0  0  0  0  0
    1.0674    1.8332   -4.2641 C   0  0  2  0  0  0  0  0  0  0  0  0
    0.2445    3.1144   -4.2937 C   0  0  0  0  0  0  0  0  0  0  0  0
   -0.7899    3.2623   -3.6463 O   0  0  0  0  0  0  0  0  0  0  0  0
    0.7752    0.9711   -5.4824 C   0  0  0  0  0  0  0  0  0  0  0  0
    0.5144    0.1484   -3.0933 H   0  0  0  0  0  0  0  0  0  0  0  0
    2.1331    2.0837   -4.2255 H   0  0  0  0  0  0  0  0  0  0  0  0
   -0.2879    0.7100   -5.5379 H   0  0  0  0  0  0  0  0  0  0  0  0
    1.0363    1.4925   -6.4092 H   0  0  0  0  0  0  0  0  0  0  0  0
    1.3454    0.0367   -5.4444 H   0  0  0  0  0  0  0  0  0  0  0  0
    0.7778    4.0572   -5.1614 N   0  0  0  0  0  0  0  0  0  0  0  0
    0.1722    5.3509   -5.3750 C   0  0  0  0  0  0  0  0  0  0  0  0
    1.6493    3.8566   -5.6430 H   0  0  0  0  0  0  0  0  0  0  0  0
   -0.5139    5.2979   -6.2332 H   0  0  0  0  0  0  0  0  0  0  0  0
   -0.3880    5.6463   -4.4756 H   0  0  0  0  0  0  0  0  0  0  0  0
    0.9572    6.0940   -5.5786 H   0  0  0  0  0  0  0  0  0  0  0  0
 22 24  2  0  0  0  0
 24 26  1  0  0  0  0
 25 26  1  0  0  0  0
 23 25  2  0  0  0  0
 21 22  1  0  0  0  0
 22 23  1  0  0  0  0
  1  3  1  0  0  0  0
  1  7  1  0  0  0  0
  1  2  2  0  0  0  0
 36 37  1  0  0  0  0
 37 45  1  0  0  0  0
 37 38  2  0  0  0  0
  8  9  1  0  0  0  0
  9 17  1  0  0  0  0
  9 10  2  0  0  0  0
 18 19  1  0  0  0  0
 19 35  1  0  0  0  0
 19 20  2  0  0  0  0
 36 39  1  0  0  0  0
  8 11  1  0  0  0  0
 45 46  1  0  0  0  0
 18 21  1  0  0  0  0
 35 36  1  0  0  0  0
  7  8  1  0  0  0  0
 17 18  1  0  0  0  0
 24 32  1  0  0  0  0
 25 33  1  0  0  0  0
  3  4  1  0  0  0  0
  3  5  1  0  0  0  0
  3  6  1  0  0  0  0
 39 42  1  0  0  0  0
 39 43  1  0  0  0  0
 39 44  1  0  0  0  0
 11 14  1  0  0  0  0
 11 15  1  0  0  0  0
 11 16  1  0  0  0  0
 46 48  1  0  0  0  0
 46 49  1  0  0  0  0
 46 50  1  0  0  0  0
 21 29  1  0  0  0  0
 21 30  1  0  0  0  0
 36 41  1  0  0  0  0
  8 13  1  0  0  0  0
 18 28  1  0  0  0  0
 26 34  1  0  0  0  0
 23 31  1  0  0  0  0
 45 47  1  0  0  0  0
  7 12  1  0  0  0  0
 35 40  1  0  0  0  0
 17 27  1  0  0  0  0
M  CHG  1  23   1
M  END
$$$$

  -OEChem-05262214473D

 50 50  0     1  0  0  0  0  0999 V2000
   -1.6938    0.4865    3.8080 C   0  0  0  0  0  0  0  0  0  0  0  0
   -0.7464   -0.1282    3.3323 O   0  0  0  0  0  0  0  0  0  0  0  0
   -2.1257    0.2041    5.2087 C   0  0  0  0  0  0  0  0  0  0  0  0
   -2.8853   -0.5922    5.2621 H   0  0  0  0  0  0  0  0  0  0  0  0
   -1.2944   -0.1435    5.8430 H   0  0  0  0  0  0  0  0  0  0  0  0
   -2.5637    1.0590    5.7483 H   0  0  0  0  0  0  0  0  0  0  0  0
   -2.4435    1.4589    3.1669 N   0  0  0  0  0  0  0  0  0  0  0  0
   -2.1966    1.8850    1.8145 C   0  0  2  0  0  0  0  0  0  0  0  0
   -0.8617    1.2996    1.3733 C   0  0  0  0  0  0  0  0  0  0  0  0
    0.0104    0.9468    2.1646 O   0  0  0  0  0  0  0  0  0  0  0  0
   -2.1879    3.4017    1.7050 C   0  0  0  0  0  0  0  0  0  0  0  0
   -3.2085    1.8948    3.6787 H   0  0  0  0  0  0  0  0  0  0  0  0
   -3.0007    1.4665    1.1994 H   0  0  0  0  0  0  0  0  0  0  0  0
   -1.3888    3.8390    2.3147 H   0  0  0  0  0  0  0  0  0  0  0  0
   -2.0284    3.7240    0.6708 H   0  0  0  0  0  0  0  0  0  0  0  0
   -3.1380    3.8230    2.0508 H   0  0  0  0  0  0  0  0  0  0  0  0
   -0.7390    1.2565   -0.0101 N   0  0  0  0  0  0  0  0  0  0  0  0
    0.4383    0.7557   -0.6738 C   0  0  2  0  0  0  0  0  0  0  0  0
    0.7794    1.7376   -1.7890 C   0  0  0  0  0  0  0  0  0  0  0  0
    1.3301    2.8174   -1.5846 O   0  0  0  0  0  0  0  0  0  0  0  0
    0.2257   -0.6498   -1.2478 C   0  0  0  0  0  0  0  0  0  0  0  0
   -0.0335   -1.6836   -0.1792 C   0  0  0  0  0  0  0  0  0  0  0  0
    0.9724   -2.1658    0.6232 N   0  3  0  0  0  0  0  0  0  0  0  0
   -1.1812   -2.3174    0.2051 C   0  0  0  0  0  0  0  0  0  0  0  0
    0.4705   -3.0661    1.4746 C   0  0  0  0  0  0  0  0  0  0  0  0
   -0.8400   -3.1672    1.2295 N   0  0  0  0  0  0  0  0  0  0  0  0
   -1.5221    1.5532   -0.5874 H   0  0  0  0  0  0  0  0  0  0  0  0
    1.2436    0.7637    0.0702 H   0  0  0  0  0  0  0  0  0  0  0  0
    1.0941   -0.9503   -1.8497 H   0  0  0  0  0  0  0  0  0  0  0  0
   -0.6231   -0.6552   -1.9444 H   0  0  0  0  0  0  0  0  0  0  0  0
    1.9483   -1.8857    0.5794 H   0  0  0  0  0  0  0  0  0  0  0  0
   -2.2091   -2.2969   -0.0982 H   0  0  0  0  0  0  0  0  0  0  0  0
    1.0221   -3.6116    2.2220 H   0  0  0  0  0  0  0  0  0  0  0  0
   -1.4818   -3.7794    1.7253 H   0  0  0  0  0  0  0  0  0  0  0  0
    0.4407    1.2411   -3.0400 N   0  0  0  0  0  0  0  0  0  0  0  0
    0.6778    1.9612   -4.2705 C   0  0  2  0  0  0  0  0  0  0  0  0
    0.1257    3.3708   -4.1043 C   0  0  0  0  0  0  0  0  0  0  0  0
   -0.7422    3.6587   -3.2827 O   0  0  0  0  0  0  0  0  0  0  0  0
    0.0313    1.2604   -5.4552 C   0  0  0  0  0  0  0  0  0  0  0  0
    0.0041    0.3255   -3.0935 H   0  0  0  0  0  0  0  0  0  0  0  0
    1.7639    2.0074   -4.4056 H   0  0  0  0  0  0  0  0  0  0  0  0
   -1.0570    1.2046   -5.3377 H   0  0  0  0  0  0  0  0  0  0  0  0
    0.2360    1.7918   -6.3905 H   0  0  0  0  0  0  0  0  0  0  0  0
    0.4077    0.2366   -5.5552 H   0  0  0  0  0  0  0  0  0  0  0  0
    0.6850    4.2607   -5.0106 N   0  0  0  0  0  0  0  0  0  0  0  0
    0.3159    5.6560   -5.0623 C   0  0  0  0  0  0  0  0  0  0  0  0
    1.4118    3.9389   -5.6431 H   0  0  0  0  0  0  0  0  0  0  0  0
   -0.4965    5.7942   -5.7910 H   0  0  0  0  0  0  0  0  0  0  0  0
   -0.0239    5.9824   -4.0683 H   0  0  0  0  0  0  0  0  0  0  0  0
    1.1871    6.2546   -5.3668 H   0  0  0  0  0  0  0  0  0  0  0  0
 22 24  2  0  0  0  0
 24 26  1  0  0  0  0
 25 26  1  0  0  0  0
 23 25  2  0  0  0  0
 21 22  1  0  0  0  0
 22 23  1  0  0  0  0
  1  3  1  0  0  0  0
  1  7  1  0  0  0  0
  1  2  2  0  0  0  0
 36 37  1  0  0  0  0
 37 45  1  0  0  0  0
 37 38  2  0  0  0  0
  8  9  1  0  0  0  0
  9 17  1  0  0  0  0
  9 10  2  0  0  0  0
 18 19  1  0  0  0  0
 19 35  1  0  0  0  0
 19 20  2  0  0  0  0
 36 39  1  0  0  0  0
  8 11  1  0  0  0  0
 45 46  1  0  0  0  0
 18 21  1  0  0  0  0
 35 36  1  0  0  0  0
  7  8  1  0  0  0  0
 17 18  1  0  0  0  0
 24 32  1  0  0  0  0
 25 33  1  0  0  0  0
  3  4  1  0  0  0  0
  3  5  1  0  0  0  0
  3  6  1  0  0  0  0
 39 42  1  0  0  0  0
 39 43  1  0  0  0  0
 39 44  1  0  0  0  0
 11 14  1  0  0  0  0
 11 15  1  0  0  0  0
 11 16  1  0  0  0  0
 46 48  1  0  0  0  0
 46 49  1  0  0  0  0
 46 50  1  0  0  0  0
 21 29  1  0  0  0  0
 21 30  1  0  0  0  0
 36 41  1  0  0  0  0
  8 13  1  0  0  0  0
 18 28  1  0  0  0  0
 26 34  1  0  0  0  0
 23 31  1  0  0  0  0
 45 47  1  0  0  0  0
  7 12  1  0  0  0  0
 35 40  1  0  0  0  0
 17 27  1  0  0  0  0
M  CHG  1  23   1
M  END
$$$$

  -OEChem-05262214473D

 50 50  0     1  0  0  0  0  0999 V2000
   -1.6938    0.4865    3.8080 C   0  0  0  0  0  0  0  0  0  0  0  0
   -0.7464   -0.1282    3.3323 O   0  0  0  0  0  0  0  0  0  0  0  0
   -2.1257    0.2041    5.2087 C   0  0  0  0  0  0  0  0  0  0  0  0
   -2.8853   -0.5922    5.2621 H   0  0  0  0  0  0  0  0  0  0  0  0
   -1.2944   -0.1435    5.8430 H   0  0  0  0  0  0  0  0  0  0  0  0
   -2.5637    1.0590    5.7483 H   0  0  0  0  0  0  0  0  0  0  0  0
   -2.4435    1.4589    3.1669 N   0  0  0  0  0  0  0  0  0  0  0  0
   -2.1966    1.8850    1.8145 C   0  0  2  0  0  0  0  0  0  0  0  0
   -0.8617    1.2996    1.3733 C   0  0  0  0  0  0  0  0  0  0  0  0
    0.0104    0.9468    2.1646 O   0  0  0  0  0  0  0  0  0  0  0  0
   -2.1879    3.4017    1.7050 C   0  0  0  0  0  0  0  0  0  0  0  0
   -3.2085    1.8948    3.6787 H   0  0  0  0  0  0  0  0  0  0  0  0
   -3.0007    1.4665    1.1994 H   0  0  0  0  0  0  0  0  0  0  0  0
   -1.3888    3.8390    2.3147 H   0  0  0  0  0  0  0  0  0  0  0  0
   -2.0284    3.7240    0.6708 H   0  0  0  0  0  0  0  0  0  0  0  0
   -3.1380    3.8230    2.0508 H   0  0  0  0  0  0  0  0  0  0  0  0
   -0.7390    1.2565   -0.0101 N   0  0  0  0  0  0  0  0  0  0  0  0
    0.4383    0.7557   -0.6738 C   0  0  2  0  0  0  0  0  0  0  0  0
    0.7794    1.7376   -1.7890 C   0  0  0  0  0  0  0  0  0  0  0  0
    1.5549    2.6792   -1.6375 O   0  0  0  0  0  0  0  0  0  0  0  0
    0.2257   -0.6498   -1.2478 C   0  0  0  0  0  0  0  0  0  0  0  0
   -0.0335   -1.6836   -0.1792 C   0  0  0  0  0  0  0  0  0  0  0  0
    0.9724   -2.1658    0.6232 N   0  3  0  0  0  0  0  0  0  0  0  0
   -1.1812   -2.3174    0.2051 C   0  0  0  0  0  0  0  0  0  0  0  0
    0.4705   -3.0661    1.4746 C   0  0  0  0  0  0  0  0  0  0  0  0
   -0.8400   -3.1672    1.2295 N   0  0  0  0  0  0  0  0  0  0  0  0
   -1.5221    1.5532   -0.5874 H   0  0  0  0  0  0  0  0  0  0  0  0
    1.2436    0.7637    0.0702 H   0  0  0  0  0  0  0  0  0  0  0  0
    1.0941   -0.9503   -1.8497 H   0  0  0  0  0  0  0  0  0  0  0  0
   -0.6231   -0.6552   -1.9444 H   0  0  0  0  0  0  0  0  0  0  0  0
    1.9483   -1.8857    0.5794 H   0  0  0  0  0  0  0  0  0  0  0  0
   -2.2091   -2.2969   -0.0982 H   0  0  0  0  0  0  0  0  0  0  0  0
    1.0221   -3.6116    2.2220 H   0  0  0  0  0  0  0  0  0  0  0  0
   -1.4818   -3.7794    1.7253 H   0  0  0  0  0  0  0  0  0  0  0  0
    0.1536    1.4060   -2.9827 N   0  0  0  0  0  0  0  0  0  0  0  0
    0.3247    2.1591   -4.2043 C   0  0  2  0  0  0  0  0  0  0  0  0
    0.0910    3.6301   -3.8866 C   0  0  0  0  0  0  0  0  0  0  0  0
   -0.5605    4.0115   -2.9165 O   0  0  0  0  0  0  0  0  0  0  0  0
   -0.6279    1.6790   -5.2882 C   0  0  0  0  0  0  0  0  0  0  0  0
   -0.4553    0.5931   -2.9984 H   0  0  0  0  0  0  0  0  0  0  0  0
    1.3629    2.0140   -4.5225 H   0  0  0  0  0  0  0  0  0  0  0  0
   -1.6729    1.8164   -4.9874 H   0  0  0  0  0  0  0  0  0  0  0  0
   -0.4773    2.2313   -6.2217 H   0  0  0  0  0  0  0  0  0  0  0  0
   -0.4786    0.6137   -5.4944 H   0  0  0  0  0  0  0  0  0  0  0  0
    0.6591    4.4661   -4.8377 N   0  0  0  0  0  0  0  0  0  0  0  0
    0.5646    5.9055   -4.7666 C   0  0  0  0  0  0  0  0  0  0  0  0
    1.1979    4.0635   -5.5988 H   0  0  0  0  0  0  0  0  0  0  0  0
   -0.3121    6.2446   -5.3380 H   0  0  0  0  0  0  0  0  0  0  0  0
    0.4594    6.2145   -3.7161 H   0  0  0  0  0  0  0  0  0  0  0  0
    1.4748    6.3540   -5.1913 H   0  0  0  0  0  0  0  0  0  0  0  0
 22 24  2  0  0  0  0
 24 26  1  0  0  0  0
 25 26  1  0  0  0  0
 23 25  2  0  0  0  0
 21 22  1  0  0  0  0
 22 23  1  0  0  0  0
  1  3  1  0  0  0  0
  1  7  1  0  0  0  0
  1  2  2  0  0  0  0
 36 37  1  0  0  0  0
 37 45  1  0  0  0  0
 37 38  2  0  0  0  0
  8  9  1  0  0  0  0
  9 17  1  0  0  0  0
  9 10  2  0  0  0  0
 18 19  1  0  0  0  0
 19 35  1  0  0  0  0
 19 20  2  0  0  0  0
 36 39  1  0  0  0  0
  8 11  1  0  0  0  0
 45 46  1  0  0  0  0
 18 21  1  0  0  0  0
 35 36  1  0  0  0  0
  7  8  1  0  0  0  0
 17 18  1  0  0  0  0
 24 32  1  0  0  0  0
 25 33  1  0  0  0  0
  3  4  1  0  0  0  0
  3  5  1  0  0  0  0
  3  6  1  0  0  0  0
 39 42  1  0  0  0  0
 39 43  1  0  0  0  0
 39 44  1  0  0  0  0
 11 14  1  0  0  0  0
 11 15  1  0  0  0  0
 11 16  1  0  0  0  0
 46 48  1  0  0  0  0
 46 49  1  0  0  0  0
 46 50  1  0  0  0  0
 21 29  1  0  0  0  0
 21 30  1  0  0  0  0
 36 41  1  0  0  0  0
  8 13  1  0  0  0  0
 18 28  1  0  0  0  0
 26 34  1  0  0  0  0
 23 31  1  0  0  0  0
 45 47  1  0  0  0  0
  7 12  1  0  0  0  0
 35 40  1  0  0  0  0
 17 27  1  0  0  0  0
M  CHG  1  23   1
M  END
$$$$

  -OEChem-05262214473D

 50 50  0     1  0  0  0  0  0999 V2000
   -1.6938    0.4865    3.8080 C   0  0  0  0  0  0  0  0  0  0  0  0
   -0.7464   -0.1282    3.3323 O   0  0  0  0  0  0  0  0  0  0  0  0
   -2.1257    0.2041    5.2087 C   0  0  0  0  0  0  0  0  0  0  0  0
   -2.8853   -0.5922    5.2621 H   0  0  0  0  0  0  0  0  0  0  0  0
   -1.2944   -0.1435    5.8430 H   0  0  0  0  0  0  0  0  0  0  0  0
   -2.5637    1.0590    5.7483 H   0  0  0  0  0  0  0  0  0  0  0  0
   -2.4435    1.4589    3.1669 N   0  0  0  0  0  0  0  0  0  0  0  0
   -2.1966    1.8850    1.8145 C   0  0  2  0  0  0  0  0  0  0  0  0
   -0.8617    1.2996    1.3733 C   0  0  0  0  0  0  0  0  0  0  0  0
    0.0104    0.9468    2.1646 O   0  0  0  0  0  0  0  0  0  0  0  0
   -2.1879    3.4017    1.7050 C   0  0  0  0  0  0  0  0  0  0  0  0
   -3.2085    1.8948    3.6787 H   0  0  0  0  0  0  0  0  0  0  0  0
   -3.0007    1.4665    1.1994 H   0  0  0  0  0  0  0  0  0  0  0  0
   -1.3888    3.8390    2.3147 H   0  0  0  0  0  0  0  0  0  0  0  0
   -2.0284    3.7240    0.6708 H   0  0  0  0  0  0  0  0  0  0  0  0
   -3.1380    3.8230    2.0508 H   0  0  0  0  0  0  0  0  0  0  0  0
   -0.7390    1.2565   -0.0101 N   0  0  0  0  0  0  0  0  0  0  0  0
    0.4383    0.7557   -0.6738 C   0  0  2  0  0  0  0  0  0  0  0  0
    0.7794    1.7376   -1.7890 C   0  0  0  0  0  0  0  0  0  0  0  0
    1.7371    2.5062   -1.7341 O   0  0  0  0  0  0  0  0  0  0  0  0
    0.2257   -0.6498   -1.2478 C   0  0  0  0  0  0  0  0  0  0  0  0
   -0.0335   -1.6836   -0.1792 C   0  0  0  0  0  0  0  0  0  0  0  0
    0.9724   -2.1658    0.6232 N   0  3  0  0  0  0  0  0  0  0  0  0
   -1.1812   -2.3174    0.2051 C   0  0  0  0  0  0  0  0  0  0  0  0
    0.4705   -3.0661    1.4746 C   0  0  0  0  0  0  0  0  0  0  0  0
   -0.8400   -3.1672    1.2295 N   0  0  0  0  0  0  0  0  0  0  0  0
   -1.5221    1.5532   -0.5874 H   0  0  0  0  0  0  0  0  0  0  0  0
    1.2436    0.7637    0.0702 H   0  0  0  0  0  0  0  0  0  0  0  0
    1.0941   -0.9503   -1.8497 H   0  0  0  0  0  0  0  0  0  0  0  0
   -0.6231   -0.6552   -1.9444 H   0  0  0  0  0  0  0  0  0  0  0  0
    1.9483   -1.8857    0.5794 H   0  0  0  0  0  0  0  0  0  0  0  0
   -2.2091   -2.2969   -0.0982 H   0  0  0  0  0  0  0  0  0  0  0  0
    1.0221   -3.6116    2.2220 H   0  0  0  0  0  0  0  0  0  0  0  0
   -1.4818   -3.7794    1.7253 H   0  0  0  0  0  0  0  0  0  0  0  0
   -0.0829    1.6163   -2.8698 N   0  0  0  0  0  0  0  0  0  0  0  0
    0.0321    2.4132   -4.0701 C   0  0  2  0  0  0  0  0  0  0  0  0
    0.1429    3.8745   -3.6556 C   0  0  0  0  0  0  0  0  0  0  0  0
   -0.2571    4.2967   -2.5726 O   0  0  0  0  0  0  0  0  0  0  0  0
   -1.1575    2.1986   -4.9928 C   0  0  0  0  0  0  0  0  0  0  0  0
   -0.8325    0.9331   -2.8145 H   0  0  0  0  0  0  0  0  0  0  0  0
    0.9573    2.1031   -4.5681 H   0  0  0  0  0  0  0  0  0  0  0  0
   -2.0936    2.5036   -4.5110 H   0  0  0  0  0  0  0  0  0  0  0  0
   -1.0550    2.7811   -5.9143 H   0  0  0  0  0  0  0  0  0  0  0  0
   -1.2532    1.1422   -5.2660 H   0  0  0  0  0  0  0  0  0  0  0  0
    0.7017    4.6594   -4.6545 N   0  0  0  0  0  0  0  0  0  0  0  0
    0.9014    6.0823   -4.5080 C   0  0  0  0  0  0  0  0  0  0  0  0
    1.0223    4.2217   -5.5132 H   0  0  0  0  0  0  0  0  0  0  0  0
    0.0269    6.6185   -4.9051 H   0  0  0  0  0  0  0  0  0  0  0  0
    1.0288    6.3268   -3.4431 H   0  0  0  0  0  0  0  0  0  0  0  0
    1.8008    6.3854   -5.0640 H   0  0  0  0  0  0  0  0  0  0  0  0
 22 24  2  0  0  0  0
 24 26  1  0  0  0  0
 25 26  1  0  0  0  0
 23 25  2  0  0  0  0
 21 22  1  0  0  0  0
 22 23  1  0  0  0  0
  1  3  1  0  0  0  0
  1  7  1  0  0  0  0
  1  2  2  0  0  0  0
 36 37  1  0  0  0  0
 37 45  1  0  0  0  0
 37 38  2  0  0  0  0
  8  9  1  0  0  0  0
  9 17  1  0  0  0  0
  9 10  2  0  0  0  0
 18 19  1  0  0  0  0
 19 35  1  0  0  0  0
 19 20  2  0  0  0  0
 36 39  1  0  0  0  0
  8 11  1  0  0  0  0
 45 46  1  0  0  0  0
 18 21  1  0  0  0  0
 35 36  1  0  0  0  0
  7  8  1  0  0  0  0
 17 18  1  0  0  0  0
 24 32  1  0  0  0  0
 25 33  1  0  0  0  0
  3  4  1  0  0  0  0
  3  5  1  0  0  0  0
  3  6  1  0  0  0  0
 39 42  1  0  0  0  0
 39 43  1  0  0  0  0
 39 44  1  0  0  0  0
 11 14  1  0  0  0  0
 11 15  1  0  0  0  0
 11 16  1  0  0  0  0
 46 48  1  0  0  0  0
 46 49  1  0  0  0  0
 46 50  1  0  0  0  0
 21 29  1  0  0  0  0
 21 30  1  0  0  0  0
 36 41  1  0  0  0  0
  8 13  1  0  0  0  0
 18 28  1  0  0  0  0
 26 34  1  0  0  0  0
 23 31  1  0  0  0  0
 45 47  1  0  0  0  0
  7 12  1  0  0  0  0
 35 40  1  0  0  0  0
 17 27  1  0  0  0  0
M  CHG  1  23   1
M  END
$$$$

  -OEChem-05262214473D

 50 50  0     1  0  0  0  0  0999 V2000
   -1.6938    0.4865    3.8080 C   0  0  0  0  0  0  0  0  0  0  0  0
   -0.7464   -0.1282    3.3323 O   0  0  0  0  0  0  0  0  0  0  0  0
   -2.1257    0.2041    5.2087 C   0  0  0  0  0  0  0  0  0  0  0  0
   -2.8853   -0.5922    5.2621 H   0  0  0  0  0  0  0  0  0  0  0  0
   -1.2944   -0.1435    5.8430 H   0  0  0  0  0  0  0  0  0  0  0  0
   -2.5637    1.0590    5.7483 H   0  0  0  0  0  0  0  0  0  0  0  0
   -2.4435    1.4589    3.1669 N   0  0  0  0  0  0  0  0  0  0  0  0
   -2.1966    1.8850    1.8145 C   0  0  2  0  0  0  0  0  0  0  0  0
   -0.8617    1.2996    1.3733 C   0  0  0  0  0  0  0  0  0  0  0  0
    0.0104    0.9468    2.1646 O   0  0  0  0  0  0  0  0  0  0  0  0
   -2.1879    3.4017    1.7050 C   0  0  0  0  0  0  0  0  0  0  0  0
   -3.2085    1.8948    3.6787 H   0  0  0  0  0  0  0  0  0  0  0  0
   -3.0007    1.4665    1.1994 H   0  0  0  0  0  0  0  0  0  0  0  0
   -1.3888    3.8390    2.3147 H   0  0  0  0  0  0  0  0  0  0  0  0
   -2.0284    3.7240    0.6708 H   0  0  0  0  0  0  0  0  0  0  0  0
   -3.1380    3.8230    2.0508 H   0  0  0  0  0  0  0  0  0  0  0  0
   -0.7390    1.2565   -0.0101 N   0  0  0  0  0  0  0  0  0  0  0  0
    0.4383    0.7557   -0.6738 C   0  0  2  0  0  0  0  0  0  0  0  0
    0.7794    1.7376   -1.7890 C   0  0  0  0  0  0  0  0  0  0  0  0
    1.8643    2.3102   -1.8677 O   0  0  0  0  0  0  0  0  0  0  0  0
    0.2257   -0.6498   -1.2478 C   0  0  0  0  0  0  0  0  0  0  0  0
   -0.0335   -1.6836   -0.1792 C   0  0  0  0  0  0  0  0  0  0  0  0
    0.9724   -2.1658    0.6232 N   0  3  0  0  0  0  0  0  0  0  0  0
   -1.1812   -2.3174    0.2051 C   0  0  0  0  0  0  0  0  0  0  0  0
    0.4705   -3.0661    1.4746 C   0  0  0  0  0  0  0  0  0  0  0  0
   -0.8400   -3.1672    1.2295 N   0  0  0  0  0  0  0  0  0  0  0  0
   -1.5221    1.5532   -0.5874 H   0  0  0  0  0  0  0  0  0  0  0  0
    1.2436    0.7637    0.0702 H   0  0  0  0  0  0  0  0  0  0  0  0
    1.0941   -0.9503   -1.8497 H   0  0  0  0  0  0  0  0  0  0  0  0
   -0.6231   -0.6552   -1.9444 H   0  0  0  0  0  0  0  0  0  0  0  0
    1.9483   -1.8857    0.5794 H   0  0  0  0  0  0  0  0  0  0  0  0
   -2.2091   -2.2969   -0.0982 H   0  0  0  0  0  0  0  0  0  0  0  0
    1.0221   -3.6116    2.2220 H   0  0  0  0  0  0  0  0  0  0  0  0
   -1.4818   -3.7794    1.7253 H   0  0  0  0  0  0  0  0  0  0  0  0
   -0.2527    1.8577   -2.7092 N   0  0  0  0  0  0  0  0  0  0  0  0
   -0.1800    2.7062   -3.8769 C   0  0  2  0  0  0  0  0  0  0  0  0
    0.2778    4.0873   -3.4269 C   0  0  0  0  0  0  0  0  0  0  0  0
    0.1473    4.4948   -2.2745 O   0  0  0  0  0  0  0  0  0  0  0  0
   -1.5214    2.7835   -4.5891 C   0  0  0  0  0  0  0  0  0  0  0  0
   -1.1018    1.3222   -2.5542 H   0  0  0  0  0  0  0  0  0  0  0  0
    0.5747    2.2686   -4.5394 H   0  0  0  0  0  0  0  0  0  0  0  0
   -2.2903    3.2195   -3.9409 H   0  0  0  0  0  0  0  0  0  0  0  0
   -1.4576    3.4037   -5.4893 H   0  0  0  0  0  0  0  0  0  0  0  0
   -1.8633    1.7861   -4.8857 H   0  0  0  0  0  0  0  0  0  0  0  0
    0.8101    4.8274   -4.4734 N   0  0  0  0  0  0  0  0  0  0  0  0
    1.3032    6.1743   -4.3040 C   0  0  0  0  0  0  0  0  0  0  0  0
    0.8969    4.4029   -5.3921 H   0  0  0  0  0  0  0  0  0  0  0  0
    0.4972    6.8905   -4.5218 H   0  0  0  0  0  0  0  0  0  0  0  0
    1.6456    6.3116   -3.2678 H   0  0  0  0  0  0  0  0  0  0  0  0
    2.1428    6.3466   -4.9935 H   0  0  0  0  0  0  0  0  0  0  0  0
 22 24  2  0  0  0  0
 24 26  1  0  0  0  0
 25 26  1  0  0  0  0
 23 25  2  0  0  0  0
 21 22  1  0  0  0  0
 22 23  1  0  0  0  0
  1  3  1  0  0  0  0
  1  7  1  0  0  0  0
  1  2  2  0  0  0  0
 36 37  1  0  0  0  0
 37 45  1  0  0  0  0
 37 38  2  0  0  0  0
  8  9  1  0  0  0  0
  9 17  1  0  0  0  0
  9 10  2  0  0  0  0
 18 19  1  0  0  0  0
 19 35  1  0  0  0  0
 19 20  2  0  0  0  0
 36 39  1  0  0  0  0
  8 11  1  0  0  0  0
 45 46  1  0  0  0  0
 18 21  1  0  0  0  0
 35 36  1  0  0  0  0
  7  8  1  0  0  0  0
 17 18  1  0  0  0  0
 24 32  1  0  0  0  0
 25 33  1  0  0  0  0
  3  4  1  0  0  0  0
  3  5  1  0  0  0  0
  3  6  1  0  0  0  0
 39 42  1  0  0  0  0
 39 43  1  0  0  0  0
 39 44  1  0  0  0  0
 11 14  1  0  0  0  0
 11 15  1  0  0  0  0
 11 16  1  0  0  0  0
 46 48  1  0  0  0  0
 46 49  1  0  0  0  0
 46 50  1  0  0  0  0
 21 29  1  0  0  0  0
 21 30  1  0  0  0  0
 36 41  1  0  0  0  0
  8 13  1  0  0  0  0
 18 28  1  0  0  0  0
 26 34  1  0  0  0  0
 23 31  1  0  0  0  0
 45 47  1  0  0  0  0
  7 12  1  0  0  0  0
 35 40  1  0  0  0  0
 17 27  1  0  0  0  0
M  CHG  1  23   1
M  END
$$$$

  -OEChem-05262214473D

 50 50  0     1  0  0  0  0  0999 V2000
   -1.6938    0.4865    3.8080 C   0  0  0  0  0  0  0  0  0  0  0  0
   -0.7464   -0.1282    3.3323 O   0  0  0  0  0  0  0  0  0  0  0  0
   -2.1257    0.2041    5.2087 C   0  0  0  0  0  0  0  0  0  0  0  0
   -2.8853   -0.5922    5.2621 H   0  0  0  0  0  0  0  0  0  0  0  0
   -1.2944   -0.1435    5.8430 H   0  0  0  0  0  0  0  0  0  0  0  0
   -2.5637    1.0590    5.7483 H   0  0  0  0  0  0  0  0  0  0  0  0
   -2.4435    1.4589    3.1669 N   0  0  0  0  0  0  0  0  0  0  0  0
   -2.1966    1.8850    1.8145 C   0  0  2  0  0  0  0  0  0  0  0  0
   -0.8617    1.2996    1.3733 C   0  0  0  0  0  0  0  0  0  0  0  0
    0.0104    0.9468    2.1646 O   0  0  0  0  0  0  0  0  0  0  0  0
   -2.1879    3.4017    1.7050 C   0  0  0  0  0  0  0  0  0  0  0  0
   -3.2085    1.8948    3.6787 H   0  0  0  0  0  0  0  0  0  0  0  0
   -3.0007    1.4665    1.1994 H   0  0  0  0  0  0  0  0  0  0  0  0
   -1.3888    3.8390    2.3147 H   0  0  0  0  0  0  0  0  0  0  0  0
   -2.0284    3.7240    0.6708 H   0  0  0  0  0  0  0  0  0  0  0  0
   -3.1380    3.8230    2.0508 H   0  0  0  0  0  0  0  0  0  0  0  0
   -0.7390    1.2565   -0.0101 N   0  0  0  0  0  0  0  0  0  0  0  0
    0.4383    0.7557   -0.6738 C   0  0  2  0  0  0  0  0  0  0  0  0
    0.7794    1.7376   -1.7890 C   0  0  0  0  0  0  0  0  0  0  0  0
    1.9277    2.1045   -2.0294 O   0  0  0  0  0  0  0  0  0  0  0  0
    0.2257   -0.6498   -1.2478 C   0  0  0  0  0  0  0  0  0  0  0  0
   -0.0335   -1.6836   -0.1792 C   0  0  0  0  0  0  0  0  0  0  0  0
    0.9724   -2.1658    0.6232 N   0  3  0  0  0  0  0  0  0  0  0  0
   -1.1812   -2.3174    0.2051 C   0  0  0  0  0  0  0  0  0  0  0  0
    0.4705   -3.0661    1.4746 C   0  0  0  0  0  0  0  0  0  0  0  0
   -0.8400   -3.1672    1.2295 N   0  0  0  0  0  0  0  0  0  0  0  0
   -1.5221    1.5532   -0.5874 H   0  0  0  0  0  0  0  0  0  0  0  0
    1.2436    0.7637    0.0702 H   0  0  0  0  0  0  0  0  0  0  0  0
    1.0941   -0.9503   -1.8497 H   0  0  0  0  0  0  0  0  0  0  0  0
   -0.6231   -0.6552   -1.9444 H   0  0  0  0  0  0  0  0  0  0  0  0
    1.9483   -1.8857    0.5794 H   0  0  0  0  0  0  0  0  0  0  0  0
   -2.2091   -2.2969   -0.0982 H   0  0  0  0  0  0  0  0  0  0  0  0
    1.0221   -3.6116    2.2220 H   0  0  0  0  0  0  0  0  0  0  0  0
   -1.4818   -3.7794    1.7253 H   0  0  0  0  0  0  0  0  0  0  0  0
   -0.3442    2.1137   -2.5118 N   0  0  0  0  0  0  0  0  0  0  0  0
   -0.2972    3.0183   -3.6380 C   0  0  2  0  0  0  0  0  0  0  0  0
    0.4866    4.2541   -3.2162 C   0  0  0  0  0  0  0  0  0  0  0  0
    0.6250    4.5923   -2.0425 O   0  0  0  0  0  0  0  0  0  0  0  0
   -1.6950    3.3941   -4.1046 C   0  0  0  0  0  0  0  0  0  0  0  0
   -1.2449    1.7341   -2.2354 H   0  0  0  0  0  0  0  0  0  0  0  0
    0.2413    2.4992   -4.4384 H   0  0  0  0  0  0  0  0  0  0  0  0
   -2.2498    3.9153   -3.3159 H   0  0  0  0  0  0  0  0  0  0  0  0
   -1.6578    4.0567   -4.9755 H   0  0  0  0  0  0  0  0  0  0  0  0
   -2.2673    2.5015   -4.3793 H   0  0  0  0  0  0  0  0  0  0  0  0
    0.9767    4.9587   -4.3068 N   0  0  0  0  0  0  0  0  0  0  0  0
    1.7428    6.1752   -4.1687 C   0  0  0  0  0  0  0  0  0  0  0  0
    0.8303    4.5946   -5.2437 H   0  0  0  0  0  0  0  0  0  0  0  0
    1.0670    7.0419   -4.2142 H   0  0  0  0  0  0  0  0  0  0  0  0
    2.2678    6.1701   -3.2021 H   0  0  0  0  0  0  0  0  0  0  0  0
    2.4776    6.2403   -4.9847 H   0  0  0  0  0  0  0  0  0  0  0  0
 22 24  2  0  0  0  0
 24 26  1  0  0  0  0
 25 26  1  0  0  0  0
 23 25  2  0  0  0  0
 21 22  1  0  0  0  0
 22 23  1  0  0  0  0
  1  3  1  0  0  0  0
  1  7  1  0  0  0  0
  1  2  2  0  0  0  0
 36 37  1  0  0  0  0
 37 45  1  0  0  0  0
 37 38  2  0  0  0  0
  8  9  1  0  0  0  0
  9 17  1  0  0  0  0
  9 10  2  0  0  0  0
 18 19  1  0  0  0  0
 19 35  1  0  0  0  0
 19 20  2  0  0  0  0
 36 39  1  0  0  0  0
  8 11  1  0  0  0  0
 45 46  1  0  0  0  0
 18 21  1  0  0  0  0
 35 36  1  0  0  0  0
  7  8  1  0  0  0  0
 17 18  1  0  0  0  0
 24 32  1  0  0  0  0
 25 33  1  0  0  0  0
  3  4  1  0  0  0  0
  3  5  1  0  0  0  0
  3  6  1  0  0  0  0
 39 42  1  0  0  0  0
 39 43  1  0  0  0  0
 39 44  1  0  0  0  0
 11 14  1  0  0  0  0
 11 15  1  0  0  0  0
 11 16  1  0  0  0  0
 46 48  1  0  0  0  0
 46 49  1  0  0  0  0
 46 50  1  0  0  0  0
 21 29  1  0  0  0  0
 21 30  1  0  0  0  0
 36 41  1  0  0  0  0
  8 13  1  0  0  0  0
 18 28  1  0  0  0  0
 26 34  1  0  0  0  0
 23 31  1  0  0  0  0
 45 47  1  0  0  0  0
  7 12  1  0  0  0  0
 35 40  1  0  0  0  0
 17 27  1  0  0  0  0
M  CHG  1  23   1
M  END
$$$$

  -OEChem-05262214473D

 50 50  0     1  0  0  0  0  0999 V2000
   -1.6938    0.4865    3.8080 C   0  0  0  0  0  0  0  0  0  0  0  0
   -0.7464   -0.1282    3.3323 O   0  0  0  0  0  0  0  0  0  0  0  0
   -2.1257    0.2041    5.2087 C   0  0  0  0  0  0  0  0  0  0  0  0
   -2.8853   -0.5922    5.2621 H   0  0  0  0  0  0  0  0  0  0  0  0
   -1.2944   -0.1435    5.8430 H   0  0  0  0  0  0  0  0  0  0  0  0
   -2.5637    1.0590    5.7483 H   0  0  0  0  0  0  0  0  0  0  0  0
   -2.4435    1.4589    3.1669 N   0  0  0  0  0  0  0  0  0  0  0  0
   -2.1966    1.8850    1.8145 C   0  0  2  0  0  0  0  0  0  0  0  0
   -0.8617    1.2996    1.3733 C   0  0  0  0  0  0  0  0  0  0  0  0
    0.0104    0.9468    2.1646 O   0  0  0  0  0  0  0  0  0  0  0  0
   -2.1879    3.4017    1.7050 C   0  0  0  0  0  0  0  0  0  0  0  0
   -3.2085    1.8948    3.6787 H   0  0  0  0  0  0  0  0  0  0  0  0
   -3.0007    1.4665    1.1994 H   0  0  0  0  0  0  0  0  0  0  0  0
   -1.3888    3.8390    2.3147 H   0  0  0  0  0  0  0  0  0  0  0  0
   -2.0284    3.7240    0.6708 H   0  0  0  0  0  0  0  0  0  0  0  0
   -3.1380    3.8230    2.0508 H   0  0  0  0  0  0  0  0  0  0  0  0
   -0.7390    1.2565   -0.0101 N   0  0  0  0  0  0  0  0  0  0  0  0
    0.4383    0.7557   -0.6738 C   0  0  2  0  0  0  0  0  0  0  0  0
    0.7794    1.7376   -1.7890 C   0  0  0  0  0  0  0  0  0  0  0  0
    1.9230    1.9032   -2.2081 O   0  0  0  0  0  0  0  0  0  0  0  0
    0.2257   -0.6498   -1.2478 C   0  0  0  0  0  0  0  0  0  0  0  0
   -0.0335   -1.6836   -0.1792 C   0  0  0  0  0  0  0  0  0  0  0  0
    0.9724   -2.1658    0.6232 N   0  3  0  0  0  0  0  0  0  0  0  0
   -1.1812   -2.3174    0.2051 C   0  0  0  0  0  0  0  0  0  0  0  0
    0.4705   -3.0661    1.4746 C   0  0  0  0  0  0  0  0  0  0  0  0
   -0.8400   -3.1672    1.2295 N   0  0  0  0  0  0  0  0  0  0  0  0
   -1.5221    1.5532   -0.5874 H   0  0  0  0  0  0  0  0  0  0  0  0
    1.2436    0.7637    0.0702 H   0  0  0  0  0  0  0  0  0  0  0  0
    1.0941   -0.9503   -1.8497 H   0  0  0  0  0  0  0  0  0  0  0  0
   -0.6231   -0.6552   -1.9444 H   0  0  0  0  0  0  0  0  0  0  0  0
    1.9483   -1.8857    0.5794 H   0  0  0  0  0  0  0  0  0  0  0  0
   -2.2091   -2.2969   -0.0982 H   0  0  0  0  0  0  0  0  0  0  0  0
    1.0221   -3.6116    2.2220 H   0  0  0  0  0  0  0  0  0  0  0  0
   -1.4818   -3.7794    1.7253 H   0  0  0  0  0  0  0  0  0  0  0  0
   -0.3512    2.3669   -2.2911 N   0  0  0  0  0  0  0  0  0  0  0  0
   -0.3115    3.3280   -3.3696 C   0  0  2  0  0  0  0  0  0  0  0  0
    0.7549    4.3635   -3.0378 C   0  0  0  0  0  0  0  0  0  0  0  0
    1.1437    4.5826   -1.8924 O   0  0  0  0  0  0  0  0  0  0  0  0
   -1.6662    3.9887   -3.5723 C   0  0  0  0  0  0  0  0  0  0  0  0
   -1.2520    2.1405   -1.8797 H   0  0  0  0  0  0  0  0  0  0  0  0
   -0.0202    2.7792   -4.2718 H   0  0  0  0  0  0  0  0  0  0  0  0
   -1.9748    4.5434   -2.6787 H   0  0  0  0  0  0  0  0  0  0  0  0
   -1.6418    4.6956   -4.4081 H   0  0  0  0  0  0  0  0  0  0  0  0
   -2.4377    3.2397   -3.7814 H   0  0  0  0  0  0  0  0  0  0  0  0
    1.1903    5.0443   -4.1661 N   0  0  0  0  0  0  0  0  0  0  0  0
    2.1902    6.0851   -4.1113 C   0  0  0  0  0  0  0  0  0  0  0  0
    0.8269    4.7837   -5.0782 H   0  0  0  0  0  0  0  0  0  0  0  0
    1.6972    7.0625   -4.0033 H   0  0  0  0  0  0  0  0  0  0  0  0
    2.8529    5.9117   -3.2506 H   0  0  0  0  0  0  0  0  0  0  0  0
    2.7824    6.0737   -5.0382 H   0  0  0  0  0  0  0  0  0  0  0  0
 22 24  2  0  0  0  0
 24 26  1  0  0  0  0
 25 26  1  0  0  0  0
 23 25  2  0  0  0  0
 21 22  1  0  0  0  0
 22 23  1  0  0  0  0
  1  3  1  0  0  0  0
  1  7  1  0  0  0  0
  1  2  2  0  0  0  0
 36 37  1  0  0  0  0
 37 45  1  0  0  0  0
 37 38  2  0  0  0  0
  8  9  1  0  0  0  0
  9 17  1  0  0  0  0
  9 10  2  0  0  0  0
 18 19  1  0  0  0  0
 19 35  1  0  0  0  0
 19 20  2  0  0  0  0
 36 39  1  0  0  0  0
  8 11  1  0  0  0  0
 45 46  1  0  0  0  0
 18 21  1  0  0  0  0
 35 36  1  0  0  0  0
  7  8  1  0  0  0  0
 17 18  1  0  0  0  0
 24 32  1  0  0  0  0
 25 33  1  0  0  0  0
  3  4  1  0  0  0  0
  3  5  1  0  0  0  0
  3  6  1  0  0  0  0
 39 42  1  0  0  0  0
 39 43  1  0  0  0  0
 39 44  1  0  0  0  0
 11 14  1  0  0  0  0
 11 15  1  0  0  0  0
 11 16  1  0  0  0  0
 46 48  1  0  0  0  0
 46 49  1  0  0  0  0
 46 50  1  0  0  0  0
 21 29  1  0  0  0  0
 21 30  1  0  0  0  0
 36 41  1  0  0  0  0
  8 13  1  0  0  0  0
 18 28  1  0  0  0  0
 26 34  1  0  0  0  0
 23 31  1  0  0  0  0
 45 47  1  0  0  0  0
  7 12  1  0  0  0  0
 35 40  1  0  0  0  0
 17 27  1  0  0  0  0
M  CHG  1  23   1
M  END
$$$$

  -OEChem-05262214473D

 50 50  0     1  0  0  0  0  0999 V2000
   -1.6938    0.4865    3.8080 C   0  0  0  0  0  0  0  0  0  0  0  0
   -0.7464   -0.1282    3.3323 O   0  0  0  0  0  0  0  0  0  0  0  0
   -2.1257    0.2041    5.2087 C   0  0  0  0  0  0  0  0  0  0  0  0
   -2.8853   -0.5922    5.2621 H   0  0  0  0  0  0  0  0  0  0  0  0
   -1.2944   -0.1435    5.8430 H   0  0  0  0  0  0  0  0  0  0  0  0
   -2.5637    1.0590    5.7483 H   0  0  0  0  0  0  0  0  0  0  0  0
   -2.4435    1.4589    3.1669 N   0  0  0  0  0  0  0  0  0  0  0  0
   -2.1966    1.8850    1.8145 C   0  0  2  0  0  0  0  0  0  0  0  0
   -0.8617    1.2996    1.3733 C   0  0  0  0  0  0  0  0  0  0  0  0
    0.0104    0.9468    2.1646 O   0  0  0  0  0  0  0  0  0  0  0  0
   -2.1879    3.4017    1.7050 C   0  0  0  0  0  0  0  0  0  0  0  0
   -3.2085    1.8948    3.6787 H   0  0  0  0  0  0  0  0  0  0  0  0
   -3.0007    1.4665    1.1994 H   0  0  0  0  0  0  0  0  0  0  0  0
   -1.3888    3.8390    2.3147 H   0  0  0  0  0  0  0  0  0  0  0  0
   -2.0284    3.7240    0.6708 H   0  0  0  0  0  0  0  0  0  0  0  0
   -3.1380    3.8230    2.0508 H   0  0  0  0  0  0  0  0  0  0  0  0
   -0.7390    1.2565   -0.0101 N   0  0  0  0  0  0  0  0  0  0  0  0
    0.4383    0.7557   -0.6738 C   0  0  2  0  0  0  0  0  0  0  0  0
    0.7794    1.7376   -1.7890 C   0  0  0  0  0  0  0  0  0  0  0  0
    1.8507    1.7200   -2.3915 O   0  0  0  0  0  0  0  0  0  0  0  0
    0.2257   -0.6498   -1.2478 C   0  0  0  0  0  0  0  0  0  0  0  0
   -0.0335   -1.6836   -0.1792 C   0  0  0  0  0  0  0  0  0  0  0  0
    0.9724   -2.1658    0.6232 N   0  3  0  0  0  0  0  0  0  0  0  0
   -1.1812   -2.3174    0.2051 C   0  0  0  0  0  0  0  0  0  0  0  0
    0.4705   -3.0661    1.4746 C   0  0  0  0  0  0  0  0  0  0  0  0
   -0.8400   -3.1672    1.2295 N   0  0  0  0  0  0  0  0  0  0  0  0
   -1.5221    1.5532   -0.5874 H   0  0  0  0  0  0  0  0  0  0  0  0
    1.2436    0.7637    0.0702 H   0  0  0  0  0  0  0  0  0  0  0  0
    1.0941   -0.9503   -1.8497 H   0  0  0  0  0  0  0  0  0  0  0  0
   -0.6231   -0.6552   -1.9444 H   0  0  0  0  0  0  0  0  0  0  0  0
    1.9483   -1.8857    0.5794 H   0  0  0  0  0  0  0  0  0  0  0  0
   -2.2091   -2.2969   -0.0982 H   0  0  0  0  0  0  0  0  0  0  0  0
    1.0221   -3.6116    2.2220 H   0  0  0  0  0  0  0  0  0  0  0  0
   -1.4818   -3.7794    1.7253 H   0  0  0  0  0  0  0  0  0  0  0  0
   -0.2733    2.6000   -2.0620 N   0  0  0  0  0  0  0  0  0  0  0  0
   -0.2219    3.6144   -3.0901 C   0  0  2  0  0  0  0  0  0  0  0  0
    1.0645    4.4080   -2.9039 C   0  0  0  0  0  0  0  0  0  0  0  0
    1.6678    4.4664   -1.8344 O   0  0  0  0  0  0  0  0  0  0  0  0
   -1.4371    4.5267   -3.0285 C   0  0  0  0  0  0  0  0  0  0  0  0
   -1.1226    2.5138   -1.5115 H   0  0  0  0  0  0  0  0  0  0  0  0
   -0.1921    3.0895   -4.0511 H   0  0  0  0  0  0  0  0  0  0  0  0
   -1.4840    5.0612   -2.0727 H   0  0  0  0  0  0  0  0  0  0  0  0
   -1.4109    5.2769   -3.8257 H   0  0  0  0  0  0  0  0  0  0  0  0
   -2.3628    3.9505   -3.1328 H   0  0  0  0  0  0  0  0  0  0  0  0
    1.4363    5.0784   -4.0608 N   0  0  0  0  0  0  0  0  0  0  0  0
    2.6148    5.9100   -4.1355 C   0  0  0  0  0  0  0  0  0  0  0  0
    0.8871    4.9575   -4.9067 H   0  0  0  0  0  0  0  0  0  0  0  0
    2.3450    6.9509   -3.9034 H   0  0  0  0  0  0  0  0  0  0  0  0
    3.3610    5.5542   -3.4099 H   0  0  0  0  0  0  0  0  0  0  0  0
    3.0363    5.8582   -5.1503 H   0  0  0  0  0  0  0  0  0  0  0  0
 22 24  2  0  0  0  0
 24 26  1  0  0  0  0
 25 26  1  0  0  0  0
 23 25  2  0  0  0  0
 21 22  1  0  0  0  0
 22 23  1  0  0  0  0
  1  3  1  0  0  0  0
  1  7  1  0  0  0  0
  1  2  2  0  0  0  0
 36 37  1  0  0  0  0
 37 45  1  0  0  0  0
 37 38  2  0  0  0  0
  8  9  1  0  0  0  0
  9 17  1  0  0  0  0
  9 10  2  0  0  0  0
 18 19  1  0  0  0  0
 19 35  1  0  0  0  0
 19 20  2  0  0  0  0
 36 39  1  0  0  0  0
  8 11  1  0  0  0  0
 45 46  1  0  0  0  0
 18 21  1  0  0  0  0
 35 36  1  0  0  0  0
  7  8  1  0  0  0  0
 17 18  1  0  0  0  0
 24 32  1  0  0  0  0
 25 33  1  0  0  0  0
  3  4  1  0  0  0  0
  3  5  1  0  0  0  0
  3  6  1  0  0  0  0
 39 42  1  0  0  0  0
 39 43  1  0  0  0  0
 39 44  1  0  0  0  0
 11 14  1  0  0  0  0
 11 15  1  0  0  0  0
 11 16  1  0  0  0  0
 46 48  1  0  0  0  0
 46 49  1  0  0  0  0
 46 50  1  0  0  0  0
 21 29  1  0  0  0  0
 21 30  1  0  0  0  0
 36 41  1  0  0  0  0
  8 13  1  0  0  0  0
 18 28  1  0  0  0  0
 26 34  1  0  0  0  0
 23 31  1  0  0  0  0
 45 47  1  0  0  0  0
  7 12  1  0  0  0  0
 35 40  1  0  0  0  0
 17 27  1  0  0  0  0
M  CHG  1  23   1
M  END
$$$$

  -OEChem-05262214473D

 50 50  0     1  0  0  0  0  0999 V2000
   -1.6938    0.4865    3.8080 C   0  0  0  0  0  0  0  0  0  0  0  0
   -0.7464   -0.1282    3.3323 O   0  0  0  0  0  0  0  0  0  0  0  0
   -2.1257    0.2041    5.2087 C   0  0  0  0  0  0  0  0  0  0  0  0
   -2.8853   -0.5922    5.2621 H   0  0  0  0  0  0  0  0  0  0  0  0
   -1.2944   -0.1435    5.8430 H   0  0  0  0  0  0  0  0  0  0  0  0
   -2.5637    1.0590    5.7483 H   0  0  0  0  0  0  0  0  0  0  0  0
   -2.4435    1.4589    3.1669 N   0  0  0  0  0  0  0  0  0  0  0  0
   -2.1966    1.8850    1.8145 C   0  0  2  0  0  0  0  0  0  0  0  0
   -0.8617    1.2996    1.3733 C   0  0  0  0  0  0  0  0  0  0  0  0
    0.0104    0.9468    2.1646 O   0  0  0  0  0  0  0  0  0  0  0  0
   -2.1879    3.4017    1.7050 C   0  0  0  0  0  0  0  0  0  0  0  0
   -3.2085    1.8948    3.6787 H   0  0  0  0  0  0  0  0  0  0  0  0
   -3.0007    1.4665    1.1994 H   0  0  0  0  0  0  0  0  0  0  0  0
   -1.3888    3.8390    2.3147 H   0  0  0  0  0  0  0  0  0  0  0  0
   -2.0284    3.7240    0.6708 H   0  0  0  0  0  0  0  0  0  0  0  0
   -3.1380    3.8230    2.0508 H   0  0  0  0  0  0  0  0  0  0  0  0
   -0.7390    1.2565   -0.0101 N   0  0  0  0  0  0  0  0  0  0  0  0
    0.4383    0.7557   -0.6738 C   0  0  2  0  0  0  0  0  0  0  0  0
    0.7794    1.7376   -1.7890 C   0  0  0  0  0  0  0  0  0  0  0  0
    1.7155    1.5674   -2.5672 O   0  0  0  0  0  0  0  0  0  0  0  0
    0.2257   -0.6498   -1.2478 C   0  0  0  0  0  0  0  0  0  0  0  0
   -0.0335   -1.6836   -0.1792 C   0  0  0  0  0  0  0  0  0  0  0  0
    0.9724   -2.1658    0.6232 N   0  3  0  0  0  0  0  0  0  0  0  0
   -1.1812   -2.3174    0.2051 C   0  0  0  0  0  0  0  0  0  0  0  0
    0.4705   -3.0661    1.4746 C   0  0  0  0  0  0  0  0  0  0  0  0
   -0.8400   -3.1672    1.2295 N   0  0  0  0  0  0  0  0  0  0  0  0
   -1.5221    1.5532   -0.5874 H   0  0  0  0  0  0  0  0  0  0  0  0
    1.2436    0.7637    0.0702 H   0  0  0  0  0  0  0  0  0  0  0  0
    1.0941   -0.9503   -1.8497 H   0  0  0  0  0  0  0  0  0  0  0  0
   -0.6231   -0.6552   -1.9444 H   0  0  0  0  0  0  0  0  0  0  0  0
    1.9483   -1.8857    0.5794 H   0  0  0  0  0  0  0  0  0  0  0  0
   -2.2091   -2.2969   -0.0982 H   0  0  0  0  0  0  0  0  0  0  0  0
    1.0221   -3.6116    2.2220 H   0  0  0  0  0  0  0  0  0  0  0  0
   -1.4818   -3.7794    1.7253 H   0  0  0  0  0  0  0  0  0  0  0  0
   -0.1157    2.7971   -1.8402 N   0  0  0  0  0  0  0  0  0  0  0  0
   -0.0346    3.8579   -2.8184 C   0  0  2  0  0  0  0  0  0  0  0  0
    1.3944    4.3847   -2.8236 C   0  0  0  0  0  0  0  0  0  0  0  0
    2.1618    4.2515   -1.8726 O   0  0  0  0  0  0  0  0  0  0  0  0
   -1.0233    4.9716   -2.5102 C   0  0  0  0  0  0  0  0  0  0  0  0
   -0.8655    2.8285   -1.1557 H   0  0  0  0  0  0  0  0  0  0  0  0
   -0.2625    3.4090   -3.7913 H   0  0  0  0  0  0  0  0  0  0  0  0
   -0.8109    5.4334   -1.5391 H   0  0  0  0  0  0  0  0  0  0  0  0
   -0.9807    5.7609   -3.2680 H   0  0  0  0  0  0  0  0  0  0  0  0
   -2.0478    4.5852   -2.4775 H   0  0  0  0  0  0  0  0  0  0  0  0
    1.6979    5.0587   -3.9982 N   0  0  0  0  0  0  0  0  0  0  0  0
    2.9877    5.6619   -4.2399 C   0  0  0  0  0  0  0  0  0  0  0  0
    1.0067    5.1041   -4.7411 H   0  0  0  0  0  0  0  0  0  0  0  0
    2.9663    6.7146   -3.9214 H   0  0  0  0  0  0  0  0  0  0  0  0
    3.7577    5.1219   -3.6692 H   0  0  0  0  0  0  0  0  0  0  0  0
    3.2220    5.6084   -5.3133 H   0  0  0  0  0  0  0  0  0  0  0  0
 22 24  2  0  0  0  0
 24 26  1  0  0  0  0
 25 26  1  0  0  0  0
 23 25  2  0  0  0  0
 21 22  1  0  0  0  0
 22 23  1  0  0  0  0
  1  3  1  0  0  0  0
  1  7  1  0  0  0  0
  1  2  2  0  0  0  0
 36 37  1  0  0  0  0
 37 45  1  0  0  0  0
 37 38  2  0  0  0  0
  8  9  1  0  0  0  0
  9 17  1  0  0  0  0
  9 10  2  0  0  0  0
 18 19  1  0  0  0  0
 19 35  1  0  0  0  0
 19 20  2  0  0  0  0
 36 39  1  0  0  0  0
  8 11  1  0  0  0  0
 45 46  1  0  0  0  0
 18 21  1  0  0  0  0
 35 36  1  0  0  0  0
  7  8  1  0  0  0  0
 17 18  1  0  0  0  0
 24 32  1  0  0  0  0
 25 33  1  0  0  0  0
  3  4  1  0  0  0  0
  3  5  1  0  0  0  0
  3  6  1  0  0  0  0
 39 42  1  0  0  0  0
 39 43  1  0  0  0  0
 39 44  1  0  0  0  0
 11 14  1  0  0  0  0
 11 15  1  0  0  0  0
 11 16  1  0  0  0  0
 46 48  1  0  0  0  0
 46 49  1  0  0  0  0
 46 50  1  0  0  0  0
 21 29  1  0  0  0  0
 21 30  1  0  0  0  0
 36 41  1  0  0  0  0
  8 13  1  0  0  0  0
 18 28  1  0  0  0  0
 26 34  1  0  0  0  0
 23 31  1  0  0  0  0
 45 47  1  0  0  0  0
  7 12  1  0  0  0  0
 35 40  1  0  0  0  0
 17 27  1  0  0  0  0
M  CHG  1  23   1
M  END
$$$$

  -OEChem-05262214473D

 50 50  0     1  0  0  0  0  0999 V2000
   -1.6938    0.4865    3.8080 C   0  0  0  0  0  0  0  0  0  0  0  0
   -0.7464   -0.1282    3.3323 O   0  0  0  0  0  0  0  0  0  0  0  0
   -2.1257    0.2041    5.2087 C   0  0  0  0  0  0  0  0  0  0  0  0
   -2.8853   -0.5922    5.2621 H   0  0  0  0  0  0  0  0  0  0  0  0
   -1.2944   -0.1435    5.8430 H   0  0  0  0  0  0  0  0  0  0  0  0
   -2.5637    1.0590    5.7483 H   0  0  0  0  0  0  0  0  0  0  0  0
   -2.4435    1.4589    3.1669 N   0  0  0  0  0  0  0  0  0  0  0  0
   -2.1966    1.8850    1.8145 C   0  0  2  0  0  0  0  0  0  0  0  0
   -0.8617    1.2996    1.3733 C   0  0  0  0  0  0  0  0  0  0  0  0
    0.0104    0.9468    2.1646 O   0  0  0  0  0  0  0  0  0  0  0  0
   -2.1879    3.4017    1.7050 C   0  0  0  0  0  0  0  0  0  0  0  0
   -3.2085    1.8948    3.6787 H   0  0  0  0  0  0  0  0  0  0  0  0
   -3.0007    1.4665    1.1994 H   0  0  0  0  0  0  0  0  0  0  0  0
   -1.3888    3.8390    2.3147 H   0  0  0  0  0  0  0  0  0  0  0  0
   -2.0284    3.7240    0.6708 H   0  0  0  0  0  0  0  0  0  0  0  0
   -3.1380    3.8230    2.0508 H   0  0  0  0  0  0  0  0  0  0  0  0
   -0.7390    1.2565   -0.0101 N   0  0  0  0  0  0  0  0  0  0  0  0
    0.4383    0.7557   -0.6738 C   0  0  2  0  0  0  0  0  0  0  0  0
    0.7794    1.7376   -1.7890 C   0  0  0  0  0  0  0  0  0  0  0  0
    1.5267    1.4557   -2.7233 O   0  0  0  0  0  0  0  0  0  0  0  0
    0.2257   -0.6498   -1.2478 C   0  0  0  0  0  0  0  0  0  0  0  0
   -0.0335   -1.6836   -0.1792 C   0  0  0  0  0  0  0  0  0  0  0  0
    0.9724   -2.1658    0.6232 N   0  3  0  0  0  0  0  0  0  0  0  0
   -1.1812   -2.3174    0.2051 C   0  0  0  0  0  0  0  0  0  0  0  0
    0.4705   -3.0661    1.4746 C   0  0  0  0  0  0  0  0  0  0  0  0
   -0.8400   -3.1672    1.2295 N   0  0  0  0  0  0  0  0  0  0  0  0
   -1.5221    1.5532   -0.5874 H   0  0  0  0  0  0  0  0  0  0  0  0
    1.2436    0.7637    0.0702 H   0  0  0  0  0  0  0  0  0  0  0  0
    1.0941   -0.9503   -1.8497 H   0  0  0  0  0  0  0  0  0  0  0  0
   -0.6231   -0.6552   -1.9444 H   0  0  0  0  0  0  0  0  0  0  0  0
    1.9483   -1.8857    0.5794 H   0  0  0  0  0  0  0  0  0  0  0  0
   -2.2091   -2.2969   -0.0982 H   0  0  0  0  0  0  0  0  0  0  0  0
    1.0221   -3.6116    2.2220 H   0  0  0  0  0  0  0  0  0  0  0  0
   -1.4818   -3.7794    1.7253 H   0  0  0  0  0  0  0  0  0  0  0  0
    0.1108    2.9449   -1.6408 N   0  0  0  0  0  0  0  0  0  0  0  0
    0.2377    4.0419   -2.5731 C   0  0  2  0  0  0  0  0  0  0  0  0
    1.7219    4.2950   -2.8023 C   0  0  0  0  0  0  0  0  0  0  0  0
    2.5919    3.9526   -2.0042 O   0  0  0  0  0  0  0  0  0  0  0  0
   -0.4530    5.2929   -2.0529 C   0  0  0  0  0  0  0  0  0  0  0  0
   -0.4984    3.0633   -0.8367 H   0  0  0  0  0  0  0  0  0  0  0  0
   -0.2267    3.7160   -3.5102 H   0  0  0  0  0  0  0  0  0  0  0  0
   -0.0013    5.6345   -1.1144 H   0  0  0  0  0  0  0  0  0  0  0  0
   -0.3805    6.1147   -2.7729 H   0  0  0  0  0  0  0  0  0  0  0  0
   -1.5141    5.1007   -1.8604 H   0  0  0  0  0  0  0  0  0  0  0  0
    1.9573    4.9865   -3.9824 N   0  0  0  0  0  0  0  0  0  0  0  0
    3.2836    5.3577   -4.4172 C   0  0  0  0  0  0  0  0  0  0  0  0
    1.1776    5.2134   -4.5926 H   0  0  0  0  0  0  0  0  0  0  0  0
    3.5187    6.3698   -4.0561 H   0  0  0  0  0  0  0  0  0  0  0  0
    4.0157    4.6443   -4.0109 H   0  0  0  0  0  0  0  0  0  0  0  0
    3.3270    5.3415   -5.5163 H   0  0  0  0  0  0  0  0  0  0  0  0
 22 24  2  0  0  0  0
 24 26  1  0  0  0  0
 25 26  1  0  0  0  0
 23 25  2  0  0  0  0
 21 22  1  0  0  0  0
 22 23  1  0  0  0  0
  1  3  1  0  0  0  0
  1  7  1  0  0  0  0
  1  2  2  0  0  0  0
 36 37  1  0  0  0  0
 37 45  1  0  0  0  0
 37 38  2  0  0  0  0
  8  9  1  0  0  0  0
  9 17  1  0  0  0  0
  9 10  2  0  0  0  0
 18 19  1  0  0  0  0
 19 35  1  0  0  0  0
 19 20  2  0  0  0  0
 36 39  1  0  0  0  0
  8 11  1  0  0  0  0
 45 46  1  0  0  0  0
 18 21  1  0  0  0  0
 35 36  1  0  0  0  0
  7  8  1  0  0  0  0
 17 18  1  0  0  0  0
 24 32  1  0  0  0  0
 25 33  1  0  0  0  0
  3  4  1  0  0  0  0
  3  5  1  0  0  0  0
  3  6  1  0  0  0  0
 39 42  1  0  0  0  0
 39 43  1  0  0  0  0
 39 44  1  0  0  0  0
 11 14  1  0  0  0  0
 11 15  1  0  0  0  0
 11 16  1  0  0  0  0
 46 48  1  0  0  0  0
 46 49  1  0  0  0  0
 46 50  1  0  0  0  0
 21 29  1  0  0  0  0
 21 30  1  0  0  0  0
 36 41  1  0  0  0  0
  8 13  1  0  0  0  0
 18 28  1  0  0  0  0
 26 34  1  0  0  0  0
 23 31  1  0  0  0  0
 45 47  1  0  0  0  0
  7 12  1  0  0  0  0
 35 40  1  0  0  0  0
 17 27  1  0  0  0  0
M  CHG  1  23   1
M  END
$$$$

  -OEChem-05262214473D

 50 50  0     1  0  0  0  0  0999 V2000
   -1.6938    0.4865    3.8080 C   0  0  0  0  0  0  0  0  0  0  0  0
   -0.7464   -0.1282    3.3323 O   0  0  0  0  0  0  0  0  0  0  0  0
   -2.1257    0.2041    5.2087 C   0  0  0  0  0  0  0  0  0  0  0  0
   -2.8853   -0.5922    5.2621 H   0  0  0  0  0  0  0  0  0  0  0  0
   -1.2944   -0.1435    5.8430 H   0  0  0  0  0  0  0  0  0  0  0  0
   -2.5637    1.0590    5.7483 H   0  0  0  0  0  0  0  0  0  0  0  0
   -2.4435    1.4589    3.1669 N   0  0  0  0  0  0  0  0  0  0  0  0
   -2.1966    1.8850    1.8145 C   0  0  2  0  0  0  0  0  0  0  0  0
   -0.8617    1.2996    1.3733 C   0  0  0  0  0  0  0  0  0  0  0  0
    0.0104    0.9468    2.1646 O   0  0  0  0  0  0  0  0  0  0  0  0
   -2.1879    3.4017    1.7050 C   0  0  0  0  0  0  0  0  0  0  0  0
   -3.2085    1.8948    3.6787 H   0  0  0  0  0  0  0  0  0  0  0  0
   -3.0007    1.4665    1.1994 H   0  0  0  0  0  0  0  0  0  0  0  0
   -1.3888    3.8390    2.3147 H   0  0  0  0  0  0  0  0  0  0  0  0
   -2.0284    3.7240    0.6708 H   0  0  0  0  0  0  0  0  0  0  0  0
   -3.1380    3.8230    2.0508 H   0  0  0  0  0  0  0  0  0  0  0  0
   -0.7390    1.2565   -0.0101 N   0  0  0  0  0  0  0  0  0  0  0  0
    0.4383    0.7557   -0.6738 C   0  0  2  0  0  0  0  0  0  0  0  0
    0.7794    1.7376   -1.7890 C   0  0  0  0  0  0  0  0  0  0  0  0
    1.2972    1.3926   -2.8490 O   0  0  0  0  0  0  0  0  0  0  0  0
    0.2257   -0.6498   -1.2478 C   0  0  0  0  0  0  0  0  0  0  0  0
   -0.0335   -1.6836   -0.1792 C   0  0  0  0  0  0  0  0  0  0  0  0
    0.9724   -2.1658    0.6232 N   0  3  0  0  0  0  0  0  0  0  0  0
   -1.1812   -2.3174    0.2051 C   0  0  0  0  0  0  0  0  0  0  0  0
    0.4705   -3.0661    1.4746 C   0  0  0  0  0  0  0  0  0  0  0  0
   -0.8400   -3.1672    1.2295 N   0  0  0  0  0  0  0  0  0  0  0  0
   -1.5221    1.5532   -0.5874 H   0  0  0  0  0  0  0  0  0  0  0  0
    1.2436    0.7637    0.0702 H   0  0  0  0  0  0  0  0  0  0  0  0
    1.0941   -0.9503   -1.8497 H   0  0  0  0  0  0  0  0  0  0  0  0
   -0.6231   -0.6552   -1.9444 H   0  0  0  0  0  0  0  0  0  0  0  0
    1.9483   -1.8857    0.5794 H   0  0  0  0  0  0  0  0  0  0  0  0
   -2.2091   -2.2969   -0.0982 H   0  0  0  0  0  0  0  0  0  0  0  0
    1.0221   -3.6116    2.2220 H   0  0  0  0  0  0  0  0  0  0  0  0
   -1.4818   -3.7794    1.7253 H   0  0  0  0  0  0  0  0  0  0  0  0
    0.3908    3.0331   -1.4775 N   0  0  0  0  0  0  0  0  0  0  0  0
    0.5765    4.1539   -2.3709 C   0  0  2  0  0  0  0  0  0  0  0  0
    2.0249    4.1452   -2.8416 C   0  0  0  0  0  0  0  0  0  0  0  0
    2.9288    3.5901   -2.2203 O   0  0  0  0  0  0  0  0  0  0  0  0
    0.2349    5.4688   -1.6876 C   0  0  0  0  0  0  0  0  0  0  0  0
   -0.0461    3.2021   -0.5762 H   0  0  0  0  0  0  0  0  0  0  0  0
   -0.0872    3.9894   -3.2268 H   0  0  0  0  0  0  0  0  0  0  0  0
    0.8896    5.6509   -0.8275 H   0  0  0  0  0  0  0  0  0  0  0  0
    0.3487    6.3141   -2.3743 H   0  0  0  0  0  0  0  0  0  0  0  0
   -0.7981    5.4619   -1.3234 H   0  0  0  0  0  0  0  0  0  0  0  0
    2.1968    4.8667   -4.0146 N   0  0  0  0  0  0  0  0  0  0  0  0
    3.4823    5.0181   -4.6555 C   0  0  0  0  0  0  0  0  0  0  0  0
    1.3882    5.2780   -4.4713 H   0  0  0  0  0  0  0  0  0  0  0  0
    3.9645    5.9399   -4.2982 H   0  0  0  0  0  0  0  0  0  0  0  0
    4.1175    4.1538   -4.4115 H   0  0  0  0  0  0  0  0  0  0  0  0
    3.3440    5.0755   -5.7453 H   0  0  0  0  0  0  0  0  0  0  0  0
 22 24  2  0  0  0  0
 24 26  1  0  0  0  0
 25 26  1  0  0  0  0
 23 25  2  0  0  0  0
 21 22  1  0  0  0  0
 22 23  1  0  0  0  0
  1  3  1  0  0  0  0
  1  7  1  0  0  0  0
  1  2  2  0  0  0  0
 36 37  1  0  0  0  0
 37 45  1  0  0  0  0
 37 38  2  0  0  0  0
  8  9  1  0  0  0  0
  9 17  1  0  0  0  0
  9 10  2  0  0  0  0
 18 19  1  0  0  0  0
 19 35  1  0  0  0  0
 19 20  2  0  0  0  0
 36 39  1  0  0  0  0
  8 11  1  0  0  0  0
 45 46  1  0  0  0  0
 18 21  1  0  0  0  0
 35 36  1  0  0  0  0
  7  8  1  0  0  0  0
 17 18  1  0  0  0  0
 24 32  1  0  0  0  0
 25 33  1  0  0  0  0
  3  4  1  0  0  0  0
  3  5  1  0  0  0  0
  3  6  1  0  0  0  0
 39 42  1  0  0  0  0
 39 43  1  0  0  0  0
 39 44  1  0  0  0  0
 11 14  1  0  0  0  0
 11 15  1  0  0  0  0
 11 16  1  0  0  0  0
 46 48  1  0  0  0  0
 46 49  1  0  0  0  0
 46 50  1  0  0  0  0
 21 29  1  0  0  0  0
 21 30  1  0  0  0  0
 36 41  1  0  0  0  0
  8 13  1  0  0  0  0
 18 28  1  0  0  0  0
 26 34  1  0  0  0  0
 23 31  1  0  0  0  0
 45 47  1  0  0  0  0
  7 12  1  0  0  0  0
 35 40  1  0  0  0  0
 17 27  1  0  0  0  0
M  CHG  1  23   1
M  END
$$$$

  -OEChem-05262214473D

 50 50  0     1  0  0  0  0  0999 V2000
   -1.6938    0.4865    3.8080 C   0  0  0  0  0  0  0  0  0  0  0  0
   -0.7464   -0.1282    3.3323 O   0  0  0  0  0  0  0  0  0  0  0  0
   -2.1257    0.2041    5.2087 C   0  0  0  0  0  0  0  0  0  0  0  0
   -2.8853   -0.5922    5.2621 H   0  0  0  0  0  0  0  0  0  0  0  0
   -1.2944   -0.1435    5.8430 H   0  0  0  0  0  0  0  0  0  0  0  0
   -2.5637    1.0590    5.7483 H   0  0  0  0  0  0  0  0  0  0  0  0
   -2.4435    1.4589    3.1669 N   0  0  0  0  0  0  0  0  0  0  0  0
   -2.1966    1.8850    1.8145 C   0  0  2  0  0  0  0  0  0  0  0  0
   -0.8617    1.2996    1.3733 C   0  0  0  0  0  0  0  0  0  0  0  0
    0.0104    0.9468    2.1646 O   0  0  0  0  0  0  0  0  0  0  0  0
   -2.1879    3.4017    1.7050 C   0  0  0  0  0  0  0  0  0  0  0  0
   -3.2085    1.8948    3.6787 H   0  0  0  0  0  0  0  0  0  0  0  0
   -3.0007    1.4665    1.1994 H   0  0  0  0  0  0  0  0  0  0  0  0
   -1.3888    3.8390    2.3147 H   0  0  0  0  0  0  0  0  0  0  0  0
   -2.0284    3.7240    0.6708 H   0  0  0  0  0  0  0  0  0  0  0  0
   -3.1380    3.8230    2.0508 H   0  0  0  0  0  0  0  0  0  0  0  0
   -0.7390    1.2565   -0.0101 N   0  0  0  0  0  0  0  0  0  0  0  0
    0.4383    0.7557   -0.6738 C   0  0  2  0  0  0  0  0  0  0  0  0
    0.7794    1.7376   -1.7890 C   0  0  0  0  0  0  0  0  0  0  0  0
    1.0427    1.3824   -2.9359 O   0  0  0  0  0  0  0  0  0  0  0  0
    0.2257   -0.6498   -1.2478 C   0  0  0  0  0  0  0  0  0  0  0  0
   -0.0335   -1.6836   -0.1792 C   0  0  0  0  0  0  0  0  0  0  0  0
    0.9724   -2.1658    0.6232 N   0  3  0  0  0  0  0  0  0  0  0  0
   -1.1812   -2.3174    0.2051 C   0  0  0  0  0  0  0  0  0  0  0  0
    0.4705   -3.0661    1.4746 C   0  0  0  0  0  0  0  0  0  0  0  0
   -0.8400   -3.1672    1.2295 N   0  0  0  0  0  0  0  0  0  0  0  0
   -1.5221    1.5532   -0.5874 H   0  0  0  0  0  0  0  0  0  0  0  0
    1.2436    0.7637    0.0702 H   0  0  0  0  0  0  0  0  0  0  0  0
    1.0941   -0.9503   -1.8497 H   0  0  0  0  0  0  0  0  0  0  0  0
   -0.6231   -0.6552   -1.9444 H   0  0  0  0  0  0  0  0  0  0  0  0
    1.9483   -1.8857    0.5794 H   0  0  0  0  0  0  0  0  0  0  0  0
   -2.2091   -2.2969   -0.0982 H   0  0  0  0  0  0  0  0  0  0  0  0
    1.0221   -3.6116    2.2220 H   0  0  0  0  0  0  0  0  0  0  0  0
   -1.4818   -3.7794    1.7253 H   0  0  0  0  0  0  0  0  0  0  0  0
    0.7052    3.0559   -1.3612 N   0  0  0  0  0  0  0  0  0  0  0  0
    0.9586    4.1862   -2.2256 C   0  0  2  0  0  0  0  0  0  0  0  0
    2.2826    3.9453   -2.9387 C   0  0  0  0  0  0  0  0  0  0  0  0
    3.1496    3.1887   -2.5062 O   0  0  0  0  0  0  0  0  0  0  0  0
    0.9936    5.4873   -1.4392 C   0  0  0  0  0  0  0  0  0  0  0  0
    0.4605    3.2354   -0.3919 H   0  0  0  0  0  0  0  0  0  0  0  0
    0.1466    4.2107   -2.9604 H   0  0  0  0  0  0  0  0  0  0  0  0
    1.8011    5.4814   -0.6979 H   0  0  0  0  0  0  0  0  0  0  0  0
    1.1573    6.3456   -2.0992 H   0  0  0  0  0  0  0  0  0  0  0  0
    0.0514    5.6441   -0.9031 H   0  0  0  0  0  0  0  0  0  0  0  0
    2.4002    4.7076   -4.0925 N   0  0  0  0  0  0  0  0  0  0  0  0
    3.5701    4.6662   -4.9384 C   0  0  0  0  0  0  0  0  0  0  0  0
    1.6240    5.2936   -4.3855 H   0  0  0  0  0  0  0  0  0  0  0  0
    4.2733    5.4543   -4.6312 H   0  0  0  0  0  0  0  0  0  0  0  0
    4.0563    3.6840   -4.8439 H   0  0  0  0  0  0  0  0  0  0  0  0
    3.2719    4.8286   -5.9847 H   0  0  0  0  0  0  0  0  0  0  0  0
 22 24  2  0  0  0  0
 24 26  1  0  0  0  0
 25 26  1  0  0  0  0
 23 25  2  0  0  0  0
 21 22  1  0  0  0  0
 22 23  1  0  0  0  0
  1  3  1  0  0  0  0
  1  7  1  0  0  0  0
  1  2  2  0  0  0  0
 36 37  1  0  0  0  0
 37 45  1  0  0  0  0
 37 38  2  0  0  0  0
  8  9  1  0  0  0  0
  9 17  1  0  0  0  0
  9 10  2  0  0  0  0
 18 19  1  0  0  0  0
 19 35  1  0  0  0  0
 19 20  2  0  0  0  0
 36 39  1  0  0  0  0
  8 11  1  0  0  0  0
 45 46  1  0  0  0  0
 18 21  1  0  0  0  0
 35 36  1  0  0  0  0
  7  8  1  0  0  0  0
 17 18  1  0  0  0  0
 24 32  1  0  0  0  0
 25 33  1  0  0  0  0
  3  4  1  0  0  0  0
  3  5  1  0  0  0  0
  3  6  1  0  0  0  0
 39 42  1  0  0  0  0
 39 43  1  0  0  0  0
 39 44  1  0  0  0  0
 11 14  1  0  0  0  0
 11 15  1  0  0  0  0
 11 16  1  0  0  0  0
 46 48  1  0  0  0  0
 46 49  1  0  0  0  0
 46 50  1  0  0  0  0
 21 29  1  0  0  0  0
 21 30  1  0  0  0  0
 36 41  1  0  0  0  0
  8 13  1  0  0  0  0
 18 28  1  0  0  0  0
 26 34  1  0  0  0  0
 23 31  1  0  0  0  0
 45 47  1  0  0  0  0
  7 12  1  0  0  0  0
 35 40  1  0  0  0  0
 17 27  1  0  0  0  0
M  CHG  1  23   1
M  END
$$$$

  -OEChem-05262214473D

 50 50  0     1  0  0  0  0  0999 V2000
   -1.6938    0.4865    3.8080 C   0  0  0  0  0  0  0  0  0  0  0  0
   -0.7464   -0.1282    3.3323 O   0  0  0  0  0  0  0  0  0  0  0  0
   -2.1257    0.2041    5.2087 C   0  0  0  0  0  0  0  0  0  0  0  0
   -2.8853   -0.5922    5.2621 H   0  0  0  0  0  0  0  0  0  0  0  0
   -1.2944   -0.1435    5.8430 H   0  0  0  0  0  0  0  0  0  0  0  0
   -2.5637    1.0590    5.7483 H   0  0  0  0  0  0  0  0  0  0  0  0
   -2.4435    1.4589    3.1669 N   0  0  0  0  0  0  0  0  0  0  0  0
   -2.1966    1.8850    1.8145 C   0  0  2  0  0  0  0  0  0  0  0  0
   -0.8617    1.2996    1.3733 C   0  0  0  0  0  0  0  0  0  0  0  0
    0.0104    0.9468    2.1646 O   0  0  0  0  0  0  0  0  0  0  0  0
   -2.1879    3.4017    1.7050 C   0  0  0  0  0  0  0  0  0  0  0  0
   -3.2085    1.8948    3.6787 H   0  0  0  0  0  0  0  0  0  0  0  0
   -3.0007    1.4665    1.1994 H   0  0  0  0  0  0  0  0  0  0  0  0
   -1.3888    3.8390    2.3147 H   0  0  0  0  0  0  0  0  0  0  0  0
   -2.0284    3.7240    0.6708 H   0  0  0  0  0  0  0  0  0  0  0  0
   -3.1380    3.8230    2.0508 H   0  0  0  0  0  0  0  0  0  0  0  0
   -0.7390    1.2565   -0.0101 N   0  0  0  0  0  0  0  0  0  0  0  0
    0.4383    0.7557   -0.6738 C   0  0  2  0  0  0  0  0  0  0  0  0
    0.7794    1.7376   -1.7890 C   0  0  0  0  0  0  0  0  0  0  0  0
    0.7804    1.4258   -2.9779 O   0  0  0  0  0  0  0  0  0  0  0  0
    0.2257   -0.6498   -1.2478 C   0  0  0  0  0  0  0  0  0  0  0  0
   -0.0335   -1.6836   -0.1792 C   0  0  0  0  0  0  0  0  0  0  0  0
    0.9724   -2.1658    0.6232 N   0  3  0  0  0  0  0  0  0  0  0  0
   -1.1812   -2.3174    0.2051 C   0  0  0  0  0  0  0  0  0  0  0  0
    0.4705   -3.0661    1.4746 C   0  0  0  0  0  0  0  0  0  0  0  0
   -0.8400   -3.1672    1.2295 N   0  0  0  0  0  0  0  0  0  0  0  0
   -1.5221    1.5532   -0.5874 H   0  0  0  0  0  0  0  0  0  0  0  0
    1.2436    0.7637    0.0702 H   0  0  0  0  0  0  0  0  0  0  0  0
    1.0941   -0.9503   -1.8497 H   0  0  0  0  0  0  0  0  0  0  0  0
   -0.6231   -0.6552   -1.9444 H   0  0  0  0  0  0  0  0  0  0  0  0
    1.9483   -1.8857    0.5794 H   0  0  0  0  0  0  0  0  0  0  0  0
   -2.2091   -2.2969   -0.0982 H   0  0  0  0  0  0  0  0  0  0  0  0
    1.0221   -3.6116    2.2220 H   0  0  0  0  0  0  0  0  0  0  0  0
   -1.4818   -3.7794    1.7253 H   0  0  0  0  0  0  0  0  0  0  0  0
    1.0326    3.0117   -1.3000 N   0  0  0  0  0  0  0  0  0  0  0  0
    1.3581    4.1366   -2.1471 C   0  0  2  0  0  0  0  0  0  0  0  0
    2.4776    3.7091   -3.0870 C   0  0  0  0  0  0  0  0  0  0  0  0
    3.2391    2.7757   -2.8424 O   0  0  0  0  0  0  0  0  0  0  0  0
    1.7714    5.3472   -1.3247 C   0  0  0  0  0  0  0  0  0  0  0  0
    0.9869    3.1610   -0.2964 H   0  0  0  0  0  0  0  0  0  0  0  0
    0.4587    4.3647   -2.7293 H   0  0  0  0  0  0  0  0  0  0  0  0
    2.6710    5.1376   -0.7345 H   0  0  0  0  0  0  0  0  0  0  0  0
    1.9901    6.2070   -1.9665 H   0  0  0  0  0  0  0  0  0  0  0  0
    0.9765    5.6350   -0.6282 H   0  0  0  0  0  0  0  0  0  0  0  0
    2.5534    4.5198   -4.2109 N   0  0  0  0  0  0  0  0  0  0  0  0
    3.5412    4.3261   -5.2467 C   0  0  0  0  0  0  0  0  0  0  0  0
    1.8690    5.2590   -4.3410 H   0  0  0  0  0  0  0  0  0  0  0  0
    4.4243    4.9461   -5.0325 H   0  0  0  0  0  0  0  0  0  0  0  0
    3.8360    3.2669   -5.2786 H   0  0  0  0  0  0  0  0  0  0  0  0
    3.1156    4.6177   -6.2182 H   0  0  0  0  0  0  0  0  0  0  0  0
 22 24  2  0  0  0  0
 24 26  1  0  0  0  0
 25 26  1  0  0  0  0
 23 25  2  0  0  0  0
 21 22  1  0  0  0  0
 22 23  1  0  0  0  0
  1  3  1  0  0  0  0
  1  7  1  0  0  0  0
  1  2  2  0  0  0  0
 36 37  1  0  0  0  0
 37 45  1  0  0  0  0
 37 38  2  0  0  0  0
  8  9  1  0  0  0  0
  9 17  1  0  0  0  0
  9 10  2  0  0  0  0
 18 19  1  0  0  0  0
 19 35  1  0  0  0  0
 19 20  2  0  0  0  0
 36 39  1  0  0  0  0
  8 11  1  0  0  0  0
 45 46  1  0  0  0  0
 18 21  1  0  0  0  0
 35 36  1  0  0  0  0
  7  8  1  0  0  0  0
 17 18  1  0  0  0  0
 24 32  1  0  0  0  0
 25 33  1  0  0  0  0
  3  4  1  0  0  0  0
  3  5  1  0  0  0  0
  3  6  1  0  0  0  0
 39 42  1  0  0  0  0
 39 43  1  0  0  0  0
 39 44  1  0  0  0  0
 11 14  1  0  0  0  0
 11 15  1  0  0  0  0
 11 16  1  0  0  0  0
 46 48  1  0  0  0  0
 46 49  1  0  0  0  0
 46 50  1  0  0  0  0
 21 29  1  0  0  0  0
 21 30  1  0  0  0  0
 36 41  1  0  0  0  0
  8 13  1  0  0  0  0
 18 28  1  0  0  0  0
 26 34  1  0  0  0  0
 23 31  1  0  0  0  0
 45 47  1  0  0  0  0
  7 12  1  0  0  0  0
 35 40  1  0  0  0  0
 17 27  1  0  0  0  0
M  CHG  1  23   1
M  END
$$$$

  -OEChem-05262214473D

 50 50  0     1  0  0  0  0  0999 V2000
   -1.6938    0.4865    3.8080 C   0  0  0  0  0  0  0  0  0  0  0  0
   -0.7464   -0.1282    3.3323 O   0  0  0  0  0  0  0  0  0  0  0  0
   -2.1257    0.2041    5.2087 C   0  0  0  0  0  0  0  0  0  0  0  0
   -2.8853   -0.5922    5.2621 H   0  0  0  0  0  0  0  0  0  0  0  0
   -1.2944   -0.1435    5.8430 H   0  0  0  0  0  0  0  0  0  0  0  0
   -2.5637    1.0590    5.7483 H   0  0  0  0  0  0  0  0  0  0  0  0
   -2.4435    1.4589    3.1669 N   0  0  0  0  0  0  0  0  0  0  0  0
   -2.1966    1.8850    1.8145 C   0  0  2  0  0  0  0  0  0  0  0  0
   -0.8617    1.2996    1.3733 C   0  0  0  0  0  0  0  0  0  0  0  0
    0.0104    0.9468    2.1646 O   0  0  0  0  0  0  0  0  0  0  0  0
   -2.1879    3.4017    1.7050 C   0  0  0  0  0  0  0  0  0  0  0  0
   -3.2085    1.8948    3.6787 H   0  0  0  0  0  0  0  0  0  0  0  0
   -3.0007    1.4665    1.1994 H   0  0  0  0  0  0  0  0  0  0  0  0
   -1.3888    3.8390    2.3147 H   0  0  0  0  0  0  0  0  0  0  0  0
   -2.0284    3.7240    0.6708 H   0  0  0  0  0  0  0  0  0  0  0  0
   -3.1380    3.8230    2.0508 H   0  0  0  0  0  0  0  0  0  0  0  0
   -0.7390    1.2565   -0.0101 N   0  0  0  0  0  0  0  0  0  0  0  0
    0.4383    0.7557   -0.6738 C   0  0  2  0  0  0  0  0  0  0  0  0
    0.7794    1.7376   -1.7890 C   0  0  0  0  0  0  0  0  0  0  0  0
    0.5282    1.5198   -2.9723 O   0  0  0  0  0  0  0  0  0  0  0  0
    0.2257   -0.6498   -1.2478 C   0  0  0  0  0  0  0  0  0  0  0  0
   -0.0335   -1.6836   -0.1792 C   0  0  0  0  0  0  0  0  0  0  0  0
    0.9724   -2.1658    0.6232 N   0  3  0  0  0  0  0  0  0  0  0  0
   -1.1812   -2.3174    0.2051 C   0  0  0  0  0  0  0  0  0  0  0  0
    0.4705   -3.0661    1.4746 C   0  0  0  0  0  0  0  0  0  0  0  0
   -0.8400   -3.1672    1.2295 N   0  0  0  0  0  0  0  0  0  0  0  0
   -1.5221    1.5532   -0.5874 H   0  0  0  0  0  0  0  0  0  0  0  0
    1.2436    0.7637    0.0702 H   0  0  0  0  0  0  0  0  0  0  0  0
    1.0941   -0.9503   -1.8497 H   0  0  0  0  0  0  0  0  0  0  0  0
   -0.6231   -0.6552   -1.9444 H   0  0  0  0  0  0  0  0  0  0  0  0
    1.9483   -1.8857    0.5794 H   0  0  0  0  0  0  0  0  0  0  0  0
   -2.2091   -2.2969   -0.0982 H   0  0  0  0  0  0  0  0  0  0  0  0
    1.0221   -3.6116    2.2220 H   0  0  0  0  0  0  0  0  0  0  0  0
   -1.4818   -3.7794    1.7253 H   0  0  0  0  0  0  0  0  0  0  0  0
    1.3507    2.9034   -1.2981 N   0  0  0  0  0  0  0  0  0  0  0  0
    1.7476    4.0085   -2.1407 C   0  0  2  0  0  0  0  0  0  0  0  0
    2.5964    3.4526   -3.2765 C   0  0  0  0  0  0  0  0  0  0  0  0
    3.1914    2.3793   -3.2060 O   0  0  0  0  0  0  0  0  0  0  0  0
    2.5152    5.0579   -1.3518 C   0  0  0  0  0  0  0  0  0  0  0  0
    1.4971    2.9840   -0.2962 H   0  0  0  0  0  0  0  0  0  0  0  0
    0.8278    4.4410   -2.5492 H   0  0  0  0  0  0  0  0  0  0  0  0
    3.4401    4.6430   -0.9347 H   0  0  0  0  0  0  0  0  0  0  0  0
    2.7904    5.9077   -1.9852 H   0  0  0  0  0  0  0  0  0  0  0  0
    1.9142    5.4351   -0.5174 H   0  0  0  0  0  0  0  0  0  0  0  0
    2.6462    4.3163   -4.3617 N   0  0  0  0  0  0  0  0  0  0  0  0
    3.3975    4.0210   -5.5594 C   0  0  0  0  0  0  0  0  0  0  0  0
    2.1065    5.1766   -4.3409 H   0  0  0  0  0  0  0  0  0  0  0  0
    4.4069    4.4499   -5.4748 H   0  0  0  0  0  0  0  0  0  0  0  0
    3.4719    2.9308   -5.6858 H   0  0  0  0  0  0  0  0  0  0  0  0
    2.8857    4.4570   -6.4300 H   0  0  0  0  0  0  0  0  0  0  0  0
 22 24  2  0  0  0  0
 24 26  1  0  0  0  0
 25 26  1  0  0  0  0
 23 25  2  0  0  0  0
 21 22  1  0  0  0  0
 22 23  1  0  0  0  0
  1  3  1  0  0  0  0
  1  7  1  0  0  0  0
  1  2  2  0  0  0  0
 36 37  1  0  0  0  0
 37 45  1  0  0  0  0
 37 38  2  0  0  0  0
  8  9  1  0  0  0  0
  9 17  1  0  0  0  0
  9 10  2  0  0  0  0
 18 19  1  0  0  0  0
 19 35  1  0  0  0  0
 19 20  2  0  0  0  0
 36 39  1  0  0  0  0
  8 11  1  0  0  0  0
 45 46  1  0  0  0  0
 18 21  1  0  0  0  0
 35 36  1  0  0  0  0
  7  8  1  0  0  0  0
 17 18  1  0  0  0  0
 24 32  1  0  0  0  0
 25 33  1  0  0  0  0
  3  4  1  0  0  0  0
  3  5  1  0  0  0  0
  3  6  1  0  0  0  0
 39 42  1  0  0  0  0
 39 43  1  0  0  0  0
 39 44  1  0  0  0  0
 11 14  1  0  0  0  0
 11 15  1  0  0  0  0
 11 16  1  0  0  0  0
 46 48  1  0  0  0  0
 46 49  1  0  0  0  0
 46 50  1  0  0  0  0
 21 29  1  0  0  0  0
 21 30  1  0  0  0  0
 36 41  1  0  0  0  0
  8 13  1  0  0  0  0
 18 28  1  0  0  0  0
 26 34  1  0  0  0  0
 23 31  1  0  0  0  0
 45 47  1  0  0  0  0
  7 12  1  0  0  0  0
 35 40  1  0  0  0  0
 17 27  1  0  0  0  0
M  CHG  1  23   1
M  END
$$$$

  -OEChem-05262214473D

 50 50  0     1  0  0  0  0  0999 V2000
   -1.6938    0.4865    3.8080 C   0  0  0  0  0  0  0  0  0  0  0  0
   -0.7464   -0.1282    3.3323 O   0  0  0  0  0  0  0  0  0  0  0  0
   -2.1257    0.2041    5.2087 C   0  0  0  0  0  0  0  0  0  0  0  0
   -2.8853   -0.5922    5.2621 H   0  0  0  0  0  0  0  0  0  0  0  0
   -1.2944   -0.1435    5.8430 H   0  0  0  0  0  0  0  0  0  0  0  0
   -2.5637    1.0590    5.7483 H   0  0  0  0  0  0  0  0  0  0  0  0
   -2.4435    1.4589    3.1669 N   0  0  0  0  0  0  0  0  0  0  0  0
   -2.1966    1.8850    1.8145 C   0  0  2  0  0  0  0  0  0  0  0  0
   -0.8617    1.2996    1.3733 C   0  0  0  0  0  0  0  0  0  0  0  0
    0.0104    0.9468    2.1646 O   0  0  0  0  0  0  0  0  0  0  0  0
   -2.1879    3.4017    1.7050 C   0  0  0  0  0  0  0  0  0  0  0  0
   -3.2085    1.8948    3.6787 H   0  0  0  0  0  0  0  0  0  0  0  0
   -3.0007    1.4665    1.1994 H   0  0  0  0  0  0  0  0  0  0  0  0
   -1.3888    3.8390    2.3147 H   0  0  0  0  0  0  0  0  0  0  0  0
   -2.0284    3.7240    0.6708 H   0  0  0  0  0  0  0  0  0  0  0  0
   -3.1380    3.8230    2.0508 H   0  0  0  0  0  0  0  0  0  0  0  0
   -0.7390    1.2565   -0.0101 N   0  0  0  0  0  0  0  0  0  0  0  0
    0.4383    0.7557   -0.6738 C   0  0  2  0  0  0  0  0  0  0  0  0
    0.7794    1.7376   -1.7890 C   0  0  0  0  0  0  0  0  0  0  0  0
    0.3033    1.6580   -2.9194 O   0  0  0  0  0  0  0  0  0  0  0  0
    0.2257   -0.6498   -1.2478 C   0  0  0  0  0  0  0  0  0  0  0  0
   -0.0335   -1.6836   -0.1792 C   0  0  0  0  0  0  0  0  0  0  0  0
    0.9724   -2.1658    0.6232 N   0  3  0  0  0  0  0  0  0  0  0  0
   -1.1812   -2.3174    0.2051 C   0  0  0  0  0  0  0  0  0  0  0  0
    0.4705   -3.0661    1.4746 C   0  0  0  0  0  0  0  0  0  0  0  0
   -0.8400   -3.1672    1.2295 N   0  0  0  0  0  0  0  0  0  0  0  0
   -1.5221    1.5532   -0.5874 H   0  0  0  0  0  0  0  0  0  0  0  0
    1.2436    0.7637    0.0702 H   0  0  0  0  0  0  0  0  0  0  0  0
    1.0941   -0.9503   -1.8497 H   0  0  0  0  0  0  0  0  0  0  0  0
   -0.6231   -0.6552   -1.9444 H   0  0  0  0  0  0  0  0  0  0  0  0
    1.9483   -1.8857    0.5794 H   0  0  0  0  0  0  0  0  0  0  0  0
   -2.2091   -2.2969   -0.0982 H   0  0  0  0  0  0  0  0  0  0  0  0
    1.0221   -3.6116    2.2220 H   0  0  0  0  0  0  0  0  0  0  0  0
   -1.4818   -3.7794    1.7253 H   0  0  0  0  0  0  0  0  0  0  0  0
    1.6377    2.7385   -1.3555 N   0  0  0  0  0  0  0  0  0  0  0  0
    2.1007    3.8107   -2.2068 C   0  0  2  0  0  0  0  0  0  0  0  0
    2.6310    3.1934   -3.4942 C   0  0  0  0  0  0  0  0  0  0  0  0
    3.0097    2.0265   -3.5722 O   0  0  0  0  0  0  0  0  0  0  0  0
    3.1744    4.6393   -1.5188 C   0  0  0  0  0  0  0  0  0  0  0  0
    1.9565    2.7164   -0.3913 H   0  0  0  0  0  0  0  0  0  0  0  0
    1.2289    4.4344   -2.4323 H   0  0  0  0  0  0  0  0  0  0  0  0
    4.0559    4.0312   -1.2850 H   0  0  0  0  0  0  0  0  0  0  0  0
    3.5037    5.4682   -2.1540 H   0  0  0  0  0  0  0  0  0  0  0  0
    2.8005    5.0580   -0.5782 H   0  0  0  0  0  0  0  0  0  0  0  0
    2.6722    4.1109   -4.5346 N   0  0  0  0  0  0  0  0  0  0  0  0
    3.1488    3.7715   -5.8551 C   0  0  0  0  0  0  0  0  0  0  0  0
    2.3204    5.0520   -4.3851 H   0  0  0  0  0  0  0  0  0  0  0  0
    4.2225    3.9994   -5.9278 H   0  0  0  0  0  0  0  0  0  0  0  0
    2.9887    2.6987   -6.0380 H   0  0  0  0  0  0  0  0  0  0  0  0
    2.5980    4.3576   -6.6055 H   0  0  0  0  0  0  0  0  0  0  0  0
 22 24  2  0  0  0  0
 24 26  1  0  0  0  0
 25 26  1  0  0  0  0
 23 25  2  0  0  0  0
 21 22  1  0  0  0  0
 22 23  1  0  0  0  0
  1  3  1  0  0  0  0
  1  7  1  0  0  0  0
  1  2  2  0  0  0  0
 36 37  1  0  0  0  0
 37 45  1  0  0  0  0
 37 38  2  0  0  0  0
  8  9  1  0  0  0  0
  9 17  1  0  0  0  0
  9 10  2  0  0  0  0
 18 19  1  0  0  0  0
 19 35  1  0  0  0  0
 19 20  2  0  0  0  0
 36 39  1  0  0  0  0
  8 11  1  0  0  0  0
 45 46  1  0  0  0  0
 18 21  1  0  0  0  0
 35 36  1  0  0  0  0
  7  8  1  0  0  0  0
 17 18  1  0  0  0  0
 24 32  1  0  0  0  0
 25 33  1  0  0  0  0
  3  4  1  0  0  0  0
  3  5  1  0  0  0  0
  3  6  1  0  0  0  0
 39 42  1  0  0  0  0
 39 43  1  0  0  0  0
 39 44  1  0  0  0  0
 11 14  1  0  0  0  0
 11 15  1  0  0  0  0
 11 16  1  0  0  0  0
 46 48  1  0  0  0  0
 46 49  1  0  0  0  0
 46 50  1  0  0  0  0
 21 29  1  0  0  0  0
 21 30  1  0  0  0  0
 36 41  1  0  0  0  0
  8 13  1  0  0  0  0
 18 28  1  0  0  0  0
 26 34  1  0  0  0  0
 23 31  1  0  0  0  0
 45 47  1  0  0  0  0
  7 12  1  0  0  0  0
 35 40  1  0  0  0  0
 17 27  1  0  0  0  0
M  CHG  1  23   1
M  END
$$$$

  -OEChem-05262214473D

 50 50  0     1  0  0  0  0  0999 V2000
   -1.6938    0.4865    3.8080 C   0  0  0  0  0  0  0  0  0  0  0  0
   -0.7464   -0.1282    3.3323 O   0  0  0  0  0  0  0  0  0  0  0  0
   -2.1257    0.2041    5.2087 C   0  0  0  0  0  0  0  0  0  0  0  0
   -2.8853   -0.5922    5.2621 H   0  0  0  0  0  0  0  0  0  0  0  0
   -1.2944   -0.1435    5.8430 H   0  0  0  0  0  0  0  0  0  0  0  0
   -2.5637    1.0590    5.7483 H   0  0  0  0  0  0  0  0  0  0  0  0
   -2.4435    1.4589    3.1669 N   0  0  0  0  0  0  0  0  0  0  0  0
   -2.1966    1.8850    1.8145 C   0  0  2  0  0  0  0  0  0  0  0  0
   -0.8617    1.2996    1.3733 C   0  0  0  0  0  0  0  0  0  0  0  0
    0.0104    0.9468    2.1646 O   0  0  0  0  0  0  0  0  0  0  0  0
   -2.1879    3.4017    1.7050 C   0  0  0  0  0  0  0  0  0  0  0  0
   -3.2085    1.8948    3.6787 H   0  0  0  0  0  0  0  0  0  0  0  0
   -3.0007    1.4665    1.1994 H   0  0  0  0  0  0  0  0  0  0  0  0
   -1.3888    3.8390    2.3147 H   0  0  0  0  0  0  0  0  0  0  0  0
   -2.0284    3.7240    0.6708 H   0  0  0  0  0  0  0  0  0  0  0  0
   -3.1380    3.8230    2.0508 H   0  0  0  0  0  0  0  0  0  0  0  0
   -0.7390    1.2565   -0.0101 N   0  0  0  0  0  0  0  0  0  0  0  0
    0.4383    0.7557   -0.6738 C   0  0  2  0  0  0  0  0  0  0  0  0
    0.7794    1.7376   -1.7890 C   0  0  0  0  0  0  0  0  0  0  0  0
    0.1212    1.8310   -2.8228 O   0  0  0  0  0  0  0  0  0  0  0  0
    0.2257   -0.6498   -1.2478 C   0  0  0  0  0  0  0  0  0  0  0  0
   -0.0335   -1.6836   -0.1792 C   0  0  0  0  0  0  0  0  0  0  0  0
    0.9724   -2.1658    0.6232 N   0  3  0  0  0  0  0  0  0  0  0  0
   -1.1812   -2.3174    0.2051 C   0  0  0  0  0  0  0  0  0  0  0  0
    0.4705   -3.0661    1.4746 C   0  0  0  0  0  0  0  0  0  0  0  0
   -0.8400   -3.1672    1.2295 N   0  0  0  0  0  0  0  0  0  0  0  0
   -1.5221    1.5532   -0.5874 H   0  0  0  0  0  0  0  0  0  0  0  0
    1.2436    0.7637    0.0702 H   0  0  0  0  0  0  0  0  0  0  0  0
    1.0941   -0.9503   -1.8497 H   0  0  0  0  0  0  0  0  0  0  0  0
   -0.6231   -0.6552   -1.9444 H   0  0  0  0  0  0  0  0  0  0  0  0
    1.9483   -1.8857    0.5794 H   0  0  0  0  0  0  0  0  0  0  0  0
   -2.2091   -2.2969   -0.0982 H   0  0  0  0  0  0  0  0  0  0  0  0
    1.0221   -3.6116    2.2220 H   0  0  0  0  0  0  0  0  0  0  0  0
   -1.4818   -3.7794    1.7253 H   0  0  0  0  0  0  0  0  0  0  0  0
    1.8742    2.5282   -1.4683 N   0  0  0  0  0  0  0  0  0  0  0  0
    2.3933    3.5566   -2.3411 C   0  0  2  0  0  0  0  0  0  0  0  0
    2.5791    2.9490   -3.7252 C   0  0  0  0  0  0  0  0  0  0  0  0
    2.7063    1.7413   -3.9161 O   0  0  0  0  0  0  0  0  0  0  0  0
    3.7040    4.1197   -1.8142 C   0  0  0  0  0  0  0  0  0  0  0  0
    2.3337    2.3764   -0.5752 H   0  0  0  0  0  0  0  0  0  0  0  0
    1.6345    4.3454   -2.3867 H   0  0  0  0  0  0  0  0  0  0  0  0
    4.4766    3.3440   -1.7614 H   0  0  0  0  0  0  0  0  0  0  0  0
    4.0814    4.9184   -2.4614 H   0  0  0  0  0  0  0  0  0  0  0  0
    3.5751    4.5295   -0.8066 H   0  0  0  0  0  0  0  0  0  0  0  0
    2.6295    3.9176   -4.7179 N   0  0  0  0  0  0  0  0  0  0  0  0
    2.8120    3.5947   -6.1137 C   0  0  0  0  0  0  0  0  0  0  0  0
    2.4960    4.8938   -4.4708 H   0  0  0  0  0  0  0  0  0  0  0  0
    3.8835    3.6255   -6.3607 H   0  0  0  0  0  0  0  0  0  0  0  0
    2.4192    2.5864   -6.3111 H   0  0  0  0  0  0  0  0  0  0  0  0
    2.2720    4.3262   -6.7328 H   0  0  0  0  0  0  0  0  0  0  0  0
 22 24  2  0  0  0  0
 24 26  1  0  0  0  0
 25 26  1  0  0  0  0
 23 25  2  0  0  0  0
 21 22  1  0  0  0  0
 22 23  1  0  0  0  0
  1  3  1  0  0  0  0
  1  7  1  0  0  0  0
  1  2  2  0  0  0  0
 36 37  1  0  0  0  0
 37 45  1  0  0  0  0
 37 38  2  0  0  0  0
  8  9  1  0  0  0  0
  9 17  1  0  0  0  0
  9 10  2  0  0  0  0
 18 19  1  0  0  0  0
 19 35  1  0  0  0  0
 19 20  2  0  0  0  0
 36 39  1  0  0  0  0
  8 11  1  0  0  0  0
 45 46  1  0  0  0  0
 18 21  1  0  0  0  0
 35 36  1  0  0  0  0
  7  8  1  0  0  0  0
 17 18  1  0  0  0  0
 24 32  1  0  0  0  0
 25 33  1  0  0  0  0
  3  4  1  0  0  0  0
  3  5  1  0  0  0  0
  3  6  1  0  0  0  0
 39 42  1  0  0  0  0
 39 43  1  0  0  0  0
 39 44  1  0  0  0  0
 11 14  1  0  0  0  0
 11 15  1  0  0  0  0
 11 16  1  0  0  0  0
 46 48  1  0  0  0  0
 46 49  1  0  0  0  0
 46 50  1  0  0  0  0
 21 29  1  0  0  0  0
 21 30  1  0  0  0  0
 36 41  1  0  0  0  0
  8 13  1  0  0  0  0
 18 28  1  0  0  0  0
 26 34  1  0  0  0  0
 23 31  1  0  0  0  0
 45 47  1  0  0  0  0
  7 12  1  0  0  0  0
 35 40  1  0  0  0  0
 17 27  1  0  0  0  0
M  CHG  1  23   1
M  END
$$$$

  -OEChem-05262214473D

 50 50  0     1  0  0  0  0  0999 V2000
   -1.6938    0.4865    3.8080 C   0  0  0  0  0  0  0  0  0  0  0  0
   -0.7464   -0.1282    3.3323 O   0  0  0  0  0  0  0  0  0  0  0  0
   -2.1257    0.2041    5.2087 C   0  0  0  0  0  0  0  0  0  0  0  0
   -2.8853   -0.5922    5.2621 H   0  0  0  0  0  0  0  0  0  0  0  0
   -1.2944   -0.1435    5.8430 H   0  0  0  0  0  0  0  0  0  0  0  0
   -2.5637    1.0590    5.7483 H   0  0  0  0  0  0  0  0  0  0  0  0
   -2.4435    1.4589    3.1669 N   0  0  0  0  0  0  0  0  0  0  0  0
   -2.1966    1.8850    1.8145 C   0  0  2  0  0  0  0  0  0  0  0  0
   -0.8617    1.2996    1.3733 C   0  0  0  0  0  0  0  0  0  0  0  0
    0.0104    0.9468    2.1646 O   0  0  0  0  0  0  0  0  0  0  0  0
   -2.1879    3.4017    1.7050 C   0  0  0  0  0  0  0  0  0  0  0  0
   -3.2085    1.8948    3.6787 H   0  0  0  0  0  0  0  0  0  0  0  0
   -3.0007    1.4665    1.1994 H   0  0  0  0  0  0  0  0  0  0  0  0
   -1.3888    3.8390    2.3147 H   0  0  0  0  0  0  0  0  0  0  0  0
   -2.0284    3.7240    0.6708 H   0  0  0  0  0  0  0  0  0  0  0  0
   -3.1380    3.8230    2.0508 H   0  0  0  0  0  0  0  0  0  0  0  0
   -0.7390    1.2565   -0.0101 N   0  0  0  0  0  0  0  0  0  0  0  0
    0.4383    0.7557   -0.6738 C   0  0  2  0  0  0  0  0  0  0  0  0
    0.7794    1.7376   -1.7890 C   0  0  0  0  0  0  0  0  0  0  0  0
   -0.0060    2.0270   -2.6891 O   0  0  0  0  0  0  0  0  0  0  0  0
    0.2257   -0.6498   -1.2478 C   0  0  0  0  0  0  0  0  0  0  0  0
   -0.0335   -1.6836   -0.1792 C   0  0  0  0  0  0  0  0  0  0  0  0
    0.9724   -2.1658    0.6232 N   0  3  0  0  0  0  0  0  0  0  0  0
   -1.1812   -2.3174    0.2051 C   0  0  0  0  0  0  0  0  0  0  0  0
    0.4705   -3.0661    1.4746 C   0  0  0  0  0  0  0  0  0  0  0  0
   -0.8400   -3.1672    1.2295 N   0  0  0  0  0  0  0  0  0  0  0  0
   -1.5221    1.5532   -0.5874 H   0  0  0  0  0  0  0  0  0  0  0  0
    1.2436    0.7637    0.0702 H   0  0  0  0  0  0  0  0  0  0  0  0
    1.0941   -0.9503   -1.8497 H   0  0  0  0  0  0  0  0  0  0  0  0
   -0.6231   -0.6552   -1.9444 H   0  0  0  0  0  0  0  0  0  0  0  0
    1.9483   -1.8857    0.5794 H   0  0  0  0  0  0  0  0  0  0  0  0
   -2.2091   -2.2969   -0.0982 H   0  0  0  0  0  0  0  0  0  0  0  0
    1.0221   -3.6116    2.2220 H   0  0  0  0  0  0  0  0  0  0  0  0
   -1.4818   -3.7794    1.7253 H   0  0  0  0  0  0  0  0  0  0  0  0
    2.0440    2.2868   -1.6289 N   0  0  0  0  0  0  0  0  0  0  0  0
    2.6054    3.2635   -2.5342 C   0  0  2  0  0  0  0  0  0  0  0  0
    2.4442    2.7362   -3.9539 C   0  0  0  0  0  0  0  0  0  0  0  0
    2.3019    1.5433   -4.2142 O   0  0  0  0  0  0  0  0  0  0  0  0
    4.0680    3.5348   -2.2180 C   0  0  0  0  0  0  0  0  0  0  0  0
    2.6031    1.9872   -0.8355 H   0  0  0  0  0  0  0  0  0  0  0  0
    2.0170    4.1799   -2.4154 H   0  0  0  0  0  0  0  0  0  0  0  0
    4.6734    2.6281   -2.3316 H   0  0  0  0  0  0  0  0  0  0  0  0
    4.4840    4.2958   -2.8864 H   0  0  0  0  0  0  0  0  0  0  0  0
    4.1852    3.8856   -1.1870 H   0  0  0  0  0  0  0  0  0  0  0  0
    2.5212    3.7496   -4.8989 N   0  0  0  0  0  0  0  0  0  0  0  0
    2.4101    3.5027   -6.3176 C   0  0  0  0  0  0  0  0  0  0  0  0
    2.6214    4.7126   -4.5919 H   0  0  0  0  0  0  0  0  0  0  0  0
    3.4131    3.3536   -6.7440 H   0  0  0  0  0  0  0  0  0  0  0  0
    1.8024    2.6015   -6.4864 H   0  0  0  0  0  0  0  0  0  0  0  0
    1.9300    4.3650   -6.8033 H   0  0  0  0  0  0  0  0  0  0  0  0
 22 24  2  0  0  0  0
 24 26  1  0  0  0  0
 25 26  1  0  0  0  0
 23 25  2  0  0  0  0
 21 22  1  0  0  0  0
 22 23  1  0  0  0  0
  1  3  1  0  0  0  0
  1  7  1  0  0  0  0
  1  2  2  0  0  0  0
 36 37  1  0  0  0  0
 37 45  1  0  0  0  0
 37 38  2  0  0  0  0
  8  9  1  0  0  0  0
  9 17  1  0  0  0  0
  9 10  2  0  0  0  0
 18 19  1  0  0  0  0
 19 35  1  0  0  0  0
 19 20  2  0  0  0  0
 36 39  1  0  0  0  0
  8 11  1  0  0  0  0
 45 46  1  0  0  0  0
 18 21  1  0  0  0  0
 35 36  1  0  0  0  0
  7  8  1  0  0  0  0
 17 18  1  0  0  0  0
 24 32  1  0  0  0  0
 25 33  1  0  0  0  0
  3  4  1  0  0  0  0
  3  5  1  0  0  0  0
  3  6  1  0  0  0  0
 39 42  1  0  0  0  0
 39 43  1  0  0  0  0
 39 44  1  0  0  0  0
 11 14  1  0  0  0  0
 11 15  1  0  0  0  0
 11 16  1  0  0  0  0
 46 48  1  0  0  0  0
 46 49  1  0  0  0  0
 46 50  1  0  0  0  0
 21 29  1  0  0  0  0
 21 30  1  0  0  0  0
 36 41  1  0  0  0  0
  8 13  1  0  0  0  0
 18 28  1  0  0  0  0
 26 34  1  0  0  0  0
 23 31  1  0  0  0  0
 45 47  1  0  0  0  0
  7 12  1  0  0  0  0
 35 40  1  0  0  0  0
 17 27  1  0  0  0  0
M  CHG  1  23   1
M  END
$$$$

  -OEChem-05262214473D

 50 50  0     1  0  0  0  0  0999 V2000
   -1.6938    0.4865    3.8080 C   0  0  0  0  0  0  0  0  0  0  0  0
   -0.7464   -0.1282    3.3323 O   0  0  0  0  0  0  0  0  0  0  0  0
   -2.1257    0.2041    5.2087 C   0  0  0  0  0  0  0  0  0  0  0  0
   -2.8853   -0.5922    5.2621 H   0  0  0  0  0  0  0  0  0  0  0  0
   -1.2944   -0.1435    5.8430 H   0  0  0  0  0  0  0  0  0  0  0  0
   -2.5637    1.0590    5.7483 H   0  0  0  0  0  0  0  0  0  0  0  0
   -2.4435    1.4589    3.1669 N   0  0  0  0  0  0  0  0  0  0  0  0
   -2.1966    1.8850    1.8145 C   0  0  2  0  0  0  0  0  0  0  0  0
   -0.8617    1.2996    1.3733 C   0  0  0  0  0  0  0  0  0  0  0  0
    0.0104    0.9468    2.1646 O   0  0  0  0  0  0  0  0  0  0  0  0
   -2.1879    3.4017    1.7050 C   0  0  0  0  0  0  0  0  0  0  0  0
   -3.2085    1.8948    3.6787 H   0  0  0  0  0  0  0  0  0  0  0  0
   -3.0007    1.4665    1.1994 H   0  0  0  0  0  0  0  0  0  0  0  0
   -1.3888    3.8390    2.3147 H   0  0  0  0  0  0  0  0  0  0  0  0
   -2.0284    3.7240    0.6708 H   0  0  0  0  0  0  0  0  0  0  0  0
   -3.1380    3.8230    2.0508 H   0  0  0  0  0  0  0  0  0  0  0  0
   -0.7390    1.2565   -0.0101 N   0  0  0  0  0  0  0  0  0  0  0  0
    0.4383    0.7557   -0.6738 C   0  0  2  0  0  0  0  0  0  0  0  0
    0.7794    1.7376   -1.7890 C   0  0  0  0  0  0  0  0  0  0  0  0
   -0.0694    2.2326   -2.5275 O   0  0  0  0  0  0  0  0  0  0  0  0
    0.2257   -0.6498   -1.2478 C   0  0  0  0  0  0  0  0  0  0  0  0
   -0.0335   -1.6836   -0.1792 C   0  0  0  0  0  0  0  0  0  0  0  0
    0.9724   -2.1658    0.6232 N   0  3  0  0  0  0  0  0  0  0  0  0
   -1.1812   -2.3174    0.2051 C   0  0  0  0  0  0  0  0  0  0  0  0
    0.4705   -3.0661    1.4746 C   0  0  0  0  0  0  0  0  0  0  0  0
   -0.8400   -3.1672    1.2295 N   0  0  0  0  0  0  0  0  0  0  0  0
   -1.5221    1.5532   -0.5874 H   0  0  0  0  0  0  0  0  0  0  0  0
    1.2436    0.7637    0.0702 H   0  0  0  0  0  0  0  0  0  0  0  0
    1.0941   -0.9503   -1.8497 H   0  0  0  0  0  0  0  0  0  0  0  0
   -0.6231   -0.6552   -1.9444 H   0  0  0  0  0  0  0  0  0  0  0  0
    1.9483   -1.8857    0.5794 H   0  0  0  0  0  0  0  0  0  0  0  0
   -2.2091   -2.2969   -0.0982 H   0  0  0  0  0  0  0  0  0  0  0  0
    1.0221   -3.6116    2.2220 H   0  0  0  0  0  0  0  0  0  0  0  0
   -1.4818   -3.7794    1.7253 H   0  0  0  0  0  0  0  0  0  0  0  0
    2.1356    2.0308   -1.8263 N   0  0  0  0  0  0  0  0  0  0  0  0
    2.7226    2.9515   -2.7731 C   0  0  2  0  0  0  0  0  0  0  0  0
    2.2355    2.5694   -4.1646 C   0  0  0  0  0  0  0  0  0  0  0  0
    1.8241    1.4457   -4.4462 O   0  0  0  0  0  0  0  0  0  0  0  0
    4.2415    2.9242   -2.7025 C   0  0  0  0  0  0  0  0  0  0  0  0
    2.7461    1.5754   -1.1543 H   0  0  0  0  0  0  0  0  0  0  0  0
    2.3504    3.9493   -2.5164 H   0  0  0  0  0  0  0  0  0  0  0  0
    4.6329    1.9323   -2.9565 H   0  0  0  0  0  0  0  0  0  0  0  0
    4.6841    3.6428   -3.4002 H   0  0  0  0  0  0  0  0  0  0  0  0
    4.5892    3.1702   -1.6933 H   0  0  0  0  0  0  0  0  0  0  0  0
    2.3545    3.6183   -5.0655 N   0  0  0  0  0  0  0  0  0  0  0  0
    1.9706    3.5018   -6.4530 C   0  0  0  0  0  0  0  0  0  0  0  0
    2.6880    4.5210   -4.7403 H   0  0  0  0  0  0  0  0  0  0  0  0
    2.8434    3.2021   -7.0516 H   0  0  0  0  0  0  0  0  0  0  0  0
    1.1802    2.7431   -6.5521 H   0  0  0  0  0  0  0  0  0  0  0  0
    1.5952    4.4714   -6.8121 H   0  0  0  0  0  0  0  0  0  0  0  0
 22 24  2  0  0  0  0
 24 26  1  0  0  0  0
 25 26  1  0  0  0  0
 23 25  2  0  0  0  0
 21 22  1  0  0  0  0
 22 23  1  0  0  0  0
  1  3  1  0  0  0  0
  1  7  1  0  0  0  0
  1  2  2  0  0  0  0
 36 37  1  0  0  0  0
 37 45  1  0  0  0  0
 37 38  2  0  0  0  0
  8  9  1  0  0  0  0
  9 17  1  0  0  0  0
  9 10  2  0  0  0  0
 18 19  1  0  0  0  0
 19 35  1  0  0  0  0
 19 20  2  0  0  0  0
 36 39  1  0  0  0  0
  8 11  1  0  0  0  0
 45 46  1  0  0  0  0
 18 21  1  0  0  0  0
 35 36  1  0  0  0  0
  7  8  1  0  0  0  0
 17 18  1  0  0  0  0
 24 32  1  0  0  0  0
 25 33  1  0  0  0  0
  3  4  1  0  0  0  0
  3  5  1  0  0  0  0
  3  6  1  0  0  0  0
 39 42  1  0  0  0  0
 39 43  1  0  0  0  0
 39 44  1  0  0  0  0
 11 14  1  0  0  0  0
 11 15  1  0  0  0  0
 11 16  1  0  0  0  0
 46 48  1  0  0  0  0
 46 49  1  0  0  0  0
 46 50  1  0  0  0  0
 21 29  1  0  0  0  0
 21 30  1  0  0  0  0
 36 41  1  0  0  0  0
  8 13  1  0  0  0  0
 18 28  1  0  0  0  0
 26 34  1  0  0  0  0
 23 31  1  0  0  0  0
 45 47  1  0  0  0  0
  7 12  1  0  0  0  0
 35 40  1  0  0  0  0
 17 27  1  0  0  0  0
M  CHG  1  23   1
M  END
$$$$

  -OEChem-05262214473D

 50 50  0     1  0  0  0  0  0999 V2000
   -1.6938    0.4865    3.8080 C   0  0  0  0  0  0  0  0  0  0  0  0
   -0.7464   -0.1282    3.3323 O   0  0  0  0  0  0  0  0  0  0  0  0
   -2.1257    0.2041    5.2087 C   0  0  0  0  0  0  0  0  0  0  0  0
   -2.8853   -0.5922    5.2621 H   0  0  0  0  0  0  0  0  0  0  0  0
   -1.2944   -0.1435    5.8430 H   0  0  0  0  0  0  0  0  0  0  0  0
   -2.5637    1.0590    5.7483 H   0  0  0  0  0  0  0  0  0  0  0  0
   -2.4435    1.4589    3.1669 N   0  0  0  0  0  0  0  0  0  0  0  0
   -2.1966    1.8850    1.8145 C   0  0  2  0  0  0  0  0  0  0  0  0
   -0.8617    1.2996    1.3733 C   0  0  0  0  0  0  0  0  0  0  0  0
    0.0104    0.9468    2.1646 O   0  0  0  0  0  0  0  0  0  0  0  0
   -2.1879    3.4017    1.7050 C   0  0  0  0  0  0  0  0  0  0  0  0
   -3.2085    1.8948    3.6787 H   0  0  0  0  0  0  0  0  0  0  0  0
   -3.0007    1.4665    1.1994 H   0  0  0  0  0  0  0  0  0  0  0  0
   -1.3888    3.8390    2.3147 H   0  0  0  0  0  0  0  0  0  0  0  0
   -2.0284    3.7240    0.6708 H   0  0  0  0  0  0  0  0  0  0  0  0
   -3.1380    3.8230    2.0508 H   0  0  0  0  0  0  0  0  0  0  0  0
   -0.7390    1.2565   -0.0101 N   0  0  0  0  0  0  0  0  0  0  0  0
    0.4383    0.7557   -0.6738 C   0  0  2  0  0  0  0  0  0  0  0  0
    0.7794    1.7376   -1.7890 C   0  0  0  0  0  0  0  0  0  0  0  0
   -0.0647    2.4339   -2.3488 O   0  0  0  0  0  0  0  0  0  0  0  0
    0.2257   -0.6498   -1.2478 C   0  0  0  0  0  0  0  0  0  0  0  0
   -0.0335   -1.6836   -0.1792 C   0  0  0  0  0  0  0  0  0  0  0  0
    0.9724   -2.1658    0.6232 N   0  3  0  0  0  0  0  0  0  0  0  0
   -1.1812   -2.3174    0.2051 C   0  0  0  0  0  0  0  0  0  0  0  0
    0.4705   -3.0661    1.4746 C   0  0  0  0  0  0  0  0  0  0  0  0
   -0.8400   -3.1672    1.2295 N   0  0  0  0  0  0  0  0  0  0  0  0
   -1.5221    1.5532   -0.5874 H   0  0  0  0  0  0  0  0  0  0  0  0
    1.2436    0.7637    0.0702 H   0  0  0  0  0  0  0  0  0  0  0  0
    1.0941   -0.9503   -1.8497 H   0  0  0  0  0  0  0  0  0  0  0  0
   -0.6231   -0.6552   -1.9444 H   0  0  0  0  0  0  0  0  0  0  0  0
    1.9483   -1.8857    0.5794 H   0  0  0  0  0  0  0  0  0  0  0  0
   -2.2091   -2.2969   -0.0982 H   0  0  0  0  0  0  0  0  0  0  0  0
    1.0221   -3.6116    2.2220 H   0  0  0  0  0  0  0  0  0  0  0  0
   -1.4818   -3.7794    1.7253 H   0  0  0  0  0  0  0  0  0  0  0  0
    2.1426    1.7776   -2.0471 N   0  0  0  0  0  0  0  0  0  0  0  0
    2.7370    2.6417   -3.0415 C   0  0  2  0  0  0  0  0  0  0  0  0
    1.9672    2.4600   -4.3430 C   0  0  0  0  0  0  0  0  0  0  0  0
    1.3055    1.4554   -4.5963 O   0  0  0  0  0  0  0  0  0  0  0  0
    4.2128    2.3296   -3.2348 C   0  0  0  0  0  0  0  0  0  0  0  0
    2.7532    1.1690   -1.5100 H   0  0  0  0  0  0  0  0  0  0  0  0
    2.6120    3.6693   -2.6830 H   0  0  0  0  0  0  0  0  0  0  0  0
    4.3578    1.3042   -3.5937 H   0  0  0  0  0  0  0  0  0  0  0  0
    4.6682    3.0038   -3.9676 H   0  0  0  0  0  0  0  0  0  0  0  0
    4.7596    2.4319   -2.2912 H   0  0  0  0  0  0  0  0  0  0  0  0
    2.1409    3.5327   -5.2062 N   0  0  0  0  0  0  0  0  0  0  0  0
    1.5232    3.5919   -6.5104 C   0  0  0  0  0  0  0  0  0  0  0  0
    2.6914    4.3318   -4.9058 H   0  0  0  0  0  0  0  0  0  0  0  0
    2.2132    3.1816   -7.2625 H   0  0  0  0  0  0  0  0  0  0  0  0
    0.5951    3.0014   -6.5036 H   0  0  0  0  0  0  0  0  0  0  0  0
    1.2904    4.6379   -6.7586 H   0  0  0  0  0  0  0  0  0  0  0  0
 22 24  2  0  0  0  0
 24 26  1  0  0  0  0
 25 26  1  0  0  0  0
 23 25  2  0  0  0  0
 21 22  1  0  0  0  0
 22 23  1  0  0  0  0
  1  3  1  0  0  0  0
  1  7  1  0  0  0  0
  1  2  2  0  0  0  0
 36 37  1  0  0  0  0
 37 45  1  0  0  0  0
 37 38  2  0  0  0  0
  8  9  1  0  0  0  0
  9 17  1  0  0  0  0
  9 10  2  0  0  0  0
 18 19  1  0  0  0  0
 19 35  1  0  0  0  0
 19 20  2  0  0  0  0
 36 39  1  0  0  0  0
  8 11  1  0  0  0  0
 45 46  1  0  0  0  0
 18 21  1  0  0  0  0
 35 36  1  0  0  0  0
  7  8  1  0  0  0  0
 17 18  1  0  0  0  0
 24 32  1  0  0  0  0
 25 33  1  0  0  0  0
  3  4  1  0  0  0  0
  3  5  1  0  0  0  0
  3  6  1  0  0  0  0
 39 42  1  0  0  0  0
 39 43  1  0  0  0  0
 39 44  1  0  0  0  0
 11 14  1  0  0  0  0
 11 15  1  0  0  0  0
 11 16  1  0  0  0  0
 46 48  1  0  0  0  0
 46 49  1  0  0  0  0
 46 50  1  0  0  0  0
 21 29  1  0  0  0  0
 21 30  1  0  0  0  0
 36 41  1  0  0  0  0
  8 13  1  0  0  0  0
 18 28  1  0  0  0  0
 26 34  1  0  0  0  0
 23 31  1  0  0  0  0
 45 47  1  0  0  0  0
  7 12  1  0  0  0  0
 35 40  1  0  0  0  0
 17 27  1  0  0  0  0
M  CHG  1  23   1
M  END
$$$$

  -OEChem-05262214473D

 50 50  0     1  0  0  0  0  0999 V2000
   -1.6938    0.4865    3.8080 C   0  0  0  0  0  0  0  0  0  0  0  0
   -0.7464   -0.1282    3.3323 O   0  0  0  0  0  0  0  0  0  0  0  0
   -2.1257    0.2041    5.2087 C   0  0  0  0  0  0  0  0  0  0  0  0
   -2.8853   -0.5922    5.2621 H   0  0  0  0  0  0  0  0  0  0  0  0
   -1.2944   -0.1435    5.8430 H   0  0  0  0  0  0  0  0  0  0  0  0
   -2.5637    1.0590    5.7483 H   0  0  0  0  0  0  0  0  0  0  0  0
   -2.4435    1.4589    3.1669 N   0  0  0  0  0  0  0  0  0  0  0  0
   -2.1966    1.8850    1.8145 C   0  0  2  0  0  0  0  0  0  0  0  0
   -0.8617    1.2996    1.3733 C   0  0  0  0  0  0  0  0  0  0  0  0
    0.0104    0.9468    2.1646 O   0  0  0  0  0  0  0  0  0  0  0  0
   -2.1879    3.4017    1.7050 C   0  0  0  0  0  0  0  0  0  0  0  0
   -3.2085    1.8948    3.6787 H   0  0  0  0  0  0  0  0  0  0  0  0
   -3.0007    1.4665    1.1994 H   0  0  0  0  0  0  0  0  0  0  0  0
   -1.3888    3.8390    2.3147 H   0  0  0  0  0  0  0  0  0  0  0  0
   -2.0284    3.7240    0.6708 H   0  0  0  0  0  0  0  0  0  0  0  0
   -3.1380    3.8230    2.0508 H   0  0  0  0  0  0  0  0  0  0  0  0
   -0.7390    1.2565   -0.0101 N   0  0  0  0  0  0  0  0  0  0  0  0
    0.4383    0.7557   -0.6738 C   0  0  2  0  0  0  0  0  0  0  0  0
    0.7794    1.7376   -1.7890 C   0  0  0  0  0  0  0  0  0  0  0  0
    0.0076    2.6171   -2.1654 O   0  0  0  0  0  0  0  0  0  0  0  0
    0.2257   -0.6498   -1.2478 C   0  0  0  0  0  0  0  0  0  0  0  0
   -0.0335   -1.6836   -0.1792 C   0  0  0  0  0  0  0  0  0  0  0  0
    0.9724   -2.1658    0.6232 N   0  3  0  0  0  0  0  0  0  0  0  0
   -1.1812   -2.3174    0.2051 C   0  0  0  0  0  0  0  0  0  0  0  0
    0.4705   -3.0661    1.4746 C   0  0  0  0  0  0  0  0  0  0  0  0
   -0.8400   -3.1672    1.2295 N   0  0  0  0  0  0  0  0  0  0  0  0
   -1.5221    1.5532   -0.5874 H   0  0  0  0  0  0  0  0  0  0  0  0
    1.2436    0.7637    0.0702 H   0  0  0  0  0  0  0  0  0  0  0  0
    1.0941   -0.9503   -1.8497 H   0  0  0  0  0  0  0  0  0  0  0  0
   -0.6231   -0.6552   -1.9444 H   0  0  0  0  0  0  0  0  0  0  0  0
    1.9483   -1.8857    0.5794 H   0  0  0  0  0  0  0  0  0  0  0  0
   -2.2091   -2.2969   -0.0982 H   0  0  0  0  0  0  0  0  0  0  0  0
    1.0221   -3.6116    2.2220 H   0  0  0  0  0  0  0  0  0  0  0  0
   -1.4818   -3.7794    1.7253 H   0  0  0  0  0  0  0  0  0  0  0  0
    2.0647    1.5445   -2.2761 N   0  0  0  0  0  0  0  0  0  0  0  0
    2.6474    2.3553   -3.3210 C   0  0  2  0  0  0  0  0  0  0  0  0
    1.6575    2.4154   -4.4769 C   0  0  0  0  0  0  0  0  0  0  0  0
    0.7813    1.5717   -4.6543 O   0  0  0  0  0  0  0  0  0  0  0  0
    3.9837    1.7916   -3.7786 C   0  0  0  0  0  0  0  0  0  0  0  0
    2.6239    0.7957   -1.8782 H   0  0  0  0  0  0  0  0  0  0  0  0
    2.7838    3.3589   -2.9037 H   0  0  0  0  0  0  0  0  0  0  0  0
    3.8670    0.7864   -4.1998 H   0  0  0  0  0  0  0  0  0  0  0  0
    4.4373    2.4226   -4.5500 H   0  0  0  0  0  0  0  0  0  0  0  0
    4.6847    1.7212   -2.9399 H   0  0  0  0  0  0  0  0  0  0  0  0
    1.8949    3.4986   -5.3115 N   0  0  0  0  0  0  0  0  0  0  0  0
    1.0986    3.7670   -6.4862 C   0  0  0  0  0  0  0  0  0  0  0  0
    2.6312    4.1580   -5.0772 H   0  0  0  0  0  0  0  0  0  0  0  0
    1.5653    3.2932   -7.3623 H   0  0  0  0  0  0  0  0  0  0  0  0
    0.0870    3.3589   -6.3443 H   0  0  0  0  0  0  0  0  0  0  0  0
    1.0366    4.8535   -6.6465 H   0  0  0  0  0  0  0  0  0  0  0  0
 22 24  2  0  0  0  0
 24 26  1  0  0  0  0
 25 26  1  0  0  0  0
 23 25  2  0  0  0  0
 21 22  1  0  0  0  0
 22 23  1  0  0  0  0
  1  3  1  0  0  0  0
  1  7  1  0  0  0  0
  1  2  2  0  0  0  0
 36 37  1  0  0  0  0
 37 45  1  0  0  0  0
 37 38  2  0  0  0  0
  8  9  1  0  0  0  0
  9 17  1  0  0  0  0
  9 10  2  0  0  0  0
 18 19  1  0  0  0  0
 19 35  1  0  0  0  0
 19 20  2  0  0  0  0
 36 39  1  0  0  0  0
  8 11  1  0  0  0  0
 45 46  1  0  0  0  0
 18 21  1  0  0  0  0
 35 36  1  0  0  0  0
  7  8  1  0  0  0  0
 17 18  1  0  0  0  0
 24 32  1  0  0  0  0
 25 33  1  0  0  0  0
  3  4  1  0  0  0  0
  3  5  1  0  0  0  0
  3  6  1  0  0  0  0
 39 42  1  0  0  0  0
 39 43  1  0  0  0  0
 39 44  1  0  0  0  0
 11 14  1  0  0  0  0
 11 15  1  0  0  0  0
 11 16  1  0  0  0  0
 46 48  1  0  0  0  0
 46 49  1  0  0  0  0
 46 50  1  0  0  0  0
 21 29  1  0  0  0  0
 21 30  1  0  0  0  0
 36 41  1  0  0  0  0
  8 13  1  0  0  0  0
 18 28  1  0  0  0  0
 26 34  1  0  0  0  0
 23 31  1  0  0  0  0
 45 47  1  0  0  0  0
  7 12  1  0  0  0  0
 35 40  1  0  0  0  0
 17 27  1  0  0  0  0
M  CHG  1  23   1
M  END
$$$$

  -OEChem-05262214473D

 50 50  0     1  0  0  0  0  0999 V2000
   -1.6938    0.4865    3.8080 C   0  0  0  0  0  0  0  0  0  0  0  0
   -0.7464   -0.1282    3.3323 O   0  0  0  0  0  0  0  0  0  0  0  0
   -2.1257    0.2041    5.2087 C   0  0  0  0  0  0  0  0  0  0  0  0
   -2.8853   -0.5922    5.2621 H   0  0  0  0  0  0  0  0  0  0  0  0
   -1.2944   -0.1435    5.8430 H   0  0  0  0  0  0  0  0  0  0  0  0
   -2.5637    1.0590    5.7483 H   0  0  0  0  0  0  0  0  0  0  0  0
   -2.4435    1.4589    3.1669 N   0  0  0  0  0  0  0  0  0  0  0  0
   -2.1966    1.8850    1.8145 C   0  0  2  0  0  0  0  0  0  0  0  0
   -0.8617    1.2996    1.3733 C   0  0  0  0  0  0  0  0  0  0  0  0
    0.0104    0.9468    2.1646 O   0  0  0  0  0  0  0  0  0  0  0  0
   -2.1879    3.4017    1.7050 C   0  0  0  0  0  0  0  0  0  0  0  0
   -3.2085    1.8948    3.6787 H   0  0  0  0  0  0  0  0  0  0  0  0
   -3.0007    1.4665    1.1994 H   0  0  0  0  0  0  0  0  0  0  0  0
   -1.3888    3.8390    2.3147 H   0  0  0  0  0  0  0  0  0  0  0  0
   -2.0284    3.7240    0.6708 H   0  0  0  0  0  0  0  0  0  0  0  0
   -3.1380    3.8230    2.0508 H   0  0  0  0  0  0  0  0  0  0  0  0
   -0.7390    1.2565   -0.0101 N   0  0  0  0  0  0  0  0  0  0  0  0
    0.4383    0.7557   -0.6738 C   0  0  2  0  0  0  0  0  0  0  0  0
    0.9977    1.8939   -1.5198 C   0  0  0  0  0  0  0  0  0  0  0  0
    0.5019    3.0185   -1.5403 O   0  0  0  0  0  0  0  0  0  0  0  0
    0.1332   -0.4621   -1.5536 C   0  0  0  0  0  0  0  0  0  0  0  0
   -0.3460   -1.6516   -0.7579 C   0  0  0  0  0  0  0  0  0  0  0  0
    0.5131   -2.4142   -0.0040 N   0  3  0  0  0  0  0  0  0  0  0  0
   -1.5897   -2.1977   -0.6098 C   0  0  0  0  0  0  0  0  0  0  0  0
   -0.1692   -3.3982    0.5906 C   0  0  0  0  0  0  0  0  0  0  0  0
   -1.4506   -3.2770    0.2291 N   0  0  0  0  0  0  0  0  0  0  0  0
   -1.5221    1.5532   -0.5874 H   0  0  0  0  0  0  0  0  0  0  0  0
    1.1589    0.5065    0.1141 H   0  0  0  0  0  0  0  0  0  0  0  0
    1.0206   -0.7415   -2.1375 H   0  0  0  0  0  0  0  0  0  0  0  0
   -0.6350   -0.2145   -2.2981 H   0  0  0  0  0  0  0  0  0  0  0  0
    1.5132   -2.2593    0.0893 H   0  0  0  0  0  0  0  0  0  0  0  0
   -2.5725   -1.9829   -0.9798 H   0  0  0  0  0  0  0  0  0  0  0  0
    0.2397   -4.1524    1.2421 H   0  0  0  0  0  0  0  0  0  0  0  0
   -2.2031   -3.8902    0.5293 H   0  0  0  0  0  0  0  0  0  0  0  0
    2.1426    1.5161   -2.2074 N   0  0  0  0  0  0  0  0  0  0  0  0
    2.8856    2.4119   -3.0644 C   0  0  2  0  0  0  0  0  0  0  0  0
    1.9009    3.0736   -4.0194 C   0  0  0  0  0  0  0  0  0  0  0  0
    0.8071    2.5871   -4.2984 O   0  0  0  0  0  0  0  0  0  0  0  0
    3.9713    1.6718   -3.8299 C   0  0  0  0  0  0  0  0  0  0  0  0
    2.4752    0.5620   -2.1030 H   0  0  0  0  0  0  0  0  0  0  0  0
    3.3327    3.1725   -2.4151 H   0  0  0  0  0  0  0  0  0  0  0  0
    3.5424    0.9055   -4.4859 H   0  0  0  0  0  0  0  0  0  0  0  0
    4.5517    2.3565   -4.4570 H   0  0  0  0  0  0  0  0  0  0  0  0
    4.6615    1.1717   -3.1418 H   0  0  0  0  0  0  0  0  0  0  0  0
    2.4053    4.2497   -4.5567 N   0  0  0  0  0  0  0  0  0  0  0  0
    1.6658    5.0561   -5.4995 C   0  0  0  0  0  0  0  0  0  0  0  0
    3.3141    4.5878   -4.2542 H   0  0  0  0  0  0  0  0  0  0  0  0
    1.9275    4.7551   -6.5247 H   0  0  0  0  0  0  0  0  0  0  0  0
    0.5872    4.9112   -5.3390 H   0  0  0  0  0  0  0  0  0  0  0  0
    1.9191    6.1164   -5.3528 H   0  0  0  0  0  0  0  0  0  0  0  0
 22 24  2  0  0  0  0
 24 26  1  0  0  0  0
 25 26  1  0  0  0  0
 23 25  2  0  0  0  0
 21 22  1  0  0  0  0
 22 23  1  0  0  0  0
  1  3  1  0  0  0  0
  1  7  1  0  0  0  0
  1  2  2  0  0  0  0
 36 37  1  0  0  0  0
 37 45  1  0  0  0  0
 37 38  2  0  0  0  0
  8  9  1  0  0  0  0
  9 17  1  0  0  0  0
  9 10  2  0  0  0  0
 18 19  1  0  0  0  0
 19 35  1  0  0  0  0
 19 20  2  0  0  0  0
 36 39  1  0  0  0  0
  8 11  1  0  0  0  0
 45 46  1  0  0  0  0
 18 21  1  0  0  0  0
 35 36  1  0  0  0  0
  7  8  1  0  0  0  0
 17 18  1  0  0  0  0
 24 32  1  0  0  0  0
 25 33  1  0  0  0  0
  3  4  1  0  0  0  0
  3  5  1  0  0  0  0
  3  6  1  0  0  0  0
 39 42  1  0  0  0  0
 39 43  1  0  0  0  0
 39 44  1  0  0  0  0
 11 14  1  0  0  0  0
 11 15  1  0  0  0  0
 11 16  1  0  0  0  0
 46 48  1  0  0  0  0
 46 49  1  0  0  0  0
 46 50  1  0  0  0  0
 21 29  1  0  0  0  0
 21 30  1  0  0  0  0
 36 41  1  0  0  0  0
  8 13  1  0  0  0  0
 18 28  1  0  0  0  0
 26 34  1  0  0  0  0
 23 31  1  0  0  0  0
 45 47  1  0  0  0  0
  7 12  1  0  0  0  0
 35 40  1  0  0  0  0
 17 27  1  0  0  0  0
M  CHG  1  23   1
M  END
$$$$

  -OEChem-05262214473D

 50 50  0     1  0  0  0  0  0999 V2000
   -1.6938    0.4865    3.8080 C   0  0  0  0  0  0  0  0  0  0  0  0
   -0.7464   -0.1282    3.3323 O   0  0  0  0  0  0  0  0  0  0  0  0
   -2.1257    0.2041    5.2087 C   0  0  0  0  0  0  0  0  0  0  0  0
   -2.8853   -0.5922    5.2621 H   0  0  0  0  0  0  0  0  0  0  0  0
   -1.2944   -0.1435    5.8430 H   0  0  0  0  0  0  0  0  0  0  0  0
   -2.5637    1.0590    5.7483 H   0  0  0  0  0  0  0  0  0  0  0  0
   -2.4435    1.4589    3.1669 N   0  0  0  0  0  0  0  0  0  0  0  0
   -2.1966    1.8850    1.8145 C   0  0  2  0  0  0  0  0  0  0  0  0
   -0.8617    1.2996    1.3733 C   0  0  0  0  0  0  0  0  0  0  0  0
    0.0104    0.9468    2.1646 O   0  0  0  0  0  0  0  0  0  0  0  0
   -2.1879    3.4017    1.7050 C   0  0  0  0  0  0  0  0  0  0  0  0
   -3.2085    1.8948    3.6787 H   0  0  0  0  0  0  0  0  0  0  0  0
   -3.0007    1.4665    1.1994 H   0  0  0  0  0  0  0  0  0  0  0  0
   -1.3888    3.8390    2.3147 H   0  0  0  0  0  0  0  0  0  0  0  0
   -2.0284    3.7240    0.6708 H   0  0  0  0  0  0  0  0  0  0  0  0
   -3.1380    3.8230    2.0508 H   0  0  0  0  0  0  0  0  0  0  0  0
   -0.7390    1.2565   -0.0101 N   0  0  0  0  0  0  0  0  0  0  0  0
    0.4383    0.7557   -0.6738 C   0  0  2  0  0  0  0  0  0  0  0  0
    0.9977    1.8939   -1.5198 C   0  0  0  0  0  0  0  0  0  0  0  0
    0.6847    3.0704   -1.3497 O   0  0  0  0  0  0  0  0  0  0  0  0
    0.1332   -0.4621   -1.5536 C   0  0  0  0  0  0  0  0  0  0  0  0
   -0.3460   -1.6516   -0.7579 C   0  0  0  0  0  0  0  0  0  0  0  0
    0.5131   -2.4142   -0.0040 N   0  3  0  0  0  0  0  0  0  0  0  0
   -1.5897   -2.1977   -0.6098 C   0  0  0  0  0  0  0  0  0  0  0  0
   -0.1692   -3.3982    0.5906 C   0  0  0  0  0  0  0  0  0  0  0  0
   -1.4506   -3.2770    0.2291 N   0  0  0  0  0  0  0  0  0  0  0  0
   -1.5221    1.5532   -0.5874 H   0  0  0  0  0  0  0  0  0  0  0  0
    1.1589    0.5065    0.1141 H   0  0  0  0  0  0  0  0  0  0  0  0
    1.0206   -0.7415   -2.1375 H   0  0  0  0  0  0  0  0  0  0  0  0
   -0.6350   -0.2145   -2.2981 H   0  0  0  0  0  0  0  0  0  0  0  0
    1.5132   -2.2593    0.0893 H   0  0  0  0  0  0  0  0  0  0  0  0
   -2.5725   -1.9829   -0.9798 H   0  0  0  0  0  0  0  0  0  0  0  0
    0.2397   -4.1524    1.2421 H   0  0  0  0  0  0  0  0  0  0  0  0
   -2.2031   -3.8902    0.5293 H   0  0  0  0  0  0  0  0  0  0  0  0
    1.9230    1.4431   -2.4509 N   0  0  0  0  0  0  0  0  0  0  0  0
    2.6214    2.3190   -3.3640 C   0  0  2  0  0  0  0  0  0  0  0  0
    1.5891    3.2072   -4.0459 C   0  0  0  0  0  0  0  0  0  0  0  0
    0.4011    2.9054   -4.1387 O   0  0  0  0  0  0  0  0  0  0  0  0
    3.4193    1.5277   -4.3886 C   0  0  0  0  0  0  0  0  0  0  0  0
    2.1192    0.4473   -2.4926 H   0  0  0  0  0  0  0  0  0  0  0  0
    3.2927    2.9372   -2.7580 H   0  0  0  0  0  0  0  0  0  0  0  0
    2.7636    0.9022   -5.0052 H   0  0  0  0  0  0  0  0  0  0  0  0
    3.9705    2.1927   -5.0618 H   0  0  0  0  0  0  0  0  0  0  0  0
    4.1408    0.8675   -3.8953 H   0  0  0  0  0  0  0  0  0  0  0  0
    2.1583    4.3564   -4.5764 N   0  0  0  0  0  0  0  0  0  0  0  0
    1.3883    5.3528   -5.2838 C   0  0  0  0  0  0  0  0  0  0  0  0
    3.1484    4.5344   -4.4357 H   0  0  0  0  0  0  0  0  0  0  0  0
    1.4053    5.1330   -6.3615 H   0  0  0  0  0  0  0  0  0  0  0  0
    0.3494    5.3374   -4.9229 H   0  0  0  0  0  0  0  0  0  0  0  0
    1.8237    6.3471   -5.1055 H   0  0  0  0  0  0  0  0  0  0  0  0
 22 24  2  0  0  0  0
 24 26  1  0  0  0  0
 25 26  1  0  0  0  0
 23 25  2  0  0  0  0
 21 22  1  0  0  0  0
 22 23  1  0  0  0  0
  1  3  1  0  0  0  0
  1  7  1  0  0  0  0
  1  2  2  0  0  0  0
 36 37  1  0  0  0  0
 37 45  1  0  0  0  0
 37 38  2  0  0  0  0
  8  9  1  0  0  0  0
  9 17  1  0  0  0  0
  9 10  2  0  0  0  0
 18 19  1  0  0  0  0
 19 35  1  0  0  0  0
 19 20  2  0  0  0  0
 36 39  1  0  0  0  0
  8 11  1  0  0  0  0
 45 46  1  0  0  0  0
 18 21  1  0  0  0  0
 35 36  1  0  0  0  0
  7  8  1  0  0  0  0
 17 18  1  0  0  0  0
 24 32  1  0  0  0  0
 25 33  1  0  0  0  0
  3  4  1  0  0  0  0
  3  5  1  0  0  0  0
  3  6  1  0  0  0  0
 39 42  1  0  0  0  0
 39 43  1  0  0  0  0
 39 44  1  0  0  0  0
 11 14  1  0  0  0  0
 11 15  1  0  0  0  0
 11 16  1  0  0  0  0
 46 48  1  0  0  0  0
 46 49  1  0  0  0  0
 46 50  1  0  0  0  0
 21 29  1  0  0  0  0
 21 30  1  0  0  0  0
 36 41  1  0  0  0  0
  8 13  1  0  0  0  0
 18 28  1  0  0  0  0
 26 34  1  0  0  0  0
 23 31  1  0  0  0  0
 45 47  1  0  0  0  0
  7 12  1  0  0  0  0
 35 40  1  0  0  0  0
 17 27  1  0  0  0  0
M  CHG  1  23   1
M  END
$$$$

  -OEChem-05262214473D

 50 50  0     1  0  0  0  0  0999 V2000
   -1.6938    0.4865    3.8080 C   0  0  0  0  0  0  0  0  0  0  0  0
   -0.7464   -0.1282    3.3323 O   0  0  0  0  0  0  0  0  0  0  0  0
   -2.1257    0.2041    5.2087 C   0  0  0  0  0  0  0  0  0  0  0  0
   -2.8853   -0.5922    5.2621 H   0  0  0  0  0  0  0  0  0  0  0  0
   -1.2944   -0.1435    5.8430 H   0  0  0  0  0  0  0  0  0  0  0  0
   -2.5637    1.0590    5.7483 H   0  0  0  0  0  0  0  0  0  0  0  0
   -2.4435    1.4589    3.1669 N   0  0  0  0  0  0  0  0  0  0  0  0
   -2.1966    1.8850    1.8145 C   0  0  2  0  0  0  0  0  0  0  0  0
   -0.8617    1.2996    1.3733 C   0  0  0  0  0  0  0  0  0  0  0  0
    0.0104    0.9468    2.1646 O   0  0  0  0  0  0  0  0  0  0  0  0
   -2.1879    3.4017    1.7050 C   0  0  0  0  0  0  0  0  0  0  0  0
   -3.2085    1.8948    3.6787 H   0  0  0  0  0  0  0  0  0  0  0  0
   -3.0007    1.4665    1.1994 H   0  0  0  0  0  0  0  0  0  0  0  0
   -1.3888    3.8390    2.3147 H   0  0  0  0  0  0  0  0  0  0  0  0
   -2.0284    3.7240    0.6708 H   0  0  0  0  0  0  0  0  0  0  0  0
   -3.1380    3.8230    2.0508 H   0  0  0  0  0  0  0  0  0  0  0  0
   -0.7390    1.2565   -0.0101 N   0  0  0  0  0  0  0  0  0  0  0  0
    0.4383    0.7557   -0.6738 C   0  0  2  0  0  0  0  0  0  0  0  0
    0.9977    1.8939   -1.5198 C   0  0  0  0  0  0  0  0  0  0  0  0
    0.9056    3.0761   -1.1959 O   0  0  0  0  0  0  0  0  0  0  0  0
    0.1332   -0.4621   -1.5536 C   0  0  0  0  0  0  0  0  0  0  0  0
   -0.3460   -1.6516   -0.7579 C   0  0  0  0  0  0  0  0  0  0  0  0
    0.5131   -2.4142   -0.0040 N   0  3  0  0  0  0  0  0  0  0  0  0
   -1.5897   -2.1977   -0.6098 C   0  0  0  0  0  0  0  0  0  0  0  0
   -0.1692   -3.3982    0.5906 C   0  0  0  0  0  0  0  0  0  0  0  0
   -1.4506   -3.2770    0.2291 N   0  0  0  0  0  0  0  0  0  0  0  0
   -1.5221    1.5532   -0.5874 H   0  0  0  0  0  0  0  0  0  0  0  0
    1.1589    0.5065    0.1141 H   0  0  0  0  0  0  0  0  0  0  0  0
    1.0206   -0.7415   -2.1375 H   0  0  0  0  0  0  0  0  0  0  0  0
   -0.6350   -0.2145   -2.2981 H   0  0  0  0  0  0  0  0  0  0  0  0
    1.5132   -2.2593    0.0893 H   0  0  0  0  0  0  0  0  0  0  0  0
   -2.5725   -1.9829   -0.9798 H   0  0  0  0  0  0  0  0  0  0  0  0
    0.2397   -4.1524    1.2421 H   0  0  0  0  0  0  0  0  0  0  0  0
   -2.2031   -3.8902    0.5293 H   0  0  0  0  0  0  0  0  0  0  0  0
    1.6533    1.4271   -2.6506 N   0  0  0  0  0  0  0  0  0  0  0  0
    2.2950    2.2957   -3.6111 C   0  0  2  0  0  0  0  0  0  0  0  0
    1.3019    3.3835   -3.9985 C   0  0  0  0  0  0  0  0  0  0  0  0
    0.0855    3.2559   -3.8757 O   0  0  0  0  0  0  0  0  0  0  0  0
    2.7574    1.5210   -4.8353 C   0  0  0  0  0  0  0  0  0  0  0  0
    1.6836    0.4246   -2.8112 H   0  0  0  0  0  0  0  0  0  0  0  0
    3.1539    2.7484   -3.1039 H   0  0  0  0  0  0  0  0  0  0  0  0
    1.9105    1.0602   -5.3567 H   0  0  0  0  0  0  0  0  0  0  0  0
    3.2686    2.1753   -5.5492 H   0  0  0  0  0  0  0  0  0  0  0  0
    3.4485    0.7200   -4.5514 H   0  0  0  0  0  0  0  0  0  0  0  0
    1.9313    4.4968   -4.5376 N   0  0  0  0  0  0  0  0  0  0  0  0
    1.2047    5.6587   -4.9936 C   0  0  0  0  0  0  0  0  0  0  0  0
    2.9456    4.5238   -4.5839 H   0  0  0  0  0  0  0  0  0  0  0  0
    0.9867    5.5576   -6.0670 H   0  0  0  0  0  0  0  0  0  0  0  0
    0.2612    5.7437   -4.4345 H   0  0  0  0  0  0  0  0  0  0  0  0
    1.8125    6.5601   -4.8263 H   0  0  0  0  0  0  0  0  0  0  0  0
 22 24  2  0  0  0  0
 24 26  1  0  0  0  0
 25 26  1  0  0  0  0
 23 25  2  0  0  0  0
 21 22  1  0  0  0  0
 22 23  1  0  0  0  0
  1  3  1  0  0  0  0
  1  7  1  0  0  0  0
  1  2  2  0  0  0  0
 36 37  1  0  0  0  0
 37 45  1  0  0  0  0
 37 38  2  0  0  0  0
  8  9  1  0  0  0  0
  9 17  1  0  0  0  0
  9 10  2  0  0  0  0
 18 19  1  0  0  0  0
 19 35  1  0  0  0  0
 19 20  2  0  0  0  0
 36 39  1  0  0  0  0
  8 11  1  0  0  0  0
 45 46  1  0  0  0  0
 18 21  1  0  0  0  0
 35 36  1  0  0  0  0
  7  8  1  0  0  0  0
 17 18  1  0  0  0  0
 24 32  1  0  0  0  0
 25 33  1  0  0  0  0
  3  4  1  0  0  0  0
  3  5  1  0  0  0  0
  3  6  1  0  0  0  0
 39 42  1  0  0  0  0
 39 43  1  0  0  0  0
 39 44  1  0  0  0  0
 11 14  1  0  0  0  0
 11 15  1  0  0  0  0
 11 16  1  0  0  0  0
 46 48  1  0  0  0  0
 46 49  1  0  0  0  0
 46 50  1  0  0  0  0
 21 29  1  0  0  0  0
 21 30  1  0  0  0  0
 36 41  1  0  0  0  0
  8 13  1  0  0  0  0
 18 28  1  0  0  0  0
 26 34  1  0  0  0  0
 23 31  1  0  0  0  0
 45 47  1  0  0  0  0
  7 12  1  0  0  0  0
 35 40  1  0  0  0  0
 17 27  1  0  0  0  0
M  CHG  1  23   1
M  END
$$$$

  -OEChem-05262214473D

 50 50  0     1  0  0  0  0  0999 V2000
   -1.6938    0.4865    3.8080 C   0  0  0  0  0  0  0  0  0  0  0  0
   -0.7464   -0.1282    3.3323 O   0  0  0  0  0  0  0  0  0  0  0  0
   -2.1257    0.2041    5.2087 C   0  0  0  0  0  0  0  0  0  0  0  0
   -2.8853   -0.5922    5.2621 H   0  0  0  0  0  0  0  0  0  0  0  0
   -1.2944   -0.1435    5.8430 H   0  0  0  0  0  0  0  0  0  0  0  0
   -2.5637    1.0590    5.7483 H   0  0  0  0  0  0  0  0  0  0  0  0
   -2.4435    1.4589    3.1669 N   0  0  0  0  0  0  0  0  0  0  0  0
   -2.1966    1.8850    1.8145 C   0  0  2  0  0  0  0  0  0  0  0  0
   -0.8617    1.2996    1.3733 C   0  0  0  0  0  0  0  0  0  0  0  0
    0.0104    0.9468    2.1646 O   0  0  0  0  0  0  0  0  0  0  0  0
   -2.1879    3.4017    1.7050 C   0  0  0  0  0  0  0  0  0  0  0  0
   -3.2085    1.8948    3.6787 H   0  0  0  0  0  0  0  0  0  0  0  0
   -3.0007    1.4665    1.1994 H   0  0  0  0  0  0  0  0  0  0  0  0
   -1.3888    3.8390    2.3147 H   0  0  0  0  0  0  0  0  0  0  0  0
   -2.0284    3.7240    0.6708 H   0  0  0  0  0  0  0  0  0  0  0  0
   -3.1380    3.8230    2.0508 H   0  0  0  0  0  0  0  0  0  0  0  0
   -0.7390    1.2565   -0.0101 N   0  0  0  0  0  0  0  0  0  0  0  0
    0.4383    0.7557   -0.6738 C   0  0  2  0  0  0  0  0  0  0  0  0
    0.9977    1.8939   -1.5198 C   0  0  0  0  0  0  0  0  0  0  0  0
    1.1495    3.0353   -1.0896 O   0  0  0  0  0  0  0  0  0  0  0  0
    0.1332   -0.4621   -1.5536 C   0  0  0  0  0  0  0  0  0  0  0  0
   -0.3460   -1.6516   -0.7579 C   0  0  0  0  0  0  0  0  0  0  0  0
    0.5131   -2.4142   -0.0040 N   0  3  0  0  0  0  0  0  0  0  0  0
   -1.5897   -2.1977   -0.6098 C   0  0  0  0  0  0  0  0  0  0  0  0
   -0.1692   -3.3982    0.5906 C   0  0  0  0  0  0  0  0  0  0  0  0
   -1.4506   -3.2770    0.2291 N   0  0  0  0  0  0  0  0  0  0  0  0
   -1.5221    1.5532   -0.5874 H   0  0  0  0  0  0  0  0  0  0  0  0
    1.1589    0.5065    0.1141 H   0  0  0  0  0  0  0  0  0  0  0  0
    1.0206   -0.7415   -2.1375 H   0  0  0  0  0  0  0  0  0  0  0  0
   -0.6350   -0.2145   -2.2981 H   0  0  0  0  0  0  0  0  0  0  0  0
    1.5132   -2.2593    0.0893 H   0  0  0  0  0  0  0  0  0  0  0  0
   -2.5725   -1.9829   -0.9798 H   0  0  0  0  0  0  0  0  0  0  0  0
    0.2397   -4.1524    1.2421 H   0  0  0  0  0  0  0  0  0  0  0  0
   -2.2031   -3.8902    0.5293 H   0  0  0  0  0  0  0  0  0  0  0  0
    1.3519    1.4695   -2.7929 N   0  0  0  0  0  0  0  0  0  0  0  0
    1.9285    2.3436   -3.7890 C   0  0  2  0  0  0  0  0  0  0  0  0
    1.0590    3.5906   -3.8805 C   0  0  0  0  0  0  0  0  0  0  0  0
   -0.1182    3.6148   -3.5275 O   0  0  0  0  0  0  0  0  0  0  0  0
    2.0308    1.6519   -5.1395 C   0  0  0  0  0  0  0  0  0  0  0  0
    1.1981    0.4955   -3.0368 H   0  0  0  0  0  0  0  0  0  0  0  0
    2.9259    2.6187   -3.4291 H   0  0  0  0  0  0  0  0  0  0  0  0
    1.0412    1.3687   -5.5163 H   0  0  0  0  0  0  0  0  0  0  0  0
    2.4941    2.3056   -5.8860 H   0  0  0  0  0  0  0  0  0  0  0  0
    2.6319    0.7392   -5.0655 H   0  0  0  0  0  0  0  0  0  0  0  0
    1.7397    4.6613   -4.4429 N   0  0  0  0  0  0  0  0  0  0  0  0
    1.1273    5.9531   -4.6488 C   0  0  0  0  0  0  0  0  0  0  0  0
    2.7196    4.5568   -4.6890 H   0  0  0  0  0  0  0  0  0  0  0  0
    0.7003    5.9998   -5.6614 H   0  0  0  0  0  0  0  0  0  0  0  0
    0.3288    6.1025   -3.9071 H   0  0  0  0  0  0  0  0  0  0  0  0
    1.8863    6.7410   -4.5342 H   0  0  0  0  0  0  0  0  0  0  0  0
 22 24  2  0  0  0  0
 24 26  1  0  0  0  0
 25 26  1  0  0  0  0
 23 25  2  0  0  0  0
 21 22  1  0  0  0  0
 22 23  1  0  0  0  0
  1  3  1  0  0  0  0
  1  7  1  0  0  0  0
  1  2  2  0  0  0  0
 36 37  1  0  0  0  0
 37 45  1  0  0  0  0
 37 38  2  0  0  0  0
  8  9  1  0  0  0  0
  9 17  1  0  0  0  0
  9 10  2  0  0  0  0
 18 19  1  0  0  0  0
 19 35  1  0  0  0  0
 19 20  2  0  0  0  0
 36 39  1  0  0  0  0
  8 11  1  0  0  0  0
 45 46  1  0  0  0  0
 18 21  1  0  0  0  0
 35 36  1  0  0  0  0
  7  8  1  0  0  0  0
 17 18  1  0  0  0  0
 24 32  1  0  0  0  0
 25 33  1  0  0  0  0
  3  4  1  0  0  0  0
  3  5  1  0  0  0  0
  3  6  1  0  0  0  0
 39 42  1  0  0  0  0
 39 43  1  0  0  0  0
 39 44  1  0  0  0  0
 11 14  1  0  0  0  0
 11 15  1  0  0  0  0
 11 16  1  0  0  0  0
 46 48  1  0  0  0  0
 46 49  1  0  0  0  0
 46 50  1  0  0  0  0
 21 29  1  0  0  0  0
 21 30  1  0  0  0  0
 36 41  1  0  0  0  0
  8 13  1  0  0  0  0
 18 28  1  0  0  0  0
 26 34  1  0  0  0  0
 23 31  1  0  0  0  0
 45 47  1  0  0  0  0
  7 12  1  0  0  0  0
 35 40  1  0  0  0  0
 17 27  1  0  0  0  0
M  CHG  1  23   1
M  END
$$$$

  -OEChem-05262214473D

 50 50  0     1  0  0  0  0  0999 V2000
   -1.6938    0.4865    3.8080 C   0  0  0  0  0  0  0  0  0  0  0  0
   -0.7464   -0.1282    3.3323 O   0  0  0  0  0  0  0  0  0  0  0  0
   -2.1257    0.2041    5.2087 C   0  0  0  0  0  0  0  0  0  0  0  0
   -2.8853   -0.5922    5.2621 H   0  0  0  0  0  0  0  0  0  0  0  0
   -1.2944   -0.1435    5.8430 H   0  0  0  0  0  0  0  0  0  0  0  0
   -2.5637    1.0590    5.7483 H   0  0  0  0  0  0  0  0  0  0  0  0
   -2.4435    1.4589    3.1669 N   0  0  0  0  0  0  0  0  0  0  0  0
   -2.1966    1.8850    1.8145 C   0  0  2  0  0  0  0  0  0  0  0  0
   -0.8617    1.2996    1.3733 C   0  0  0  0  0  0  0  0  0  0  0  0
    0.0104    0.9468    2.1646 O   0  0  0  0  0  0  0  0  0  0  0  0
   -2.1879    3.4017    1.7050 C   0  0  0  0  0  0  0  0  0  0  0  0
   -3.2085    1.8948    3.6787 H   0  0  0  0  0  0  0  0  0  0  0  0
   -3.0007    1.4665    1.1994 H   0  0  0  0  0  0  0  0  0  0  0  0
   -1.3888    3.8390    2.3147 H   0  0  0  0  0  0  0  0  0  0  0  0
   -2.0284    3.7240    0.6708 H   0  0  0  0  0  0  0  0  0  0  0  0
   -3.1380    3.8230    2.0508 H   0  0  0  0  0  0  0  0  0  0  0  0
   -0.7390    1.2565   -0.0101 N   0  0  0  0  0  0  0  0  0  0  0  0
    0.4383    0.7557   -0.6738 C   0  0  2  0  0  0  0  0  0  0  0  0
    0.9977    1.8939   -1.5198 C   0  0  0  0  0  0  0  0  0  0  0  0
    1.3997    2.9508   -1.0378 O   0  0  0  0  0  0  0  0  0  0  0  0
    0.1332   -0.4621   -1.5536 C   0  0  0  0  0  0  0  0  0  0  0  0
   -0.3460   -1.6516   -0.7579 C   0  0  0  0  0  0  0  0  0  0  0  0
    0.5131   -2.4142   -0.0040 N   0  3  0  0  0  0  0  0  0  0  0  0
   -1.5897   -2.1977   -0.6098 C   0  0  0  0  0  0  0  0  0  0  0  0
   -0.1692   -3.3982    0.5906 C   0  0  0  0  0  0  0  0  0  0  0  0
   -1.4506   -3.2770    0.2291 N   0  0  0  0  0  0  0  0  0  0  0  0
   -1.5221    1.5532   -0.5874 H   0  0  0  0  0  0  0  0  0  0  0  0
    1.1589    0.5065    0.1141 H   0  0  0  0  0  0  0  0  0  0  0  0
    1.0206   -0.7415   -2.1375 H   0  0  0  0  0  0  0  0  0  0  0  0
   -0.6350   -0.2145   -2.2981 H   0  0  0  0  0  0  0  0  0  0  0  0
    1.5132   -2.2593    0.0893 H   0  0  0  0  0  0  0  0  0  0  0  0
   -2.5725   -1.9829   -0.9798 H   0  0  0  0  0  0  0  0  0  0  0  0
    0.2397   -4.1524    1.2421 H   0  0  0  0  0  0  0  0  0  0  0  0
   -2.2031   -3.8902    0.5293 H   0  0  0  0  0  0  0  0  0  0  0  0
    1.0393    1.5672   -2.8681 N   0  0  0  0  0  0  0  0  0  0  0  0
    1.5471    2.4593   -3.8855 C   0  0  2  0  0  0  0  0  0  0  0  0
    0.8769    3.8143   -3.7000 C   0  0  0  0  0  0  0  0  0  0  0  0
   -0.1961    3.9577   -3.1176 O   0  0  0  0  0  0  0  0  0  0  0  0
    1.2890    1.9117   -5.2806 C   0  0  0  0  0  0  0  0  0  0  0  0
    0.6956    0.6552   -3.1542 H   0  0  0  0  0  0  0  0  0  0  0  0
    2.6242    2.5571   -3.7114 H   0  0  0  0  0  0  0  0  0  0  0  0
    0.2151    1.8068   -5.4733 H   0  0  0  0  0  0  0  0  0  0  0  0
    1.6995    2.5747   -6.0493 H   0  0  0  0  0  0  0  0  0  0  0  0
    1.7466    0.9239   -5.4023 H   0  0  0  0  0  0  0  0  0  0  0  0
    1.5966    4.8388   -4.2988 N   0  0  0  0  0  0  0  0  0  0  0  0
    1.1614    6.2158   -4.2728 C   0  0  0  0  0  0  0  0  0  0  0  0
    2.4857    4.6311   -4.7437 H   0  0  0  0  0  0  0  0  0  0  0  0
    0.5655    6.4296   -5.1723 H   0  0  0  0  0  0  0  0  0  0  0  0
    0.5475    6.3893   -3.3766 H   0  0  0  0  0  0  0  0  0  0  0  0
    2.0399    6.8774   -4.2492 H   0  0  0  0  0  0  0  0  0  0  0  0
 22 24  2  0  0  0  0
 24 26  1  0  0  0  0
 25 26  1  0  0  0  0
 23 25  2  0  0  0  0
 21 22  1  0  0  0  0
 22 23  1  0  0  0  0
  1  3  1  0  0  0  0
  1  7  1  0  0  0  0
  1  2  2  0  0  0  0
 36 37  1  0  0  0  0
 37 45  1  0  0  0  0
 37 38  2  0  0  0  0
  8  9  1  0  0  0  0
  9 17  1  0  0  0  0
  9 10  2  0  0  0  0
 18 19  1  0  0  0  0
 19 35  1  0  0  0  0
 19 20  2  0  0  0  0
 36 39  1  0  0  0  0
  8 11  1  0  0  0  0
 45 46  1  0  0  0  0
 18 21  1  0  0  0  0
 35 36  1  0  0  0  0
  7  8  1  0  0  0  0
 17 18  1  0  0  0  0
 24 32  1  0  0  0  0
 25 33  1  0  0  0  0
  3  4  1  0  0  0  0
  3  5  1  0  0  0  0
  3  6  1  0  0  0  0
 39 42  1  0  0  0  0
 39 43  1  0  0  0  0
 39 44  1  0  0  0  0
 11 14  1  0  0  0  0
 11 15  1  0  0  0  0
 11 16  1  0  0  0  0
 46 48  1  0  0  0  0
 46 49  1  0  0  0  0
 46 50  1  0  0  0  0
 21 29  1  0  0  0  0
 21 30  1  0  0  0  0
 36 41  1  0  0  0  0
  8 13  1  0  0  0  0
 18 28  1  0  0  0  0
 26 34  1  0  0  0  0
 23 31  1  0  0  0  0
 45 47  1  0  0  0  0
  7 12  1  0  0  0  0
 35 40  1  0  0  0  0
 17 27  1  0  0  0  0
M  CHG  1  23   1
M  END
$$$$

  -OEChem-05262214473D

 50 50  0     1  0  0  0  0  0999 V2000
   -1.6938    0.4865    3.8080 C   0  0  0  0  0  0  0  0  0  0  0  0
   -0.7464   -0.1282    3.3323 O   0  0  0  0  0  0  0  0  0  0  0  0
   -2.1257    0.2041    5.2087 C   0  0  0  0  0  0  0  0  0  0  0  0
   -2.8853   -0.5922    5.2621 H   0  0  0  0  0  0  0  0  0  0  0  0
   -1.2944   -0.1435    5.8430 H   0  0  0  0  0  0  0  0  0  0  0  0
   -2.5637    1.0590    5.7483 H   0  0  0  0  0  0  0  0  0  0  0  0
   -2.4435    1.4589    3.1669 N   0  0  0  0  0  0  0  0  0  0  0  0
   -2.1966    1.8850    1.8145 C   0  0  2  0  0  0  0  0  0  0  0  0
   -0.8617    1.2996    1.3733 C   0  0  0  0  0  0  0  0  0  0  0  0
    0.0104    0.9468    2.1646 O   0  0  0  0  0  0  0  0  0  0  0  0
   -2.1879    3.4017    1.7050 C   0  0  0  0  0  0  0  0  0  0  0  0
   -3.2085    1.8948    3.6787 H   0  0  0  0  0  0  0  0  0  0  0  0
   -3.0007    1.4665    1.1994 H   0  0  0  0  0  0  0  0  0  0  0  0
   -1.3888    3.8390    2.3147 H   0  0  0  0  0  0  0  0  0  0  0  0
   -2.0284    3.7240    0.6708 H   0  0  0  0  0  0  0  0  0  0  0  0
   -3.1380    3.8230    2.0508 H   0  0  0  0  0  0  0  0  0  0  0  0
   -0.7390    1.2565   -0.0101 N   0  0  0  0  0  0  0  0  0  0  0  0
    0.4383    0.7557   -0.6738 C   0  0  2  0  0  0  0  0  0  0  0  0
    0.9977    1.8939   -1.5198 C   0  0  0  0  0  0  0  0  0  0  0  0
    1.6393    2.8283   -1.0442 O   0  0  0  0  0  0  0  0  0  0  0  0
    0.1332   -0.4621   -1.5536 C   0  0  0  0  0  0  0  0  0  0  0  0
   -0.3460   -1.6516   -0.7579 C   0  0  0  0  0  0  0  0  0  0  0  0
    0.5131   -2.4142   -0.0040 N   0  3  0  0  0  0  0  0  0  0  0  0
   -1.5897   -2.1977   -0.6098 C   0  0  0  0  0  0  0  0  0  0  0  0
   -0.1692   -3.3982    0.5906 C   0  0  0  0  0  0  0  0  0  0  0  0
   -1.4506   -3.2770    0.2291 N   0  0  0  0  0  0  0  0  0  0  0  0
   -1.5221    1.5532   -0.5874 H   0  0  0  0  0  0  0  0  0  0  0  0
    1.1589    0.5065    0.1141 H   0  0  0  0  0  0  0  0  0  0  0  0
    1.0206   -0.7415   -2.1375 H   0  0  0  0  0  0  0  0  0  0  0  0
   -0.6350   -0.2145   -2.2981 H   0  0  0  0  0  0  0  0  0  0  0  0
    1.5132   -2.2593    0.0893 H   0  0  0  0  0  0  0  0  0  0  0  0
   -2.5725   -1.9829   -0.9798 H   0  0  0  0  0  0  0  0  0  0  0  0
    0.2397   -4.1524    1.2421 H   0  0  0  0  0  0  0  0  0  0  0  0
   -2.2031   -3.8902    0.5293 H   0  0  0  0  0  0  0  0  0  0  0  0
    0.7369    1.7136   -2.8711 N   0  0  0  0  0  0  0  0  0  0  0  0
    1.1767    2.6350   -3.8940 C   0  0  2  0  0  0  0  0  0  0  0  0
    0.7680    4.0393   -3.4691 C   0  0  0  0  0  0  0  0  0  0  0  0
   -0.1429    4.2612   -2.6741 O   0  0  0  0  0  0  0  0  0  0  0  0
    0.5825    2.2825   -5.2487 C   0  0  0  0  0  0  0  0  0  0  0  0
    0.2106    0.8927   -3.1554 H   0  0  0  0  0  0  0  0  0  0  0  0
    2.2694    2.5677   -3.9317 H   0  0  0  0  0  0  0  0  0  0  0  0
   -0.5117    2.3444   -5.2304 H   0  0  0  0  0  0  0  0  0  0  0  0
    0.9391    2.9642   -6.0279 H   0  0  0  0  0  0  0  0  0  0  0  0
    0.8528    1.2615   -5.5391 H   0  0  0  0  0  0  0  0  0  0  0  0
    1.5116    5.0171   -4.1150 N   0  0  0  0  0  0  0  0  0  0  0  0
    1.3048    6.4289   -3.8912 C   0  0  0  0  0  0  0  0  0  0  0  0
    2.2599    4.7416   -4.7443 H   0  0  0  0  0  0  0  0  0  0  0  0
    0.5916    6.8176   -4.6330 H   0  0  0  0  0  0  0  0  0  0  0  0
    0.9025    6.5845   -2.8793 H   0  0  0  0  0  0  0  0  0  0  0  0
    2.2630    6.9600   -3.9905 H   0  0  0  0  0  0  0  0  0  0  0  0
 22 24  2  0  0  0  0
 24 26  1  0  0  0  0
 25 26  1  0  0  0  0
 23 25  2  0  0  0  0
 21 22  1  0  0  0  0
 22 23  1  0  0  0  0
  1  3  1  0  0  0  0
  1  7  1  0  0  0  0
  1  2  2  0  0  0  0
 36 37  1  0  0  0  0
 37 45  1  0  0  0  0
 37 38  2  0  0  0  0
  8  9  1  0  0  0  0
  9 17  1  0  0  0  0
  9 10  2  0  0  0  0
 18 19  1  0  0  0  0
 19 35  1  0  0  0  0
 19 20  2  0  0  0  0
 36 39  1  0  0  0  0
  8 11  1  0  0  0  0
 45 46  1  0  0  0  0
 18 21  1  0  0  0  0
 35 36  1  0  0  0  0
  7  8  1  0  0  0  0
 17 18  1  0  0  0  0
 24 32  1  0  0  0  0
 25 33  1  0  0  0  0
  3  4  1  0  0  0  0
  3  5  1  0  0  0  0
  3  6  1  0  0  0  0
 39 42  1  0  0  0  0
 39 43  1  0  0  0  0
 39 44  1  0  0  0  0
 11 14  1  0  0  0  0
 11 15  1  0  0  0  0
 11 16  1  0  0  0  0
 46 48  1  0  0  0  0
 46 49  1  0  0  0  0
 46 50  1  0  0  0  0
 21 29  1  0  0  0  0
 21 30  1  0  0  0  0
 36 41  1  0  0  0  0
  8 13  1  0  0  0  0
 18 28  1  0  0  0  0
 26 34  1  0  0  0  0
 23 31  1  0  0  0  0
 45 47  1  0  0  0  0
  7 12  1  0  0  0  0
 35 40  1  0  0  0  0
 17 27  1  0  0  0  0
M  CHG  1  23   1
M  END
$$$$

  -OEChem-05262214473D

 50 50  0     1  0  0  0  0  0999 V2000
   -1.6938    0.4865    3.8080 C   0  0  0  0  0  0  0  0  0  0  0  0
   -0.7464   -0.1282    3.3323 O   0  0  0  0  0  0  0  0  0  0  0  0
   -2.1257    0.2041    5.2087 C   0  0  0  0  0  0  0  0  0  0  0  0
   -2.8853   -0.5922    5.2621 H   0  0  0  0  0  0  0  0  0  0  0  0
   -1.2944   -0.1435    5.8430 H   0  0  0  0  0  0  0  0  0  0  0  0
   -2.5637    1.0590    5.7483 H   0  0  0  0  0  0  0  0  0  0  0  0
   -2.4435    1.4589    3.1669 N   0  0  0  0  0  0  0  0  0  0  0  0
   -2.1966    1.8850    1.8145 C   0  0  2  0  0  0  0  0  0  0  0  0
   -0.8617    1.2996    1.3733 C   0  0  0  0  0  0  0  0  0  0  0  0
    0.0104    0.9468    2.1646 O   0  0  0  0  0  0  0  0  0  0  0  0
   -2.1879    3.4017    1.7050 C   0  0  0  0  0  0  0  0  0  0  0  0
   -3.2085    1.8948    3.6787 H   0  0  0  0  0  0  0  0  0  0  0  0
   -3.0007    1.4665    1.1994 H   0  0  0  0  0  0  0  0  0  0  0  0
   -1.3888    3.8390    2.3147 H   0  0  0  0  0  0  0  0  0  0  0  0
   -2.0284    3.7240    0.6708 H   0  0  0  0  0  0  0  0  0  0  0  0
   -3.1380    3.8230    2.0508 H   0  0  0  0  0  0  0  0  0  0  0  0
   -0.7390    1.2565   -0.0101 N   0  0  0  0  0  0  0  0  0  0  0  0
    0.4383    0.7557   -0.6738 C   0  0  2  0  0  0  0  0  0  0  0  0
    0.9977    1.8939   -1.5198 C   0  0  0  0  0  0  0  0  0  0  0  0
    1.8519    2.6761   -1.1083 O   0  0  0  0  0  0  0  0  0  0  0  0
    0.1332   -0.4621   -1.5536 C   0  0  0  0  0  0  0  0  0  0  0  0
   -0.3460   -1.6516   -0.7579 C   0  0  0  0  0  0  0  0  0  0  0  0
    0.5131   -2.4142   -0.0040 N   0  3  0  0  0  0  0  0  0  0  0  0
   -1.5897   -2.1977   -0.6098 C   0  0  0  0  0  0  0  0  0  0  0  0
   -0.1692   -3.3982    0.5906 C   0  0  0  0  0  0  0  0  0  0  0  0
   -1.4506   -3.2770    0.2291 N   0  0  0  0  0  0  0  0  0  0  0  0
   -1.5221    1.5532   -0.5874 H   0  0  0  0  0  0  0  0  0  0  0  0
    1.1589    0.5065    0.1141 H   0  0  0  0  0  0  0  0  0  0  0  0
    1.0206   -0.7415   -2.1375 H   0  0  0  0  0  0  0  0  0  0  0  0
   -0.6350   -0.2145   -2.2981 H   0  0  0  0  0  0  0  0  0  0  0  0
    1.5132   -2.2593    0.0893 H   0  0  0  0  0  0  0  0  0  0  0  0
   -2.5725   -1.9829   -0.9798 H   0  0  0  0  0  0  0  0  0  0  0  0
    0.2397   -4.1524    1.2421 H   0  0  0  0  0  0  0  0  0  0  0  0
   -2.2031   -3.8902    0.5293 H   0  0  0  0  0  0  0  0  0  0  0  0
    0.4653    1.8987   -2.8016 N   0  0  0  0  0  0  0  0  0  0  0  0
    0.8424    2.8588   -3.8139 C   0  0  2  0  0  0  0  0  0  0  0  0
    0.7398    4.2504   -3.2038 C   0  0  0  0  0  0  0  0  0  0  0  0
    0.0378    4.5046   -2.2272 O   0  0  0  0  0  0  0  0  0  0  0  0
   -0.0405    2.7392   -5.0463 C   0  0  0  0  0  0  0  0  0  0  0  0
   -0.2241    1.1919   -3.0402 H   0  0  0  0  0  0  0  0  0  0  0  0
    1.8856    2.6499   -4.0749 H   0  0  0  0  0  0  0  0  0  0  0  0
   -1.0896    2.9451   -4.8044 H   0  0  0  0  0  0  0  0  0  0  0  0
    0.2647    3.4477   -5.8234 H   0  0  0  0  0  0  0  0  0  0  0  0
    0.0115    1.7289   -5.4665 H   0  0  0  0  0  0  0  0  0  0  0  0
    1.4907    5.1841   -3.9042 N   0  0  0  0  0  0  0  0  0  0  0  0
    1.5476    6.5779   -3.5302 C   0  0  0  0  0  0  0  0  0  0  0  0
    2.0576    4.8809   -4.6907 H   0  0  0  0  0  0  0  0  0  0  0  0
    0.7767    7.1375   -4.0803 H   0  0  0  0  0  0  0  0  0  0  0  0
    1.3695    6.6748   -2.4490 H   0  0  0  0  0  0  0  0  0  0  0  0
    2.5403    6.9832   -3.7760 H   0  0  0  0  0  0  0  0  0  0  0  0
 22 24  2  0  0  0  0
 24 26  1  0  0  0  0
 25 26  1  0  0  0  0
 23 25  2  0  0  0  0
 21 22  1  0  0  0  0
 22 23  1  0  0  0  0
  1  3  1  0  0  0  0
  1  7  1  0  0  0  0
  1  2  2  0  0  0  0
 36 37  1  0  0  0  0
 37 45  1  0  0  0  0
 37 38  2  0  0  0  0
  8  9  1  0  0  0  0
  9 17  1  0  0  0  0
  9 10  2  0  0  0  0
 18 19  1  0  0  0  0
 19 35  1  0  0  0  0
 19 20  2  0  0  0  0
 36 39  1  0  0  0  0
  8 11  1  0  0  0  0
 45 46  1  0  0  0  0
 18 21  1  0  0  0  0
 35 36  1  0  0  0  0
  7  8  1  0  0  0  0
 17 18  1  0  0  0  0
 24 32  1  0  0  0  0
 25 33  1  0  0  0  0
  3  4  1  0  0  0  0
  3  5  1  0  0  0  0
  3  6  1  0  0  0  0
 39 42  1  0  0  0  0
 39 43  1  0  0  0  0
 39 44  1  0  0  0  0
 11 14  1  0  0  0  0
 11 15  1  0  0  0  0
 11 16  1  0  0  0  0
 46 48  1  0  0  0  0
 46 49  1  0  0  0  0
 46 50  1  0  0  0  0
 21 29  1  0  0  0  0
 21 30  1  0  0  0  0
 36 41  1  0  0  0  0
  8 13  1  0  0  0  0
 18 28  1  0  0  0  0
 26 34  1  0  0  0  0
 23 31  1  0  0  0  0
 45 47  1  0  0  0  0
  7 12  1  0  0  0  0
 35 40  1  0  0  0  0
 17 27  1  0  0  0  0
M  CHG  1  23   1
M  END
$$$$

  -OEChem-05262214473D

 50 50  0     1  0  0  0  0  0999 V2000
   -1.6938    0.4865    3.8080 C   0  0  0  0  0  0  0  0  0  0  0  0
   -0.7464   -0.1282    3.3323 O   0  0  0  0  0  0  0  0  0  0  0  0
   -2.1257    0.2041    5.2087 C   0  0  0  0  0  0  0  0  0  0  0  0
   -2.8853   -0.5922    5.2621 H   0  0  0  0  0  0  0  0  0  0  0  0
   -1.2944   -0.1435    5.8430 H   0  0  0  0  0  0  0  0  0  0  0  0
   -2.5637    1.0590    5.7483 H   0  0  0  0  0  0  0  0  0  0  0  0
   -2.4435    1.4589    3.1669 N   0  0  0  0  0  0  0  0  0  0  0  0
   -2.1966    1.8850    1.8145 C   0  0  2  0  0  0  0  0  0  0  0  0
   -0.8617    1.2996    1.3733 C   0  0  0  0  0  0  0  0  0  0  0  0
    0.0104    0.9468    2.1646 O   0  0  0  0  0  0  0  0  0  0  0  0
   -2.1879    3.4017    1.7050 C   0  0  0  0  0  0  0  0  0  0  0  0
   -3.2085    1.8948    3.6787 H   0  0  0  0  0  0  0  0  0  0  0  0
   -3.0007    1.4665    1.1994 H   0  0  0  0  0  0  0  0  0  0  0  0
   -1.3888    3.8390    2.3147 H   0  0  0  0  0  0  0  0  0  0  0  0
   -2.0284    3.7240    0.6708 H   0  0  0  0  0  0  0  0  0  0  0  0
   -3.1380    3.8230    2.0508 H   0  0  0  0  0  0  0  0  0  0  0  0
   -0.7390    1.2565   -0.0101 N   0  0  0  0  0  0  0  0  0  0  0  0
    0.4383    0.7557   -0.6738 C   0  0  2  0  0  0  0  0  0  0  0  0
    0.9977    1.8939   -1.5198 C   0  0  0  0  0  0  0  0  0  0  0  0
    2.0230    2.5047   -1.2258 O   0  0  0  0  0  0  0  0  0  0  0  0
    0.1332   -0.4621   -1.5536 C   0  0  0  0  0  0  0  0  0  0  0  0
   -0.3460   -1.6516   -0.7579 C   0  0  0  0  0  0  0  0  0  0  0  0
    0.5131   -2.4142   -0.0040 N   0  3  0  0  0  0  0  0  0  0  0  0
   -1.5897   -2.1977   -0.6098 C   0  0  0  0  0  0  0  0  0  0  0  0
   -0.1692   -3.3982    0.5906 C   0  0  0  0  0  0  0  0  0  0  0  0
   -1.4506   -3.2770    0.2291 N   0  0  0  0  0  0  0  0  0  0  0  0
   -1.5221    1.5532   -0.5874 H   0  0  0  0  0  0  0  0  0  0  0  0
    1.1589    0.5065    0.1141 H   0  0  0  0  0  0  0  0  0  0  0  0
    1.0206   -0.7415   -2.1375 H   0  0  0  0  0  0  0  0  0  0  0  0
   -0.6350   -0.2145   -2.2981 H   0  0  0  0  0  0  0  0  0  0  0  0
    1.5132   -2.2593    0.0893 H   0  0  0  0  0  0  0  0  0  0  0  0
   -2.5725   -1.9829   -0.9798 H   0  0  0  0  0  0  0  0  0  0  0  0
    0.2397   -4.1524    1.2421 H   0  0  0  0  0  0  0  0  0  0  0  0
   -2.2031   -3.8902    0.5293 H   0  0  0  0  0  0  0  0  0  0  0  0
    0.2429    2.1100   -2.6644 N   0  0  0  0  0  0  0  0  0  0  0  0
    0.5672    3.1153   -3.6507 C   0  0  2  0  0  0  0  0  0  0  0  0
    0.7942    4.4332   -2.9219 C   0  0  0  0  0  0  0  0  0  0  0  0
    0.3336    4.6713   -1.8073 O   0  0  0  0  0  0  0  0  0  0  0  0
   -0.5376    3.2505   -4.6870 C   0  0  0  0  0  0  0  0  0  0  0  0
   -0.5787    1.5324   -2.8165 H   0  0  0  0  0  0  0  0  0  0  0  0
    1.4991    2.7979   -4.1313 H   0  0  0  0  0  0  0  0  0  0  0  0
   -1.4792    3.5678   -4.2241 H   0  0  0  0  0  0  0  0  0  0  0  0
   -0.2778    3.9922   -5.4495 H   0  0  0  0  0  0  0  0  0  0  0  0
   -0.7199    2.2944   -5.1893 H   0  0  0  0  0  0  0  0  0  0  0  0
    1.5352    5.3283   -3.6807 N   0  0  0  0  0  0  0  0  0  0  0  0
    1.8734    6.6527   -3.2142 C   0  0  0  0  0  0  0  0  0  0  0  0
    1.8925    5.0394   -4.5866 H   0  0  0  0  0  0  0  0  0  0  0  0
    1.1083    7.3674   -3.5517 H   0  0  0  0  0  0  0  0  0  0  0  0
    1.9167    6.6542   -2.1150 H   0  0  0  0  0  0  0  0  0  0  0  0
    2.8529    6.9454   -3.6201 H   0  0  0  0  0  0  0  0  0  0  0  0
 22 24  2  0  0  0  0
 24 26  1  0  0  0  0
 25 26  1  0  0  0  0
 23 25  2  0  0  0  0
 21 22  1  0  0  0  0
 22 23  1  0  0  0  0
  1  3  1  0  0  0  0
  1  7  1  0  0  0  0
  1  2  2  0  0  0  0
 36 37  1  0  0  0  0
 37 45  1  0  0  0  0
 37 38  2  0  0  0  0
  8  9  1  0  0  0  0
  9 17  1  0  0  0  0
  9 10  2  0  0  0  0
 18 19  1  0  0  0  0
 19 35  1  0  0  0  0
 19 20  2  0  0  0  0
 36 39  1  0  0  0  0
  8 11  1  0  0  0  0
 45 46  1  0  0  0  0
 18 21  1  0  0  0  0
 35 36  1  0  0  0  0
  7  8  1  0  0  0  0
 17 18  1  0  0  0  0
 24 32  1  0  0  0  0
 25 33  1  0  0  0  0
  3  4  1  0  0  0  0
  3  5  1  0  0  0  0
  3  6  1  0  0  0  0
 39 42  1  0  0  0  0
 39 43  1  0  0  0  0
 39 44  1  0  0  0  0
 11 14  1  0  0  0  0
 11 15  1  0  0  0  0
 11 16  1  0  0  0  0
 46 48  1  0  0  0  0
 46 49  1  0  0  0  0
 46 50  1  0  0  0  0
 21 29  1  0  0  0  0
 21 30  1  0  0  0  0
 36 41  1  0  0  0  0
  8 13  1  0  0  0  0
 18 28  1  0  0  0  0
 26 34  1  0  0  0  0
 23 31  1  0  0  0  0
 45 47  1  0  0  0  0
  7 12  1  0  0  0  0
 35 40  1  0  0  0  0
 17 27  1  0  0  0  0
M  CHG  1  23   1
M  END
$$$$

  -OEChem-05262214473D

 50 50  0     1  0  0  0  0  0999 V2000
   -1.6938    0.4865    3.8080 C   0  0  0  0  0  0  0  0  0  0  0  0
   -0.7464   -0.1282    3.3323 O   0  0  0  0  0  0  0  0  0  0  0  0
   -2.1257    0.2041    5.2087 C   0  0  0  0  0  0  0  0  0  0  0  0
   -2.8853   -0.5922    5.2621 H   0  0  0  0  0  0  0  0  0  0  0  0
   -1.2944   -0.1435    5.8430 H   0  0  0  0  0  0  0  0  0  0  0  0
   -2.5637    1.0590    5.7483 H   0  0  0  0  0  0  0  0  0  0  0  0
   -2.4435    1.4589    3.1669 N   0  0  0  0  0  0  0  0  0  0  0  0
   -2.1966    1.8850    1.8145 C   0  0  2  0  0  0  0  0  0  0  0  0
   -0.8617    1.2996    1.3733 C   0  0  0  0  0  0  0  0  0  0  0  0
    0.0104    0.9468    2.1646 O   0  0  0  0  0  0  0  0  0  0  0  0
   -2.1879    3.4017    1.7050 C   0  0  0  0  0  0  0  0  0  0  0  0
   -3.2085    1.8948    3.6787 H   0  0  0  0  0  0  0  0  0  0  0  0
   -3.0007    1.4665    1.1994 H   0  0  0  0  0  0  0  0  0  0  0  0
   -1.3888    3.8390    2.3147 H   0  0  0  0  0  0  0  0  0  0  0  0
   -2.0284    3.7240    0.6708 H   0  0  0  0  0  0  0  0  0  0  0  0
   -3.1380    3.8230    2.0508 H   0  0  0  0  0  0  0  0  0  0  0  0
   -0.7390    1.2565   -0.0101 N   0  0  0  0  0  0  0  0  0  0  0  0
    0.4383    0.7557   -0.6738 C   0  0  2  0  0  0  0  0  0  0  0  0
    0.9977    1.8939   -1.5198 C   0  0  0  0  0  0  0  0  0  0  0  0
    2.1410    2.3258   -1.3886 O   0  0  0  0  0  0  0  0  0  0  0  0
    0.1332   -0.4621   -1.5536 C   0  0  0  0  0  0  0  0  0  0  0  0
   -0.3460   -1.6516   -0.7579 C   0  0  0  0  0  0  0  0  0  0  0  0
    0.5131   -2.4142   -0.0040 N   0  3  0  0  0  0  0  0  0  0  0  0
   -1.5897   -2.1977   -0.6098 C   0  0  0  0  0  0  0  0  0  0  0  0
   -0.1692   -3.3982    0.5906 C   0  0  0  0  0  0  0  0  0  0  0  0
   -1.4506   -3.2770    0.2291 N   0  0  0  0  0  0  0  0  0  0  0  0
   -1.5221    1.5532   -0.5874 H   0  0  0  0  0  0  0  0  0  0  0  0
    1.1589    0.5065    0.1141 H   0  0  0  0  0  0  0  0  0  0  0  0
    1.0206   -0.7415   -2.1375 H   0  0  0  0  0  0  0  0  0  0  0  0
   -0.6350   -0.2145   -2.2981 H   0  0  0  0  0  0  0  0  0  0  0  0
    1.5132   -2.2593    0.0893 H   0  0  0  0  0  0  0  0  0  0  0  0
   -2.5725   -1.9829   -0.9798 H   0  0  0  0  0  0  0  0  0  0  0  0
    0.2397   -4.1524    1.2421 H   0  0  0  0  0  0  0  0  0  0  0  0
   -2.2031   -3.8902    0.5293 H   0  0  0  0  0  0  0  0  0  0  0  0
    0.0850    2.3329   -2.4689 N   0  0  0  0  0  0  0  0  0  0  0  0
    0.3697    3.3872   -3.4156 C   0  0  2  0  0  0  0  0  0  0  0  0
    0.9274    4.5752   -2.6428 C   0  0  0  0  0  0  0  0  0  0  0  0
    0.7245    4.7500   -1.4431 O   0  0  0  0  0  0  0  0  0  0  0  0
   -0.8749    3.7817   -4.1953 C   0  0  0  0  0  0  0  0  0  0  0  0
   -0.8291    1.8910   -2.4996 H   0  0  0  0  0  0  0  0  0  0  0  0
    1.1360    3.0018   -4.0970 H   0  0  0  0  0  0  0  0  0  0  0  0
   -1.6539    4.1702   -3.5292 H   0  0  0  0  0  0  0  0  0  0  0  0
   -0.6513    4.5605   -4.9319 H   0  0  0  0  0  0  0  0  0  0  0  0
   -1.2916    2.9193   -4.7266 H   0  0  0  0  0  0  0  0  0  0  0  0
    1.6421    5.4401   -3.4597 N   0  0  0  0  0  0  0  0  0  0  0  0
    2.2598    6.6482   -2.9648 C   0  0  0  0  0  0  0  0  0  0  0  0
    1.7759    5.2063   -4.4391 H   0  0  0  0  0  0  0  0  0  0  0  0
    1.5637    7.4916   -3.0835 H   0  0  0  0  0  0  0  0  0  0  0  0
    2.5069    6.5239   -1.9001 H   0  0  0  0  0  0  0  0  0  0  0  0
    3.1796    6.8492   -3.5336 H   0  0  0  0  0  0  0  0  0  0  0  0
 22 24  2  0  0  0  0
 24 26  1  0  0  0  0
 25 26  1  0  0  0  0
 23 25  2  0  0  0  0
 21 22  1  0  0  0  0
 22 23  1  0  0  0  0
  1  3  1  0  0  0  0
  1  7  1  0  0  0  0
  1  2  2  0  0  0  0
 36 37  1  0  0  0  0
 37 45  1  0  0  0  0
 37 38  2  0  0  0  0
  8  9  1  0  0  0  0
  9 17  1  0  0  0  0
  9 10  2  0  0  0  0
 18 19  1  0  0  0  0
 19 35  1  0  0  0  0
 19 20  2  0  0  0  0
 36 39  1  0  0  0  0
  8 11  1  0  0  0  0
 45 46  1  0  0  0  0
 18 21  1  0  0  0  0
 35 36  1  0  0  0  0
  7  8  1  0  0  0  0
 17 18  1  0  0  0  0
 24 32  1  0  0  0  0
 25 33  1  0  0  0  0
  3  4  1  0  0  0  0
  3  5  1  0  0  0  0
  3  6  1  0  0  0  0
 39 42  1  0  0  0  0
 39 43  1  0  0  0  0
 39 44  1  0  0  0  0
 11 14  1  0  0  0  0
 11 15  1  0  0  0  0
 11 16  1  0  0  0  0
 46 48  1  0  0  0  0
 46 49  1  0  0  0  0
 46 50  1  0  0  0  0
 21 29  1  0  0  0  0
 21 30  1  0  0  0  0
 36 41  1  0  0  0  0
  8 13  1  0  0  0  0
 18 28  1  0  0  0  0
 26 34  1  0  0  0  0
 23 31  1  0  0  0  0
 45 47  1  0  0  0  0
  7 12  1  0  0  0  0
 35 40  1  0  0  0  0
 17 27  1  0  0  0  0
M  CHG  1  23   1
M  END
$$$$

  -OEChem-05262214473D

 50 50  0     1  0  0  0  0  0999 V2000
   -1.6938    0.4865    3.8080 C   0  0  0  0  0  0  0  0  0  0  0  0
   -0.7464   -0.1282    3.3323 O   0  0  0  0  0  0  0  0  0  0  0  0
   -2.1257    0.2041    5.2087 C   0  0  0  0  0  0  0  0  0  0  0  0
   -2.8853   -0.5922    5.2621 H   0  0  0  0  0  0  0  0  0  0  0  0
   -1.2944   -0.1435    5.8430 H   0  0  0  0  0  0  0  0  0  0  0  0
   -2.5637    1.0590    5.7483 H   0  0  0  0  0  0  0  0  0  0  0  0
   -2.4435    1.4589    3.1669 N   0  0  0  0  0  0  0  0  0  0  0  0
   -2.1966    1.8850    1.8145 C   0  0  2  0  0  0  0  0  0  0  0  0
   -0.8617    1.2996    1.3733 C   0  0  0  0  0  0  0  0  0  0  0  0
    0.0104    0.9468    2.1646 O   0  0  0  0  0  0  0  0  0  0  0  0
   -2.1879    3.4017    1.7050 C   0  0  0  0  0  0  0  0  0  0  0  0
   -3.2085    1.8948    3.6787 H   0  0  0  0  0  0  0  0  0  0  0  0
   -3.0007    1.4665    1.1994 H   0  0  0  0  0  0  0  0  0  0  0  0
   -1.3888    3.8390    2.3147 H   0  0  0  0  0  0  0  0  0  0  0  0
   -2.0284    3.7240    0.6708 H   0  0  0  0  0  0  0  0  0  0  0  0
   -3.1380    3.8230    2.0508 H   0  0  0  0  0  0  0  0  0  0  0  0
   -0.7390    1.2565   -0.0101 N   0  0  0  0  0  0  0  0  0  0  0  0
    0.4383    0.7557   -0.6738 C   0  0  2  0  0  0  0  0  0  0  0  0
    0.9977    1.8939   -1.5198 C   0  0  0  0  0  0  0  0  0  0  0  0
    2.1978    2.1514   -1.5857 O   0  0  0  0  0  0  0  0  0  0  0  0
    0.1332   -0.4621   -1.5536 C   0  0  0  0  0  0  0  0  0  0  0  0
   -0.3460   -1.6516   -0.7579 C   0  0  0  0  0  0  0  0  0  0  0  0
    0.5131   -2.4142   -0.0040 N   0  3  0  0  0  0  0  0  0  0  0  0
   -1.5897   -2.1977   -0.6098 C   0  0  0  0  0  0  0  0  0  0  0  0
   -0.1692   -3.3982    0.5906 C   0  0  0  0  0  0  0  0  0  0  0  0
   -1.4506   -3.2770    0.2291 N   0  0  0  0  0  0  0  0  0  0  0  0
   -1.5221    1.5532   -0.5874 H   0  0  0  0  0  0  0  0  0  0  0  0
    1.1589    0.5065    0.1141 H   0  0  0  0  0  0  0  0  0  0  0  0
    1.0206   -0.7415   -2.1375 H   0  0  0  0  0  0  0  0  0  0  0  0
   -0.6350   -0.2145   -2.2981 H   0  0  0  0  0  0  0  0  0  0  0  0
    1.5132   -2.2593    0.0893 H   0  0  0  0  0  0  0  0  0  0  0  0
   -2.5725   -1.9829   -0.9798 H   0  0  0  0  0  0  0  0  0  0  0  0
    0.2397   -4.1524    1.2421 H   0  0  0  0  0  0  0  0  0  0  0  0
   -2.2031   -3.8902    0.5293 H   0  0  0  0  0  0  0  0  0  0  0  0
    0.0022    2.5524   -2.2283 N   0  0  0  0  0  0  0  0  0  0  0  0
    0.2635    3.6558   -3.1245 C   0  0  2  0  0  0  0  0  0  0  0  0
    1.1303    4.6667   -2.3855 C   0  0  0  0  0  0  0  0  0  0  0  0
    1.1837    4.7352   -1.1593 O   0  0  0  0  0  0  0  0  0  0  0  0
   -1.0293    4.2966   -3.6048 C   0  0  0  0  0  0  0  0  0  0  0  0
   -0.9582    2.2433   -2.1111 H   0  0  0  0  0  0  0  0  0  0  0  0
    0.8213    3.2477   -3.9744 H   0  0  0  0  0  0  0  0  0  0  0  0
   -1.6019    4.7112   -2.7670 H   0  0  0  0  0  0  0  0  0  0  0  0
   -0.8305    5.1139   -4.3058 H   0  0  0  0  0  0  0  0  0  0  0  0
   -1.6647    3.5610   -4.1098 H   0  0  0  0  0  0  0  0  0  0  0  0
    1.8042    5.5116   -3.2563 N   0  0  0  0  0  0  0  0  0  0  0  0
    2.6806    6.5646   -2.7990 C   0  0  0  0  0  0  0  0  0  0  0  0
    1.7158    5.3703   -4.2583 H   0  0  0  0  0  0  0  0  0  0  0  0
    2.1120    7.5018   -2.7074 H   0  0  0  0  0  0  0  0  0  0  0  0
    3.0997    6.2929   -1.8189 H   0  0  0  0  0  0  0  0  0  0  0  0
    3.4981    6.7011   -3.5223 H   0  0  0  0  0  0  0  0  0  0  0  0
 22 24  2  0  0  0  0
 24 26  1  0  0  0  0
 25 26  1  0  0  0  0
 23 25  2  0  0  0  0
 21 22  1  0  0  0  0
 22 23  1  0  0  0  0
  1  3  1  0  0  0  0
  1  7  1  0  0  0  0
  1  2  2  0  0  0  0
 36 37  1  0  0  0  0
 37 45  1  0  0  0  0
 37 38  2  0  0  0  0
  8  9  1  0  0  0  0
  9 17  1  0  0  0  0
  9 10  2  0  0  0  0
 18 19  1  0  0  0  0
 19 35  1  0  0  0  0
 19 20  2  0  0  0  0
 36 39  1  0  0  0  0
  8 11  1  0  0  0  0
 45 46  1  0  0  0  0
 18 21  1  0  0  0  0
 35 36  1  0  0  0  0
  7  8  1  0  0  0  0
 17 18  1  0  0  0  0
 24 32  1  0  0  0  0
 25 33  1  0  0  0  0
  3  4  1  0  0  0  0
  3  5  1  0  0  0  0
  3  6  1  0  0  0  0
 39 42  1  0  0  0  0
 39 43  1  0  0  0  0
 39 44  1  0  0  0  0
 11 14  1  0  0  0  0
 11 15  1  0  0  0  0
 11 16  1  0  0  0  0
 46 48  1  0  0  0  0
 46 49  1  0  0  0  0
 46 50  1  0  0  0  0
 21 29  1  0  0  0  0
 21 30  1  0  0  0  0
 36 41  1  0  0  0  0
  8 13  1  0  0  0  0
 18 28  1  0  0  0  0
 26 34  1  0  0  0  0
 23 31  1  0  0  0  0
 45 47  1  0  0  0  0
  7 12  1  0  0  0  0
 35 40  1  0  0  0  0
 17 27  1  0  0  0  0
M  CHG  1  23   1
M  END
$$$$

  -OEChem-05262214473D

 50 50  0     1  0  0  0  0  0999 V2000
   -1.6938    0.4865    3.8080 C   0  0  0  0  0  0  0  0  0  0  0  0
   -0.7464   -0.1282    3.3323 O   0  0  0  0  0  0  0  0  0  0  0  0
   -2.1257    0.2041    5.2087 C   0  0  0  0  0  0  0  0  0  0  0  0
   -2.8853   -0.5922    5.2621 H   0  0  0  0  0  0  0  0  0  0  0  0
   -1.2944   -0.1435    5.8430 H   0  0  0  0  0  0  0  0  0  0  0  0
   -2.5637    1.0590    5.7483 H   0  0  0  0  0  0  0  0  0  0  0  0
   -2.4435    1.4589    3.1669 N   0  0  0  0  0  0  0  0  0  0  0  0
   -2.1966    1.8850    1.8145 C   0  0  2  0  0  0  0  0  0  0  0  0
   -0.8617    1.2996    1.3733 C   0  0  0  0  0  0  0  0  0  0  0  0
    0.0104    0.9468    2.1646 O   0  0  0  0  0  0  0  0  0  0  0  0
   -2.1879    3.4017    1.7050 C   0  0  0  0  0  0  0  0  0  0  0  0
   -3.2085    1.8948    3.6787 H   0  0  0  0  0  0  0  0  0  0  0  0
   -3.0007    1.4665    1.1994 H   0  0  0  0  0  0  0  0  0  0  0  0
   -1.3888    3.8390    2.3147 H   0  0  0  0  0  0  0  0  0  0  0  0
   -2.0284    3.7240    0.6708 H   0  0  0  0  0  0  0  0  0  0  0  0
   -3.1380    3.8230    2.0508 H   0  0  0  0  0  0  0  0  0  0  0  0
   -0.7390    1.2565   -0.0101 N   0  0  0  0  0  0  0  0  0  0  0  0
    0.4383    0.7557   -0.6738 C   0  0  2  0  0  0  0  0  0  0  0  0
    0.9977    1.8939   -1.5198 C   0  0  0  0  0  0  0  0  0  0  0  0
    2.1895    1.9935   -1.8035 O   0  0  0  0  0  0  0  0  0  0  0  0
    0.1332   -0.4621   -1.5536 C   0  0  0  0  0  0  0  0  0  0  0  0
   -0.3460   -1.6516   -0.7579 C   0  0  0  0  0  0  0  0  0  0  0  0
    0.5131   -2.4142   -0.0040 N   0  3  0  0  0  0  0  0  0  0  0  0
   -1.5897   -2.1977   -0.6098 C   0  0  0  0  0  0  0  0  0  0  0  0
   -0.1692   -3.3982    0.5906 C   0  0  0  0  0  0  0  0  0  0  0  0
   -1.4506   -3.2770    0.2291 N   0  0  0  0  0  0  0  0  0  0  0  0
   -1.5221    1.5532   -0.5874 H   0  0  0  0  0  0  0  0  0  0  0  0
    1.1589    0.5065    0.1141 H   0  0  0  0  0  0  0  0  0  0  0  0
    1.0206   -0.7415   -2.1375 H   0  0  0  0  0  0  0  0  0  0  0  0
   -0.6350   -0.2145   -2.2981 H   0  0  0  0  0  0  0  0  0  0  0  0
    1.5132   -2.2593    0.0893 H   0  0  0  0  0  0  0  0  0  0  0  0
   -2.5725   -1.9829   -0.9798 H   0  0  0  0  0  0  0  0  0  0  0  0
    0.2397   -4.1524    1.2421 H   0  0  0  0  0  0  0  0  0  0  0  0
   -2.2031   -3.8902    0.5293 H   0  0  0  0  0  0  0  0  0  0  0  0
    0.0003    2.7534   -1.9591 N   0  0  0  0  0  0  0  0  0  0  0  0
    0.2557    3.9028   -2.7972 C   0  0  2  0  0  0  0  0  0  0  0  0
    1.3893    4.7015   -2.1675 C   0  0  0  0  0  0  0  0  0  0  0  0
    1.6800    4.6281   -0.9754 O   0  0  0  0  0  0  0  0  0  0  0  0
   -0.9905    4.7600   -2.9556 C   0  0  0  0  0  0  0  0  0  0  0  0
   -0.9572    2.5652   -1.6774 H   0  0  0  0  0  0  0  0  0  0  0  0
    0.5763    3.5187   -3.7717 H   0  0  0  0  0  0  0  0  0  0  0  0
   -1.3267    5.1538   -1.9895 H   0  0  0  0  0  0  0  0  0  0  0  0
   -0.8031    5.6148   -3.6138 H   0  0  0  0  0  0  0  0  0  0  0  0
   -1.8137    4.1760   -3.3811 H   0  0  0  0  0  0  0  0  0  0  0  0
    2.0102    5.5382   -3.0843 N   0  0  0  0  0  0  0  0  0  0  0  0
    3.1071    6.4077   -2.7281 C   0  0  0  0  0  0  0  0  0  0  0  0
    1.7162    5.5201   -4.0564 H   0  0  0  0  0  0  0  0  0  0  0  0
    2.7157    7.3971   -2.4491 H   0  0  0  0  0  0  0  0  0  0  0  0
    3.6549    5.9769   -1.8770 H   0  0  0  0  0  0  0  0  0  0  0  0
    3.7866    6.5112   -3.5869 H   0  0  0  0  0  0  0  0  0  0  0  0
 22 24  2  0  0  0  0
 24 26  1  0  0  0  0
 25 26  1  0  0  0  0
 23 25  2  0  0  0  0
 21 22  1  0  0  0  0
 22 23  1  0  0  0  0
  1  3  1  0  0  0  0
  1  7  1  0  0  0  0
  1  2  2  0  0  0  0
 36 37  1  0  0  0  0
 37 45  1  0  0  0  0
 37 38  2  0  0  0  0
  8  9  1  0  0  0  0
  9 17  1  0  0  0  0
  9 10  2  0  0  0  0
 18 19  1  0  0  0  0
 19 35  1  0  0  0  0
 19 20  2  0  0  0  0
 36 39  1  0  0  0  0
  8 11  1  0  0  0  0
 45 46  1  0  0  0  0
 18 21  1  0  0  0  0
 35 36  1  0  0  0  0
  7  8  1  0  0  0  0
 17 18  1  0  0  0  0
 24 32  1  0  0  0  0
 25 33  1  0  0  0  0
  3  4  1  0  0  0  0
  3  5  1  0  0  0  0
  3  6  1  0  0  0  0
 39 42  1  0  0  0  0
 39 43  1  0  0  0  0
 39 44  1  0  0  0  0
 11 14  1  0  0  0  0
 11 15  1  0  0  0  0
 11 16  1  0  0  0  0
 46 48  1  0  0  0  0
 46 49  1  0  0  0  0
 46 50  1  0  0  0  0
 21 29  1  0  0  0  0
 21 30  1  0  0  0  0
 36 41  1  0  0  0  0
  8 13  1  0  0  0  0
 18 28  1  0  0  0  0
 26 34  1  0  0  0  0
 23 31  1  0  0  0  0
 45 47  1  0  0  0  0
  7 12  1  0  0  0  0
 35 40  1  0  0  0  0
 17 27  1  0  0  0  0
M  CHG  1  23   1
M  END
$$$$

  -OEChem-05262214473D

 50 50  0     1  0  0  0  0  0999 V2000
   -1.6938    0.4865    3.8080 C   0  0  0  0  0  0  0  0  0  0  0  0
   -0.7464   -0.1282    3.3323 O   0  0  0  0  0  0  0  0  0  0  0  0
   -2.1257    0.2041    5.2087 C   0  0  0  0  0  0  0  0  0  0  0  0
   -2.8853   -0.5922    5.2621 H   0  0  0  0  0  0  0  0  0  0  0  0
   -1.2944   -0.1435    5.8430 H   0  0  0  0  0  0  0  0  0  0  0  0
   -2.5637    1.0590    5.7483 H   0  0  0  0  0  0  0  0  0  0  0  0
   -2.4435    1.4589    3.1669 N   0  0  0  0  0  0  0  0  0  0  0  0
   -2.1966    1.8850    1.8145 C   0  0  2  0  0  0  0  0  0  0  0  0
   -0.8617    1.2996    1.3733 C   0  0  0  0  0  0  0  0  0  0  0  0
    0.0104    0.9468    2.1646 O   0  0  0  0  0  0  0  0  0  0  0  0
   -2.1879    3.4017    1.7050 C   0  0  0  0  0  0  0  0  0  0  0  0
   -3.2085    1.8948    3.6787 H   0  0  0  0  0  0  0  0  0  0  0  0
   -3.0007    1.4665    1.1994 H   0  0  0  0  0  0  0  0  0  0  0  0
   -1.3888    3.8390    2.3147 H   0  0  0  0  0  0  0  0  0  0  0  0
   -2.0284    3.7240    0.6708 H   0  0  0  0  0  0  0  0  0  0  0  0
   -3.1380    3.8230    2.0508 H   0  0  0  0  0  0  0  0  0  0  0  0
   -0.7390    1.2565   -0.0101 N   0  0  0  0  0  0  0  0  0  0  0  0
    0.4383    0.7557   -0.6738 C   0  0  2  0  0  0  0  0  0  0  0  0
    0.9977    1.8939   -1.5198 C   0  0  0  0  0  0  0  0  0  0  0  0
    2.1167    1.8629   -2.0274 O   0  0  0  0  0  0  0  0  0  0  0  0
    0.1332   -0.4621   -1.5536 C   0  0  0  0  0  0  0  0  0  0  0  0
   -0.3460   -1.6516   -0.7579 C   0  0  0  0  0  0  0  0  0  0  0  0
    0.5131   -2.4142   -0.0040 N   0  3  0  0  0  0  0  0  0  0  0  0
   -1.5897   -2.1977   -0.6098 C   0  0  0  0  0  0  0  0  0  0  0  0
   -0.1692   -3.3982    0.5906 C   0  0  0  0  0  0  0  0  0  0  0  0
   -1.4506   -3.2770    0.2291 N   0  0  0  0  0  0  0  0  0  0  0  0
   -1.5221    1.5532   -0.5874 H   0  0  0  0  0  0  0  0  0  0  0  0
    1.1589    0.5065    0.1141 H   0  0  0  0  0  0  0  0  0  0  0  0
    1.0206   -0.7415   -2.1375 H   0  0  0  0  0  0  0  0  0  0  0  0
   -0.6350   -0.2145   -2.2981 H   0  0  0  0  0  0  0  0  0  0  0  0
    1.5132   -2.2593    0.0893 H   0  0  0  0  0  0  0  0  0  0  0  0
   -2.5725   -1.9829   -0.9798 H   0  0  0  0  0  0  0  0  0  0  0  0
    0.2397   -4.1524    1.2421 H   0  0  0  0  0  0  0  0  0  0  0  0
   -2.2031   -3.8902    0.5293 H   0  0  0  0  0  0  0  0  0  0  0  0
    0.0794    2.9223   -1.6796 N   0  0  0  0  0  0  0  0  0  0  0  0
    0.3469    4.1115   -2.4562 C   0  0  2  0  0  0  0  0  0  0  0  0
    1.6865    4.6772   -2.0036 C   0  0  0  0  0  0  0  0  0  0  0  0
    2.1795    4.4358   -0.9037 O   0  0  0  0  0  0  0  0  0  0  0  0
   -0.7610    5.1404   -2.2921 C   0  0  0  0  0  0  0  0  0  0  0  0
   -0.8263    2.8348   -1.2281 H   0  0  0  0  0  0  0  0  0  0  0  0
    0.4177    3.7964   -3.5029 H   0  0  0  0  0  0  0  0  0  0  0  0
   -0.8470    5.4680   -1.2496 H   0  0  0  0  0  0  0  0  0  0  0  0
   -0.5710    6.0289   -2.9032 H   0  0  0  0  0  0  0  0  0  0  0  0
   -1.7285    4.7221   -2.5899 H   0  0  0  0  0  0  0  0  0  0  0  0
    2.2464    5.5179   -2.9555 N   0  0  0  0  0  0  0  0  0  0  0  0
    3.5102    6.1881   -2.7569 C   0  0  0  0  0  0  0  0  0  0  0  0
    1.7771    5.6456   -3.8472 H   0  0  0  0  0  0  0  0  0  0  0  0
    3.3337    7.1848   -2.3261 H   0  0  0  0  0  0  0  0  0  0  0  0
    4.1345    5.5974   -2.0704 H   0  0  0  0  0  0  0  0  0  0  0  0
    4.0255    6.2925   -3.7232 H   0  0  0  0  0  0  0  0  0  0  0  0
 22 24  2  0  0  0  0
 24 26  1  0  0  0  0
 25 26  1  0  0  0  0
 23 25  2  0  0  0  0
 21 22  1  0  0  0  0
 22 23  1  0  0  0  0
  1  3  1  0  0  0  0
  1  7  1  0  0  0  0
  1  2  2  0  0  0  0
 36 37  1  0  0  0  0
 37 45  1  0  0  0  0
 37 38  2  0  0  0  0
  8  9  1  0  0  0  0
  9 17  1  0  0  0  0
  9 10  2  0  0  0  0
 18 19  1  0  0  0  0
 19 35  1  0  0  0  0
 19 20  2  0  0  0  0
 36 39  1  0  0  0  0
  8 11  1  0  0  0  0
 45 46  1  0  0  0  0
 18 21  1  0  0  0  0
 35 36  1  0  0  0  0
  7  8  1  0  0  0  0
 17 18  1  0  0  0  0
 24 32  1  0  0  0  0
 25 33  1  0  0  0  0
  3  4  1  0  0  0  0
  3  5  1  0  0  0  0
  3  6  1  0  0  0  0
 39 42  1  0  0  0  0
 39 43  1  0  0  0  0
 39 44  1  0  0  0  0
 11 14  1  0  0  0  0
 11 15  1  0  0  0  0
 11 16  1  0  0  0  0
 46 48  1  0  0  0  0
 46 49  1  0  0  0  0
 46 50  1  0  0  0  0
 21 29  1  0  0  0  0
 21 30  1  0  0  0  0
 36 41  1  0  0  0  0
  8 13  1  0  0  0  0
 18 28  1  0  0  0  0
 26 34  1  0  0  0  0
 23 31  1  0  0  0  0
 45 47  1  0  0  0  0
  7 12  1  0  0  0  0
 35 40  1  0  0  0  0
 17 27  1  0  0  0  0
M  CHG  1  23   1
M  END
$$$$

  -OEChem-05262214473D

 50 50  0     1  0  0  0  0  0999 V2000
   -1.6938    0.4865    3.8080 C   0  0  0  0  0  0  0  0  0  0  0  0
   -0.7464   -0.1282    3.3323 O   0  0  0  0  0  0  0  0  0  0  0  0
   -2.1257    0.2041    5.2087 C   0  0  0  0  0  0  0  0  0  0  0  0
   -2.8853   -0.5922    5.2621 H   0  0  0  0  0  0  0  0  0  0  0  0
   -1.2944   -0.1435    5.8430 H   0  0  0  0  0  0  0  0  0  0  0  0
   -2.5637    1.0590    5.7483 H   0  0  0  0  0  0  0  0  0  0  0  0
   -2.4435    1.4589    3.1669 N   0  0  0  0  0  0  0  0  0  0  0  0
   -2.1966    1.8850    1.8145 C   0  0  2  0  0  0  0  0  0  0  0  0
   -0.8617    1.2996    1.3733 C   0  0  0  0  0  0  0  0  0  0  0  0
    0.0104    0.9468    2.1646 O   0  0  0  0  0  0  0  0  0  0  0  0
   -2.1879    3.4017    1.7050 C   0  0  0  0  0  0  0  0  0  0  0  0
   -3.2085    1.8948    3.6787 H   0  0  0  0  0  0  0  0  0  0  0  0
   -3.0007    1.4665    1.1994 H   0  0  0  0  0  0  0  0  0  0  0  0
   -1.3888    3.8390    2.3147 H   0  0  0  0  0  0  0  0  0  0  0  0
   -2.0284    3.7240    0.6708 H   0  0  0  0  0  0  0  0  0  0  0  0
   -3.1380    3.8230    2.0508 H   0  0  0  0  0  0  0  0  0  0  0  0
   -0.7390    1.2565   -0.0101 N   0  0  0  0  0  0  0  0  0  0  0  0
    0.4383    0.7557   -0.6738 C   0  0  2  0  0  0  0  0  0  0  0  0
    0.9977    1.8939   -1.5198 C   0  0  0  0  0  0  0  0  0  0  0  0
    1.9844    1.7685   -2.2419 O   0  0  0  0  0  0  0  0  0  0  0  0
    0.1332   -0.4621   -1.5536 C   0  0  0  0  0  0  0  0  0  0  0  0
   -0.3460   -1.6516   -0.7579 C   0  0  0  0  0  0  0  0  0  0  0  0
    0.5131   -2.4142   -0.0040 N   0  3  0  0  0  0  0  0  0  0  0  0
   -1.5897   -2.1977   -0.6098 C   0  0  0  0  0  0  0  0  0  0  0  0
   -0.1692   -3.3982    0.5906 C   0  0  0  0  0  0  0  0  0  0  0  0
   -1.4506   -3.2770    0.2291 N   0  0  0  0  0  0  0  0  0  0  0  0
   -1.5221    1.5532   -0.5874 H   0  0  0  0  0  0  0  0  0  0  0  0
    1.1589    0.5065    0.1141 H   0  0  0  0  0  0  0  0  0  0  0  0
    1.0206   -0.7415   -2.1375 H   0  0  0  0  0  0  0  0  0  0  0  0
   -0.6350   -0.2145   -2.2981 H   0  0  0  0  0  0  0  0  0  0  0  0
    1.5132   -2.2593    0.0893 H   0  0  0  0  0  0  0  0  0  0  0  0
   -2.5725   -1.9829   -0.9798 H   0  0  0  0  0  0  0  0  0  0  0  0
    0.2397   -4.1524    1.2421 H   0  0  0  0  0  0  0  0  0  0  0  0
   -2.2031   -3.8902    0.5293 H   0  0  0  0  0  0  0  0  0  0  0  0
    0.2340    3.0476   -1.4089 N   0  0  0  0  0  0  0  0  0  0  0  0
    0.5308    4.2676   -2.1245 C   0  0  2  0  0  0  0  0  0  0  0  0
    2.0018    4.5955   -1.9051 C   0  0  0  0  0  0  0  0  0  0  0  0
    2.6482    4.1716   -0.9493 O   0  0  0  0  0  0  0  0  0  0  0  0
   -0.3564    5.4118   -1.6594 C   0  0  0  0  0  0  0  0  0  0  0  0
   -0.5743    3.0337   -0.7938 H   0  0  0  0  0  0  0  0  0  0  0  0
    0.3563    4.0620   -3.1863 H   0  0  0  0  0  0  0  0  0  0  0  0
   -0.1956    5.6324   -0.5978 H   0  0  0  0  0  0  0  0  0  0  0  0
   -0.1499    6.3281   -2.2223 H   0  0  0  0  0  0  0  0  0  0  0  0
   -1.4149    5.1623   -1.7903 H   0  0  0  0  0  0  0  0  0  0  0  0
    2.4964    5.4522   -2.8786 N   0  0  0  0  0  0  0  0  0  0  0  0
    3.8625    5.9209   -2.8836 C   0  0  0  0  0  0  0  0  0  0  0  0
    1.8944    5.7383   -3.6451 H   0  0  0  0  0  0  0  0  0  0  0  0
    3.9239    6.8792   -2.3470 H   0  0  0  0  0  0  0  0  0  0  0  0
    4.5059    5.1804   -2.3859 H   0  0  0  0  0  0  0  0  0  0  0  0
    4.1986    6.0599   -3.9217 H   0  0  0  0  0  0  0  0  0  0  0  0
 22 24  2  0  0  0  0
 24 26  1  0  0  0  0
 25 26  1  0  0  0  0
 23 25  2  0  0  0  0
 21 22  1  0  0  0  0
 22 23  1  0  0  0  0
  1  3  1  0  0  0  0
  1  7  1  0  0  0  0
  1  2  2  0  0  0  0
 36 37  1  0  0  0  0
 37 45  1  0  0  0  0
 37 38  2  0  0  0  0
  8  9  1  0  0  0  0
  9 17  1  0  0  0  0
  9 10  2  0  0  0  0
 18 19  1  0  0  0  0
 19 35  1  0  0  0  0
 19 20  2  0  0  0  0
 36 39  1  0  0  0  0
  8 11  1  0  0  0  0
 45 46  1  0  0  0  0
 18 21  1  0  0  0  0
 35 36  1  0  0  0  0
  7  8  1  0  0  0  0
 17 18  1  0  0  0  0
 24 32  1  0  0  0  0
 25 33  1  0  0  0  0
  3  4  1  0  0  0  0
  3  5  1  0  0  0  0
  3  6  1  0  0  0  0
 39 42  1  0  0  0  0
 39 43  1  0  0  0  0
 39 44  1  0  0  0  0
 11 14  1  0  0  0  0
 11 15  1  0  0  0  0
 11 16  1  0  0  0  0
 46 48  1  0  0  0  0
 46 49  1  0  0  0  0
 46 50  1  0  0  0  0
 21 29  1  0  0  0  0
 21 30  1  0  0  0  0
 36 41  1  0  0  0  0
  8 13  1  0  0  0  0
 18 28  1  0  0  0  0
 26 34  1  0  0  0  0
 23 31  1  0  0  0  0
 45 47  1  0  0  0  0
  7 12  1  0  0  0  0
 35 40  1  0  0  0  0
 17 27  1  0  0  0  0
M  CHG  1  23   1
M  END
$$$$

  -OEChem-05262214473D

 50 50  0     1  0  0  0  0  0999 V2000
   -1.6938    0.4865    3.8080 C   0  0  0  0  0  0  0  0  0  0  0  0
   -0.7464   -0.1282    3.3323 O   0  0  0  0  0  0  0  0  0  0  0  0
   -2.1257    0.2041    5.2087 C   0  0  0  0  0  0  0  0  0  0  0  0
   -2.8853   -0.5922    5.2621 H   0  0  0  0  0  0  0  0  0  0  0  0
   -1.2944   -0.1435    5.8430 H   0  0  0  0  0  0  0  0  0  0  0  0
   -2.5637    1.0590    5.7483 H   0  0  0  0  0  0  0  0  0  0  0  0
   -2.4435    1.4589    3.1669 N   0  0  0  0  0  0  0  0  0  0  0  0
   -2.1966    1.8850    1.8145 C   0  0  2  0  0  0  0  0  0  0  0  0
   -0.8617    1.2996    1.3733 C   0  0  0  0  0  0  0  0  0  0  0  0
    0.0104    0.9468    2.1646 O   0  0  0  0  0  0  0  0  0  0  0  0
   -2.1879    3.4017    1.7050 C   0  0  0  0  0  0  0  0  0  0  0  0
   -3.2085    1.8948    3.6787 H   0  0  0  0  0  0  0  0  0  0  0  0
   -3.0007    1.4665    1.1994 H   0  0  0  0  0  0  0  0  0  0  0  0
   -1.3888    3.8390    2.3147 H   0  0  0  0  0  0  0  0  0  0  0  0
   -2.0284    3.7240    0.6708 H   0  0  0  0  0  0  0  0  0  0  0  0
   -3.1380    3.8230    2.0508 H   0  0  0  0  0  0  0  0  0  0  0  0
   -0.7390    1.2565   -0.0101 N   0  0  0  0  0  0  0  0  0  0  0  0
    0.4383    0.7557   -0.6738 C   0  0  2  0  0  0  0  0  0  0  0  0
    0.9977    1.8939   -1.5198 C   0  0  0  0  0  0  0  0  0  0  0  0
    1.8016    1.7166   -2.4325 O   0  0  0  0  0  0  0  0  0  0  0  0
    0.1332   -0.4621   -1.5536 C   0  0  0  0  0  0  0  0  0  0  0  0
   -0.3460   -1.6516   -0.7579 C   0  0  0  0  0  0  0  0  0  0  0  0
    0.5131   -2.4142   -0.0040 N   0  3  0  0  0  0  0  0  0  0  0  0
   -1.5897   -2.1977   -0.6098 C   0  0  0  0  0  0  0  0  0  0  0  0
   -0.1692   -3.3982    0.5906 C   0  0  0  0  0  0  0  0  0  0  0  0
   -1.4506   -3.2770    0.2291 N   0  0  0  0  0  0  0  0  0  0  0  0
   -1.5221    1.5532   -0.5874 H   0  0  0  0  0  0  0  0  0  0  0  0
    1.1589    0.5065    0.1141 H   0  0  0  0  0  0  0  0  0  0  0  0
    1.0206   -0.7415   -2.1375 H   0  0  0  0  0  0  0  0  0  0  0  0
   -0.6350   -0.2145   -2.2981 H   0  0  0  0  0  0  0  0  0  0  0  0
    1.5132   -2.2593    0.0893 H   0  0  0  0  0  0  0  0  0  0  0  0
   -2.5725   -1.9829   -0.9798 H   0  0  0  0  0  0  0  0  0  0  0  0
    0.2397   -4.1524    1.2421 H   0  0  0  0  0  0  0  0  0  0  0  0
   -2.2031   -3.8902    0.5293 H   0  0  0  0  0  0  0  0  0  0  0  0
    0.4536    3.1207   -1.1654 N   0  0  0  0  0  0  0  0  0  0  0  0
    0.7950    4.3605   -1.8249 C   0  0  2  0  0  0  0  0  0  0  0  0
    2.3137    4.4620   -1.8786 C   0  0  0  0  0  0  0  0  0  0  0  0
    3.0542    3.8534   -1.1091 O   0  0  0  0  0  0  0  0  0  0  0  0
    0.1956    5.5558   -1.1006 C   0  0  0  0  0  0  0  0  0  0  0  0
   -0.2183    3.1484   -0.4041 H   0  0  0  0  0  0  0  0  0  0  0  0
    0.3964    4.2972   -2.8433 H   0  0  0  0  0  0  0  0  0  0  0  0
    0.5832    5.6357   -0.0784 H   0  0  0  0  0  0  0  0  0  0  0  0
    0.4313    6.4920   -1.6175 H   0  0  0  0  0  0  0  0  0  0  0  0
   -0.8942    5.4665   -1.0368 H   0  0  0  0  0  0  0  0  0  0  0  0
    2.7433    5.3455   -2.8589 N   0  0  0  0  0  0  0  0  0  0  0  0
    4.1399    5.6242   -3.0993 C   0  0  0  0  0  0  0  0  0  0  0  0
    2.0601    5.7917   -3.4637 H   0  0  0  0  0  0  0  0  0  0  0  0
    4.4460    6.5013   -2.5102 H   0  0  0  0  0  0  0  0  0  0  0  0
    4.7438    4.7541   -2.8021 H   0  0  0  0  0  0  0  0  0  0  0  0
    4.2939    5.8292   -4.1690 H   0  0  0  0  0  0  0  0  0  0  0  0
 22 24  2  0  0  0  0
 24 26  1  0  0  0  0
 25 26  1  0  0  0  0
 23 25  2  0  0  0  0
 21 22  1  0  0  0  0
 22 23  1  0  0  0  0
  1  3  1  0  0  0  0
  1  7  1  0  0  0  0
  1  2  2  0  0  0  0
 36 37  1  0  0  0  0
 37 45  1  0  0  0  0
 37 38  2  0  0  0  0
  8  9  1  0  0  0  0
  9 17  1  0  0  0  0
  9 10  2  0  0  0  0
 18 19  1  0  0  0  0
 19 35  1  0  0  0  0
 19 20  2  0  0  0  0
 36 39  1  0  0  0  0
  8 11  1  0  0  0  0
 45 46  1  0  0  0  0
 18 21  1  0  0  0  0
 35 36  1  0  0  0  0
  7  8  1  0  0  0  0
 17 18  1  0  0  0  0
 24 32  1  0  0  0  0
 25 33  1  0  0  0  0
  3  4  1  0  0  0  0
  3  5  1  0  0  0  0
  3  6  1  0  0  0  0
 39 42  1  0  0  0  0
 39 43  1  0  0  0  0
 39 44  1  0  0  0  0
 11 14  1  0  0  0  0
 11 15  1  0  0  0  0
 11 16  1  0  0  0  0
 46 48  1  0  0  0  0
 46 49  1  0  0  0  0
 46 50  1  0  0  0  0
 21 29  1  0  0  0  0
 21 30  1  0  0  0  0
 36 41  1  0  0  0  0
  8 13  1  0  0  0  0
 18 28  1  0  0  0  0
 26 34  1  0  0  0  0
 23 31  1  0  0  0  0
 45 47  1  0  0  0  0
  7 12  1  0  0  0  0
 35 40  1  0  0  0  0
 17 27  1  0  0  0  0
M  CHG  1  23   1
M  END
$$$$

  -OEChem-05262214473D

 50 50  0     1  0  0  0  0  0999 V2000
   -1.6938    0.4865    3.8080 C   0  0  0  0  0  0  0  0  0  0  0  0
   -0.7464   -0.1282    3.3323 O   0  0  0  0  0  0  0  0  0  0  0  0
   -2.1257    0.2041    5.2087 C   0  0  0  0  0  0  0  0  0  0  0  0
   -2.8853   -0.5922    5.2621 H   0  0  0  0  0  0  0  0  0  0  0  0
   -1.2944   -0.1435    5.8430 H   0  0  0  0  0  0  0  0  0  0  0  0
   -2.5637    1.0590    5.7483 H   0  0  0  0  0  0  0  0  0  0  0  0
   -2.4435    1.4589    3.1669 N   0  0  0  0  0  0  0  0  0  0  0  0
   -2.1966    1.8850    1.8145 C   0  0  2  0  0  0  0  0  0  0  0  0
   -0.8617    1.2996    1.3733 C   0  0  0  0  0  0  0  0  0  0  0  0
    0.0104    0.9468    2.1646 O   0  0  0  0  0  0  0  0  0  0  0  0
   -2.1879    3.4017    1.7050 C   0  0  0  0  0  0  0  0  0  0  0  0
   -3.2085    1.8948    3.6787 H   0  0  0  0  0  0  0  0  0  0  0  0
   -3.0007    1.4665    1.1994 H   0  0  0  0  0  0  0  0  0  0  0  0
   -1.3888    3.8390    2.3147 H   0  0  0  0  0  0  0  0  0  0  0  0
   -2.0284    3.7240    0.6708 H   0  0  0  0  0  0  0  0  0  0  0  0
   -3.1380    3.8230    2.0508 H   0  0  0  0  0  0  0  0  0  0  0  0
   -0.7390    1.2565   -0.0101 N   0  0  0  0  0  0  0  0  0  0  0  0
    0.4383    0.7557   -0.6738 C   0  0  2  0  0  0  0  0  0  0  0  0
    0.9977    1.8939   -1.5198 C   0  0  0  0  0  0  0  0  0  0  0  0
    1.5807    1.7109   -2.5863 O   0  0  0  0  0  0  0  0  0  0  0  0
    0.1332   -0.4621   -1.5536 C   0  0  0  0  0  0  0  0  0  0  0  0
   -0.3460   -1.6516   -0.7579 C   0  0  0  0  0  0  0  0  0  0  0  0
    0.5131   -2.4142   -0.0040 N   0  3  0  0  0  0  0  0  0  0  0  0
   -1.5897   -2.1977   -0.6098 C   0  0  0  0  0  0  0  0  0  0  0  0
   -0.1692   -3.3982    0.5906 C   0  0  0  0  0  0  0  0  0  0  0  0
   -1.4506   -3.2770    0.2291 N   0  0  0  0  0  0  0  0  0  0  0  0
   -1.5221    1.5532   -0.5874 H   0  0  0  0  0  0  0  0  0  0  0  0
    1.1589    0.5065    0.1141 H   0  0  0  0  0  0  0  0  0  0  0  0
    1.0206   -0.7415   -2.1375 H   0  0  0  0  0  0  0  0  0  0  0  0
   -0.6350   -0.2145   -2.2981 H   0  0  0  0  0  0  0  0  0  0  0  0
    1.5132   -2.2593    0.0893 H   0  0  0  0  0  0  0  0  0  0  0  0
   -2.5725   -1.9829   -0.9798 H   0  0  0  0  0  0  0  0  0  0  0  0
    0.2397   -4.1524    1.2421 H   0  0  0  0  0  0  0  0  0  0  0  0
   -2.2031   -3.8902    0.5293 H   0  0  0  0  0  0  0  0  0  0  0  0
    0.7233    3.1366   -0.9656 N   0  0  0  0  0  0  0  0  0  0  0  0
    1.1214    4.3838   -1.5777 C   0  0  2  0  0  0  0  0  0  0  0  0
    2.6008    4.2857   -1.9260 C   0  0  0  0  0  0  0  0  0  0  0  0
    3.3698    3.5028   -1.3720 O   0  0  0  0  0  0  0  0  0  0  0  0
    0.8575    5.5626   -0.6539 C   0  0  0  0  0  0  0  0  0  0  0  0
    0.2173    3.1711   -0.0856 H   0  0  0  0  0  0  0  0  0  0  0  0
    0.5352    4.4860   -2.4975 H   0  0  0  0  0  0  0  0  0  0  0  0
    1.4363    5.4777    0.2730 H   0  0  0  0  0  0  0  0  0  0  0  0
    1.1331    6.5094   -1.1301 H   0  0  0  0  0  0  0  0  0  0  0  0
   -0.2020    5.6140   -0.3806 H   0  0  0  0  0  0  0  0  0  0  0  0
    2.9704    5.2051   -2.8977 N   0  0  0  0  0  0  0  0  0  0  0  0
    4.3236    5.3183   -3.3895 C   0  0  0  0  0  0  0  0  0  0  0  0
    2.2628    5.8023   -3.3154 H   0  0  0  0  0  0  0  0  0  0  0  0
    4.8646    6.0767   -2.8046 H   0  0  0  0  0  0  0  0  0  0  0  0
    4.8320    4.3478   -3.2905 H   0  0  0  0  0  0  0  0  0  0  0  0
    4.3052    5.6162   -4.4482 H   0  0  0  0  0  0  0  0  0  0  0  0
 22 24  2  0  0  0  0
 24 26  1  0  0  0  0
 25 26  1  0  0  0  0
 23 25  2  0  0  0  0
 21 22  1  0  0  0  0
 22 23  1  0  0  0  0
  1  3  1  0  0  0  0
  1  7  1  0  0  0  0
  1  2  2  0  0  0  0
 36 37  1  0  0  0  0
 37 45  1  0  0  0  0
 37 38  2  0  0  0  0
  8  9  1  0  0  0  0
  9 17  1  0  0  0  0
  9 10  2  0  0  0  0
 18 19  1  0  0  0  0
 19 35  1  0  0  0  0
 19 20  2  0  0  0  0
 36 39  1  0  0  0  0
  8 11  1  0  0  0  0
 45 46  1  0  0  0  0
 18 21  1  0  0  0  0
 35 36  1  0  0  0  0
  7  8  1  0  0  0  0
 17 18  1  0  0  0  0
 24 32  1  0  0  0  0
 25 33  1  0  0  0  0
  3  4  1  0  0  0  0
  3  5  1  0  0  0  0
  3  6  1  0  0  0  0
 39 42  1  0  0  0  0
 39 43  1  0  0  0  0
 39 44  1  0  0  0  0
 11 14  1  0  0  0  0
 11 15  1  0  0  0  0
 11 16  1  0  0  0  0
 46 48  1  0  0  0  0
 46 49  1  0  0  0  0
 46 50  1  0  0  0  0
 21 29  1  0  0  0  0
 21 30  1  0  0  0  0
 36 41  1  0  0  0  0
  8 13  1  0  0  0  0
 18 28  1  0  0  0  0
 26 34  1  0  0  0  0
 23 31  1  0  0  0  0
 45 47  1  0  0  0  0
  7 12  1  0  0  0  0
 35 40  1  0  0  0  0
 17 27  1  0  0  0  0
M  CHG  1  23   1
M  END
$$$$

  -OEChem-05262214473D

 50 50  0     1  0  0  0  0  0999 V2000
   -1.6938    0.4865    3.8080 C   0  0  0  0  0  0  0  0  0  0  0  0
   -0.7464   -0.1282    3.3323 O   0  0  0  0  0  0  0  0  0  0  0  0
   -2.1257    0.2041    5.2087 C   0  0  0  0  0  0  0  0  0  0  0  0
   -2.8853   -0.5922    5.2621 H   0  0  0  0  0  0  0  0  0  0  0  0
   -1.2944   -0.1435    5.8430 H   0  0  0  0  0  0  0  0  0  0  0  0
   -2.5637    1.0590    5.7483 H   0  0  0  0  0  0  0  0  0  0  0  0
   -2.4435    1.4589    3.1669 N   0  0  0  0  0  0  0  0  0  0  0  0
   -2.1966    1.8850    1.8145 C   0  0  2  0  0  0  0  0  0  0  0  0
   -0.8617    1.2996    1.3733 C   0  0  0  0  0  0  0  0  0  0  0  0
    0.0104    0.9468    2.1646 O   0  0  0  0  0  0  0  0  0  0  0  0
   -2.1879    3.4017    1.7050 C   0  0  0  0  0  0  0  0  0  0  0  0
   -3.2085    1.8948    3.6787 H   0  0  0  0  0  0  0  0  0  0  0  0
   -3.0007    1.4665    1.1994 H   0  0  0  0  0  0  0  0  0  0  0  0
   -1.3888    3.8390    2.3147 H   0  0  0  0  0  0  0  0  0  0  0  0
   -2.0284    3.7240    0.6708 H   0  0  0  0  0  0  0  0  0  0  0  0
   -3.1380    3.8230    2.0508 H   0  0  0  0  0  0  0  0  0  0  0  0
   -0.7390    1.2565   -0.0101 N   0  0  0  0  0  0  0  0  0  0  0  0
    0.4383    0.7557   -0.6738 C   0  0  2  0  0  0  0  0  0  0  0  0
    0.9977    1.8939   -1.5198 C   0  0  0  0  0  0  0  0  0  0  0  0
    1.3369    1.7517   -2.6926 O   0  0  0  0  0  0  0  0  0  0  0  0
    0.1332   -0.4621   -1.5536 C   0  0  0  0  0  0  0  0  0  0  0  0
   -0.3460   -1.6516   -0.7579 C   0  0  0  0  0  0  0  0  0  0  0  0
    0.5131   -2.4142   -0.0040 N   0  3  0  0  0  0  0  0  0  0  0  0
   -1.5897   -2.1977   -0.6098 C   0  0  0  0  0  0  0  0  0  0  0  0
   -0.1692   -3.3982    0.5906 C   0  0  0  0  0  0  0  0  0  0  0  0
   -1.4506   -3.2770    0.2291 N   0  0  0  0  0  0  0  0  0  0  0  0
   -1.5221    1.5532   -0.5874 H   0  0  0  0  0  0  0  0  0  0  0  0
    1.1589    0.5065    0.1141 H   0  0  0  0  0  0  0  0  0  0  0  0
    1.0206   -0.7415   -2.1375 H   0  0  0  0  0  0  0  0  0  0  0  0
   -0.6350   -0.2145   -2.2981 H   0  0  0  0  0  0  0  0  0  0  0  0
    1.5132   -2.2593    0.0893 H   0  0  0  0  0  0  0  0  0  0  0  0
   -2.5725   -1.9829   -0.9798 H   0  0  0  0  0  0  0  0  0  0  0  0
    0.2397   -4.1524    1.2421 H   0  0  0  0  0  0  0  0  0  0  0  0
   -2.2031   -3.8902    0.5293 H   0  0  0  0  0  0  0  0  0  0  0  0
    1.0247    3.0942   -0.8233 N   0  0  0  0  0  0  0  0  0  0  0  0
    1.4878    4.3360   -1.3999 C   0  0  2  0  0  0  0  0  0  0  0  0
    2.8437    4.0786   -2.0439 C   0  0  0  0  0  0  0  0  0  0  0  0
    3.5735    3.1439   -1.7203 O   0  0  0  0  0  0  0  0  0  0  0  0
    1.5841    5.4316   -0.3497 C   0  0  0  0  0  0  0  0  0  0  0  0
    0.7028    3.1002    0.1401 H   0  0  0  0  0  0  0  0  0  0  0  0
    0.7632    4.6157   -2.1723 H   0  0  0  0  0  0  0  0  0  0  0  0
    2.3056    5.1692    0.4327 H   0  0  0  0  0  0  0  0  0  0  0  0
    1.9077    6.3791   -0.7933 H   0  0  0  0  0  0  0  0  0  0  0  0
    0.6147    5.5948    0.1334 H   0  0  0  0  0  0  0  0  0  0  0  0
    3.1620    5.0405   -2.9924 N   0  0  0  0  0  0  0  0  0  0  0  0
    4.4010    5.0239   -3.7343 C   0  0  0  0  0  0  0  0  0  0  0  0
    2.4888    5.7693   -3.2103 H   0  0  0  0  0  0  0  0  0  0  0  0
    5.1510    5.6345   -3.2102 H   0  0  0  0  0  0  0  0  0  0  0  0
    4.7644    3.9890   -3.8179 H   0  0  0  0  0  0  0  0  0  0  0  0
    4.2314    5.4353   -4.7403 H   0  0  0  0  0  0  0  0  0  0  0  0
 22 24  2  0  0  0  0
 24 26  1  0  0  0  0
 25 26  1  0  0  0  0
 23 25  2  0  0  0  0
 21 22  1  0  0  0  0
 22 23  1  0  0  0  0
  1  3  1  0  0  0  0
  1  7  1  0  0  0  0
  1  2  2  0  0  0  0
 36 37  1  0  0  0  0
 37 45  1  0  0  0  0
 37 38  2  0  0  0  0
  8  9  1  0  0  0  0
  9 17  1  0  0  0  0
  9 10  2  0  0  0  0
 18 19  1  0  0  0  0
 19 35  1  0  0  0  0
 19 20  2  0  0  0  0
 36 39  1  0  0  0  0
  8 11  1  0  0  0  0
 45 46  1  0  0  0  0
 18 21  1  0  0  0  0
 35 36  1  0  0  0  0
  7  8  1  0  0  0  0
 17 18  1  0  0  0  0
 24 32  1  0  0  0  0
 25 33  1  0  0  0  0
  3  4  1  0  0  0  0
  3  5  1  0  0  0  0
  3  6  1  0  0  0  0
 39 42  1  0  0  0  0
 39 43  1  0  0  0  0
 39 44  1  0  0  0  0
 11 14  1  0  0  0  0
 11 15  1  0  0  0  0
 11 16  1  0  0  0  0
 46 48  1  0  0  0  0
 46 49  1  0  0  0  0
 46 50  1  0  0  0  0
 21 29  1  0  0  0  0
 21 30  1  0  0  0  0
 36 41  1  0  0  0  0
  8 13  1  0  0  0  0
 18 28  1  0  0  0  0
 26 34  1  0  0  0  0
 23 31  1  0  0  0  0
 45 47  1  0  0  0  0
  7 12  1  0  0  0  0
 35 40  1  0  0  0  0
 17 27  1  0  0  0  0
M  CHG  1  23   1
M  END
$$$$

  -OEChem-05262214473D

 50 50  0     1  0  0  0  0  0999 V2000
   -1.6938    0.4865    3.8080 C   0  0  0  0  0  0  0  0  0  0  0  0
   -0.7464   -0.1282    3.3323 O   0  0  0  0  0  0  0  0  0  0  0  0
   -2.1257    0.2041    5.2087 C   0  0  0  0  0  0  0  0  0  0  0  0
   -2.8853   -0.5922    5.2621 H   0  0  0  0  0  0  0  0  0  0  0  0
   -1.2944   -0.1435    5.8430 H   0  0  0  0  0  0  0  0  0  0  0  0
   -2.5637    1.0590    5.7483 H   0  0  0  0  0  0  0  0  0  0  0  0
   -2.4435    1.4589    3.1669 N   0  0  0  0  0  0  0  0  0  0  0  0
   -2.1966    1.8850    1.8145 C   0  0  2  0  0  0  0  0  0  0  0  0
   -0.8617    1.2996    1.3733 C   0  0  0  0  0  0  0  0  0  0  0  0
    0.0104    0.9468    2.1646 O   0  0  0  0  0  0  0  0  0  0  0  0
   -2.1879    3.4017    1.7050 C   0  0  0  0  0  0  0  0  0  0  0  0
   -3.2085    1.8948    3.6787 H   0  0  0  0  0  0  0  0  0  0  0  0
   -3.0007    1.4665    1.1994 H   0  0  0  0  0  0  0  0  0  0  0  0
   -1.3888    3.8390    2.3147 H   0  0  0  0  0  0  0  0  0  0  0  0
   -2.0284    3.7240    0.6708 H   0  0  0  0  0  0  0  0  0  0  0  0
   -3.1380    3.8230    2.0508 H   0  0  0  0  0  0  0  0  0  0  0  0
   -0.7390    1.2565   -0.0101 N   0  0  0  0  0  0  0  0  0  0  0  0
    0.4383    0.7557   -0.6738 C   0  0  2  0  0  0  0  0  0  0  0  0
    0.9977    1.8939   -1.5198 C   0  0  0  0  0  0  0  0  0  0  0  0
    1.0866    1.8362   -2.7444 O   0  0  0  0  0  0  0  0  0  0  0  0
    0.1332   -0.4621   -1.5536 C   0  0  0  0  0  0  0  0  0  0  0  0
   -0.3460   -1.6516   -0.7579 C   0  0  0  0  0  0  0  0  0  0  0  0
    0.5131   -2.4142   -0.0040 N   0  3  0  0  0  0  0  0  0  0  0  0
   -1.5897   -2.1977   -0.6098 C   0  0  0  0  0  0  0  0  0  0  0  0
   -0.1692   -3.3982    0.5906 C   0  0  0  0  0  0  0  0  0  0  0  0
   -1.4506   -3.2770    0.2291 N   0  0  0  0  0  0  0  0  0  0  0  0
   -1.5221    1.5532   -0.5874 H   0  0  0  0  0  0  0  0  0  0  0  0
    1.1589    0.5065    0.1141 H   0  0  0  0  0  0  0  0  0  0  0  0
    1.0206   -0.7415   -2.1375 H   0  0  0  0  0  0  0  0  0  0  0  0
   -0.6350   -0.2145   -2.2981 H   0  0  0  0  0  0  0  0  0  0  0  0
    1.5132   -2.2593    0.0893 H   0  0  0  0  0  0  0  0  0  0  0  0
   -2.5725   -1.9829   -0.9798 H   0  0  0  0  0  0  0  0  0  0  0  0
    0.2397   -4.1524    1.2421 H   0  0  0  0  0  0  0  0  0  0  0  0
   -2.2031   -3.8902    0.5293 H   0  0  0  0  0  0  0  0  0  0  0  0
    1.3373    2.9965   -0.7481 N   0  0  0  0  0  0  0  0  0  0  0  0
    1.8693    4.2202   -1.3034 C   0  0  2  0  0  0  0  0  0  0  0  0
    3.0258    3.8549   -2.2245 C   0  0  0  0  0  0  0  0  0  0  0  0
    3.6514    2.8010   -2.1301 O   0  0  0  0  0  0  0  0  0  0  0  0
    2.3260    5.1719   -0.2087 C   0  0  0  0  0  0  0  0  0  0  0  0
    1.2053    2.9405    0.2574 H   0  0  0  0  0  0  0  0  0  0  0  0
    1.0649    4.6773   -1.8899 H   0  0  0  0  0  0  0  0  0  0  0  0
    3.1317    4.7312    0.3896 H   0  0  0  0  0  0  0  0  0  0  0  0
    2.7023    6.1100   -0.6300 H   0  0  0  0  0  0  0  0  0  0  0  0
    1.5000    5.4101    0.4703 H   0  0  0  0  0  0  0  0  0  0  0  0
    3.3051    4.8630   -3.1365 N   0  0  0  0  0  0  0  0  0  0  0  0
    4.3669    4.7612   -4.1103 C   0  0  0  0  0  0  0  0  0  0  0  0
    2.7227    5.6950   -3.1556 H   0  0  0  0  0  0  0  0  0  0  0  0
    5.2858    5.2047   -3.6994 H   0  0  0  0  0  0  0  0  0  0  0  0
    4.5456    3.7023   -4.3483 H   0  0  0  0  0  0  0  0  0  0  0  0
    4.0778    5.2989   -5.0254 H   0  0  0  0  0  0  0  0  0  0  0  0
 22 24  2  0  0  0  0
 24 26  1  0  0  0  0
 25 26  1  0  0  0  0
 23 25  2  0  0  0  0
 21 22  1  0  0  0  0
 22 23  1  0  0  0  0
  1  3  1  0  0  0  0
  1  7  1  0  0  0  0
  1  2  2  0  0  0  0
 36 37  1  0  0  0  0
 37 45  1  0  0  0  0
 37 38  2  0  0  0  0
  8  9  1  0  0  0  0
  9 17  1  0  0  0  0
  9 10  2  0  0  0  0
 18 19  1  0  0  0  0
 19 35  1  0  0  0  0
 19 20  2  0  0  0  0
 36 39  1  0  0  0  0
  8 11  1  0  0  0  0
 45 46  1  0  0  0  0
 18 21  1  0  0  0  0
 35 36  1  0  0  0  0
  7  8  1  0  0  0  0
 17 18  1  0  0  0  0
 24 32  1  0  0  0  0
 25 33  1  0  0  0  0
  3  4  1  0  0  0  0
  3  5  1  0  0  0  0
  3  6  1  0  0  0  0
 39 42  1  0  0  0  0
 39 43  1  0  0  0  0
 39 44  1  0  0  0  0
 11 14  1  0  0  0  0
 11 15  1  0  0  0  0
 11 16  1  0  0  0  0
 46 48  1  0  0  0  0
 46 49  1  0  0  0  0
 46 50  1  0  0  0  0
 21 29  1  0  0  0  0
 21 30  1  0  0  0  0
 36 41  1  0  0  0  0
  8 13  1  0  0  0  0
 18 28  1  0  0  0  0
 26 34  1  0  0  0  0
 23 31  1  0  0  0  0
 45 47  1  0  0  0  0
  7 12  1  0  0  0  0
 35 40  1  0  0  0  0
 17 27  1  0  0  0  0
M  CHG  1  23   1
M  END
$$$$

  -OEChem-05262214473D

 50 50  0     1  0  0  0  0  0999 V2000
   -1.6938    0.4865    3.8080 C   0  0  0  0  0  0  0  0  0  0  0  0
   -0.7464   -0.1282    3.3323 O   0  0  0  0  0  0  0  0  0  0  0  0
   -2.1257    0.2041    5.2087 C   0  0  0  0  0  0  0  0  0  0  0  0
   -2.8853   -0.5922    5.2621 H   0  0  0  0  0  0  0  0  0  0  0  0
   -1.2944   -0.1435    5.8430 H   0  0  0  0  0  0  0  0  0  0  0  0
   -2.5637    1.0590    5.7483 H   0  0  0  0  0  0  0  0  0  0  0  0
   -2.4435    1.4589    3.1669 N   0  0  0  0  0  0  0  0  0  0  0  0
   -2.1966    1.8850    1.8145 C   0  0  2  0  0  0  0  0  0  0  0  0
   -0.8617    1.2996    1.3733 C   0  0  0  0  0  0  0  0  0  0  0  0
    0.0104    0.9468    2.1646 O   0  0  0  0  0  0  0  0  0  0  0  0
   -2.1879    3.4017    1.7050 C   0  0  0  0  0  0  0  0  0  0  0  0
   -3.2085    1.8948    3.6787 H   0  0  0  0  0  0  0  0  0  0  0  0
   -3.0007    1.4665    1.1994 H   0  0  0  0  0  0  0  0  0  0  0  0
   -1.3888    3.8390    2.3147 H   0  0  0  0  0  0  0  0  0  0  0  0
   -2.0284    3.7240    0.6708 H   0  0  0  0  0  0  0  0  0  0  0  0
   -3.1380    3.8230    2.0508 H   0  0  0  0  0  0  0  0  0  0  0  0
   -0.7390    1.2565   -0.0101 N   0  0  0  0  0  0  0  0  0  0  0  0
    0.4383    0.7557   -0.6738 C   0  0  2  0  0  0  0  0  0  0  0  0
    0.9977    1.8939   -1.5198 C   0  0  0  0  0  0  0  0  0  0  0  0
    0.8470    1.9587   -2.7380 O   0  0  0  0  0  0  0  0  0  0  0  0
    0.1332   -0.4621   -1.5536 C   0  0  0  0  0  0  0  0  0  0  0  0
   -0.3460   -1.6516   -0.7579 C   0  0  0  0  0  0  0  0  0  0  0  0
    0.5131   -2.4142   -0.0040 N   0  3  0  0  0  0  0  0  0  0  0  0
   -1.5897   -2.1977   -0.6098 C   0  0  0  0  0  0  0  0  0  0  0  0
   -0.1692   -3.3982    0.5906 C   0  0  0  0  0  0  0  0  0  0  0  0
   -1.4506   -3.2770    0.2291 N   0  0  0  0  0  0  0  0  0  0  0  0
   -1.5221    1.5532   -0.5874 H   0  0  0  0  0  0  0  0  0  0  0  0
    1.1589    0.5065    0.1141 H   0  0  0  0  0  0  0  0  0  0  0  0
    1.0206   -0.7415   -2.1375 H   0  0  0  0  0  0  0  0  0  0  0  0
   -0.6350   -0.2145   -2.2981 H   0  0  0  0  0  0  0  0  0  0  0  0
    1.5132   -2.2593    0.0893 H   0  0  0  0  0  0  0  0  0  0  0  0
   -2.5725   -1.9829   -0.9798 H   0  0  0  0  0  0  0  0  0  0  0  0
    0.2397   -4.1524    1.2421 H   0  0  0  0  0  0  0  0  0  0  0  0
   -2.2031   -3.8902    0.5293 H   0  0  0  0  0  0  0  0  0  0  0  0
    1.6397    2.8501   -0.7452 N   0  0  0  0  0  0  0  0  0  0  0  0
    2.2397    4.0445   -1.2949 C   0  0  2  0  0  0  0  0  0  0  0  0
    3.1347    3.6298   -2.4553 C   0  0  0  0  0  0  0  0  0  0  0  0
    3.5982    2.4975   -2.5736 O   0  0  0  0  0  0  0  0  0  0  0  0
    3.0325    4.8011   -0.2405 C   0  0  0  0  0  0  0  0  0  0  0  0
    1.6903    2.7030    0.2586 H   0  0  0  0  0  0  0  0  0  0  0  0
    1.4197    4.6667   -1.6696 H   0  0  0  0  0  0  0  0  0  0  0  0
    3.8585    4.1935    0.1468 H   0  0  0  0  0  0  0  0  0  0  0  0
    3.4627    5.7204   -0.6513 H   0  0  0  0  0  0  0  0  0  0  0  0
    2.3938    5.0725    0.6070 H   0  0  0  0  0  0  0  0  0  0  0  0
    3.3900    4.6847   -3.3203 N   0  0  0  0  0  0  0  0  0  0  0  0
    4.2235    4.5481   -4.4919 C   0  0  0  0  0  0  0  0  0  0  0  0
    2.9485    5.5845   -3.1551 H   0  0  0  0  0  0  0  0  0  0  0  0
    5.2597    4.8167   -4.2387 H   0  0  0  0  0  0  0  0  0  0  0  0
    4.1907    3.5070   -4.8456 H   0  0  0  0  0  0  0  0  0  0  0  0
    3.8547    5.2163   -5.2840 H   0  0  0  0  0  0  0  0  0  0  0  0
 22 24  2  0  0  0  0
 24 26  1  0  0  0  0
 25 26  1  0  0  0  0
 23 25  2  0  0  0  0
 21 22  1  0  0  0  0
 22 23  1  0  0  0  0
  1  3  1  0  0  0  0
  1  7  1  0  0  0  0
  1  2  2  0  0  0  0
 36 37  1  0  0  0  0
 37 45  1  0  0  0  0
 37 38  2  0  0  0  0
  8  9  1  0  0  0  0
  9 17  1  0  0  0  0
  9 10  2  0  0  0  0
 18 19  1  0  0  0  0
 19 35  1  0  0  0  0
 19 20  2  0  0  0  0
 36 39  1  0  0  0  0
  8 11  1  0  0  0  0
 45 46  1  0  0  0  0
 18 21  1  0  0  0  0
 35 36  1  0  0  0  0
  7  8  1  0  0  0  0
 17 18  1  0  0  0  0
 24 32  1  0  0  0  0
 25 33  1  0  0  0  0
  3  4  1  0  0  0  0
  3  5  1  0  0  0  0
  3  6  1  0  0  0  0
 39 42  1  0  0  0  0
 39 43  1  0  0  0  0
 39 44  1  0  0  0  0
 11 14  1  0  0  0  0
 11 15  1  0  0  0  0
 11 16  1  0  0  0  0
 46 48  1  0  0  0  0
 46 49  1  0  0  0  0
 46 50  1  0  0  0  0
 21 29  1  0  0  0  0
 21 30  1  0  0  0  0
 36 41  1  0  0  0  0
  8 13  1  0  0  0  0
 18 28  1  0  0  0  0
 26 34  1  0  0  0  0
 23 31  1  0  0  0  0
 45 47  1  0  0  0  0
  7 12  1  0  0  0  0
 35 40  1  0  0  0  0
 17 27  1  0  0  0  0
M  CHG  1  23   1
M  END
$$$$

  -OEChem-05262214473D

 50 50  0     1  0  0  0  0  0999 V2000
   -1.6938    0.4865    3.8080 C   0  0  0  0  0  0  0  0  0  0  0  0
   -0.7464   -0.1282    3.3323 O   0  0  0  0  0  0  0  0  0  0  0  0
   -2.1257    0.2041    5.2087 C   0  0  0  0  0  0  0  0  0  0  0  0
   -2.8853   -0.5922    5.2621 H   0  0  0  0  0  0  0  0  0  0  0  0
   -1.2944   -0.1435    5.8430 H   0  0  0  0  0  0  0  0  0  0  0  0
   -2.5637    1.0590    5.7483 H   0  0  0  0  0  0  0  0  0  0  0  0
   -2.4435    1.4589    3.1669 N   0  0  0  0  0  0  0  0  0  0  0  0
   -2.1966    1.8850    1.8145 C   0  0  2  0  0  0  0  0  0  0  0  0
   -0.8617    1.2996    1.3733 C   0  0  0  0  0  0  0  0  0  0  0  0
    0.0104    0.9468    2.1646 O   0  0  0  0  0  0  0  0  0  0  0  0
   -2.1879    3.4017    1.7050 C   0  0  0  0  0  0  0  0  0  0  0  0
   -3.2085    1.8948    3.6787 H   0  0  0  0  0  0  0  0  0  0  0  0
   -3.0007    1.4665    1.1994 H   0  0  0  0  0  0  0  0  0  0  0  0
   -1.3888    3.8390    2.3147 H   0  0  0  0  0  0  0  0  0  0  0  0
   -2.0284    3.7240    0.6708 H   0  0  0  0  0  0  0  0  0  0  0  0
   -3.1380    3.8230    2.0508 H   0  0  0  0  0  0  0  0  0  0  0  0
   -0.7390    1.2565   -0.0101 N   0  0  0  0  0  0  0  0  0  0  0  0
    0.4383    0.7557   -0.6738 C   0  0  2  0  0  0  0  0  0  0  0  0
    0.9977    1.8939   -1.5198 C   0  0  0  0  0  0  0  0  0  0  0  0
    0.6344    2.1109   -2.6739 O   0  0  0  0  0  0  0  0  0  0  0  0
    0.1332   -0.4621   -1.5536 C   0  0  0  0  0  0  0  0  0  0  0  0
   -0.3460   -1.6516   -0.7579 C   0  0  0  0  0  0  0  0  0  0  0  0
    0.5131   -2.4142   -0.0040 N   0  3  0  0  0  0  0  0  0  0  0  0
   -1.5897   -2.1977   -0.6098 C   0  0  0  0  0  0  0  0  0  0  0  0
   -0.1692   -3.3982    0.5906 C   0  0  0  0  0  0  0  0  0  0  0  0
   -1.4506   -3.2770    0.2291 N   0  0  0  0  0  0  0  0  0  0  0  0
   -1.5221    1.5532   -0.5874 H   0  0  0  0  0  0  0  0  0  0  0  0
    1.1589    0.5065    0.1141 H   0  0  0  0  0  0  0  0  0  0  0  0
    1.0206   -0.7415   -2.1375 H   0  0  0  0  0  0  0  0  0  0  0  0
   -0.6350   -0.2145   -2.2981 H   0  0  0  0  0  0  0  0  0  0  0  0
    1.5132   -2.2593    0.0893 H   0  0  0  0  0  0  0  0  0  0  0  0
   -2.5725   -1.9829   -0.9798 H   0  0  0  0  0  0  0  0  0  0  0  0
    0.2397   -4.1524    1.2421 H   0  0  0  0  0  0  0  0  0  0  0  0
   -2.2031   -3.8902    0.5293 H   0  0  0  0  0  0  0  0  0  0  0  0
    1.9113    2.6650   -0.8147 N   0  0  0  0  0  0  0  0  0  0  0  0
    2.5739    3.8207   -1.3750 C   0  0  2  0  0  0  0  0  0  0  0  0
    3.1629    3.4187   -2.7207 C   0  0  0  0  0  0  0  0  0  0  0  0
    3.4175    2.2541   -3.0205 O   0  0  0  0  0  0  0  0  0  0  0  0
    3.6555    4.3444   -0.4429 C   0  0  0  0  0  0  0  0  0  0  0  0
    2.1250    2.4038    0.1434 H   0  0  0  0  0  0  0  0  0  0  0  0
    1.8035    4.5845   -1.5264 H   0  0  0  0  0  0  0  0  0  0  0  0
    4.4364    3.5928   -0.2793 H   0  0  0  0  0  0  0  0  0  0  0  0
    4.1371    5.2369   -0.8559 H   0  0  0  0  0  0  0  0  0  0  0  0
    3.2351    4.6051    0.5344 H   0  0  0  0  0  0  0  0  0  0  0  0
    3.4109    4.5178   -3.5311 N   0  0  0  0  0  0  0  0  0  0  0  0
    3.9807    4.3990   -4.8529 C   0  0  0  0  0  0  0  0  0  0  0  0
    3.1508    5.4452   -3.2086 H   0  0  0  0  0  0  0  0  0  0  0  0
    5.0746    4.4968   -4.7914 H   0  0  0  0  0  0  0  0  0  0  0  0
    3.7237    3.4167   -5.2760 H   0  0  0  0  0  0  0  0  0  0  0  0
    3.5774    5.1931   -5.4985 H   0  0  0  0  0  0  0  0  0  0  0  0
 22 24  2  0  0  0  0
 24 26  1  0  0  0  0
 25 26  1  0  0  0  0
 23 25  2  0  0  0  0
 21 22  1  0  0  0  0
 22 23  1  0  0  0  0
  1  3  1  0  0  0  0
  1  7  1  0  0  0  0
  1  2  2  0  0  0  0
 36 37  1  0  0  0  0
 37 45  1  0  0  0  0
 37 38  2  0  0  0  0
  8  9  1  0  0  0  0
  9 17  1  0  0  0  0
  9 10  2  0  0  0  0
 18 19  1  0  0  0  0
 19 35  1  0  0  0  0
 19 20  2  0  0  0  0
 36 39  1  0  0  0  0
  8 11  1  0  0  0  0
 45 46  1  0  0  0  0
 18 21  1  0  0  0  0
 35 36  1  0  0  0  0
  7  8  1  0  0  0  0
 17 18  1  0  0  0  0
 24 32  1  0  0  0  0
 25 33  1  0  0  0  0
  3  4  1  0  0  0  0
  3  5  1  0  0  0  0
  3  6  1  0  0  0  0
 39 42  1  0  0  0  0
 39 43  1  0  0  0  0
 39 44  1  0  0  0  0
 11 14  1  0  0  0  0
 11 15  1  0  0  0  0
 11 16  1  0  0  0  0
 46 48  1  0  0  0  0
 46 49  1  0  0  0  0
 46 50  1  0  0  0  0
 21 29  1  0  0  0  0
 21 30  1  0  0  0  0
 36 41  1  0  0  0  0
  8 13  1  0  0  0  0
 18 28  1  0  0  0  0
 26 34  1  0  0  0  0
 23 31  1  0  0  0  0
 45 47  1  0  0  0  0
  7 12  1  0  0  0  0
 35 40  1  0  0  0  0
 17 27  1  0  0  0  0
M  CHG  1  23   1
M  END
$$$$

  -OEChem-05262214473D

 50 50  0     1  0  0  0  0  0999 V2000
   -1.6938    0.4865    3.8080 C   0  0  0  0  0  0  0  0  0  0  0  0
   -0.7464   -0.1282    3.3323 O   0  0  0  0  0  0  0  0  0  0  0  0
   -2.1257    0.2041    5.2087 C   0  0  0  0  0  0  0  0  0  0  0  0
   -2.8853   -0.5922    5.2621 H   0  0  0  0  0  0  0  0  0  0  0  0
   -1.2944   -0.1435    5.8430 H   0  0  0  0  0  0  0  0  0  0  0  0
   -2.5637    1.0590    5.7483 H   0  0  0  0  0  0  0  0  0  0  0  0
   -2.4435    1.4589    3.1669 N   0  0  0  0  0  0  0  0  0  0  0  0
   -2.1966    1.8850    1.8145 C   0  0  2  0  0  0  0  0  0  0  0  0
   -0.8617    1.2996    1.3733 C   0  0  0  0  0  0  0  0  0  0  0  0
    0.0104    0.9468    2.1646 O   0  0  0  0  0  0  0  0  0  0  0  0
   -2.1879    3.4017    1.7050 C   0  0  0  0  0  0  0  0  0  0  0  0
   -3.2085    1.8948    3.6787 H   0  0  0  0  0  0  0  0  0  0  0  0
   -3.0007    1.4665    1.1994 H   0  0  0  0  0  0  0  0  0  0  0  0
   -1.3888    3.8390    2.3147 H   0  0  0  0  0  0  0  0  0  0  0  0
   -2.0284    3.7240    0.6708 H   0  0  0  0  0  0  0  0  0  0  0  0
   -3.1380    3.8230    2.0508 H   0  0  0  0  0  0  0  0  0  0  0  0
   -0.7390    1.2565   -0.0101 N   0  0  0  0  0  0  0  0  0  0  0  0
    0.4383    0.7557   -0.6738 C   0  0  2  0  0  0  0  0  0  0  0  0
    0.9977    1.8939   -1.5198 C   0  0  0  0  0  0  0  0  0  0  0  0
    0.4633    2.2822   -2.5564 O   0  0  0  0  0  0  0  0  0  0  0  0
    0.1332   -0.4621   -1.5536 C   0  0  0  0  0  0  0  0  0  0  0  0
   -0.3460   -1.6516   -0.7579 C   0  0  0  0  0  0  0  0  0  0  0  0
    0.5131   -2.4142   -0.0040 N   0  3  0  0  0  0  0  0  0  0  0  0
   -1.5897   -2.1977   -0.6098 C   0  0  0  0  0  0  0  0  0  0  0  0
   -0.1692   -3.3982    0.5906 C   0  0  0  0  0  0  0  0  0  0  0  0
   -1.4506   -3.2770    0.2291 N   0  0  0  0  0  0  0  0  0  0  0  0
   -1.5221    1.5532   -0.5874 H   0  0  0  0  0  0  0  0  0  0  0  0
    1.1589    0.5065    0.1141 H   0  0  0  0  0  0  0  0  0  0  0  0
    1.0206   -0.7415   -2.1375 H   0  0  0  0  0  0  0  0  0  0  0  0
   -0.6350   -0.2145   -2.2981 H   0  0  0  0  0  0  0  0  0  0  0  0
    1.5132   -2.2593    0.0893 H   0  0  0  0  0  0  0  0  0  0  0  0
   -2.5725   -1.9829   -0.9798 H   0  0  0  0  0  0  0  0  0  0  0  0
    0.2397   -4.1524    1.2421 H   0  0  0  0  0  0  0  0  0  0  0  0
   -2.2031   -3.8902    0.5293 H   0  0  0  0  0  0  0  0  0  0  0  0
    2.1337    2.4537   -0.9518 N   0  0  0  0  0  0  0  0  0  0  0  0
    2.8492    3.5642   -1.5381 C   0  0  2  0  0  0  0  0  0  0  0  0
    3.1086    3.2359   -3.0025 C   0  0  0  0  0  0  0  0  0  0  0  0
    3.1217    2.0874   -3.4404 O   0  0  0  0  0  0  0  0  0  0  0  0
    4.1526    3.8331   -0.8022 C   0  0  0  0  0  0  0  0  0  0  0  0
    2.4796    2.0633   -0.0802 H   0  0  0  0  0  0  0  0  0  0  0  0
    2.1900    4.4365   -1.4700 H   0  0  0  0  0  0  0  0  0  0  0  0
    4.8260    2.9701   -0.8595 H   0  0  0  0  0  0  0  0  0  0  0  0
    4.6796    4.6925   -1.2297 H   0  0  0  0  0  0  0  0  0  0  0  0
    3.9665    4.0397    0.2573 H   0  0  0  0  0  0  0  0  0  0  0  0
    3.3664    4.3735   -3.7546 N   0  0  0  0  0  0  0  0  0  0  0  0
    3.6549    4.3242   -5.1689 C   0  0  0  0  0  0  0  0  0  0  0  0
    3.3159    5.2867   -3.3127 H   0  0  0  0  0  0  0  0  0  0  0  0
    4.7430    4.2669   -5.3199 H   0  0  0  0  0  0  0  0  0  0  0  0
    3.1764    3.4374   -5.6100 H   0  0  0  0  0  0  0  0  0  0  0  0
    3.2648    5.2309   -5.6544 H   0  0  0  0  0  0  0  0  0  0  0  0
 22 24  2  0  0  0  0
 24 26  1  0  0  0  0
 25 26  1  0  0  0  0
 23 25  2  0  0  0  0
 21 22  1  0  0  0  0
 22 23  1  0  0  0  0
  1  3  1  0  0  0  0
  1  7  1  0  0  0  0
  1  2  2  0  0  0  0
 36 37  1  0  0  0  0
 37 45  1  0  0  0  0
 37 38  2  0  0  0  0
  8  9  1  0  0  0  0
  9 17  1  0  0  0  0
  9 10  2  0  0  0  0
 18 19  1  0  0  0  0
 19 35  1  0  0  0  0
 19 20  2  0  0  0  0
 36 39  1  0  0  0  0
  8 11  1  0  0  0  0
 45 46  1  0  0  0  0
 18 21  1  0  0  0  0
 35 36  1  0  0  0  0
  7  8  1  0  0  0  0
 17 18  1  0  0  0  0
 24 32  1  0  0  0  0
 25 33  1  0  0  0  0
  3  4  1  0  0  0  0
  3  5  1  0  0  0  0
  3  6  1  0  0  0  0
 39 42  1  0  0  0  0
 39 43  1  0  0  0  0
 39 44  1  0  0  0  0
 11 14  1  0  0  0  0
 11 15  1  0  0  0  0
 11 16  1  0  0  0  0
 46 48  1  0  0  0  0
 46 49  1  0  0  0  0
 46 50  1  0  0  0  0
 21 29  1  0  0  0  0
 21 30  1  0  0  0  0
 36 41  1  0  0  0  0
  8 13  1  0  0  0  0
 18 28  1  0  0  0  0
 26 34  1  0  0  0  0
 23 31  1  0  0  0  0
 45 47  1  0  0  0  0
  7 12  1  0  0  0  0
 35 40  1  0  0  0  0
 17 27  1  0  0  0  0
M  CHG  1  23   1
M  END
$$$$

  -OEChem-05262214473D

 50 50  0     1  0  0  0  0  0999 V2000
   -1.6938    0.4865    3.8080 C   0  0  0  0  0  0  0  0  0  0  0  0
   -0.7464   -0.1282    3.3323 O   0  0  0  0  0  0  0  0  0  0  0  0
   -2.1257    0.2041    5.2087 C   0  0  0  0  0  0  0  0  0  0  0  0
   -2.8853   -0.5922    5.2621 H   0  0  0  0  0  0  0  0  0  0  0  0
   -1.2944   -0.1435    5.8430 H   0  0  0  0  0  0  0  0  0  0  0  0
   -2.5637    1.0590    5.7483 H   0  0  0  0  0  0  0  0  0  0  0  0
   -2.4435    1.4589    3.1669 N   0  0  0  0  0  0  0  0  0  0  0  0
   -2.1966    1.8850    1.8145 C   0  0  2  0  0  0  0  0  0  0  0  0
   -0.8617    1.2996    1.3733 C   0  0  0  0  0  0  0  0  0  0  0  0
    0.0104    0.9468    2.1646 O   0  0  0  0  0  0  0  0  0  0  0  0
   -2.1879    3.4017    1.7050 C   0  0  0  0  0  0  0  0  0  0  0  0
   -3.2085    1.8948    3.6787 H   0  0  0  0  0  0  0  0  0  0  0  0
   -3.0007    1.4665    1.1994 H   0  0  0  0  0  0  0  0  0  0  0  0
   -1.3888    3.8390    2.3147 H   0  0  0  0  0  0  0  0  0  0  0  0
   -2.0284    3.7240    0.6708 H   0  0  0  0  0  0  0  0  0  0  0  0
   -3.1380    3.8230    2.0508 H   0  0  0  0  0  0  0  0  0  0  0  0
   -0.7390    1.2565   -0.0101 N   0  0  0  0  0  0  0  0  0  0  0  0
    0.4383    0.7557   -0.6738 C   0  0  2  0  0  0  0  0  0  0  0  0
    0.9977    1.8939   -1.5198 C   0  0  0  0  0  0  0  0  0  0  0  0
    0.3453    2.4612   -2.3936 O   0  0  0  0  0  0  0  0  0  0  0  0
    0.1332   -0.4621   -1.5536 C   0  0  0  0  0  0  0  0  0  0  0  0
   -0.3460   -1.6516   -0.7579 C   0  0  0  0  0  0  0  0  0  0  0  0
    0.5131   -2.4142   -0.0040 N   0  3  0  0  0  0  0  0  0  0  0  0
   -1.5897   -2.1977   -0.6098 C   0  0  0  0  0  0  0  0  0  0  0  0
   -0.1692   -3.3982    0.5906 C   0  0  0  0  0  0  0  0  0  0  0  0
   -1.4506   -3.2770    0.2291 N   0  0  0  0  0  0  0  0  0  0  0  0
   -1.5221    1.5532   -0.5874 H   0  0  0  0  0  0  0  0  0  0  0  0
    1.1589    0.5065    0.1141 H   0  0  0  0  0  0  0  0  0  0  0  0
    1.0206   -0.7415   -2.1375 H   0  0  0  0  0  0  0  0  0  0  0  0
   -0.6350   -0.2145   -2.2981 H   0  0  0  0  0  0  0  0  0  0  0  0
    1.5132   -2.2593    0.0893 H   0  0  0  0  0  0  0  0  0  0  0  0
   -2.5725   -1.9829   -0.9798 H   0  0  0  0  0  0  0  0  0  0  0  0
    0.2397   -4.1524    1.2421 H   0  0  0  0  0  0  0  0  0  0  0  0
   -2.2031   -3.8902    0.5293 H   0  0  0  0  0  0  0  0  0  0  0  0
    2.2916    2.2308   -1.1474 N   0  0  0  0  0  0  0  0  0  0  0  0
    3.0466    3.2923   -1.7733 C   0  0  2  0  0  0  0  0  0  0  0  0
    2.9754    3.0940   -3.2816 C   0  0  0  0  0  0  0  0  0  0  0  0
    2.7308    2.0087   -3.8046 O   0  0  0  0  0  0  0  0  0  0  0  0
    4.4898    3.3019   -1.2939 C   0  0  0  0  0  0  0  0  0  0  0  0
    2.7300    1.7047   -0.3971 H   0  0  0  0  0  0  0  0  0  0  0  0
    2.5531    4.2326   -1.5043 H   0  0  0  0  0  0  0  0  0  0  0  0
    5.0007    2.3677   -1.5544 H   0  0  0  0  0  0  0  0  0  0  0  0
    5.0531    4.1242   -1.7473 H   0  0  0  0  0  0  0  0  0  0  0  0
    4.5382    3.4148   -0.2055 H   0  0  0  0  0  0  0  0  0  0  0  0
    3.2595    4.2618   -3.9756 N   0  0  0  0  0  0  0  0  0  0  0  0
    3.2685    4.3288   -5.4183 C   0  0  0  0  0  0  0  0  0  0  0  0
    3.4325    5.1198   -3.4602 H   0  0  0  0  0  0  0  0  0  0  0  0
    4.2876    4.1427   -5.7882 H   0  0  0  0  0  0  0  0  0  0  0  0
    2.5863    3.5677   -5.8249 H   0  0  0  0  0  0  0  0  0  0  0  0
    2.9381    5.3272   -5.7409 H   0  0  0  0  0  0  0  0  0  0  0  0
 22 24  2  0  0  0  0
 24 26  1  0  0  0  0
 25 26  1  0  0  0  0
 23 25  2  0  0  0  0
 21 22  1  0  0  0  0
 22 23  1  0  0  0  0
  1  3  1  0  0  0  0
  1  7  1  0  0  0  0
  1  2  2  0  0  0  0
 36 37  1  0  0  0  0
 37 45  1  0  0  0  0
 37 38  2  0  0  0  0
  8  9  1  0  0  0  0
  9 17  1  0  0  0  0
  9 10  2  0  0  0  0
 18 19  1  0  0  0  0
 19 35  1  0  0  0  0
 19 20  2  0  0  0  0
 36 39  1  0  0  0  0
  8 11  1  0  0  0  0
 45 46  1  0  0  0  0
 18 21  1  0  0  0  0
 35 36  1  0  0  0  0
  7  8  1  0  0  0  0
 17 18  1  0  0  0  0
 24 32  1  0  0  0  0
 25 33  1  0  0  0  0
  3  4  1  0  0  0  0
  3  5  1  0  0  0  0
  3  6  1  0  0  0  0
 39 42  1  0  0  0  0
 39 43  1  0  0  0  0
 39 44  1  0  0  0  0
 11 14  1  0  0  0  0
 11 15  1  0  0  0  0
 11 16  1  0  0  0  0
 46 48  1  0  0  0  0
 46 49  1  0  0  0  0
 46 50  1  0  0  0  0
 21 29  1  0  0  0  0
 21 30  1  0  0  0  0
 36 41  1  0  0  0  0
  8 13  1  0  0  0  0
 18 28  1  0  0  0  0
 26 34  1  0  0  0  0
 23 31  1  0  0  0  0
 45 47  1  0  0  0  0
  7 12  1  0  0  0  0
 35 40  1  0  0  0  0
 17 27  1  0  0  0  0
M  CHG  1  23   1
M  END
$$$$

  -OEChem-05262214473D

 50 50  0     1  0  0  0  0  0999 V2000
   -1.6938    0.4865    3.8080 C   0  0  0  0  0  0  0  0  0  0  0  0
   -0.7464   -0.1282    3.3323 O   0  0  0  0  0  0  0  0  0  0  0  0
   -2.1257    0.2041    5.2087 C   0  0  0  0  0  0  0  0  0  0  0  0
   -2.8853   -0.5922    5.2621 H   0  0  0  0  0  0  0  0  0  0  0  0
   -1.2944   -0.1435    5.8430 H   0  0  0  0  0  0  0  0  0  0  0  0
   -2.5637    1.0590    5.7483 H   0  0  0  0  0  0  0  0  0  0  0  0
   -2.4435    1.4589    3.1669 N   0  0  0  0  0  0  0  0  0  0  0  0
   -2.1966    1.8850    1.8145 C   0  0  2  0  0  0  0  0  0  0  0  0
   -0.8617    1.2996    1.3733 C   0  0  0  0  0  0  0  0  0  0  0  0
    0.0104    0.9468    2.1646 O   0  0  0  0  0  0  0  0  0  0  0  0
   -2.1879    3.4017    1.7050 C   0  0  0  0  0  0  0  0  0  0  0  0
   -3.2085    1.8948    3.6787 H   0  0  0  0  0  0  0  0  0  0  0  0
   -3.0007    1.4665    1.1994 H   0  0  0  0  0  0  0  0  0  0  0  0
   -1.3888    3.8390    2.3147 H   0  0  0  0  0  0  0  0  0  0  0  0
   -2.0284    3.7240    0.6708 H   0  0  0  0  0  0  0  0  0  0  0  0
   -3.1380    3.8230    2.0508 H   0  0  0  0  0  0  0  0  0  0  0  0
   -0.7390    1.2565   -0.0101 N   0  0  0  0  0  0  0  0  0  0  0  0
    0.4383    0.7557   -0.6738 C   0  0  2  0  0  0  0  0  0  0  0  0
    0.9977    1.8939   -1.5198 C   0  0  0  0  0  0  0  0  0  0  0  0
    0.2886    2.6356   -2.1965 O   0  0  0  0  0  0  0  0  0  0  0  0
    0.1332   -0.4621   -1.5536 C   0  0  0  0  0  0  0  0  0  0  0  0
   -0.3460   -1.6516   -0.7579 C   0  0  0  0  0  0  0  0  0  0  0  0
    0.5131   -2.4142   -0.0040 N   0  3  0  0  0  0  0  0  0  0  0  0
   -1.5897   -2.1977   -0.6098 C   0  0  0  0  0  0  0  0  0  0  0  0
   -0.1692   -3.3982    0.5906 C   0  0  0  0  0  0  0  0  0  0  0  0
   -1.4506   -3.2770    0.2291 N   0  0  0  0  0  0  0  0  0  0  0  0
   -1.5221    1.5532   -0.5874 H   0  0  0  0  0  0  0  0  0  0  0  0
    1.1589    0.5065    0.1141 H   0  0  0  0  0  0  0  0  0  0  0  0
    1.0206   -0.7415   -2.1375 H   0  0  0  0  0  0  0  0  0  0  0  0
   -0.6350   -0.2145   -2.2981 H   0  0  0  0  0  0  0  0  0  0  0  0
    1.5132   -2.2593    0.0893 H   0  0  0  0  0  0  0  0  0  0  0  0
   -2.5725   -1.9829   -0.9798 H   0  0  0  0  0  0  0  0  0  0  0  0
    0.2397   -4.1524    1.2421 H   0  0  0  0  0  0  0  0  0  0  0  0
   -2.2031   -3.8902    0.5293 H   0  0  0  0  0  0  0  0  0  0  0  0
    2.3744    2.0113   -1.3879 N   0  0  0  0  0  0  0  0  0  0  0  0
    3.1529    3.0237   -2.0644 C   0  0  2  0  0  0  0  0  0  0  0  0
    2.7724    3.0024   -3.5389 C   0  0  0  0  0  0  0  0  0  0  0  0
    2.2716    2.0235   -4.0884 O   0  0  0  0  0  0  0  0  0  0  0  0
    4.6443    2.7870   -1.8845 C   0  0  0  0  0  0  0  0  0  0  0  0
    2.8591    1.3525   -0.7857 H   0  0  0  0  0  0  0  0  0  0  0  0
    2.8678    3.9867   -1.6269 H   0  0  0  0  0  0  0  0  0  0  0  0
    4.9487    1.8268   -2.3166 H   0  0  0  0  0  0  0  0  0  0  0  0
    5.2323    3.5707   -2.3734 H   0  0  0  0  0  0  0  0  0  0  0  0
    4.9113    2.7730   -0.8222 H   0  0  0  0  0  0  0  0  0  0  0  0
    3.0975    4.1902   -4.1790 N   0  0  0  0  0  0  0  0  0  0  0  0
    2.8477    4.4124   -5.5841 C   0  0  0  0  0  0  0  0  0  0  0  0
    3.4927    4.9558   -3.6411 H   0  0  0  0  0  0  0  0  0  0  0  0
    3.7394    4.1325   -6.1643 H   0  0  0  0  0  0  0  0  0  0  0  0
    1.9934    3.7987   -5.9060 H   0  0  0  0  0  0  0  0  0  0  0  0
    2.6196    5.4752   -5.7523 H   0  0  0  0  0  0  0  0  0  0  0  0
 22 24  2  0  0  0  0
 24 26  1  0  0  0  0
 25 26  1  0  0  0  0
 23 25  2  0  0  0  0
 21 22  1  0  0  0  0
 22 23  1  0  0  0  0
  1  3  1  0  0  0  0
  1  7  1  0  0  0  0
  1  2  2  0  0  0  0
 36 37  1  0  0  0  0
 37 45  1  0  0  0  0
 37 38  2  0  0  0  0
  8  9  1  0  0  0  0
  9 17  1  0  0  0  0
  9 10  2  0  0  0  0
 18 19  1  0  0  0  0
 19 35  1  0  0  0  0
 19 20  2  0  0  0  0
 36 39  1  0  0  0  0
  8 11  1  0  0  0  0
 45 46  1  0  0  0  0
 18 21  1  0  0  0  0
 35 36  1  0  0  0  0
  7  8  1  0  0  0  0
 17 18  1  0  0  0  0
 24 32  1  0  0  0  0
 25 33  1  0  0  0  0
  3  4  1  0  0  0  0
  3  5  1  0  0  0  0
  3  6  1  0  0  0  0
 39 42  1  0  0  0  0
 39 43  1  0  0  0  0
 39 44  1  0  0  0  0
 11 14  1  0  0  0  0
 11 15  1  0  0  0  0
 11 16  1  0  0  0  0
 46 48  1  0  0  0  0
 46 49  1  0  0  0  0
 46 50  1  0  0  0  0
 21 29  1  0  0  0  0
 21 30  1  0  0  0  0
 36 41  1  0  0  0  0
  8 13  1  0  0  0  0
 18 28  1  0  0  0  0
 26 34  1  0  0  0  0
 23 31  1  0  0  0  0
 45 47  1  0  0  0  0
  7 12  1  0  0  0  0
 35 40  1  0  0  0  0
 17 27  1  0  0  0  0
M  CHG  1  23   1
M  END
$$$$

  -OEChem-05262214473D

 50 50  0     1  0  0  0  0  0999 V2000
   -1.6938    0.4865    3.8080 C   0  0  0  0  0  0  0  0  0  0  0  0
   -0.7464   -0.1282    3.3323 O   0  0  0  0  0  0  0  0  0  0  0  0
   -2.1257    0.2041    5.2087 C   0  0  0  0  0  0  0  0  0  0  0  0
   -2.8853   -0.5922    5.2621 H   0  0  0  0  0  0  0  0  0  0  0  0
   -1.2944   -0.1435    5.8430 H   0  0  0  0  0  0  0  0  0  0  0  0
   -2.5637    1.0590    5.7483 H   0  0  0  0  0  0  0  0  0  0  0  0
   -2.4435    1.4589    3.1669 N   0  0  0  0  0  0  0  0  0  0  0  0
   -2.1966    1.8850    1.8145 C   0  0  2  0  0  0  0  0  0  0  0  0
   -0.8617    1.2996    1.3733 C   0  0  0  0  0  0  0  0  0  0  0  0
    0.0104    0.9468    2.1646 O   0  0  0  0  0  0  0  0  0  0  0  0
   -2.1879    3.4017    1.7050 C   0  0  0  0  0  0  0  0  0  0  0  0
   -3.2085    1.8948    3.6787 H   0  0  0  0  0  0  0  0  0  0  0  0
   -3.0007    1.4665    1.1994 H   0  0  0  0  0  0  0  0  0  0  0  0
   -1.3888    3.8390    2.3147 H   0  0  0  0  0  0  0  0  0  0  0  0
   -2.0284    3.7240    0.6708 H   0  0  0  0  0  0  0  0  0  0  0  0
   -3.1380    3.8230    2.0508 H   0  0  0  0  0  0  0  0  0  0  0  0
   -0.7390    1.2565   -0.0101 N   0  0  0  0  0  0  0  0  0  0  0  0
    0.4383    0.7557   -0.6738 C   0  0  2  0  0  0  0  0  0  0  0  0
    0.9977    1.8939   -1.5198 C   0  0  0  0  0  0  0  0  0  0  0  0
    0.2968    2.7935   -1.9787 O   0  0  0  0  0  0  0  0  0  0  0  0
    0.1332   -0.4621   -1.5536 C   0  0  0  0  0  0  0  0  0  0  0  0
   -0.3460   -1.6516   -0.7579 C   0  0  0  0  0  0  0  0  0  0  0  0
    0.5131   -2.4142   -0.0040 N   0  3  0  0  0  0  0  0  0  0  0  0
   -1.5897   -2.1977   -0.6098 C   0  0  0  0  0  0  0  0  0  0  0  0
   -0.1692   -3.3982    0.5906 C   0  0  0  0  0  0  0  0  0  0  0  0
   -1.4506   -3.2770    0.2291 N   0  0  0  0  0  0  0  0  0  0  0  0
   -1.5221    1.5532   -0.5874 H   0  0  0  0  0  0  0  0  0  0  0  0
    1.1589    0.5065    0.1141 H   0  0  0  0  0  0  0  0  0  0  0  0
    1.0206   -0.7415   -2.1375 H   0  0  0  0  0  0  0  0  0  0  0  0
   -0.6350   -0.2145   -2.2981 H   0  0  0  0  0  0  0  0  0  0  0  0
    1.5132   -2.2593    0.0893 H   0  0  0  0  0  0  0  0  0  0  0  0
   -2.5725   -1.9829   -0.9798 H   0  0  0  0  0  0  0  0  0  0  0  0
    0.2397   -4.1524    1.2421 H   0  0  0  0  0  0  0  0  0  0  0  0
   -2.2031   -3.8902    0.5293 H   0  0  0  0  0  0  0  0  0  0  0  0
    2.3763    1.8103   -1.6571 N   0  0  0  0  0  0  0  0  0  0  0  0
    3.1607    2.7767   -2.3917 C   0  0  2  0  0  0  0  0  0  0  0  0
    2.5135    2.9676   -3.7570 C   0  0  0  0  0  0  0  0  0  0  0  0
    1.7753    2.1306   -4.2724 O   0  0  0  0  0  0  0  0  0  0  0  0
    4.6054    2.3236   -2.5336 C   0  0  0  0  0  0  0  0  0  0  0  0
    2.8582    1.0306   -1.2194 H   0  0  0  0  0  0  0  0  0  0  0  0
    3.1128    3.7157   -1.8296 H   0  0  0  0  0  0  0  0  0  0  0  0
    4.6735    1.3841   -3.0941 H   0  0  0  0  0  0  0  0  0  0  0  0
    5.2049    3.0699   -3.0654 H   0  0  0  0  0  0  0  0  0  0  0  0
    5.0603    2.1581   -1.5510 H   0  0  0  0  0  0  0  0  0  0  0  0
    2.8914    4.1636   -4.3510 N   0  0  0  0  0  0  0  0  0  0  0  0
    2.4212    4.5693   -5.6550 C   0  0  0  0  0  0  0  0  0  0  0  0
    3.4923    4.8060   -3.8429 H   0  0  0  0  0  0  0  0  0  0  0  0
    3.1357    4.2372   -6.4226 H   0  0  0  0  0  0  0  0  0  0  0  0
    1.4383    4.1147   -5.8479 H   0  0  0  0  0  0  0  0  0  0  0  0
    2.3311    5.6651   -5.6876 H   0  0  0  0  0  0  0  0  0  0  0  0
 22 24  2  0  0  0  0
 24 26  1  0  0  0  0
 25 26  1  0  0  0  0
 23 25  2  0  0  0  0
 21 22  1  0  0  0  0
 22 23  1  0  0  0  0
  1  3  1  0  0  0  0
  1  7  1  0  0  0  0
  1  2  2  0  0  0  0
 36 37  1  0  0  0  0
 37 45  1  0  0  0  0
 37 38  2  0  0  0  0
  8  9  1  0  0  0  0
  9 17  1  0  0  0  0
  9 10  2  0  0  0  0
 18 19  1  0  0  0  0
 19 35  1  0  0  0  0
 19 20  2  0  0  0  0
 36 39  1  0  0  0  0
  8 11  1  0  0  0  0
 45 46  1  0  0  0  0
 18 21  1  0  0  0  0
 35 36  1  0  0  0  0
  7  8  1  0  0  0  0
 17 18  1  0  0  0  0
 24 32  1  0  0  0  0
 25 33  1  0  0  0  0
  3  4  1  0  0  0  0
  3  5  1  0  0  0  0
  3  6  1  0  0  0  0
 39 42  1  0  0  0  0
 39 43  1  0  0  0  0
 39 44  1  0  0  0  0
 11 14  1  0  0  0  0
 11 15  1  0  0  0  0
 11 16  1  0  0  0  0
 46 48  1  0  0  0  0
 46 49  1  0  0  0  0
 46 50  1  0  0  0  0
 21 29  1  0  0  0  0
 21 30  1  0  0  0  0
 36 41  1  0  0  0  0
  8 13  1  0  0  0  0
 18 28  1  0  0  0  0
 26 34  1  0  0  0  0
 23 31  1  0  0  0  0
 45 47  1  0  0  0  0
  7 12  1  0  0  0  0
 35 40  1  0  0  0  0
 17 27  1  0  0  0  0
M  CHG  1  23   1
M  END
$$$$

  -OEChem-05262214473D

 50 50  0     1  0  0  0  0  0999 V2000
   -1.6938    0.4865    3.8080 C   0  0  0  0  0  0  0  0  0  0  0  0
   -0.7464   -0.1282    3.3323 O   0  0  0  0  0  0  0  0  0  0  0  0
   -2.1257    0.2041    5.2087 C   0  0  0  0  0  0  0  0  0  0  0  0
   -2.8853   -0.5922    5.2621 H   0  0  0  0  0  0  0  0  0  0  0  0
   -1.2944   -0.1435    5.8430 H   0  0  0  0  0  0  0  0  0  0  0  0
   -2.5637    1.0590    5.7483 H   0  0  0  0  0  0  0  0  0  0  0  0
   -2.4435    1.4589    3.1669 N   0  0  0  0  0  0  0  0  0  0  0  0
   -2.1966    1.8850    1.8145 C   0  0  2  0  0  0  0  0  0  0  0  0
   -0.8617    1.2996    1.3733 C   0  0  0  0  0  0  0  0  0  0  0  0
    0.0104    0.9468    2.1646 O   0  0  0  0  0  0  0  0  0  0  0  0
   -2.1879    3.4017    1.7050 C   0  0  0  0  0  0  0  0  0  0  0  0
   -3.2085    1.8948    3.6787 H   0  0  0  0  0  0  0  0  0  0  0  0
   -3.0007    1.4665    1.1994 H   0  0  0  0  0  0  0  0  0  0  0  0
   -1.3888    3.8390    2.3147 H   0  0  0  0  0  0  0  0  0  0  0  0
   -2.0284    3.7240    0.6708 H   0  0  0  0  0  0  0  0  0  0  0  0
   -3.1380    3.8230    2.0508 H   0  0  0  0  0  0  0  0  0  0  0  0
   -0.7390    1.2565   -0.0101 N   0  0  0  0  0  0  0  0  0  0  0  0
    0.4383    0.7557   -0.6738 C   0  0  2  0  0  0  0  0  0  0  0  0
    0.9977    1.8939   -1.5198 C   0  0  0  0  0  0  0  0  0  0  0  0
    0.3696    2.9241   -1.7549 O   0  0  0  0  0  0  0  0  0  0  0  0
    0.1332   -0.4621   -1.5536 C   0  0  0  0  0  0  0  0  0  0  0  0
   -0.3460   -1.6516   -0.7579 C   0  0  0  0  0  0  0  0  0  0  0  0
    0.5131   -2.4142   -0.0040 N   0  3  0  0  0  0  0  0  0  0  0  0
   -1.5897   -2.1977   -0.6098 C   0  0  0  0  0  0  0  0  0  0  0  0
   -0.1692   -3.3982    0.5906 C   0  0  0  0  0  0  0  0  0  0  0  0
   -1.4506   -3.2770    0.2291 N   0  0  0  0  0  0  0  0  0  0  0  0
   -1.5221    1.5532   -0.5874 H   0  0  0  0  0  0  0  0  0  0  0  0
    1.1589    0.5065    0.1141 H   0  0  0  0  0  0  0  0  0  0  0  0
    1.0206   -0.7415   -2.1375 H   0  0  0  0  0  0  0  0  0  0  0  0
   -0.6350   -0.2145   -2.2981 H   0  0  0  0  0  0  0  0  0  0  0  0
    1.5132   -2.2593    0.0893 H   0  0  0  0  0  0  0  0  0  0  0  0
   -2.5725   -1.9829   -0.9798 H   0  0  0  0  0  0  0  0  0  0  0  0
    0.2397   -4.1524    1.2421 H   0  0  0  0  0  0  0  0  0  0  0  0
   -2.2031   -3.8902    0.5293 H   0  0  0  0  0  0  0  0  0  0  0  0
    2.2973    1.6414   -1.9366 N   0  0  0  0  0  0  0  0  0  0  0  0
    3.0695    2.5680   -2.7327 C   0  0  2  0  0  0  0  0  0  0  0  0
    2.2162    2.9919   -3.9208 C   0  0  0  0  0  0  0  0  0  0  0  0
    1.2758    2.3229   -4.3440 O   0  0  0  0  0  0  0  0  0  0  0  0
    4.3759    1.9432   -3.1972 C   0  0  0  0  0  0  0  0  0  0  0  0
    2.7272    0.7610   -1.6687 H   0  0  0  0  0  0  0  0  0  0  0  0
    3.2714    3.4380   -2.0984 H   0  0  0  0  0  0  0  0  0  0  0  0
    4.1938    1.0699   -3.8340 H   0  0  0  0  0  0  0  0  0  0  0  0
    4.9727    2.6557   -3.7761 H   0  0  0  0  0  0  0  0  0  0  0  0
    4.9751    1.6119   -2.3422 H   0  0  0  0  0  0  0  0  0  0  0  0
    2.6553    4.1839   -4.4798 N   0  0  0  0  0  0  0  0  0  0  0  0
    2.0181    4.7888   -5.6261 C   0  0  0  0  0  0  0  0  0  0  0  0
    3.4313    4.6804   -4.0521 H   0  0  0  0  0  0  0  0  0  0  0  0
    2.5177    4.4496   -6.5455 H   0  0  0  0  0  0  0  0  0  0  0  0
    0.9587    4.4941   -5.6545 H   0  0  0  0  0  0  0  0  0  0  0  0
    2.0922    5.8838   -5.5514 H   0  0  0  0  0  0  0  0  0  0  0  0
 22 24  2  0  0  0  0
 24 26  1  0  0  0  0
 25 26  1  0  0  0  0
 23 25  2  0  0  0  0
 21 22  1  0  0  0  0
 22 23  1  0  0  0  0
  1  3  1  0  0  0  0
  1  7  1  0  0  0  0
  1  2  2  0  0  0  0
 36 37  1  0  0  0  0
 37 45  1  0  0  0  0
 37 38  2  0  0  0  0
  8  9  1  0  0  0  0
  9 17  1  0  0  0  0
  9 10  2  0  0  0  0
 18 19  1  0  0  0  0
 19 35  1  0  0  0  0
 19 20  2  0  0  0  0
 36 39  1  0  0  0  0
  8 11  1  0  0  0  0
 45 46  1  0  0  0  0
 18 21  1  0  0  0  0
 35 36  1  0  0  0  0
  7  8  1  0  0  0  0
 17 18  1  0  0  0  0
 24 32  1  0  0  0  0
 25 33  1  0  0  0  0
  3  4  1  0  0  0  0
  3  5  1  0  0  0  0
  3  6  1  0  0  0  0
 39 42  1  0  0  0  0
 39 43  1  0  0  0  0
 39 44  1  0  0  0  0
 11 14  1  0  0  0  0
 11 15  1  0  0  0  0
 11 16  1  0  0  0  0
 46 48  1  0  0  0  0
 46 49  1  0  0  0  0
 46 50  1  0  0  0  0
 21 29  1  0  0  0  0
 21 30  1  0  0  0  0
 36 41  1  0  0  0  0
  8 13  1  0  0  0  0
 18 28  1  0  0  0  0
 26 34  1  0  0  0  0
 23 31  1  0  0  0  0
 45 47  1  0  0  0  0
  7 12  1  0  0  0  0
 35 40  1  0  0  0  0
 17 27  1  0  0  0  0
M  CHG  1  23   1
M  END
$$$$

  -OEChem-05262214473D

 50 50  0     1  0  0  0  0  0999 V2000
   -1.6938    0.4865    3.8080 C   0  0  0  0  0  0  0  0  0  0  0  0
   -0.7464   -0.1282    3.3323 O   0  0  0  0  0  0  0  0  0  0  0  0
   -2.1257    0.2041    5.2087 C   0  0  0  0  0  0  0  0  0  0  0  0
   -2.8853   -0.5922    5.2621 H   0  0  0  0  0  0  0  0  0  0  0  0
   -1.2944   -0.1435    5.8430 H   0  0  0  0  0  0  0  0  0  0  0  0
   -2.5637    1.0590    5.7483 H   0  0  0  0  0  0  0  0  0  0  0  0
   -2.4435    1.4589    3.1669 N   0  0  0  0  0  0  0  0  0  0  0  0
   -2.1966    1.8850    1.8145 C   0  0  2  0  0  0  0  0  0  0  0  0
   -0.8617    1.2996    1.3733 C   0  0  0  0  0  0  0  0  0  0  0  0
    0.0104    0.9468    2.1646 O   0  0  0  0  0  0  0  0  0  0  0  0
   -2.1879    3.4017    1.7050 C   0  0  0  0  0  0  0  0  0  0  0  0
   -3.2085    1.8948    3.6787 H   0  0  0  0  0  0  0  0  0  0  0  0
   -3.0007    1.4665    1.1994 H   0  0  0  0  0  0  0  0  0  0  0  0
   -1.3888    3.8390    2.3147 H   0  0  0  0  0  0  0  0  0  0  0  0
   -2.0284    3.7240    0.6708 H   0  0  0  0  0  0  0  0  0  0  0  0
   -3.1380    3.8230    2.0508 H   0  0  0  0  0  0  0  0  0  0  0  0
   -0.7390    1.2565   -0.0101 N   0  0  0  0  0  0  0  0  0  0  0  0
    0.4383    0.7557   -0.6738 C   0  0  2  0  0  0  0  0  0  0  0  0
    1.2029    1.9620   -1.2071 C   0  0  0  0  0  0  0  0  0  0  0  0
    0.8380    3.1210   -1.0214 O   0  0  0  0  0  0  0  0  0  0  0  0
    0.0937   -0.2050   -1.8176 C   0  0  0  0  0  0  0  0  0  0  0  0
   -0.5921   -1.4611   -1.3382 C   0  0  0  0  0  0  0  0  0  0  0  0
    0.0963   -2.4668   -0.7037 N   0  3  0  0  0  0  0  0  0  0  0  0
   -1.8967   -1.8610   -1.4084 C   0  0  0  0  0  0  0  0  0  0  0  0
   -0.7471   -3.4559   -0.3910 C   0  0  0  0  0  0  0  0  0  0  0  0
   -1.9636   -3.0987   -0.8154 N   0  0  0  0  0  0  0  0  0  0  0  0
   -1.5221    1.5532   -0.5874 H   0  0  0  0  0  0  0  0  0  0  0  0
    1.0425    0.2589    0.0944 H   0  0  0  0  0  0  0  0  0  0  0  0
    1.0005   -0.4702   -2.3780 H   0  0  0  0  0  0  0  0  0  0  0  0
   -0.5622    0.2874   -2.5477 H   0  0  0  0  0  0  0  0  0  0  0  0
    1.0925   -2.4646   -0.5021 H   0  0  0  0  0  0  0  0  0  0  0  0
   -2.8068   -1.4499   -1.7977 H   0  0  0  0  0  0  0  0  0  0  0  0
   -0.4924   -4.3743    0.1110 H   0  0  0  0  0  0  0  0  0  0  0  0
   -2.8056   -3.6585   -0.7142 H   0  0  0  0  0  0  0  0  0  0  0  0
    2.3642    1.5896   -1.8698 N   0  0  0  0  0  0  0  0  0  0  0  0
    3.2848    2.5393   -2.4523 C   0  0  2  0  0  0  0  0  0  0  0  0
    2.4819    3.5048   -3.3141 C   0  0  0  0  0  0  0  0  0  0  0  0
    1.3759    3.2313   -3.7755 O   0  0  0  0  0  0  0  0  0  0  0  0
    4.3559    1.8391   -3.2740 C   0  0  0  0  0  0  0  0  0  0  0  0
    2.5777    0.5997   -1.9495 H   0  0  0  0  0  0  0  0  0  0  0  0
    3.7435    3.0857   -1.6210 H   0  0  0  0  0  0  0  0  0  0  0  0
    3.9153    1.2862   -4.1117 H   0  0  0  0  0  0  0  0  0  0  0  0
    5.0691    2.5578   -3.6910 H   0  0  0  0  0  0  0  0  0  0  0  0
    4.9127    1.1234   -2.6596 H   0  0  0  0  0  0  0  0  0  0  0  0
    3.1645    4.6913   -3.5431 N   0  0  0  0  0  0  0  0  0  0  0  0
    2.6186    5.7630   -4.3427 C   0  0  0  0  0  0  0  0  0  0  0  0
    4.0690    4.8399   -3.1053 H   0  0  0  0  0  0  0  0  0  0  0  0
    2.9497    5.6485   -5.3854 H   0  0  0  0  0  0  0  0  0  0  0  0
    1.5199    5.7284   -4.3011 H   0  0  0  0  0  0  0  0  0  0  0  0
    2.9701    6.7287   -3.9505 H   0  0  0  0  0  0  0  0  0  0  0  0
 22 24  2  0  0  0  0
 24 26  1  0  0  0  0
 25 26  1  0  0  0  0
 23 25  2  0  0  0  0
 21 22  1  0  0  0  0
 22 23  1  0  0  0  0
  1  3  1  0  0  0  0
  1  7  1  0  0  0  0
  1  2  2  0  0  0  0
 36 37  1  0  0  0  0
 37 45  1  0  0  0  0
 37 38  2  0  0  0  0
  8  9  1  0  0  0  0
  9 17  1  0  0  0  0
  9 10  2  0  0  0  0
 18 19  1  0  0  0  0
 19 35  1  0  0  0  0
 19 20  2  0  0  0  0
 36 39  1  0  0  0  0
  8 11  1  0  0  0  0
 45 46  1  0  0  0  0
 18 21  1  0  0  0  0
 35 36  1  0  0  0  0
  7  8  1  0  0  0  0
 17 18  1  0  0  0  0
 24 32  1  0  0  0  0
 25 33  1  0  0  0  0
  3  4  1  0  0  0  0
  3  5  1  0  0  0  0
  3  6  1  0  0  0  0
 39 42  1  0  0  0  0
 39 43  1  0  0  0  0
 39 44  1  0  0  0  0
 11 14  1  0  0  0  0
 11 15  1  0  0  0  0
 11 16  1  0  0  0  0
 46 48  1  0  0  0  0
 46 49  1  0  0  0  0
 46 50  1  0  0  0  0
 21 29  1  0  0  0  0
 21 30  1  0  0  0  0
 36 41  1  0  0  0  0
  8 13  1  0  0  0  0
 18 28  1  0  0  0  0
 26 34  1  0  0  0  0
 23 31  1  0  0  0  0
 45 47  1  0  0  0  0
  7 12  1  0  0  0  0
 35 40  1  0  0  0  0
 17 27  1  0  0  0  0
M  CHG  1  23   1
M  END
$$$$

  -OEChem-05262214473D

 50 50  0     1  0  0  0  0  0999 V2000
   -1.6938    0.4865    3.8080 C   0  0  0  0  0  0  0  0  0  0  0  0
   -0.7464   -0.1282    3.3323 O   0  0  0  0  0  0  0  0  0  0  0  0
   -2.1257    0.2041    5.2087 C   0  0  0  0  0  0  0  0  0  0  0  0
   -2.8853   -0.5922    5.2621 H   0  0  0  0  0  0  0  0  0  0  0  0
   -1.2944   -0.1435    5.8430 H   0  0  0  0  0  0  0  0  0  0  0  0
   -2.5637    1.0590    5.7483 H   0  0  0  0  0  0  0  0  0  0  0  0
   -2.4435    1.4589    3.1669 N   0  0  0  0  0  0  0  0  0  0  0  0
   -2.1966    1.8850    1.8145 C   0  0  2  0  0  0  0  0  0  0  0  0
   -0.8617    1.2996    1.3733 C   0  0  0  0  0  0  0  0  0  0  0  0
    0.0104    0.9468    2.1646 O   0  0  0  0  0  0  0  0  0  0  0  0
   -2.1879    3.4017    1.7050 C   0  0  0  0  0  0  0  0  0  0  0  0
   -3.2085    1.8948    3.6787 H   0  0  0  0  0  0  0  0  0  0  0  0
   -3.0007    1.4665    1.1994 H   0  0  0  0  0  0  0  0  0  0  0  0
   -1.3888    3.8390    2.3147 H   0  0  0  0  0  0  0  0  0  0  0  0
   -2.0284    3.7240    0.6708 H   0  0  0  0  0  0  0  0  0  0  0  0
   -3.1380    3.8230    2.0508 H   0  0  0  0  0  0  0  0  0  0  0  0
   -0.7390    1.2565   -0.0101 N   0  0  0  0  0  0  0  0  0  0  0  0
    0.4383    0.7557   -0.6738 C   0  0  2  0  0  0  0  0  0  0  0  0
    1.2029    1.9620   -1.2071 C   0  0  0  0  0  0  0  0  0  0  0  0
    1.0048    3.1085   -0.8105 O   0  0  0  0  0  0  0  0  0  0  0  0
    0.0937   -0.2050   -1.8176 C   0  0  0  0  0  0  0  0  0  0  0  0
   -0.5921   -1.4611   -1.3382 C   0  0  0  0  0  0  0  0  0  0  0  0
    0.0963   -2.4668   -0.7037 N   0  3  0  0  0  0  0  0  0  0  0  0
   -1.8967   -1.8610   -1.4084 C   0  0  0  0  0  0  0  0  0  0  0  0
   -0.7471   -3.4559   -0.3910 C   0  0  0  0  0  0  0  0  0  0  0  0
   -1.9636   -3.0987   -0.8154 N   0  0  0  0  0  0  0  0  0  0  0  0
   -1.5221    1.5532   -0.5874 H   0  0  0  0  0  0  0  0  0  0  0  0
    1.0425    0.2589    0.0944 H   0  0  0  0  0  0  0  0  0  0  0  0
    1.0005   -0.4702   -2.3780 H   0  0  0  0  0  0  0  0  0  0  0  0
   -0.5622    0.2874   -2.5477 H   0  0  0  0  0  0  0  0  0  0  0  0
    1.0925   -2.4646   -0.5021 H   0  0  0  0  0  0  0  0  0  0  0  0
   -2.8068   -1.4499   -1.7977 H   0  0  0  0  0  0  0  0  0  0  0  0
   -0.4924   -4.3743    0.1110 H   0  0  0  0  0  0  0  0  0  0  0  0
   -2.8056   -3.6585   -0.7142 H   0  0  0  0  0  0  0  0  0  0  0  0
    2.1640    1.5972   -2.1396 N   0  0  0  0  0  0  0  0  0  0  0  0
    3.0442    2.5450   -2.7844 C   0  0  2  0  0  0  0  0  0  0  0  0
    2.1909    3.6800   -3.3349 C   0  0  0  0  0  0  0  0  0  0  0  0
    0.9929    3.5594   -3.5823 O   0  0  0  0  0  0  0  0  0  0  0  0
    3.8517    1.8856   -3.8915 C   0  0  0  0  0  0  0  0  0  0  0  0
    2.2533    0.6146   -2.3811 H   0  0  0  0  0  0  0  0  0  0  0  0
    3.7134    2.9334   -2.0088 H   0  0  0  0  0  0  0  0  0  0  0  0
    3.1983    1.4903   -4.6778 H   0  0  0  0  0  0  0  0  0  0  0  0
    4.5386    2.5982   -4.3599 H   0  0  0  0  0  0  0  0  0  0  0  0
    4.4421    1.0506   -3.4990 H   0  0  0  0  0  0  0  0  0  0  0  0
    2.9341    4.8307   -3.5581 N   0  0  0  0  0  0  0  0  0  0  0  0
    2.3547    6.0421   -4.0898 C   0  0  0  0  0  0  0  0  0  0  0  0
    3.9180    4.8468   -3.3062 H   0  0  0  0  0  0  0  0  0  0  0  0
    2.4581    6.0487   -5.1849 H   0  0  0  0  0  0  0  0  0  0  0  0
    1.2887    6.0867   -3.8220 H   0  0  0  0  0  0  0  0  0  0  0  0
    2.8757    6.9138   -3.6671 H   0  0  0  0  0  0  0  0  0  0  0  0
 22 24  2  0  0  0  0
 24 26  1  0  0  0  0
 25 26  1  0  0  0  0
 23 25  2  0  0  0  0
 21 22  1  0  0  0  0
 22 23  1  0  0  0  0
  1  3  1  0  0  0  0
  1  7  1  0  0  0  0
  1  2  2  0  0  0  0
 36 37  1  0  0  0  0
 37 45  1  0  0  0  0
 37 38  2  0  0  0  0
  8  9  1  0  0  0  0
  9 17  1  0  0  0  0
  9 10  2  0  0  0  0
 18 19  1  0  0  0  0
 19 35  1  0  0  0  0
 19 20  2  0  0  0  0
 36 39  1  0  0  0  0
  8 11  1  0  0  0  0
 45 46  1  0  0  0  0
 18 21  1  0  0  0  0
 35 36  1  0  0  0  0
  7  8  1  0  0  0  0
 17 18  1  0  0  0  0
 24 32  1  0  0  0  0
 25 33  1  0  0  0  0
  3  4  1  0  0  0  0
  3  5  1  0  0  0  0
  3  6  1  0  0  0  0
 39 42  1  0  0  0  0
 39 43  1  0  0  0  0
 39 44  1  0  0  0  0
 11 14  1  0  0  0  0
 11 15  1  0  0  0  0
 11 16  1  0  0  0  0
 46 48  1  0  0  0  0
 46 49  1  0  0  0  0
 46 50  1  0  0  0  0
 21 29  1  0  0  0  0
 21 30  1  0  0  0  0
 36 41  1  0  0  0  0
  8 13  1  0  0  0  0
 18 28  1  0  0  0  0
 26 34  1  0  0  0  0
 23 31  1  0  0  0  0
 45 47  1  0  0  0  0
  7 12  1  0  0  0  0
 35 40  1  0  0  0  0
 17 27  1  0  0  0  0
M  CHG  1  23   1
M  END
$$$$

  -OEChem-05262214473D

 50 50  0     1  0  0  0  0  0999 V2000
   -1.6938    0.4865    3.8080 C   0  0  0  0  0  0  0  0  0  0  0  0
   -0.7464   -0.1282    3.3323 O   0  0  0  0  0  0  0  0  0  0  0  0
   -2.1257    0.2041    5.2087 C   0  0  0  0  0  0  0  0  0  0  0  0
   -2.8853   -0.5922    5.2621 H   0  0  0  0  0  0  0  0  0  0  0  0
   -1.2944   -0.1435    5.8430 H   0  0  0  0  0  0  0  0  0  0  0  0
   -2.5637    1.0590    5.7483 H   0  0  0  0  0  0  0  0  0  0  0  0
   -2.4435    1.4589    3.1669 N   0  0  0  0  0  0  0  0  0  0  0  0
   -2.1966    1.8850    1.8145 C   0  0  2  0  0  0  0  0  0  0  0  0
   -0.8617    1.2996    1.3733 C   0  0  0  0  0  0  0  0  0  0  0  0
    0.0104    0.9468    2.1646 O   0  0  0  0  0  0  0  0  0  0  0  0
   -2.1879    3.4017    1.7050 C   0  0  0  0  0  0  0  0  0  0  0  0
   -3.2085    1.8948    3.6787 H   0  0  0  0  0  0  0  0  0  0  0  0
   -3.0007    1.4665    1.1994 H   0  0  0  0  0  0  0  0  0  0  0  0
   -1.3888    3.8390    2.3147 H   0  0  0  0  0  0  0  0  0  0  0  0
   -2.0284    3.7240    0.6708 H   0  0  0  0  0  0  0  0  0  0  0  0
   -3.1380    3.8230    2.0508 H   0  0  0  0  0  0  0  0  0  0  0  0
   -0.7390    1.2565   -0.0101 N   0  0  0  0  0  0  0  0  0  0  0  0
    0.4383    0.7557   -0.6738 C   0  0  2  0  0  0  0  0  0  0  0  0
    1.2029    1.9620   -1.2071 C   0  0  0  0  0  0  0  0  0  0  0  0
    1.2080    3.0539   -0.6427 O   0  0  0  0  0  0  0  0  0  0  0  0
    0.0937   -0.2050   -1.8176 C   0  0  0  0  0  0  0  0  0  0  0  0
   -0.5921   -1.4611   -1.3382 C   0  0  0  0  0  0  0  0  0  0  0  0
    0.0963   -2.4668   -0.7037 N   0  3  0  0  0  0  0  0  0  0  0  0
   -1.8967   -1.8610   -1.4084 C   0  0  0  0  0  0  0  0  0  0  0  0
   -0.7471   -3.4559   -0.3910 C   0  0  0  0  0  0  0  0  0  0  0  0
   -1.9636   -3.0987   -0.8154 N   0  0  0  0  0  0  0  0  0  0  0  0
   -1.5221    1.5532   -0.5874 H   0  0  0  0  0  0  0  0  0  0  0  0
    1.0425    0.2589    0.0944 H   0  0  0  0  0  0  0  0  0  0  0  0
    1.0005   -0.4702   -2.3780 H   0  0  0  0  0  0  0  0  0  0  0  0
   -0.5622    0.2874   -2.5477 H   0  0  0  0  0  0  0  0  0  0  0  0
    1.0925   -2.4646   -0.5021 H   0  0  0  0  0  0  0  0  0  0  0  0
   -2.8068   -1.4499   -1.7977 H   0  0  0  0  0  0  0  0  0  0  0  0
   -0.4924   -4.3743    0.1110 H   0  0  0  0  0  0  0  0  0  0  0  0
   -2.8056   -3.6585   -0.7142 H   0  0  0  0  0  0  0  0  0  0  0  0
    1.9161    1.6576   -2.3582 N   0  0  0  0  0  0  0  0  0  0  0  0
    2.7443    2.6153   -3.0551 C   0  0  2  0  0  0  0  0  0  0  0  0
    1.9215    3.8783   -3.2728 C   0  0  0  0  0  0  0  0  0  0  0  0
    0.6923    3.8859   -3.2748 O   0  0  0  0  0  0  0  0  0  0  0  0
    3.2425    2.0564   -4.3788 C   0  0  0  0  0  0  0  0  0  0  0  0
    1.8529    0.7143   -2.7295 H   0  0  0  0  0  0  0  0  0  0  0  0
    3.5910    2.8393   -2.3971 H   0  0  0  0  0  0  0  0  0  0  0  0
    2.4083    1.8259   -5.0514 H   0  0  0  0  0  0  0  0  0  0  0  0
    3.8929    2.7722   -4.8921 H   0  0  0  0  0  0  0  0  0  0  0  0
    3.8089    1.1318   -4.2229 H   0  0  0  0  0  0  0  0  0  0  0  0
    2.7211    4.9881   -3.5074 N   0  0  0  0  0  0  0  0  0  0  0  0
    2.1767    6.3028   -3.7552 C   0  0  0  0  0  0  0  0  0  0  0  0
    3.7316    4.8932   -3.4684 H   0  0  0  0  0  0  0  0  0  0  0  0
    2.0605    6.4539   -4.8386 H   0  0  0  0  0  0  0  0  0  0  0  0
    1.1958    6.3917   -3.2654 H   0  0  0  0  0  0  0  0  0  0  0  0
    2.8592    7.0644   -3.3501 H   0  0  0  0  0  0  0  0  0  0  0  0
 22 24  2  0  0  0  0
 24 26  1  0  0  0  0
 25 26  1  0  0  0  0
 23 25  2  0  0  0  0
 21 22  1  0  0  0  0
 22 23  1  0  0  0  0
  1  3  1  0  0  0  0
  1  7  1  0  0  0  0
  1  2  2  0  0  0  0
 36 37  1  0  0  0  0
 37 45  1  0  0  0  0
 37 38  2  0  0  0  0
  8  9  1  0  0  0  0
  9 17  1  0  0  0  0
  9 10  2  0  0  0  0
 18 19  1  0  0  0  0
 19 35  1  0  0  0  0
 19 20  2  0  0  0  0
 36 39  1  0  0  0  0
  8 11  1  0  0  0  0
 45 46  1  0  0  0  0
 18 21  1  0  0  0  0
 35 36  1  0  0  0  0
  7  8  1  0  0  0  0
 17 18  1  0  0  0  0
 24 32  1  0  0  0  0
 25 33  1  0  0  0  0
  3  4  1  0  0  0  0
  3  5  1  0  0  0  0
  3  6  1  0  0  0  0
 39 42  1  0  0  0  0
 39 43  1  0  0  0  0
 39 44  1  0  0  0  0
 11 14  1  0  0  0  0
 11 15  1  0  0  0  0
 11 16  1  0  0  0  0
 46 48  1  0  0  0  0
 46 49  1  0  0  0  0
 46 50  1  0  0  0  0
 21 29  1  0  0  0  0
 21 30  1  0  0  0  0
 36 41  1  0  0  0  0
  8 13  1  0  0  0  0
 18 28  1  0  0  0  0
 26 34  1  0  0  0  0
 23 31  1  0  0  0  0
 45 47  1  0  0  0  0
  7 12  1  0  0  0  0
 35 40  1  0  0  0  0
 17 27  1  0  0  0  0
M  CHG  1  23   1
M  END
$$$$

  -OEChem-05262214473D

 50 50  0     1  0  0  0  0  0999 V2000
   -1.6938    0.4865    3.8080 C   0  0  0  0  0  0  0  0  0  0  0  0
   -0.7464   -0.1282    3.3323 O   0  0  0  0  0  0  0  0  0  0  0  0
   -2.1257    0.2041    5.2087 C   0  0  0  0  0  0  0  0  0  0  0  0
   -2.8853   -0.5922    5.2621 H   0  0  0  0  0  0  0  0  0  0  0  0
   -1.2944   -0.1435    5.8430 H   0  0  0  0  0  0  0  0  0  0  0  0
   -2.5637    1.0590    5.7483 H   0  0  0  0  0  0  0  0  0  0  0  0
   -2.4435    1.4589    3.1669 N   0  0  0  0  0  0  0  0  0  0  0  0
   -2.1966    1.8850    1.8145 C   0  0  2  0  0  0  0  0  0  0  0  0
   -0.8617    1.2996    1.3733 C   0  0  0  0  0  0  0  0  0  0  0  0
    0.0104    0.9468    2.1646 O   0  0  0  0  0  0  0  0  0  0  0  0
   -2.1879    3.4017    1.7050 C   0  0  0  0  0  0  0  0  0  0  0  0
   -3.2085    1.8948    3.6787 H   0  0  0  0  0  0  0  0  0  0  0  0
   -3.0007    1.4665    1.1994 H   0  0  0  0  0  0  0  0  0  0  0  0
   -1.3888    3.8390    2.3147 H   0  0  0  0  0  0  0  0  0  0  0  0
   -2.0284    3.7240    0.6708 H   0  0  0  0  0  0  0  0  0  0  0  0
   -3.1380    3.8230    2.0508 H   0  0  0  0  0  0  0  0  0  0  0  0
   -0.7390    1.2565   -0.0101 N   0  0  0  0  0  0  0  0  0  0  0  0
    0.4383    0.7557   -0.6738 C   0  0  2  0  0  0  0  0  0  0  0  0
    1.2029    1.9620   -1.2071 C   0  0  0  0  0  0  0  0  0  0  0  0
    1.4338    2.9610   -0.5292 O   0  0  0  0  0  0  0  0  0  0  0  0
    0.0937   -0.2050   -1.8176 C   0  0  0  0  0  0  0  0  0  0  0  0
   -0.5921   -1.4611   -1.3382 C   0  0  0  0  0  0  0  0  0  0  0  0
    0.0963   -2.4668   -0.7037 N   0  3  0  0  0  0  0  0  0  0  0  0
   -1.8967   -1.8610   -1.4084 C   0  0  0  0  0  0  0  0  0  0  0  0
   -0.7471   -3.4559   -0.3910 C   0  0  0  0  0  0  0  0  0  0  0  0
   -1.9636   -3.0987   -0.8154 N   0  0  0  0  0  0  0  0  0  0  0  0
   -1.5221    1.5532   -0.5874 H   0  0  0  0  0  0  0  0  0  0  0  0
    1.0425    0.2589    0.0944 H   0  0  0  0  0  0  0  0  0  0  0  0
    1.0005   -0.4702   -2.3780 H   0  0  0  0  0  0  0  0  0  0  0  0
   -0.5622    0.2874   -2.5477 H   0  0  0  0  0  0  0  0  0  0  0  0
    1.0925   -2.4646   -0.5021 H   0  0  0  0  0  0  0  0  0  0  0  0
   -2.8068   -1.4499   -1.7977 H   0  0  0  0  0  0  0  0  0  0  0  0
   -0.4924   -4.3743    0.1110 H   0  0  0  0  0  0  0  0  0  0  0  0
   -2.8056   -3.6585   -0.7142 H   0  0  0  0  0  0  0  0  0  0  0  0
    1.6374    1.7669   -2.5108 N   0  0  0  0  0  0  0  0  0  0  0  0
    2.4056    2.7456   -3.2461 C   0  0  2  0  0  0  0  0  0  0  0  0
    1.6919    4.0861   -3.1318 C   0  0  0  0  0  0  0  0  0  0  0  0
    0.4944    4.1886   -2.8737 O   0  0  0  0  0  0  0  0  0  0  0  0
    2.5698    2.3397   -4.7025 C   0  0  0  0  0  0  0  0  0  0  0  0
    1.4038    0.8921   -2.9712 H   0  0  0  0  0  0  0  0  0  0  0  0
    3.3848    2.8099   -2.7592 H   0  0  0  0  0  0  0  0  0  0  0  0
    1.5991    2.2701   -5.2069 H   0  0  0  0  0  0  0  0  0  0  0  0
    3.1760    3.0678   -5.2514 H   0  0  0  0  0  0  0  0  0  0  0  0
    3.0565    1.3616   -4.7820 H   0  0  0  0  0  0  0  0  0  0  0  0
    2.5399    5.1529   -3.3943 N   0  0  0  0  0  0  0  0  0  0  0  0
    2.0970    6.5273   -3.3618 C   0  0  0  0  0  0  0  0  0  0  0  0
    3.5226    4.9759   -3.5810 H   0  0  0  0  0  0  0  0  0  0  0  0
    1.7841    6.8362   -4.3701 H   0  0  0  0  0  0  0  0  0  0  0  0
    1.2478    6.6224   -2.6692 H   0  0  0  0  0  0  0  0  0  0  0  0
    2.9219    7.1702   -3.0209 H   0  0  0  0  0  0  0  0  0  0  0  0
 22 24  2  0  0  0  0
 24 26  1  0  0  0  0
 25 26  1  0  0  0  0
 23 25  2  0  0  0  0
 21 22  1  0  0  0  0
 22 23  1  0  0  0  0
  1  3  1  0  0  0  0
  1  7  1  0  0  0  0
  1  2  2  0  0  0  0
 36 37  1  0  0  0  0
 37 45  1  0  0  0  0
 37 38  2  0  0  0  0
  8  9  1  0  0  0  0
  9 17  1  0  0  0  0
  9 10  2  0  0  0  0
 18 19  1  0  0  0  0
 19 35  1  0  0  0  0
 19 20  2  0  0  0  0
 36 39  1  0  0  0  0
  8 11  1  0  0  0  0
 45 46  1  0  0  0  0
 18 21  1  0  0  0  0
 35 36  1  0  0  0  0
  7  8  1  0  0  0  0
 17 18  1  0  0  0  0
 24 32  1  0  0  0  0
 25 33  1  0  0  0  0
  3  4  1  0  0  0  0
  3  5  1  0  0  0  0
  3  6  1  0  0  0  0
 39 42  1  0  0  0  0
 39 43  1  0  0  0  0
 39 44  1  0  0  0  0
 11 14  1  0  0  0  0
 11 15  1  0  0  0  0
 11 16  1  0  0  0  0
 46 48  1  0  0  0  0
 46 49  1  0  0  0  0
 46 50  1  0  0  0  0
 21 29  1  0  0  0  0
 21 30  1  0  0  0  0
 36 41  1  0  0  0  0
  8 13  1  0  0  0  0
 18 28  1  0  0  0  0
 26 34  1  0  0  0  0
 23 31  1  0  0  0  0
 45 47  1  0  0  0  0
  7 12  1  0  0  0  0
 35 40  1  0  0  0  0
 17 27  1  0  0  0  0
M  CHG  1  23   1
M  END
$$$$

  -OEChem-05262214473D

 50 50  0     1  0  0  0  0  0999 V2000
   -1.6938    0.4865    3.8080 C   0  0  0  0  0  0  0  0  0  0  0  0
   -0.7464   -0.1282    3.3323 O   0  0  0  0  0  0  0  0  0  0  0  0
   -2.1257    0.2041    5.2087 C   0  0  0  0  0  0  0  0  0  0  0  0
   -2.8853   -0.5922    5.2621 H   0  0  0  0  0  0  0  0  0  0  0  0
   -1.2944   -0.1435    5.8430 H   0  0  0  0  0  0  0  0  0  0  0  0
   -2.5637    1.0590    5.7483 H   0  0  0  0  0  0  0  0  0  0  0  0
   -2.4435    1.4589    3.1669 N   0  0  0  0  0  0  0  0  0  0  0  0
   -2.1966    1.8850    1.8145 C   0  0  2  0  0  0  0  0  0  0  0  0
   -0.8617    1.2996    1.3733 C   0  0  0  0  0  0  0  0  0  0  0  0
    0.0104    0.9468    2.1646 O   0  0  0  0  0  0  0  0  0  0  0  0
   -2.1879    3.4017    1.7050 C   0  0  0  0  0  0  0  0  0  0  0  0
   -3.2085    1.8948    3.6787 H   0  0  0  0  0  0  0  0  0  0  0  0
   -3.0007    1.4665    1.1994 H   0  0  0  0  0  0  0  0  0  0  0  0
   -1.3888    3.8390    2.3147 H   0  0  0  0  0  0  0  0  0  0  0  0
   -2.0284    3.7240    0.6708 H   0  0  0  0  0  0  0  0  0  0  0  0
   -3.1380    3.8230    2.0508 H   0  0  0  0  0  0  0  0  0  0  0  0
   -0.7390    1.2565   -0.0101 N   0  0  0  0  0  0  0  0  0  0  0  0
    0.4383    0.7557   -0.6738 C   0  0  2  0  0  0  0  0  0  0  0  0
    1.2029    1.9620   -1.2071 C   0  0  0  0  0  0  0  0  0  0  0  0
    1.6666    2.8361   -0.4779 O   0  0  0  0  0  0  0  0  0  0  0  0
    0.0937   -0.2050   -1.8176 C   0  0  0  0  0  0  0  0  0  0  0  0
   -0.5921   -1.4611   -1.3382 C   0  0  0  0  0  0  0  0  0  0  0  0
    0.0963   -2.4668   -0.7037 N   0  3  0  0  0  0  0  0  0  0  0  0
   -1.8967   -1.8610   -1.4084 C   0  0  0  0  0  0  0  0  0  0  0  0
   -0.7471   -3.4559   -0.3910 C   0  0  0  0  0  0  0  0  0  0  0  0
   -1.9636   -3.0987   -0.8154 N   0  0  0  0  0  0  0  0  0  0  0  0
   -1.5221    1.5532   -0.5874 H   0  0  0  0  0  0  0  0  0  0  0  0
    1.0425    0.2589    0.0944 H   0  0  0  0  0  0  0  0  0  0  0  0
    1.0005   -0.4702   -2.3780 H   0  0  0  0  0  0  0  0  0  0  0  0
   -0.5622    0.2874   -2.5477 H   0  0  0  0  0  0  0  0  0  0  0  0
    1.0925   -2.4646   -0.5021 H   0  0  0  0  0  0  0  0  0  0  0  0
   -2.8068   -1.4499   -1.7977 H   0  0  0  0  0  0  0  0  0  0  0  0
   -0.4924   -4.3743    0.1110 H   0  0  0  0  0  0  0  0  0  0  0  0
   -2.8056   -3.6585   -0.7142 H   0  0  0  0  0  0  0  0  0  0  0  0
    1.3468    1.9174   -2.5869 N   0  0  0  0  0  0  0  0  0  0  0  0
    2.0511    2.9269   -3.3443 C   0  0  2  0  0  0  0  0  0  0  0  0
    1.5178    4.2894   -2.9216 C   0  0  0  0  0  0  0  0  0  0  0  0
    0.4128    4.4469   -2.4065 O   0  0  0  0  0  0  0  0  0  0  0  0
    1.8793    2.7163   -4.8406 C   0  0  0  0  0  0  0  0  0  0  0  0
    0.9366    1.1359   -3.0896 H   0  0  0  0  0  0  0  0  0  0  0  0
    3.1088    2.8471   -3.0706 H   0  0  0  0  0  0  0  0  0  0  0  0
    0.8258    2.7926   -5.1337 H   0  0  0  0  0  0  0  0  0  0  0  0
    2.4367    3.4648   -5.4132 H   0  0  0  0  0  0  0  0  0  0  0  0
    2.2360    1.7242   -5.1380 H   0  0  0  0  0  0  0  0  0  0  0  0
    2.4030    5.3139   -3.2266 N   0  0  0  0  0  0  0  0  0  0  0  0
    2.1209    6.7003   -2.9363 C   0  0  0  0  0  0  0  0  0  0  0  0
    3.3051    5.0894   -3.6361 H   0  0  0  0  0  0  0  0  0  0  0  0
    1.6477    7.1697   -3.8112 H   0  0  0  0  0  0  0  0  0  0  0  0
    1.4409    6.7631   -2.0739 H   0  0  0  0  0  0  0  0  0  0  0  0
    3.0595    7.2240   -2.7021 H   0  0  0  0  0  0  0  0  0  0  0  0
 22 24  2  0  0  0  0
 24 26  1  0  0  0  0
 25 26  1  0  0  0  0
 23 25  2  0  0  0  0
 21 22  1  0  0  0  0
 22 23  1  0  0  0  0
  1  3  1  0  0  0  0
  1  7  1  0  0  0  0
  1  2  2  0  0  0  0
 36 37  1  0  0  0  0
 37 45  1  0  0  0  0
 37 38  2  0  0  0  0
  8  9  1  0  0  0  0
  9 17  1  0  0  0  0
  9 10  2  0  0  0  0
 18 19  1  0  0  0  0
 19 35  1  0  0  0  0
 19 20  2  0  0  0  0
 36 39  1  0  0  0  0
  8 11  1  0  0  0  0
 45 46  1  0  0  0  0
 18 21  1  0  0  0  0
 35 36  1  0  0  0  0
  7  8  1  0  0  0  0
 17 18  1  0  0  0  0
 24 32  1  0  0  0  0
 25 33  1  0  0  0  0
  3  4  1  0  0  0  0
  3  5  1  0  0  0  0
  3  6  1  0  0  0  0
 39 42  1  0  0  0  0
 39 43  1  0  0  0  0
 39 44  1  0  0  0  0
 11 14  1  0  0  0  0
 11 15  1  0  0  0  0
 11 16  1  0  0  0  0
 46 48  1  0  0  0  0
 46 49  1  0  0  0  0
 46 50  1  0  0  0  0
 21 29  1  0  0  0  0
 21 30  1  0  0  0  0
 36 41  1  0  0  0  0
  8 13  1  0  0  0  0
 18 28  1  0  0  0  0
 26 34  1  0  0  0  0
 23 31  1  0  0  0  0
 45 47  1  0  0  0  0
  7 12  1  0  0  0  0
 35 40  1  0  0  0  0
 17 27  1  0  0  0  0
M  CHG  1  23   1
M  END
$$$$

  -OEChem-05262214473D

 50 50  0     1  0  0  0  0  0999 V2000
   -1.6938    0.4865    3.8080 C   0  0  0  0  0  0  0  0  0  0  0  0
   -0.7464   -0.1282    3.3323 O   0  0  0  0  0  0  0  0  0  0  0  0
   -2.1257    0.2041    5.2087 C   0  0  0  0  0  0  0  0  0  0  0  0
   -2.8853   -0.5922    5.2621 H   0  0  0  0  0  0  0  0  0  0  0  0
   -1.2944   -0.1435    5.8430 H   0  0  0  0  0  0  0  0  0  0  0  0
   -2.5637    1.0590    5.7483 H   0  0  0  0  0  0  0  0  0  0  0  0
   -2.4435    1.4589    3.1669 N   0  0  0  0  0  0  0  0  0  0  0  0
   -2.1966    1.8850    1.8145 C   0  0  2  0  0  0  0  0  0  0  0  0
   -0.8617    1.2996    1.3733 C   0  0  0  0  0  0  0  0  0  0  0  0
    0.0104    0.9468    2.1646 O   0  0  0  0  0  0  0  0  0  0  0  0
   -2.1879    3.4017    1.7050 C   0  0  0  0  0  0  0  0  0  0  0  0
   -3.2085    1.8948    3.6787 H   0  0  0  0  0  0  0  0  0  0  0  0
   -3.0007    1.4665    1.1994 H   0  0  0  0  0  0  0  0  0  0  0  0
   -1.3888    3.8390    2.3147 H   0  0  0  0  0  0  0  0  0  0  0  0
   -2.0284    3.7240    0.6708 H   0  0  0  0  0  0  0  0  0  0  0  0
   -3.1380    3.8230    2.0508 H   0  0  0  0  0  0  0  0  0  0  0  0
   -0.7390    1.2565   -0.0101 N   0  0  0  0  0  0  0  0  0  0  0  0
    0.4383    0.7557   -0.6738 C   0  0  2  0  0  0  0  0  0  0  0  0
    1.2029    1.9620   -1.2071 C   0  0  0  0  0  0  0  0  0  0  0  0
    1.8907    2.6877   -0.4922 O   0  0  0  0  0  0  0  0  0  0  0  0
    0.0937   -0.2050   -1.8176 C   0  0  0  0  0  0  0  0  0  0  0  0
   -0.5921   -1.4611   -1.3382 C   0  0  0  0  0  0  0  0  0  0  0  0
    0.0963   -2.4668   -0.7037 N   0  3  0  0  0  0  0  0  0  0  0  0
   -1.8967   -1.8610   -1.4084 C   0  0  0  0  0  0  0  0  0  0  0  0
   -0.7471   -3.4559   -0.3910 C   0  0  0  0  0  0  0  0  0  0  0  0
   -1.9636   -3.0987   -0.8154 N   0  0  0  0  0  0  0  0  0  0  0  0
   -1.5221    1.5532   -0.5874 H   0  0  0  0  0  0  0  0  0  0  0  0
    1.0425    0.2589    0.0944 H   0  0  0  0  0  0  0  0  0  0  0  0
    1.0005   -0.4702   -2.3780 H   0  0  0  0  0  0  0  0  0  0  0  0
   -0.5622    0.2874   -2.5477 H   0  0  0  0  0  0  0  0  0  0  0  0
    1.0925   -2.4646   -0.5021 H   0  0  0  0  0  0  0  0  0  0  0  0
   -2.8068   -1.4499   -1.7977 H   0  0  0  0  0  0  0  0  0  0  0  0
   -0.4924   -4.3743    0.1110 H   0  0  0  0  0  0  0  0  0  0  0  0
   -2.8056   -3.6585   -0.7142 H   0  0  0  0  0  0  0  0  0  0  0  0
    1.0642    2.0990   -2.5813 N   0  0  0  0  0  0  0  0  0  0  0  0
    1.7050    3.1468   -3.3430 C   0  0  2  0  0  0  0  0  0  0  0  0
    1.4111    4.4742   -2.6566 C   0  0  0  0  0  0  0  0  0  0  0  0
    0.4531    4.6431   -1.9050 O   0  0  0  0  0  0  0  0  0  0  0  0
    1.2181    3.1605   -4.7837 C   0  0  0  0  0  0  0  0  0  0  0  0
    0.4831    1.4291   -3.0766 H   0  0  0  0  0  0  0  0  0  0  0  0
    2.7818    2.9485   -3.3101 H   0  0  0  0  0  0  0  0  0  0  0  0
    0.1412    3.3577   -4.8368 H   0  0  0  0  0  0  0  0  0  0  0  0
    1.7254    3.9363   -5.3666 H   0  0  0  0  0  0  0  0  0  0  0  0
    1.4034    2.1950   -5.2668 H   0  0  0  0  0  0  0  0  0  0  0  0
    2.3197    5.4599   -3.0157 N   0  0  0  0  0  0  0  0  0  0  0  0
    2.2468    6.8099   -2.5077 C   0  0  0  0  0  0  0  0  0  0  0  0
    3.0940    5.2259   -3.6301 H   0  0  0  0  0  0  0  0  0  0  0  0
    1.6605    7.4317   -3.2002 H   0  0  0  0  0  0  0  0  0  0  0  0
    1.7621    6.8043   -1.5202 H   0  0  0  0  0  0  0  0  0  0  0  0
    3.2625    7.2221   -2.4153 H   0  0  0  0  0  0  0  0  0  0  0  0
 22 24  2  0  0  0  0
 24 26  1  0  0  0  0
 25 26  1  0  0  0  0
 23 25  2  0  0  0  0
 21 22  1  0  0  0  0
 22 23  1  0  0  0  0
  1  3  1  0  0  0  0
  1  7  1  0  0  0  0
  1  2  2  0  0  0  0
 36 37  1  0  0  0  0
 37 45  1  0  0  0  0
 37 38  2  0  0  0  0
  8  9  1  0  0  0  0
  9 17  1  0  0  0  0
  9 10  2  0  0  0  0
 18 19  1  0  0  0  0
 19 35  1  0  0  0  0
 19 20  2  0  0  0  0
 36 39  1  0  0  0  0
  8 11  1  0  0  0  0
 45 46  1  0  0  0  0
 18 21  1  0  0  0  0
 35 36  1  0  0  0  0
  7  8  1  0  0  0  0
 17 18  1  0  0  0  0
 24 32  1  0  0  0  0
 25 33  1  0  0  0  0
  3  4  1  0  0  0  0
  3  5  1  0  0  0  0
  3  6  1  0  0  0  0
 39 42  1  0  0  0  0
 39 43  1  0  0  0  0
 39 44  1  0  0  0  0
 11 14  1  0  0  0  0
 11 15  1  0  0  0  0
 11 16  1  0  0  0  0
 46 48  1  0  0  0  0
 46 49  1  0  0  0  0
 46 50  1  0  0  0  0
 21 29  1  0  0  0  0
 21 30  1  0  0  0  0
 36 41  1  0  0  0  0
  8 13  1  0  0  0  0
 18 28  1  0  0  0  0
 26 34  1  0  0  0  0
 23 31  1  0  0  0  0
 45 47  1  0  0  0  0
  7 12  1  0  0  0  0
 35 40  1  0  0  0  0
 17 27  1  0  0  0  0
M  CHG  1  23   1
M  END
$$$$

  -OEChem-05262214473D

 50 50  0     1  0  0  0  0  0999 V2000
   -1.6938    0.4865    3.8080 C   0  0  0  0  0  0  0  0  0  0  0  0
   -0.7464   -0.1282    3.3323 O   0  0  0  0  0  0  0  0  0  0  0  0
   -2.1257    0.2041    5.2087 C   0  0  0  0  0  0  0  0  0  0  0  0
   -2.8853   -0.5922    5.2621 H   0  0  0  0  0  0  0  0  0  0  0  0
   -1.2944   -0.1435    5.8430 H   0  0  0  0  0  0  0  0  0  0  0  0
   -2.5637    1.0590    5.7483 H   0  0  0  0  0  0  0  0  0  0  0  0
   -2.4435    1.4589    3.1669 N   0  0  0  0  0  0  0  0  0  0  0  0
   -2.1966    1.8850    1.8145 C   0  0  2  0  0  0  0  0  0  0  0  0
   -0.8617    1.2996    1.3733 C   0  0  0  0  0  0  0  0  0  0  0  0
    0.0104    0.9468    2.1646 O   0  0  0  0  0  0  0  0  0  0  0  0
   -2.1879    3.4017    1.7050 C   0  0  0  0  0  0  0  0  0  0  0  0
   -3.2085    1.8948    3.6787 H   0  0  0  0  0  0  0  0  0  0  0  0
   -3.0007    1.4665    1.1994 H   0  0  0  0  0  0  0  0  0  0  0  0
   -1.3888    3.8390    2.3147 H   0  0  0  0  0  0  0  0  0  0  0  0
   -2.0284    3.7240    0.6708 H   0  0  0  0  0  0  0  0  0  0  0  0
   -3.1380    3.8230    2.0508 H   0  0  0  0  0  0  0  0  0  0  0  0
   -0.7390    1.2565   -0.0101 N   0  0  0  0  0  0  0  0  0  0  0  0
    0.4383    0.7557   -0.6738 C   0  0  2  0  0  0  0  0  0  0  0  0
    1.2029    1.9620   -1.2071 C   0  0  0  0  0  0  0  0  0  0  0  0
    2.0908    2.5260   -0.5712 O   0  0  0  0  0  0  0  0  0  0  0  0
    0.0937   -0.2050   -1.8176 C   0  0  0  0  0  0  0  0  0  0  0  0
   -0.5921   -1.4611   -1.3382 C   0  0  0  0  0  0  0  0  0  0  0  0
    0.0963   -2.4668   -0.7037 N   0  3  0  0  0  0  0  0  0  0  0  0
   -1.8967   -1.8610   -1.4084 C   0  0  0  0  0  0  0  0  0  0  0  0
   -0.7471   -3.4559   -0.3910 C   0  0  0  0  0  0  0  0  0  0  0  0
   -1.9636   -3.0987   -0.8154 N   0  0  0  0  0  0  0  0  0  0  0  0
   -1.5221    1.5532   -0.5874 H   0  0  0  0  0  0  0  0  0  0  0  0
    1.0425    0.2589    0.0944 H   0  0  0  0  0  0  0  0  0  0  0  0
    1.0005   -0.4702   -2.3780 H   0  0  0  0  0  0  0  0  0  0  0  0
   -0.5622    0.2874   -2.5477 H   0  0  0  0  0  0  0  0  0  0  0  0
    1.0925   -2.4646   -0.5021 H   0  0  0  0  0  0  0  0  0  0  0  0
   -2.8068   -1.4499   -1.7977 H   0  0  0  0  0  0  0  0  0  0  0  0
   -0.4924   -4.3743    0.1110 H   0  0  0  0  0  0  0  0  0  0  0  0
   -2.8056   -3.6585   -0.7142 H   0  0  0  0  0  0  0  0  0  0  0  0
    0.8088    2.2993   -2.4945 N   0  0  0  0  0  0  0  0  0  0  0  0
    1.3908    3.3905   -3.2424 C   0  0  2  0  0  0  0  0  0  0  0  0
    1.3791    4.6280   -2.3547 C   0  0  0  0  0  0  0  0  0  0  0  0
    0.6125    4.7639   -1.4034 O   0  0  0  0  0  0  0  0  0  0  0  0
    0.6314    3.6420   -4.5357 C   0  0  0  0  0  0  0  0  0  0  0  0
    0.0743    1.7516   -2.9331 H   0  0  0  0  0  0  0  0  0  0  0  0
    2.4261    3.1071   -3.4612 H   0  0  0  0  0  0  0  0  0  0  0  0
   -0.4081    3.9271   -4.3365 H   0  0  0  0  0  0  0  0  0  0  0  0
    1.0905    4.4501   -5.1147 H   0  0  0  0  0  0  0  0  0  0  0  0
    0.6154    2.7419   -5.1596 H   0  0  0  0  0  0  0  0  0  0  0  0
    2.2956    5.5812   -2.7760 N   0  0  0  0  0  0  0  0  0  0  0  0
    2.4661    6.8489   -2.1053 C   0  0  0  0  0  0  0  0  0  0  0  0
    2.9037    5.3760   -3.5633 H   0  0  0  0  0  0  0  0  0  0  0  0
    1.8218    7.6043   -2.5787 H   0  0  0  0  0  0  0  0  0  0  0  0
    2.1895    6.7431   -1.0459 H   0  0  0  0  0  0  0  0  0  0  0  0
    3.5171    7.1647   -2.1801 H   0  0  0  0  0  0  0  0  0  0  0  0
 22 24  2  0  0  0  0
 24 26  1  0  0  0  0
 25 26  1  0  0  0  0
 23 25  2  0  0  0  0
 21 22  1  0  0  0  0
 22 23  1  0  0  0  0
  1  3  1  0  0  0  0
  1  7  1  0  0  0  0
  1  2  2  0  0  0  0
 36 37  1  0  0  0  0
 37 45  1  0  0  0  0
 37 38  2  0  0  0  0
  8  9  1  0  0  0  0
  9 17  1  0  0  0  0
  9 10  2  0  0  0  0
 18 19  1  0  0  0  0
 19 35  1  0  0  0  0
 19 20  2  0  0  0  0
 36 39  1  0  0  0  0
  8 11  1  0  0  0  0
 45 46  1  0  0  0  0
 18 21  1  0  0  0  0
 35 36  1  0  0  0  0
  7  8  1  0  0  0  0
 17 18  1  0  0  0  0
 24 32  1  0  0  0  0
 25 33  1  0  0  0  0
  3  4  1  0  0  0  0
  3  5  1  0  0  0  0
  3  6  1  0  0  0  0
 39 42  1  0  0  0  0
 39 43  1  0  0  0  0
 39 44  1  0  0  0  0
 11 14  1  0  0  0  0
 11 15  1  0  0  0  0
 11 16  1  0  0  0  0
 46 48  1  0  0  0  0
 46 49  1  0  0  0  0
 46 50  1  0  0  0  0
 21 29  1  0  0  0  0
 21 30  1  0  0  0  0
 36 41  1  0  0  0  0
  8 13  1  0  0  0  0
 18 28  1  0  0  0  0
 26 34  1  0  0  0  0
 23 31  1  0  0  0  0
 45 47  1  0  0  0  0
  7 12  1  0  0  0  0
 35 40  1  0  0  0  0
 17 27  1  0  0  0  0
M  CHG  1  23   1
M  END
$$$$

  -OEChem-05262214473D

 50 50  0     1  0  0  0  0  0999 V2000
   -1.6938    0.4865    3.8080 C   0  0  0  0  0  0  0  0  0  0  0  0
   -0.7464   -0.1282    3.3323 O   0  0  0  0  0  0  0  0  0  0  0  0
   -2.1257    0.2041    5.2087 C   0  0  0  0  0  0  0  0  0  0  0  0
   -2.8853   -0.5922    5.2621 H   0  0  0  0  0  0  0  0  0  0  0  0
   -1.2944   -0.1435    5.8430 H   0  0  0  0  0  0  0  0  0  0  0  0
   -2.5637    1.0590    5.7483 H   0  0  0  0  0  0  0  0  0  0  0  0
   -2.4435    1.4589    3.1669 N   0  0  0  0  0  0  0  0  0  0  0  0
   -2.1966    1.8850    1.8145 C   0  0  2  0  0  0  0  0  0  0  0  0
   -0.8617    1.2996    1.3733 C   0  0  0  0  0  0  0  0  0  0  0  0
    0.0104    0.9468    2.1646 O   0  0  0  0  0  0  0  0  0  0  0  0
   -2.1879    3.4017    1.7050 C   0  0  0  0  0  0  0  0  0  0  0  0
   -3.2085    1.8948    3.6787 H   0  0  0  0  0  0  0  0  0  0  0  0
   -3.0007    1.4665    1.1994 H   0  0  0  0  0  0  0  0  0  0  0  0
   -1.3888    3.8390    2.3147 H   0  0  0  0  0  0  0  0  0  0  0  0
   -2.0284    3.7240    0.6708 H   0  0  0  0  0  0  0  0  0  0  0  0
   -3.1380    3.8230    2.0508 H   0  0  0  0  0  0  0  0  0  0  0  0
   -0.7390    1.2565   -0.0101 N   0  0  0  0  0  0  0  0  0  0  0  0
    0.4383    0.7557   -0.6738 C   0  0  2  0  0  0  0  0  0  0  0  0
    1.2029    1.9620   -1.2071 C   0  0  0  0  0  0  0  0  0  0  0  0
    2.2533    2.3619   -0.7095 O   0  0  0  0  0  0  0  0  0  0  0  0
    0.0937   -0.2050   -1.8176 C   0  0  0  0  0  0  0  0  0  0  0  0
   -0.5921   -1.4611   -1.3382 C   0  0  0  0  0  0  0  0  0  0  0  0
    0.0963   -2.4668   -0.7037 N   0  3  0  0  0  0  0  0  0  0  0  0
   -1.8967   -1.8610   -1.4084 C   0  0  0  0  0  0  0  0  0  0  0  0
   -0.7471   -3.4559   -0.3910 C   0  0  0  0  0  0  0  0  0  0  0  0
   -1.9636   -3.0987   -0.8154 N   0  0  0  0  0  0  0  0  0  0  0  0
   -1.5221    1.5532   -0.5874 H   0  0  0  0  0  0  0  0  0  0  0  0
    1.0425    0.2589    0.0944 H   0  0  0  0  0  0  0  0  0  0  0  0
    1.0005   -0.4702   -2.3780 H   0  0  0  0  0  0  0  0  0  0  0  0
   -0.5622    0.2874   -2.5477 H   0  0  0  0  0  0  0  0  0  0  0  0
    1.0925   -2.4646   -0.5021 H   0  0  0  0  0  0  0  0  0  0  0  0
   -2.8068   -1.4499   -1.7977 H   0  0  0  0  0  0  0  0  0  0  0  0
   -0.4924   -4.3743    0.1110 H   0  0  0  0  0  0  0  0  0  0  0  0
   -2.8056   -3.6585   -0.7142 H   0  0  0  0  0  0  0  0  0  0  0  0
    0.5980    2.5046   -2.3323 N   0  0  0  0  0  0  0  0  0  0  0  0
    1.1300    3.6412   -3.0491 C   0  0  2  0  0  0  0  0  0  0  0  0
    1.4238    4.7402   -2.0366 C   0  0  0  0  0  0  0  0  0  0  0  0
    0.8801    4.8010   -0.9358 O   0  0  0  0  0  0  0  0  0  0  0  0
    0.1590    4.1281   -4.1134 C   0  0  0  0  0  0  0  0  0  0  0  0
   -0.2619    2.0815   -2.6690 H   0  0  0  0  0  0  0  0  0  0  0  0
    2.0659    3.3122   -3.5138 H   0  0  0  0  0  0  0  0  0  0  0  0
   -0.7847    4.4619   -3.6668 H   0  0  0  0  0  0  0  0  0  0  0  0
    0.5754    4.9711   -4.6747 H   0  0  0  0  0  0  0  0  0  0  0  0
   -0.0743    3.3275   -4.8237 H   0  0  0  0  0  0  0  0  0  0  0  0
    2.3325    5.6693   -2.5237 N   0  0  0  0  0  0  0  0  0  0  0  0
    2.7639    6.8144   -1.7564 C   0  0  0  0  0  0  0  0  0  0  0  0
    2.7471    5.5296   -3.4404 H   0  0  0  0  0  0  0  0  0  0  0  0
    2.1205    7.6757   -1.9889 H   0  0  0  0  0  0  0  0  0  0  0  0
    2.6940    6.5838   -0.6831 H   0  0  0  0  0  0  0  0  0  0  0  0
    3.8061    7.0557   -2.0125 H   0  0  0  0  0  0  0  0  0  0  0  0
 22 24  2  0  0  0  0
 24 26  1  0  0  0  0
 25 26  1  0  0  0  0
 23 25  2  0  0  0  0
 21 22  1  0  0  0  0
 22 23  1  0  0  0  0
  1  3  1  0  0  0  0
  1  7  1  0  0  0  0
  1  2  2  0  0  0  0
 36 37  1  0  0  0  0
 37 45  1  0  0  0  0
 37 38  2  0  0  0  0
  8  9  1  0  0  0  0
  9 17  1  0  0  0  0
  9 10  2  0  0  0  0
 18 19  1  0  0  0  0
 19 35  1  0  0  0  0
 19 20  2  0  0  0  0
 36 39  1  0  0  0  0
  8 11  1  0  0  0  0
 45 46  1  0  0  0  0
 18 21  1  0  0  0  0
 35 36  1  0  0  0  0
  7  8  1  0  0  0  0
 17 18  1  0  0  0  0
 24 32  1  0  0  0  0
 25 33  1  0  0  0  0
  3  4  1  0  0  0  0
  3  5  1  0  0  0  0
  3  6  1  0  0  0  0
 39 42  1  0  0  0  0
 39 43  1  0  0  0  0
 39 44  1  0  0  0  0
 11 14  1  0  0  0  0
 11 15  1  0  0  0  0
 11 16  1  0  0  0  0
 46 48  1  0  0  0  0
 46 49  1  0  0  0  0
 46 50  1  0  0  0  0
 21 29  1  0  0  0  0
 21 30  1  0  0  0  0
 36 41  1  0  0  0  0
  8 13  1  0  0  0  0
 18 28  1  0  0  0  0
 26 34  1  0  0  0  0
 23 31  1  0  0  0  0
 45 47  1  0  0  0  0
  7 12  1  0  0  0  0
 35 40  1  0  0  0  0
 17 27  1  0  0  0  0
M  CHG  1  23   1
M  END
$$$$

  -OEChem-05262214473D

 50 50  0     1  0  0  0  0  0999 V2000
   -1.6938    0.4865    3.8080 C   0  0  0  0  0  0  0  0  0  0  0  0
   -0.7464   -0.1282    3.3323 O   0  0  0  0  0  0  0  0  0  0  0  0
   -2.1257    0.2041    5.2087 C   0  0  0  0  0  0  0  0  0  0  0  0
   -2.8853   -0.5922    5.2621 H   0  0  0  0  0  0  0  0  0  0  0  0
   -1.2944   -0.1435    5.8430 H   0  0  0  0  0  0  0  0  0  0  0  0
   -2.5637    1.0590    5.7483 H   0  0  0  0  0  0  0  0  0  0  0  0
   -2.4435    1.4589    3.1669 N   0  0  0  0  0  0  0  0  0  0  0  0
   -2.1966    1.8850    1.8145 C   0  0  2  0  0  0  0  0  0  0  0  0
   -0.8617    1.2996    1.3733 C   0  0  0  0  0  0  0  0  0  0  0  0
    0.0104    0.9468    2.1646 O   0  0  0  0  0  0  0  0  0  0  0  0
   -2.1879    3.4017    1.7050 C   0  0  0  0  0  0  0  0  0  0  0  0
   -3.2085    1.8948    3.6787 H   0  0  0  0  0  0  0  0  0  0  0  0
   -3.0007    1.4665    1.1994 H   0  0  0  0  0  0  0  0  0  0  0  0
   -1.3888    3.8390    2.3147 H   0  0  0  0  0  0  0  0  0  0  0  0
   -2.0284    3.7240    0.6708 H   0  0  0  0  0  0  0  0  0  0  0  0
   -3.1380    3.8230    2.0508 H   0  0  0  0  0  0  0  0  0  0  0  0
   -0.7390    1.2565   -0.0101 N   0  0  0  0  0  0  0  0  0  0  0  0
    0.4383    0.7557   -0.6738 C   0  0  2  0  0  0  0  0  0  0  0  0
    1.2029    1.9620   -1.2071 C   0  0  0  0  0  0  0  0  0  0  0  0
    2.3671    2.2066   -0.8976 O   0  0  0  0  0  0  0  0  0  0  0  0
    0.0937   -0.2050   -1.8176 C   0  0  0  0  0  0  0  0  0  0  0  0
   -0.5921   -1.4611   -1.3382 C   0  0  0  0  0  0  0  0  0  0  0  0
    0.0963   -2.4668   -0.7037 N   0  3  0  0  0  0  0  0  0  0  0  0
   -1.8967   -1.8610   -1.4084 C   0  0  0  0  0  0  0  0  0  0  0  0
   -0.7471   -3.4559   -0.3910 C   0  0  0  0  0  0  0  0  0  0  0  0
   -1.9636   -3.0987   -0.8154 N   0  0  0  0  0  0  0  0  0  0  0  0
   -1.5221    1.5532   -0.5874 H   0  0  0  0  0  0  0  0  0  0  0  0
    1.0425    0.2589    0.0944 H   0  0  0  0  0  0  0  0  0  0  0  0
    1.0005   -0.4702   -2.3780 H   0  0  0  0  0  0  0  0  0  0  0  0
   -0.5622    0.2874   -2.5477 H   0  0  0  0  0  0  0  0  0  0  0  0
    1.0925   -2.4646   -0.5021 H   0  0  0  0  0  0  0  0  0  0  0  0
   -2.8068   -1.4499   -1.7977 H   0  0  0  0  0  0  0  0  0  0  0  0
   -0.4924   -4.3743    0.1110 H   0  0  0  0  0  0  0  0  0  0  0  0
   -2.8056   -3.6585   -0.7142 H   0  0  0  0  0  0  0  0  0  0  0  0
    0.4462    2.7009   -2.1059 N   0  0  0  0  0  0  0  0  0  0  0  0
    0.9404    3.8819   -2.7766 C   0  0  2  0  0  0  0  0  0  0  0  0
    1.5424    4.8033   -1.7239 C   0  0  0  0  0  0  0  0  0  0  0  0
    1.2377    4.7519   -0.5342 O   0  0  0  0  0  0  0  0  0  0  0  0
   -0.1668    4.5856   -3.5458 C   0  0  0  0  0  0  0  0  0  0  0  0
   -0.5028    2.3964   -2.3021 H   0  0  0  0  0  0  0  0  0  0  0  0
    1.7258    3.5497   -3.4642 H   0  0  0  0  0  0  0  0  0  0  0  0
   -0.9629    4.9256   -2.8734 H   0  0  0  0  0  0  0  0  0  0  0  0
    0.2152    5.4639   -4.0765 H   0  0  0  0  0  0  0  0  0  0  0  0
   -0.6187    3.9121   -4.2820 H   0  0  0  0  0  0  0  0  0  0  0  0
    2.4277    5.7184   -2.2762 N   0  0  0  0  0  0  0  0  0  0  0  0
    3.1198    6.7088   -1.4849 C   0  0  0  0  0  0  0  0  0  0  0  0
    2.6350    5.6761   -3.2697 H   0  0  0  0  0  0  0  0  0  0  0  0
    2.5362    7.6411   -1.4712 H   0  0  0  0  0  0  0  0  0  0  0  0
    3.2411    6.3371   -0.4567 H   0  0  0  0  0  0  0  0  0  0  0  0
    4.1096    6.9024   -1.9240 H   0  0  0  0  0  0  0  0  0  0  0  0
 22 24  2  0  0  0  0
 24 26  1  0  0  0  0
 25 26  1  0  0  0  0
 23 25  2  0  0  0  0
 21 22  1  0  0  0  0
 22 23  1  0  0  0  0
  1  3  1  0  0  0  0
  1  7  1  0  0  0  0
  1  2  2  0  0  0  0
 36 37  1  0  0  0  0
 37 45  1  0  0  0  0
 37 38  2  0  0  0  0
  8  9  1  0  0  0  0
  9 17  1  0  0  0  0
  9 10  2  0  0  0  0
 18 19  1  0  0  0  0
 19 35  1  0  0  0  0
 19 20  2  0  0  0  0
 36 39  1  0  0  0  0
  8 11  1  0  0  0  0
 45 46  1  0  0  0  0
 18 21  1  0  0  0  0
 35 36  1  0  0  0  0
  7  8  1  0  0  0  0
 17 18  1  0  0  0  0
 24 32  1  0  0  0  0
 25 33  1  0  0  0  0
  3  4  1  0  0  0  0
  3  5  1  0  0  0  0
  3  6  1  0  0  0  0
 39 42  1  0  0  0  0
 39 43  1  0  0  0  0
 39 44  1  0  0  0  0
 11 14  1  0  0  0  0
 11 15  1  0  0  0  0
 11 16  1  0  0  0  0
 46 48  1  0  0  0  0
 46 49  1  0  0  0  0
 46 50  1  0  0  0  0
 21 29  1  0  0  0  0
 21 30  1  0  0  0  0
 36 41  1  0  0  0  0
  8 13  1  0  0  0  0
 18 28  1  0  0  0  0
 26 34  1  0  0  0  0
 23 31  1  0  0  0  0
 45 47  1  0  0  0  0
  7 12  1  0  0  0  0
 35 40  1  0  0  0  0
 17 27  1  0  0  0  0
M  CHG  1  23   1
M  END
$$$$

  -OEChem-05262214473D

 50 50  0     1  0  0  0  0  0999 V2000
   -1.6938    0.4865    3.8080 C   0  0  0  0  0  0  0  0  0  0  0  0
   -0.7464   -0.1282    3.3323 O   0  0  0  0  0  0  0  0  0  0  0  0
   -2.1257    0.2041    5.2087 C   0  0  0  0  0  0  0  0  0  0  0  0
   -2.8853   -0.5922    5.2621 H   0  0  0  0  0  0  0  0  0  0  0  0
   -1.2944   -0.1435    5.8430 H   0  0  0  0  0  0  0  0  0  0  0  0
   -2.5637    1.0590    5.7483 H   0  0  0  0  0  0  0  0  0  0  0  0
   -2.4435    1.4589    3.1669 N   0  0  0  0  0  0  0  0  0  0  0  0
   -2.1966    1.8850    1.8145 C   0  0  2  0  0  0  0  0  0  0  0  0
   -0.8617    1.2996    1.3733 C   0  0  0  0  0  0  0  0  0  0  0  0
    0.0104    0.9468    2.1646 O   0  0  0  0  0  0  0  0  0  0  0  0
   -2.1879    3.4017    1.7050 C   0  0  0  0  0  0  0  0  0  0  0  0
   -3.2085    1.8948    3.6787 H   0  0  0  0  0  0  0  0  0  0  0  0
   -3.0007    1.4665    1.1994 H   0  0  0  0  0  0  0  0  0  0  0  0
   -1.3888    3.8390    2.3147 H   0  0  0  0  0  0  0  0  0  0  0  0
   -2.0284    3.7240    0.6708 H   0  0  0  0  0  0  0  0  0  0  0  0
   -3.1380    3.8230    2.0508 H   0  0  0  0  0  0  0  0  0  0  0  0
   -0.7390    1.2565   -0.0101 N   0  0  0  0  0  0  0  0  0  0  0  0
    0.4383    0.7557   -0.6738 C   0  0  2  0  0  0  0  0  0  0  0  0
    1.2029    1.9620   -1.2071 C   0  0  0  0  0  0  0  0  0  0  0  0
    2.4244    2.0707   -1.1228 O   0  0  0  0  0  0  0  0  0  0  0  0
    0.0937   -0.2050   -1.8176 C   0  0  0  0  0  0  0  0  0  0  0  0
   -0.5921   -1.4611   -1.3382 C   0  0  0  0  0  0  0  0  0  0  0  0
    0.0963   -2.4668   -0.7037 N   0  3  0  0  0  0  0  0  0  0  0  0
   -1.8967   -1.8610   -1.4084 C   0  0  0  0  0  0  0  0  0  0  0  0
   -0.7471   -3.4559   -0.3910 C   0  0  0  0  0  0  0  0  0  0  0  0
   -1.9636   -3.0987   -0.8154 N   0  0  0  0  0  0  0  0  0  0  0  0
   -1.5221    1.5532   -0.5874 H   0  0  0  0  0  0  0  0  0  0  0  0
    1.0425    0.2589    0.0944 H   0  0  0  0  0  0  0  0  0  0  0  0
    1.0005   -0.4702   -2.3780 H   0  0  0  0  0  0  0  0  0  0  0  0
   -0.5622    0.2874   -2.5477 H   0  0  0  0  0  0  0  0  0  0  0  0
    1.0925   -2.4646   -0.5021 H   0  0  0  0  0  0  0  0  0  0  0  0
   -2.8068   -1.4499   -1.7977 H   0  0  0  0  0  0  0  0  0  0  0  0
   -0.4924   -4.3743    0.1110 H   0  0  0  0  0  0  0  0  0  0  0  0
   -2.8056   -3.6585   -0.7142 H   0  0  0  0  0  0  0  0  0  0  0  0
    0.3637    2.8749   -1.8306 N   0  0  0  0  0  0  0  0  0  0  0  0
    0.8349    4.0962   -2.4432 C   0  0  2  0  0  0  0  0  0  0  0  0
    1.7267    4.8129   -1.4380 C   0  0  0  0  0  0  0  0  0  0  0  0
    1.6609    4.6200   -0.2258 O   0  0  0  0  0  0  0  0  0  0  0  0
   -0.3238    4.9833   -2.8713 C   0  0  0  0  0  0  0  0  0  0  0  0
   -0.6318    2.6747   -1.8576 H   0  0  0  0  0  0  0  0  0  0  0  0
    1.4289    3.8035   -3.3158 H   0  0  0  0  0  0  0  0  0  0  0  0
   -0.9305    5.2867   -2.0104 H   0  0  0  0  0  0  0  0  0  0  0  0
    0.0343    5.8949   -3.3610 H   0  0  0  0  0  0  0  0  0  0  0  0
   -0.9806    4.4557   -3.5714 H   0  0  0  0  0  0  0  0  0  0  0  0
    2.5748    5.7251   -2.0502 N   0  0  0  0  0  0  0  0  0  0  0  0
    3.5097    6.5394   -1.3093 C   0  0  0  0  0  0  0  0  0  0  0  0
    2.5749    5.8057   -3.0628 H   0  0  0  0  0  0  0  0  0  0  0  0
    3.0407    7.5028   -1.0607 H   0  0  0  0  0  0  0  0  0  0  0  0
    3.7936    6.0199   -0.3821 H   0  0  0  0  0  0  0  0  0  0  0  0
    4.4071    6.7154   -1.9205 H   0  0  0  0  0  0  0  0  0  0  0  0
 22 24  2  0  0  0  0
 24 26  1  0  0  0  0
 25 26  1  0  0  0  0
 23 25  2  0  0  0  0
 21 22  1  0  0  0  0
 22 23  1  0  0  0  0
  1  3  1  0  0  0  0
  1  7  1  0  0  0  0
  1  2  2  0  0  0  0
 36 37  1  0  0  0  0
 37 45  1  0  0  0  0
 37 38  2  0  0  0  0
  8  9  1  0  0  0  0
  9 17  1  0  0  0  0
  9 10  2  0  0  0  0
 18 19  1  0  0  0  0
 19 35  1  0  0  0  0
 19 20  2  0  0  0  0
 36 39  1  0  0  0  0
  8 11  1  0  0  0  0
 45 46  1  0  0  0  0
 18 21  1  0  0  0  0
 35 36  1  0  0  0  0
  7  8  1  0  0  0  0
 17 18  1  0  0  0  0
 24 32  1  0  0  0  0
 25 33  1  0  0  0  0
  3  4  1  0  0  0  0
  3  5  1  0  0  0  0
  3  6  1  0  0  0  0
 39 42  1  0  0  0  0
 39 43  1  0  0  0  0
 39 44  1  0  0  0  0
 11 14  1  0  0  0  0
 11 15  1  0  0  0  0
 11 16  1  0  0  0  0
 46 48  1  0  0  0  0
 46 49  1  0  0  0  0
 46 50  1  0  0  0  0
 21 29  1  0  0  0  0
 21 30  1  0  0  0  0
 36 41  1  0  0  0  0
  8 13  1  0  0  0  0
 18 28  1  0  0  0  0
 26 34  1  0  0  0  0
 23 31  1  0  0  0  0
 45 47  1  0  0  0  0
  7 12  1  0  0  0  0
 35 40  1  0  0  0  0
 17 27  1  0  0  0  0
M  CHG  1  23   1
M  END
$$$$

  -OEChem-05262214473D

 50 50  0     1  0  0  0  0  0999 V2000
   -1.6938    0.4865    3.8080 C   0  0  0  0  0  0  0  0  0  0  0  0
   -0.7464   -0.1282    3.3323 O   0  0  0  0  0  0  0  0  0  0  0  0
   -2.1257    0.2041    5.2087 C   0  0  0  0  0  0  0  0  0  0  0  0
   -2.8853   -0.5922    5.2621 H   0  0  0  0  0  0  0  0  0  0  0  0
   -1.2944   -0.1435    5.8430 H   0  0  0  0  0  0  0  0  0  0  0  0
   -2.5637    1.0590    5.7483 H   0  0  0  0  0  0  0  0  0  0  0  0
   -2.4435    1.4589    3.1669 N   0  0  0  0  0  0  0  0  0  0  0  0
   -2.1966    1.8850    1.8145 C   0  0  2  0  0  0  0  0  0  0  0  0
   -0.8617    1.2996    1.3733 C   0  0  0  0  0  0  0  0  0  0  0  0
    0.0104    0.9468    2.1646 O   0  0  0  0  0  0  0  0  0  0  0  0
   -2.1879    3.4017    1.7050 C   0  0  0  0  0  0  0  0  0  0  0  0
   -3.2085    1.8948    3.6787 H   0  0  0  0  0  0  0  0  0  0  0  0
   -3.0007    1.4665    1.1994 H   0  0  0  0  0  0  0  0  0  0  0  0
   -1.3888    3.8390    2.3147 H   0  0  0  0  0  0  0  0  0  0  0  0
   -2.0284    3.7240    0.6708 H   0  0  0  0  0  0  0  0  0  0  0  0
   -3.1380    3.8230    2.0508 H   0  0  0  0  0  0  0  0  0  0  0  0
   -0.7390    1.2565   -0.0101 N   0  0  0  0  0  0  0  0  0  0  0  0
    0.4383    0.7557   -0.6738 C   0  0  2  0  0  0  0  0  0  0  0  0
    1.2029    1.9620   -1.2071 C   0  0  0  0  0  0  0  0  0  0  0  0
    2.4213    1.9635   -1.3697 O   0  0  0  0  0  0  0  0  0  0  0  0
    0.0937   -0.2050   -1.8176 C   0  0  0  0  0  0  0  0  0  0  0  0
   -0.5921   -1.4611   -1.3382 C   0  0  0  0  0  0  0  0  0  0  0  0
    0.0963   -2.4668   -0.7037 N   0  3  0  0  0  0  0  0  0  0  0  0
   -1.8967   -1.8610   -1.4084 C   0  0  0  0  0  0  0  0  0  0  0  0
   -0.7471   -3.4559   -0.3910 C   0  0  0  0  0  0  0  0  0  0  0  0
   -1.9636   -3.0987   -0.8154 N   0  0  0  0  0  0  0  0  0  0  0  0
   -1.5221    1.5532   -0.5874 H   0  0  0  0  0  0  0  0  0  0  0  0
    1.0425    0.2589    0.0944 H   0  0  0  0  0  0  0  0  0  0  0  0
    1.0005   -0.4702   -2.3780 H   0  0  0  0  0  0  0  0  0  0  0  0
   -0.5622    0.2874   -2.5477 H   0  0  0  0  0  0  0  0  0  0  0  0
    1.0925   -2.4646   -0.5021 H   0  0  0  0  0  0  0  0  0  0  0  0
   -2.8068   -1.4499   -1.7977 H   0  0  0  0  0  0  0  0  0  0  0  0
   -0.4924   -4.3743    0.1110 H   0  0  0  0  0  0  0  0  0  0  0  0
   -2.8056   -3.6585   -0.7142 H   0  0  0  0  0  0  0  0  0  0  0  0
    0.3561    3.0148   -1.5251 N   0  0  0  0  0  0  0  0  0  0  0  0
    0.8206    4.2694   -2.0718 C   0  0  2  0  0  0  0  0  0  0  0  0
    1.9641    4.7684   -1.1983 C   0  0  0  0  0  0  0  0  0  0  0  0
    2.1209    4.4142   -0.0317 O   0  0  0  0  0  0  0  0  0  0  0  0
   -0.3013    5.2941   -2.1361 C   0  0  0  0  0  0  0  0  0  0  0  0
   -0.6402    2.8975   -1.3657 H   0  0  0  0  0  0  0  0  0  0  0  0
    1.1956    4.0562   -3.0787 H   0  0  0  0  0  0  0  0  0  0  0  0
   -0.6898    5.5205   -1.1365 H   0  0  0  0  0  0  0  0  0  0  0  0
    0.0452    6.2347   -2.5769 H   0  0  0  0  0  0  0  0  0  0  0  0
   -1.1355    4.9213   -2.7403 H   0  0  0  0  0  0  0  0  0  0  0  0
    2.7638    5.6889   -1.8612 N   0  0  0  0  0  0  0  0  0  0  0  0
    3.9069    6.3176   -1.2414 C   0  0  0  0  0  0  0  0  0  0  0  0
    2.5710    5.9094   -2.8338 H   0  0  0  0  0  0  0  0  0  0  0  0
    3.5995    7.2703   -0.7855 H   0  0  0  0  0  0  0  0  0  0  0  0
    4.3138    5.6538   -0.4644 H   0  0  0  0  0  0  0  0  0  0  0  0
    4.6782    6.5074   -2.0023 H   0  0  0  0  0  0  0  0  0  0  0  0
 22 24  2  0  0  0  0
 24 26  1  0  0  0  0
 25 26  1  0  0  0  0
 23 25  2  0  0  0  0
 21 22  1  0  0  0  0
 22 23  1  0  0  0  0
  1  3  1  0  0  0  0
  1  7  1  0  0  0  0
  1  2  2  0  0  0  0
 36 37  1  0  0  0  0
 37 45  1  0  0  0  0
 37 38  2  0  0  0  0
  8  9  1  0  0  0  0
  9 17  1  0  0  0  0
  9 10  2  0  0  0  0
 18 19  1  0  0  0  0
 19 35  1  0  0  0  0
 19 20  2  0  0  0  0
 36 39  1  0  0  0  0
  8 11  1  0  0  0  0
 45 46  1  0  0  0  0
 18 21  1  0  0  0  0
 35 36  1  0  0  0  0
  7  8  1  0  0  0  0
 17 18  1  0  0  0  0
 24 32  1  0  0  0  0
 25 33  1  0  0  0  0
  3  4  1  0  0  0  0
  3  5  1  0  0  0  0
  3  6  1  0  0  0  0
 39 42  1  0  0  0  0
 39 43  1  0  0  0  0
 39 44  1  0  0  0  0
 11 14  1  0  0  0  0
 11 15  1  0  0  0  0
 11 16  1  0  0  0  0
 46 48  1  0  0  0  0
 46 49  1  0  0  0  0
 46 50  1  0  0  0  0
 21 29  1  0  0  0  0
 21 30  1  0  0  0  0
 36 41  1  0  0  0  0
  8 13  1  0  0  0  0
 18 28  1  0  0  0  0
 26 34  1  0  0  0  0
 23 31  1  0  0  0  0
 45 47  1  0  0  0  0
  7 12  1  0  0  0  0
 35 40  1  0  0  0  0
 17 27  1  0  0  0  0
M  CHG  1  23   1
M  END
$$$$

  -OEChem-05262214473D

 50 50  0     1  0  0  0  0  0999 V2000
   -1.6938    0.4865    3.8080 C   0  0  0  0  0  0  0  0  0  0  0  0
   -0.7464   -0.1282    3.3323 O   0  0  0  0  0  0  0  0  0  0  0  0
   -2.1257    0.2041    5.2087 C   0  0  0  0  0  0  0  0  0  0  0  0
   -2.8853   -0.5922    5.2621 H   0  0  0  0  0  0  0  0  0  0  0  0
   -1.2944   -0.1435    5.8430 H   0  0  0  0  0  0  0  0  0  0  0  0
   -2.5637    1.0590    5.7483 H   0  0  0  0  0  0  0  0  0  0  0  0
   -2.4435    1.4589    3.1669 N   0  0  0  0  0  0  0  0  0  0  0  0
   -2.1966    1.8850    1.8145 C   0  0  2  0  0  0  0  0  0  0  0  0
   -0.8617    1.2996    1.3733 C   0  0  0  0  0  0  0  0  0  0  0  0
    0.0104    0.9468    2.1646 O   0  0  0  0  0  0  0  0  0  0  0  0
   -2.1879    3.4017    1.7050 C   0  0  0  0  0  0  0  0  0  0  0  0
   -3.2085    1.8948    3.6787 H   0  0  0  0  0  0  0  0  0  0  0  0
   -3.0007    1.4665    1.1994 H   0  0  0  0  0  0  0  0  0  0  0  0
   -1.3888    3.8390    2.3147 H   0  0  0  0  0  0  0  0  0  0  0  0
   -2.0284    3.7240    0.6708 H   0  0  0  0  0  0  0  0  0  0  0  0
   -3.1380    3.8230    2.0508 H   0  0  0  0  0  0  0  0  0  0  0  0
   -0.7390    1.2565   -0.0101 N   0  0  0  0  0  0  0  0  0  0  0  0
    0.4383    0.7557   -0.6738 C   0  0  2  0  0  0  0  0  0  0  0  0
    1.2029    1.9620   -1.2071 C   0  0  0  0  0  0  0  0  0  0  0  0
    2.3580    1.8923   -1.6215 O   0  0  0  0  0  0  0  0  0  0  0  0
    0.0937   -0.2050   -1.8176 C   0  0  0  0  0  0  0  0  0  0  0  0
   -0.5921   -1.4611   -1.3382 C   0  0  0  0  0  0  0  0  0  0  0  0
    0.0963   -2.4668   -0.7037 N   0  3  0  0  0  0  0  0  0  0  0  0
   -1.8967   -1.8610   -1.4084 C   0  0  0  0  0  0  0  0  0  0  0  0
   -0.7471   -3.4559   -0.3910 C   0  0  0  0  0  0  0  0  0  0  0  0
   -1.9636   -3.0987   -0.8154 N   0  0  0  0  0  0  0  0  0  0  0  0
   -1.5221    1.5532   -0.5874 H   0  0  0  0  0  0  0  0  0  0  0  0
    1.0425    0.2589    0.0944 H   0  0  0  0  0  0  0  0  0  0  0  0
    1.0005   -0.4702   -2.3780 H   0  0  0  0  0  0  0  0  0  0  0  0
   -0.5622    0.2874   -2.5477 H   0  0  0  0  0  0  0  0  0  0  0  0
    1.0925   -2.4646   -0.5021 H   0  0  0  0  0  0  0  0  0  0  0  0
   -2.8068   -1.4499   -1.7977 H   0  0  0  0  0  0  0  0  0  0  0  0
   -0.4924   -4.3743    0.1110 H   0  0  0  0  0  0  0  0  0  0  0  0
   -2.8056   -3.6585   -0.7142 H   0  0  0  0  0  0  0  0  0  0  0  0
    0.4240    3.1108   -1.2104 N   0  0  0  0  0  0  0  0  0  0  0  0
    0.8985    4.3899   -1.6876 C   0  0  2  0  0  0  0  0  0  0  0  0
    2.2385    4.6728   -1.0212 C   0  0  0  0  0  0  0  0  0  0  0  0
    2.5864    4.1486    0.0348 O   0  0  0  0  0  0  0  0  0  0  0  0
   -0.1009    5.4968   -1.3902 C   0  0  0  0  0  0  0  0  0  0  0  0
   -0.5273    3.0496   -0.8598 H   0  0  0  0  0  0  0  0  0  0  0  0
    1.0416    4.2907   -2.7691 H   0  0  0  0  0  0  0  0  0  0  0  0
   -0.2572    5.6111   -0.3113 H   0  0  0  0  0  0  0  0  0  0  0  0
    0.2470    6.4601   -1.7776 H   0  0  0  0  0  0  0  0  0  0  0  0
   -1.0727    5.2771   -1.8454 H   0  0  0  0  0  0  0  0  0  0  0  0
    2.9818    5.6122   -1.7220 N   0  0  0  0  0  0  0  0  0  0  0  0
    4.2843    6.0586   -1.2860 C   0  0  0  0  0  0  0  0  0  0  0  0
    2.6235    5.9803   -2.5983 H   0  0  0  0  0  0  0  0  0  0  0  0
    4.1746    6.9594   -0.6643 H   0  0  0  0  0  0  0  0  0  0  0  0
    4.7663    5.2638   -0.6979 H   0  0  0  0  0  0  0  0  0  0  0  0
    4.9045    6.2925   -2.1639 H   0  0  0  0  0  0  0  0  0  0  0  0
 22 24  2  0  0  0  0
 24 26  1  0  0  0  0
 25 26  1  0  0  0  0
 23 25  2  0  0  0  0
 21 22  1  0  0  0  0
 22 23  1  0  0  0  0
  1  3  1  0  0  0  0
  1  7  1  0  0  0  0
  1  2  2  0  0  0  0
 36 37  1  0  0  0  0
 37 45  1  0  0  0  0
 37 38  2  0  0  0  0
  8  9  1  0  0  0  0
  9 17  1  0  0  0  0
  9 10  2  0  0  0  0
 18 19  1  0  0  0  0
 19 35  1  0  0  0  0
 19 20  2  0  0  0  0
 36 39  1  0  0  0  0
  8 11  1  0  0  0  0
 45 46  1  0  0  0  0
 18 21  1  0  0  0  0
 35 36  1  0  0  0  0
  7  8  1  0  0  0  0
 17 18  1  0  0  0  0
 24 32  1  0  0  0  0
 25 33  1  0  0  0  0
  3  4  1  0  0  0  0
  3  5  1  0  0  0  0
  3  6  1  0  0  0  0
 39 42  1  0  0  0  0
 39 43  1  0  0  0  0
 39 44  1  0  0  0  0
 11 14  1  0  0  0  0
 11 15  1  0  0  0  0
 11 16  1  0  0  0  0
 46 48  1  0  0  0  0
 46 49  1  0  0  0  0
 46 50  1  0  0  0  0
 21 29  1  0  0  0  0
 21 30  1  0  0  0  0
 36 41  1  0  0  0  0
  8 13  1  0  0  0  0
 18 28  1  0  0  0  0
 26 34  1  0  0  0  0
 23 31  1  0  0  0  0
 45 47  1  0  0  0  0
  7 12  1  0  0  0  0
 35 40  1  0  0  0  0
 17 27  1  0  0  0  0
M  CHG  1  23   1
M  END
$$$$

  -OEChem-05262214473D

 50 50  0     1  0  0  0  0  0999 V2000
   -1.6938    0.4865    3.8080 C   0  0  0  0  0  0  0  0  0  0  0  0
   -0.7464   -0.1282    3.3323 O   0  0  0  0  0  0  0  0  0  0  0  0
   -2.1257    0.2041    5.2087 C   0  0  0  0  0  0  0  0  0  0  0  0
   -2.8853   -0.5922    5.2621 H   0  0  0  0  0  0  0  0  0  0  0  0
   -1.2944   -0.1435    5.8430 H   0  0  0  0  0  0  0  0  0  0  0  0
   -2.5637    1.0590    5.7483 H   0  0  0  0  0  0  0  0  0  0  0  0
   -2.4435    1.4589    3.1669 N   0  0  0  0  0  0  0  0  0  0  0  0
   -2.1966    1.8850    1.8145 C   0  0  2  0  0  0  0  0  0  0  0  0
   -0.8617    1.2996    1.3733 C   0  0  0  0  0  0  0  0  0  0  0  0
    0.0104    0.9468    2.1646 O   0  0  0  0  0  0  0  0  0  0  0  0
   -2.1879    3.4017    1.7050 C   0  0  0  0  0  0  0  0  0  0  0  0
   -3.2085    1.8948    3.6787 H   0  0  0  0  0  0  0  0  0  0  0  0
   -3.0007    1.4665    1.1994 H   0  0  0  0  0  0  0  0  0  0  0  0
   -1.3888    3.8390    2.3147 H   0  0  0  0  0  0  0  0  0  0  0  0
   -2.0284    3.7240    0.6708 H   0  0  0  0  0  0  0  0  0  0  0  0
   -3.1380    3.8230    2.0508 H   0  0  0  0  0  0  0  0  0  0  0  0
   -0.7390    1.2565   -0.0101 N   0  0  0  0  0  0  0  0  0  0  0  0
    0.4383    0.7557   -0.6738 C   0  0  2  0  0  0  0  0  0  0  0  0
    1.2029    1.9620   -1.2071 C   0  0  0  0  0  0  0  0  0  0  0  0
    2.2389    1.8619   -1.8609 O   0  0  0  0  0  0  0  0  0  0  0  0
    0.0937   -0.2050   -1.8176 C   0  0  0  0  0  0  0  0  0  0  0  0
   -0.5921   -1.4611   -1.3382 C   0  0  0  0  0  0  0  0  0  0  0  0
    0.0963   -2.4668   -0.7037 N   0  3  0  0  0  0  0  0  0  0  0  0
   -1.8967   -1.8610   -1.4084 C   0  0  0  0  0  0  0  0  0  0  0  0
   -0.7471   -3.4559   -0.3910 C   0  0  0  0  0  0  0  0  0  0  0  0
   -1.9636   -3.0987   -0.8154 N   0  0  0  0  0  0  0  0  0  0  0  0
   -1.5221    1.5532   -0.5874 H   0  0  0  0  0  0  0  0  0  0  0  0
    1.0425    0.2589    0.0944 H   0  0  0  0  0  0  0  0  0  0  0  0
    1.0005   -0.4702   -2.3780 H   0  0  0  0  0  0  0  0  0  0  0  0
   -0.5622    0.2874   -2.5477 H   0  0  0  0  0  0  0  0  0  0  0  0
    1.0925   -2.4646   -0.5021 H   0  0  0  0  0  0  0  0  0  0  0  0
   -2.8068   -1.4499   -1.7977 H   0  0  0  0  0  0  0  0  0  0  0  0
   -0.4924   -4.3743    0.1110 H   0  0  0  0  0  0  0  0  0  0  0  0
   -2.8056   -3.6585   -0.7142 H   0  0  0  0  0  0  0  0  0  0  0  0
    0.5628    3.1567   -0.9079 N   0  0  0  0  0  0  0  0  0  0  0  0
    1.0634    4.4493   -1.3168 C   0  0  2  0  0  0  0  0  0  0  0  0
    2.5311    4.5326   -0.9187 C   0  0  0  0  0  0  0  0  0  0  0  0
    3.0256    3.8413   -0.0307 O   0  0  0  0  0  0  0  0  0  0  0  0
    0.2638    5.5777   -0.6844 C   0  0  0  0  0  0  0  0  0  0  0  0
   -0.3010    3.1206   -0.3746 H   0  0  0  0  0  0  0  0  0  0  0  0
    0.9775    4.4909   -2.4081 H   0  0  0  0  0  0  0  0  0  0  0  0
    0.3378    5.5523    0.4089 H   0  0  0  0  0  0  0  0  0  0  0  0
    0.6260    6.5559   -1.0176 H   0  0  0  0  0  0  0  0  0  0  0  0
   -0.7966    5.4990   -0.9476 H   0  0  0  0  0  0  0  0  0  0  0  0
    3.2139    5.5004   -1.6422 N   0  0  0  0  0  0  0  0  0  0  0  0
    4.6164    5.7801   -1.4400 C   0  0  0  0  0  0  0  0  0  0  0  0
    2.7288    6.0134   -2.3725 H   0  0  0  0  0  0  0  0  0  0  0  0
    4.7268    6.5913   -0.7053 H   0  0  0  0  0  0  0  0  0  0  0  0
    5.1203    4.8763   -1.0667 H   0  0  0  0  0  0  0  0  0  0  0  0
    5.0705    6.0855   -2.3942 H   0  0  0  0  0  0  0  0  0  0  0  0
 22 24  2  0  0  0  0
 24 26  1  0  0  0  0
 25 26  1  0  0  0  0
 23 25  2  0  0  0  0
 21 22  1  0  0  0  0
 22 23  1  0  0  0  0
  1  3  1  0  0  0  0
  1  7  1  0  0  0  0
  1  2  2  0  0  0  0
 36 37  1  0  0  0  0
 37 45  1  0  0  0  0
 37 38  2  0  0  0  0
  8  9  1  0  0  0  0
  9 17  1  0  0  0  0
  9 10  2  0  0  0  0
 18 19  1  0  0  0  0
 19 35  1  0  0  0  0
 19 20  2  0  0  0  0
 36 39  1  0  0  0  0
  8 11  1  0  0  0  0
 45 46  1  0  0  0  0
 18 21  1  0  0  0  0
 35 36  1  0  0  0  0
  7  8  1  0  0  0  0
 17 18  1  0  0  0  0
 24 32  1  0  0  0  0
 25 33  1  0  0  0  0
  3  4  1  0  0  0  0
  3  5  1  0  0  0  0
  3  6  1  0  0  0  0
 39 42  1  0  0  0  0
 39 43  1  0  0  0  0
 39 44  1  0  0  0  0
 11 14  1  0  0  0  0
 11 15  1  0  0  0  0
 11 16  1  0  0  0  0
 46 48  1  0  0  0  0
 46 49  1  0  0  0  0
 46 50  1  0  0  0  0
 21 29  1  0  0  0  0
 21 30  1  0  0  0  0
 36 41  1  0  0  0  0
  8 13  1  0  0  0  0
 18 28  1  0  0  0  0
 26 34  1  0  0  0  0
 23 31  1  0  0  0  0
 45 47  1  0  0  0  0
  7 12  1  0  0  0  0
 35 40  1  0  0  0  0
 17 27  1  0  0  0  0
M  CHG  1  23   1
M  END
$$$$

  -OEChem-05262214473D

 50 50  0     1  0  0  0  0  0999 V2000
   -1.6938    0.4865    3.8080 C   0  0  0  0  0  0  0  0  0  0  0  0
   -0.7464   -0.1282    3.3323 O   0  0  0  0  0  0  0  0  0  0  0  0
   -2.1257    0.2041    5.2087 C   0  0  0  0  0  0  0  0  0  0  0  0
   -2.8853   -0.5922    5.2621 H   0  0  0  0  0  0  0  0  0  0  0  0
   -1.2944   -0.1435    5.8430 H   0  0  0  0  0  0  0  0  0  0  0  0
   -2.5637    1.0590    5.7483 H   0  0  0  0  0  0  0  0  0  0  0  0
   -2.4435    1.4589    3.1669 N   0  0  0  0  0  0  0  0  0  0  0  0
   -2.1966    1.8850    1.8145 C   0  0  2  0  0  0  0  0  0  0  0  0
   -0.8617    1.2996    1.3733 C   0  0  0  0  0  0  0  0  0  0  0  0
    0.0104    0.9468    2.1646 O   0  0  0  0  0  0  0  0  0  0  0  0
   -2.1879    3.4017    1.7050 C   0  0  0  0  0  0  0  0  0  0  0  0
   -3.2085    1.8948    3.6787 H   0  0  0  0  0  0  0  0  0  0  0  0
   -3.0007    1.4665    1.1994 H   0  0  0  0  0  0  0  0  0  0  0  0
   -1.3888    3.8390    2.3147 H   0  0  0  0  0  0  0  0  0  0  0  0
   -2.0284    3.7240    0.6708 H   0  0  0  0  0  0  0  0  0  0  0  0
   -3.1380    3.8230    2.0508 H   0  0  0  0  0  0  0  0  0  0  0  0
   -0.7390    1.2565   -0.0101 N   0  0  0  0  0  0  0  0  0  0  0  0
    0.4383    0.7557   -0.6738 C   0  0  2  0  0  0  0  0  0  0  0  0
    1.2029    1.9620   -1.2071 C   0  0  0  0  0  0  0  0  0  0  0  0
    2.0721    1.8744   -2.0718 O   0  0  0  0  0  0  0  0  0  0  0  0
    0.0937   -0.2050   -1.8176 C   0  0  0  0  0  0  0  0  0  0  0  0
   -0.5921   -1.4611   -1.3382 C   0  0  0  0  0  0  0  0  0  0  0  0
    0.0963   -2.4668   -0.7037 N   0  3  0  0  0  0  0  0  0  0  0  0
   -1.8967   -1.8610   -1.4084 C   0  0  0  0  0  0  0  0  0  0  0  0
   -0.7471   -3.4559   -0.3910 C   0  0  0  0  0  0  0  0  0  0  0  0
   -1.9636   -3.0987   -0.8154 N   0  0  0  0  0  0  0  0  0  0  0  0
   -1.5221    1.5532   -0.5874 H   0  0  0  0  0  0  0  0  0  0  0  0
    1.0425    0.2589    0.0944 H   0  0  0  0  0  0  0  0  0  0  0  0
    1.0005   -0.4702   -2.3780 H   0  0  0  0  0  0  0  0  0  0  0  0
   -0.5622    0.2874   -2.5477 H   0  0  0  0  0  0  0  0  0  0  0  0
    1.0925   -2.4646   -0.5021 H   0  0  0  0  0  0  0  0  0  0  0  0
   -2.8068   -1.4499   -1.7977 H   0  0  0  0  0  0  0  0  0  0  0  0
   -0.4924   -4.3743    0.1110 H   0  0  0  0  0  0  0  0  0  0  0  0
   -2.8056   -3.6585   -0.7142 H   0  0  0  0  0  0  0  0  0  0  0  0
    0.7629    3.1491   -0.6381 N   0  0  0  0  0  0  0  0  0  0  0  0
    1.3040    4.4436   -0.9847 C   0  0  2  0  0  0  0  0  0  0  0  0
    2.8221    4.3574   -0.8979 C   0  0  0  0  0  0  0  0  0  0  0  0
    3.4085    3.5131   -0.2239 O   0  0  0  0  0  0  0  0  0  0  0  0
    0.7679    5.5312   -0.0669 C   0  0  0  0  0  0  0  0  0  0  0  0
    0.0234    3.1058    0.0569 H   0  0  0  0  0  0  0  0  0  0  0  0
    1.0076    4.6433   -2.0203 H   0  0  0  0  0  0  0  0  0  0  0  0
    1.0548    5.3482    0.9751 H   0  0  0  0  0  0  0  0  0  0  0  0
    1.1565    6.5154   -0.3487 H   0  0  0  0  0  0  0  0  0  0  0  0
   -0.3259    5.5718   -0.1082 H   0  0  0  0  0  0  0  0  0  0  0  0
    3.4443    5.3610   -1.6271 N   0  0  0  0  0  0  0  0  0  0  0  0
    4.8803    5.5010   -1.6929 C   0  0  0  0  0  0  0  0  0  0  0  0
    2.8798    6.0065   -2.1716 H   0  0  0  0  0  0  0  0  0  0  0  0
    5.2185    6.1910   -0.9058 H   0  0  0  0  0  0  0  0  0  0  0  0
    5.3515    4.5179   -1.5458 H   0  0  0  0  0  0  0  0  0  0  0  0
    5.1649    5.9003   -2.6776 H   0  0  0  0  0  0  0  0  0  0  0  0
 22 24  2  0  0  0  0
 24 26  1  0  0  0  0
 25 26  1  0  0  0  0
 23 25  2  0  0  0  0
 21 22  1  0  0  0  0
 22 23  1  0  0  0  0
  1  3  1  0  0  0  0
  1  7  1  0  0  0  0
  1  2  2  0  0  0  0
 36 37  1  0  0  0  0
 37 45  1  0  0  0  0
 37 38  2  0  0  0  0
  8  9  1  0  0  0  0
  9 17  1  0  0  0  0
  9 10  2  0  0  0  0
 18 19  1  0  0  0  0
 19 35  1  0  0  0  0
 19 20  2  0  0  0  0
 36 39  1  0  0  0  0
  8 11  1  0  0  0  0
 45 46  1  0  0  0  0
 18 21  1  0  0  0  0
 35 36  1  0  0  0  0
  7  8  1  0  0  0  0
 17 18  1  0  0  0  0
 24 32  1  0  0  0  0
 25 33  1  0  0  0  0
  3  4  1  0  0  0  0
  3  5  1  0  0  0  0
  3  6  1  0  0  0  0
 39 42  1  0  0  0  0
 39 43  1  0  0  0  0
 39 44  1  0  0  0  0
 11 14  1  0  0  0  0
 11 15  1  0  0  0  0
 11 16  1  0  0  0  0
 46 48  1  0  0  0  0
 46 49  1  0  0  0  0
 46 50  1  0  0  0  0
 21 29  1  0  0  0  0
 21 30  1  0  0  0  0
 36 41  1  0  0  0  0
  8 13  1  0  0  0  0
 18 28  1  0  0  0  0
 26 34  1  0  0  0  0
 23 31  1  0  0  0  0
 45 47  1  0  0  0  0
  7 12  1  0  0  0  0
 35 40  1  0  0  0  0
 17 27  1  0  0  0  0
M  CHG  1  23   1
M  END
$$$$

  -OEChem-05262214473D

 50 50  0     1  0  0  0  0  0999 V2000
   -1.6938    0.4865    3.8080 C   0  0  0  0  0  0  0  0  0  0  0  0
   -0.7464   -0.1282    3.3323 O   0  0  0  0  0  0  0  0  0  0  0  0
   -2.1257    0.2041    5.2087 C   0  0  0  0  0  0  0  0  0  0  0  0
   -2.8853   -0.5922    5.2621 H   0  0  0  0  0  0  0  0  0  0  0  0
   -1.2944   -0.1435    5.8430 H   0  0  0  0  0  0  0  0  0  0  0  0
   -2.5637    1.0590    5.7483 H   0  0  0  0  0  0  0  0  0  0  0  0
   -2.4435    1.4589    3.1669 N   0  0  0  0  0  0  0  0  0  0  0  0
   -2.1966    1.8850    1.8145 C   0  0  2  0  0  0  0  0  0  0  0  0
   -0.8617    1.2996    1.3733 C   0  0  0  0  0  0  0  0  0  0  0  0
    0.0104    0.9468    2.1646 O   0  0  0  0  0  0  0  0  0  0  0  0
   -2.1879    3.4017    1.7050 C   0  0  0  0  0  0  0  0  0  0  0  0
   -3.2085    1.8948    3.6787 H   0  0  0  0  0  0  0  0  0  0  0  0
   -3.0007    1.4665    1.1994 H   0  0  0  0  0  0  0  0  0  0  0  0
   -1.3888    3.8390    2.3147 H   0  0  0  0  0  0  0  0  0  0  0  0
   -2.0284    3.7240    0.6708 H   0  0  0  0  0  0  0  0  0  0  0  0
   -3.1380    3.8230    2.0508 H   0  0  0  0  0  0  0  0  0  0  0  0
   -0.7390    1.2565   -0.0101 N   0  0  0  0  0  0  0  0  0  0  0  0
    0.4383    0.7557   -0.6738 C   0  0  2  0  0  0  0  0  0  0  0  0
    1.2029    1.9620   -1.2071 C   0  0  0  0  0  0  0  0  0  0  0  0
    1.8689    1.9290   -2.2397 O   0  0  0  0  0  0  0  0  0  0  0  0
    0.0937   -0.2050   -1.8176 C   0  0  0  0  0  0  0  0  0  0  0  0
   -0.5921   -1.4611   -1.3382 C   0  0  0  0  0  0  0  0  0  0  0  0
    0.0963   -2.4668   -0.7037 N   0  3  0  0  0  0  0  0  0  0  0  0
   -1.8967   -1.8610   -1.4084 C   0  0  0  0  0  0  0  0  0  0  0  0
   -0.7471   -3.4559   -0.3910 C   0  0  0  0  0  0  0  0  0  0  0  0
   -1.9636   -3.0987   -0.8154 N   0  0  0  0  0  0  0  0  0  0  0  0
   -1.5221    1.5532   -0.5874 H   0  0  0  0  0  0  0  0  0  0  0  0
    1.0425    0.2589    0.0944 H   0  0  0  0  0  0  0  0  0  0  0  0
    1.0005   -0.4702   -2.3780 H   0  0  0  0  0  0  0  0  0  0  0  0
   -0.5622    0.2874   -2.5477 H   0  0  0  0  0  0  0  0  0  0  0  0
    1.0925   -2.4646   -0.5021 H   0  0  0  0  0  0  0  0  0  0  0  0
   -2.8068   -1.4499   -1.7977 H   0  0  0  0  0  0  0  0  0  0  0  0
   -0.4924   -4.3743    0.1110 H   0  0  0  0  0  0  0  0  0  0  0  0
   -2.8056   -3.6585   -0.7142 H   0  0  0  0  0  0  0  0  0  0  0  0
    1.0108    3.0886   -0.4195 N   0  0  0  0  0  0  0  0  0  0  0  0
    1.6039    4.3733   -0.7140 C   0  0  2  0  0  0  0  0  0  0  0  0
    3.0915    4.1592   -0.9601 C   0  0  0  0  0  0  0  0  0  0  0  0
    3.7092    3.1866   -0.5315 O   0  0  0  0  0  0  0  0  0  0  0  0
    1.3771    5.3605    0.4203 C   0  0  0  0  0  0  0  0  0  0  0  0
    0.4239    3.0061    0.4054 H   0  0  0  0  0  0  0  0  0  0  0  0
    1.1300    4.7374   -1.6320 H   0  0  0  0  0  0  0  0  0  0  0  0
    1.8448    5.0126    1.3486 H   0  0  0  0  0  0  0  0  0  0  0  0
    1.8022    6.3414    0.1835 H   0  0  0  0  0  0  0  0  0  0  0  0
    0.3072    5.4906    0.6157 H   0  0  0  0  0  0  0  0  0  0  0  0
    3.6574    5.2035   -1.6778 N   0  0  0  0  0  0  0  0  0  0  0  0
    5.0582    5.2403   -2.0275 C   0  0  0  0  0  0  0  0  0  0  0  0
    3.0662    5.9601   -2.0093 H   0  0  0  0  0  0  0  0  0  0  0  0
    5.6160    5.7859   -1.2521 H   0  0  0  0  0  0  0  0  0  0  0  0
    5.4444    4.2130   -2.1024 H   0  0  0  0  0  0  0  0  0  0  0  0
    5.1814    5.7497   -2.9946 H   0  0  0  0  0  0  0  0  0  0  0  0
 22 24  2  0  0  0  0
 24 26  1  0  0  0  0
 25 26  1  0  0  0  0
 23 25  2  0  0  0  0
 21 22  1  0  0  0  0
 22 23  1  0  0  0  0
  1  3  1  0  0  0  0
  1  7  1  0  0  0  0
  1  2  2  0  0  0  0
 36 37  1  0  0  0  0
 37 45  1  0  0  0  0
 37 38  2  0  0  0  0
  8  9  1  0  0  0  0
  9 17  1  0  0  0  0
  9 10  2  0  0  0  0
 18 19  1  0  0  0  0
 19 35  1  0  0  0  0
 19 20  2  0  0  0  0
 36 39  1  0  0  0  0
  8 11  1  0  0  0  0
 45 46  1  0  0  0  0
 18 21  1  0  0  0  0
 35 36  1  0  0  0  0
  7  8  1  0  0  0  0
 17 18  1  0  0  0  0
 24 32  1  0  0  0  0
 25 33  1  0  0  0  0
  3  4  1  0  0  0  0
  3  5  1  0  0  0  0
  3  6  1  0  0  0  0
 39 42  1  0  0  0  0
 39 43  1  0  0  0  0
 39 44  1  0  0  0  0
 11 14  1  0  0  0  0
 11 15  1  0  0  0  0
 11 16  1  0  0  0  0
 46 48  1  0  0  0  0
 46 49  1  0  0  0  0
 46 50  1  0  0  0  0
 21 29  1  0  0  0  0
 21 30  1  0  0  0  0
 36 41  1  0  0  0  0
  8 13  1  0  0  0  0
 18 28  1  0  0  0  0
 26 34  1  0  0  0  0
 23 31  1  0  0  0  0
 45 47  1  0  0  0  0
  7 12  1  0  0  0  0
 35 40  1  0  0  0  0
 17 27  1  0  0  0  0
M  CHG  1  23   1
M  END
$$$$

  -OEChem-05262214473D

 50 50  0     1  0  0  0  0  0999 V2000
   -1.6938    0.4865    3.8080 C   0  0  0  0  0  0  0  0  0  0  0  0
   -0.7464   -0.1282    3.3323 O   0  0  0  0  0  0  0  0  0  0  0  0
   -2.1257    0.2041    5.2087 C   0  0  0  0  0  0  0  0  0  0  0  0
   -2.8853   -0.5922    5.2621 H   0  0  0  0  0  0  0  0  0  0  0  0
   -1.2944   -0.1435    5.8430 H   0  0  0  0  0  0  0  0  0  0  0  0
   -2.5637    1.0590    5.7483 H   0  0  0  0  0  0  0  0  0  0  0  0
   -2.4435    1.4589    3.1669 N   0  0  0  0  0  0  0  0  0  0  0  0
   -2.1966    1.8850    1.8145 C   0  0  2  0  0  0  0  0  0  0  0  0
   -0.8617    1.2996    1.3733 C   0  0  0  0  0  0  0  0  0  0  0  0
    0.0104    0.9468    2.1646 O   0  0  0  0  0  0  0  0  0  0  0  0
   -2.1879    3.4017    1.7050 C   0  0  0  0  0  0  0  0  0  0  0  0
   -3.2085    1.8948    3.6787 H   0  0  0  0  0  0  0  0  0  0  0  0
   -3.0007    1.4665    1.1994 H   0  0  0  0  0  0  0  0  0  0  0  0
   -1.3888    3.8390    2.3147 H   0  0  0  0  0  0  0  0  0  0  0  0
   -2.0284    3.7240    0.6708 H   0  0  0  0  0  0  0  0  0  0  0  0
   -3.1380    3.8230    2.0508 H   0  0  0  0  0  0  0  0  0  0  0  0
   -0.7390    1.2565   -0.0101 N   0  0  0  0  0  0  0  0  0  0  0  0
    0.4383    0.7557   -0.6738 C   0  0  2  0  0  0  0  0  0  0  0  0
    1.2029    1.9620   -1.2071 C   0  0  0  0  0  0  0  0  0  0  0  0
    1.6432    2.0219   -2.3532 O   0  0  0  0  0  0  0  0  0  0  0  0
    0.0937   -0.2050   -1.8176 C   0  0  0  0  0  0  0  0  0  0  0  0
   -0.5921   -1.4611   -1.3382 C   0  0  0  0  0  0  0  0  0  0  0  0
    0.0963   -2.4668   -0.7037 N   0  3  0  0  0  0  0  0  0  0  0  0
   -1.8967   -1.8610   -1.4084 C   0  0  0  0  0  0  0  0  0  0  0  0
   -0.7471   -3.4559   -0.3910 C   0  0  0  0  0  0  0  0  0  0  0  0
   -1.9636   -3.0987   -0.8154 N   0  0  0  0  0  0  0  0  0  0  0  0
   -1.5221    1.5532   -0.5874 H   0  0  0  0  0  0  0  0  0  0  0  0
    1.0425    0.2589    0.0944 H   0  0  0  0  0  0  0  0  0  0  0  0
    1.0005   -0.4702   -2.3780 H   0  0  0  0  0  0  0  0  0  0  0  0
   -0.5622    0.2874   -2.5477 H   0  0  0  0  0  0  0  0  0  0  0  0
    1.0925   -2.4646   -0.5021 H   0  0  0  0  0  0  0  0  0  0  0  0
   -2.8068   -1.4499   -1.7977 H   0  0  0  0  0  0  0  0  0  0  0  0
   -0.4924   -4.3743    0.1110 H   0  0  0  0  0  0  0  0  0  0  0  0
   -2.8056   -3.6585   -0.7142 H   0  0  0  0  0  0  0  0  0  0  0  0
    1.2895    2.9794   -0.2670 N   0  0  0  0  0  0  0  0  0  0  0  0
    1.9426    4.2430   -0.5230 C   0  0  2  0  0  0  0  0  0  0  0  0
    3.3211    3.9513   -1.1010 C   0  0  0  0  0  0  0  0  0  0  0  0
    3.9070    2.8839   -0.9325 O   0  0  0  0  0  0  0  0  0  0  0  0
    2.0499    5.0772    0.7440 C   0  0  0  0  0  0  0  0  0  0  0  0
    0.8730    2.8283    0.6470 H   0  0  0  0  0  0  0  0  0  0  0  0
    1.3361    4.7668   -1.2699 H   0  0  0  0  0  0  0  0  0  0  0  0
    2.6540    4.5685    1.5041 H   0  0  0  0  0  0  0  0  0  0  0  0
    2.5191    6.0459    0.5428 H   0  0  0  0  0  0  0  0  0  0  0  0
    1.0597    5.2608    1.1747 H   0  0  0  0  0  0  0  0  0  0  0  0
    3.8385    5.0387   -1.7909 N   0  0  0  0  0  0  0  0  0  0  0  0
    5.1380    5.0158   -2.4209 C   0  0  0  0  0  0  0  0  0  0  0  0
    3.2752    5.8773   -1.8968 H   0  0  0  0  0  0  0  0  0  0  0  0
    5.8925    5.4035   -1.7207 H   0  0  0  0  0  0  0  0  0  0  0  0
    5.3924    3.9823   -2.6987 H   0  0  0  0  0  0  0  0  0  0  0  0
    5.1187    5.6439   -3.3238 H   0  0  0  0  0  0  0  0  0  0  0  0
 22 24  2  0  0  0  0
 24 26  1  0  0  0  0
 25 26  1  0  0  0  0
 23 25  2  0  0  0  0
 21 22  1  0  0  0  0
 22 23  1  0  0  0  0
  1  3  1  0  0  0  0
  1  7  1  0  0  0  0
  1  2  2  0  0  0  0
 36 37  1  0  0  0  0
 37 45  1  0  0  0  0
 37 38  2  0  0  0  0
  8  9  1  0  0  0  0
  9 17  1  0  0  0  0
  9 10  2  0  0  0  0
 18 19  1  0  0  0  0
 19 35  1  0  0  0  0
 19 20  2  0  0  0  0
 36 39  1  0  0  0  0
  8 11  1  0  0  0  0
 45 46  1  0  0  0  0
 18 21  1  0  0  0  0
 35 36  1  0  0  0  0
  7  8  1  0  0  0  0
 17 18  1  0  0  0  0
 24 32  1  0  0  0  0
 25 33  1  0  0  0  0
  3  4  1  0  0  0  0
  3  5  1  0  0  0  0
  3  6  1  0  0  0  0
 39 42  1  0  0  0  0
 39 43  1  0  0  0  0
 39 44  1  0  0  0  0
 11 14  1  0  0  0  0
 11 15  1  0  0  0  0
 11 16  1  0  0  0  0
 46 48  1  0  0  0  0
 46 49  1  0  0  0  0
 46 50  1  0  0  0  0
 21 29  1  0  0  0  0
 21 30  1  0  0  0  0
 36 41  1  0  0  0  0
  8 13  1  0  0  0  0
 18 28  1  0  0  0  0
 26 34  1  0  0  0  0
 23 31  1  0  0  0  0
 45 47  1  0  0  0  0
  7 12  1  0  0  0  0
 35 40  1  0  0  0  0
 17 27  1  0  0  0  0
M  CHG  1  23   1
M  END
$$$$

  -OEChem-05262214473D

 50 50  0     1  0  0  0  0  0999 V2000
   -1.6938    0.4865    3.8080 C   0  0  0  0  0  0  0  0  0  0  0  0
   -0.7464   -0.1282    3.3323 O   0  0  0  0  0  0  0  0  0  0  0  0
   -2.1257    0.2041    5.2087 C   0  0  0  0  0  0  0  0  0  0  0  0
   -2.8853   -0.5922    5.2621 H   0  0  0  0  0  0  0  0  0  0  0  0
   -1.2944   -0.1435    5.8430 H   0  0  0  0  0  0  0  0  0  0  0  0
   -2.5637    1.0590    5.7483 H   0  0  0  0  0  0  0  0  0  0  0  0
   -2.4435    1.4589    3.1669 N   0  0  0  0  0  0  0  0  0  0  0  0
   -2.1966    1.8850    1.8145 C   0  0  2  0  0  0  0  0  0  0  0  0
   -0.8617    1.2996    1.3733 C   0  0  0  0  0  0  0  0  0  0  0  0
    0.0104    0.9468    2.1646 O   0  0  0  0  0  0  0  0  0  0  0  0
   -2.1879    3.4017    1.7050 C   0  0  0  0  0  0  0  0  0  0  0  0
   -3.2085    1.8948    3.6787 H   0  0  0  0  0  0  0  0  0  0  0  0
   -3.0007    1.4665    1.1994 H   0  0  0  0  0  0  0  0  0  0  0  0
   -1.3888    3.8390    2.3147 H   0  0  0  0  0  0  0  0  0  0  0  0
   -2.0284    3.7240    0.6708 H   0  0  0  0  0  0  0  0  0  0  0  0
   -3.1380    3.8230    2.0508 H   0  0  0  0  0  0  0  0  0  0  0  0
   -0.7390    1.2565   -0.0101 N   0  0  0  0  0  0  0  0  0  0  0  0
    0.4383    0.7557   -0.6738 C   0  0  2  0  0  0  0  0  0  0  0  0
    1.2029    1.9620   -1.2071 C   0  0  0  0  0  0  0  0  0  0  0  0
    1.4103    2.1468   -2.4045 O   0  0  0  0  0  0  0  0  0  0  0  0
    0.0937   -0.2050   -1.8176 C   0  0  0  0  0  0  0  0  0  0  0  0
   -0.5921   -1.4611   -1.3382 C   0  0  0  0  0  0  0  0  0  0  0  0
    0.0963   -2.4668   -0.7037 N   0  3  0  0  0  0  0  0  0  0  0  0
   -1.8967   -1.8610   -1.4084 C   0  0  0  0  0  0  0  0  0  0  0  0
   -0.7471   -3.4559   -0.3910 C   0  0  0  0  0  0  0  0  0  0  0  0
   -1.9636   -3.0987   -0.8154 N   0  0  0  0  0  0  0  0  0  0  0  0
   -1.5221    1.5532   -0.5874 H   0  0  0  0  0  0  0  0  0  0  0  0
    1.0425    0.2589    0.0944 H   0  0  0  0  0  0  0  0  0  0  0  0
    1.0005   -0.4702   -2.3780 H   0  0  0  0  0  0  0  0  0  0  0  0
   -0.5622    0.2874   -2.5477 H   0  0  0  0  0  0  0  0  0  0  0  0
    1.0925   -2.4646   -0.5021 H   0  0  0  0  0  0  0  0  0  0  0  0
   -2.8068   -1.4499   -1.7977 H   0  0  0  0  0  0  0  0  0  0  0  0
   -0.4924   -4.3743    0.1110 H   0  0  0  0  0  0  0  0  0  0  0  0
   -2.8056   -3.6585   -0.7142 H   0  0  0  0  0  0  0  0  0  0  0  0
    1.5801    2.8289   -0.1909 N   0  0  0  0  0  0  0  0  0  0  0  0
    2.2971    4.0617   -0.4248 C   0  0  2  0  0  0  0  0  0  0  0  0
    3.4952    3.7481   -1.3112 C   0  0  0  0  0  0  0  0  0  0  0  0
    3.9886    2.6256   -1.3997 O   0  0  0  0  0  0  0  0  0  0  0  0
    2.7404    4.7006    0.8821 C   0  0  0  0  0  0  0  0  0  0  0  0
    1.3402    2.5845    0.7654 H   0  0  0  0  0  0  0  0  0  0  0  0
    1.6122    4.7296   -0.9585 H   0  0  0  0  0  0  0  0  0  0  0  0
    3.4273    4.0460    1.4309 H   0  0  0  0  0  0  0  0  0  0  0  0
    3.2584    5.6488    0.7046 H   0  0  0  0  0  0  0  0  0  0  0  0
    1.8801    4.8982    1.5308 H   0  0  0  0  0  0  0  0  0  0  0  0
    3.9754    4.8778   -1.9586 N   0  0  0  0  0  0  0  0  0  0  0  0
    5.1141    4.8428   -2.8465 C   0  0  0  0  0  0  0  0  0  0  0  0
    3.4927    5.7639   -1.8417 H   0  0  0  0  0  0  0  0  0  0  0  0
    6.0289    5.0700   -2.2795 H   0  0  0  0  0  0  0  0  0  0  0  0
    5.1993    3.8416   -3.2939 H   0  0  0  0  0  0  0  0  0  0  0  0
    4.9812    5.5901   -3.6426 H   0  0  0  0  0  0  0  0  0  0  0  0
 22 24  2  0  0  0  0
 24 26  1  0  0  0  0
 25 26  1  0  0  0  0
 23 25  2  0  0  0  0
 21 22  1  0  0  0  0
 22 23  1  0  0  0  0
  1  3  1  0  0  0  0
  1  7  1  0  0  0  0
  1  2  2  0  0  0  0
 36 37  1  0  0  0  0
 37 45  1  0  0  0  0
 37 38  2  0  0  0  0
  8  9  1  0  0  0  0
  9 17  1  0  0  0  0
  9 10  2  0  0  0  0
 18 19  1  0  0  0  0
 19 35  1  0  0  0  0
 19 20  2  0  0  0  0
 36 39  1  0  0  0  0
  8 11  1  0  0  0  0
 45 46  1  0  0  0  0
 18 21  1  0  0  0  0
 35 36  1  0  0  0  0
  7  8  1  0  0  0  0
 17 18  1  0  0  0  0
 24 32  1  0  0  0  0
 25 33  1  0  0  0  0
  3  4  1  0  0  0  0
  3  5  1  0  0  0  0
  3  6  1  0  0  0  0
 39 42  1  0  0  0  0
 39 43  1  0  0  0  0
 39 44  1  0  0  0  0
 11 14  1  0  0  0  0
 11 15  1  0  0  0  0
 11 16  1  0  0  0  0
 46 48  1  0  0  0  0
 46 49  1  0  0  0  0
 46 50  1  0  0  0  0
 21 29  1  0  0  0  0
 21 30  1  0  0  0  0
 36 41  1  0  0  0  0
  8 13  1  0  0  0  0
 18 28  1  0  0  0  0
 26 34  1  0  0  0  0
 23 31  1  0  0  0  0
 45 47  1  0  0  0  0
  7 12  1  0  0  0  0
 35 40  1  0  0  0  0
 17 27  1  0  0  0  0
M  CHG  1  23   1
M  END
$$$$

  -OEChem-05262214473D

 50 50  0     1  0  0  0  0  0999 V2000
   -1.6938    0.4865    3.8080 C   0  0  0  0  0  0  0  0  0  0  0  0
   -0.7464   -0.1282    3.3323 O   0  0  0  0  0  0  0  0  0  0  0  0
   -2.1257    0.2041    5.2087 C   0  0  0  0  0  0  0  0  0  0  0  0
   -2.8853   -0.5922    5.2621 H   0  0  0  0  0  0  0  0  0  0  0  0
   -1.2944   -0.1435    5.8430 H   0  0  0  0  0  0  0  0  0  0  0  0
   -2.5637    1.0590    5.7483 H   0  0  0  0  0  0  0  0  0  0  0  0
   -2.4435    1.4589    3.1669 N   0  0  0  0  0  0  0  0  0  0  0  0
   -2.1966    1.8850    1.8145 C   0  0  2  0  0  0  0  0  0  0  0  0
   -0.8617    1.2996    1.3733 C   0  0  0  0  0  0  0  0  0  0  0  0
    0.0104    0.9468    2.1646 O   0  0  0  0  0  0  0  0  0  0  0  0
   -2.1879    3.4017    1.7050 C   0  0  0  0  0  0  0  0  0  0  0  0
   -3.2085    1.8948    3.6787 H   0  0  0  0  0  0  0  0  0  0  0  0
   -3.0007    1.4665    1.1994 H   0  0  0  0  0  0  0  0  0  0  0  0
   -1.3888    3.8390    2.3147 H   0  0  0  0  0  0  0  0  0  0  0  0
   -2.0284    3.7240    0.6708 H   0  0  0  0  0  0  0  0  0  0  0  0
   -3.1380    3.8230    2.0508 H   0  0  0  0  0  0  0  0  0  0  0  0
   -0.7390    1.2565   -0.0101 N   0  0  0  0  0  0  0  0  0  0  0  0
    0.4383    0.7557   -0.6738 C   0  0  2  0  0  0  0  0  0  0  0  0
    1.2029    1.9620   -1.2071 C   0  0  0  0  0  0  0  0  0  0  0  0
    1.1862    2.2952   -2.3901 O   0  0  0  0  0  0  0  0  0  0  0  0
    0.0937   -0.2050   -1.8176 C   0  0  0  0  0  0  0  0  0  0  0  0
   -0.5921   -1.4611   -1.3382 C   0  0  0  0  0  0  0  0  0  0  0  0
    0.0963   -2.4668   -0.7037 N   0  3  0  0  0  0  0  0  0  0  0  0
   -1.8967   -1.8610   -1.4084 C   0  0  0  0  0  0  0  0  0  0  0  0
   -0.7471   -3.4559   -0.3910 C   0  0  0  0  0  0  0  0  0  0  0  0
   -1.9636   -3.0987   -0.8154 N   0  0  0  0  0  0  0  0  0  0  0  0
   -1.5221    1.5532   -0.5874 H   0  0  0  0  0  0  0  0  0  0  0  0
    1.0425    0.2589    0.0944 H   0  0  0  0  0  0  0  0  0  0  0  0
    1.0005   -0.4702   -2.3780 H   0  0  0  0  0  0  0  0  0  0  0  0
   -0.5622    0.2874   -2.5477 H   0  0  0  0  0  0  0  0  0  0  0  0
    1.0925   -2.4646   -0.5021 H   0  0  0  0  0  0  0  0  0  0  0  0
   -2.8068   -1.4499   -1.7977 H   0  0  0  0  0  0  0  0  0  0  0  0
   -0.4924   -4.3743    0.1110 H   0  0  0  0  0  0  0  0  0  0  0  0
   -2.8056   -3.6585   -0.7142 H   0  0  0  0  0  0  0  0  0  0  0  0
    1.8627    2.6473   -0.1964 N   0  0  0  0  0  0  0  0  0  0  0  0
    2.6433    3.8418   -0.4261 C   0  0  2  0  0  0  0  0  0  0  0  0
    3.6019    3.5632   -1.5763 C   0  0  0  0  0  0  0  0  0  0  0  0
    3.9483    2.4294   -1.9012 O   0  0  0  0  0  0  0  0  0  0  0  0
    3.4015    4.2564    0.8253 C   0  0  0  0  0  0  0  0  0  0  0  0
    1.7936    2.2913    0.7524 H   0  0  0  0  0  0  0  0  0  0  0  0
    1.9392    4.6282   -0.7190 H   0  0  0  0  0  0  0  0  0  0  0  0
    4.1119    3.4808    1.1341 H   0  0  0  0  0  0  0  0  0  0  0  0
    3.9698    5.1773    0.6580 H   0  0  0  0  0  0  0  0  0  0  0  0
    2.7128    4.4274    1.6596 H   0  0  0  0  0  0  0  0  0  0  0  0
    4.0587    4.7318   -2.1695 N   0  0  0  0  0  0  0  0  0  0  0  0
    4.9882    4.7331   -3.2750 C   0  0  0  0  0  0  0  0  0  0  0  0
    3.7038    5.6274   -1.8477 H   0  0  0  0  0  0  0  0  0  0  0  0
    6.0160    4.8080   -2.8905 H   0  0  0  0  0  0  0  0  0  0  0  0
    4.8781    3.8004   -3.8476 H   0  0  0  0  0  0  0  0  0  0  0  0
    4.7782    5.5920   -3.9294 H   0  0  0  0  0  0  0  0  0  0  0  0
 22 24  2  0  0  0  0
 24 26  1  0  0  0  0
 25 26  1  0  0  0  0
 23 25  2  0  0  0  0
 21 22  1  0  0  0  0
 22 23  1  0  0  0  0
  1  3  1  0  0  0  0
  1  7  1  0  0  0  0
  1  2  2  0  0  0  0
 36 37  1  0  0  0  0
 37 45  1  0  0  0  0
 37 38  2  0  0  0  0
  8  9  1  0  0  0  0
  9 17  1  0  0  0  0
  9 10  2  0  0  0  0
 18 19  1  0  0  0  0
 19 35  1  0  0  0  0
 19 20  2  0  0  0  0
 36 39  1  0  0  0  0
  8 11  1  0  0  0  0
 45 46  1  0  0  0  0
 18 21  1  0  0  0  0
 35 36  1  0  0  0  0
  7  8  1  0  0  0  0
 17 18  1  0  0  0  0
 24 32  1  0  0  0  0
 25 33  1  0  0  0  0
  3  4  1  0  0  0  0
  3  5  1  0  0  0  0
  3  6  1  0  0  0  0
 39 42  1  0  0  0  0
 39 43  1  0  0  0  0
 39 44  1  0  0  0  0
 11 14  1  0  0  0  0
 11 15  1  0  0  0  0
 11 16  1  0  0  0  0
 46 48  1  0  0  0  0
 46 49  1  0  0  0  0
 46 50  1  0  0  0  0
 21 29  1  0  0  0  0
 21 30  1  0  0  0  0
 36 41  1  0  0  0  0
  8 13  1  0  0  0  0
 18 28  1  0  0  0  0
 26 34  1  0  0  0  0
 23 31  1  0  0  0  0
 45 47  1  0  0  0  0
  7 12  1  0  0  0  0
 35 40  1  0  0  0  0
 17 27  1  0  0  0  0
M  CHG  1  23   1
M  END
$$$$

  -OEChem-05262214473D

 50 50  0     1  0  0  0  0  0999 V2000
   -1.6938    0.4865    3.8080 C   0  0  0  0  0  0  0  0  0  0  0  0
   -0.7464   -0.1282    3.3323 O   0  0  0  0  0  0  0  0  0  0  0  0
   -2.1257    0.2041    5.2087 C   0  0  0  0  0  0  0  0  0  0  0  0
   -2.8853   -0.5922    5.2621 H   0  0  0  0  0  0  0  0  0  0  0  0
   -1.2944   -0.1435    5.8430 H   0  0  0  0  0  0  0  0  0  0  0  0
   -2.5637    1.0590    5.7483 H   0  0  0  0  0  0  0  0  0  0  0  0
   -2.4435    1.4589    3.1669 N   0  0  0  0  0  0  0  0  0  0  0  0
   -2.1966    1.8850    1.8145 C   0  0  2  0  0  0  0  0  0  0  0  0
   -0.8617    1.2996    1.3733 C   0  0  0  0  0  0  0  0  0  0  0  0
    0.0104    0.9468    2.1646 O   0  0  0  0  0  0  0  0  0  0  0  0
   -2.1879    3.4017    1.7050 C   0  0  0  0  0  0  0  0  0  0  0  0
   -3.2085    1.8948    3.6787 H   0  0  0  0  0  0  0  0  0  0  0  0
   -3.0007    1.4665    1.1994 H   0  0  0  0  0  0  0  0  0  0  0  0
   -1.3888    3.8390    2.3147 H   0  0  0  0  0  0  0  0  0  0  0  0
   -2.0284    3.7240    0.6708 H   0  0  0  0  0  0  0  0  0  0  0  0
   -3.1380    3.8230    2.0508 H   0  0  0  0  0  0  0  0  0  0  0  0
   -0.7390    1.2565   -0.0101 N   0  0  0  0  0  0  0  0  0  0  0  0
    0.4383    0.7557   -0.6738 C   0  0  2  0  0  0  0  0  0  0  0  0
    1.2029    1.9620   -1.2071 C   0  0  0  0  0  0  0  0  0  0  0  0
    0.9861    2.4569   -2.3111 O   0  0  0  0  0  0  0  0  0  0  0  0
    0.0937   -0.2050   -1.8176 C   0  0  0  0  0  0  0  0  0  0  0  0
   -0.5921   -1.4611   -1.3382 C   0  0  0  0  0  0  0  0  0  0  0  0
    0.0963   -2.4668   -0.7037 N   0  3  0  0  0  0  0  0  0  0  0  0
   -1.8967   -1.8610   -1.4084 C   0  0  0  0  0  0  0  0  0  0  0  0
   -0.7471   -3.4559   -0.3910 C   0  0  0  0  0  0  0  0  0  0  0  0
   -1.9636   -3.0987   -0.8154 N   0  0  0  0  0  0  0  0  0  0  0  0
   -1.5221    1.5532   -0.5874 H   0  0  0  0  0  0  0  0  0  0  0  0
    1.0425    0.2589    0.0944 H   0  0  0  0  0  0  0  0  0  0  0  0
    1.0005   -0.4702   -2.3780 H   0  0  0  0  0  0  0  0  0  0  0  0
   -0.5622    0.2874   -2.5477 H   0  0  0  0  0  0  0  0  0  0  0  0
    1.0925   -2.4646   -0.5021 H   0  0  0  0  0  0  0  0  0  0  0  0
   -2.8068   -1.4499   -1.7977 H   0  0  0  0  0  0  0  0  0  0  0  0
   -0.4924   -4.3743    0.1110 H   0  0  0  0  0  0  0  0  0  0  0  0
   -2.8056   -3.6585   -0.7142 H   0  0  0  0  0  0  0  0  0  0  0  0
    2.1182    2.4470   -0.2832 N   0  0  0  0  0  0  0  0  0  0  0  0
    2.9574    3.5981   -0.5268 C   0  0  2  0  0  0  0  0  0  0  0  0
    3.6340    3.4095   -1.8781 C   0  0  0  0  0  0  0  0  0  0  0  0
    3.7889    2.3087   -2.4028 O   0  0  0  0  0  0  0  0  0  0  0  0
    3.9883    3.7748    0.5772 C   0  0  0  0  0  0  0  0  0  0  0  0
    2.2024    1.9688    0.6090 H   0  0  0  0  0  0  0  0  0  0  0  0
    2.2949    4.4695   -0.5679 H   0  0  0  0  0  0  0  0  0  0  0  0
    4.6612    2.9114    0.6337 H   0  0  0  0  0  0  0  0  0  0  0  0
    4.6046    4.6636    0.4061 H   0  0  0  0  0  0  0  0  0  0  0  0
    3.5008    3.8806    1.5524 H   0  0  0  0  0  0  0  0  0  0  0  0
    4.0828    4.6105   -2.4093 N   0  0  0  0  0  0  0  0  0  0  0  0
    4.7689    4.6942   -3.6774 C   0  0  0  0  0  0  0  0  0  0  0  0
    3.8941    5.4773   -1.9144 H   0  0  0  0  0  0  0  0  0  0  0  0
    5.8548    4.6354   -3.5120 H   0  0  0  0  0  0  0  0  0  0  0  0
    4.4507    3.8615   -4.3220 H   0  0  0  0  0  0  0  0  0  0  0  0
    4.5235    5.6494   -4.1646 H   0  0  0  0  0  0  0  0  0  0  0  0
 22 24  2  0  0  0  0
 24 26  1  0  0  0  0
 25 26  1  0  0  0  0
 23 25  2  0  0  0  0
 21 22  1  0  0  0  0
 22 23  1  0  0  0  0
  1  3  1  0  0  0  0
  1  7  1  0  0  0  0
  1  2  2  0  0  0  0
 36 37  1  0  0  0  0
 37 45  1  0  0  0  0
 37 38  2  0  0  0  0
  8  9  1  0  0  0  0
  9 17  1  0  0  0  0
  9 10  2  0  0  0  0
 18 19  1  0  0  0  0
 19 35  1  0  0  0  0
 19 20  2  0  0  0  0
 36 39  1  0  0  0  0
  8 11  1  0  0  0  0
 45 46  1  0  0  0  0
 18 21  1  0  0  0  0
 35 36  1  0  0  0  0
  7  8  1  0  0  0  0
 17 18  1  0  0  0  0
 24 32  1  0  0  0  0
 25 33  1  0  0  0  0
  3  4  1  0  0  0  0
  3  5  1  0  0  0  0
  3  6  1  0  0  0  0
 39 42  1  0  0  0  0
 39 43  1  0  0  0  0
 39 44  1  0  0  0  0
 11 14  1  0  0  0  0
 11 15  1  0  0  0  0
 11 16  1  0  0  0  0
 46 48  1  0  0  0  0
 46 49  1  0  0  0  0
 46 50  1  0  0  0  0
 21 29  1  0  0  0  0
 21 30  1  0  0  0  0
 36 41  1  0  0  0  0
  8 13  1  0  0  0  0
 18 28  1  0  0  0  0
 26 34  1  0  0  0  0
 23 31  1  0  0  0  0
 45 47  1  0  0  0  0
  7 12  1  0  0  0  0
 35 40  1  0  0  0  0
 17 27  1  0  0  0  0
M  CHG  1  23   1
M  END
$$$$

  -OEChem-05262214473D

 50 50  0     1  0  0  0  0  0999 V2000
   -1.6938    0.4865    3.8080 C   0  0  0  0  0  0  0  0  0  0  0  0
   -0.7464   -0.1282    3.3323 O   0  0  0  0  0  0  0  0  0  0  0  0
   -2.1257    0.2041    5.2087 C   0  0  0  0  0  0  0  0  0  0  0  0
   -2.8853   -0.5922    5.2621 H   0  0  0  0  0  0  0  0  0  0  0  0
   -1.2944   -0.1435    5.8430 H   0  0  0  0  0  0  0  0  0  0  0  0
   -2.5637    1.0590    5.7483 H   0  0  0  0  0  0  0  0  0  0  0  0
   -2.4435    1.4589    3.1669 N   0  0  0  0  0  0  0  0  0  0  0  0
   -2.1966    1.8850    1.8145 C   0  0  2  0  0  0  0  0  0  0  0  0
   -0.8617    1.2996    1.3733 C   0  0  0  0  0  0  0  0  0  0  0  0
    0.0104    0.9468    2.1646 O   0  0  0  0  0  0  0  0  0  0  0  0
   -2.1879    3.4017    1.7050 C   0  0  0  0  0  0  0  0  0  0  0  0
   -3.2085    1.8948    3.6787 H   0  0  0  0  0  0  0  0  0  0  0  0
   -3.0007    1.4665    1.1994 H   0  0  0  0  0  0  0  0  0  0  0  0
   -1.3888    3.8390    2.3147 H   0  0  0  0  0  0  0  0  0  0  0  0
   -2.0284    3.7240    0.6708 H   0  0  0  0  0  0  0  0  0  0  0  0
   -3.1380    3.8230    2.0508 H   0  0  0  0  0  0  0  0  0  0  0  0
   -0.7390    1.2565   -0.0101 N   0  0  0  0  0  0  0  0  0  0  0  0
    0.4383    0.7557   -0.6738 C   0  0  2  0  0  0  0  0  0  0  0  0
    1.2029    1.9620   -1.2071 C   0  0  0  0  0  0  0  0  0  0  0  0
    0.8236    2.6210   -2.1729 O   0  0  0  0  0  0  0  0  0  0  0  0
    0.0937   -0.2050   -1.8176 C   0  0  0  0  0  0  0  0  0  0  0  0
   -0.5921   -1.4611   -1.3382 C   0  0  0  0  0  0  0  0  0  0  0  0
    0.0963   -2.4668   -0.7037 N   0  3  0  0  0  0  0  0  0  0  0  0
   -1.8967   -1.8610   -1.4084 C   0  0  0  0  0  0  0  0  0  0  0  0
   -0.7471   -3.4559   -0.3910 C   0  0  0  0  0  0  0  0  0  0  0  0
   -1.9636   -3.0987   -0.8154 N   0  0  0  0  0  0  0  0  0  0  0  0
   -1.5221    1.5532   -0.5874 H   0  0  0  0  0  0  0  0  0  0  0  0
    1.0425    0.2589    0.0944 H   0  0  0  0  0  0  0  0  0  0  0  0
    1.0005   -0.4702   -2.3780 H   0  0  0  0  0  0  0  0  0  0  0  0
   -0.5622    0.2874   -2.5477 H   0  0  0  0  0  0  0  0  0  0  0  0
    1.0925   -2.4646   -0.5021 H   0  0  0  0  0  0  0  0  0  0  0  0
   -2.8068   -1.4499   -1.7977 H   0  0  0  0  0  0  0  0  0  0  0  0
   -0.4924   -4.3743    0.1110 H   0  0  0  0  0  0  0  0  0  0  0  0
   -2.8056   -3.6585   -0.7142 H   0  0  0  0  0  0  0  0  0  0  0  0
    2.3290    2.2417   -0.4454 N   0  0  0  0  0  0  0  0  0  0  0  0
    3.2182    3.3474   -0.7200 C   0  0  2  0  0  0  0  0  0  0  0  0
    3.5892    3.2972   -2.1962 C   0  0  0  0  0  0  0  0  0  0  0  0
    3.5213    2.2716   -2.8704 O   0  0  0  0  0  0  0  0  0  0  0  0
    4.4606    3.2887    0.1550 C   0  0  0  0  0  0  0  0  0  0  0  0
    2.5387    1.6389    0.3448 H   0  0  0  0  0  0  0  0  0  0  0  0
    2.6551    4.2645   -0.5153 H   0  0  0  0  0  0  0  0  0  0  0  0
    5.0378    2.3767   -0.0360 H   0  0  0  0  0  0  0  0  0  0  0  0
    5.1197    4.1425   -0.0340 H   0  0  0  0  0  0  0  0  0  0  0  0
    4.1904    3.2949    1.2165 H   0  0  0  0  0  0  0  0  0  0  0  0
    4.0460    4.5224   -2.6615 N   0  0  0  0  0  0  0  0  0  0  0  0
    4.4711    4.7287   -4.0263 C   0  0  0  0  0  0  0  0  0  0  0  0
    4.0506    5.3237   -2.0373 H   0  0  0  0  0  0  0  0  0  0  0  0
    5.5561    4.5640   -4.1018 H   0  0  0  0  0  0  0  0  0  0  0  0
    3.9462    4.0209   -4.6847 H   0  0  0  0  0  0  0  0  0  0  0  0
    4.2345    5.7585   -4.3322 H   0  0  0  0  0  0  0  0  0  0  0  0
 22 24  2  0  0  0  0
 24 26  1  0  0  0  0
 25 26  1  0  0  0  0
 23 25  2  0  0  0  0
 21 22  1  0  0  0  0
 22 23  1  0  0  0  0
  1  3  1  0  0  0  0
  1  7  1  0  0  0  0
  1  2  2  0  0  0  0
 36 37  1  0  0  0  0
 37 45  1  0  0  0  0
 37 38  2  0  0  0  0
  8  9  1  0  0  0  0
  9 17  1  0  0  0  0
  9 10  2  0  0  0  0
 18 19  1  0  0  0  0
 19 35  1  0  0  0  0
 19 20  2  0  0  0  0
 36 39  1  0  0  0  0
  8 11  1  0  0  0  0
 45 46  1  0  0  0  0
 18 21  1  0  0  0  0
 35 36  1  0  0  0  0
  7  8  1  0  0  0  0
 17 18  1  0  0  0  0
 24 32  1  0  0  0  0
 25 33  1  0  0  0  0
  3  4  1  0  0  0  0
  3  5  1  0  0  0  0
  3  6  1  0  0  0  0
 39 42  1  0  0  0  0
 39 43  1  0  0  0  0
 39 44  1  0  0  0  0
 11 14  1  0  0  0  0
 11 15  1  0  0  0  0
 11 16  1  0  0  0  0
 46 48  1  0  0  0  0
 46 49  1  0  0  0  0
 46 50  1  0  0  0  0
 21 29  1  0  0  0  0
 21 30  1  0  0  0  0
 36 41  1  0  0  0  0
  8 13  1  0  0  0  0
 18 28  1  0  0  0  0
 26 34  1  0  0  0  0
 23 31  1  0  0  0  0
 45 47  1  0  0  0  0
  7 12  1  0  0  0  0
 35 40  1  0  0  0  0
 17 27  1  0  0  0  0
M  CHG  1  23   1
M  END
$$$$

  -OEChem-05262214473D

 50 50  0     1  0  0  0  0  0999 V2000
   -1.6938    0.4865    3.8080 C   0  0  0  0  0  0  0  0  0  0  0  0
   -0.7464   -0.1282    3.3323 O   0  0  0  0  0  0  0  0  0  0  0  0
   -2.1257    0.2041    5.2087 C   0  0  0  0  0  0  0  0  0  0  0  0
   -2.8853   -0.5922    5.2621 H   0  0  0  0  0  0  0  0  0  0  0  0
   -1.2944   -0.1435    5.8430 H   0  0  0  0  0  0  0  0  0  0  0  0
   -2.5637    1.0590    5.7483 H   0  0  0  0  0  0  0  0  0  0  0  0
   -2.4435    1.4589    3.1669 N   0  0  0  0  0  0  0  0  0  0  0  0
   -2.1966    1.8850    1.8145 C   0  0  2  0  0  0  0  0  0  0  0  0
   -0.8617    1.2996    1.3733 C   0  0  0  0  0  0  0  0  0  0  0  0
    0.0104    0.9468    2.1646 O   0  0  0  0  0  0  0  0  0  0  0  0
   -2.1879    3.4017    1.7050 C   0  0  0  0  0  0  0  0  0  0  0  0
   -3.2085    1.8948    3.6787 H   0  0  0  0  0  0  0  0  0  0  0  0
   -3.0007    1.4665    1.1994 H   0  0  0  0  0  0  0  0  0  0  0  0
   -1.3888    3.8390    2.3147 H   0  0  0  0  0  0  0  0  0  0  0  0
   -2.0284    3.7240    0.6708 H   0  0  0  0  0  0  0  0  0  0  0  0
   -3.1380    3.8230    2.0508 H   0  0  0  0  0  0  0  0  0  0  0  0
   -0.7390    1.2565   -0.0101 N   0  0  0  0  0  0  0  0  0  0  0  0
    0.4383    0.7557   -0.6738 C   0  0  2  0  0  0  0  0  0  0  0  0
    1.2029    1.9620   -1.2071 C   0  0  0  0  0  0  0  0  0  0  0  0
    0.7099    2.7763   -1.9847 O   0  0  0  0  0  0  0  0  0  0  0  0
    0.0937   -0.2050   -1.8176 C   0  0  0  0  0  0  0  0  0  0  0  0
   -0.5921   -1.4611   -1.3382 C   0  0  0  0  0  0  0  0  0  0  0  0
    0.0963   -2.4668   -0.7037 N   0  3  0  0  0  0  0  0  0  0  0  0
   -1.8967   -1.8610   -1.4084 C   0  0  0  0  0  0  0  0  0  0  0  0
   -0.7471   -3.4559   -0.3910 C   0  0  0  0  0  0  0  0  0  0  0  0
   -1.9636   -3.0987   -0.8154 N   0  0  0  0  0  0  0  0  0  0  0  0
   -1.5221    1.5532   -0.5874 H   0  0  0  0  0  0  0  0  0  0  0  0
    1.0425    0.2589    0.0944 H   0  0  0  0  0  0  0  0  0  0  0  0
    1.0005   -0.4702   -2.3780 H   0  0  0  0  0  0  0  0  0  0  0  0
   -0.5622    0.2874   -2.5477 H   0  0  0  0  0  0  0  0  0  0  0  0
    1.0925   -2.4646   -0.5021 H   0  0  0  0  0  0  0  0  0  0  0  0
   -2.8068   -1.4499   -1.7977 H   0  0  0  0  0  0  0  0  0  0  0  0
   -0.4924   -4.3743    0.1110 H   0  0  0  0  0  0  0  0  0  0  0  0
   -2.8056   -3.6585   -0.7142 H   0  0  0  0  0  0  0  0  0  0  0  0
    2.4808    2.0453   -0.6718 N   0  0  0  0  0  0  0  0  0  0  0  0
    3.4078    3.1067   -0.9925 C   0  0  2  0  0  0  0  0  0  0  0  0
    3.4706    3.2341   -2.5089 C   0  0  0  0  0  0  0  0  0  0  0  0
    3.1637    2.3206   -3.2721 O   0  0  0  0  0  0  0  0  0  0  0  0
    4.7864    2.8313   -0.4127 C   0  0  0  0  0  0  0  0  0  0  0  0
    2.7795    1.3240   -0.0220 H   0  0  0  0  0  0  0  0  0  0  0  0
    2.9952    4.0270   -0.5649 H   0  0  0  0  0  0  0  0  0  0  0  0
    5.2160    1.9129   -0.8294 H   0  0  0  0  0  0  0  0  0  0  0  0
    5.4800    3.6497   -0.6321 H   0  0  0  0  0  0  0  0  0  0  0  0
    4.7348    2.7104    0.6748 H   0  0  0  0  0  0  0  0  0  0  0  0
    3.9507    4.4733   -2.9091 N   0  0  0  0  0  0  0  0  0  0  0  0
    4.1152    4.8343   -4.2978 C   0  0  0  0  0  0  0  0  0  0  0  0
    4.1628    5.1771   -2.2081 H   0  0  0  0  0  0  0  0  0  0  0  0
    5.1403    4.5986   -4.6195 H   0  0  0  0  0  0  0  0  0  0  0  0
    3.3991    4.2676   -4.9111 H   0  0  0  0  0  0  0  0  0  0  0  0
    3.9310    5.9118   -4.4207 H   0  0  0  0  0  0  0  0  0  0  0  0
 22 24  2  0  0  0  0
 24 26  1  0  0  0  0
 25 26  1  0  0  0  0
 23 25  2  0  0  0  0
 21 22  1  0  0  0  0
 22 23  1  0  0  0  0
  1  3  1  0  0  0  0
  1  7  1  0  0  0  0
  1  2  2  0  0  0  0
 36 37  1  0  0  0  0
 37 45  1  0  0  0  0
 37 38  2  0  0  0  0
  8  9  1  0  0  0  0
  9 17  1  0  0  0  0
  9 10  2  0  0  0  0
 18 19  1  0  0  0  0
 19 35  1  0  0  0  0
 19 20  2  0  0  0  0
 36 39  1  0  0  0  0
  8 11  1  0  0  0  0
 45 46  1  0  0  0  0
 18 21  1  0  0  0  0
 35 36  1  0  0  0  0
  7  8  1  0  0  0  0
 17 18  1  0  0  0  0
 24 32  1  0  0  0  0
 25 33  1  0  0  0  0
  3  4  1  0  0  0  0
  3  5  1  0  0  0  0
  3  6  1  0  0  0  0
 39 42  1  0  0  0  0
 39 43  1  0  0  0  0
 39 44  1  0  0  0  0
 11 14  1  0  0  0  0
 11 15  1  0  0  0  0
 11 16  1  0  0  0  0
 46 48  1  0  0  0  0
 46 49  1  0  0  0  0
 46 50  1  0  0  0  0
 21 29  1  0  0  0  0
 21 30  1  0  0  0  0
 36 41  1  0  0  0  0
  8 13  1  0  0  0  0
 18 28  1  0  0  0  0
 26 34  1  0  0  0  0
 23 31  1  0  0  0  0
 45 47  1  0  0  0  0
  7 12  1  0  0  0  0
 35 40  1  0  0  0  0
 17 27  1  0  0  0  0
M  CHG  1  23   1
M  END
$$$$

  -OEChem-05262214473D

 50 50  0     1  0  0  0  0  0999 V2000
   -1.6938    0.4865    3.8080 C   0  0  0  0  0  0  0  0  0  0  0  0
   -0.7464   -0.1282    3.3323 O   0  0  0  0  0  0  0  0  0  0  0  0
   -2.1257    0.2041    5.2087 C   0  0  0  0  0  0  0  0  0  0  0  0
   -2.8853   -0.5922    5.2621 H   0  0  0  0  0  0  0  0  0  0  0  0
   -1.2944   -0.1435    5.8430 H   0  0  0  0  0  0  0  0  0  0  0  0
   -2.5637    1.0590    5.7483 H   0  0  0  0  0  0  0  0  0  0  0  0
   -2.4435    1.4589    3.1669 N   0  0  0  0  0  0  0  0  0  0  0  0
   -2.1966    1.8850    1.8145 C   0  0  2  0  0  0  0  0  0  0  0  0
   -0.8617    1.2996    1.3733 C   0  0  0  0  0  0  0  0  0  0  0  0
    0.0104    0.9468    2.1646 O   0  0  0  0  0  0  0  0  0  0  0  0
   -2.1879    3.4017    1.7050 C   0  0  0  0  0  0  0  0  0  0  0  0
   -3.2085    1.8948    3.6787 H   0  0  0  0  0  0  0  0  0  0  0  0
   -3.0007    1.4665    1.1994 H   0  0  0  0  0  0  0  0  0  0  0  0
   -1.3888    3.8390    2.3147 H   0  0  0  0  0  0  0  0  0  0  0  0
   -2.0284    3.7240    0.6708 H   0  0  0  0  0  0  0  0  0  0  0  0
   -3.1380    3.8230    2.0508 H   0  0  0  0  0  0  0  0  0  0  0  0
   -0.7390    1.2565   -0.0101 N   0  0  0  0  0  0  0  0  0  0  0  0
    0.4383    0.7557   -0.6738 C   0  0  2  0  0  0  0  0  0  0  0  0
    1.2029    1.9620   -1.2071 C   0  0  0  0  0  0  0  0  0  0  0  0
    0.6526    2.9122   -1.7595 O   0  0  0  0  0  0  0  0  0  0  0  0
    0.0937   -0.2050   -1.8176 C   0  0  0  0  0  0  0  0  0  0  0  0
   -0.5921   -1.4611   -1.3382 C   0  0  0  0  0  0  0  0  0  0  0  0
    0.0963   -2.4668   -0.7037 N   0  3  0  0  0  0  0  0  0  0  0  0
   -1.8967   -1.8610   -1.4084 C   0  0  0  0  0  0  0  0  0  0  0  0
   -0.7471   -3.4559   -0.3910 C   0  0  0  0  0  0  0  0  0  0  0  0
   -1.9636   -3.0987   -0.8154 N   0  0  0  0  0  0  0  0  0  0  0  0
   -1.5221    1.5532   -0.5874 H   0  0  0  0  0  0  0  0  0  0  0  0
    1.0425    0.2589    0.0944 H   0  0  0  0  0  0  0  0  0  0  0  0
    1.0005   -0.4702   -2.3780 H   0  0  0  0  0  0  0  0  0  0  0  0
   -0.5622    0.2874   -2.5477 H   0  0  0  0  0  0  0  0  0  0  0  0
    1.0925   -2.4646   -0.5021 H   0  0  0  0  0  0  0  0  0  0  0  0
   -2.8068   -1.4499   -1.7977 H   0  0  0  0  0  0  0  0  0  0  0  0
   -0.4924   -4.3743    0.1110 H   0  0  0  0  0  0  0  0  0  0  0  0
   -2.8056   -3.6585   -0.7142 H   0  0  0  0  0  0  0  0  0  0  0  0
    2.5633    1.8713   -0.9472 N   0  0  0  0  0  0  0  0  0  0  0  0
    3.5134    2.8924   -1.3259 C   0  0  2  0  0  0  0  0  0  0  0  0
    3.2863    3.2245   -2.7948 C   0  0  0  0  0  0  0  0  0  0  0  0
    2.7405    2.4526   -3.5804 O   0  0  0  0  0  0  0  0  0  0  0  0
    4.9434    2.4336   -1.0871 C   0  0  0  0  0  0  0  0  0  0  0  0
    2.9085    1.0457   -0.4666 H   0  0  0  0  0  0  0  0  0  0  0  0
    3.2920    3.7732   -0.7133 H   0  0  0  0  0  0  0  0  0  0  0  0
    5.1836    1.5519   -1.6924 H   0  0  0  0  0  0  0  0  0  0  0  0
    5.6608    3.2188   -1.3476 H   0  0  0  0  0  0  0  0  0  0  0  0
    5.0967    2.1668   -0.0358 H   0  0  0  0  0  0  0  0  0  0  0  0
    3.8036    4.4666   -3.1350 N   0  0  0  0  0  0  0  0  0  0  0  0
    3.7253    5.0037   -4.4735 C   0  0  0  0  0  0  0  0  0  0  0  0
    4.2229    5.0476   -2.4150 H   0  0  0  0  0  0  0  0  0  0  0  0
    4.6359    4.7369   -5.0300 H   0  0  0  0  0  0  0  0  0  0  0  0
    2.8466    4.5848   -4.9857 H   0  0  0  0  0  0  0  0  0  0  0  0
    3.6335    6.0988   -4.4242 H   0  0  0  0  0  0  0  0  0  0  0  0
 22 24  2  0  0  0  0
 24 26  1  0  0  0  0
 25 26  1  0  0  0  0
 23 25  2  0  0  0  0
 21 22  1  0  0  0  0
 22 23  1  0  0  0  0
  1  3  1  0  0  0  0
  1  7  1  0  0  0  0
  1  2  2  0  0  0  0
 36 37  1  0  0  0  0
 37 45  1  0  0  0  0
 37 38  2  0  0  0  0
  8  9  1  0  0  0  0
  9 17  1  0  0  0  0
  9 10  2  0  0  0  0
 18 19  1  0  0  0  0
 19 35  1  0  0  0  0
 19 20  2  0  0  0  0
 36 39  1  0  0  0  0
  8 11  1  0  0  0  0
 45 46  1  0  0  0  0
 18 21  1  0  0  0  0
 35 36  1  0  0  0  0
  7  8  1  0  0  0  0
 17 18  1  0  0  0  0
 24 32  1  0  0  0  0
 25 33  1  0  0  0  0
  3  4  1  0  0  0  0
  3  5  1  0  0  0  0
  3  6  1  0  0  0  0
 39 42  1  0  0  0  0
 39 43  1  0  0  0  0
 39 44  1  0  0  0  0
 11 14  1  0  0  0  0
 11 15  1  0  0  0  0
 11 16  1  0  0  0  0
 46 48  1  0  0  0  0
 46 49  1  0  0  0  0
 46 50  1  0  0  0  0
 21 29  1  0  0  0  0
 21 30  1  0  0  0  0
 36 41  1  0  0  0  0
  8 13  1  0  0  0  0
 18 28  1  0  0  0  0
 26 34  1  0  0  0  0
 23 31  1  0  0  0  0
 45 47  1  0  0  0  0
  7 12  1  0  0  0  0
 35 40  1  0  0  0  0
 17 27  1  0  0  0  0
M  CHG  1  23   1
M  END
$$$$

  -OEChem-05262214473D

 50 50  0     1  0  0  0  0  0999 V2000
   -1.6938    0.4865    3.8080 C   0  0  0  0  0  0  0  0  0  0  0  0
   -0.7464   -0.1282    3.3323 O   0  0  0  0  0  0  0  0  0  0  0  0
   -2.1257    0.2041    5.2087 C   0  0  0  0  0  0  0  0  0  0  0  0
   -2.8853   -0.5922    5.2621 H   0  0  0  0  0  0  0  0  0  0  0  0
   -1.2944   -0.1435    5.8430 H   0  0  0  0  0  0  0  0  0  0  0  0
   -2.5637    1.0590    5.7483 H   0  0  0  0  0  0  0  0  0  0  0  0
   -2.4435    1.4589    3.1669 N   0  0  0  0  0  0  0  0  0  0  0  0
   -2.1966    1.8850    1.8145 C   0  0  2  0  0  0  0  0  0  0  0  0
   -0.8617    1.2996    1.3733 C   0  0  0  0  0  0  0  0  0  0  0  0
    0.0104    0.9468    2.1646 O   0  0  0  0  0  0  0  0  0  0  0  0
   -2.1879    3.4017    1.7050 C   0  0  0  0  0  0  0  0  0  0  0  0
   -3.2085    1.8948    3.6787 H   0  0  0  0  0  0  0  0  0  0  0  0
   -3.0007    1.4665    1.1994 H   0  0  0  0  0  0  0  0  0  0  0  0
   -1.3888    3.8390    2.3147 H   0  0  0  0  0  0  0  0  0  0  0  0
   -2.0284    3.7240    0.6708 H   0  0  0  0  0  0  0  0  0  0  0  0
   -3.1380    3.8230    2.0508 H   0  0  0  0  0  0  0  0  0  0  0  0
   -0.7390    1.2565   -0.0101 N   0  0  0  0  0  0  0  0  0  0  0  0
    0.4383    0.7557   -0.6738 C   0  0  2  0  0  0  0  0  0  0  0  0
    1.2029    1.9620   -1.2071 C   0  0  0  0  0  0  0  0  0  0  0  0
    0.6557    3.0194   -1.5126 O   0  0  0  0  0  0  0  0  0  0  0  0
    0.0937   -0.2050   -1.8176 C   0  0  0  0  0  0  0  0  0  0  0  0
   -0.5921   -1.4611   -1.3382 C   0  0  0  0  0  0  0  0  0  0  0  0
    0.0963   -2.4668   -0.7037 N   0  3  0  0  0  0  0  0  0  0  0  0
   -1.8967   -1.8610   -1.4084 C   0  0  0  0  0  0  0  0  0  0  0  0
   -0.7471   -3.4559   -0.3910 C   0  0  0  0  0  0  0  0  0  0  0  0
   -1.9636   -3.0987   -0.8154 N   0  0  0  0  0  0  0  0  0  0  0  0
   -1.5221    1.5532   -0.5874 H   0  0  0  0  0  0  0  0  0  0  0  0
    1.0425    0.2589    0.0944 H   0  0  0  0  0  0  0  0  0  0  0  0
    1.0005   -0.4702   -2.3780 H   0  0  0  0  0  0  0  0  0  0  0  0
   -0.5622    0.2874   -2.5477 H   0  0  0  0  0  0  0  0  0  0  0  0
    1.0925   -2.4646   -0.5021 H   0  0  0  0  0  0  0  0  0  0  0  0
   -2.8068   -1.4499   -1.7977 H   0  0  0  0  0  0  0  0  0  0  0  0
   -0.4924   -4.3743    0.1110 H   0  0  0  0  0  0  0  0  0  0  0  0
   -2.8056   -3.6585   -0.7142 H   0  0  0  0  0  0  0  0  0  0  0  0
    2.5708    1.7315   -1.2526 N   0  0  0  0  0  0  0  0  0  0  0  0
    3.5277    2.7192   -1.6973 C   0  0  2  0  0  0  0  0  0  0  0  0
    3.0489    3.2690   -3.0345 C   0  0  0  0  0  0  0  0  0  0  0  0
    2.2805    2.6583   -3.7745 O   0  0  0  0  0  0  0  0  0  0  0  0
    4.9210    2.1228   -1.8223 C   0  0  0  0  0  0  0  0  0  0  0  0
    2.9169    0.8229   -0.9585 H   0  0  0  0  0  0  0  0  0  0  0  0
    3.5254    3.5205   -0.9504 H   0  0  0  0  0  0  0  0  0  0  0  0
    4.9430    1.3181   -2.5663 H   0  0  0  0  0  0  0  0  0  0  0  0
    5.6500    2.8790   -2.1318 H   0  0  0  0  0  0  0  0  0  0  0  0
    5.2516    1.7012   -0.8669 H   0  0  0  0  0  0  0  0  0  0  0  0
    3.6146    4.5028   -3.3240 N   0  0  0  0  0  0  0  0  0  0  0  0
    3.3281    5.2255   -4.5413 C   0  0  0  0  0  0  0  0  0  0  0  0
    4.2268    4.9438   -2.6440 H   0  0  0  0  0  0  0  0  0  0  0  0
    4.0770    4.9694   -5.3052 H   0  0  0  0  0  0  0  0  0  0  0  0
    2.3264    4.9509   -4.9035 H   0  0  0  0  0  0  0  0  0  0  0  0
    3.3624    6.3068   -4.3423 H   0  0  0  0  0  0  0  0  0  0  0  0
 22 24  2  0  0  0  0
 24 26  1  0  0  0  0
 25 26  1  0  0  0  0
 23 25  2  0  0  0  0
 21 22  1  0  0  0  0
 22 23  1  0  0  0  0
  1  3  1  0  0  0  0
  1  7  1  0  0  0  0
  1  2  2  0  0  0  0
 36 37  1  0  0  0  0
 37 45  1  0  0  0  0
 37 38  2  0  0  0  0
  8  9  1  0  0  0  0
  9 17  1  0  0  0  0
  9 10  2  0  0  0  0
 18 19  1  0  0  0  0
 19 35  1  0  0  0  0
 19 20  2  0  0  0  0
 36 39  1  0  0  0  0
  8 11  1  0  0  0  0
 45 46  1  0  0  0  0
 18 21  1  0  0  0  0
 35 36  1  0  0  0  0
  7  8  1  0  0  0  0
 17 18  1  0  0  0  0
 24 32  1  0  0  0  0
 25 33  1  0  0  0  0
  3  4  1  0  0  0  0
  3  5  1  0  0  0  0
  3  6  1  0  0  0  0
 39 42  1  0  0  0  0
 39 43  1  0  0  0  0
 39 44  1  0  0  0  0
 11 14  1  0  0  0  0
 11 15  1  0  0  0  0
 11 16  1  0  0  0  0
 46 48  1  0  0  0  0
 46 49  1  0  0  0  0
 46 50  1  0  0  0  0
 21 29  1  0  0  0  0
 21 30  1  0  0  0  0
 36 41  1  0  0  0  0
  8 13  1  0  0  0  0
 18 28  1  0  0  0  0
 26 34  1  0  0  0  0
 23 31  1  0  0  0  0
 45 47  1  0  0  0  0
  7 12  1  0  0  0  0
 35 40  1  0  0  0  0
 17 27  1  0  0  0  0
M  CHG  1  23   1
M  END
$$$$

  -OEChem-05262214473D

 50 50  0     1  0  0  0  0  0999 V2000
   -1.6938    0.4865    3.8080 C   0  0  0  0  0  0  0  0  0  0  0  0
   -0.7464   -0.1282    3.3323 O   0  0  0  0  0  0  0  0  0  0  0  0
   -2.1257    0.2041    5.2087 C   0  0  0  0  0  0  0  0  0  0  0  0
   -2.8853   -0.5922    5.2621 H   0  0  0  0  0  0  0  0  0  0  0  0
   -1.2944   -0.1435    5.8430 H   0  0  0  0  0  0  0  0  0  0  0  0
   -2.5637    1.0590    5.7483 H   0  0  0  0  0  0  0  0  0  0  0  0
   -2.4435    1.4589    3.1669 N   0  0  0  0  0  0  0  0  0  0  0  0
   -2.1966    1.8850    1.8145 C   0  0  2  0  0  0  0  0  0  0  0  0
   -0.8617    1.2996    1.3733 C   0  0  0  0  0  0  0  0  0  0  0  0
    0.0104    0.9468    2.1646 O   0  0  0  0  0  0  0  0  0  0  0  0
   -2.1879    3.4017    1.7050 C   0  0  0  0  0  0  0  0  0  0  0  0
   -3.2085    1.8948    3.6787 H   0  0  0  0  0  0  0  0  0  0  0  0
   -3.0007    1.4665    1.1994 H   0  0  0  0  0  0  0  0  0  0  0  0
   -1.3888    3.8390    2.3147 H   0  0  0  0  0  0  0  0  0  0  0  0
   -2.0284    3.7240    0.6708 H   0  0  0  0  0  0  0  0  0  0  0  0
   -3.1380    3.8230    2.0508 H   0  0  0  0  0  0  0  0  0  0  0  0
   -0.7390    1.2565   -0.0101 N   0  0  0  0  0  0  0  0  0  0  0  0
    0.4383    0.7557   -0.6738 C   0  0  2  0  0  0  0  0  0  0  0  0
    1.2029    1.9620   -1.2071 C   0  0  0  0  0  0  0  0  0  0  0  0
    0.7189    3.0906   -1.2609 O   0  0  0  0  0  0  0  0  0  0  0  0
    0.0937   -0.2050   -1.8176 C   0  0  0  0  0  0  0  0  0  0  0  0
   -0.5921   -1.4611   -1.3382 C   0  0  0  0  0  0  0  0  0  0  0  0
    0.0963   -2.4668   -0.7037 N   0  3  0  0  0  0  0  0  0  0  0  0
   -1.8967   -1.8610   -1.4084 C   0  0  0  0  0  0  0  0  0  0  0  0
   -0.7471   -3.4559   -0.3910 C   0  0  0  0  0  0  0  0  0  0  0  0
   -1.9636   -3.0987   -0.8154 N   0  0  0  0  0  0  0  0  0  0  0  0
   -1.5221    1.5532   -0.5874 H   0  0  0  0  0  0  0  0  0  0  0  0
    1.0425    0.2589    0.0944 H   0  0  0  0  0  0  0  0  0  0  0  0
    1.0005   -0.4702   -2.3780 H   0  0  0  0  0  0  0  0  0  0  0  0
   -0.5622    0.2874   -2.5477 H   0  0  0  0  0  0  0  0  0  0  0  0
    1.0925   -2.4646   -0.5021 H   0  0  0  0  0  0  0  0  0  0  0  0
   -2.8068   -1.4499   -1.7977 H   0  0  0  0  0  0  0  0  0  0  0  0
   -0.4924   -4.3743    0.1110 H   0  0  0  0  0  0  0  0  0  0  0  0
   -2.8056   -3.6585   -0.7142 H   0  0  0  0  0  0  0  0  0  0  0  0
    2.5029    1.6354   -1.5673 N   0  0  0  0  0  0  0  0  0  0  0  0
    3.4497    2.5987   -2.0815 C   0  0  2  0  0  0  0  0  0  0  0  0
    2.7746    3.3646   -3.2116 C   0  0  0  0  0  0  0  0  0  0  0  0
    1.8150    2.9239   -3.8410 O   0  0  0  0  0  0  0  0  0  0  0  0
    4.7206    1.9200   -2.5682 C   0  0  0  0  0  0  0  0  0  0  0  0
    2.8040    0.6708   -1.4643 H   0  0  0  0  0  0  0  0  0  0  0  0
    3.6794    3.2860   -1.2600 H   0  0  0  0  0  0  0  0  0  0  0  0
    4.5103    1.2275   -3.3914 H   0  0  0  0  0  0  0  0  0  0  0  0
    5.4481    2.6535   -2.9311 H   0  0  0  0  0  0  0  0  0  0  0  0
    5.1888    1.3453   -1.7618 H   0  0  0  0  0  0  0  0  0  0  0  0
    3.3966    4.5795   -3.4632 N   0  0  0  0  0  0  0  0  0  0  0  0
    2.9506    5.4844   -4.4967 C   0  0  0  0  0  0  0  0  0  0  0  0
    4.1743    4.8730   -2.8794 H   0  0  0  0  0  0  0  0  0  0  0  0
    3.5019    5.2803   -5.4265 H   0  0  0  0  0  0  0  0  0  0  0  0
    1.8739    5.3409   -4.6699 H   0  0  0  0  0  0  0  0  0  0  0  0
    3.1362    6.5216   -4.1808 H   0  0  0  0  0  0  0  0  0  0  0  0
 22 24  2  0  0  0  0
 24 26  1  0  0  0  0
 25 26  1  0  0  0  0
 23 25  2  0  0  0  0
 21 22  1  0  0  0  0
 22 23  1  0  0  0  0
  1  3  1  0  0  0  0
  1  7  1  0  0  0  0
  1  2  2  0  0  0  0
 36 37  1  0  0  0  0
 37 45  1  0  0  0  0
 37 38  2  0  0  0  0
  8  9  1  0  0  0  0
  9 17  1  0  0  0  0
  9 10  2  0  0  0  0
 18 19  1  0  0  0  0
 19 35  1  0  0  0  0
 19 20  2  0  0  0  0
 36 39  1  0  0  0  0
  8 11  1  0  0  0  0
 45 46  1  0  0  0  0
 18 21  1  0  0  0  0
 35 36  1  0  0  0  0
  7  8  1  0  0  0  0
 17 18  1  0  0  0  0
 24 32  1  0  0  0  0
 25 33  1  0  0  0  0
  3  4  1  0  0  0  0
  3  5  1  0  0  0  0
  3  6  1  0  0  0  0
 39 42  1  0  0  0  0
 39 43  1  0  0  0  0
 39 44  1  0  0  0  0
 11 14  1  0  0  0  0
 11 15  1  0  0  0  0
 11 16  1  0  0  0  0
 46 48  1  0  0  0  0
 46 49  1  0  0  0  0
 46 50  1  0  0  0  0
 21 29  1  0  0  0  0
 21 30  1  0  0  0  0
 36 41  1  0  0  0  0
  8 13  1  0  0  0  0
 18 28  1  0  0  0  0
 26 34  1  0  0  0  0
 23 31  1  0  0  0  0
 45 47  1  0  0  0  0
  7 12  1  0  0  0  0
 35 40  1  0  0  0  0
 17 27  1  0  0  0  0
M  CHG  1  23   1
M  END
$$$$

  -OEChem-05262214473D

 50 50  0     1  0  0  0  0  0999 V2000
   -1.6938    0.4865    3.8080 C   0  0  0  0  0  0  0  0  0  0  0  0
   -0.7464   -0.1282    3.3323 O   0  0  0  0  0  0  0  0  0  0  0  0
   -2.1257    0.2041    5.2087 C   0  0  0  0  0  0  0  0  0  0  0  0
   -2.8853   -0.5922    5.2621 H   0  0  0  0  0  0  0  0  0  0  0  0
   -1.2944   -0.1435    5.8430 H   0  0  0  0  0  0  0  0  0  0  0  0
   -2.5637    1.0590    5.7483 H   0  0  0  0  0  0  0  0  0  0  0  0
   -2.4435    1.4589    3.1669 N   0  0  0  0  0  0  0  0  0  0  0  0
   -2.1966    1.8850    1.8145 C   0  0  2  0  0  0  0  0  0  0  0  0
   -0.8617    1.2996    1.3733 C   0  0  0  0  0  0  0  0  0  0  0  0
    0.0104    0.9468    2.1646 O   0  0  0  0  0  0  0  0  0  0  0  0
   -2.1879    3.4017    1.7050 C   0  0  0  0  0  0  0  0  0  0  0  0
   -3.2085    1.8948    3.6787 H   0  0  0  0  0  0  0  0  0  0  0  0
   -3.0007    1.4665    1.1994 H   0  0  0  0  0  0  0  0  0  0  0  0
   -1.3888    3.8390    2.3147 H   0  0  0  0  0  0  0  0  0  0  0  0
   -2.0284    3.7240    0.6708 H   0  0  0  0  0  0  0  0  0  0  0  0
   -3.1380    3.8230    2.0508 H   0  0  0  0  0  0  0  0  0  0  0  0
   -0.7390    1.2565   -0.0101 N   0  0  0  0  0  0  0  0  0  0  0  0
    0.4383    0.7557   -0.6738 C   0  0  2  0  0  0  0  0  0  0  0  0
    1.3811    1.9372   -0.8722 C   0  0  0  0  0  0  0  0  0  0  0  0
    1.1282    3.0702   -0.4683 O   0  0  0  0  0  0  0  0  0  0  0  0
    0.1099    0.1037   -2.0218 C   0  0  0  0  0  0  0  0  0  0  0  0
   -0.7549   -1.1250   -1.8805 C   0  0  0  0  0  0  0  0  0  0  0  0
   -0.2496   -2.3200   -1.4281 N   0  3  0  0  0  0  0  0  0  0  0  0
   -2.0813   -1.3305   -2.1362 C   0  0  0  0  0  0  0  0  0  0  0  0
   -1.2239   -3.2352   -1.4034 C   0  0  0  0  0  0  0  0  0  0  0  0
   -2.3439   -2.6446   -1.8327 N   0  0  0  0  0  0  0  0  0  0  0  0
   -1.5221    1.5532   -0.5874 H   0  0  0  0  0  0  0  0  0  0  0  0
    0.9023    0.0377    0.0127 H   0  0  0  0  0  0  0  0  0  0  0  0
    1.0349   -0.1549   -2.5547 H   0  0  0  0  0  0  0  0  0  0  0  0
   -0.4096    0.8163   -2.6761 H   0  0  0  0  0  0  0  0  0  0  0  0
    0.7147   -2.4878   -1.1547 H   0  0  0  0  0  0  0  0  0  0  0  0
   -2.8960   -0.7342   -2.4960 H   0  0  0  0  0  0  0  0  0  0  0  0
   -1.1242   -4.2623   -1.0944 H   0  0  0  0  0  0  0  0  0  0  0  0
   -3.2480   -3.0999   -1.9205 H   0  0  0  0  0  0  0  0  0  0  0  0
    2.5565    1.5628   -1.5084 N   0  0  0  0  0  0  0  0  0  0  0  0
    3.6306    2.4854   -1.7982 C   0  0  2  0  0  0  0  0  0  0  0  0
    3.0311    3.7029   -2.4894 C   0  0  0  0  0  0  0  0  0  0  0  0
    1.9550    3.6751   -3.0830 O   0  0  0  0  0  0  0  0  0  0  0  0
    4.6973    1.8374   -2.6671 C   0  0  0  0  0  0  0  0  0  0  0  0
    2.6674    0.5915   -1.7841 H   0  0  0  0  0  0  0  0  0  0  0  0
    4.0585    2.7852   -0.8354 H   0  0  0  0  0  0  0  0  0  0  0  0
    4.2872    1.5304   -3.6362 H   0  0  0  0  0  0  0  0  0  0  0  0
    5.5239    2.5285   -2.8621 H   0  0  0  0  0  0  0  0  0  0  0  0
    5.1063    0.9449   -2.1815 H   0  0  0  0  0  0  0  0  0  0  0  0
    3.8594    4.8131   -2.4023 N   0  0  0  0  0  0  0  0  0  0  0  0
    3.5192    6.0877   -2.9902 C   0  0  0  0  0  0  0  0  0  0  0  0
    4.7249    4.7505   -1.8743 H   0  0  0  0  0  0  0  0  0  0  0  0
    3.9411    6.1487   -4.0042 H   0  0  0  0  0  0  0  0  0  0  0  0
    2.4249    6.1871   -3.0419 H   0  0  0  0  0  0  0  0  0  0  0  0
    3.9322    6.8984   -2.3719 H   0  0  0  0  0  0  0  0  0  0  0  0
 22 24  2  0  0  0  0
 24 26  1  0  0  0  0
 25 26  1  0  0  0  0
 23 25  2  0  0  0  0
 21 22  1  0  0  0  0
 22 23  1  0  0  0  0
  1  3  1  0  0  0  0
  1  7  1  0  0  0  0
  1  2  2  0  0  0  0
 36 37  1  0  0  0  0
 37 45  1  0  0  0  0
 37 38  2  0  0  0  0
  8  9  1  0  0  0  0
  9 17  1  0  0  0  0
  9 10  2  0  0  0  0
 18 19  1  0  0  0  0
 19 35  1  0  0  0  0
 19 20  2  0  0  0  0
 36 39  1  0  0  0  0
  8 11  1  0  0  0  0
 45 46  1  0  0  0  0
 18 21  1  0  0  0  0
 35 36  1  0  0  0  0
  7  8  1  0  0  0  0
 17 18  1  0  0  0  0
 24 32  1  0  0  0  0
 25 33  1  0  0  0  0
  3  4  1  0  0  0  0
  3  5  1  0  0  0  0
  3  6  1  0  0  0  0
 39 42  1  0  0  0  0
 39 43  1  0  0  0  0
 39 44  1  0  0  0  0
 11 14  1  0  0  0  0
 11 15  1  0  0  0  0
 11 16  1  0  0  0  0
 46 48  1  0  0  0  0
 46 49  1  0  0  0  0
 46 50  1  0  0  0  0
 21 29  1  0  0  0  0
 21 30  1  0  0  0  0
 36 41  1  0  0  0  0
  8 13  1  0  0  0  0
 18 28  1  0  0  0  0
 26 34  1  0  0  0  0
 23 31  1  0  0  0  0
 45 47  1  0  0  0  0
  7 12  1  0  0  0  0
 35 40  1  0  0  0  0
 17 27  1  0  0  0  0
M  CHG  1  23   1
M  END
$$$$

  -OEChem-05262214473D

 50 50  0     1  0  0  0  0  0999 V2000
   -1.6938    0.4865    3.8080 C   0  0  0  0  0  0  0  0  0  0  0  0
   -0.7464   -0.1282    3.3323 O   0  0  0  0  0  0  0  0  0  0  0  0
   -2.1257    0.2041    5.2087 C   0  0  0  0  0  0  0  0  0  0  0  0
   -2.8853   -0.5922    5.2621 H   0  0  0  0  0  0  0  0  0  0  0  0
   -1.2944   -0.1435    5.8430 H   0  0  0  0  0  0  0  0  0  0  0  0
   -2.5637    1.0590    5.7483 H   0  0  0  0  0  0  0  0  0  0  0  0
   -2.4435    1.4589    3.1669 N   0  0  0  0  0  0  0  0  0  0  0  0
   -2.1966    1.8850    1.8145 C   0  0  2  0  0  0  0  0  0  0  0  0
   -0.8617    1.2996    1.3733 C   0  0  0  0  0  0  0  0  0  0  0  0
    0.0104    0.9468    2.1646 O   0  0  0  0  0  0  0  0  0  0  0  0
   -2.1879    3.4017    1.7050 C   0  0  0  0  0  0  0  0  0  0  0  0
   -3.2085    1.8948    3.6787 H   0  0  0  0  0  0  0  0  0  0  0  0
   -3.0007    1.4665    1.1994 H   0  0  0  0  0  0  0  0  0  0  0  0
   -1.3888    3.8390    2.3147 H   0  0  0  0  0  0  0  0  0  0  0  0
   -2.0284    3.7240    0.6708 H   0  0  0  0  0  0  0  0  0  0  0  0
   -3.1380    3.8230    2.0508 H   0  0  0  0  0  0  0  0  0  0  0  0
   -0.7390    1.2565   -0.0101 N   0  0  0  0  0  0  0  0  0  0  0  0
    0.4383    0.7557   -0.6738 C   0  0  2  0  0  0  0  0  0  0  0  0
    1.3811    1.9372   -0.8722 C   0  0  0  0  0  0  0  0  0  0  0  0
    1.2701    2.9932   -0.2529 O   0  0  0  0  0  0  0  0  0  0  0  0
    0.1099    0.1037   -2.0218 C   0  0  0  0  0  0  0  0  0  0  0  0
   -0.7549   -1.1250   -1.8805 C   0  0  0  0  0  0  0  0  0  0  0  0
   -0.2496   -2.3200   -1.4281 N   0  3  0  0  0  0  0  0  0  0  0  0
   -2.0813   -1.3305   -2.1362 C   0  0  0  0  0  0  0  0  0  0  0  0
   -1.2239   -3.2352   -1.4034 C   0  0  0  0  0  0  0  0  0  0  0  0
   -2.3439   -2.6446   -1.8327 N   0  0  0  0  0  0  0  0  0  0  0  0
   -1.5221    1.5532   -0.5874 H   0  0  0  0  0  0  0  0  0  0  0  0
    0.9023    0.0377    0.0127 H   0  0  0  0  0  0  0  0  0  0  0  0
    1.0349   -0.1549   -2.5547 H   0  0  0  0  0  0  0  0  0  0  0  0
   -0.4096    0.8163   -2.6761 H   0  0  0  0  0  0  0  0  0  0  0  0
    0.7147   -2.4878   -1.1547 H   0  0  0  0  0  0  0  0  0  0  0  0
   -2.8960   -0.7342   -2.4960 H   0  0  0  0  0  0  0  0  0  0  0  0
   -1.1242   -4.2623   -1.0944 H   0  0  0  0  0  0  0  0  0  0  0  0
   -3.2480   -3.0999   -1.9205 H   0  0  0  0  0  0  0  0  0  0  0  0
    2.3872    1.6515   -1.7847 N   0  0  0  0  0  0  0  0  0  0  0  0
    3.4275    2.5903   -2.1387 C   0  0  2  0  0  0  0  0  0  0  0  0
    2.7647    3.9147   -2.4942 C   0  0  0  0  0  0  0  0  0  0  0  0
    1.5925    4.0030   -2.8534 O   0  0  0  0  0  0  0  0  0  0  0  0
    4.2674    2.0747   -3.2969 C   0  0  0  0  0  0  0  0  0  0  0  0
    2.3927    0.7366   -2.2259 H   0  0  0  0  0  0  0  0  0  0  0  0
    4.0519    2.7211   -1.2482 H   0  0  0  0  0  0  0  0  0  0  0  0
    3.6589    1.9374   -4.1982 H   0  0  0  0  0  0  0  0  0  0  0  0
    5.0727    2.7739   -3.5452 H   0  0  0  0  0  0  0  0  0  0  0  0
    4.7192    1.1078   -3.0505 H   0  0  0  0  0  0  0  0  0  0  0  0
    3.6484    4.9811   -2.4045 N   0  0  0  0  0  0  0  0  0  0  0  0
    3.2628    6.3404   -2.7039 C   0  0  0  0  0  0  0  0  0  0  0  0
    4.5970    4.8181   -2.0800 H   0  0  0  0  0  0  0  0  0  0  0  0
    3.4783    6.5590   -3.7601 H   0  0  0  0  0  0  0  0  0  0  0  0
    2.1863    6.4659   -2.5158 H   0  0  0  0  0  0  0  0  0  0  0  0
    3.8300    7.0318   -2.0633 H   0  0  0  0  0  0  0  0  0  0  0  0
 22 24  2  0  0  0  0
 24 26  1  0  0  0  0
 25 26  1  0  0  0  0
 23 25  2  0  0  0  0
 21 22  1  0  0  0  0
 22 23  1  0  0  0  0
  1  3  1  0  0  0  0
  1  7  1  0  0  0  0
  1  2  2  0  0  0  0
 36 37  1  0  0  0  0
 37 45  1  0  0  0  0
 37 38  2  0  0  0  0
  8  9  1  0  0  0  0
  9 17  1  0  0  0  0
  9 10  2  0  0  0  0
 18 19  1  0  0  0  0
 19 35  1  0  0  0  0
 19 20  2  0  0  0  0
 36 39  1  0  0  0  0
  8 11  1  0  0  0  0
 45 46  1  0  0  0  0
 18 21  1  0  0  0  0
 35 36  1  0  0  0  0
  7  8  1  0  0  0  0
 17 18  1  0  0  0  0
 24 32  1  0  0  0  0
 25 33  1  0  0  0  0
  3  4  1  0  0  0  0
  3  5  1  0  0  0  0
  3  6  1  0  0  0  0
 39 42  1  0  0  0  0
 39 43  1  0  0  0  0
 39 44  1  0  0  0  0
 11 14  1  0  0  0  0
 11 15  1  0  0  0  0
 11 16  1  0  0  0  0
 46 48  1  0  0  0  0
 46 49  1  0  0  0  0
 46 50  1  0  0  0  0
 21 29  1  0  0  0  0
 21 30  1  0  0  0  0
 36 41  1  0  0  0  0
  8 13  1  0  0  0  0
 18 28  1  0  0  0  0
 26 34  1  0  0  0  0
 23 31  1  0  0  0  0
 45 47  1  0  0  0  0
  7 12  1  0  0  0  0
 35 40  1  0  0  0  0
 17 27  1  0  0  0  0
M  CHG  1  23   1
M  END
$$$$

  -OEChem-05262214473D

 50 50  0     1  0  0  0  0  0999 V2000
   -1.6938    0.4865    3.8080 C   0  0  0  0  0  0  0  0  0  0  0  0
   -0.7464   -0.1282    3.3323 O   0  0  0  0  0  0  0  0  0  0  0  0
   -2.1257    0.2041    5.2087 C   0  0  0  0  0  0  0  0  0  0  0  0
   -2.8853   -0.5922    5.2621 H   0  0  0  0  0  0  0  0  0  0  0  0
   -1.2944   -0.1435    5.8430 H   0  0  0  0  0  0  0  0  0  0  0  0
   -2.5637    1.0590    5.7483 H   0  0  0  0  0  0  0  0  0  0  0  0
   -2.4435    1.4589    3.1669 N   0  0  0  0  0  0  0  0  0  0  0  0
   -2.1966    1.8850    1.8145 C   0  0  2  0  0  0  0  0  0  0  0  0
   -0.8617    1.2996    1.3733 C   0  0  0  0  0  0  0  0  0  0  0  0
    0.0104    0.9468    2.1646 O   0  0  0  0  0  0  0  0  0  0  0  0
   -2.1879    3.4017    1.7050 C   0  0  0  0  0  0  0  0  0  0  0  0
   -3.2085    1.8948    3.6787 H   0  0  0  0  0  0  0  0  0  0  0  0
   -3.0007    1.4665    1.1994 H   0  0  0  0  0  0  0  0  0  0  0  0
   -1.3888    3.8390    2.3147 H   0  0  0  0  0  0  0  0  0  0  0  0
   -2.0284    3.7240    0.6708 H   0  0  0  0  0  0  0  0  0  0  0  0
   -3.1380    3.8230    2.0508 H   0  0  0  0  0  0  0  0  0  0  0  0
   -0.7390    1.2565   -0.0101 N   0  0  0  0  0  0  0  0  0  0  0  0
    0.4383    0.7557   -0.6738 C   0  0  2  0  0  0  0  0  0  0  0  0
    1.3811    1.9372   -0.8722 C   0  0  0  0  0  0  0  0  0  0  0  0
    1.4478    2.8795   -0.0857 O   0  0  0  0  0  0  0  0  0  0  0  0
    0.1099    0.1037   -2.0218 C   0  0  0  0  0  0  0  0  0  0  0  0
   -0.7549   -1.1250   -1.8805 C   0  0  0  0  0  0  0  0  0  0  0  0
   -0.2496   -2.3200   -1.4281 N   0  3  0  0  0  0  0  0  0  0  0  0
   -2.0813   -1.3305   -2.1362 C   0  0  0  0  0  0  0  0  0  0  0  0
   -1.2239   -3.2352   -1.4034 C   0  0  0  0  0  0  0  0  0  0  0  0
   -2.3439   -2.6446   -1.8327 N   0  0  0  0  0  0  0  0  0  0  0  0
   -1.5221    1.5532   -0.5874 H   0  0  0  0  0  0  0  0  0  0  0  0
    0.9023    0.0377    0.0127 H   0  0  0  0  0  0  0  0  0  0  0  0
    1.0349   -0.1549   -2.5547 H   0  0  0  0  0  0  0  0  0  0  0  0
   -0.4096    0.8163   -2.6761 H   0  0  0  0  0  0  0  0  0  0  0  0
    0.7147   -2.4878   -1.1547 H   0  0  0  0  0  0  0  0  0  0  0  0
   -2.8960   -0.7342   -2.4960 H   0  0  0  0  0  0  0  0  0  0  0  0
   -1.1242   -4.2623   -1.0944 H   0  0  0  0  0  0  0  0  0  0  0  0
   -3.2480   -3.0999   -1.9205 H   0  0  0  0  0  0  0  0  0  0  0  0
    2.1712    1.7871   -2.0034 N   0  0  0  0  0  0  0  0  0  0  0  0
    3.1665    2.7530   -2.4101 C   0  0  2  0  0  0  0  0  0  0  0  0
    2.5137    4.1289   -2.4114 C   0  0  0  0  0  0  0  0  0  0  0  0
    1.2994    4.2951   -2.5065 O   0  0  0  0  0  0  0  0  0  0  0  0
    3.7338    2.4192   -3.7810 C   0  0  0  0  0  0  0  0  0  0  0  0
    2.0435    0.9567   -2.5742 H   0  0  0  0  0  0  0  0  0  0  0  0
    3.9605    2.7256   -1.6558 H   0  0  0  0  0  0  0  0  0  0  0  0
    2.9529    2.4417   -4.5498 H   0  0  0  0  0  0  0  0  0  0  0  0
    4.5080    3.1355   -4.0752 H   0  0  0  0  0  0  0  0  0  0  0  0
    4.1766    1.4173   -3.7862 H   0  0  0  0  0  0  0  0  0  0  0  0
    3.4498    5.1508   -2.3374 N   0  0  0  0  0  0  0  0  0  0  0  0
    3.0811    6.5473   -2.3354 C   0  0  0  0  0  0  0  0  0  0  0  0
    4.4345    4.9205   -2.2422 H   0  0  0  0  0  0  0  0  0  0  0  0
    3.0940    6.9319   -3.3659 H   0  0  0  0  0  0  0  0  0  0  0  0
    2.0707    6.6590   -1.9152 H   0  0  0  0  0  0  0  0  0  0  0  0
    3.7976    7.1147   -1.7234 H   0  0  0  0  0  0  0  0  0  0  0  0
 22 24  2  0  0  0  0
 24 26  1  0  0  0  0
 25 26  1  0  0  0  0
 23 25  2  0  0  0  0
 21 22  1  0  0  0  0
 22 23  1  0  0  0  0
  1  3  1  0  0  0  0
  1  7  1  0  0  0  0
  1  2  2  0  0  0  0
 36 37  1  0  0  0  0
 37 45  1  0  0  0  0
 37 38  2  0  0  0  0
  8  9  1  0  0  0  0
  9 17  1  0  0  0  0
  9 10  2  0  0  0  0
 18 19  1  0  0  0  0
 19 35  1  0  0  0  0
 19 20  2  0  0  0  0
 36 39  1  0  0  0  0
  8 11  1  0  0  0  0
 45 46  1  0  0  0  0
 18 21  1  0  0  0  0
 35 36  1  0  0  0  0
  7  8  1  0  0  0  0
 17 18  1  0  0  0  0
 24 32  1  0  0  0  0
 25 33  1  0  0  0  0
  3  4  1  0  0  0  0
  3  5  1  0  0  0  0
  3  6  1  0  0  0  0
 39 42  1  0  0  0  0
 39 43  1  0  0  0  0
 39 44  1  0  0  0  0
 11 14  1  0  0  0  0
 11 15  1  0  0  0  0
 11 16  1  0  0  0  0
 46 48  1  0  0  0  0
 46 49  1  0  0  0  0
 46 50  1  0  0  0  0
 21 29  1  0  0  0  0
 21 30  1  0  0  0  0
 36 41  1  0  0  0  0
  8 13  1  0  0  0  0
 18 28  1  0  0  0  0
 26 34  1  0  0  0  0
 23 31  1  0  0  0  0
 45 47  1  0  0  0  0
  7 12  1  0  0  0  0
 35 40  1  0  0  0  0
 17 27  1  0  0  0  0
M  CHG  1  23   1
M  END
$$$$

  -OEChem-05262214473D

 50 50  0     1  0  0  0  0  0999 V2000
   -1.6938    0.4865    3.8080 C   0  0  0  0  0  0  0  0  0  0  0  0
   -0.7464   -0.1282    3.3323 O   0  0  0  0  0  0  0  0  0  0  0  0
   -2.1257    0.2041    5.2087 C   0  0  0  0  0  0  0  0  0  0  0  0
   -2.8853   -0.5922    5.2621 H   0  0  0  0  0  0  0  0  0  0  0  0
   -1.2944   -0.1435    5.8430 H   0  0  0  0  0  0  0  0  0  0  0  0
   -2.5637    1.0590    5.7483 H   0  0  0  0  0  0  0  0  0  0  0  0
   -2.4435    1.4589    3.1669 N   0  0  0  0  0  0  0  0  0  0  0  0
   -2.1966    1.8850    1.8145 C   0  0  2  0  0  0  0  0  0  0  0  0
   -0.8617    1.2996    1.3733 C   0  0  0  0  0  0  0  0  0  0  0  0
    0.0104    0.9468    2.1646 O   0  0  0  0  0  0  0  0  0  0  0  0
   -2.1879    3.4017    1.7050 C   0  0  0  0  0  0  0  0  0  0  0  0
   -3.2085    1.8948    3.6787 H   0  0  0  0  0  0  0  0  0  0  0  0
   -3.0007    1.4665    1.1994 H   0  0  0  0  0  0  0  0  0  0  0  0
   -1.3888    3.8390    2.3147 H   0  0  0  0  0  0  0  0  0  0  0  0
   -2.0284    3.7240    0.6708 H   0  0  0  0  0  0  0  0  0  0  0  0
   -3.1380    3.8230    2.0508 H   0  0  0  0  0  0  0  0  0  0  0  0
   -0.7390    1.2565   -0.0101 N   0  0  0  0  0  0  0  0  0  0  0  0
    0.4383    0.7557   -0.6738 C   0  0  2  0  0  0  0  0  0  0  0  0
    1.3811    1.9372   -0.8722 C   0  0  0  0  0  0  0  0  0  0  0  0
    1.6491    2.7369    0.0220 O   0  0  0  0  0  0  0  0  0  0  0  0
    0.1099    0.1037   -2.0218 C   0  0  0  0  0  0  0  0  0  0  0  0
   -0.7549   -1.1250   -1.8805 C   0  0  0  0  0  0  0  0  0  0  0  0
   -0.2496   -2.3200   -1.4281 N   0  3  0  0  0  0  0  0  0  0  0  0
   -2.0813   -1.3305   -2.1362 C   0  0  0  0  0  0  0  0  0  0  0  0
   -1.2239   -3.2352   -1.4034 C   0  0  0  0  0  0  0  0  0  0  0  0
   -2.3439   -2.6446   -1.8327 N   0  0  0  0  0  0  0  0  0  0  0  0
   -1.5221    1.5532   -0.5874 H   0  0  0  0  0  0  0  0  0  0  0  0
    0.9023    0.0377    0.0127 H   0  0  0  0  0  0  0  0  0  0  0  0
    1.0349   -0.1549   -2.5547 H   0  0  0  0  0  0  0  0  0  0  0  0
   -0.4096    0.8163   -2.6761 H   0  0  0  0  0  0  0  0  0  0  0  0
    0.7147   -2.4878   -1.1547 H   0  0  0  0  0  0  0  0  0  0  0  0
   -2.8960   -0.7342   -2.4960 H   0  0  0  0  0  0  0  0  0  0  0  0
   -1.1242   -4.2623   -1.0944 H   0  0  0  0  0  0  0  0  0  0  0  0
   -3.2480   -3.0999   -1.9205 H   0  0  0  0  0  0  0  0  0  0  0  0
    1.9233    1.9604   -2.1497 N   0  0  0  0  0  0  0  0  0  0  0  0
    2.8655    2.9623   -2.5938 C   0  0  2  0  0  0  0  0  0  0  0  0
    2.2949    4.3311   -2.2469 C   0  0  0  0  0  0  0  0  0  0  0  0
    1.0957    4.5317   -2.0658 O   0  0  0  0  0  0  0  0  0  0  0  0
    3.1330    2.8473   -4.0864 C   0  0  0  0  0  0  0  0  0  0  0  0
    1.6438    1.2368   -2.8055 H   0  0  0  0  0  0  0  0  0  0  0  0
    3.7906    2.7982   -2.0305 H   0  0  0  0  0  0  0  0  0  0  0  0
    2.2175    3.0088   -4.6672 H   0  0  0  0  0  0  0  0  0  0  0  0
    3.8685    3.5886   -4.4160 H   0  0  0  0  0  0  0  0  0  0  0  0
    3.5152    1.8522   -4.3384 H   0  0  0  0  0  0  0  0  0  0  0  0
    3.2771    5.3107   -2.2056 N   0  0  0  0  0  0  0  0  0  0  0  0
    2.9864    6.6943   -1.9100 C   0  0  0  0  0  0  0  0  0  0  0  0
    4.2484    5.0509   -2.3498 H   0  0  0  0  0  0  0  0  0  0  0  0
    2.8145    7.2419   -2.8484 H   0  0  0  0  0  0  0  0  0  0  0  0
    2.0861    6.7533   -1.2809 H   0  0  0  0  0  0  0  0  0  0  0  0
    3.8374    7.1414   -1.3753 H   0  0  0  0  0  0  0  0  0  0  0  0
 22 24  2  0  0  0  0
 24 26  1  0  0  0  0
 25 26  1  0  0  0  0
 23 25  2  0  0  0  0
 21 22  1  0  0  0  0
 22 23  1  0  0  0  0
  1  3  1  0  0  0  0
  1  7  1  0  0  0  0
  1  2  2  0  0  0  0
 36 37  1  0  0  0  0
 37 45  1  0  0  0  0
 37 38  2  0  0  0  0
  8  9  1  0  0  0  0
  9 17  1  0  0  0  0
  9 10  2  0  0  0  0
 18 19  1  0  0  0  0
 19 35  1  0  0  0  0
 19 20  2  0  0  0  0
 36 39  1  0  0  0  0
  8 11  1  0  0  0  0
 45 46  1  0  0  0  0
 18 21  1  0  0  0  0
 35 36  1  0  0  0  0
  7  8  1  0  0  0  0
 17 18  1  0  0  0  0
 24 32  1  0  0  0  0
 25 33  1  0  0  0  0
  3  4  1  0  0  0  0
  3  5  1  0  0  0  0
  3  6  1  0  0  0  0
 39 42  1  0  0  0  0
 39 43  1  0  0  0  0
 39 44  1  0  0  0  0
 11 14  1  0  0  0  0
 11 15  1  0  0  0  0
 11 16  1  0  0  0  0
 46 48  1  0  0  0  0
 46 49  1  0  0  0  0
 46 50  1  0  0  0  0
 21 29  1  0  0  0  0
 21 30  1  0  0  0  0
 36 41  1  0  0  0  0
  8 13  1  0  0  0  0
 18 28  1  0  0  0  0
 26 34  1  0  0  0  0
 23 31  1  0  0  0  0
 45 47  1  0  0  0  0
  7 12  1  0  0  0  0
 35 40  1  0  0  0  0
 17 27  1  0  0  0  0
M  CHG  1  23   1
M  END
$$$$

  -OEChem-05262214473D

 50 50  0     1  0  0  0  0  0999 V2000
   -1.6938    0.4865    3.8080 C   0  0  0  0  0  0  0  0  0  0  0  0
   -0.7464   -0.1282    3.3323 O   0  0  0  0  0  0  0  0  0  0  0  0
   -2.1257    0.2041    5.2087 C   0  0  0  0  0  0  0  0  0  0  0  0
   -2.8853   -0.5922    5.2621 H   0  0  0  0  0  0  0  0  0  0  0  0
   -1.2944   -0.1435    5.8430 H   0  0  0  0  0  0  0  0  0  0  0  0
   -2.5637    1.0590    5.7483 H   0  0  0  0  0  0  0  0  0  0  0  0
   -2.4435    1.4589    3.1669 N   0  0  0  0  0  0  0  0  0  0  0  0
   -2.1966    1.8850    1.8145 C   0  0  2  0  0  0  0  0  0  0  0  0
   -0.8617    1.2996    1.3733 C   0  0  0  0  0  0  0  0  0  0  0  0
    0.0104    0.9468    2.1646 O   0  0  0  0  0  0  0  0  0  0  0  0
   -2.1879    3.4017    1.7050 C   0  0  0  0  0  0  0  0  0  0  0  0
   -3.2085    1.8948    3.6787 H   0  0  0  0  0  0  0  0  0  0  0  0
   -3.0007    1.4665    1.1994 H   0  0  0  0  0  0  0  0  0  0  0  0
   -1.3888    3.8390    2.3147 H   0  0  0  0  0  0  0  0  0  0  0  0
   -2.0284    3.7240    0.6708 H   0  0  0  0  0  0  0  0  0  0  0  0
   -3.1380    3.8230    2.0508 H   0  0  0  0  0  0  0  0  0  0  0  0
   -0.7390    1.2565   -0.0101 N   0  0  0  0  0  0  0  0  0  0  0  0
    0.4383    0.7557   -0.6738 C   0  0  2  0  0  0  0  0  0  0  0  0
    1.3811    1.9372   -0.8722 C   0  0  0  0  0  0  0  0  0  0  0  0
    1.8604    2.5752    0.0628 O   0  0  0  0  0  0  0  0  0  0  0  0
    0.1099    0.1037   -2.0218 C   0  0  0  0  0  0  0  0  0  0  0  0
   -0.7549   -1.1250   -1.8805 C   0  0  0  0  0  0  0  0  0  0  0  0
   -0.2496   -2.3200   -1.4281 N   0  3  0  0  0  0  0  0  0  0  0  0
   -2.0813   -1.3305   -2.1362 C   0  0  0  0  0  0  0  0  0  0  0  0
   -1.2239   -3.2352   -1.4034 C   0  0  0  0  0  0  0  0  0  0  0  0
   -2.3439   -2.6446   -1.8327 N   0  0  0  0  0  0  0  0  0  0  0  0
   -1.5221    1.5532   -0.5874 H   0  0  0  0  0  0  0  0  0  0  0  0
    0.9023    0.0377    0.0127 H   0  0  0  0  0  0  0  0  0  0  0  0
    1.0349   -0.1549   -2.5547 H   0  0  0  0  0  0  0  0  0  0  0  0
   -0.4096    0.8163   -2.6761 H   0  0  0  0  0  0  0  0  0  0  0  0
    0.7147   -2.4878   -1.1547 H   0  0  0  0  0  0  0  0  0  0  0  0
   -2.8960   -0.7342   -2.4960 H   0  0  0  0  0  0  0  0  0  0  0  0
   -1.1242   -4.2623   -1.0944 H   0  0  0  0  0  0  0  0  0  0  0  0
   -3.2480   -3.0999   -1.9205 H   0  0  0  0  0  0  0  0  0  0  0  0
    1.6603    2.1596   -2.2135 N   0  0  0  0  0  0  0  0  0  0  0  0
    2.5450    3.2041   -2.6774 C   0  0  2  0  0  0  0  0  0  0  0  0
    2.1235    4.5074   -2.0117 C   0  0  0  0  0  0  0  0  0  0  0  0
    0.9954    4.6965   -1.5615 O   0  0  0  0  0  0  0  0  0  0  0  0
    2.5057    3.3301   -4.1924 C   0  0  0  0  0  0  0  0  0  0  0  0
    1.2208    1.5579   -2.9038 H   0  0  0  0  0  0  0  0  0  0  0  0
    3.5538    2.9340   -2.3468 H   0  0  0  0  0  0  0  0  0  0  0  0
    1.5027    3.6002   -4.5423 H   0  0  0  0  0  0  0  0  0  0  0  0
    3.1977    4.1023   -4.5444 H   0  0  0  0  0  0  0  0  0  0  0  0
    2.7804    2.3831   -4.6695 H   0  0  0  0  0  0  0  0  0  0  0  0
    3.1422    5.4499   -2.0181 N   0  0  0  0  0  0  0  0  0  0  0  0
    2.9853    6.7713   -1.4566 C   0  0  0  0  0  0  0  0  0  0  0  0
    4.0515    5.2003   -2.3957 H   0  0  0  0  0  0  0  0  0  0  0  0
    2.6587    7.4680   -2.2428 H   0  0  0  0  0  0  0  0  0  0  0  0
    2.2313    6.7423   -0.6562 H   0  0  0  0  0  0  0  0  0  0  0  0
    3.9465    7.1102   -1.0427 H   0  0  0  0  0  0  0  0  0  0  0  0
 22 24  2  0  0  0  0
 24 26  1  0  0  0  0
 25 26  1  0  0  0  0
 23 25  2  0  0  0  0
 21 22  1  0  0  0  0
 22 23  1  0  0  0  0
  1  3  1  0  0  0  0
  1  7  1  0  0  0  0
  1  2  2  0  0  0  0
 36 37  1  0  0  0  0
 37 45  1  0  0  0  0
 37 38  2  0  0  0  0
  8  9  1  0  0  0  0
  9 17  1  0  0  0  0
  9 10  2  0  0  0  0
 18 19  1  0  0  0  0
 19 35  1  0  0  0  0
 19 20  2  0  0  0  0
 36 39  1  0  0  0  0
  8 11  1  0  0  0  0
 45 46  1  0  0  0  0
 18 21  1  0  0  0  0
 35 36  1  0  0  0  0
  7  8  1  0  0  0  0
 17 18  1  0  0  0  0
 24 32  1  0  0  0  0
 25 33  1  0  0  0  0
  3  4  1  0  0  0  0
  3  5  1  0  0  0  0
  3  6  1  0  0  0  0
 39 42  1  0  0  0  0
 39 43  1  0  0  0  0
 39 44  1  0  0  0  0
 11 14  1  0  0  0  0
 11 15  1  0  0  0  0
 11 16  1  0  0  0  0
 46 48  1  0  0  0  0
 46 49  1  0  0  0  0
 46 50  1  0  0  0  0
 21 29  1  0  0  0  0
 21 30  1  0  0  0  0
 36 41  1  0  0  0  0
  8 13  1  0  0  0  0
 18 28  1  0  0  0  0
 26 34  1  0  0  0  0
 23 31  1  0  0  0  0
 45 47  1  0  0  0  0
  7 12  1  0  0  0  0
 35 40  1  0  0  0  0
 17 27  1  0  0  0  0
M  CHG  1  23   1
M  END
$$$$

  -OEChem-05262214473D

 50 50  0     1  0  0  0  0  0999 V2000
   -1.6938    0.4865    3.8080 C   0  0  0  0  0  0  0  0  0  0  0  0
   -0.7464   -0.1282    3.3323 O   0  0  0  0  0  0  0  0  0  0  0  0
   -2.1257    0.2041    5.2087 C   0  0  0  0  0  0  0  0  0  0  0  0
   -2.8853   -0.5922    5.2621 H   0  0  0  0  0  0  0  0  0  0  0  0
   -1.2944   -0.1435    5.8430 H   0  0  0  0  0  0  0  0  0  0  0  0
   -2.5637    1.0590    5.7483 H   0  0  0  0  0  0  0  0  0  0  0  0
   -2.4435    1.4589    3.1669 N   0  0  0  0  0  0  0  0  0  0  0  0
   -2.1966    1.8850    1.8145 C   0  0  2  0  0  0  0  0  0  0  0  0
   -0.8617    1.2996    1.3733 C   0  0  0  0  0  0  0  0  0  0  0  0
    0.0104    0.9468    2.1646 O   0  0  0  0  0  0  0  0  0  0  0  0
   -2.1879    3.4017    1.7050 C   0  0  0  0  0  0  0  0  0  0  0  0
   -3.2085    1.8948    3.6787 H   0  0  0  0  0  0  0  0  0  0  0  0
   -3.0007    1.4665    1.1994 H   0  0  0  0  0  0  0  0  0  0  0  0
   -1.3888    3.8390    2.3147 H   0  0  0  0  0  0  0  0  0  0  0  0
   -2.0284    3.7240    0.6708 H   0  0  0  0  0  0  0  0  0  0  0  0
   -3.1380    3.8230    2.0508 H   0  0  0  0  0  0  0  0  0  0  0  0
   -0.7390    1.2565   -0.0101 N   0  0  0  0  0  0  0  0  0  0  0  0
    0.4383    0.7557   -0.6738 C   0  0  2  0  0  0  0  0  0  0  0  0
    1.3811    1.9372   -0.8722 C   0  0  0  0  0  0  0  0  0  0  0  0
    2.0672    2.4053    0.0339 O   0  0  0  0  0  0  0  0  0  0  0  0
    0.1099    0.1037   -2.0218 C   0  0  0  0  0  0  0  0  0  0  0  0
   -0.7549   -1.1250   -1.8805 C   0  0  0  0  0  0  0  0  0  0  0  0
   -0.2496   -2.3200   -1.4281 N   0  3  0  0  0  0  0  0  0  0  0  0
   -2.0813   -1.3305   -2.1362 C   0  0  0  0  0  0  0  0  0  0  0  0
   -1.2239   -3.2352   -1.4034 C   0  0  0  0  0  0  0  0  0  0  0  0
   -2.3439   -2.6446   -1.8327 N   0  0  0  0  0  0  0  0  0  0  0  0
   -1.5221    1.5532   -0.5874 H   0  0  0  0  0  0  0  0  0  0  0  0
    0.9023    0.0377    0.0127 H   0  0  0  0  0  0  0  0  0  0  0  0
    1.0349   -0.1549   -2.5547 H   0  0  0  0  0  0  0  0  0  0  0  0
   -0.4096    0.8163   -2.6761 H   0  0  0  0  0  0  0  0  0  0  0  0
    0.7147   -2.4878   -1.1547 H   0  0  0  0  0  0  0  0  0  0  0  0
   -2.8960   -0.7342   -2.4960 H   0  0  0  0  0  0  0  0  0  0  0  0
   -1.1242   -4.2623   -1.0944 H   0  0  0  0  0  0  0  0  0  0  0  0
   -3.2480   -3.0999   -1.9205 H   0  0  0  0  0  0  0  0  0  0  0  0
    1.4002    2.3710   -2.1905 N   0  0  0  0  0  0  0  0  0  0  0  0
    2.2267    3.4618   -2.6551 C   0  0  2  0  0  0  0  0  0  0  0  0
    2.0110    4.6458   -1.7219 C   0  0  0  0  0  0  0  0  0  0  0  0
    1.0052    4.7783   -1.0278 O   0  0  0  0  0  0  0  0  0  0  0  0
    1.8949    3.8344   -4.0917 C   0  0  0  0  0  0  0  0  0  0  0  0
    0.8032    1.8980   -2.8626 H   0  0  0  0  0  0  0  0  0  0  0  0
    3.2662    3.1238   -2.5830 H   0  0  0  0  0  0  0  0  0  0  0  0
    0.8573    4.1755   -4.1837 H   0  0  0  0  0  0  0  0  0  0  0  0
    2.5413    4.6417   -4.4516 H   0  0  0  0  0  0  0  0  0  0  0  0
    2.0220    2.9736   -4.7569 H   0  0  0  0  0  0  0  0  0  0  0  0
    3.0541    5.5589   -1.7876 N   0  0  0  0  0  0  0  0  0  0  0  0
    3.0777    6.7732   -1.0060 C   0  0  0  0  0  0  0  0  0  0  0  0
    3.8572    5.3586   -2.3765 H   0  0  0  0  0  0  0  0  0  0  0  0
    2.6373    7.5946   -1.5904 H   0  0  0  0  0  0  0  0  0  0  0  0
    2.4965    6.6269   -0.0837 H   0  0  0  0  0  0  0  0  0  0  0  0
    4.1175    7.0232   -0.7484 H   0  0  0  0  0  0  0  0  0  0  0  0
 22 24  2  0  0  0  0
 24 26  1  0  0  0  0
 25 26  1  0  0  0  0
 23 25  2  0  0  0  0
 21 22  1  0  0  0  0
 22 23  1  0  0  0  0
  1  3  1  0  0  0  0
  1  7  1  0  0  0  0
  1  2  2  0  0  0  0
 36 37  1  0  0  0  0
 37 45  1  0  0  0  0
 37 38  2  0  0  0  0
  8  9  1  0  0  0  0
  9 17  1  0  0  0  0
  9 10  2  0  0  0  0
 18 19  1  0  0  0  0
 19 35  1  0  0  0  0
 19 20  2  0  0  0  0
 36 39  1  0  0  0  0
  8 11  1  0  0  0  0
 45 46  1  0  0  0  0
 18 21  1  0  0  0  0
 35 36  1  0  0  0  0
  7  8  1  0  0  0  0
 17 18  1  0  0  0  0
 24 32  1  0  0  0  0
 25 33  1  0  0  0  0
  3  4  1  0  0  0  0
  3  5  1  0  0  0  0
  3  6  1  0  0  0  0
 39 42  1  0  0  0  0
 39 43  1  0  0  0  0
 39 44  1  0  0  0  0
 11 14  1  0  0  0  0
 11 15  1  0  0  0  0
 11 16  1  0  0  0  0
 46 48  1  0  0  0  0
 46 49  1  0  0  0  0
 46 50  1  0  0  0  0
 21 29  1  0  0  0  0
 21 30  1  0  0  0  0
 36 41  1  0  0  0  0
  8 13  1  0  0  0  0
 18 28  1  0  0  0  0
 26 34  1  0  0  0  0
 23 31  1  0  0  0  0
 45 47  1  0  0  0  0
  7 12  1  0  0  0  0
 35 40  1  0  0  0  0
 17 27  1  0  0  0  0
M  CHG  1  23   1
M  END
$$$$

  -OEChem-05262214473D

 50 50  0     1  0  0  0  0  0999 V2000
   -1.6938    0.4865    3.8080 C   0  0  0  0  0  0  0  0  0  0  0  0
   -0.7464   -0.1282    3.3323 O   0  0  0  0  0  0  0  0  0  0  0  0
   -2.1257    0.2041    5.2087 C   0  0  0  0  0  0  0  0  0  0  0  0
   -2.8853   -0.5922    5.2621 H   0  0  0  0  0  0  0  0  0  0  0  0
   -1.2944   -0.1435    5.8430 H   0  0  0  0  0  0  0  0  0  0  0  0
   -2.5637    1.0590    5.7483 H   0  0  0  0  0  0  0  0  0  0  0  0
   -2.4435    1.4589    3.1669 N   0  0  0  0  0  0  0  0  0  0  0  0
   -2.1966    1.8850    1.8145 C   0  0  2  0  0  0  0  0  0  0  0  0
   -0.8617    1.2996    1.3733 C   0  0  0  0  0  0  0  0  0  0  0  0
    0.0104    0.9468    2.1646 O   0  0  0  0  0  0  0  0  0  0  0  0
   -2.1879    3.4017    1.7050 C   0  0  0  0  0  0  0  0  0  0  0  0
   -3.2085    1.8948    3.6787 H   0  0  0  0  0  0  0  0  0  0  0  0
   -3.0007    1.4665    1.1994 H   0  0  0  0  0  0  0  0  0  0  0  0
   -1.3888    3.8390    2.3147 H   0  0  0  0  0  0  0  0  0  0  0  0
   -2.0284    3.7240    0.6708 H   0  0  0  0  0  0  0  0  0  0  0  0
   -3.1380    3.8230    2.0508 H   0  0  0  0  0  0  0  0  0  0  0  0
   -0.7390    1.2565   -0.0101 N   0  0  0  0  0  0  0  0  0  0  0  0
    0.4383    0.7557   -0.6738 C   0  0  2  0  0  0  0  0  0  0  0  0
    1.3811    1.9372   -0.8722 C   0  0  0  0  0  0  0  0  0  0  0  0
    2.2554    2.2389   -0.0626 O   0  0  0  0  0  0  0  0  0  0  0  0
    0.1099    0.1037   -2.0218 C   0  0  0  0  0  0  0  0  0  0  0  0
   -0.7549   -1.1250   -1.8805 C   0  0  0  0  0  0  0  0  0  0  0  0
   -0.2496   -2.3200   -1.4281 N   0  3  0  0  0  0  0  0  0  0  0  0
   -2.0813   -1.3305   -2.1362 C   0  0  0  0  0  0  0  0  0  0  0  0
   -1.2239   -3.2352   -1.4034 C   0  0  0  0  0  0  0  0  0  0  0  0
   -2.3439   -2.6446   -1.8327 N   0  0  0  0  0  0  0  0  0  0  0  0
   -1.5221    1.5532   -0.5874 H   0  0  0  0  0  0  0  0  0  0  0  0
    0.9023    0.0377    0.0127 H   0  0  0  0  0  0  0  0  0  0  0  0
    1.0349   -0.1549   -2.5547 H   0  0  0  0  0  0  0  0  0  0  0  0
   -0.4096    0.8163   -2.6761 H   0  0  0  0  0  0  0  0  0  0  0  0
    0.7147   -2.4878   -1.1547 H   0  0  0  0  0  0  0  0  0  0  0  0
   -2.8960   -0.7342   -2.4960 H   0  0  0  0  0  0  0  0  0  0  0  0
   -1.1242   -4.2623   -1.0944 H   0  0  0  0  0  0  0  0  0  0  0  0
   -3.2480   -3.0999   -1.9205 H   0  0  0  0  0  0  0  0  0  0  0  0
    1.1607    2.5803   -2.0823 N   0  0  0  0  0  0  0  0  0  0  0  0
    1.9324    3.7178   -2.5285 C   0  0  2  0  0  0  0  0  0  0  0  0
    1.9651    4.7370   -1.3973 C   0  0  0  0  0  0  0  0  0  0  0  0
    1.1244    4.7716   -0.5011 O   0  0  0  0  0  0  0  0  0  0  0  0
    1.3420    4.3261   -3.7912 C   0  0  0  0  0  0  0  0  0  0  0  0
    0.4197    2.2340   -2.6845 H   0  0  0  0  0  0  0  0  0  0  0  0
    2.9475    3.3547   -2.7232 H   0  0  0  0  0  0  0  0  0  0  0  0
    0.3251    4.6955   -3.6156 H   0  0  0  0  0  0  0  0  0  0  0  0
    1.9440    5.1700   -4.1440 H   0  0  0  0  0  0  0  0  0  0  0  0
    1.2918    3.5835   -4.5948 H   0  0  0  0  0  0  0  0  0  0  0  0
    3.0190    5.6302   -1.5298 N   0  0  0  0  0  0  0  0  0  0  0  0
    3.2574    6.6999   -0.5891 C   0  0  0  0  0  0  0  0  0  0  0  0
    3.6786    5.5150   -2.2937 H   0  0  0  0  0  0  0  0  0  0  0  0
    2.7518    7.6132   -0.9356 H   0  0  0  0  0  0  0  0  0  0  0  0
    2.8636    6.4148    0.3976 H   0  0  0  0  0  0  0  0  0  0  0  0
    4.3388    6.8862   -0.5123 H   0  0  0  0  0  0  0  0  0  0  0  0
 22 24  2  0  0  0  0
 24 26  1  0  0  0  0
 25 26  1  0  0  0  0
 23 25  2  0  0  0  0
 21 22  1  0  0  0  0
 22 23  1  0  0  0  0
  1  3  1  0  0  0  0
  1  7  1  0  0  0  0
  1  2  2  0  0  0  0
 36 37  1  0  0  0  0
 37 45  1  0  0  0  0
 37 38  2  0  0  0  0
  8  9  1  0  0  0  0
  9 17  1  0  0  0  0
  9 10  2  0  0  0  0
 18 19  1  0  0  0  0
 19 35  1  0  0  0  0
 19 20  2  0  0  0  0
 36 39  1  0  0  0  0
  8 11  1  0  0  0  0
 45 46  1  0  0  0  0
 18 21  1  0  0  0  0
 35 36  1  0  0  0  0
  7  8  1  0  0  0  0
 17 18  1  0  0  0  0
 24 32  1  0  0  0  0
 25 33  1  0  0  0  0
  3  4  1  0  0  0  0
  3  5  1  0  0  0  0
  3  6  1  0  0  0  0
 39 42  1  0  0  0  0
 39 43  1  0  0  0  0
 39 44  1  0  0  0  0
 11 14  1  0  0  0  0
 11 15  1  0  0  0  0
 11 16  1  0  0  0  0
 46 48  1  0  0  0  0
 46 49  1  0  0  0  0
 46 50  1  0  0  0  0
 21 29  1  0  0  0  0
 21 30  1  0  0  0  0
 36 41  1  0  0  0  0
  8 13  1  0  0  0  0
 18 28  1  0  0  0  0
 26 34  1  0  0  0  0
 23 31  1  0  0  0  0
 45 47  1  0  0  0  0
  7 12  1  0  0  0  0
 35 40  1  0  0  0  0
 17 27  1  0  0  0  0
M  CHG  1  23   1
M  END
$$$$

  -OEChem-05262214473D

 50 50  0     1  0  0  0  0  0999 V2000
   -1.6938    0.4865    3.8080 C   0  0  0  0  0  0  0  0  0  0  0  0
   -0.7464   -0.1282    3.3323 O   0  0  0  0  0  0  0  0  0  0  0  0
   -2.1257    0.2041    5.2087 C   0  0  0  0  0  0  0  0  0  0  0  0
   -2.8853   -0.5922    5.2621 H   0  0  0  0  0  0  0  0  0  0  0  0
   -1.2944   -0.1435    5.8430 H   0  0  0  0  0  0  0  0  0  0  0  0
   -2.5637    1.0590    5.7483 H   0  0  0  0  0  0  0  0  0  0  0  0
   -2.4435    1.4589    3.1669 N   0  0  0  0  0  0  0  0  0  0  0  0
   -2.1966    1.8850    1.8145 C   0  0  2  0  0  0  0  0  0  0  0  0
   -0.8617    1.2996    1.3733 C   0  0  0  0  0  0  0  0  0  0  0  0
    0.0104    0.9468    2.1646 O   0  0  0  0  0  0  0  0  0  0  0  0
   -2.1879    3.4017    1.7050 C   0  0  0  0  0  0  0  0  0  0  0  0
   -3.2085    1.8948    3.6787 H   0  0  0  0  0  0  0  0  0  0  0  0
   -3.0007    1.4665    1.1994 H   0  0  0  0  0  0  0  0  0  0  0  0
   -1.3888    3.8390    2.3147 H   0  0  0  0  0  0  0  0  0  0  0  0
   -2.0284    3.7240    0.6708 H   0  0  0  0  0  0  0  0  0  0  0  0
   -3.1380    3.8230    2.0508 H   0  0  0  0  0  0  0  0  0  0  0  0
   -0.7390    1.2565   -0.0101 N   0  0  0  0  0  0  0  0  0  0  0  0
    0.4383    0.7557   -0.6738 C   0  0  2  0  0  0  0  0  0  0  0  0
    1.3811    1.9372   -0.8722 C   0  0  0  0  0  0  0  0  0  0  0  0
    2.4123    2.0872   -0.2202 O   0  0  0  0  0  0  0  0  0  0  0  0
    0.1099    0.1037   -2.0218 C   0  0  0  0  0  0  0  0  0  0  0  0
   -0.7549   -1.1250   -1.8805 C   0  0  0  0  0  0  0  0  0  0  0  0
   -0.2496   -2.3200   -1.4281 N   0  3  0  0  0  0  0  0  0  0  0  0
   -2.0813   -1.3305   -2.1362 C   0  0  0  0  0  0  0  0  0  0  0  0
   -1.2239   -3.2352   -1.4034 C   0  0  0  0  0  0  0  0  0  0  0  0
   -2.3439   -2.6446   -1.8327 N   0  0  0  0  0  0  0  0  0  0  0  0
   -1.5221    1.5532   -0.5874 H   0  0  0  0  0  0  0  0  0  0  0  0
    0.9023    0.0377    0.0127 H   0  0  0  0  0  0  0  0  0  0  0  0
    1.0349   -0.1549   -2.5547 H   0  0  0  0  0  0  0  0  0  0  0  0
   -0.4096    0.8163   -2.6761 H   0  0  0  0  0  0  0  0  0  0  0  0
    0.7147   -2.4878   -1.1547 H   0  0  0  0  0  0  0  0  0  0  0  0
   -2.8960   -0.7342   -2.4960 H   0  0  0  0  0  0  0  0  0  0  0  0
   -1.1242   -4.2623   -1.0944 H   0  0  0  0  0  0  0  0  0  0  0  0
   -3.2480   -3.0999   -1.9205 H   0  0  0  0  0  0  0  0  0  0  0  0
    0.9581    2.7732   -1.8962 N   0  0  0  0  0  0  0  0  0  0  0  0
    1.6822    3.9548   -2.3063 C   0  0  2  0  0  0  0  0  0  0  0  0
    1.9890    4.7746   -1.0599 C   0  0  0  0  0  0  0  0  0  0  0  0
    1.3450    4.6768   -0.0174 O   0  0  0  0  0  0  0  0  0  0  0  0
    0.8849    4.7715   -3.3113 C   0  0  0  0  0  0  0  0  0  0  0  0
    0.0962    2.5430   -2.3819 H   0  0  0  0  0  0  0  0  0  0  0  0
    2.6192    3.6108   -2.7576 H   0  0  0  0  0  0  0  0  0  0  0  0
   -0.0575    5.1249   -2.8770 H   0  0  0  0  0  0  0  0  0  0  0  0
    1.4466    5.6512   -3.6425 H   0  0  0  0  0  0  0  0  0  0  0  0
    0.6395    4.1713   -4.1941 H   0  0  0  0  0  0  0  0  0  0  0  0
    3.0392    5.6591   -1.2624 N   0  0  0  0  0  0  0  0  0  0  0  0
    3.5122    6.5562   -0.2341 C   0  0  0  0  0  0  0  0  0  0  0  0
    3.5280    5.6589   -2.1528 H   0  0  0  0  0  0  0  0  0  0  0  0
    2.9943    7.5225   -0.3232 H   0  0  0  0  0  0  0  0  0  0  0  0
    3.3076    6.1205    0.7550 H   0  0  0  0  0  0  0  0  0  0  0  0
    4.5953    6.7087   -0.3506 H   0  0  0  0  0  0  0  0  0  0  0  0
 22 24  2  0  0  0  0
 24 26  1  0  0  0  0
 25 26  1  0  0  0  0
 23 25  2  0  0  0  0
 21 22  1  0  0  0  0
 22 23  1  0  0  0  0
  1  3  1  0  0  0  0
  1  7  1  0  0  0  0
  1  2  2  0  0  0  0
 36 37  1  0  0  0  0
 37 45  1  0  0  0  0
 37 38  2  0  0  0  0
  8  9  1  0  0  0  0
  9 17  1  0  0  0  0
  9 10  2  0  0  0  0
 18 19  1  0  0  0  0
 19 35  1  0  0  0  0
 19 20  2  0  0  0  0
 36 39  1  0  0  0  0
  8 11  1  0  0  0  0
 45 46  1  0  0  0  0
 18 21  1  0  0  0  0
 35 36  1  0  0  0  0
  7  8  1  0  0  0  0
 17 18  1  0  0  0  0
 24 32  1  0  0  0  0
 25 33  1  0  0  0  0
  3  4  1  0  0  0  0
  3  5  1  0  0  0  0
  3  6  1  0  0  0  0
 39 42  1  0  0  0  0
 39 43  1  0  0  0  0
 39 44  1  0  0  0  0
 11 14  1  0  0  0  0
 11 15  1  0  0  0  0
 11 16  1  0  0  0  0
 46 48  1  0  0  0  0
 46 49  1  0  0  0  0
 46 50  1  0  0  0  0
 21 29  1  0  0  0  0
 21 30  1  0  0  0  0
 36 41  1  0  0  0  0
  8 13  1  0  0  0  0
 18 28  1  0  0  0  0
 26 34  1  0  0  0  0
 23 31  1  0  0  0  0
 45 47  1  0  0  0  0
  7 12  1  0  0  0  0
 35 40  1  0  0  0  0
 17 27  1  0  0  0  0
M  CHG  1  23   1
M  END
$$$$

  -OEChem-05262214473D

 50 50  0     1  0  0  0  0  0999 V2000
   -1.6938    0.4865    3.8080 C   0  0  0  0  0  0  0  0  0  0  0  0
   -0.7464   -0.1282    3.3323 O   0  0  0  0  0  0  0  0  0  0  0  0
   -2.1257    0.2041    5.2087 C   0  0  0  0  0  0  0  0  0  0  0  0
   -2.8853   -0.5922    5.2621 H   0  0  0  0  0  0  0  0  0  0  0  0
   -1.2944   -0.1435    5.8430 H   0  0  0  0  0  0  0  0  0  0  0  0
   -2.5637    1.0590    5.7483 H   0  0  0  0  0  0  0  0  0  0  0  0
   -2.4435    1.4589    3.1669 N   0  0  0  0  0  0  0  0  0  0  0  0
   -2.1966    1.8850    1.8145 C   0  0  2  0  0  0  0  0  0  0  0  0
   -0.8617    1.2996    1.3733 C   0  0  0  0  0  0  0  0  0  0  0  0
    0.0104    0.9468    2.1646 O   0  0  0  0  0  0  0  0  0  0  0  0
   -2.1879    3.4017    1.7050 C   0  0  0  0  0  0  0  0  0  0  0  0
   -3.2085    1.8948    3.6787 H   0  0  0  0  0  0  0  0  0  0  0  0
   -3.0007    1.4665    1.1994 H   0  0  0  0  0  0  0  0  0  0  0  0
   -1.3888    3.8390    2.3147 H   0  0  0  0  0  0  0  0  0  0  0  0
   -2.0284    3.7240    0.6708 H   0  0  0  0  0  0  0  0  0  0  0  0
   -3.1380    3.8230    2.0508 H   0  0  0  0  0  0  0  0  0  0  0  0
   -0.7390    1.2565   -0.0101 N   0  0  0  0  0  0  0  0  0  0  0  0
    0.4383    0.7557   -0.6738 C   0  0  2  0  0  0  0  0  0  0  0  0
    1.3811    1.9372   -0.8722 C   0  0  0  0  0  0  0  0  0  0  0  0
    2.5271    1.9607   -0.4282 O   0  0  0  0  0  0  0  0  0  0  0  0
    0.1099    0.1037   -2.0218 C   0  0  0  0  0  0  0  0  0  0  0  0
   -0.7549   -1.1250   -1.8805 C   0  0  0  0  0  0  0  0  0  0  0  0
   -0.2496   -2.3200   -1.4281 N   0  3  0  0  0  0  0  0  0  0  0  0
   -2.0813   -1.3305   -2.1362 C   0  0  0  0  0  0  0  0  0  0  0  0
   -1.2239   -3.2352   -1.4034 C   0  0  0  0  0  0  0  0  0  0  0  0
   -2.3439   -2.6446   -1.8327 N   0  0  0  0  0  0  0  0  0  0  0  0
   -1.5221    1.5532   -0.5874 H   0  0  0  0  0  0  0  0  0  0  0  0
    0.9023    0.0377    0.0127 H   0  0  0  0  0  0  0  0  0  0  0  0
    1.0349   -0.1549   -2.5547 H   0  0  0  0  0  0  0  0  0  0  0  0
   -0.4096    0.8163   -2.6761 H   0  0  0  0  0  0  0  0  0  0  0  0
    0.7147   -2.4878   -1.1547 H   0  0  0  0  0  0  0  0  0  0  0  0
   -2.8960   -0.7342   -2.4960 H   0  0  0  0  0  0  0  0  0  0  0  0
   -1.1242   -4.2623   -1.0944 H   0  0  0  0  0  0  0  0  0  0  0  0
   -3.2480   -3.0999   -1.9205 H   0  0  0  0  0  0  0  0  0  0  0  0
    0.8062    2.9366   -1.6450 N   0  0  0  0  0  0  0  0  0  0  0  0
    1.4931    4.1566   -2.0034 C   0  0  2  0  0  0  0  0  0  0  0  0
    2.0810    4.7561   -0.7328 C   0  0  0  0  0  0  0  0  0  0  0  0
    1.6519    4.5004    0.3904 O   0  0  0  0  0  0  0  0  0  0  0  0
    0.5546    5.1403   -2.6848 C   0  0  0  0  0  0  0  0  0  0  0  0
   -0.1451    2.8038   -1.9752 H   0  0  0  0  0  0  0  0  0  0  0  0
    2.3039    3.8748   -2.6841 H   0  0  0  0  0  0  0  0  0  0  0  0
   -0.2644    5.4343   -2.0181 H   0  0  0  0  0  0  0  0  0  0  0  0
    1.0829    6.0524   -2.9813 H   0  0  0  0  0  0  0  0  0  0  0  0
    0.1097    4.6969   -3.5821 H   0  0  0  0  0  0  0  0  0  0  0  0
    3.1133    5.6434   -1.0035 N   0  0  0  0  0  0  0  0  0  0  0  0
    3.8247    6.3520    0.0347 C   0  0  0  0  0  0  0  0  0  0  0  0
    3.4156    5.7803   -1.9635 H   0  0  0  0  0  0  0  0  0  0  0  0
    3.3484    7.3288    0.2052 H   0  0  0  0  0  0  0  0  0  0  0  0
    3.7982    5.7641    0.9640 H   0  0  0  0  0  0  0  0  0  0  0  0
    4.8696    6.5027   -0.2743 H   0  0  0  0  0  0  0  0  0  0  0  0
 22 24  2  0  0  0  0
 24 26  1  0  0  0  0
 25 26  1  0  0  0  0
 23 25  2  0  0  0  0
 21 22  1  0  0  0  0
 22 23  1  0  0  0  0
  1  3  1  0  0  0  0
  1  7  1  0  0  0  0
  1  2  2  0  0  0  0
 36 37  1  0  0  0  0
 37 45  1  0  0  0  0
 37 38  2  0  0  0  0
  8  9  1  0  0  0  0
  9 17  1  0  0  0  0
  9 10  2  0  0  0  0
 18 19  1  0  0  0  0
 19 35  1  0  0  0  0
 19 20  2  0  0  0  0
 36 39  1  0  0  0  0
  8 11  1  0  0  0  0
 45 46  1  0  0  0  0
 18 21  1  0  0  0  0
 35 36  1  0  0  0  0
  7  8  1  0  0  0  0
 17 18  1  0  0  0  0
 24 32  1  0  0  0  0
 25 33  1  0  0  0  0
  3  4  1  0  0  0  0
  3  5  1  0  0  0  0
  3  6  1  0  0  0  0
 39 42  1  0  0  0  0
 39 43  1  0  0  0  0
 39 44  1  0  0  0  0
 11 14  1  0  0  0  0
 11 15  1  0  0  0  0
 11 16  1  0  0  0  0
 46 48  1  0  0  0  0
 46 49  1  0  0  0  0
 46 50  1  0  0  0  0
 21 29  1  0  0  0  0
 21 30  1  0  0  0  0
 36 41  1  0  0  0  0
  8 13  1  0  0  0  0
 18 28  1  0  0  0  0
 26 34  1  0  0  0  0
 23 31  1  0  0  0  0
 45 47  1  0  0  0  0
  7 12  1  0  0  0  0
 35 40  1  0  0  0  0
 17 27  1  0  0  0  0
M  CHG  1  23   1
M  END
$$$$

  -OEChem-05262214473D

 50 50  0     1  0  0  0  0  0999 V2000
   -1.6938    0.4865    3.8080 C   0  0  0  0  0  0  0  0  0  0  0  0
   -0.7464   -0.1282    3.3323 O   0  0  0  0  0  0  0  0  0  0  0  0
   -2.1257    0.2041    5.2087 C   0  0  0  0  0  0  0  0  0  0  0  0
   -2.8853   -0.5922    5.2621 H   0  0  0  0  0  0  0  0  0  0  0  0
   -1.2944   -0.1435    5.8430 H   0  0  0  0  0  0  0  0  0  0  0  0
   -2.5637    1.0590    5.7483 H   0  0  0  0  0  0  0  0  0  0  0  0
   -2.4435    1.4589    3.1669 N   0  0  0  0  0  0  0  0  0  0  0  0
   -2.1966    1.8850    1.8145 C   0  0  2  0  0  0  0  0  0  0  0  0
   -0.8617    1.2996    1.3733 C   0  0  0  0  0  0  0  0  0  0  0  0
    0.0104    0.9468    2.1646 O   0  0  0  0  0  0  0  0  0  0  0  0
   -2.1879    3.4017    1.7050 C   0  0  0  0  0  0  0  0  0  0  0  0
   -3.2085    1.8948    3.6787 H   0  0  0  0  0  0  0  0  0  0  0  0
   -3.0007    1.4665    1.1994 H   0  0  0  0  0  0  0  0  0  0  0  0
   -1.3888    3.8390    2.3147 H   0  0  0  0  0  0  0  0  0  0  0  0
   -2.0284    3.7240    0.6708 H   0  0  0  0  0  0  0  0  0  0  0  0
   -3.1380    3.8230    2.0508 H   0  0  0  0  0  0  0  0  0  0  0  0
   -0.7390    1.2565   -0.0101 N   0  0  0  0  0  0  0  0  0  0  0  0
    0.4383    0.7557   -0.6738 C   0  0  2  0  0  0  0  0  0  0  0  0
    1.3811    1.9372   -0.8722 C   0  0  0  0  0  0  0  0  0  0  0  0
    2.5920    1.8679   -0.6724 O   0  0  0  0  0  0  0  0  0  0  0  0
    0.1099    0.1037   -2.0218 C   0  0  0  0  0  0  0  0  0  0  0  0
   -0.7549   -1.1250   -1.8805 C   0  0  0  0  0  0  0  0  0  0  0  0
   -0.2496   -2.3200   -1.4281 N   0  3  0  0  0  0  0  0  0  0  0  0
   -2.0813   -1.3305   -2.1362 C   0  0  0  0  0  0  0  0  0  0  0  0
   -1.2239   -3.2352   -1.4034 C   0  0  0  0  0  0  0  0  0  0  0  0
   -2.3439   -2.6446   -1.8327 N   0  0  0  0  0  0  0  0  0  0  0  0
   -1.5221    1.5532   -0.5874 H   0  0  0  0  0  0  0  0  0  0  0  0
    0.9023    0.0377    0.0127 H   0  0  0  0  0  0  0  0  0  0  0  0
    1.0349   -0.1549   -2.5547 H   0  0  0  0  0  0  0  0  0  0  0  0
   -0.4096    0.8163   -2.6761 H   0  0  0  0  0  0  0  0  0  0  0  0
    0.7147   -2.4878   -1.1547 H   0  0  0  0  0  0  0  0  0  0  0  0
   -2.8960   -0.7342   -2.4960 H   0  0  0  0  0  0  0  0  0  0  0  0
   -1.1242   -4.2623   -1.0944 H   0  0  0  0  0  0  0  0  0  0  0  0
   -3.2480   -3.0999   -1.9205 H   0  0  0  0  0  0  0  0  0  0  0  0
    0.7154    3.0593   -1.3457 N   0  0  0  0  0  0  0  0  0  0  0  0
    1.3780    4.3094   -1.6407 C   0  0  2  0  0  0  0  0  0  0  0  0
    2.2349    4.6828   -0.4383 C   0  0  0  0  0  0  0  0  0  0  0  0
    2.0242    4.2544    0.6945 O   0  0  0  0  0  0  0  0  0  0  0  0
    0.3736    5.4074   -1.9543 C   0  0  0  0  0  0  0  0  0  0  0  0
   -0.2879    2.9989   -1.4922 H   0  0  0  0  0  0  0  0  0  0  0  0
    2.0229    4.1287   -2.5075 H   0  0  0  0  0  0  0  0  0  0  0  0
   -0.2815    5.6026   -1.0974 H   0  0  0  0  0  0  0  0  0  0  0  0
    0.8778    6.3464   -2.2055 H   0  0  0  0  0  0  0  0  0  0  0  0
   -0.2616    5.1244   -2.8006 H   0  0  0  0  0  0  0  0  0  0  0  0
    3.2362    5.5844   -0.7708 N   0  0  0  0  0  0  0  0  0  0  0  0
    4.1735    6.1012    0.1989 C   0  0  0  0  0  0  0  0  0  0  0  0
    3.3492    5.8711   -1.7387 H   0  0  0  0  0  0  0  0  0  0  0  0
    3.7898    7.0451    0.6136 H   0  0  0  0  0  0  0  0  0  0  0  0
    4.3020    5.3698    1.0104 H   0  0  0  0  0  0  0  0  0  0  0  0
    5.1428    6.2822   -0.2885 H   0  0  0  0  0  0  0  0  0  0  0  0
 22 24  2  0  0  0  0
 24 26  1  0  0  0  0
 25 26  1  0  0  0  0
 23 25  2  0  0  0  0
 21 22  1  0  0  0  0
 22 23  1  0  0  0  0
  1  3  1  0  0  0  0
  1  7  1  0  0  0  0
  1  2  2  0  0  0  0
 36 37  1  0  0  0  0
 37 45  1  0  0  0  0
 37 38  2  0  0  0  0
  8  9  1  0  0  0  0
  9 17  1  0  0  0  0
  9 10  2  0  0  0  0
 18 19  1  0  0  0  0
 19 35  1  0  0  0  0
 19 20  2  0  0  0  0
 36 39  1  0  0  0  0
  8 11  1  0  0  0  0
 45 46  1  0  0  0  0
 18 21  1  0  0  0  0
 35 36  1  0  0  0  0
  7  8  1  0  0  0  0
 17 18  1  0  0  0  0
 24 32  1  0  0  0  0
 25 33  1  0  0  0  0
  3  4  1  0  0  0  0
  3  5  1  0  0  0  0
  3  6  1  0  0  0  0
 39 42  1  0  0  0  0
 39 43  1  0  0  0  0
 39 44  1  0  0  0  0
 11 14  1  0  0  0  0
 11 15  1  0  0  0  0
 11 16  1  0  0  0  0
 46 48  1  0  0  0  0
 46 49  1  0  0  0  0
 46 50  1  0  0  0  0
 21 29  1  0  0  0  0
 21 30  1  0  0  0  0
 36 41  1  0  0  0  0
  8 13  1  0  0  0  0
 18 28  1  0  0  0  0
 26 34  1  0  0  0  0
 23 31  1  0  0  0  0
 45 47  1  0  0  0  0
  7 12  1  0  0  0  0
 35 40  1  0  0  0  0
 17 27  1  0  0  0  0
M  CHG  1  23   1
M  END
$$$$

  -OEChem-05262214473D

 50 50  0     1  0  0  0  0  0999 V2000
   -1.6938    0.4865    3.8080 C   0  0  0  0  0  0  0  0  0  0  0  0
   -0.7464   -0.1282    3.3323 O   0  0  0  0  0  0  0  0  0  0  0  0
   -2.1257    0.2041    5.2087 C   0  0  0  0  0  0  0  0  0  0  0  0
   -2.8853   -0.5922    5.2621 H   0  0  0  0  0  0  0  0  0  0  0  0
   -1.2944   -0.1435    5.8430 H   0  0  0  0  0  0  0  0  0  0  0  0
   -2.5637    1.0590    5.7483 H   0  0  0  0  0  0  0  0  0  0  0  0
   -2.4435    1.4589    3.1669 N   0  0  0  0  0  0  0  0  0  0  0  0
   -2.1966    1.8850    1.8145 C   0  0  2  0  0  0  0  0  0  0  0  0
   -0.8617    1.2996    1.3733 C   0  0  0  0  0  0  0  0  0  0  0  0
    0.0104    0.9468    2.1646 O   0  0  0  0  0  0  0  0  0  0  0  0
   -2.1879    3.4017    1.7050 C   0  0  0  0  0  0  0  0  0  0  0  0
   -3.2085    1.8948    3.6787 H   0  0  0  0  0  0  0  0  0  0  0  0
   -3.0007    1.4665    1.1994 H   0  0  0  0  0  0  0  0  0  0  0  0
   -1.3888    3.8390    2.3147 H   0  0  0  0  0  0  0  0  0  0  0  0
   -2.0284    3.7240    0.6708 H   0  0  0  0  0  0  0  0  0  0  0  0
   -3.1380    3.8230    2.0508 H   0  0  0  0  0  0  0  0  0  0  0  0
   -0.7390    1.2565   -0.0101 N   0  0  0  0  0  0  0  0  0  0  0  0
    0.4383    0.7557   -0.6738 C   0  0  2  0  0  0  0  0  0  0  0  0
    1.3811    1.9372   -0.8722 C   0  0  0  0  0  0  0  0  0  0  0  0
    2.6026    1.8151   -0.9362 O   0  0  0  0  0  0  0  0  0  0  0  0
    0.1099    0.1037   -2.0218 C   0  0  0  0  0  0  0  0  0  0  0  0
   -0.7549   -1.1250   -1.8805 C   0  0  0  0  0  0  0  0  0  0  0  0
   -0.2496   -2.3200   -1.4281 N   0  3  0  0  0  0  0  0  0  0  0  0
   -2.0813   -1.3305   -2.1362 C   0  0  0  0  0  0  0  0  0  0  0  0
   -1.2239   -3.2352   -1.4034 C   0  0  0  0  0  0  0  0  0  0  0  0
   -2.3439   -2.6446   -1.8327 N   0  0  0  0  0  0  0  0  0  0  0  0
   -1.5221    1.5532   -0.5874 H   0  0  0  0  0  0  0  0  0  0  0  0
    0.9023    0.0377    0.0127 H   0  0  0  0  0  0  0  0  0  0  0  0
    1.0349   -0.1549   -2.5547 H   0  0  0  0  0  0  0  0  0  0  0  0
   -0.4096    0.8163   -2.6761 H   0  0  0  0  0  0  0  0  0  0  0  0
    0.7147   -2.4878   -1.1547 H   0  0  0  0  0  0  0  0  0  0  0  0
   -2.8960   -0.7342   -2.4960 H   0  0  0  0  0  0  0  0  0  0  0  0
   -1.1242   -4.2623   -1.0944 H   0  0  0  0  0  0  0  0  0  0  0  0
   -3.2480   -3.0999   -1.9205 H   0  0  0  0  0  0  0  0  0  0  0  0
    0.6919    3.1330   -1.0187 N   0  0  0  0  0  0  0  0  0  0  0  0
    1.3447    4.4028   -1.2428 C   0  0  2  0  0  0  0  0  0  0  0  0
    2.4401    4.5596   -0.1964 C   0  0  0  0  0  0  0  0  0  0  0  0
    2.4365    3.9555    0.8742 O   0  0  0  0  0  0  0  0  0  0  0  0
    0.3543    5.5546   -1.1697 C   0  0  0  0  0  0  0  0  0  0  0  0
   -0.3223    3.1148   -0.9658 H   0  0  0  0  0  0  0  0  0  0  0  0
    1.7955    4.3551   -2.2400 H   0  0  0  0  0  0  0  0  0  0  0  0
   -0.1077    5.6184   -0.1777 H   0  0  0  0  0  0  0  0  0  0  0  0
    0.8451    6.5132   -1.3679 H   0  0  0  0  0  0  0  0  0  0  0  0
   -0.4491    5.4249   -1.9028 H   0  0  0  0  0  0  0  0  0  0  0  0
    3.3997    5.4860   -0.5802 N   0  0  0  0  0  0  0  0  0  0  0  0
    4.5349    5.8210    0.2475 C   0  0  0  0  0  0  0  0  0  0  0  0
    3.3331    5.9251   -1.4937 H   0  0  0  0  0  0  0  0  0  0  0  0
    4.2886    6.6908    0.8741 H   0  0  0  0  0  0  0  0  0  0  0  0
    4.7847    4.9646    0.8911 H   0  0  0  0  0  0  0  0  0  0  0  0
    5.3965    6.0624   -0.3924 H   0  0  0  0  0  0  0  0  0  0  0  0
 22 24  2  0  0  0  0
 24 26  1  0  0  0  0
 25 26  1  0  0  0  0
 23 25  2  0  0  0  0
 21 22  1  0  0  0  0
 22 23  1  0  0  0  0
  1  3  1  0  0  0  0
  1  7  1  0  0  0  0
  1  2  2  0  0  0  0
 36 37  1  0  0  0  0
 37 45  1  0  0  0  0
 37 38  2  0  0  0  0
  8  9  1  0  0  0  0
  9 17  1  0  0  0  0
  9 10  2  0  0  0  0
 18 19  1  0  0  0  0
 19 35  1  0  0  0  0
 19 20  2  0  0  0  0
 36 39  1  0  0  0  0
  8 11  1  0  0  0  0
 45 46  1  0  0  0  0
 18 21  1  0  0  0  0
 35 36  1  0  0  0  0
  7  8  1  0  0  0  0
 17 18  1  0  0  0  0
 24 32  1  0  0  0  0
 25 33  1  0  0  0  0
  3  4  1  0  0  0  0
  3  5  1  0  0  0  0
  3  6  1  0  0  0  0
 39 42  1  0  0  0  0
 39 43  1  0  0  0  0
 39 44  1  0  0  0  0
 11 14  1  0  0  0  0
 11 15  1  0  0  0  0
 11 16  1  0  0  0  0
 46 48  1  0  0  0  0
 46 49  1  0  0  0  0
 46 50  1  0  0  0  0
 21 29  1  0  0  0  0
 21 30  1  0  0  0  0
 36 41  1  0  0  0  0
  8 13  1  0  0  0  0
 18 28  1  0  0  0  0
 26 34  1  0  0  0  0
 23 31  1  0  0  0  0
 45 47  1  0  0  0  0
  7 12  1  0  0  0  0
 35 40  1  0  0  0  0
 17 27  1  0  0  0  0
M  CHG  1  23   1
M  END
$$$$

  -OEChem-05262214473D

 50 50  0     1  0  0  0  0  0999 V2000
   -1.6938    0.4865    3.8080 C   0  0  0  0  0  0  0  0  0  0  0  0
   -0.7464   -0.1282    3.3323 O   0  0  0  0  0  0  0  0  0  0  0  0
   -2.1257    0.2041    5.2087 C   0  0  0  0  0  0  0  0  0  0  0  0
   -2.8853   -0.5922    5.2621 H   0  0  0  0  0  0  0  0  0  0  0  0
   -1.2944   -0.1435    5.8430 H   0  0  0  0  0  0  0  0  0  0  0  0
   -2.5637    1.0590    5.7483 H   0  0  0  0  0  0  0  0  0  0  0  0
   -2.4435    1.4589    3.1669 N   0  0  0  0  0  0  0  0  0  0  0  0
   -2.1966    1.8850    1.8145 C   0  0  2  0  0  0  0  0  0  0  0  0
   -0.8617    1.2996    1.3733 C   0  0  0  0  0  0  0  0  0  0  0  0
    0.0104    0.9468    2.1646 O   0  0  0  0  0  0  0  0  0  0  0  0
   -2.1879    3.4017    1.7050 C   0  0  0  0  0  0  0  0  0  0  0  0
   -3.2085    1.8948    3.6787 H   0  0  0  0  0  0  0  0  0  0  0  0
   -3.0007    1.4665    1.1994 H   0  0  0  0  0  0  0  0  0  0  0  0
   -1.3888    3.8390    2.3147 H   0  0  0  0  0  0  0  0  0  0  0  0
   -2.0284    3.7240    0.6708 H   0  0  0  0  0  0  0  0  0  0  0  0
   -3.1380    3.8230    2.0508 H   0  0  0  0  0  0  0  0  0  0  0  0
   -0.7390    1.2565   -0.0101 N   0  0  0  0  0  0  0  0  0  0  0  0
    0.4383    0.7557   -0.6738 C   0  0  2  0  0  0  0  0  0  0  0  0
    1.3811    1.9372   -0.8722 C   0  0  0  0  0  0  0  0  0  0  0  0
    2.5581    1.8061   -1.2015 O   0  0  0  0  0  0  0  0  0  0  0  0
    0.1099    0.1037   -2.0218 C   0  0  0  0  0  0  0  0  0  0  0  0
   -0.7549   -1.1250   -1.8805 C   0  0  0  0  0  0  0  0  0  0  0  0
   -0.2496   -2.3200   -1.4281 N   0  3  0  0  0  0  0  0  0  0  0  0
   -2.0813   -1.3305   -2.1362 C   0  0  0  0  0  0  0  0  0  0  0  0
   -1.2239   -3.2352   -1.4034 C   0  0  0  0  0  0  0  0  0  0  0  0
   -2.3439   -2.6446   -1.8327 N   0  0  0  0  0  0  0  0  0  0  0  0
   -1.5221    1.5532   -0.5874 H   0  0  0  0  0  0  0  0  0  0  0  0
    0.9023    0.0377    0.0127 H   0  0  0  0  0  0  0  0  0  0  0  0
    1.0349   -0.1549   -2.5547 H   0  0  0  0  0  0  0  0  0  0  0  0
   -0.4096    0.8163   -2.6761 H   0  0  0  0  0  0  0  0  0  0  0  0
    0.7147   -2.4878   -1.1547 H   0  0  0  0  0  0  0  0  0  0  0  0
   -2.8960   -0.7342   -2.4960 H   0  0  0  0  0  0  0  0  0  0  0  0
   -1.1242   -4.2623   -1.0944 H   0  0  0  0  0  0  0  0  0  0  0  0
   -3.2480   -3.0999   -1.9205 H   0  0  0  0  0  0  0  0  0  0  0  0
    0.7372    3.1527   -0.6864 N   0  0  0  0  0  0  0  0  0  0  0  0
    1.3954    4.4305   -0.8368 C   0  0  2  0  0  0  0  0  0  0  0  0
    2.6827    4.3951   -0.0236 C   0  0  0  0  0  0  0  0  0  0  0  0
    2.8608    3.6242    0.9172 O   0  0  0  0  0  0  0  0  0  0  0  0
    0.4980    5.5718   -0.3844 C   0  0  0  0  0  0  0  0  0  0  0  0
   -0.2461    3.1436   -0.4318 H   0  0  0  0  0  0  0  0  0  0  0  0
    1.6371    4.5386   -1.8997 H   0  0  0  0  0  0  0  0  0  0  0  0
    0.2451    5.4806    0.6783 H   0  0  0  0  0  0  0  0  0  0  0  0
    0.9873    6.5412   -0.5256 H   0  0  0  0  0  0  0  0  0  0  0  0
   -0.4401    5.5777   -0.9499 H   0  0  0  0  0  0  0  0  0  0  0  0
    3.5925    5.3549   -0.4445 N   0  0  0  0  0  0  0  0  0  0  0  0
    4.8843    5.5303    0.1770 C   0  0  0  0  0  0  0  0  0  0  0  0
    3.3686    5.9386   -1.2451 H   0  0  0  0  0  0  0  0  0  0  0  0
    4.8107    6.2901    0.9690 H   0  0  0  0  0  0  0  0  0  0  0  0
    5.2134    4.5760    0.6142 H   0  0  0  0  0  0  0  0  0  0  0  0
    5.6133    5.8581   -0.5788 H   0  0  0  0  0  0  0  0  0  0  0  0
 22 24  2  0  0  0  0
 24 26  1  0  0  0  0
 25 26  1  0  0  0  0
 23 25  2  0  0  0  0
 21 22  1  0  0  0  0
 22 23  1  0  0  0  0
  1  3  1  0  0  0  0
  1  7  1  0  0  0  0
  1  2  2  0  0  0  0
 36 37  1  0  0  0  0
 37 45  1  0  0  0  0
 37 38  2  0  0  0  0
  8  9  1  0  0  0  0
  9 17  1  0  0  0  0
  9 10  2  0  0  0  0
 18 19  1  0  0  0  0
 19 35  1  0  0  0  0
 19 20  2  0  0  0  0
 36 39  1  0  0  0  0
  8 11  1  0  0  0  0
 45 46  1  0  0  0  0
 18 21  1  0  0  0  0
 35 36  1  0  0  0  0
  7  8  1  0  0  0  0
 17 18  1  0  0  0  0
 24 32  1  0  0  0  0
 25 33  1  0  0  0  0
  3  4  1  0  0  0  0
  3  5  1  0  0  0  0
  3  6  1  0  0  0  0
 39 42  1  0  0  0  0
 39 43  1  0  0  0  0
 39 44  1  0  0  0  0
 11 14  1  0  0  0  0
 11 15  1  0  0  0  0
 11 16  1  0  0  0  0
 46 48  1  0  0  0  0
 46 49  1  0  0  0  0
 46 50  1  0  0  0  0
 21 29  1  0  0  0  0
 21 30  1  0  0  0  0
 36 41  1  0  0  0  0
  8 13  1  0  0  0  0
 18 28  1  0  0  0  0
 26 34  1  0  0  0  0
 23 31  1  0  0  0  0
 45 47  1  0  0  0  0
  7 12  1  0  0  0  0
 35 40  1  0  0  0  0
 17 27  1  0  0  0  0
M  CHG  1  23   1
M  END
$$$$

  -OEChem-05262214473D

 50 50  0     1  0  0  0  0  0999 V2000
   -1.6938    0.4865    3.8080 C   0  0  0  0  0  0  0  0  0  0  0  0
   -0.7464   -0.1282    3.3323 O   0  0  0  0  0  0  0  0  0  0  0  0
   -2.1257    0.2041    5.2087 C   0  0  0  0  0  0  0  0  0  0  0  0
   -2.8853   -0.5922    5.2621 H   0  0  0  0  0  0  0  0  0  0  0  0
   -1.2944   -0.1435    5.8430 H   0  0  0  0  0  0  0  0  0  0  0  0
   -2.5637    1.0590    5.7483 H   0  0  0  0  0  0  0  0  0  0  0  0
   -2.4435    1.4589    3.1669 N   0  0  0  0  0  0  0  0  0  0  0  0
   -2.1966    1.8850    1.8145 C   0  0  2  0  0  0  0  0  0  0  0  0
   -0.8617    1.2996    1.3733 C   0  0  0  0  0  0  0  0  0  0  0  0
    0.0104    0.9468    2.1646 O   0  0  0  0  0  0  0  0  0  0  0  0
   -2.1879    3.4017    1.7050 C   0  0  0  0  0  0  0  0  0  0  0  0
   -3.2085    1.8948    3.6787 H   0  0  0  0  0  0  0  0  0  0  0  0
   -3.0007    1.4665    1.1994 H   0  0  0  0  0  0  0  0  0  0  0  0
   -1.3888    3.8390    2.3147 H   0  0  0  0  0  0  0  0  0  0  0  0
   -2.0284    3.7240    0.6708 H   0  0  0  0  0  0  0  0  0  0  0  0
   -3.1380    3.8230    2.0508 H   0  0  0  0  0  0  0  0  0  0  0  0
   -0.7390    1.2565   -0.0101 N   0  0  0  0  0  0  0  0  0  0  0  0
    0.4383    0.7557   -0.6738 C   0  0  2  0  0  0  0  0  0  0  0  0
    1.3811    1.9372   -0.8722 C   0  0  0  0  0  0  0  0  0  0  0  0
    2.4616    1.8413   -1.4503 O   0  0  0  0  0  0  0  0  0  0  0  0
    0.1099    0.1037   -2.0218 C   0  0  0  0  0  0  0  0  0  0  0  0
   -0.7549   -1.1250   -1.8805 C   0  0  0  0  0  0  0  0  0  0  0  0
   -0.2496   -2.3200   -1.4281 N   0  3  0  0  0  0  0  0  0  0  0  0
   -2.0813   -1.3305   -2.1362 C   0  0  0  0  0  0  0  0  0  0  0  0
   -1.2239   -3.2352   -1.4034 C   0  0  0  0  0  0  0  0  0  0  0  0
   -2.3439   -2.6446   -1.8327 N   0  0  0  0  0  0  0  0  0  0  0  0
   -1.5221    1.5532   -0.5874 H   0  0  0  0  0  0  0  0  0  0  0  0
    0.9023    0.0377    0.0127 H   0  0  0  0  0  0  0  0  0  0  0  0
    1.0349   -0.1549   -2.5547 H   0  0  0  0  0  0  0  0  0  0  0  0
   -0.4096    0.8163   -2.6761 H   0  0  0  0  0  0  0  0  0  0  0  0
    0.7147   -2.4878   -1.1547 H   0  0  0  0  0  0  0  0  0  0  0  0
   -2.8960   -0.7342   -2.4960 H   0  0  0  0  0  0  0  0  0  0  0  0
   -1.1242   -4.2623   -1.0944 H   0  0  0  0  0  0  0  0  0  0  0  0
   -3.2480   -3.0999   -1.9205 H   0  0  0  0  0  0  0  0  0  0  0  0
    0.8484    3.1169   -0.3713 N   0  0  0  0  0  0  0  0  0  0  0  0
    1.5269    4.3905   -0.4503 C   0  0  2  0  0  0  0  0  0  0  0  0
    2.9461    4.2003    0.0683 C   0  0  0  0  0  0  0  0  0  0  0  0
    3.2681    3.2830    0.8207 O   0  0  0  0  0  0  0  0  0  0  0  0
    0.7949    5.4579    0.3481 C   0  0  0  0  0  0  0  0  0  0  0  0
   -0.0644    3.0834    0.0732 H   0  0  0  0  0  0  0  0  0  0  0  0
    1.5586    4.6668   -1.5099 H   0  0  0  0  0  0  0  0  0  0  0  0
    0.7530    5.1986    1.4123 H   0  0  0  0  0  0  0  0  0  0  0  0
    1.2944    6.4287    0.2640 H   0  0  0  0  0  0  0  0  0  0  0  0
   -0.2350    5.5724   -0.0068 H   0  0  0  0  0  0  0  0  0  0  0  0
    3.8015    5.2001   -0.3732 N   0  0  0  0  0  0  0  0  0  0  0  0
    5.1979    5.2490   -0.0076 C   0  0  0  0  0  0  0  0  0  0  0  0
    3.4531    5.9106   -1.0100 H   0  0  0  0  0  0  0  0  0  0  0  0
    5.3205    5.8703    0.8918 H   0  0  0  0  0  0  0  0  0  0  0  0
    5.5588    4.2305    0.1985 H   0  0  0  0  0  0  0  0  0  0  0  0
    5.7784    5.6833   -0.8350 H   0  0  0  0  0  0  0  0  0  0  0  0
 22 24  2  0  0  0  0
 24 26  1  0  0  0  0
 25 26  1  0  0  0  0
 23 25  2  0  0  0  0
 21 22  1  0  0  0  0
 22 23  1  0  0  0  0
  1  3  1  0  0  0  0
  1  7  1  0  0  0  0
  1  2  2  0  0  0  0
 36 37  1  0  0  0  0
 37 45  1  0  0  0  0
 37 38  2  0  0  0  0
  8  9  1  0  0  0  0
  9 17  1  0  0  0  0
  9 10  2  0  0  0  0
 18 19  1  0  0  0  0
 19 35  1  0  0  0  0
 19 20  2  0  0  0  0
 36 39  1  0  0  0  0
  8 11  1  0  0  0  0
 45 46  1  0  0  0  0
 18 21  1  0  0  0  0
 35 36  1  0  0  0  0
  7  8  1  0  0  0  0
 17 18  1  0  0  0  0
 24 32  1  0  0  0  0
 25 33  1  0  0  0  0
  3  4  1  0  0  0  0
  3  5  1  0  0  0  0
  3  6  1  0  0  0  0
 39 42  1  0  0  0  0
 39 43  1  0  0  0  0
 39 44  1  0  0  0  0
 11 14  1  0  0  0  0
 11 15  1  0  0  0  0
 11 16  1  0  0  0  0
 46 48  1  0  0  0  0
 46 49  1  0  0  0  0
 46 50  1  0  0  0  0
 21 29  1  0  0  0  0
 21 30  1  0  0  0  0
 36 41  1  0  0  0  0
  8 13  1  0  0  0  0
 18 28  1  0  0  0  0
 26 34  1  0  0  0  0
 23 31  1  0  0  0  0
 45 47  1  0  0  0  0
  7 12  1  0  0  0  0
 35 40  1  0  0  0  0
 17 27  1  0  0  0  0
M  CHG  1  23   1
M  END
$$$$

  -OEChem-05262214473D

 50 50  0     1  0  0  0  0  0999 V2000
   -1.6938    0.4865    3.8080 C   0  0  0  0  0  0  0  0  0  0  0  0
   -0.7464   -0.1282    3.3323 O   0  0  0  0  0  0  0  0  0  0  0  0
   -2.1257    0.2041    5.2087 C   0  0  0  0  0  0  0  0  0  0  0  0
   -2.8853   -0.5922    5.2621 H   0  0  0  0  0  0  0  0  0  0  0  0
   -1.2944   -0.1435    5.8430 H   0  0  0  0  0  0  0  0  0  0  0  0
   -2.5637    1.0590    5.7483 H   0  0  0  0  0  0  0  0  0  0  0  0
   -2.4435    1.4589    3.1669 N   0  0  0  0  0  0  0  0  0  0  0  0
   -2.1966    1.8850    1.8145 C   0  0  2  0  0  0  0  0  0  0  0  0
   -0.8617    1.2996    1.3733 C   0  0  0  0  0  0  0  0  0  0  0  0
    0.0104    0.9468    2.1646 O   0  0  0  0  0  0  0  0  0  0  0  0
   -2.1879    3.4017    1.7050 C   0  0  0  0  0  0  0  0  0  0  0  0
   -3.2085    1.8948    3.6787 H   0  0  0  0  0  0  0  0  0  0  0  0
   -3.0007    1.4665    1.1994 H   0  0  0  0  0  0  0  0  0  0  0  0
   -1.3888    3.8390    2.3147 H   0  0  0  0  0  0  0  0  0  0  0  0
   -2.0284    3.7240    0.6708 H   0  0  0  0  0  0  0  0  0  0  0  0
   -3.1380    3.8230    2.0508 H   0  0  0  0  0  0  0  0  0  0  0  0
   -0.7390    1.2565   -0.0101 N   0  0  0  0  0  0  0  0  0  0  0  0
    0.4383    0.7557   -0.6738 C   0  0  2  0  0  0  0  0  0  0  0  0
    1.3811    1.9372   -0.8722 C   0  0  0  0  0  0  0  0  0  0  0  0
    2.3197    1.9183   -1.6657 O   0  0  0  0  0  0  0  0  0  0  0  0
    0.1099    0.1037   -2.0218 C   0  0  0  0  0  0  0  0  0  0  0  0
   -0.7549   -1.1250   -1.8805 C   0  0  0  0  0  0  0  0  0  0  0  0
   -0.2496   -2.3200   -1.4281 N   0  3  0  0  0  0  0  0  0  0  0  0
   -2.0813   -1.3305   -2.1362 C   0  0  0  0  0  0  0  0  0  0  0  0
   -1.2239   -3.2352   -1.4034 C   0  0  0  0  0  0  0  0  0  0  0  0
   -2.3439   -2.6446   -1.8327 N   0  0  0  0  0  0  0  0  0  0  0  0
   -1.5221    1.5532   -0.5874 H   0  0  0  0  0  0  0  0  0  0  0  0
    0.9023    0.0377    0.0127 H   0  0  0  0  0  0  0  0  0  0  0  0
    1.0349   -0.1549   -2.5547 H   0  0  0  0  0  0  0  0  0  0  0  0
   -0.4096    0.8163   -2.6761 H   0  0  0  0  0  0  0  0  0  0  0  0
    0.7147   -2.4878   -1.1547 H   0  0  0  0  0  0  0  0  0  0  0  0
   -2.8960   -0.7342   -2.4960 H   0  0  0  0  0  0  0  0  0  0  0  0
   -1.1242   -4.2623   -1.0944 H   0  0  0  0  0  0  0  0  0  0  0  0
   -3.2480   -3.0999   -1.9205 H   0  0  0  0  0  0  0  0  0  0  0  0
    1.0177    3.0282   -0.0950 N   0  0  0  0  0  0  0  0  0  0  0  0
    1.7300    4.2856   -0.1099 C   0  0  2  0  0  0  0  0  0  0  0  0
    3.2125    3.9886    0.0731 C   0  0  0  0  0  0  0  0  0  0  0  0
    3.6306    2.9551    0.5911 O   0  0  0  0  0  0  0  0  0  0  0  0
    1.2248    5.2207    0.9779 C   0  0  0  0  0  0  0  0  0  0  0  0
    0.2104    2.9383    0.5150 H   0  0  0  0  0  0  0  0  0  0  0  0
    1.5652    4.7308   -1.0971 H   0  0  0  0  0  0  0  0  0  0  0  0
    1.3813    4.7916    1.9743 H   0  0  0  0  0  0  0  0  0  0  0  0
    1.7457    6.1833    0.9470 H   0  0  0  0  0  0  0  0  0  0  0  0
    0.1520    5.4095    0.8622 H   0  0  0  0  0  0  0  0  0  0  0  0
    4.0125    5.0321   -0.3710 N   0  0  0  0  0  0  0  0  0  0  0  0
    5.4543    4.9963   -0.2939 C   0  0  0  0  0  0  0  0  0  0  0  0
    3.5810    5.8431   -0.8043 H   0  0  0  0  0  0  0  0  0  0  0  0
    5.7833    5.4600    0.6478 H   0  0  0  0  0  0  0  0  0  0  0  0
    5.7974    3.9518   -0.3276 H   0  0  0  0  0  0  0  0  0  0  0  0
    5.8806    5.5499   -1.1436 H   0  0  0  0  0  0  0  0  0  0  0  0
 22 24  2  0  0  0  0
 24 26  1  0  0  0  0
 25 26  1  0  0  0  0
 23 25  2  0  0  0  0
 21 22  1  0  0  0  0
 22 23  1  0  0  0  0
  1  3  1  0  0  0  0
  1  7  1  0  0  0  0
  1  2  2  0  0  0  0
 36 37  1  0  0  0  0
 37 45  1  0  0  0  0
 37 38  2  0  0  0  0
  8  9  1  0  0  0  0
  9 17  1  0  0  0  0
  9 10  2  0  0  0  0
 18 19  1  0  0  0  0
 19 35  1  0  0  0  0
 19 20  2  0  0  0  0
 36 39  1  0  0  0  0
  8 11  1  0  0  0  0
 45 46  1  0  0  0  0
 18 21  1  0  0  0  0
 35 36  1  0  0  0  0
  7  8  1  0  0  0  0
 17 18  1  0  0  0  0
 24 32  1  0  0  0  0
 25 33  1  0  0  0  0
  3  4  1  0  0  0  0
  3  5  1  0  0  0  0
  3  6  1  0  0  0  0
 39 42  1  0  0  0  0
 39 43  1  0  0  0  0
 39 44  1  0  0  0  0
 11 14  1  0  0  0  0
 11 15  1  0  0  0  0
 11 16  1  0  0  0  0
 46 48  1  0  0  0  0
 46 49  1  0  0  0  0
 46 50  1  0  0  0  0
 21 29  1  0  0  0  0
 21 30  1  0  0  0  0
 36 41  1  0  0  0  0
  8 13  1  0  0  0  0
 18 28  1  0  0  0  0
 26 34  1  0  0  0  0
 23 31  1  0  0  0  0
 45 47  1  0  0  0  0
  7 12  1  0  0  0  0
 35 40  1  0  0  0  0
 17 27  1  0  0  0  0
M  CHG  1  23   1
M  END
$$$$

  -OEChem-05262214473D

 50 50  0     1  0  0  0  0  0999 V2000
   -1.6938    0.4865    3.8080 C   0  0  0  0  0  0  0  0  0  0  0  0
   -0.7464   -0.1282    3.3323 O   0  0  0  0  0  0  0  0  0  0  0  0
   -2.1257    0.2041    5.2087 C   0  0  0  0  0  0  0  0  0  0  0  0
   -2.8853   -0.5922    5.2621 H   0  0  0  0  0  0  0  0  0  0  0  0
   -1.2944   -0.1435    5.8430 H   0  0  0  0  0  0  0  0  0  0  0  0
   -2.5637    1.0590    5.7483 H   0  0  0  0  0  0  0  0  0  0  0  0
   -2.4435    1.4589    3.1669 N   0  0  0  0  0  0  0  0  0  0  0  0
   -2.1966    1.8850    1.8145 C   0  0  2  0  0  0  0  0  0  0  0  0
   -0.8617    1.2996    1.3733 C   0  0  0  0  0  0  0  0  0  0  0  0
    0.0104    0.9468    2.1646 O   0  0  0  0  0  0  0  0  0  0  0  0
   -2.1879    3.4017    1.7050 C   0  0  0  0  0  0  0  0  0  0  0  0
   -3.2085    1.8948    3.6787 H   0  0  0  0  0  0  0  0  0  0  0  0
   -3.0007    1.4665    1.1994 H   0  0  0  0  0  0  0  0  0  0  0  0
   -1.3888    3.8390    2.3147 H   0  0  0  0  0  0  0  0  0  0  0  0
   -2.0284    3.7240    0.6708 H   0  0  0  0  0  0  0  0  0  0  0  0
   -3.1380    3.8230    2.0508 H   0  0  0  0  0  0  0  0  0  0  0  0
   -0.7390    1.2565   -0.0101 N   0  0  0  0  0  0  0  0  0  0  0  0
    0.4383    0.7557   -0.6738 C   0  0  2  0  0  0  0  0  0  0  0  0
    1.3811    1.9372   -0.8722 C   0  0  0  0  0  0  0  0  0  0  0  0
    2.1420    2.0320   -1.8329 O   0  0  0  0  0  0  0  0  0  0  0  0
    0.1099    0.1037   -2.0218 C   0  0  0  0  0  0  0  0  0  0  0  0
   -0.7549   -1.1250   -1.8805 C   0  0  0  0  0  0  0  0  0  0  0  0
   -0.2496   -2.3200   -1.4281 N   0  3  0  0  0  0  0  0  0  0  0  0
   -2.0813   -1.3305   -2.1362 C   0  0  0  0  0  0  0  0  0  0  0  0
   -1.2239   -3.2352   -1.4034 C   0  0  0  0  0  0  0  0  0  0  0  0
   -2.3439   -2.6446   -1.8327 N   0  0  0  0  0  0  0  0  0  0  0  0
   -1.5221    1.5532   -0.5874 H   0  0  0  0  0  0  0  0  0  0  0  0
    0.9023    0.0377    0.0127 H   0  0  0  0  0  0  0  0  0  0  0  0
    1.0349   -0.1549   -2.5547 H   0  0  0  0  0  0  0  0  0  0  0  0
   -0.4096    0.8163   -2.6761 H   0  0  0  0  0  0  0  0  0  0  0  0
    0.7147   -2.4878   -1.1547 H   0  0  0  0  0  0  0  0  0  0  0  0
   -2.8960   -0.7342   -2.4960 H   0  0  0  0  0  0  0  0  0  0  0  0
   -1.1242   -4.2623   -1.0944 H   0  0  0  0  0  0  0  0  0  0  0  0
   -3.2480   -3.0999   -1.9205 H   0  0  0  0  0  0  0  0  0  0  0  0
    1.2337    2.8926    0.1238 N   0  0  0  0  0  0  0  0  0  0  0  0
    1.9909    4.1230    0.1615 C   0  0  2  0  0  0  0  0  0  0  0  0
    3.4636    3.7743   -0.0097 C   0  0  0  0  0  0  0  0  0  0  0  0
    3.9237    2.6630    0.2441 O   0  0  0  0  0  0  0  0  0  0  0  0
    1.7583    4.8762    1.4620 C   0  0  0  0  0  0  0  0  0  0  0  0
    0.5596    2.7182    0.8633 H   0  0  0  0  0  0  0  0  0  0  0  0
    1.6566    4.7264   -0.6895 H   0  0  0  0  0  0  0  0  0  0  0  0
    2.0872    4.2873    2.3260 H   0  0  0  0  0  0  0  0  0  0  0  0
    2.3103    5.8218    1.4770 H   0  0  0  0  0  0  0  0  0  0  0  0
    0.6947    5.1000    1.5978 H   0  0  0  0  0  0  0  0  0  0  0  0
    4.2111    4.8623   -0.4381 N   0  0  0  0  0  0  0  0  0  0  0  0
    5.6360    4.7895   -0.6623 C   0  0  0  0  0  0  0  0  0  0  0  0
    3.7435    5.7406   -0.6422 H   0  0  0  0  0  0  0  0  0  0  0  0
    6.1676    5.0871    0.2535 H   0  0  0  0  0  0  0  0  0  0  0  0
    5.9130    3.7586   -0.9283 H   0  0  0  0  0  0  0  0  0  0  0  0
    5.9130    5.4670   -1.4835 H   0  0  0  0  0  0  0  0  0  0  0  0
 22 24  2  0  0  0  0
 24 26  1  0  0  0  0
 25 26  1  0  0  0  0
 23 25  2  0  0  0  0
 21 22  1  0  0  0  0
 22 23  1  0  0  0  0
  1  3  1  0  0  0  0
  1  7  1  0  0  0  0
  1  2  2  0  0  0  0
 36 37  1  0  0  0  0
 37 45  1  0  0  0  0
 37 38  2  0  0  0  0
  8  9  1  0  0  0  0
  9 17  1  0  0  0  0
  9 10  2  0  0  0  0
 18 19  1  0  0  0  0
 19 35  1  0  0  0  0
 19 20  2  0  0  0  0
 36 39  1  0  0  0  0
  8 11  1  0  0  0  0
 45 46  1  0  0  0  0
 18 21  1  0  0  0  0
 35 36  1  0  0  0  0
  7  8  1  0  0  0  0
 17 18  1  0  0  0  0
 24 32  1  0  0  0  0
 25 33  1  0  0  0  0
  3  4  1  0  0  0  0
  3  5  1  0  0  0  0
  3  6  1  0  0  0  0
 39 42  1  0  0  0  0
 39 43  1  0  0  0  0
 39 44  1  0  0  0  0
 11 14  1  0  0  0  0
 11 15  1  0  0  0  0
 11 16  1  0  0  0  0
 46 48  1  0  0  0  0
 46 49  1  0  0  0  0
 46 50  1  0  0  0  0
 21 29  1  0  0  0  0
 21 30  1  0  0  0  0
 36 41  1  0  0  0  0
  8 13  1  0  0  0  0
 18 28  1  0  0  0  0
 26 34  1  0  0  0  0
 23 31  1  0  0  0  0
 45 47  1  0  0  0  0
  7 12  1  0  0  0  0
 35 40  1  0  0  0  0
 17 27  1  0  0  0  0
M  CHG  1  23   1
M  END
$$$$

  -OEChem-05262214473D

 50 50  0     1  0  0  0  0  0999 V2000
   -1.6938    0.4865    3.8080 C   0  0  0  0  0  0  0  0  0  0  0  0
   -0.7464   -0.1282    3.3323 O   0  0  0  0  0  0  0  0  0  0  0  0
   -2.1257    0.2041    5.2087 C   0  0  0  0  0  0  0  0  0  0  0  0
   -2.8853   -0.5922    5.2621 H   0  0  0  0  0  0  0  0  0  0  0  0
   -1.2944   -0.1435    5.8430 H   0  0  0  0  0  0  0  0  0  0  0  0
   -2.5637    1.0590    5.7483 H   0  0  0  0  0  0  0  0  0  0  0  0
   -2.4435    1.4589    3.1669 N   0  0  0  0  0  0  0  0  0  0  0  0
   -2.1966    1.8850    1.8145 C   0  0  2  0  0  0  0  0  0  0  0  0
   -0.8617    1.2996    1.3733 C   0  0  0  0  0  0  0  0  0  0  0  0
    0.0104    0.9468    2.1646 O   0  0  0  0  0  0  0  0  0  0  0  0
   -2.1879    3.4017    1.7050 C   0  0  0  0  0  0  0  0  0  0  0  0
   -3.2085    1.8948    3.6787 H   0  0  0  0  0  0  0  0  0  0  0  0
   -3.0007    1.4665    1.1994 H   0  0  0  0  0  0  0  0  0  0  0  0
   -1.3888    3.8390    2.3147 H   0  0  0  0  0  0  0  0  0  0  0  0
   -2.0284    3.7240    0.6708 H   0  0  0  0  0  0  0  0  0  0  0  0
   -3.1380    3.8230    2.0508 H   0  0  0  0  0  0  0  0  0  0  0  0
   -0.7390    1.2565   -0.0101 N   0  0  0  0  0  0  0  0  0  0  0  0
    0.4383    0.7557   -0.6738 C   0  0  2  0  0  0  0  0  0  0  0  0
    1.3811    1.9372   -0.8722 C   0  0  0  0  0  0  0  0  0  0  0  0
    1.9407    2.1746   -1.9406 O   0  0  0  0  0  0  0  0  0  0  0  0
    0.1099    0.1037   -2.0218 C   0  0  0  0  0  0  0  0  0  0  0  0
   -0.7549   -1.1250   -1.8805 C   0  0  0  0  0  0  0  0  0  0  0  0
   -0.2496   -2.3200   -1.4281 N   0  3  0  0  0  0  0  0  0  0  0  0
   -2.0813   -1.3305   -2.1362 C   0  0  0  0  0  0  0  0  0  0  0  0
   -1.2239   -3.2352   -1.4034 C   0  0  0  0  0  0  0  0  0  0  0  0
   -2.3439   -2.6446   -1.8327 N   0  0  0  0  0  0  0  0  0  0  0  0
   -1.5221    1.5532   -0.5874 H   0  0  0  0  0  0  0  0  0  0  0  0
    0.9023    0.0377    0.0127 H   0  0  0  0  0  0  0  0  0  0  0  0
    1.0349   -0.1549   -2.5547 H   0  0  0  0  0  0  0  0  0  0  0  0
   -0.4096    0.8163   -2.6761 H   0  0  0  0  0  0  0  0  0  0  0  0
    0.7147   -2.4878   -1.1547 H   0  0  0  0  0  0  0  0  0  0  0  0
   -2.8960   -0.7342   -2.4960 H   0  0  0  0  0  0  0  0  0  0  0  0
   -1.1242   -4.2623   -1.0944 H   0  0  0  0  0  0  0  0  0  0  0  0
   -3.2480   -3.0999   -1.9205 H   0  0  0  0  0  0  0  0  0  0  0  0
    1.4816    2.7193    0.2700 N   0  0  0  0  0  0  0  0  0  0  0  0
    2.2919    3.9136    0.3452 C   0  0  2  0  0  0  0  0  0  0  0  0
    3.6823    3.5721   -0.1742 C   0  0  0  0  0  0  0  0  0  0  0  0
    4.1273    2.4265   -0.1965 O   0  0  0  0  0  0  0  0  0  0  0  0
    2.3592    4.4480    1.7674 C   0  0  0  0  0  0  0  0  0  0  0  0
    0.9593    2.4381    1.0946 H   0  0  0  0  0  0  0  0  0  0  0  0
    1.8265    4.6537   -0.3148 H   0  0  0  0  0  0  0  0  0  0  0  0
    2.8227    3.7202    2.4434 H   0  0  0  0  0  0  0  0  0  0  0  0
    2.9499    5.3687    1.8178 H   0  0  0  0  0  0  0  0  0  0  0  0
    1.3560    4.6651    2.1500 H   0  0  0  0  0  0  0  0  0  0  0  0
    4.3838    4.7024   -0.5699 N   0  0  0  0  0  0  0  0  0  0  0  0
    5.7307    4.6425   -1.0878 C   0  0  0  0  0  0  0  0  0  0  0  0
    3.9296    5.6102   -0.5345 H   0  0  0  0  0  0  0  0  0  0  0  0
    6.4472    4.7771   -0.2640 H   0  0  0  0  0  0  0  0  0  0  0  0
    5.8977    3.6644   -1.5625 H   0  0  0  0  0  0  0  0  0  0  0  0
    5.8732    5.4402   -1.8316 H   0  0  0  0  0  0  0  0  0  0  0  0
 22 24  2  0  0  0  0
 24 26  1  0  0  0  0
 25 26  1  0  0  0  0
 23 25  2  0  0  0  0
 21 22  1  0  0  0  0
 22 23  1  0  0  0  0
  1  3  1  0  0  0  0
  1  7  1  0  0  0  0
  1  2  2  0  0  0  0
 36 37  1  0  0  0  0
 37 45  1  0  0  0  0
 37 38  2  0  0  0  0
  8  9  1  0  0  0  0
  9 17  1  0  0  0  0
  9 10  2  0  0  0  0
 18 19  1  0  0  0  0
 19 35  1  0  0  0  0
 19 20  2  0  0  0  0
 36 39  1  0  0  0  0
  8 11  1  0  0  0  0
 45 46  1  0  0  0  0
 18 21  1  0  0  0  0
 35 36  1  0  0  0  0
  7  8  1  0  0  0  0
 17 18  1  0  0  0  0
 24 32  1  0  0  0  0
 25 33  1  0  0  0  0
  3  4  1  0  0  0  0
  3  5  1  0  0  0  0
  3  6  1  0  0  0  0
 39 42  1  0  0  0  0
 39 43  1  0  0  0  0
 39 44  1  0  0  0  0
 11 14  1  0  0  0  0
 11 15  1  0  0  0  0
 11 16  1  0  0  0  0
 46 48  1  0  0  0  0
 46 49  1  0  0  0  0
 46 50  1  0  0  0  0
 21 29  1  0  0  0  0
 21 30  1  0  0  0  0
 36 41  1  0  0  0  0
  8 13  1  0  0  0  0
 18 28  1  0  0  0  0
 26 34  1  0  0  0  0
 23 31  1  0  0  0  0
 45 47  1  0  0  0  0
  7 12  1  0  0  0  0
 35 40  1  0  0  0  0
 17 27  1  0  0  0  0
M  CHG  1  23   1
M  END
$$$$

  -OEChem-05262214473D

 50 50  0     1  0  0  0  0  0999 V2000
   -1.6938    0.4865    3.8080 C   0  0  0  0  0  0  0  0  0  0  0  0
   -0.7464   -0.1282    3.3323 O   0  0  0  0  0  0  0  0  0  0  0  0
   -2.1257    0.2041    5.2087 C   0  0  0  0  0  0  0  0  0  0  0  0
   -2.8853   -0.5922    5.2621 H   0  0  0  0  0  0  0  0  0  0  0  0
   -1.2944   -0.1435    5.8430 H   0  0  0  0  0  0  0  0  0  0  0  0
   -2.5637    1.0590    5.7483 H   0  0  0  0  0  0  0  0  0  0  0  0
   -2.4435    1.4589    3.1669 N   0  0  0  0  0  0  0  0  0  0  0  0
   -2.1966    1.8850    1.8145 C   0  0  2  0  0  0  0  0  0  0  0  0
   -0.8617    1.2996    1.3733 C   0  0  0  0  0  0  0  0  0  0  0  0
    0.0104    0.9468    2.1646 O   0  0  0  0  0  0  0  0  0  0  0  0
   -2.1879    3.4017    1.7050 C   0  0  0  0  0  0  0  0  0  0  0  0
   -3.2085    1.8948    3.6787 H   0  0  0  0  0  0  0  0  0  0  0  0
   -3.0007    1.4665    1.1994 H   0  0  0  0  0  0  0  0  0  0  0  0
   -1.3888    3.8390    2.3147 H   0  0  0  0  0  0  0  0  0  0  0  0
   -2.0284    3.7240    0.6708 H   0  0  0  0  0  0  0  0  0  0  0  0
   -3.1380    3.8230    2.0508 H   0  0  0  0  0  0  0  0  0  0  0  0
   -0.7390    1.2565   -0.0101 N   0  0  0  0  0  0  0  0  0  0  0  0
    0.4383    0.7557   -0.6738 C   0  0  2  0  0  0  0  0  0  0  0  0
    1.3811    1.9372   -0.8722 C   0  0  0  0  0  0  0  0  0  0  0  0
    1.7295    2.3363   -1.9814 O   0  0  0  0  0  0  0  0  0  0  0  0
    0.1099    0.1037   -2.0218 C   0  0  0  0  0  0  0  0  0  0  0  0
   -0.7549   -1.1250   -1.8805 C   0  0  0  0  0  0  0  0  0  0  0  0
   -0.2496   -2.3200   -1.4281 N   0  3  0  0  0  0  0  0  0  0  0  0
   -2.0813   -1.3305   -2.1362 C   0  0  0  0  0  0  0  0  0  0  0  0
   -1.2239   -3.2352   -1.4034 C   0  0  0  0  0  0  0  0  0  0  0  0
   -2.3439   -2.6446   -1.8327 N   0  0  0  0  0  0  0  0  0  0  0  0
   -1.5221    1.5532   -0.5874 H   0  0  0  0  0  0  0  0  0  0  0  0
    0.9023    0.0377    0.0127 H   0  0  0  0  0  0  0  0  0  0  0  0
    1.0349   -0.1549   -2.5547 H   0  0  0  0  0  0  0  0  0  0  0  0
   -0.4096    0.8163   -2.6761 H   0  0  0  0  0  0  0  0  0  0  0  0
    0.7147   -2.4878   -1.1547 H   0  0  0  0  0  0  0  0  0  0  0  0
   -2.8960   -0.7342   -2.4960 H   0  0  0  0  0  0  0  0  0  0  0  0
   -1.1242   -4.2623   -1.0944 H   0  0  0  0  0  0  0  0  0  0  0  0
   -3.2480   -3.0999   -1.9205 H   0  0  0  0  0  0  0  0  0  0  0  0
    1.7446    2.5202    0.3338 N   0  0  0  0  0  0  0  0  0  0  0  0
    2.6125    3.6719    0.4288 C   0  0  2  0  0  0  0  0  0  0  0  0
    3.8537    3.3958   -0.4094 C   0  0  0  0  0  0  0  0  0  0  0  0
    4.2277    2.2617   -0.7009 O   0  0  0  0  0  0  0  0  0  0  0  0
    2.9864    3.9653    1.8734 C   0  0  0  0  0  0  0  0  0  0  0  0
    1.3823    2.1171    1.1929 H   0  0  0  0  0  0  0  0  0  0  0  0
    2.0633    4.5179    0.0015 H   0  0  0  0  0  0  0  0  0  0  0  0
    3.5375    3.1288    2.3185 H   0  0  0  0  0  0  0  0  0  0  0  0
    3.6207    4.8549    1.9462 H   0  0  0  0  0  0  0  0  0  0  0  0
    2.0909    4.1342    2.4812 H   0  0  0  0  0  0  0  0  0  0  0  0
    4.5187    4.5632   -0.7574 N   0  0  0  0  0  0  0  0  0  0  0  0
    5.7318    4.5654   -1.5412 C   0  0  0  0  0  0  0  0  0  0  0  0
    4.1265    5.4608   -0.4887 H   0  0  0  0  0  0  0  0  0  0  0  0
    6.6029    4.5511   -0.8696 H   0  0  0  0  0  0  0  0  0  0  0  0
    5.7524    3.6753   -2.1872 H   0  0  0  0  0  0  0  0  0  0  0  0
    5.7641    5.4714   -2.1641 H   0  0  0  0  0  0  0  0  0  0  0  0
 22 24  2  0  0  0  0
 24 26  1  0  0  0  0
 25 26  1  0  0  0  0
 23 25  2  0  0  0  0
 21 22  1  0  0  0  0
 22 23  1  0  0  0  0
  1  3  1  0  0  0  0
  1  7  1  0  0  0  0
  1  2  2  0  0  0  0
 36 37  1  0  0  0  0
 37 45  1  0  0  0  0
 37 38  2  0  0  0  0
  8  9  1  0  0  0  0
  9 17  1  0  0  0  0
  9 10  2  0  0  0  0
 18 19  1  0  0  0  0
 19 35  1  0  0  0  0
 19 20  2  0  0  0  0
 36 39  1  0  0  0  0
  8 11  1  0  0  0  0
 45 46  1  0  0  0  0
 18 21  1  0  0  0  0
 35 36  1  0  0  0  0
  7  8  1  0  0  0  0
 17 18  1  0  0  0  0
 24 32  1  0  0  0  0
 25 33  1  0  0  0  0
  3  4  1  0  0  0  0
  3  5  1  0  0  0  0
  3  6  1  0  0  0  0
 39 42  1  0  0  0  0
 39 43  1  0  0  0  0
 39 44  1  0  0  0  0
 11 14  1  0  0  0  0
 11 15  1  0  0  0  0
 11 16  1  0  0  0  0
 46 48  1  0  0  0  0
 46 49  1  0  0  0  0
 46 50  1  0  0  0  0
 21 29  1  0  0  0  0
 21 30  1  0  0  0  0
 36 41  1  0  0  0  0
  8 13  1  0  0  0  0
 18 28  1  0  0  0  0
 26 34  1  0  0  0  0
 23 31  1  0  0  0  0
 45 47  1  0  0  0  0
  7 12  1  0  0  0  0
 35 40  1  0  0  0  0
 17 27  1  0  0  0  0
M  CHG  1  23   1
M  END
$$$$

  -OEChem-05262214473D

 50 50  0     1  0  0  0  0  0999 V2000
   -1.6938    0.4865    3.8080 C   0  0  0  0  0  0  0  0  0  0  0  0
   -0.7464   -0.1282    3.3323 O   0  0  0  0  0  0  0  0  0  0  0  0
   -2.1257    0.2041    5.2087 C   0  0  0  0  0  0  0  0  0  0  0  0
   -2.8853   -0.5922    5.2621 H   0  0  0  0  0  0  0  0  0  0  0  0
   -1.2944   -0.1435    5.8430 H   0  0  0  0  0  0  0  0  0  0  0  0
   -2.5637    1.0590    5.7483 H   0  0  0  0  0  0  0  0  0  0  0  0
   -2.4435    1.4589    3.1669 N   0  0  0  0  0  0  0  0  0  0  0  0
   -2.1966    1.8850    1.8145 C   0  0  2  0  0  0  0  0  0  0  0  0
   -0.8617    1.2996    1.3733 C   0  0  0  0  0  0  0  0  0  0  0  0
    0.0104    0.9468    2.1646 O   0  0  0  0  0  0  0  0  0  0  0  0
   -2.1879    3.4017    1.7050 C   0  0  0  0  0  0  0  0  0  0  0  0
   -3.2085    1.8948    3.6787 H   0  0  0  0  0  0  0  0  0  0  0  0
   -3.0007    1.4665    1.1994 H   0  0  0  0  0  0  0  0  0  0  0  0
   -1.3888    3.8390    2.3147 H   0  0  0  0  0  0  0  0  0  0  0  0
   -2.0284    3.7240    0.6708 H   0  0  0  0  0  0  0  0  0  0  0  0
   -3.1380    3.8230    2.0508 H   0  0  0  0  0  0  0  0  0  0  0  0
   -0.7390    1.2565   -0.0101 N   0  0  0  0  0  0  0  0  0  0  0  0
    0.4383    0.7557   -0.6738 C   0  0  2  0  0  0  0  0  0  0  0  0
    1.3811    1.9372   -0.8722 C   0  0  0  0  0  0  0  0  0  0  0  0
    1.5227    2.5062   -1.9525 O   0  0  0  0  0  0  0  0  0  0  0  0
    0.1099    0.1037   -2.0218 C   0  0  0  0  0  0  0  0  0  0  0  0
   -0.7549   -1.1250   -1.8805 C   0  0  0  0  0  0  0  0  0  0  0  0
   -0.2496   -2.3200   -1.4281 N   0  3  0  0  0  0  0  0  0  0  0  0
   -2.0813   -1.3305   -2.1362 C   0  0  0  0  0  0  0  0  0  0  0  0
   -1.2239   -3.2352   -1.4034 C   0  0  0  0  0  0  0  0  0  0  0  0
   -2.3439   -2.6446   -1.8327 N   0  0  0  0  0  0  0  0  0  0  0  0
   -1.5221    1.5532   -0.5874 H   0  0  0  0  0  0  0  0  0  0  0  0
    0.9023    0.0377    0.0127 H   0  0  0  0  0  0  0  0  0  0  0  0
    1.0349   -0.1549   -2.5547 H   0  0  0  0  0  0  0  0  0  0  0  0
   -0.4096    0.8163   -2.6761 H   0  0  0  0  0  0  0  0  0  0  0  0
    0.7147   -2.4878   -1.1547 H   0  0  0  0  0  0  0  0  0  0  0  0
   -2.8960   -0.7342   -2.4960 H   0  0  0  0  0  0  0  0  0  0  0  0
   -1.1242   -4.2623   -1.0944 H   0  0  0  0  0  0  0  0  0  0  0  0
   -3.2480   -3.0999   -1.9205 H   0  0  0  0  0  0  0  0  0  0  0  0
    2.0047    2.3087    0.3108 N   0  0  0  0  0  0  0  0  0  0  0  0
    2.9308    3.4142    0.4066 C   0  0  2  0  0  0  0  0  0  0  0  0
    3.9662    3.2574   -0.6992 C   0  0  0  0  0  0  0  0  0  0  0  0
    4.2179    2.1798   -1.2346 O   0  0  0  0  0  0  0  0  0  0  0  0
    3.5973    3.4609    1.7727 C   0  0  0  0  0  0  0  0  0  0  0  0
    1.7999    1.7769    1.1517 H   0  0  0  0  0  0  0  0  0  0  0  0
    2.3508    4.3281    0.2377 H   0  0  0  0  0  0  0  0  0  0  0  0
    4.1829    2.5535    1.9598 H   0  0  0  0  0  0  0  0  0  0  0  0
    4.2771    4.3155    1.8534 H   0  0  0  0  0  0  0  0  0  0  0  0
    2.8493    3.5437    2.5686 H   0  0  0  0  0  0  0  0  0  0  0  0
    4.6068    4.4542   -0.9879 N   0  0  0  0  0  0  0  0  0  0  0  0
    5.6394    4.5635   -1.9918 C   0  0  0  0  0  0  0  0  0  0  0  0
    4.3208    5.3025   -0.5078 H   0  0  0  0  0  0  0  0  0  0  0  0
    6.6243    4.4245   -1.5220 H   0  0  0  0  0  0  0  0  0  0  0  0
    5.4872    3.7908   -2.7597 H   0  0  0  0  0  0  0  0  0  0  0  0
    5.5931    5.5585   -2.4585 H   0  0  0  0  0  0  0  0  0  0  0  0
 22 24  2  0  0  0  0
 24 26  1  0  0  0  0
 25 26  1  0  0  0  0
 23 25  2  0  0  0  0
 21 22  1  0  0  0  0
 22 23  1  0  0  0  0
  1  3  1  0  0  0  0
  1  7  1  0  0  0  0
  1  2  2  0  0  0  0
 36 37  1  0  0  0  0
 37 45  1  0  0  0  0
 37 38  2  0  0  0  0
  8  9  1  0  0  0  0
  9 17  1  0  0  0  0
  9 10  2  0  0  0  0
 18 19  1  0  0  0  0
 19 35  1  0  0  0  0
 19 20  2  0  0  0  0
 36 39  1  0  0  0  0
  8 11  1  0  0  0  0
 45 46  1  0  0  0  0
 18 21  1  0  0  0  0
 35 36  1  0  0  0  0
  7  8  1  0  0  0  0
 17 18  1  0  0  0  0
 24 32  1  0  0  0  0
 25 33  1  0  0  0  0
  3  4  1  0  0  0  0
  3  5  1  0  0  0  0
  3  6  1  0  0  0  0
 39 42  1  0  0  0  0
 39 43  1  0  0  0  0
 39 44  1  0  0  0  0
 11 14  1  0  0  0  0
 11 15  1  0  0  0  0
 11 16  1  0  0  0  0
 46 48  1  0  0  0  0
 46 49  1  0  0  0  0
 46 50  1  0  0  0  0
 21 29  1  0  0  0  0
 21 30  1  0  0  0  0
 36 41  1  0  0  0  0
  8 13  1  0  0  0  0
 18 28  1  0  0  0  0
 26 34  1  0  0  0  0
 23 31  1  0  0  0  0
 45 47  1  0  0  0  0
  7 12  1  0  0  0  0
 35 40  1  0  0  0  0
 17 27  1  0  0  0  0
M  CHG  1  23   1
M  END
$$$$

  -OEChem-05262214473D

 50 50  0     1  0  0  0  0  0999 V2000
   -1.6938    0.4865    3.8080 C   0  0  0  0  0  0  0  0  0  0  0  0
   -0.7464   -0.1282    3.3323 O   0  0  0  0  0  0  0  0  0  0  0  0
   -2.1257    0.2041    5.2087 C   0  0  0  0  0  0  0  0  0  0  0  0
   -2.8853   -0.5922    5.2621 H   0  0  0  0  0  0  0  0  0  0  0  0
   -1.2944   -0.1435    5.8430 H   0  0  0  0  0  0  0  0  0  0  0  0
   -2.5637    1.0590    5.7483 H   0  0  0  0  0  0  0  0  0  0  0  0
   -2.4435    1.4589    3.1669 N   0  0  0  0  0  0  0  0  0  0  0  0
   -2.1966    1.8850    1.8145 C   0  0  2  0  0  0  0  0  0  0  0  0
   -0.8617    1.2996    1.3733 C   0  0  0  0  0  0  0  0  0  0  0  0
    0.0104    0.9468    2.1646 O   0  0  0  0  0  0  0  0  0  0  0  0
   -2.1879    3.4017    1.7050 C   0  0  0  0  0  0  0  0  0  0  0  0
   -3.2085    1.8948    3.6787 H   0  0  0  0  0  0  0  0  0  0  0  0
   -3.0007    1.4665    1.1994 H   0  0  0  0  0  0  0  0  0  0  0  0
   -1.3888    3.8390    2.3147 H   0  0  0  0  0  0  0  0  0  0  0  0
   -2.0284    3.7240    0.6708 H   0  0  0  0  0  0  0  0  0  0  0  0
   -3.1380    3.8230    2.0508 H   0  0  0  0  0  0  0  0  0  0  0  0
   -0.7390    1.2565   -0.0101 N   0  0  0  0  0  0  0  0  0  0  0  0
    0.4383    0.7557   -0.6738 C   0  0  2  0  0  0  0  0  0  0  0  0
    1.3811    1.9372   -0.8722 C   0  0  0  0  0  0  0  0  0  0  0  0
    1.3344    2.6726   -1.8560 O   0  0  0  0  0  0  0  0  0  0  0  0
    0.1099    0.1037   -2.0218 C   0  0  0  0  0  0  0  0  0  0  0  0
   -0.7549   -1.1250   -1.8805 C   0  0  0  0  0  0  0  0  0  0  0  0
   -0.2496   -2.3200   -1.4281 N   0  3  0  0  0  0  0  0  0  0  0  0
   -2.0813   -1.3305   -2.1362 C   0  0  0  0  0  0  0  0  0  0  0  0
   -1.2239   -3.2352   -1.4034 C   0  0  0  0  0  0  0  0  0  0  0  0
   -2.3439   -2.6446   -1.8327 N   0  0  0  0  0  0  0  0  0  0  0  0
   -1.5221    1.5532   -0.5874 H   0  0  0  0  0  0  0  0  0  0  0  0
    0.9023    0.0377    0.0127 H   0  0  0  0  0  0  0  0  0  0  0  0
    1.0349   -0.1549   -2.5547 H   0  0  0  0  0  0  0  0  0  0  0  0
   -0.4096    0.8163   -2.6761 H   0  0  0  0  0  0  0  0  0  0  0  0
    0.7147   -2.4878   -1.1547 H   0  0  0  0  0  0  0  0  0  0  0  0
   -2.8960   -0.7342   -2.4960 H   0  0  0  0  0  0  0  0  0  0  0  0
   -1.1242   -4.2623   -1.0944 H   0  0  0  0  0  0  0  0  0  0  0  0
   -3.2480   -3.0999   -1.9205 H   0  0  0  0  0  0  0  0  0  0  0  0
    2.2442    2.0994    0.2026 N   0  0  0  0  0  0  0  0  0  0  0  0
    3.2250    3.1581    0.2800 C   0  0  2  0  0  0  0  0  0  0  0  0
    4.0121    3.1662   -1.0238 C   0  0  0  0  0  0  0  0  0  0  0  0
    4.0987    2.1865   -1.7612 O   0  0  0  0  0  0  0  0  0  0  0  0
    4.1501    2.9693    1.4722 C   0  0  0  0  0  0  0  0  0  0  0  0
    2.1834    1.4410    0.9736 H   0  0  0  0  0  0  0  0  0  0  0  0
    2.6696    4.0972    0.3779 H   0  0  0  0  0  0  0  0  0  0  0  0
    4.7151    2.0334    1.3918 H   0  0  0  0  0  0  0  0  0  0  0  0
    4.8744    3.7873    1.5458 H   0  0  0  0  0  0  0  0  0  0  0  0
    3.5795    2.9338    2.4065 H   0  0  0  0  0  0  0  0  0  0  0  0
    4.6419    4.3829   -1.2456 N   0  0  0  0  0  0  0  0  0  0  0  0
    5.4597    4.6369   -2.4087 C   0  0  0  0  0  0  0  0  0  0  0  0
    4.4994    5.1461   -0.5907 H   0  0  0  0  0  0  0  0  0  0  0  0
    6.5098    4.4059   -2.1768 H   0  0  0  0  0  0  0  0  0  0  0  0
    5.1201    4.0029   -3.2411 H   0  0  0  0  0  0  0  0  0  0  0  0
    5.3718    5.6954   -2.6946 H   0  0  0  0  0  0  0  0  0  0  0  0
 22 24  2  0  0  0  0
 24 26  1  0  0  0  0
 25 26  1  0  0  0  0
 23 25  2  0  0  0  0
 21 22  1  0  0  0  0
 22 23  1  0  0  0  0
  1  3  1  0  0  0  0
  1  7  1  0  0  0  0
  1  2  2  0  0  0  0
 36 37  1  0  0  0  0
 37 45  1  0  0  0  0
 37 38  2  0  0  0  0
  8  9  1  0  0  0  0
  9 17  1  0  0  0  0
  9 10  2  0  0  0  0
 18 19  1  0  0  0  0
 19 35  1  0  0  0  0
 19 20  2  0  0  0  0
 36 39  1  0  0  0  0
  8 11  1  0  0  0  0
 45 46  1  0  0  0  0
 18 21  1  0  0  0  0
 35 36  1  0  0  0  0
  7  8  1  0  0  0  0
 17 18  1  0  0  0  0
 24 32  1  0  0  0  0
 25 33  1  0  0  0  0
  3  4  1  0  0  0  0
  3  5  1  0  0  0  0
  3  6  1  0  0  0  0
 39 42  1  0  0  0  0
 39 43  1  0  0  0  0
 39 44  1  0  0  0  0
 11 14  1  0  0  0  0
 11 15  1  0  0  0  0
 11 16  1  0  0  0  0
 46 48  1  0  0  0  0
 46 49  1  0  0  0  0
 46 50  1  0  0  0  0
 21 29  1  0  0  0  0
 21 30  1  0  0  0  0
 36 41  1  0  0  0  0
  8 13  1  0  0  0  0
 18 28  1  0  0  0  0
 26 34  1  0  0  0  0
 23 31  1  0  0  0  0
 45 47  1  0  0  0  0
  7 12  1  0  0  0  0
 35 40  1  0  0  0  0
 17 27  1  0  0  0  0
M  CHG  1  23   1
M  END
$$$$

  -OEChem-05262214473D

 50 50  0     1  0  0  0  0  0999 V2000
   -1.6938    0.4865    3.8080 C   0  0  0  0  0  0  0  0  0  0  0  0
   -0.7464   -0.1282    3.3323 O   0  0  0  0  0  0  0  0  0  0  0  0
   -2.1257    0.2041    5.2087 C   0  0  0  0  0  0  0  0  0  0  0  0
   -2.8853   -0.5922    5.2621 H   0  0  0  0  0  0  0  0  0  0  0  0
   -1.2944   -0.1435    5.8430 H   0  0  0  0  0  0  0  0  0  0  0  0
   -2.5637    1.0590    5.7483 H   0  0  0  0  0  0  0  0  0  0  0  0
   -2.4435    1.4589    3.1669 N   0  0  0  0  0  0  0  0  0  0  0  0
   -2.1966    1.8850    1.8145 C   0  0  2  0  0  0  0  0  0  0  0  0
   -0.8617    1.2996    1.3733 C   0  0  0  0  0  0  0  0  0  0  0  0
    0.0104    0.9468    2.1646 O   0  0  0  0  0  0  0  0  0  0  0  0
   -2.1879    3.4017    1.7050 C   0  0  0  0  0  0  0  0  0  0  0  0
   -3.2085    1.8948    3.6787 H   0  0  0  0  0  0  0  0  0  0  0  0
   -3.0007    1.4665    1.1994 H   0  0  0  0  0  0  0  0  0  0  0  0
   -1.3888    3.8390    2.3147 H   0  0  0  0  0  0  0  0  0  0  0  0
   -2.0284    3.7240    0.6708 H   0  0  0  0  0  0  0  0  0  0  0  0
   -3.1380    3.8230    2.0508 H   0  0  0  0  0  0  0  0  0  0  0  0
   -0.7390    1.2565   -0.0101 N   0  0  0  0  0  0  0  0  0  0  0  0
    0.4383    0.7557   -0.6738 C   0  0  2  0  0  0  0  0  0  0  0  0
    1.3811    1.9372   -0.8722 C   0  0  0  0  0  0  0  0  0  0  0  0
    1.1776    2.8243   -1.6984 O   0  0  0  0  0  0  0  0  0  0  0  0
    0.1099    0.1037   -2.0218 C   0  0  0  0  0  0  0  0  0  0  0  0
   -0.7549   -1.1250   -1.8805 C   0  0  0  0  0  0  0  0  0  0  0  0
   -0.2496   -2.3200   -1.4281 N   0  3  0  0  0  0  0  0  0  0  0  0
   -2.0813   -1.3305   -2.1362 C   0  0  0  0  0  0  0  0  0  0  0  0
   -1.2239   -3.2352   -1.4034 C   0  0  0  0  0  0  0  0  0  0  0  0
   -2.3439   -2.6446   -1.8327 N   0  0  0  0  0  0  0  0  0  0  0  0
   -1.5221    1.5532   -0.5874 H   0  0  0  0  0  0  0  0  0  0  0  0
    0.9023    0.0377    0.0127 H   0  0  0  0  0  0  0  0  0  0  0  0
    1.0349   -0.1549   -2.5547 H   0  0  0  0  0  0  0  0  0  0  0  0
   -0.4096    0.8163   -2.6761 H   0  0  0  0  0  0  0  0  0  0  0  0
    0.7147   -2.4878   -1.1547 H   0  0  0  0  0  0  0  0  0  0  0  0
   -2.8960   -0.7342   -2.4960 H   0  0  0  0  0  0  0  0  0  0  0  0
   -1.1242   -4.2623   -1.0944 H   0  0  0  0  0  0  0  0  0  0  0  0
   -3.2480   -3.0999   -1.9205 H   0  0  0  0  0  0  0  0  0  0  0  0
    2.4468    1.9065    0.0165 N   0  0  0  0  0  0  0  0  0  0  0  0
    3.4752    2.9211    0.0577 C   0  0  2  0  0  0  0  0  0  0  0  0
    3.9882    3.1286   -1.3612 C   0  0  0  0  0  0  0  0  0  0  0  0
    3.8781    2.2813   -2.2449 O   0  0  0  0  0  0  0  0  0  0  0  0
    4.6073    2.5239    0.9923 C   0  0  0  0  0  0  0  0  0  0  0  0
    2.5069    1.1320    0.6710 H   0  0  0  0  0  0  0  0  0  0  0  0
    2.9979    3.8411    0.4123 H   0  0  0  0  0  0  0  0  0  0  0  0
    5.0976    1.6041    0.6531 H   0  0  0  0  0  0  0  0  0  0  0  0
    5.3718    3.3061    1.0443 H   0  0  0  0  0  0  0  0  0  0  0  0
    4.2317    2.3460    2.0058 H   0  0  0  0  0  0  0  0  0  0  0  0
    4.6218    4.3541   -1.5131 N   0  0  0  0  0  0  0  0  0  0  0  0
    5.2049    4.7805   -2.7637 C   0  0  0  0  0  0  0  0  0  0  0  0
    4.6500    5.0022   -0.7315 H   0  0  0  0  0  0  0  0  0  0  0  0
    6.2673    4.4965   -2.7892 H   0  0  0  0  0  0  0  0  0  0  0  0
    4.6761    4.2972   -3.5984 H   0  0  0  0  0  0  0  0  0  0  0  0
    5.1152    5.8730   -2.8563 H   0  0  0  0  0  0  0  0  0  0  0  0
 22 24  2  0  0  0  0
 24 26  1  0  0  0  0
 25 26  1  0  0  0  0
 23 25  2  0  0  0  0
 21 22  1  0  0  0  0
 22 23  1  0  0  0  0
  1  3  1  0  0  0  0
  1  7  1  0  0  0  0
  1  2  2  0  0  0  0
 36 37  1  0  0  0  0
 37 45  1  0  0  0  0
 37 38  2  0  0  0  0
  8  9  1  0  0  0  0
  9 17  1  0  0  0  0
  9 10  2  0  0  0  0
 18 19  1  0  0  0  0
 19 35  1  0  0  0  0
 19 20  2  0  0  0  0
 36 39  1  0  0  0  0
  8 11  1  0  0  0  0
 45 46  1  0  0  0  0
 18 21  1  0  0  0  0
 35 36  1  0  0  0  0
  7  8  1  0  0  0  0
 17 18  1  0  0  0  0
 24 32  1  0  0  0  0
 25 33  1  0  0  0  0
  3  4  1  0  0  0  0
  3  5  1  0  0  0  0
  3  6  1  0  0  0  0
 39 42  1  0  0  0  0
 39 43  1  0  0  0  0
 39 44  1  0  0  0  0
 11 14  1  0  0  0  0
 11 15  1  0  0  0  0
 11 16  1  0  0  0  0
 46 48  1  0  0  0  0
 46 49  1  0  0  0  0
 46 50  1  0  0  0  0
 21 29  1  0  0  0  0
 21 30  1  0  0  0  0
 36 41  1  0  0  0  0
  8 13  1  0  0  0  0
 18 28  1  0  0  0  0
 26 34  1  0  0  0  0
 23 31  1  0  0  0  0
 45 47  1  0  0  0  0
  7 12  1  0  0  0  0
 35 40  1  0  0  0  0
 17 27  1  0  0  0  0
M  CHG  1  23   1
M  END
$$$$

  -OEChem-05262214473D

 50 50  0     1  0  0  0  0  0999 V2000
   -1.6938    0.4865    3.8080 C   0  0  0  0  0  0  0  0  0  0  0  0
   -0.7464   -0.1282    3.3323 O   0  0  0  0  0  0  0  0  0  0  0  0
   -2.1257    0.2041    5.2087 C   0  0  0  0  0  0  0  0  0  0  0  0
   -2.8853   -0.5922    5.2621 H   0  0  0  0  0  0  0  0  0  0  0  0
   -1.2944   -0.1435    5.8430 H   0  0  0  0  0  0  0  0  0  0  0  0
   -2.5637    1.0590    5.7483 H   0  0  0  0  0  0  0  0  0  0  0  0
   -2.4435    1.4589    3.1669 N   0  0  0  0  0  0  0  0  0  0  0  0
   -2.1966    1.8850    1.8145 C   0  0  2  0  0  0  0  0  0  0  0  0
   -0.8617    1.2996    1.3733 C   0  0  0  0  0  0  0  0  0  0  0  0
    0.0104    0.9468    2.1646 O   0  0  0  0  0  0  0  0  0  0  0  0
   -2.1879    3.4017    1.7050 C   0  0  0  0  0  0  0  0  0  0  0  0
   -3.2085    1.8948    3.6787 H   0  0  0  0  0  0  0  0  0  0  0  0
   -3.0007    1.4665    1.1994 H   0  0  0  0  0  0  0  0  0  0  0  0
   -1.3888    3.8390    2.3147 H   0  0  0  0  0  0  0  0  0  0  0  0
   -2.0284    3.7240    0.6708 H   0  0  0  0  0  0  0  0  0  0  0  0
   -3.1380    3.8230    2.0508 H   0  0  0  0  0  0  0  0  0  0  0  0
   -0.7390    1.2565   -0.0101 N   0  0  0  0  0  0  0  0  0  0  0  0
    0.4383    0.7557   -0.6738 C   0  0  2  0  0  0  0  0  0  0  0  0
    1.3811    1.9372   -0.8722 C   0  0  0  0  0  0  0  0  0  0  0  0
    1.0628    2.9508   -1.4904 O   0  0  0  0  0  0  0  0  0  0  0  0
    0.1099    0.1037   -2.0218 C   0  0  0  0  0  0  0  0  0  0  0  0
   -0.7549   -1.1250   -1.8805 C   0  0  0  0  0  0  0  0  0  0  0  0
   -0.2496   -2.3200   -1.4281 N   0  3  0  0  0  0  0  0  0  0  0  0
   -2.0813   -1.3305   -2.1362 C   0  0  0  0  0  0  0  0  0  0  0  0
   -1.2239   -3.2352   -1.4034 C   0  0  0  0  0  0  0  0  0  0  0  0
   -2.3439   -2.6446   -1.8327 N   0  0  0  0  0  0  0  0  0  0  0  0
   -1.5221    1.5532   -0.5874 H   0  0  0  0  0  0  0  0  0  0  0  0
    0.9023    0.0377    0.0127 H   0  0  0  0  0  0  0  0  0  0  0  0
    1.0349   -0.1549   -2.5547 H   0  0  0  0  0  0  0  0  0  0  0  0
   -0.4096    0.8163   -2.6761 H   0  0  0  0  0  0  0  0  0  0  0  0
    0.7147   -2.4878   -1.1547 H   0  0  0  0  0  0  0  0  0  0  0  0
   -2.8960   -0.7342   -2.4960 H   0  0  0  0  0  0  0  0  0  0  0  0
   -1.1242   -4.2623   -1.0944 H   0  0  0  0  0  0  0  0  0  0  0  0
   -3.2480   -3.0999   -1.9205 H   0  0  0  0  0  0  0  0  0  0  0  0
    2.5987    1.7431   -0.2347 N   0  0  0  0  0  0  0  0  0  0  0  0
    3.6644    2.7193   -0.2451 C   0  0  2  0  0  0  0  0  0  0  0  0
    3.8962    3.1471   -1.6883 C   0  0  0  0  0  0  0  0  0  0  0  0
    3.5712    2.4577   -2.6527 O   0  0  0  0  0  0  0  0  0  0  0  0
    4.9376    2.1551    0.3658 C   0  0  0  0  0  0  0  0  0  0  0  0
    2.7482    0.8711    0.2643 H   0  0  0  0  0  0  0  0  0  0  0  0
    3.3132    3.5771    0.3388 H   0  0  0  0  0  0  0  0  0  0  0  0
    5.3045    1.2947   -0.2058 H   0  0  0  0  0  0  0  0  0  0  0  0
    5.7354    2.9048    0.3832 H   0  0  0  0  0  0  0  0  0  0  0  0
    4.7616    1.8205    1.3938 H   0  0  0  0  0  0  0  0  0  0  0  0
    4.5477    4.3697   -1.7720 N   0  0  0  0  0  0  0  0  0  0  0  0
    4.8925    4.9847   -3.0325 C   0  0  0  0  0  0  0  0  0  0  0  0
    4.7624    4.8808   -0.9208 H   0  0  0  0  0  0  0  0  0  0  0  0
    5.9133    4.6903   -3.3176 H   0  0  0  0  0  0  0  0  0  0  0  0
    4.1855    4.6536   -3.8074 H   0  0  0  0  0  0  0  0  0  0  0  0
    4.8410    6.0790   -2.9326 H   0  0  0  0  0  0  0  0  0  0  0  0
 22 24  2  0  0  0  0
 24 26  1  0  0  0  0
 25 26  1  0  0  0  0
 23 25  2  0  0  0  0
 21 22  1  0  0  0  0
 22 23  1  0  0  0  0
  1  3  1  0  0  0  0
  1  7  1  0  0  0  0
  1  2  2  0  0  0  0
 36 37  1  0  0  0  0
 37 45  1  0  0  0  0
 37 38  2  0  0  0  0
  8  9  1  0  0  0  0
  9 17  1  0  0  0  0
  9 10  2  0  0  0  0
 18 19  1  0  0  0  0
 19 35  1  0  0  0  0
 19 20  2  0  0  0  0
 36 39  1  0  0  0  0
  8 11  1  0  0  0  0
 45 46  1  0  0  0  0
 18 21  1  0  0  0  0
 35 36  1  0  0  0  0
  7  8  1  0  0  0  0
 17 18  1  0  0  0  0
 24 32  1  0  0  0  0
 25 33  1  0  0  0  0
  3  4  1  0  0  0  0
  3  5  1  0  0  0  0
  3  6  1  0  0  0  0
 39 42  1  0  0  0  0
 39 43  1  0  0  0  0
 39 44  1  0  0  0  0
 11 14  1  0  0  0  0
 11 15  1  0  0  0  0
 11 16  1  0  0  0  0
 46 48  1  0  0  0  0
 46 49  1  0  0  0  0
 46 50  1  0  0  0  0
 21 29  1  0  0  0  0
 21 30  1  0  0  0  0
 36 41  1  0  0  0  0
  8 13  1  0  0  0  0
 18 28  1  0  0  0  0
 26 34  1  0  0  0  0
 23 31  1  0  0  0  0
 45 47  1  0  0  0  0
  7 12  1  0  0  0  0
 35 40  1  0  0  0  0
 17 27  1  0  0  0  0
M  CHG  1  23   1
M  END
$$$$

  -OEChem-05262214473D

 50 50  0     1  0  0  0  0  0999 V2000
   -1.6938    0.4865    3.8080 C   0  0  0  0  0  0  0  0  0  0  0  0
   -0.7464   -0.1282    3.3323 O   0  0  0  0  0  0  0  0  0  0  0  0
   -2.1257    0.2041    5.2087 C   0  0  0  0  0  0  0  0  0  0  0  0
   -2.8853   -0.5922    5.2621 H   0  0  0  0  0  0  0  0  0  0  0  0
   -1.2944   -0.1435    5.8430 H   0  0  0  0  0  0  0  0  0  0  0  0
   -2.5637    1.0590    5.7483 H   0  0  0  0  0  0  0  0  0  0  0  0
   -2.4435    1.4589    3.1669 N   0  0  0  0  0  0  0  0  0  0  0  0
   -2.1966    1.8850    1.8145 C   0  0  2  0  0  0  0  0  0  0  0  0
   -0.8617    1.2996    1.3733 C   0  0  0  0  0  0  0  0  0  0  0  0
    0.0104    0.9468    2.1646 O   0  0  0  0  0  0  0  0  0  0  0  0
   -2.1879    3.4017    1.7050 C   0  0  0  0  0  0  0  0  0  0  0  0
   -3.2085    1.8948    3.6787 H   0  0  0  0  0  0  0  0  0  0  0  0
   -3.0007    1.4665    1.1994 H   0  0  0  0  0  0  0  0  0  0  0  0
   -1.3888    3.8390    2.3147 H   0  0  0  0  0  0  0  0  0  0  0  0
   -2.0284    3.7240    0.6708 H   0  0  0  0  0  0  0  0  0  0  0  0
   -3.1380    3.8230    2.0508 H   0  0  0  0  0  0  0  0  0  0  0  0
   -0.7390    1.2565   -0.0101 N   0  0  0  0  0  0  0  0  0  0  0  0
    0.4383    0.7557   -0.6738 C   0  0  2  0  0  0  0  0  0  0  0  0
    1.3811    1.9372   -0.8722 C   0  0  0  0  0  0  0  0  0  0  0  0
    0.9979    3.0436   -1.2462 O   0  0  0  0  0  0  0  0  0  0  0  0
    0.1099    0.1037   -2.0218 C   0  0  0  0  0  0  0  0  0  0  0  0
   -0.7549   -1.1250   -1.8805 C   0  0  0  0  0  0  0  0  0  0  0  0
   -0.2496   -2.3200   -1.4281 N   0  3  0  0  0  0  0  0  0  0  0  0
   -2.0813   -1.3305   -2.1362 C   0  0  0  0  0  0  0  0  0  0  0  0
   -1.2239   -3.2352   -1.4034 C   0  0  0  0  0  0  0  0  0  0  0  0
   -2.3439   -2.6446   -1.8327 N   0  0  0  0  0  0  0  0  0  0  0  0
   -1.5221    1.5532   -0.5874 H   0  0  0  0  0  0  0  0  0  0  0  0
    0.9023    0.0377    0.0127 H   0  0  0  0  0  0  0  0  0  0  0  0
    1.0349   -0.1549   -2.5547 H   0  0  0  0  0  0  0  0  0  0  0  0
   -0.4096    0.8163   -2.6761 H   0  0  0  0  0  0  0  0  0  0  0  0
    0.7147   -2.4878   -1.1547 H   0  0  0  0  0  0  0  0  0  0  0  0
   -2.8960   -0.7342   -2.4960 H   0  0  0  0  0  0  0  0  0  0  0  0
   -1.1242   -4.2623   -1.0944 H   0  0  0  0  0  0  0  0  0  0  0  0
   -3.2480   -3.0999   -1.9205 H   0  0  0  0  0  0  0  0  0  0  0  0
    2.6895    1.6204   -0.5340 N   0  0  0  0  0  0  0  0  0  0  0  0
    3.7795    2.5665   -0.6079 C   0  0  2  0  0  0  0  0  0  0  0  0
    3.7423    3.2204   -1.9828 C   0  0  0  0  0  0  0  0  0  0  0  0
    3.1989    2.7038   -2.9569 O   0  0  0  0  0  0  0  0  0  0  0  0
    5.1186    1.8879   -0.3647 C   0  0  0  0  0  0  0  0  0  0  0  0
    2.8910    0.6761   -0.2188 H   0  0  0  0  0  0  0  0  0  0  0  0
    3.5942    3.3233    0.1622 H   0  0  0  0  0  0  0  0  0  0  0  0
    5.3217    1.1264   -1.1265 H   0  0  0  0  0  0  0  0  0  0  0  0
    5.9406    2.6108   -0.3927 H   0  0  0  0  0  0  0  0  0  0  0  0
    5.1329    1.3929    0.6123 H   0  0  0  0  0  0  0  0  0  0  0  0
    4.4247    4.4287   -2.0047 N   0  0  0  0  0  0  0  0  0  0  0  0
    4.5437    5.2355   -3.1967 C   0  0  0  0  0  0  0  0  0  0  0  0
    4.8288    4.7900   -1.1456 H   0  0  0  0  0  0  0  0  0  0  0  0
    5.4718    4.9740   -3.7260 H   0  0  0  0  0  0  0  0  0  0  0  0
    3.6817    5.0478   -3.8538 H   0  0  0  0  0  0  0  0  0  0  0  0
    4.5678    6.2994   -2.9184 H   0  0  0  0  0  0  0  0  0  0  0  0
 22 24  2  0  0  0  0
 24 26  1  0  0  0  0
 25 26  1  0  0  0  0
 23 25  2  0  0  0  0
 21 22  1  0  0  0  0
 22 23  1  0  0  0  0
  1  3  1  0  0  0  0
  1  7  1  0  0  0  0
  1  2  2  0  0  0  0
 36 37  1  0  0  0  0
 37 45  1  0  0  0  0
 37 38  2  0  0  0  0
  8  9  1  0  0  0  0
  9 17  1  0  0  0  0
  9 10  2  0  0  0  0
 18 19  1  0  0  0  0
 19 35  1  0  0  0  0
 19 20  2  0  0  0  0
 36 39  1  0  0  0  0
  8 11  1  0  0  0  0
 45 46  1  0  0  0  0
 18 21  1  0  0  0  0
 35 36  1  0  0  0  0
  7  8  1  0  0  0  0
 17 18  1  0  0  0  0
 24 32  1  0  0  0  0
 25 33  1  0  0  0  0
  3  4  1  0  0  0  0
  3  5  1  0  0  0  0
  3  6  1  0  0  0  0
 39 42  1  0  0  0  0
 39 43  1  0  0  0  0
 39 44  1  0  0  0  0
 11 14  1  0  0  0  0
 11 15  1  0  0  0  0
 11 16  1  0  0  0  0
 46 48  1  0  0  0  0
 46 49  1  0  0  0  0
 46 50  1  0  0  0  0
 21 29  1  0  0  0  0
 21 30  1  0  0  0  0
 36 41  1  0  0  0  0
  8 13  1  0  0  0  0
 18 28  1  0  0  0  0
 26 34  1  0  0  0  0
 23 31  1  0  0  0  0
 45 47  1  0  0  0  0
  7 12  1  0  0  0  0
 35 40  1  0  0  0  0
 17 27  1  0  0  0  0
M  CHG  1  23   1
M  END
$$$$

  -OEChem-05262214473D

 50 50  0     1  0  0  0  0  0999 V2000
   -1.6938    0.4865    3.8080 C   0  0  0  0  0  0  0  0  0  0  0  0
   -0.7464   -0.1282    3.3323 O   0  0  0  0  0  0  0  0  0  0  0  0
   -2.1257    0.2041    5.2087 C   0  0  0  0  0  0  0  0  0  0  0  0
   -2.8853   -0.5922    5.2621 H   0  0  0  0  0  0  0  0  0  0  0  0
   -1.2944   -0.1435    5.8430 H   0  0  0  0  0  0  0  0  0  0  0  0
   -2.5637    1.0590    5.7483 H   0  0  0  0  0  0  0  0  0  0  0  0
   -2.4435    1.4589    3.1669 N   0  0  0  0  0  0  0  0  0  0  0  0
   -2.1966    1.8850    1.8145 C   0  0  2  0  0  0  0  0  0  0  0  0
   -0.8617    1.2996    1.3733 C   0  0  0  0  0  0  0  0  0  0  0  0
    0.0104    0.9468    2.1646 O   0  0  0  0  0  0  0  0  0  0  0  0
   -2.1879    3.4017    1.7050 C   0  0  0  0  0  0  0  0  0  0  0  0
   -3.2085    1.8948    3.6787 H   0  0  0  0  0  0  0  0  0  0  0  0
   -3.0007    1.4665    1.1994 H   0  0  0  0  0  0  0  0  0  0  0  0
   -1.3888    3.8390    2.3147 H   0  0  0  0  0  0  0  0  0  0  0  0
   -2.0284    3.7240    0.6708 H   0  0  0  0  0  0  0  0  0  0  0  0
   -3.1380    3.8230    2.0508 H   0  0  0  0  0  0  0  0  0  0  0  0
   -0.7390    1.2565   -0.0101 N   0  0  0  0  0  0  0  0  0  0  0  0
    0.4383    0.7557   -0.6738 C   0  0  2  0  0  0  0  0  0  0  0  0
    1.3811    1.9372   -0.8722 C   0  0  0  0  0  0  0  0  0  0  0  0
    0.9873    3.0963   -0.9824 O   0  0  0  0  0  0  0  0  0  0  0  0
    0.1099    0.1037   -2.0218 C   0  0  0  0  0  0  0  0  0  0  0  0
   -0.7549   -1.1250   -1.8805 C   0  0  0  0  0  0  0  0  0  0  0  0
   -0.2496   -2.3200   -1.4281 N   0  3  0  0  0  0  0  0  0  0  0  0
   -2.0813   -1.3305   -2.1362 C   0  0  0  0  0  0  0  0  0  0  0  0
   -1.2239   -3.2352   -1.4034 C   0  0  0  0  0  0  0  0  0  0  0  0
   -2.3439   -2.6446   -1.8327 N   0  0  0  0  0  0  0  0  0  0  0  0
   -1.5221    1.5532   -0.5874 H   0  0  0  0  0  0  0  0  0  0  0  0
    0.9023    0.0377    0.0127 H   0  0  0  0  0  0  0  0  0  0  0  0
    1.0349   -0.1549   -2.5547 H   0  0  0  0  0  0  0  0  0  0  0  0
   -0.4096    0.8163   -2.6761 H   0  0  0  0  0  0  0  0  0  0  0  0
    0.7147   -2.4878   -1.1547 H   0  0  0  0  0  0  0  0  0  0  0  0
   -2.8960   -0.7342   -2.4960 H   0  0  0  0  0  0  0  0  0  0  0  0
   -1.1242   -4.2623   -1.0944 H   0  0  0  0  0  0  0  0  0  0  0  0
   -3.2480   -3.0999   -1.9205 H   0  0  0  0  0  0  0  0  0  0  0  0
    2.7130    1.5467   -0.8610 N   0  0  0  0  0  0  0  0  0  0  0  0
    3.8128    2.4731   -1.0058 C   0  0  2  0  0  0  0  0  0  0  0  0
    3.5371    3.3436   -2.2247 C   0  0  0  0  0  0  0  0  0  0  0  0
    2.7865    3.0026   -3.1365 O   0  0  0  0  0  0  0  0  0  0  0  0
    5.1379    1.7408   -1.1493 C   0  0  0  0  0  0  0  0  0  0  0  0
    2.9254    0.5602   -0.7452 H   0  0  0  0  0  0  0  0  0  0  0  0
    3.8216    3.0968   -0.1053 H   0  0  0  0  0  0  0  0  0  0  0  0
    5.1479    1.1106   -2.0461 H   0  0  0  0  0  0  0  0  0  0  0  0
    5.9732    2.4441   -1.2303 H   0  0  0  0  0  0  0  0  0  0  0  0
    5.3204    1.0924   -0.2855 H   0  0  0  0  0  0  0  0  0  0  0  0
    4.2613    4.5272   -2.1953 N   0  0  0  0  0  0  0  0  0  0  0  0
    4.1822    5.5158   -3.2453 C   0  0  0  0  0  0  0  0  0  0  0  0
    4.8449    4.7360   -1.3907 H   0  0  0  0  0  0  0  0  0  0  0  0
    4.9731    5.3282   -3.9865 H   0  0  0  0  0  0  0  0  0  0  0  0
    3.1990    5.4531   -3.7345 H   0  0  0  0  0  0  0  0  0  0  0  0
    4.3141    6.5193   -2.8145 H   0  0  0  0  0  0  0  0  0  0  0  0
 22 24  2  0  0  0  0
 24 26  1  0  0  0  0
 25 26  1  0  0  0  0
 23 25  2  0  0  0  0
 21 22  1  0  0  0  0
 22 23  1  0  0  0  0
  1  3  1  0  0  0  0
  1  7  1  0  0  0  0
  1  2  2  0  0  0  0
 36 37  1  0  0  0  0
 37 45  1  0  0  0  0
 37 38  2  0  0  0  0
  8  9  1  0  0  0  0
  9 17  1  0  0  0  0
  9 10  2  0  0  0  0
 18 19  1  0  0  0  0
 19 35  1  0  0  0  0
 19 20  2  0  0  0  0
 36 39  1  0  0  0  0
  8 11  1  0  0  0  0
 45 46  1  0  0  0  0
 18 21  1  0  0  0  0
 35 36  1  0  0  0  0
  7  8  1  0  0  0  0
 17 18  1  0  0  0  0
 24 32  1  0  0  0  0
 25 33  1  0  0  0  0
  3  4  1  0  0  0  0
  3  5  1  0  0  0  0
  3  6  1  0  0  0  0
 39 42  1  0  0  0  0
 39 43  1  0  0  0  0
 39 44  1  0  0  0  0
 11 14  1  0  0  0  0
 11 15  1  0  0  0  0
 11 16  1  0  0  0  0
 46 48  1  0  0  0  0
 46 49  1  0  0  0  0
 46 50  1  0  0  0  0
 21 29  1  0  0  0  0
 21 30  1  0  0  0  0
 36 41  1  0  0  0  0
  8 13  1  0  0  0  0
 18 28  1  0  0  0  0
 26 34  1  0  0  0  0
 23 31  1  0  0  0  0
 45 47  1  0  0  0  0
  7 12  1  0  0  0  0
 35 40  1  0  0  0  0
 17 27  1  0  0  0  0
M  CHG  1  23   1
M  END
$$$$

  -OEChem-05262214473D

 50 50  0     1  0  0  0  0  0999 V2000
   -1.6938    0.4865    3.8080 C   0  0  0  0  0  0  0  0  0  0  0  0
   -0.7464   -0.1282    3.3323 O   0  0  0  0  0  0  0  0  0  0  0  0
   -2.1257    0.2041    5.2087 C   0  0  0  0  0  0  0  0  0  0  0  0
   -2.8853   -0.5922    5.2621 H   0  0  0  0  0  0  0  0  0  0  0  0
   -1.2944   -0.1435    5.8430 H   0  0  0  0  0  0  0  0  0  0  0  0
   -2.5637    1.0590    5.7483 H   0  0  0  0  0  0  0  0  0  0  0  0
   -2.4435    1.4589    3.1669 N   0  0  0  0  0  0  0  0  0  0  0  0
   -2.1966    1.8850    1.8145 C   0  0  2  0  0  0  0  0  0  0  0  0
   -0.8617    1.2996    1.3733 C   0  0  0  0  0  0  0  0  0  0  0  0
    0.0104    0.9468    2.1646 O   0  0  0  0  0  0  0  0  0  0  0  0
   -2.1879    3.4017    1.7050 C   0  0  0  0  0  0  0  0  0  0  0  0
   -3.2085    1.8948    3.6787 H   0  0  0  0  0  0  0  0  0  0  0  0
   -3.0007    1.4665    1.1994 H   0  0  0  0  0  0  0  0  0  0  0  0
   -1.3888    3.8390    2.3147 H   0  0  0  0  0  0  0  0  0  0  0  0
   -2.0284    3.7240    0.6708 H   0  0  0  0  0  0  0  0  0  0  0  0
   -3.1380    3.8230    2.0508 H   0  0  0  0  0  0  0  0  0  0  0  0
   -0.7390    1.2565   -0.0101 N   0  0  0  0  0  0  0  0  0  0  0  0
    0.4383    0.7557   -0.6738 C   0  0  2  0  0  0  0  0  0  0  0  0
    1.3811    1.9372   -0.8722 C   0  0  0  0  0  0  0  0  0  0  0  0
    1.0318    3.1054   -0.7171 O   0  0  0  0  0  0  0  0  0  0  0  0
    0.1099    0.1037   -2.0218 C   0  0  0  0  0  0  0  0  0  0  0  0
   -0.7549   -1.1250   -1.8805 C   0  0  0  0  0  0  0  0  0  0  0  0
   -0.2496   -2.3200   -1.4281 N   0  3  0  0  0  0  0  0  0  0  0  0
   -2.0813   -1.3305   -2.1362 C   0  0  0  0  0  0  0  0  0  0  0  0
   -1.2239   -3.2352   -1.4034 C   0  0  0  0  0  0  0  0  0  0  0  0
   -2.3439   -2.6446   -1.8327 N   0  0  0  0  0  0  0  0  0  0  0  0
   -1.5221    1.5532   -0.5874 H   0  0  0  0  0  0  0  0  0  0  0  0
    0.9023    0.0377    0.0127 H   0  0  0  0  0  0  0  0  0  0  0  0
    1.0349   -0.1549   -2.5547 H   0  0  0  0  0  0  0  0  0  0  0  0
   -0.4096    0.8163   -2.6761 H   0  0  0  0  0  0  0  0  0  0  0  0
    0.7147   -2.4878   -1.1547 H   0  0  0  0  0  0  0  0  0  0  0  0
   -2.8960   -0.7342   -2.4960 H   0  0  0  0  0  0  0  0  0  0  0  0
   -1.1242   -4.2623   -1.0944 H   0  0  0  0  0  0  0  0  0  0  0  0
   -3.2480   -3.0999   -1.9205 H   0  0  0  0  0  0  0  0  0  0  0  0
    2.6676    1.5271   -1.1933 N   0  0  0  0  0  0  0  0  0  0  0  0
    3.7620    2.4454   -1.4118 C   0  0  2  0  0  0  0  0  0  0  0  0
    3.2945    3.5081   -2.3975 C   0  0  0  0  0  0  0  0  0  0  0  0
    2.3623    3.3339   -3.1796 O   0  0  0  0  0  0  0  0  0  0  0  0
    4.9942    1.7235   -1.9346 C   0  0  0  0  0  0  0  0  0  0  0  0
    2.8492    0.5313   -1.2791 H   0  0  0  0  0  0  0  0  0  0  0  0
    3.9800    2.9133   -0.4456 H   0  0  0  0  0  0  0  0  0  0  0  0
    4.7951    1.2484   -2.9022 H   0  0  0  0  0  0  0  0  0  0  0  0
    5.8311    2.4161   -2.0726 H   0  0  0  0  0  0  0  0  0  0  0  0
    5.3113    0.9396   -1.2384 H   0  0  0  0  0  0  0  0  0  0  0  0
    4.0684    4.6583   -2.3310 N   0  0  0  0  0  0  0  0  0  0  0  0
    3.8328    5.8064   -3.1748 C   0  0  0  0  0  0  0  0  0  0  0  0
    4.8094    4.7226   -1.6392 H   0  0  0  0  0  0  0  0  0  0  0  0
    4.4510    5.7289   -4.0814 H   0  0  0  0  0  0  0  0  0  0  0  0
    2.7703    5.8416   -3.4576 H   0  0  0  0  0  0  0  0  0  0  0  0
    4.0973    6.7236   -2.6281 H   0  0  0  0  0  0  0  0  0  0  0  0
 22 24  2  0  0  0  0
 24 26  1  0  0  0  0
 25 26  1  0  0  0  0
 23 25  2  0  0  0  0
 21 22  1  0  0  0  0
 22 23  1  0  0  0  0
  1  3  1  0  0  0  0
  1  7  1  0  0  0  0
  1  2  2  0  0  0  0
 36 37  1  0  0  0  0
 37 45  1  0  0  0  0
 37 38  2  0  0  0  0
  8  9  1  0  0  0  0
  9 17  1  0  0  0  0
  9 10  2  0  0  0  0
 18 19  1  0  0  0  0
 19 35  1  0  0  0  0
 19 20  2  0  0  0  0
 36 39  1  0  0  0  0
  8 11  1  0  0  0  0
 45 46  1  0  0  0  0
 18 21  1  0  0  0  0
 35 36  1  0  0  0  0
  7  8  1  0  0  0  0
 17 18  1  0  0  0  0
 24 32  1  0  0  0  0
 25 33  1  0  0  0  0
  3  4  1  0  0  0  0
  3  5  1  0  0  0  0
  3  6  1  0  0  0  0
 39 42  1  0  0  0  0
 39 43  1  0  0  0  0
 39 44  1  0  0  0  0
 11 14  1  0  0  0  0
 11 15  1  0  0  0  0
 11 16  1  0  0  0  0
 46 48  1  0  0  0  0
 46 49  1  0  0  0  0
 46 50  1  0  0  0  0
 21 29  1  0  0  0  0
 21 30  1  0  0  0  0
 36 41  1  0  0  0  0
  8 13  1  0  0  0  0
 18 28  1  0  0  0  0
 26 34  1  0  0  0  0
 23 31  1  0  0  0  0
 45 47  1  0  0  0  0
  7 12  1  0  0  0  0
 35 40  1  0  0  0  0
 17 27  1  0  0  0  0
M  CHG  1  23   1
M  END
$$$$

  -OEChem-05262214473D

 50 50  0     1  0  0  0  0  0999 V2000
   -1.6938    0.4865    3.8080 C   0  0  0  0  0  0  0  0  0  0  0  0
   -0.7464   -0.1282    3.3323 O   0  0  0  0  0  0  0  0  0  0  0  0
   -2.1257    0.2041    5.2087 C   0  0  0  0  0  0  0  0  0  0  0  0
   -2.8853   -0.5922    5.2621 H   0  0  0  0  0  0  0  0  0  0  0  0
   -1.2944   -0.1435    5.8430 H   0  0  0  0  0  0  0  0  0  0  0  0
   -2.5637    1.0590    5.7483 H   0  0  0  0  0  0  0  0  0  0  0  0
   -2.4435    1.4589    3.1669 N   0  0  0  0  0  0  0  0  0  0  0  0
   -2.1966    1.8850    1.8145 C   0  0  2  0  0  0  0  0  0  0  0  0
   -0.8617    1.2996    1.3733 C   0  0  0  0  0  0  0  0  0  0  0  0
    0.0104    0.9468    2.1646 O   0  0  0  0  0  0  0  0  0  0  0  0
   -2.1879    3.4017    1.7050 C   0  0  0  0  0  0  0  0  0  0  0  0
   -3.2085    1.8948    3.6787 H   0  0  0  0  0  0  0  0  0  0  0  0
   -3.0007    1.4665    1.1994 H   0  0  0  0  0  0  0  0  0  0  0  0
   -1.3888    3.8390    2.3147 H   0  0  0  0  0  0  0  0  0  0  0  0
   -2.0284    3.7240    0.6708 H   0  0  0  0  0  0  0  0  0  0  0  0
   -3.1380    3.8230    2.0508 H   0  0  0  0  0  0  0  0  0  0  0  0
   -0.7390    1.2565   -0.0101 N   0  0  0  0  0  0  0  0  0  0  0  0
    0.4383    0.7557   -0.6738 C   0  0  2  0  0  0  0  0  0  0  0  0
    1.5202    1.8212   -0.5379 C   0  0  0  0  0  0  0  0  0  0  0  0
    1.3527    2.8697    0.0813 O   0  0  0  0  0  0  0  0  0  0  0  0
    0.1807    0.4432   -2.1523 C   0  0  0  0  0  0  0  0  0  0  0  0
   -0.8234   -0.6664   -2.3480 C   0  0  0  0  0  0  0  0  0  0  0  0
   -0.5011   -1.9839   -2.1279 N   0  3  0  0  0  0  0  0  0  0  0  0
   -2.1309   -0.6421   -2.7437 C   0  0  0  0  0  0  0  0  0  0  0  0
   -1.5671   -2.7512   -2.3775 C   0  0  0  0  0  0  0  0  0  0  0  0
   -2.5656   -1.9456   -2.7535 N   0  0  0  0  0  0  0  0  0  0  0  0
   -1.5221    1.5532   -0.5874 H   0  0  0  0  0  0  0  0  0  0  0  0
    0.7479   -0.1420   -0.1257 H   0  0  0  0  0  0  0  0  0  0  0  0
    1.1217    0.1829   -2.6557 H   0  0  0  0  0  0  0  0  0  0  0  0
   -0.1876    1.3362   -2.6745 H   0  0  0  0  0  0  0  0  0  0  0  0
    0.4058   -2.3272   -1.8238 H   0  0  0  0  0  0  0  0  0  0  0  0
   -2.8342    0.1154   -3.0273 H   0  0  0  0  0  0  0  0  0  0  0  0
   -1.6128   -3.8240   -2.2918 H   0  0  0  0  0  0  0  0  0  0  0  0
   -3.5003   -2.2526   -3.0075 H   0  0  0  0  0  0  0  0  0  0  0  0
    2.7067    1.4376   -1.1476 N   0  0  0  0  0  0  0  0  0  0  0  0
    3.8993    2.2539   -1.1467 C   0  0  2  0  0  0  0  0  0  0  0  0
    3.5110    3.6545   -1.6016 C   0  0  0  0  0  0  0  0  0  0  0  0
    2.5051    3.8885   -2.2682 O   0  0  0  0  0  0  0  0  0  0  0  0
    4.9722    1.6668   -2.0506 C   0  0  0  0  0  0  0  0  0  0  0  0
    2.7383    0.5379   -1.6180 H   0  0  0  0  0  0  0  0  0  0  0  0
    4.2563    2.2912   -0.1117 H   0  0  0  0  0  0  0  0  0  0  0  0
    4.6327    1.6214   -3.0918 H   0  0  0  0  0  0  0  0  0  0  0  0
    5.8853    2.2709   -2.0267 H   0  0  0  0  0  0  0  0  0  0  0  0
    5.2290    0.6483   -1.7400 H   0  0  0  0  0  0  0  0  0  0  0  0
    4.4425    4.6067   -1.2122 N   0  0  0  0  0  0  0  0  0  0  0  0
    4.3062    6.0081   -1.5340 C   0  0  0  0  0  0  0  0  0  0  0  0
    5.2371    4.3258   -0.6452 H   0  0  0  0  0  0  0  0  0  0  0  0
    4.8342    6.2217   -2.4751 H   0  0  0  0  0  0  0  0  0  0  0  0
    3.2405    6.2561   -1.6472 H   0  0  0  0  0  0  0  0  0  0  0  0
    4.7397    6.6139   -0.7247 H   0  0  0  0  0  0  0  0  0  0  0  0
 22 24  2  0  0  0  0
 24 26  1  0  0  0  0
 25 26  1  0  0  0  0
 23 25  2  0  0  0  0
 21 22  1  0  0  0  0
 22 23  1  0  0  0  0
  1  3  1  0  0  0  0
  1  7  1  0  0  0  0
  1  2  2  0  0  0  0
 36 37  1  0  0  0  0
 37 45  1  0  0  0  0
 37 38  2  0  0  0  0
  8  9  1  0  0  0  0
  9 17  1  0  0  0  0
  9 10  2  0  0  0  0
 18 19  1  0  0  0  0
 19 35  1  0  0  0  0
 19 20  2  0  0  0  0
 36 39  1  0  0  0  0
  8 11  1  0  0  0  0
 45 46  1  0  0  0  0
 18 21  1  0  0  0  0
 35 36  1  0  0  0  0
  7  8  1  0  0  0  0
 17 18  1  0  0  0  0
 24 32  1  0  0  0  0
 25 33  1  0  0  0  0
  3  4  1  0  0  0  0
  3  5  1  0  0  0  0
  3  6  1  0  0  0  0
 39 42  1  0  0  0  0
 39 43  1  0  0  0  0
 39 44  1  0  0  0  0
 11 14  1  0  0  0  0
 11 15  1  0  0  0  0
 11 16  1  0  0  0  0
 46 48  1  0  0  0  0
 46 49  1  0  0  0  0
 46 50  1  0  0  0  0
 21 29  1  0  0  0  0
 21 30  1  0  0  0  0
 36 41  1  0  0  0  0
  8 13  1  0  0  0  0
 18 28  1  0  0  0  0
 26 34  1  0  0  0  0
 23 31  1  0  0  0  0
 45 47  1  0  0  0  0
  7 12  1  0  0  0  0
 35 40  1  0  0  0  0
 17 27  1  0  0  0  0
M  CHG  1  23   1
M  END
$$$$

  -OEChem-05262214473D

 50 50  0     1  0  0  0  0  0999 V2000
   -1.6938    0.4865    3.8080 C   0  0  0  0  0  0  0  0  0  0  0  0
   -0.7464   -0.1282    3.3323 O   0  0  0  0  0  0  0  0  0  0  0  0
   -2.1257    0.2041    5.2087 C   0  0  0  0  0  0  0  0  0  0  0  0
   -2.8853   -0.5922    5.2621 H   0  0  0  0  0  0  0  0  0  0  0  0
   -1.2944   -0.1435    5.8430 H   0  0  0  0  0  0  0  0  0  0  0  0
   -2.5637    1.0590    5.7483 H   0  0  0  0  0  0  0  0  0  0  0  0
   -2.4435    1.4589    3.1669 N   0  0  0  0  0  0  0  0  0  0  0  0
   -2.1966    1.8850    1.8145 C   0  0  2  0  0  0  0  0  0  0  0  0
   -0.8617    1.2996    1.3733 C   0  0  0  0  0  0  0  0  0  0  0  0
    0.0104    0.9468    2.1646 O   0  0  0  0  0  0  0  0  0  0  0  0
   -2.1879    3.4017    1.7050 C   0  0  0  0  0  0  0  0  0  0  0  0
   -3.2085    1.8948    3.6787 H   0  0  0  0  0  0  0  0  0  0  0  0
   -3.0007    1.4665    1.1994 H   0  0  0  0  0  0  0  0  0  0  0  0
   -1.3888    3.8390    2.3147 H   0  0  0  0  0  0  0  0  0  0  0  0
   -2.0284    3.7240    0.6708 H   0  0  0  0  0  0  0  0  0  0  0  0
   -3.1380    3.8230    2.0508 H   0  0  0  0  0  0  0  0  0  0  0  0
   -0.7390    1.2565   -0.0101 N   0  0  0  0  0  0  0  0  0  0  0  0
    0.4383    0.7557   -0.6738 C   0  0  2  0  0  0  0  0  0  0  0  0
    1.5202    1.8212   -0.5379 C   0  0  0  0  0  0  0  0  0  0  0  0
    1.4625    2.7323    0.2851 O   0  0  0  0  0  0  0  0  0  0  0  0
    0.1807    0.4432   -2.1523 C   0  0  0  0  0  0  0  0  0  0  0  0
   -0.8234   -0.6664   -2.3480 C   0  0  0  0  0  0  0  0  0  0  0  0
   -0.5011   -1.9839   -2.1279 N   0  3  0  0  0  0  0  0  0  0  0  0
   -2.1309   -0.6421   -2.7437 C   0  0  0  0  0  0  0  0  0  0  0  0
   -1.5671   -2.7512   -2.3775 C   0  0  0  0  0  0  0  0  0  0  0  0
   -2.5656   -1.9456   -2.7535 N   0  0  0  0  0  0  0  0  0  0  0  0
   -1.5221    1.5532   -0.5874 H   0  0  0  0  0  0  0  0  0  0  0  0
    0.7479   -0.1420   -0.1257 H   0  0  0  0  0  0  0  0  0  0  0  0
    1.1217    0.1829   -2.6557 H   0  0  0  0  0  0  0  0  0  0  0  0
   -0.1876    1.3362   -2.6745 H   0  0  0  0  0  0  0  0  0  0  0  0
    0.4058   -2.3272   -1.8238 H   0  0  0  0  0  0  0  0  0  0  0  0
   -2.8342    0.1154   -3.0273 H   0  0  0  0  0  0  0  0  0  0  0  0
   -1.6128   -3.8240   -2.2918 H   0  0  0  0  0  0  0  0  0  0  0  0
   -3.5003   -2.2526   -3.0075 H   0  0  0  0  0  0  0  0  0  0  0  0
    2.5774    1.6024   -1.4103 N   0  0  0  0  0  0  0  0  0  0  0  0
    3.7450    2.4519   -1.4710 C   0  0  2  0  0  0  0  0  0  0  0  0
    3.2713    3.8952   -1.5808 C   0  0  0  0  0  0  0  0  0  0  0  0
    2.1590    4.2059   -2.0017 O   0  0  0  0  0  0  0  0  0  0  0  0
    4.6379    2.0821   -2.6451 C   0  0  0  0  0  0  0  0  0  0  0  0
    2.5279    0.8050   -2.0376 H   0  0  0  0  0  0  0  0  0  0  0  0
    4.2851    2.3149   -0.5279 H   0  0  0  0  0  0  0  0  0  0  0  0
    4.1139    2.2129   -3.5989 H   0  0  0  0  0  0  0  0  0  0  0  0
    5.5362    2.7077   -2.6730 H   0  0  0  0  0  0  0  0  0  0  0  0
    4.9535    1.0352   -2.5802 H   0  0  0  0  0  0  0  0  0  0  0  0
    4.2525    4.7973   -1.1941 N   0  0  0  0  0  0  0  0  0  0  0  0
    4.0509    6.2273   -1.2204 C   0  0  0  0  0  0  0  0  0  0  0  0
    5.1392    4.4501   -0.8405 H   0  0  0  0  0  0  0  0  0  0  0  0
    4.3965    6.6291   -2.1843 H   0  0  0  0  0  0  0  0  0  0  0  0
    2.9810    6.4490   -1.0932 H   0  0  0  0  0  0  0  0  0  0  0  0
    4.6216    6.6929   -0.4034 H   0  0  0  0  0  0  0  0  0  0  0  0
 22 24  2  0  0  0  0
 24 26  1  0  0  0  0
 25 26  1  0  0  0  0
 23 25  2  0  0  0  0
 21 22  1  0  0  0  0
 22 23  1  0  0  0  0
  1  3  1  0  0  0  0
  1  7  1  0  0  0  0
  1  2  2  0  0  0  0
 36 37  1  0  0  0  0
 37 45  1  0  0  0  0
 37 38  2  0  0  0  0
  8  9  1  0  0  0  0
  9 17  1  0  0  0  0
  9 10  2  0  0  0  0
 18 19  1  0  0  0  0
 19 35  1  0  0  0  0
 19 20  2  0  0  0  0
 36 39  1  0  0  0  0
  8 11  1  0  0  0  0
 45 46  1  0  0  0  0
 18 21  1  0  0  0  0
 35 36  1  0  0  0  0
  7  8  1  0  0  0  0
 17 18  1  0  0  0  0
 24 32  1  0  0  0  0
 25 33  1  0  0  0  0
  3  4  1  0  0  0  0
  3  5  1  0  0  0  0
  3  6  1  0  0  0  0
 39 42  1  0  0  0  0
 39 43  1  0  0  0  0
 39 44  1  0  0  0  0
 11 14  1  0  0  0  0
 11 15  1  0  0  0  0
 11 16  1  0  0  0  0
 46 48  1  0  0  0  0
 46 49  1  0  0  0  0
 46 50  1  0  0  0  0
 21 29  1  0  0  0  0
 21 30  1  0  0  0  0
 36 41  1  0  0  0  0
  8 13  1  0  0  0  0
 18 28  1  0  0  0  0
 26 34  1  0  0  0  0
 23 31  1  0  0  0  0
 45 47  1  0  0  0  0
  7 12  1  0  0  0  0
 35 40  1  0  0  0  0
 17 27  1  0  0  0  0
M  CHG  1  23   1
M  END
$$$$

  -OEChem-05262214473D

 50 50  0     1  0  0  0  0  0999 V2000
   -1.6938    0.4865    3.8080 C   0  0  0  0  0  0  0  0  0  0  0  0
   -0.7464   -0.1282    3.3323 O   0  0  0  0  0  0  0  0  0  0  0  0
   -2.1257    0.2041    5.2087 C   0  0  0  0  0  0  0  0  0  0  0  0
   -2.8853   -0.5922    5.2621 H   0  0  0  0  0  0  0  0  0  0  0  0
   -1.2944   -0.1435    5.8430 H   0  0  0  0  0  0  0  0  0  0  0  0
   -2.5637    1.0590    5.7483 H   0  0  0  0  0  0  0  0  0  0  0  0
   -2.4435    1.4589    3.1669 N   0  0  0  0  0  0  0  0  0  0  0  0
   -2.1966    1.8850    1.8145 C   0  0  2  0  0  0  0  0  0  0  0  0
   -0.8617    1.2996    1.3733 C   0  0  0  0  0  0  0  0  0  0  0  0
    0.0104    0.9468    2.1646 O   0  0  0  0  0  0  0  0  0  0  0  0
   -2.1879    3.4017    1.7050 C   0  0  0  0  0  0  0  0  0  0  0  0
   -3.2085    1.8948    3.6787 H   0  0  0  0  0  0  0  0  0  0  0  0
   -3.0007    1.4665    1.1994 H   0  0  0  0  0  0  0  0  0  0  0  0
   -1.3888    3.8390    2.3147 H   0  0  0  0  0  0  0  0  0  0  0  0
   -2.0284    3.7240    0.6708 H   0  0  0  0  0  0  0  0  0  0  0  0
   -3.1380    3.8230    2.0508 H   0  0  0  0  0  0  0  0  0  0  0  0
   -0.7390    1.2565   -0.0101 N   0  0  0  0  0  0  0  0  0  0  0  0
    0.4383    0.7557   -0.6738 C   0  0  2  0  0  0  0  0  0  0  0  0
    1.5202    1.8212   -0.5379 C   0  0  0  0  0  0  0  0  0  0  0  0
    1.6085    2.5647    0.4369 O   0  0  0  0  0  0  0  0  0  0  0  0
    0.1807    0.4432   -2.1523 C   0  0  0  0  0  0  0  0  0  0  0  0
   -0.8234   -0.6664   -2.3480 C   0  0  0  0  0  0  0  0  0  0  0  0
   -0.5011   -1.9839   -2.1279 N   0  3  0  0  0  0  0  0  0  0  0  0
   -2.1309   -0.6421   -2.7437 C   0  0  0  0  0  0  0  0  0  0  0  0
   -1.5671   -2.7512   -2.3775 C   0  0  0  0  0  0  0  0  0  0  0  0
   -2.5656   -1.9456   -2.7535 N   0  0  0  0  0  0  0  0  0  0  0  0
   -1.5221    1.5532   -0.5874 H   0  0  0  0  0  0  0  0  0  0  0  0
    0.7479   -0.1420   -0.1257 H   0  0  0  0  0  0  0  0  0  0  0  0
    1.1217    0.1829   -2.6557 H   0  0  0  0  0  0  0  0  0  0  0  0
   -0.1876    1.3362   -2.6745 H   0  0  0  0  0  0  0  0  0  0  0  0
    0.4058   -2.3272   -1.8238 H   0  0  0  0  0  0  0  0  0  0  0  0
   -2.8342    0.1154   -3.0273 H   0  0  0  0  0  0  0  0  0  0  0  0
   -1.6128   -3.8240   -2.2918 H   0  0  0  0  0  0  0  0  0  0  0  0
   -3.5003   -2.2526   -3.0075 H   0  0  0  0  0  0  0  0  0  0  0  0
    2.4011    1.8068   -1.6104 N   0  0  0  0  0  0  0  0  0  0  0  0
    3.5327    2.6992   -1.7199 C   0  0  2  0  0  0  0  0  0  0  0  0
    3.0381    4.1183   -1.4732 C   0  0  0  0  0  0  0  0  0  0  0  0
    1.8655    4.4556   -1.6233 O   0  0  0  0  0  0  0  0  0  0  0  0
    4.1979    2.5847   -3.0827 C   0  0  0  0  0  0  0  0  0  0  0  0
    2.2426    1.1353   -2.3558 H   0  0  0  0  0  0  0  0  0  0  0  0
    4.2372    2.4150   -0.9306 H   0  0  0  0  0  0  0  0  0  0  0  0
    3.5073    2.8655   -3.8862 H   0  0  0  0  0  0  0  0  0  0  0  0
    5.0720    3.2404   -3.1539 H   0  0  0  0  0  0  0  0  0  0  0  0
    4.5264    1.5568   -3.2708 H   0  0  0  0  0  0  0  0  0  0  0  0
    4.0679    4.9738   -1.1074 N   0  0  0  0  0  0  0  0  0  0  0  0
    3.8561    6.3755   -0.8310 C   0  0  0  0  0  0  0  0  0  0  0  0
    5.0064    4.6038   -0.9887 H   0  0  0  0  0  0  0  0  0  0  0  0
    4.0169    6.9592   -1.7494 H   0  0  0  0  0  0  0  0  0  0  0  0
    2.8262    6.5275   -0.4757 H   0  0  0  0  0  0  0  0  0  0  0  0
    4.5637    6.7075   -0.0571 H   0  0  0  0  0  0  0  0  0  0  0  0
 22 24  2  0  0  0  0
 24 26  1  0  0  0  0
 25 26  1  0  0  0  0
 23 25  2  0  0  0  0
 21 22  1  0  0  0  0
 22 23  1  0  0  0  0
  1  3  1  0  0  0  0
  1  7  1  0  0  0  0
  1  2  2  0  0  0  0
 36 37  1  0  0  0  0
 37 45  1  0  0  0  0
 37 38  2  0  0  0  0
  8  9  1  0  0  0  0
  9 17  1  0  0  0  0
  9 10  2  0  0  0  0
 18 19  1  0  0  0  0
 19 35  1  0  0  0  0
 19 20  2  0  0  0  0
 36 39  1  0  0  0  0
  8 11  1  0  0  0  0
 45 46  1  0  0  0  0
 18 21  1  0  0  0  0
 35 36  1  0  0  0  0
  7  8  1  0  0  0  0
 17 18  1  0  0  0  0
 24 32  1  0  0  0  0
 25 33  1  0  0  0  0
  3  4  1  0  0  0  0
  3  5  1  0  0  0  0
  3  6  1  0  0  0  0
 39 42  1  0  0  0  0
 39 43  1  0  0  0  0
 39 44  1  0  0  0  0
 11 14  1  0  0  0  0
 11 15  1  0  0  0  0
 11 16  1  0  0  0  0
 46 48  1  0  0  0  0
 46 49  1  0  0  0  0
 46 50  1  0  0  0  0
 21 29  1  0  0  0  0
 21 30  1  0  0  0  0
 36 41  1  0  0  0  0
  8 13  1  0  0  0  0
 18 28  1  0  0  0  0
 26 34  1  0  0  0  0
 23 31  1  0  0  0  0
 45 47  1  0  0  0  0
  7 12  1  0  0  0  0
 35 40  1  0  0  0  0
 17 27  1  0  0  0  0
M  CHG  1  23   1
M  END
$$$$

  -OEChem-05262214473D

 50 50  0     1  0  0  0  0  0999 V2000
   -1.6938    0.4865    3.8080 C   0  0  0  0  0  0  0  0  0  0  0  0
   -0.7464   -0.1282    3.3323 O   0  0  0  0  0  0  0  0  0  0  0  0
   -2.1257    0.2041    5.2087 C   0  0  0  0  0  0  0  0  0  0  0  0
   -2.8853   -0.5922    5.2621 H   0  0  0  0  0  0  0  0  0  0  0  0
   -1.2944   -0.1435    5.8430 H   0  0  0  0  0  0  0  0  0  0  0  0
   -2.5637    1.0590    5.7483 H   0  0  0  0  0  0  0  0  0  0  0  0
   -2.4435    1.4589    3.1669 N   0  0  0  0  0  0  0  0  0  0  0  0
   -2.1966    1.8850    1.8145 C   0  0  2  0  0  0  0  0  0  0  0  0
   -0.8617    1.2996    1.3733 C   0  0  0  0  0  0  0  0  0  0  0  0
    0.0104    0.9468    2.1646 O   0  0  0  0  0  0  0  0  0  0  0  0
   -2.1879    3.4017    1.7050 C   0  0  0  0  0  0  0  0  0  0  0  0
   -3.2085    1.8948    3.6787 H   0  0  0  0  0  0  0  0  0  0  0  0
   -3.0007    1.4665    1.1994 H   0  0  0  0  0  0  0  0  0  0  0  0
   -1.3888    3.8390    2.3147 H   0  0  0  0  0  0  0  0  0  0  0  0
   -2.0284    3.7240    0.6708 H   0  0  0  0  0  0  0  0  0  0  0  0
   -3.1380    3.8230    2.0508 H   0  0  0  0  0  0  0  0  0  0  0  0
   -0.7390    1.2565   -0.0101 N   0  0  0  0  0  0  0  0  0  0  0  0
    0.4383    0.7557   -0.6738 C   0  0  2  0  0  0  0  0  0  0  0  0
    1.5202    1.8212   -0.5379 C   0  0  0  0  0  0  0  0  0  0  0  0
    1.7809    2.3782    0.5263 O   0  0  0  0  0  0  0  0  0  0  0  0
    0.1807    0.4432   -2.1523 C   0  0  0  0  0  0  0  0  0  0  0  0
   -0.8234   -0.6664   -2.3480 C   0  0  0  0  0  0  0  0  0  0  0  0
   -0.5011   -1.9839   -2.1279 N   0  3  0  0  0  0  0  0  0  0  0  0
   -2.1309   -0.6421   -2.7437 C   0  0  0  0  0  0  0  0  0  0  0  0
   -1.5671   -2.7512   -2.3775 C   0  0  0  0  0  0  0  0  0  0  0  0
   -2.5656   -1.9456   -2.7535 N   0  0  0  0  0  0  0  0  0  0  0  0
   -1.5221    1.5532   -0.5874 H   0  0  0  0  0  0  0  0  0  0  0  0
    0.7479   -0.1420   -0.1257 H   0  0  0  0  0  0  0  0  0  0  0  0
    1.1217    0.1829   -2.6557 H   0  0  0  0  0  0  0  0  0  0  0  0
   -0.1876    1.3362   -2.6745 H   0  0  0  0  0  0  0  0  0  0  0  0
    0.4058   -2.3272   -1.8238 H   0  0  0  0  0  0  0  0  0  0  0  0
   -2.8342    0.1154   -3.0273 H   0  0  0  0  0  0  0  0  0  0  0  0
   -1.6128   -3.8240   -2.2918 H   0  0  0  0  0  0  0  0  0  0  0  0
   -3.5003   -2.2526   -3.0075 H   0  0  0  0  0  0  0  0  0  0  0  0
    2.1900    2.0370   -1.7343 N   0  0  0  0  0  0  0  0  0  0  0  0
    3.2769    2.9789   -1.8765 C   0  0  2  0  0  0  0  0  0  0  0  0
    2.8270    4.3087   -1.2861 C   0  0  0  0  0  0  0  0  0  0  0  0
    1.6448    4.6205   -1.1589 O   0  0  0  0  0  0  0  0  0  0  0  0
    3.6821    3.1403   -3.3334 C   0  0  0  0  0  0  0  0  0  0  0  0
    1.9018    1.5061   -2.5509 H   0  0  0  0  0  0  0  0  0  0  0  0
    4.1157    2.5845   -1.2927 H   0  0  0  0  0  0  0  0  0  0  0  0
    2.8544    3.5345   -3.9342 H   0  0  0  0  0  0  0  0  0  0  0  0
    4.5243    3.8325   -3.4366 H   0  0  0  0  0  0  0  0  0  0  0  0
    3.9770    2.1777   -3.7649 H   0  0  0  0  0  0  0  0  0  0  0  0
    3.9012    5.1240   -0.9577 N   0  0  0  0  0  0  0  0  0  0  0  0
    3.7349    6.4426   -0.3925 C   0  0  0  0  0  0  0  0  0  0  0  0
    4.8478    4.7765   -1.0795 H   0  0  0  0  0  0  0  0  0  0  0  0
    3.7213    7.1893   -1.2001 H   0  0  0  0  0  0  0  0  0  0  0  0
    2.7865    6.4863    0.1632 H   0  0  0  0  0  0  0  0  0  0  0  0
    4.5702    6.6566    0.2905 H   0  0  0  0  0  0  0  0  0  0  0  0
 22 24  2  0  0  0  0
 24 26  1  0  0  0  0
 25 26  1  0  0  0  0
 23 25  2  0  0  0  0
 21 22  1  0  0  0  0
 22 23  1  0  0  0  0
  1  3  1  0  0  0  0
  1  7  1  0  0  0  0
  1  2  2  0  0  0  0
 36 37  1  0  0  0  0
 37 45  1  0  0  0  0
 37 38  2  0  0  0  0
  8  9  1  0  0  0  0
  9 17  1  0  0  0  0
  9 10  2  0  0  0  0
 18 19  1  0  0  0  0
 19 35  1  0  0  0  0
 19 20  2  0  0  0  0
 36 39  1  0  0  0  0
  8 11  1  0  0  0  0
 45 46  1  0  0  0  0
 18 21  1  0  0  0  0
 35 36  1  0  0  0  0
  7  8  1  0  0  0  0
 17 18  1  0  0  0  0
 24 32  1  0  0  0  0
 25 33  1  0  0  0  0
  3  4  1  0  0  0  0
  3  5  1  0  0  0  0
  3  6  1  0  0  0  0
 39 42  1  0  0  0  0
 39 43  1  0  0  0  0
 39 44  1  0  0  0  0
 11 14  1  0  0  0  0
 11 15  1  0  0  0  0
 11 16  1  0  0  0  0
 46 48  1  0  0  0  0
 46 49  1  0  0  0  0
 46 50  1  0  0  0  0
 21 29  1  0  0  0  0
 21 30  1  0  0  0  0
 36 41  1  0  0  0  0
  8 13  1  0  0  0  0
 18 28  1  0  0  0  0
 26 34  1  0  0  0  0
 23 31  1  0  0  0  0
 45 47  1  0  0  0  0
  7 12  1  0  0  0  0
 35 40  1  0  0  0  0
 17 27  1  0  0  0  0
M  CHG  1  23   1
M  END
$$$$

  -OEChem-05262214473D

 50 50  0     1  0  0  0  0  0999 V2000
   -1.6938    0.4865    3.8080 C   0  0  0  0  0  0  0  0  0  0  0  0
   -0.7464   -0.1282    3.3323 O   0  0  0  0  0  0  0  0  0  0  0  0
   -2.1257    0.2041    5.2087 C   0  0  0  0  0  0  0  0  0  0  0  0
   -2.8853   -0.5922    5.2621 H   0  0  0  0  0  0  0  0  0  0  0  0
   -1.2944   -0.1435    5.8430 H   0  0  0  0  0  0  0  0  0  0  0  0
   -2.5637    1.0590    5.7483 H   0  0  0  0  0  0  0  0  0  0  0  0
   -2.4435    1.4589    3.1669 N   0  0  0  0  0  0  0  0  0  0  0  0
   -2.1966    1.8850    1.8145 C   0  0  2  0  0  0  0  0  0  0  0  0
   -0.8617    1.2996    1.3733 C   0  0  0  0  0  0  0  0  0  0  0  0
    0.0104    0.9468    2.1646 O   0  0  0  0  0  0  0  0  0  0  0  0
   -2.1879    3.4017    1.7050 C   0  0  0  0  0  0  0  0  0  0  0  0
   -3.2085    1.8948    3.6787 H   0  0  0  0  0  0  0  0  0  0  0  0
   -3.0007    1.4665    1.1994 H   0  0  0  0  0  0  0  0  0  0  0  0
   -1.3888    3.8390    2.3147 H   0  0  0  0  0  0  0  0  0  0  0  0
   -2.0284    3.7240    0.6708 H   0  0  0  0  0  0  0  0  0  0  0  0
   -3.1380    3.8230    2.0508 H   0  0  0  0  0  0  0  0  0  0  0  0
   -0.7390    1.2565   -0.0101 N   0  0  0  0  0  0  0  0  0  0  0  0
    0.4383    0.7557   -0.6738 C   0  0  2  0  0  0  0  0  0  0  0  0
    1.5202    1.8212   -0.5379 C   0  0  0  0  0  0  0  0  0  0  0  0
    1.9678    2.1857    0.5472 O   0  0  0  0  0  0  0  0  0  0  0  0
    0.1807    0.4432   -2.1523 C   0  0  0  0  0  0  0  0  0  0  0  0
   -0.8234   -0.6664   -2.3480 C   0  0  0  0  0  0  0  0  0  0  0  0
   -0.5011   -1.9839   -2.1279 N   0  3  0  0  0  0  0  0  0  0  0  0
   -2.1309   -0.6421   -2.7437 C   0  0  0  0  0  0  0  0  0  0  0  0
   -1.5671   -2.7512   -2.3775 C   0  0  0  0  0  0  0  0  0  0  0  0
   -2.5656   -1.9456   -2.7535 N   0  0  0  0  0  0  0  0  0  0  0  0
   -1.5221    1.5532   -0.5874 H   0  0  0  0  0  0  0  0  0  0  0  0
    0.7479   -0.1420   -0.1257 H   0  0  0  0  0  0  0  0  0  0  0  0
    1.1217    0.1829   -2.6557 H   0  0  0  0  0  0  0  0  0  0  0  0
   -0.1876    1.3362   -2.6745 H   0  0  0  0  0  0  0  0  0  0  0  0
    0.4058   -2.3272   -1.8238 H   0  0  0  0  0  0  0  0  0  0  0  0
   -2.8342    0.1154   -3.0273 H   0  0  0  0  0  0  0  0  0  0  0  0
   -1.6128   -3.8240   -2.2918 H   0  0  0  0  0  0  0  0  0  0  0  0
   -3.5003   -2.2526   -3.0075 H   0  0  0  0  0  0  0  0  0  0  0  0
    1.9584    2.2772   -1.7735 N   0  0  0  0  0  0  0  0  0  0  0  0
    2.9951    3.2719   -1.9302 C   0  0  2  0  0  0  0  0  0  0  0  0
    2.6527    4.4534   -1.0322 C   0  0  0  0  0  0  0  0  0  0  0  0
    1.5118    4.6895   -0.6400 O   0  0  0  0  0  0  0  0  0  0  0  0
    3.1257    3.7113   -3.3802 C   0  0  0  0  0  0  0  0  0  0  0  0
    1.5289    1.8923   -2.6096 H   0  0  0  0  0  0  0  0  0  0  0  0
    3.9289    2.8119   -1.5892 H   0  0  0  0  0  0  0  0  0  0  0  0
    2.1996    4.1746   -3.7395 H   0  0  0  0  0  0  0  0  0  0  0  0
    3.9306    4.4437   -3.5019 H   0  0  0  0  0  0  0  0  0  0  0  0
    3.3426    2.8555   -4.0287 H   0  0  0  0  0  0  0  0  0  0  0  0
    3.7637    5.2378   -0.7555 N   0  0  0  0  0  0  0  0  0  0  0  0
    3.6956    6.4242    0.0654 C   0  0  0  0  0  0  0  0  0  0  0  0
    4.6742    4.9562   -1.1069 H   0  0  0  0  0  0  0  0  0  0  0  0
    3.5298    7.3039   -0.5738 H   0  0  0  0  0  0  0  0  0  0  0  0
    2.8647    6.3283    0.7799 H   0  0  0  0  0  0  0  0  0  0  0  0
    4.6405    6.5438    0.6158 H   0  0  0  0  0  0  0  0  0  0  0  0
 22 24  2  0  0  0  0
 24 26  1  0  0  0  0
 25 26  1  0  0  0  0
 23 25  2  0  0  0  0
 21 22  1  0  0  0  0
 22 23  1  0  0  0  0
  1  3  1  0  0  0  0
  1  7  1  0  0  0  0
  1  2  2  0  0  0  0
 36 37  1  0  0  0  0
 37 45  1  0  0  0  0
 37 38  2  0  0  0  0
  8  9  1  0  0  0  0
  9 17  1  0  0  0  0
  9 10  2  0  0  0  0
 18 19  1  0  0  0  0
 19 35  1  0  0  0  0
 19 20  2  0  0  0  0
 36 39  1  0  0  0  0
  8 11  1  0  0  0  0
 45 46  1  0  0  0  0
 18 21  1  0  0  0  0
 35 36  1  0  0  0  0
  7  8  1  0  0  0  0
 17 18  1  0  0  0  0
 24 32  1  0  0  0  0
 25 33  1  0  0  0  0
  3  4  1  0  0  0  0
  3  5  1  0  0  0  0
  3  6  1  0  0  0  0
 39 42  1  0  0  0  0
 39 43  1  0  0  0  0
 39 44  1  0  0  0  0
 11 14  1  0  0  0  0
 11 15  1  0  0  0  0
 11 16  1  0  0  0  0
 46 48  1  0  0  0  0
 46 49  1  0  0  0  0
 46 50  1  0  0  0  0
 21 29  1  0  0  0  0
 21 30  1  0  0  0  0
 36 41  1  0  0  0  0
  8 13  1  0  0  0  0
 18 28  1  0  0  0  0
 26 34  1  0  0  0  0
 23 31  1  0  0  0  0
 45 47  1  0  0  0  0
  7 12  1  0  0  0  0
 35 40  1  0  0  0  0
 17 27  1  0  0  0  0
M  CHG  1  23   1
M  END
$$$$

  -OEChem-05262214473D

 50 50  0     1  0  0  0  0  0999 V2000
   -1.6938    0.4865    3.8080 C   0  0  0  0  0  0  0  0  0  0  0  0
   -0.7464   -0.1282    3.3323 O   0  0  0  0  0  0  0  0  0  0  0  0
   -2.1257    0.2041    5.2087 C   0  0  0  0  0  0  0  0  0  0  0  0
   -2.8853   -0.5922    5.2621 H   0  0  0  0  0  0  0  0  0  0  0  0
   -1.2944   -0.1435    5.8430 H   0  0  0  0  0  0  0  0  0  0  0  0
   -2.5637    1.0590    5.7483 H   0  0  0  0  0  0  0  0  0  0  0  0
   -2.4435    1.4589    3.1669 N   0  0  0  0  0  0  0  0  0  0  0  0
   -2.1966    1.8850    1.8145 C   0  0  2  0  0  0  0  0  0  0  0  0
   -0.8617    1.2996    1.3733 C   0  0  0  0  0  0  0  0  0  0  0  0
    0.0104    0.9468    2.1646 O   0  0  0  0  0  0  0  0  0  0  0  0
   -2.1879    3.4017    1.7050 C   0  0  0  0  0  0  0  0  0  0  0  0
   -3.2085    1.8948    3.6787 H   0  0  0  0  0  0  0  0  0  0  0  0
   -3.0007    1.4665    1.1994 H   0  0  0  0  0  0  0  0  0  0  0  0
   -1.3888    3.8390    2.3147 H   0  0  0  0  0  0  0  0  0  0  0  0
   -2.0284    3.7240    0.6708 H   0  0  0  0  0  0  0  0  0  0  0  0
   -3.1380    3.8230    2.0508 H   0  0  0  0  0  0  0  0  0  0  0  0
   -0.7390    1.2565   -0.0101 N   0  0  0  0  0  0  0  0  0  0  0  0
    0.4383    0.7557   -0.6738 C   0  0  2  0  0  0  0  0  0  0  0  0
    1.5202    1.8212   -0.5379 C   0  0  0  0  0  0  0  0  0  0  0  0
    2.1566    2.0002    0.4983 O   0  0  0  0  0  0  0  0  0  0  0  0
    0.1807    0.4432   -2.1523 C   0  0  0  0  0  0  0  0  0  0  0  0
   -0.8234   -0.6664   -2.3480 C   0  0  0  0  0  0  0  0  0  0  0  0
   -0.5011   -1.9839   -2.1279 N   0  3  0  0  0  0  0  0  0  0  0  0
   -2.1309   -0.6421   -2.7437 C   0  0  0  0  0  0  0  0  0  0  0  0
   -1.5671   -2.7512   -2.3775 C   0  0  0  0  0  0  0  0  0  0  0  0
   -2.5656   -1.9456   -2.7535 N   0  0  0  0  0  0  0  0  0  0  0  0
   -1.5221    1.5532   -0.5874 H   0  0  0  0  0  0  0  0  0  0  0  0
    0.7479   -0.1420   -0.1257 H   0  0  0  0  0  0  0  0  0  0  0  0
    1.1217    0.1829   -2.6557 H   0  0  0  0  0  0  0  0  0  0  0  0
   -0.1876    1.3362   -2.6745 H   0  0  0  0  0  0  0  0  0  0  0  0
    0.4058   -2.3272   -1.8238 H   0  0  0  0  0  0  0  0  0  0  0  0
   -2.8342    0.1154   -3.0273 H   0  0  0  0  0  0  0  0  0  0  0  0
   -1.6128   -3.8240   -2.2918 H   0  0  0  0  0  0  0  0  0  0  0  0
   -3.5003   -2.2526   -3.0075 H   0  0  0  0  0  0  0  0  0  0  0  0
    1.7220    2.5110   -1.7253 N   0  0  0  0  0  0  0  0  0  0  0  0
    2.7063    3.5583   -1.8772 C   0  0  2  0  0  0  0  0  0  0  0  0
    2.5269    4.5425   -0.7288 C   0  0  0  0  0  0  0  0  0  0  0  0
    1.4756    4.6577   -0.1022 O   0  0  0  0  0  0  0  0  0  0  0  0
    2.5667    4.2585   -3.2199 C   0  0  0  0  0  0  0  0  0  0  0  0
    1.1491    2.2676   -2.5279 H   0  0  0  0  0  0  0  0  0  0  0  0
    3.6897    3.0817   -1.8001 H   0  0  0  0  0  0  0  0  0  0  0  0
    1.5876    4.7420   -3.3155 H   0  0  0  0  0  0  0  0  0  0  0  0
    3.3311    5.0324   -3.3452 H   0  0  0  0  0  0  0  0  0  0  0  0
    2.6664    3.5440   -4.0442 H   0  0  0  0  0  0  0  0  0  0  0  0
    3.6649    5.3074   -0.5143 N   0  0  0  0  0  0  0  0  0  0  0  0
    3.7409    6.3213    0.5114 C   0  0  0  0  0  0  0  0  0  0  0  0
    4.4974    5.1309   -1.0689 H   0  0  0  0  0  0  0  0  0  0  0  0
    3.4555    7.2951    0.0869 H   0  0  0  0  0  0  0  0  0  0  0  0
    3.0554    6.0642    1.3324 H   0  0  0  0  0  0  0  0  0  0  0  0
    4.7698    6.3767    0.8965 H   0  0  0  0  0  0  0  0  0  0  0  0
 22 24  2  0  0  0  0
 24 26  1  0  0  0  0
 25 26  1  0  0  0  0
 23 25  2  0  0  0  0
 21 22  1  0  0  0  0
 22 23  1  0  0  0  0
  1  3  1  0  0  0  0
  1  7  1  0  0  0  0
  1  2  2  0  0  0  0
 36 37  1  0  0  0  0
 37 45  1  0  0  0  0
 37 38  2  0  0  0  0
  8  9  1  0  0  0  0
  9 17  1  0  0  0  0
  9 10  2  0  0  0  0
 18 19  1  0  0  0  0
 19 35  1  0  0  0  0
 19 20  2  0  0  0  0
 36 39  1  0  0  0  0
  8 11  1  0  0  0  0
 45 46  1  0  0  0  0
 18 21  1  0  0  0  0
 35 36  1  0  0  0  0
  7  8  1  0  0  0  0
 17 18  1  0  0  0  0
 24 32  1  0  0  0  0
 25 33  1  0  0  0  0
  3  4  1  0  0  0  0
  3  5  1  0  0  0  0
  3  6  1  0  0  0  0
 39 42  1  0  0  0  0
 39 43  1  0  0  0  0
 39 44  1  0  0  0  0
 11 14  1  0  0  0  0
 11 15  1  0  0  0  0
 11 16  1  0  0  0  0
 46 48  1  0  0  0  0
 46 49  1  0  0  0  0
 46 50  1  0  0  0  0
 21 29  1  0  0  0  0
 21 30  1  0  0  0  0
 36 41  1  0  0  0  0
  8 13  1  0  0  0  0
 18 28  1  0  0  0  0
 26 34  1  0  0  0  0
 23 31  1  0  0  0  0
 45 47  1  0  0  0  0
  7 12  1  0  0  0  0
 35 40  1  0  0  0  0
 17 27  1  0  0  0  0
M  CHG  1  23   1
M  END
$$$$

  -OEChem-05262214473D

 50 50  0     1  0  0  0  0  0999 V2000
   -1.6938    0.4865    3.8080 C   0  0  0  0  0  0  0  0  0  0  0  0
   -0.7464   -0.1282    3.3323 O   0  0  0  0  0  0  0  0  0  0  0  0
   -2.1257    0.2041    5.2087 C   0  0  0  0  0  0  0  0  0  0  0  0
   -2.8853   -0.5922    5.2621 H   0  0  0  0  0  0  0  0  0  0  0  0
   -1.2944   -0.1435    5.8430 H   0  0  0  0  0  0  0  0  0  0  0  0
   -2.5637    1.0590    5.7483 H   0  0  0  0  0  0  0  0  0  0  0  0
   -2.4435    1.4589    3.1669 N   0  0  0  0  0  0  0  0  0  0  0  0
   -2.1966    1.8850    1.8145 C   0  0  2  0  0  0  0  0  0  0  0  0
   -0.8617    1.2996    1.3733 C   0  0  0  0  0  0  0  0  0  0  0  0
    0.0104    0.9468    2.1646 O   0  0  0  0  0  0  0  0  0  0  0  0
   -2.1879    3.4017    1.7050 C   0  0  0  0  0  0  0  0  0  0  0  0
   -3.2085    1.8948    3.6787 H   0  0  0  0  0  0  0  0  0  0  0  0
   -3.0007    1.4665    1.1994 H   0  0  0  0  0  0  0  0  0  0  0  0
   -1.3888    3.8390    2.3147 H   0  0  0  0  0  0  0  0  0  0  0  0
   -2.0284    3.7240    0.6708 H   0  0  0  0  0  0  0  0  0  0  0  0
   -3.1380    3.8230    2.0508 H   0  0  0  0  0  0  0  0  0  0  0  0
   -0.7390    1.2565   -0.0101 N   0  0  0  0  0  0  0  0  0  0  0  0
    0.4383    0.7557   -0.6738 C   0  0  2  0  0  0  0  0  0  0  0  0
    1.5202    1.8212   -0.5379 C   0  0  0  0  0  0  0  0  0  0  0  0
    2.3345    1.8344    0.3828 O   0  0  0  0  0  0  0  0  0  0  0  0
    0.1807    0.4432   -2.1523 C   0  0  0  0  0  0  0  0  0  0  0  0
   -0.8234   -0.6664   -2.3480 C   0  0  0  0  0  0  0  0  0  0  0  0
   -0.5011   -1.9839   -2.1279 N   0  3  0  0  0  0  0  0  0  0  0  0
   -2.1309   -0.6421   -2.7437 C   0  0  0  0  0  0  0  0  0  0  0  0
   -1.5671   -2.7512   -2.3775 C   0  0  0  0  0  0  0  0  0  0  0  0
   -2.5656   -1.9456   -2.7535 N   0  0  0  0  0  0  0  0  0  0  0  0
   -1.5221    1.5532   -0.5874 H   0  0  0  0  0  0  0  0  0  0  0  0
    0.7479   -0.1420   -0.1257 H   0  0  0  0  0  0  0  0  0  0  0  0
    1.1217    0.1829   -2.6557 H   0  0  0  0  0  0  0  0  0  0  0  0
   -0.1876    1.3362   -2.6745 H   0  0  0  0  0  0  0  0  0  0  0  0
    0.4058   -2.3272   -1.8238 H   0  0  0  0  0  0  0  0  0  0  0  0
   -2.8342    0.1154   -3.0273 H   0  0  0  0  0  0  0  0  0  0  0  0
   -1.6128   -3.8240   -2.2918 H   0  0  0  0  0  0  0  0  0  0  0  0
   -3.5003   -2.2526   -3.0075 H   0  0  0  0  0  0  0  0  0  0  0  0
    1.4970    2.7226   -1.5931 N   0  0  0  0  0  0  0  0  0  0  0  0
    2.4305    3.8186   -1.7211 C   0  0  2  0  0  0  0  0  0  0  0  0
    2.4581    4.5700   -0.3967 C   0  0  0  0  0  0  0  0  0  0  0  0
    1.5387    4.5273    0.4181 O   0  0  0  0  0  0  0  0  0  0  0  0
    2.0431    4.7447   -2.8635 C   0  0  0  0  0  0  0  0  0  0  0  0
    0.7884    2.6062   -2.3114 H   0  0  0  0  0  0  0  0  0  0  0  0
    3.4142    3.3756   -1.9110 H   0  0  0  0  0  0  0  0  0  0  0  0
    1.0601    5.1980   -2.6910 H   0  0  0  0  0  0  0  0  0  0  0  0
    2.7669    5.5585   -2.9774 H   0  0  0  0  0  0  0  0  0  0  0  0
    1.9946    4.1964   -3.8104 H   0  0  0  0  0  0  0  0  0  0  0  0
    3.6115    5.3280   -0.2507 N   0  0  0  0  0  0  0  0  0  0  0  0
    3.8677    6.1411    0.9151 C   0  0  0  0  0  0  0  0  0  0  0  0
    4.3295    5.2886   -0.9681 H   0  0  0  0  0  0  0  0  0  0  0  0
    3.5034    7.1636    0.7370 H   0  0  0  0  0  0  0  0  0  0  0  0
    3.3457    5.7120    1.7831 H   0  0  0  0  0  0  0  0  0  0  0  0
    4.9494    6.1667    1.1136 H   0  0  0  0  0  0  0  0  0  0  0  0
 22 24  2  0  0  0  0
 24 26  1  0  0  0  0
 25 26  1  0  0  0  0
 23 25  2  0  0  0  0
 21 22  1  0  0  0  0
 22 23  1  0  0  0  0
  1  3  1  0  0  0  0
  1  7  1  0  0  0  0
  1  2  2  0  0  0  0
 36 37  1  0  0  0  0
 37 45  1  0  0  0  0
 37 38  2  0  0  0  0
  8  9  1  0  0  0  0
  9 17  1  0  0  0  0
  9 10  2  0  0  0  0
 18 19  1  0  0  0  0
 19 35  1  0  0  0  0
 19 20  2  0  0  0  0
 36 39  1  0  0  0  0
  8 11  1  0  0  0  0
 45 46  1  0  0  0  0
 18 21  1  0  0  0  0
 35 36  1  0  0  0  0
  7  8  1  0  0  0  0
 17 18  1  0  0  0  0
 24 32  1  0  0  0  0
 25 33  1  0  0  0  0
  3  4  1  0  0  0  0
  3  5  1  0  0  0  0
  3  6  1  0  0  0  0
 39 42  1  0  0  0  0
 39 43  1  0  0  0  0
 39 44  1  0  0  0  0
 11 14  1  0  0  0  0
 11 15  1  0  0  0  0
 11 16  1  0  0  0  0
 46 48  1  0  0  0  0
 46 49  1  0  0  0  0
 46 50  1  0  0  0  0
 21 29  1  0  0  0  0
 21 30  1  0  0  0  0
 36 41  1  0  0  0  0
  8 13  1  0  0  0  0
 18 28  1  0  0  0  0
 26 34  1  0  0  0  0
 23 31  1  0  0  0  0
 45 47  1  0  0  0  0
  7 12  1  0  0  0  0
 35 40  1  0  0  0  0
 17 27  1  0  0  0  0
M  CHG  1  23   1
M  END
$$$$

  -OEChem-05262214473D

 50 50  0     1  0  0  0  0  0999 V2000
   -1.6938    0.4865    3.8080 C   0  0  0  0  0  0  0  0  0  0  0  0
   -0.7464   -0.1282    3.3323 O   0  0  0  0  0  0  0  0  0  0  0  0
   -2.1257    0.2041    5.2087 C   0  0  0  0  0  0  0  0  0  0  0  0
   -2.8853   -0.5922    5.2621 H   0  0  0  0  0  0  0  0  0  0  0  0
   -1.2944   -0.1435    5.8430 H   0  0  0  0  0  0  0  0  0  0  0  0
   -2.5637    1.0590    5.7483 H   0  0  0  0  0  0  0  0  0  0  0  0
   -2.4435    1.4589    3.1669 N   0  0  0  0  0  0  0  0  0  0  0  0
   -2.1966    1.8850    1.8145 C   0  0  2  0  0  0  0  0  0  0  0  0
   -0.8617    1.2996    1.3733 C   0  0  0  0  0  0  0  0  0  0  0  0
    0.0104    0.9468    2.1646 O   0  0  0  0  0  0  0  0  0  0  0  0
   -2.1879    3.4017    1.7050 C   0  0  0  0  0  0  0  0  0  0  0  0
   -3.2085    1.8948    3.6787 H   0  0  0  0  0  0  0  0  0  0  0  0
   -3.0007    1.4665    1.1994 H   0  0  0  0  0  0  0  0  0  0  0  0
   -1.3888    3.8390    2.3147 H   0  0  0  0  0  0  0  0  0  0  0  0
   -2.0284    3.7240    0.6708 H   0  0  0  0  0  0  0  0  0  0  0  0
   -3.1380    3.8230    2.0508 H   0  0  0  0  0  0  0  0  0  0  0  0
   -0.7390    1.2565   -0.0101 N   0  0  0  0  0  0  0  0  0  0  0  0
    0.4383    0.7557   -0.6738 C   0  0  2  0  0  0  0  0  0  0  0  0
    1.5202    1.8212   -0.5379 C   0  0  0  0  0  0  0  0  0  0  0  0
    2.4891    1.6996    0.2086 O   0  0  0  0  0  0  0  0  0  0  0  0
    0.1807    0.4432   -2.1523 C   0  0  0  0  0  0  0  0  0  0  0  0
   -0.8234   -0.6664   -2.3480 C   0  0  0  0  0  0  0  0  0  0  0  0
   -0.5011   -1.9839   -2.1279 N   0  3  0  0  0  0  0  0  0  0  0  0
   -2.1309   -0.6421   -2.7437 C   0  0  0  0  0  0  0  0  0  0  0  0
   -1.5671   -2.7512   -2.3775 C   0  0  0  0  0  0  0  0  0  0  0  0
   -2.5656   -1.9456   -2.7535 N   0  0  0  0  0  0  0  0  0  0  0  0
   -1.5221    1.5532   -0.5874 H   0  0  0  0  0  0  0  0  0  0  0  0
    0.7479   -0.1420   -0.1257 H   0  0  0  0  0  0  0  0  0  0  0  0
    1.1217    0.1829   -2.6557 H   0  0  0  0  0  0  0  0  0  0  0  0
   -0.1876    1.3362   -2.6745 H   0  0  0  0  0  0  0  0  0  0  0  0
    0.4058   -2.3272   -1.8238 H   0  0  0  0  0  0  0  0  0  0  0  0
   -2.8342    0.1154   -3.0273 H   0  0  0  0  0  0  0  0  0  0  0  0
   -1.6128   -3.8240   -2.2918 H   0  0  0  0  0  0  0  0  0  0  0  0
   -3.5003   -2.2526   -3.0075 H   0  0  0  0  0  0  0  0  0  0  0  0
    1.2987    2.8976   -1.3858 N   0  0  0  0  0  0  0  0  0  0  0  0
    2.1862    4.0350   -1.4727 C   0  0  2  0  0  0  0  0  0  0  0  0
    2.4512    4.5339   -0.0584 C   0  0  0  0  0  0  0  0  0  0  0  0
    1.6967    4.3073    0.8852 O   0  0  0  0  0  0  0  0  0  0  0  0
    1.5906    5.1369   -2.3351 C   0  0  0  0  0  0  0  0  0  0  0  0
    0.4713    2.8853   -1.9748 H   0  0  0  0  0  0  0  0  0  0  0  0
    3.1213    3.6735   -1.9143 H   0  0  0  0  0  0  0  0  0  0  0  0
    0.6530    5.5116   -1.9086 H   0  0  0  0  0  0  0  0  0  0  0  0
    2.2763    5.9860   -2.4234 H   0  0  0  0  0  0  0  0  0  0  0  0
    1.3730    4.7681   -3.3433 H   0  0  0  0  0  0  0  0  0  0  0  0
    3.6071    5.2983    0.0173 N   0  0  0  0  0  0  0  0  0  0  0  0
    4.0674    5.8958    1.2491 C   0  0  0  0  0  0  0  0  0  0  0  0
    4.1819    5.4185   -0.8115 H   0  0  0  0  0  0  0  0  0  0  0  0
    3.6703    6.9183    1.3320 H   0  0  0  0  0  0  0  0  0  0  0  0
    3.7157    5.2958    2.1013 H   0  0  0  0  0  0  0  0  0  0  0  0
    5.1669    5.9281    1.2523 H   0  0  0  0  0  0  0  0  0  0  0  0
 22 24  2  0  0  0  0
 24 26  1  0  0  0  0
 25 26  1  0  0  0  0
 23 25  2  0  0  0  0
 21 22  1  0  0  0  0
 22 23  1  0  0  0  0
  1  3  1  0  0  0  0
  1  7  1  0  0  0  0
  1  2  2  0  0  0  0
 36 37  1  0  0  0  0
 37 45  1  0  0  0  0
 37 38  2  0  0  0  0
  8  9  1  0  0  0  0
  9 17  1  0  0  0  0
  9 10  2  0  0  0  0
 18 19  1  0  0  0  0
 19 35  1  0  0  0  0
 19 20  2  0  0  0  0
 36 39  1  0  0  0  0
  8 11  1  0  0  0  0
 45 46  1  0  0  0  0
 18 21  1  0  0  0  0
 35 36  1  0  0  0  0
  7  8  1  0  0  0  0
 17 18  1  0  0  0  0
 24 32  1  0  0  0  0
 25 33  1  0  0  0  0
  3  4  1  0  0  0  0
  3  5  1  0  0  0  0
  3  6  1  0  0  0  0
 39 42  1  0  0  0  0
 39 43  1  0  0  0  0
 39 44  1  0  0  0  0
 11 14  1  0  0  0  0
 11 15  1  0  0  0  0
 11 16  1  0  0  0  0
 46 48  1  0  0  0  0
 46 49  1  0  0  0  0
 46 50  1  0  0  0  0
 21 29  1  0  0  0  0
 21 30  1  0  0  0  0
 36 41  1  0  0  0  0
  8 13  1  0  0  0  0
 18 28  1  0  0  0  0
 26 34  1  0  0  0  0
 23 31  1  0  0  0  0
 45 47  1  0  0  0  0
  7 12  1  0  0  0  0
 35 40  1  0  0  0  0
 17 27  1  0  0  0  0
M  CHG  1  23   1
M  END
$$$$

  -OEChem-05262214473D

 50 50  0     1  0  0  0  0  0999 V2000
   -1.6938    0.4865    3.8080 C   0  0  0  0  0  0  0  0  0  0  0  0
   -0.7464   -0.1282    3.3323 O   0  0  0  0  0  0  0  0  0  0  0  0
   -2.1257    0.2041    5.2087 C   0  0  0  0  0  0  0  0  0  0  0  0
   -2.8853   -0.5922    5.2621 H   0  0  0  0  0  0  0  0  0  0  0  0
   -1.2944   -0.1435    5.8430 H   0  0  0  0  0  0  0  0  0  0  0  0
   -2.5637    1.0590    5.7483 H   0  0  0  0  0  0  0  0  0  0  0  0
   -2.4435    1.4589    3.1669 N   0  0  0  0  0  0  0  0  0  0  0  0
   -2.1966    1.8850    1.8145 C   0  0  2  0  0  0  0  0  0  0  0  0
   -0.8617    1.2996    1.3733 C   0  0  0  0  0  0  0  0  0  0  0  0
    0.0104    0.9468    2.1646 O   0  0  0  0  0  0  0  0  0  0  0  0
   -2.1879    3.4017    1.7050 C   0  0  0  0  0  0  0  0  0  0  0  0
   -3.2085    1.8948    3.6787 H   0  0  0  0  0  0  0  0  0  0  0  0
   -3.0007    1.4665    1.1994 H   0  0  0  0  0  0  0  0  0  0  0  0
   -1.3888    3.8390    2.3147 H   0  0  0  0  0  0  0  0  0  0  0  0
   -2.0284    3.7240    0.6708 H   0  0  0  0  0  0  0  0  0  0  0  0
   -3.1380    3.8230    2.0508 H   0  0  0  0  0  0  0  0  0  0  0  0
   -0.7390    1.2565   -0.0101 N   0  0  0  0  0  0  0  0  0  0  0  0
    0.4383    0.7557   -0.6738 C   0  0  2  0  0  0  0  0  0  0  0  0
    1.5202    1.8212   -0.5379 C   0  0  0  0  0  0  0  0  0  0  0  0
    2.6101    1.6049   -0.0124 O   0  0  0  0  0  0  0  0  0  0  0  0
    0.1807    0.4432   -2.1523 C   0  0  0  0  0  0  0  0  0  0  0  0
   -0.8234   -0.6664   -2.3480 C   0  0  0  0  0  0  0  0  0  0  0  0
   -0.5011   -1.9839   -2.1279 N   0  3  0  0  0  0  0  0  0  0  0  0
   -2.1309   -0.6421   -2.7437 C   0  0  0  0  0  0  0  0  0  0  0  0
   -1.5671   -2.7512   -2.3775 C   0  0  0  0  0  0  0  0  0  0  0  0
   -2.5656   -1.9456   -2.7535 N   0  0  0  0  0  0  0  0  0  0  0  0
   -1.5221    1.5532   -0.5874 H   0  0  0  0  0  0  0  0  0  0  0  0
    0.7479   -0.1420   -0.1257 H   0  0  0  0  0  0  0  0  0  0  0  0
    1.1217    0.1829   -2.6557 H   0  0  0  0  0  0  0  0  0  0  0  0
   -0.1876    1.3362   -2.6745 H   0  0  0  0  0  0  0  0  0  0  0  0
    0.4058   -2.3272   -1.8238 H   0  0  0  0  0  0  0  0  0  0  0  0
   -2.8342    0.1154   -3.0273 H   0  0  0  0  0  0  0  0  0  0  0  0
   -1.6128   -3.8240   -2.2918 H   0  0  0  0  0  0  0  0  0  0  0  0
   -3.5003   -2.2526   -3.0075 H   0  0  0  0  0  0  0  0  0  0  0  0
    1.1407    3.0239   -1.1176 N   0  0  0  0  0  0  0  0  0  0  0  0
    1.9902    4.1927   -1.1488 C   0  0  2  0  0  0  0  0  0  0  0  0
    2.5065    4.4367    0.2630 C   0  0  0  0  0  0  0  0  0  0  0  0
    1.9389    4.0127    1.2675 O   0  0  0  0  0  0  0  0  0  0  0  0
    1.2400    5.4082   -1.6709 C   0  0  0  0  0  0  0  0  0  0  0  0
    0.2195    3.0857   -1.5410 H   0  0  0  0  0  0  0  0  0  0  0  0
    2.8308    3.9550   -1.8098 H   0  0  0  0  0  0  0  0  0  0  0  0
    0.3941    5.6615   -1.0216 H   0  0  0  0  0  0  0  0  0  0  0  0
    1.8927    6.2859   -1.7209 H   0  0  0  0  0  0  0  0  0  0  0  0
    0.8438    5.2201   -2.6747 H   0  0  0  0  0  0  0  0  0  0  0  0
    3.6520    5.2202    0.2716 N   0  0  0  0  0  0  0  0  0  0  0  0
    4.3263    5.6021    1.4904 C   0  0  0  0  0  0  0  0  0  0  0  0
    4.0646    5.5118   -0.6096 H   0  0  0  0  0  0  0  0  0  0  0  0
    3.9449    6.5758    1.8315 H   0  0  0  0  0  0  0  0  0  0  0  0
    4.1403    4.8438    2.2652 H   0  0  0  0  0  0  0  0  0  0  0  0
    5.4076    5.6773    1.3030 H   0  0  0  0  0  0  0  0  0  0  0  0
 22 24  2  0  0  0  0
 24 26  1  0  0  0  0
 25 26  1  0  0  0  0
 23 25  2  0  0  0  0
 21 22  1  0  0  0  0
 22 23  1  0  0  0  0
  1  3  1  0  0  0  0
  1  7  1  0  0  0  0
  1  2  2  0  0  0  0
 36 37  1  0  0  0  0
 37 45  1  0  0  0  0
 37 38  2  0  0  0  0
  8  9  1  0  0  0  0
  9 17  1  0  0  0  0
  9 10  2  0  0  0  0
 18 19  1  0  0  0  0
 19 35  1  0  0  0  0
 19 20  2  0  0  0  0
 36 39  1  0  0  0  0
  8 11  1  0  0  0  0
 45 46  1  0  0  0  0
 18 21  1  0  0  0  0
 35 36  1  0  0  0  0
  7  8  1  0  0  0  0
 17 18  1  0  0  0  0
 24 32  1  0  0  0  0
 25 33  1  0  0  0  0
  3  4  1  0  0  0  0
  3  5  1  0  0  0  0
  3  6  1  0  0  0  0
 39 42  1  0  0  0  0
 39 43  1  0  0  0  0
 39 44  1  0  0  0  0
 11 14  1  0  0  0  0
 11 15  1  0  0  0  0
 11 16  1  0  0  0  0
 46 48  1  0  0  0  0
 46 49  1  0  0  0  0
 46 50  1  0  0  0  0
 21 29  1  0  0  0  0
 21 30  1  0  0  0  0
 36 41  1  0  0  0  0
  8 13  1  0  0  0  0
 18 28  1  0  0  0  0
 26 34  1  0  0  0  0
 23 31  1  0  0  0  0
 45 47  1  0  0  0  0
  7 12  1  0  0  0  0
 35 40  1  0  0  0  0
 17 27  1  0  0  0  0
M  CHG  1  23   1
M  END
$$$$

  -OEChem-05262214473D

 50 50  0     1  0  0  0  0  0999 V2000
   -1.6938    0.4865    3.8080 C   0  0  0  0  0  0  0  0  0  0  0  0
   -0.7464   -0.1282    3.3323 O   0  0  0  0  0  0  0  0  0  0  0  0
   -2.1257    0.2041    5.2087 C   0  0  0  0  0  0  0  0  0  0  0  0
   -2.8853   -0.5922    5.2621 H   0  0  0  0  0  0  0  0  0  0  0  0
   -1.2944   -0.1435    5.8430 H   0  0  0  0  0  0  0  0  0  0  0  0
   -2.5637    1.0590    5.7483 H   0  0  0  0  0  0  0  0  0  0  0  0
   -2.4435    1.4589    3.1669 N   0  0  0  0  0  0  0  0  0  0  0  0
   -2.1966    1.8850    1.8145 C   0  0  2  0  0  0  0  0  0  0  0  0
   -0.8617    1.2996    1.3733 C   0  0  0  0  0  0  0  0  0  0  0  0
    0.0104    0.9468    2.1646 O   0  0  0  0  0  0  0  0  0  0  0  0
   -2.1879    3.4017    1.7050 C   0  0  0  0  0  0  0  0  0  0  0  0
   -3.2085    1.8948    3.6787 H   0  0  0  0  0  0  0  0  0  0  0  0
   -3.0007    1.4665    1.1994 H   0  0  0  0  0  0  0  0  0  0  0  0
   -1.3888    3.8390    2.3147 H   0  0  0  0  0  0  0  0  0  0  0  0
   -2.0284    3.7240    0.6708 H   0  0  0  0  0  0  0  0  0  0  0  0
   -3.1380    3.8230    2.0508 H   0  0  0  0  0  0  0  0  0  0  0  0
   -0.7390    1.2565   -0.0101 N   0  0  0  0  0  0  0  0  0  0  0  0
    0.4383    0.7557   -0.6738 C   0  0  2  0  0  0  0  0  0  0  0  0
    1.5202    1.8212   -0.5379 C   0  0  0  0  0  0  0  0  0  0  0  0
    2.6892    1.5568   -0.2652 O   0  0  0  0  0  0  0  0  0  0  0  0
    0.1807    0.4432   -2.1523 C   0  0  0  0  0  0  0  0  0  0  0  0
   -0.8234   -0.6664   -2.3480 C   0  0  0  0  0  0  0  0  0  0  0  0
   -0.5011   -1.9839   -2.1279 N   0  3  0  0  0  0  0  0  0  0  0  0
   -2.1309   -0.6421   -2.7437 C   0  0  0  0  0  0  0  0  0  0  0  0
   -1.5671   -2.7512   -2.3775 C   0  0  0  0  0  0  0  0  0  0  0  0
   -2.5656   -1.9456   -2.7535 N   0  0  0  0  0  0  0  0  0  0  0  0
   -1.5221    1.5532   -0.5874 H   0  0  0  0  0  0  0  0  0  0  0  0
    0.7479   -0.1420   -0.1257 H   0  0  0  0  0  0  0  0  0  0  0  0
    1.1217    0.1829   -2.6557 H   0  0  0  0  0  0  0  0  0  0  0  0
   -0.1876    1.3362   -2.6745 H   0  0  0  0  0  0  0  0  0  0  0  0
    0.4058   -2.3272   -1.8238 H   0  0  0  0  0  0  0  0  0  0  0  0
   -2.8342    0.1154   -3.0273 H   0  0  0  0  0  0  0  0  0  0  0  0
   -1.6128   -3.8240   -2.2918 H   0  0  0  0  0  0  0  0  0  0  0  0
   -3.5003   -2.2526   -3.0075 H   0  0  0  0  0  0  0  0  0  0  0  0
    1.0336    3.0930   -0.8067 N   0  0  0  0  0  0  0  0  0  0  0  0
    1.8558    4.2810   -0.7716 C   0  0  2  0  0  0  0  0  0  0  0  0
    2.6204    4.2851    0.5456 C   0  0  0  0  0  0  0  0  0  0  0  0
    2.2488    3.6634    1.5388 O   0  0  0  0  0  0  0  0  0  0  0  0
    1.0153    5.5401   -0.9161 C   0  0  0  0  0  0  0  0  0  0  0  0
    0.0501    3.1938   -1.0397 H   0  0  0  0  0  0  0  0  0  0  0  0
    2.5627    4.2011   -1.6046 H   0  0  0  0  0  0  0  0  0  0  0  0
    0.3010    5.6374   -0.0904 H   0  0  0  0  0  0  0  0  0  0  0  0
    1.6424    6.4378   -0.9180 H   0  0  0  0  0  0  0  0  0  0  0  0
    0.4432    5.5218   -1.8500 H   0  0  0  0  0  0  0  0  0  0  0  0
    3.7432    5.0992    0.4947 N   0  0  0  0  0  0  0  0  0  0  0  0
    4.6268    5.2801    1.6228 C   0  0  0  0  0  0  0  0  0  0  0  0
    3.9858    5.5622   -0.3763 H   0  0  0  0  0  0  0  0  0  0  0  0
    4.3083    6.1597    2.2014 H   0  0  0  0  0  0  0  0  0  0  0  0
    4.5905    4.3868    2.2638 H   0  0  0  0  0  0  0  0  0  0  0  0
    5.6551    5.4311    1.2624 H   0  0  0  0  0  0  0  0  0  0  0  0
 22 24  2  0  0  0  0
 24 26  1  0  0  0  0
 25 26  1  0  0  0  0
 23 25  2  0  0  0  0
 21 22  1  0  0  0  0
 22 23  1  0  0  0  0
  1  3  1  0  0  0  0
  1  7  1  0  0  0  0
  1  2  2  0  0  0  0
 36 37  1  0  0  0  0
 37 45  1  0  0  0  0
 37 38  2  0  0  0  0
  8  9  1  0  0  0  0
  9 17  1  0  0  0  0
  9 10  2  0  0  0  0
 18 19  1  0  0  0  0
 19 35  1  0  0  0  0
 19 20  2  0  0  0  0
 36 39  1  0  0  0  0
  8 11  1  0  0  0  0
 45 46  1  0  0  0  0
 18 21  1  0  0  0  0
 35 36  1  0  0  0  0
  7  8  1  0  0  0  0
 17 18  1  0  0  0  0
 24 32  1  0  0  0  0
 25 33  1  0  0  0  0
  3  4  1  0  0  0  0
  3  5  1  0  0  0  0
  3  6  1  0  0  0  0
 39 42  1  0  0  0  0
 39 43  1  0  0  0  0
 39 44  1  0  0  0  0
 11 14  1  0  0  0  0
 11 15  1  0  0  0  0
 11 16  1  0  0  0  0
 46 48  1  0  0  0  0
 46 49  1  0  0  0  0
 46 50  1  0  0  0  0
 21 29  1  0  0  0  0
 21 30  1  0  0  0  0
 36 41  1  0  0  0  0
  8 13  1  0  0  0  0
 18 28  1  0  0  0  0
 26 34  1  0  0  0  0
 23 31  1  0  0  0  0
 45 47  1  0  0  0  0
  7 12  1  0  0  0  0
 35 40  1  0  0  0  0
 17 27  1  0  0  0  0
M  CHG  1  23   1
M  END
$$$$

  -OEChem-05262214473D

 50 50  0     1  0  0  0  0  0999 V2000
   -1.6938    0.4865    3.8080 C   0  0  0  0  0  0  0  0  0  0  0  0
   -0.7464   -0.1282    3.3323 O   0  0  0  0  0  0  0  0  0  0  0  0
   -2.1257    0.2041    5.2087 C   0  0  0  0  0  0  0  0  0  0  0  0
   -2.8853   -0.5922    5.2621 H   0  0  0  0  0  0  0  0  0  0  0  0
   -1.2944   -0.1435    5.8430 H   0  0  0  0  0  0  0  0  0  0  0  0
   -2.5637    1.0590    5.7483 H   0  0  0  0  0  0  0  0  0  0  0  0
   -2.4435    1.4589    3.1669 N   0  0  0  0  0  0  0  0  0  0  0  0
   -2.1966    1.8850    1.8145 C   0  0  2  0  0  0  0  0  0  0  0  0
   -0.8617    1.2996    1.3733 C   0  0  0  0  0  0  0  0  0  0  0  0
    0.0104    0.9468    2.1646 O   0  0  0  0  0  0  0  0  0  0  0  0
   -2.1879    3.4017    1.7050 C   0  0  0  0  0  0  0  0  0  0  0  0
   -3.2085    1.8948    3.6787 H   0  0  0  0  0  0  0  0  0  0  0  0
   -3.0007    1.4665    1.1994 H   0  0  0  0  0  0  0  0  0  0  0  0
   -1.3888    3.8390    2.3147 H   0  0  0  0  0  0  0  0  0  0  0  0
   -2.0284    3.7240    0.6708 H   0  0  0  0  0  0  0  0  0  0  0  0
   -3.1380    3.8230    2.0508 H   0  0  0  0  0  0  0  0  0  0  0  0
   -0.7390    1.2565   -0.0101 N   0  0  0  0  0  0  0  0  0  0  0  0
    0.4383    0.7557   -0.6738 C   0  0  2  0  0  0  0  0  0  0  0  0
    1.5202    1.8212   -0.5379 C   0  0  0  0  0  0  0  0  0  0  0  0
    2.7210    1.5586   -0.5325 O   0  0  0  0  0  0  0  0  0  0  0  0
    0.1807    0.4432   -2.1523 C   0  0  0  0  0  0  0  0  0  0  0  0
   -0.8234   -0.6664   -2.3480 C   0  0  0  0  0  0  0  0  0  0  0  0
   -0.5011   -1.9839   -2.1279 N   0  3  0  0  0  0  0  0  0  0  0  0
   -2.1309   -0.6421   -2.7437 C   0  0  0  0  0  0  0  0  0  0  0  0
   -1.5671   -2.7512   -2.3775 C   0  0  0  0  0  0  0  0  0  0  0  0
   -2.5656   -1.9456   -2.7535 N   0  0  0  0  0  0  0  0  0  0  0  0
   -1.5221    1.5532   -0.5874 H   0  0  0  0  0  0  0  0  0  0  0  0
    0.7479   -0.1420   -0.1257 H   0  0  0  0  0  0  0  0  0  0  0  0
    1.1217    0.1829   -2.6557 H   0  0  0  0  0  0  0  0  0  0  0  0
   -0.1876    1.3362   -2.6745 H   0  0  0  0  0  0  0  0  0  0  0  0
    0.4058   -2.3272   -1.8238 H   0  0  0  0  0  0  0  0  0  0  0  0
   -2.8342    0.1154   -3.0273 H   0  0  0  0  0  0  0  0  0  0  0  0
   -1.6128   -3.8240   -2.2918 H   0  0  0  0  0  0  0  0  0  0  0  0
   -3.5003   -2.2526   -3.0075 H   0  0  0  0  0  0  0  0  0  0  0  0
    0.9848    3.1002   -0.4743 N   0  0  0  0  0  0  0  0  0  0  0  0
    1.7922    4.2940   -0.3666 C   0  0  2  0  0  0  0  0  0  0  0  0
    2.7849    4.0894    0.7701 C   0  0  0  0  0  0  0  0  0  0  0  0
    2.6052    3.2834    1.6807 O   0  0  0  0  0  0  0  0  0  0  0  0
    0.9317    5.5238   -0.1221 C   0  0  0  0  0  0  0  0  0  0  0  0
   -0.0253    3.2022   -0.5050 H   0  0  0  0  0  0  0  0  0  0  0  0
    2.3352    4.3950   -1.3127 H   0  0  0  0  0  0  0  0  0  0  0  0
    0.3800    5.4409    0.8214 H   0  0  0  0  0  0  0  0  0  0  0  0
    1.5423    6.4312   -0.0693 H   0  0  0  0  0  0  0  0  0  0  0  0
    0.1985    5.6525   -0.9256 H   0  0  0  0  0  0  0  0  0  0  0  0
    3.8745    4.9434    0.6715 N   0  0  0  0  0  0  0  0  0  0  0  0
    4.9485    4.9516    1.6371 C   0  0  0  0  0  0  0  0  0  0  0  0
    3.9506    5.5661   -0.1273 H   0  0  0  0  0  0  0  0  0  0  0  0
    4.7358    5.6981    2.4166 H   0  0  0  0  0  0  0  0  0  0  0  0
    5.0356    3.9561    2.0970 H   0  0  0  0  0  0  0  0  0  0  0  0
    5.8925    5.2066    1.1333 H   0  0  0  0  0  0  0  0  0  0  0  0
 22 24  2  0  0  0  0
 24 26  1  0  0  0  0
 25 26  1  0  0  0  0
 23 25  2  0  0  0  0
 21 22  1  0  0  0  0
 22 23  1  0  0  0  0
  1  3  1  0  0  0  0
  1  7  1  0  0  0  0
  1  2  2  0  0  0  0
 36 37  1  0  0  0  0
 37 45  1  0  0  0  0
 37 38  2  0  0  0  0
  8  9  1  0  0  0  0
  9 17  1  0  0  0  0
  9 10  2  0  0  0  0
 18 19  1  0  0  0  0
 19 35  1  0  0  0  0
 19 20  2  0  0  0  0
 36 39  1  0  0  0  0
  8 11  1  0  0  0  0
 45 46  1  0  0  0  0
 18 21  1  0  0  0  0
 35 36  1  0  0  0  0
  7  8  1  0  0  0  0
 17 18  1  0  0  0  0
 24 32  1  0  0  0  0
 25 33  1  0  0  0  0
  3  4  1  0  0  0  0
  3  5  1  0  0  0  0
  3  6  1  0  0  0  0
 39 42  1  0  0  0  0
 39 43  1  0  0  0  0
 39 44  1  0  0  0  0
 11 14  1  0  0  0  0
 11 15  1  0  0  0  0
 11 16  1  0  0  0  0
 46 48  1  0  0  0  0
 46 49  1  0  0  0  0
 46 50  1  0  0  0  0
 21 29  1  0  0  0  0
 21 30  1  0  0  0  0
 36 41  1  0  0  0  0
  8 13  1  0  0  0  0
 18 28  1  0  0  0  0
 26 34  1  0  0  0  0
 23 31  1  0  0  0  0
 45 47  1  0  0  0  0
  7 12  1  0  0  0  0
 35 40  1  0  0  0  0
 17 27  1  0  0  0  0
M  CHG  1  23   1
M  END
$$$$

  -OEChem-05262214473D

 50 50  0     1  0  0  0  0  0999 V2000
   -1.6938    0.4865    3.8080 C   0  0  0  0  0  0  0  0  0  0  0  0
   -0.7464   -0.1282    3.3323 O   0  0  0  0  0  0  0  0  0  0  0  0
   -2.1257    0.2041    5.2087 C   0  0  0  0  0  0  0  0  0  0  0  0
   -2.8853   -0.5922    5.2621 H   0  0  0  0  0  0  0  0  0  0  0  0
   -1.2944   -0.1435    5.8430 H   0  0  0  0  0  0  0  0  0  0  0  0
   -2.5637    1.0590    5.7483 H   0  0  0  0  0  0  0  0  0  0  0  0
   -2.4435    1.4589    3.1669 N   0  0  0  0  0  0  0  0  0  0  0  0
   -2.1966    1.8850    1.8145 C   0  0  2  0  0  0  0  0  0  0  0  0
   -0.8617    1.2996    1.3733 C   0  0  0  0  0  0  0  0  0  0  0  0
    0.0104    0.9468    2.1646 O   0  0  0  0  0  0  0  0  0  0  0  0
   -2.1879    3.4017    1.7050 C   0  0  0  0  0  0  0  0  0  0  0  0
   -3.2085    1.8948    3.6787 H   0  0  0  0  0  0  0  0  0  0  0  0
   -3.0007    1.4665    1.1994 H   0  0  0  0  0  0  0  0  0  0  0  0
   -1.3888    3.8390    2.3147 H   0  0  0  0  0  0  0  0  0  0  0  0
   -2.0284    3.7240    0.6708 H   0  0  0  0  0  0  0  0  0  0  0  0
   -3.1380    3.8230    2.0508 H   0  0  0  0  0  0  0  0  0  0  0  0
   -0.7390    1.2565   -0.0101 N   0  0  0  0  0  0  0  0  0  0  0  0
    0.4383    0.7557   -0.6738 C   0  0  2  0  0  0  0  0  0  0  0  0
    1.5202    1.8212   -0.5379 C   0  0  0  0  0  0  0  0  0  0  0  0
    2.7033    1.6102   -0.7961 O   0  0  0  0  0  0  0  0  0  0  0  0
    0.1807    0.4432   -2.1523 C   0  0  0  0  0  0  0  0  0  0  0  0
   -0.8234   -0.6664   -2.3480 C   0  0  0  0  0  0  0  0  0  0  0  0
   -0.5011   -1.9839   -2.1279 N   0  3  0  0  0  0  0  0  0  0  0  0
   -2.1309   -0.6421   -2.7437 C   0  0  0  0  0  0  0  0  0  0  0  0
   -1.5671   -2.7512   -2.3775 C   0  0  0  0  0  0  0  0  0  0  0  0
   -2.5656   -1.9456   -2.7535 N   0  0  0  0  0  0  0  0  0  0  0  0
   -1.5221    1.5532   -0.5874 H   0  0  0  0  0  0  0  0  0  0  0  0
    0.7479   -0.1420   -0.1257 H   0  0  0  0  0  0  0  0  0  0  0  0
    1.1217    0.1829   -2.6557 H   0  0  0  0  0  0  0  0  0  0  0  0
   -0.1876    1.3362   -2.6745 H   0  0  0  0  0  0  0  0  0  0  0  0
    0.4058   -2.3272   -1.8238 H   0  0  0  0  0  0  0  0  0  0  0  0
   -2.8342    0.1154   -3.0273 H   0  0  0  0  0  0  0  0  0  0  0  0
   -1.6128   -3.8240   -2.2918 H   0  0  0  0  0  0  0  0  0  0  0  0
   -3.5003   -2.2526   -3.0075 H   0  0  0  0  0  0  0  0  0  0  0  0
    0.9976    3.0449   -0.1432 N   0  0  0  0  0  0  0  0  0  0  0  0
    1.8038    4.2307    0.0384 C   0  0  2  0  0  0  0  0  0  0  0  0
    2.9890    3.8629    0.9213 C   0  0  0  0  0  0  0  0  0  0  0  0
    2.9840    2.8985    1.6834 O   0  0  0  0  0  0  0  0  0  0  0  0
    0.9950    5.3602    0.6569 C   0  0  0  0  0  0  0  0  0  0  0  0
   -0.0017    3.1104    0.0267 H   0  0  0  0  0  0  0  0  0  0  0  0
    2.1638    4.5233   -0.9540 H   0  0  0  0  0  0  0  0  0  0  0  0
    0.6258    5.0854    1.6518 H   0  0  0  0  0  0  0  0  0  0  0  0
    1.5994    6.2666    0.7675 H   0  0  0  0  0  0  0  0  0  0  0  0
    0.1263    5.6033    0.0355 H   0  0  0  0  0  0  0  0  0  0  0  0
    4.0368    4.7635    0.7900 N   0  0  0  0  0  0  0  0  0  0  0  0
    5.2694    4.6391    1.5325 C   0  0  0  0  0  0  0  0  0  0  0  0
    3.9616    5.5234    0.1202 H   0  0  0  0  0  0  0  0  0  0  0  0
    5.1984    5.2226    2.4623 H   0  0  0  0  0  0  0  0  0  0  0  0
    5.4453    3.5810    1.7763 H   0  0  0  0  0  0  0  0  0  0  0  0
    6.1036    5.0188    0.9243 H   0  0  0  0  0  0  0  0  0  0  0  0
 22 24  2  0  0  0  0
 24 26  1  0  0  0  0
 25 26  1  0  0  0  0
 23 25  2  0  0  0  0
 21 22  1  0  0  0  0
 22 23  1  0  0  0  0
  1  3  1  0  0  0  0
  1  7  1  0  0  0  0
  1  2  2  0  0  0  0
 36 37  1  0  0  0  0
 37 45  1  0  0  0  0
 37 38  2  0  0  0  0
  8  9  1  0  0  0  0
  9 17  1  0  0  0  0
  9 10  2  0  0  0  0
 18 19  1  0  0  0  0
 19 35  1  0  0  0  0
 19 20  2  0  0  0  0
 36 39  1  0  0  0  0
  8 11  1  0  0  0  0
 45 46  1  0  0  0  0
 18 21  1  0  0  0  0
 35 36  1  0  0  0  0
  7  8  1  0  0  0  0
 17 18  1  0  0  0  0
 24 32  1  0  0  0  0
 25 33  1  0  0  0  0
  3  4  1  0  0  0  0
  3  5  1  0  0  0  0
  3  6  1  0  0  0  0
 39 42  1  0  0  0  0
 39 43  1  0  0  0  0
 39 44  1  0  0  0  0
 11 14  1  0  0  0  0
 11 15  1  0  0  0  0
 11 16  1  0  0  0  0
 46 48  1  0  0  0  0
 46 49  1  0  0  0  0
 46 50  1  0  0  0  0
 21 29  1  0  0  0  0
 21 30  1  0  0  0  0
 36 41  1  0  0  0  0
  8 13  1  0  0  0  0
 18 28  1  0  0  0  0
 26 34  1  0  0  0  0
 23 31  1  0  0  0  0
 45 47  1  0  0  0  0
  7 12  1  0  0  0  0
 35 40  1  0  0  0  0
 17 27  1  0  0  0  0
M  CHG  1  23   1
M  END
$$$$

  -OEChem-05262214473D

 50 50  0     1  0  0  0  0  0999 V2000
   -1.6938    0.4865    3.8080 C   0  0  0  0  0  0  0  0  0  0  0  0
   -0.7464   -0.1282    3.3323 O   0  0  0  0  0  0  0  0  0  0  0  0
   -2.1257    0.2041    5.2087 C   0  0  0  0  0  0  0  0  0  0  0  0
   -2.8853   -0.5922    5.2621 H   0  0  0  0  0  0  0  0  0  0  0  0
   -1.2944   -0.1435    5.8430 H   0  0  0  0  0  0  0  0  0  0  0  0
   -2.5637    1.0590    5.7483 H   0  0  0  0  0  0  0  0  0  0  0  0
   -2.4435    1.4589    3.1669 N   0  0  0  0  0  0  0  0  0  0  0  0
   -2.1966    1.8850    1.8145 C   0  0  2  0  0  0  0  0  0  0  0  0
   -0.8617    1.2996    1.3733 C   0  0  0  0  0  0  0  0  0  0  0  0
    0.0104    0.9468    2.1646 O   0  0  0  0  0  0  0  0  0  0  0  0
   -2.1879    3.4017    1.7050 C   0  0  0  0  0  0  0  0  0  0  0  0
   -3.2085    1.8948    3.6787 H   0  0  0  0  0  0  0  0  0  0  0  0
   -3.0007    1.4665    1.1994 H   0  0  0  0  0  0  0  0  0  0  0  0
   -1.3888    3.8390    2.3147 H   0  0  0  0  0  0  0  0  0  0  0  0
   -2.0284    3.7240    0.6708 H   0  0  0  0  0  0  0  0  0  0  0  0
   -3.1380    3.8230    2.0508 H   0  0  0  0  0  0  0  0  0  0  0  0
   -0.7390    1.2565   -0.0101 N   0  0  0  0  0  0  0  0  0  0  0  0
    0.4383    0.7557   -0.6738 C   0  0  2  0  0  0  0  0  0  0  0  0
    1.5202    1.8212   -0.5379 C   0  0  0  0  0  0  0  0  0  0  0  0
    2.6373    1.7080   -1.0380 O   0  0  0  0  0  0  0  0  0  0  0  0
    0.1807    0.4432   -2.1523 C   0  0  0  0  0  0  0  0  0  0  0  0
   -0.8234   -0.6664   -2.3480 C   0  0  0  0  0  0  0  0  0  0  0  0
   -0.5011   -1.9839   -2.1279 N   0  3  0  0  0  0  0  0  0  0  0  0
   -2.1309   -0.6421   -2.7437 C   0  0  0  0  0  0  0  0  0  0  0  0
   -1.5671   -2.7512   -2.3775 C   0  0  0  0  0  0  0  0  0  0  0  0
   -2.5656   -1.9456   -2.7535 N   0  0  0  0  0  0  0  0  0  0  0  0
   -1.5221    1.5532   -0.5874 H   0  0  0  0  0  0  0  0  0  0  0  0
    0.7479   -0.1420   -0.1257 H   0  0  0  0  0  0  0  0  0  0  0  0
    1.1217    0.1829   -2.6557 H   0  0  0  0  0  0  0  0  0  0  0  0
   -0.1876    1.3362   -2.6745 H   0  0  0  0  0  0  0  0  0  0  0  0
    0.4058   -2.3272   -1.8238 H   0  0  0  0  0  0  0  0  0  0  0  0
   -2.8342    0.1154   -3.0273 H   0  0  0  0  0  0  0  0  0  0  0  0
   -1.6128   -3.8240   -2.2918 H   0  0  0  0  0  0  0  0  0  0  0  0
   -3.5003   -2.2526   -3.0075 H   0  0  0  0  0  0  0  0  0  0  0  0
    1.0712    2.9310    0.1643 N   0  0  0  0  0  0  0  0  0  0  0  0
    1.8896    4.0954    0.4159 C   0  0  2  0  0  0  0  0  0  0  0  0
    3.2187    3.6211    0.9888 C   0  0  0  0  0  0  0  0  0  0  0  0
    3.3592    2.5349    1.5468 O   0  0  0  0  0  0  0  0  0  0  0  0
    1.2008    5.0606    1.3680 C   0  0  0  0  0  0  0  0  0  0  0  0
    0.1195    2.9246    0.5192 H   0  0  0  0  0  0  0  0  0  0  0  0
    2.0601    4.5775   -0.5529 H   0  0  0  0  0  0  0  0  0  0  0  0
    1.0216    4.5953    2.3441 H   0  0  0  0  0  0  0  0  0  0  0  0
    1.8096    5.9553    1.5351 H   0  0  0  0  0  0  0  0  0  0  0  0
    0.2316    5.3775    0.9680 H   0  0  0  0  0  0  0  0  0  0  0  0
    4.2192    4.5717    0.8419 N   0  0  0  0  0  0  0  0  0  0  0  0
    5.5676    4.3639    1.3160 C   0  0  0  0  0  0  0  0  0  0  0  0
    4.0180    5.4369    0.3494 H   0  0  0  0  0  0  0  0  0  0  0  0
    5.6644    4.7656    2.3354 H   0  0  0  0  0  0  0  0  0  0  0  0
    5.7916    3.2870    1.3235 H   0  0  0  0  0  0  0  0  0  0  0  0
    6.2740    4.8808    0.6498 H   0  0  0  0  0  0  0  0  0  0  0  0
 22 24  2  0  0  0  0
 24 26  1  0  0  0  0
 25 26  1  0  0  0  0
 23 25  2  0  0  0  0
 21 22  1  0  0  0  0
 22 23  1  0  0  0  0
  1  3  1  0  0  0  0
  1  7  1  0  0  0  0
  1  2  2  0  0  0  0
 36 37  1  0  0  0  0
 37 45  1  0  0  0  0
 37 38  2  0  0  0  0
  8  9  1  0  0  0  0
  9 17  1  0  0  0  0
  9 10  2  0  0  0  0
 18 19  1  0  0  0  0
 19 35  1  0  0  0  0
 19 20  2  0  0  0  0
 36 39  1  0  0  0  0
  8 11  1  0  0  0  0
 45 46  1  0  0  0  0
 18 21  1  0  0  0  0
 35 36  1  0  0  0  0
  7  8  1  0  0  0  0
 17 18  1  0  0  0  0
 24 32  1  0  0  0  0
 25 33  1  0  0  0  0
  3  4  1  0  0  0  0
  3  5  1  0  0  0  0
  3  6  1  0  0  0  0
 39 42  1  0  0  0  0
 39 43  1  0  0  0  0
 39 44  1  0  0  0  0
 11 14  1  0  0  0  0
 11 15  1  0  0  0  0
 11 16  1  0  0  0  0
 46 48  1  0  0  0  0
 46 49  1  0  0  0  0
 46 50  1  0  0  0  0
 21 29  1  0  0  0  0
 21 30  1  0  0  0  0
 36 41  1  0  0  0  0
  8 13  1  0  0  0  0
 18 28  1  0  0  0  0
 26 34  1  0  0  0  0
 23 31  1  0  0  0  0
 45 47  1  0  0  0  0
  7 12  1  0  0  0  0
 35 40  1  0  0  0  0
 17 27  1  0  0  0  0
M  CHG  1  23   1
M  END
$$$$

  -OEChem-05262214473D

 50 50  0     1  0  0  0  0  0999 V2000
   -1.6938    0.4865    3.8080 C   0  0  0  0  0  0  0  0  0  0  0  0
   -0.7464   -0.1282    3.3323 O   0  0  0  0  0  0  0  0  0  0  0  0
   -2.1257    0.2041    5.2087 C   0  0  0  0  0  0  0  0  0  0  0  0
   -2.8853   -0.5922    5.2621 H   0  0  0  0  0  0  0  0  0  0  0  0
   -1.2944   -0.1435    5.8430 H   0  0  0  0  0  0  0  0  0  0  0  0
   -2.5637    1.0590    5.7483 H   0  0  0  0  0  0  0  0  0  0  0  0
   -2.4435    1.4589    3.1669 N   0  0  0  0  0  0  0  0  0  0  0  0
   -2.1966    1.8850    1.8145 C   0  0  2  0  0  0  0  0  0  0  0  0
   -0.8617    1.2996    1.3733 C   0  0  0  0  0  0  0  0  0  0  0  0
    0.0104    0.9468    2.1646 O   0  0  0  0  0  0  0  0  0  0  0  0
   -2.1879    3.4017    1.7050 C   0  0  0  0  0  0  0  0  0  0  0  0
   -3.2085    1.8948    3.6787 H   0  0  0  0  0  0  0  0  0  0  0  0
   -3.0007    1.4665    1.1994 H   0  0  0  0  0  0  0  0  0  0  0  0
   -1.3888    3.8390    2.3147 H   0  0  0  0  0  0  0  0  0  0  0  0
   -2.0284    3.7240    0.6708 H   0  0  0  0  0  0  0  0  0  0  0  0
   -3.1380    3.8230    2.0508 H   0  0  0  0  0  0  0  0  0  0  0  0
   -0.7390    1.2565   -0.0101 N   0  0  0  0  0  0  0  0  0  0  0  0
    0.4383    0.7557   -0.6738 C   0  0  2  0  0  0  0  0  0  0  0  0
    1.5202    1.8212   -0.5379 C   0  0  0  0  0  0  0  0  0  0  0  0
    2.5276    1.8454   -1.2418 O   0  0  0  0  0  0  0  0  0  0  0  0
    0.1807    0.4432   -2.1523 C   0  0  0  0  0  0  0  0  0  0  0  0
   -0.8234   -0.6664   -2.3480 C   0  0  0  0  0  0  0  0  0  0  0  0
   -0.5011   -1.9839   -2.1279 N   0  3  0  0  0  0  0  0  0  0  0  0
   -2.1309   -0.6421   -2.7437 C   0  0  0  0  0  0  0  0  0  0  0  0
   -1.5671   -2.7512   -2.3775 C   0  0  0  0  0  0  0  0  0  0  0  0
   -2.5656   -1.9456   -2.7535 N   0  0  0  0  0  0  0  0  0  0  0  0
   -1.5221    1.5532   -0.5874 H   0  0  0  0  0  0  0  0  0  0  0  0
    0.7479   -0.1420   -0.1257 H   0  0  0  0  0  0  0  0  0  0  0  0
    1.1217    0.1829   -2.6557 H   0  0  0  0  0  0  0  0  0  0  0  0
   -0.1876    1.3362   -2.6745 H   0  0  0  0  0  0  0  0  0  0  0  0
    0.4058   -2.3272   -1.8238 H   0  0  0  0  0  0  0  0  0  0  0  0
   -2.8342    0.1154   -3.0273 H   0  0  0  0  0  0  0  0  0  0  0  0
   -1.6128   -3.8240   -2.2918 H   0  0  0  0  0  0  0  0  0  0  0  0
   -3.5003   -2.2526   -3.0075 H   0  0  0  0  0  0  0  0  0  0  0  0
    1.2005    2.7663    0.4270 N   0  0  0  0  0  0  0  0  0  0  0  0
    2.0440    3.8973    0.7401 C   0  0  2  0  0  0  0  0  0  0  0  0
    3.4583    3.3804    0.9680 C   0  0  0  0  0  0  0  0  0  0  0  0
    3.7053    2.2174    1.2803 O   0  0  0  0  0  0  0  0  0  0  0  0
    1.5351    4.6454    1.9625 C   0  0  0  0  0  0  0  0  0  0  0  0
    0.3299    2.6575    0.9388 H   0  0  0  0  0  0  0  0  0  0  0  0
    2.0313    4.5537   -0.1368 H   0  0  0  0  0  0  0  0  0  0  0  0
    1.5405    4.0037    2.8512 H   0  0  0  0  0  0  0  0  0  0  0  0
    2.1587    5.5184    2.1814 H   0  0  0  0  0  0  0  0  0  0  0  0
    0.5071    4.9906    1.8081 H   0  0  0  0  0  0  0  0  0  0  0  0
    4.4092    4.3810    0.8239 N   0  0  0  0  0  0  0  0  0  0  0  0
    5.8228    4.1447    1.0023 C   0  0  0  0  0  0  0  0  0  0  0  0
    4.1159    5.3126    0.5448 H   0  0  0  0  0  0  0  0  0  0  0  0
    6.1021    4.3582    2.0447 H   0  0  0  0  0  0  0  0  0  0  0  0
    6.0511    3.0942    0.7695 H   0  0  0  0  0  0  0  0  0  0  0  0
    6.3922    4.8018    0.3284 H   0  0  0  0  0  0  0  0  0  0  0  0
 22 24  2  0  0  0  0
 24 26  1  0  0  0  0
 25 26  1  0  0  0  0
 23 25  2  0  0  0  0
 21 22  1  0  0  0  0
 22 23  1  0  0  0  0
  1  3  1  0  0  0  0
  1  7  1  0  0  0  0
  1  2  2  0  0  0  0
 36 37  1  0  0  0  0
 37 45  1  0  0  0  0
 37 38  2  0  0  0  0
  8  9  1  0  0  0  0
  9 17  1  0  0  0  0
  9 10  2  0  0  0  0
 18 19  1  0  0  0  0
 19 35  1  0  0  0  0
 19 20  2  0  0  0  0
 36 39  1  0  0  0  0
  8 11  1  0  0  0  0
 45 46  1  0  0  0  0
 18 21  1  0  0  0  0
 35 36  1  0  0  0  0
  7  8  1  0  0  0  0
 17 18  1  0  0  0  0
 24 32  1  0  0  0  0
 25 33  1  0  0  0  0
  3  4  1  0  0  0  0
  3  5  1  0  0  0  0
  3  6  1  0  0  0  0
 39 42  1  0  0  0  0
 39 43  1  0  0  0  0
 39 44  1  0  0  0  0
 11 14  1  0  0  0  0
 11 15  1  0  0  0  0
 11 16  1  0  0  0  0
 46 48  1  0  0  0  0
 46 49  1  0  0  0  0
 46 50  1  0  0  0  0
 21 29  1  0  0  0  0
 21 30  1  0  0  0  0
 36 41  1  0  0  0  0
  8 13  1  0  0  0  0
 18 28  1  0  0  0  0
 26 34  1  0  0  0  0
 23 31  1  0  0  0  0
 45 47  1  0  0  0  0
  7 12  1  0  0  0  0
 35 40  1  0  0  0  0
 17 27  1  0  0  0  0
M  CHG  1  23   1
M  END
$$$$

  -OEChem-05262214473D

 50 50  0     1  0  0  0  0  0999 V2000
   -1.6938    0.4865    3.8080 C   0  0  0  0  0  0  0  0  0  0  0  0
   -0.7464   -0.1282    3.3323 O   0  0  0  0  0  0  0  0  0  0  0  0
   -2.1257    0.2041    5.2087 C   0  0  0  0  0  0  0  0  0  0  0  0
   -2.8853   -0.5922    5.2621 H   0  0  0  0  0  0  0  0  0  0  0  0
   -1.2944   -0.1435    5.8430 H   0  0  0  0  0  0  0  0  0  0  0  0
   -2.5637    1.0590    5.7483 H   0  0  0  0  0  0  0  0  0  0  0  0
   -2.4435    1.4589    3.1669 N   0  0  0  0  0  0  0  0  0  0  0  0
   -2.1966    1.8850    1.8145 C   0  0  2  0  0  0  0  0  0  0  0  0
   -0.8617    1.2996    1.3733 C   0  0  0  0  0  0  0  0  0  0  0  0
    0.0104    0.9468    2.1646 O   0  0  0  0  0  0  0  0  0  0  0  0
   -2.1879    3.4017    1.7050 C   0  0  0  0  0  0  0  0  0  0  0  0
   -3.2085    1.8948    3.6787 H   0  0  0  0  0  0  0  0  0  0  0  0
   -3.0007    1.4665    1.1994 H   0  0  0  0  0  0  0  0  0  0  0  0
   -1.3888    3.8390    2.3147 H   0  0  0  0  0  0  0  0  0  0  0  0
   -2.0284    3.7240    0.6708 H   0  0  0  0  0  0  0  0  0  0  0  0
   -3.1380    3.8230    2.0508 H   0  0  0  0  0  0  0  0  0  0  0  0
   -0.7390    1.2565   -0.0101 N   0  0  0  0  0  0  0  0  0  0  0  0
    0.4383    0.7557   -0.6738 C   0  0  2  0  0  0  0  0  0  0  0  0
    1.5202    1.8212   -0.5379 C   0  0  0  0  0  0  0  0  0  0  0  0
    2.3816    2.0130   -1.3936 O   0  0  0  0  0  0  0  0  0  0  0  0
    0.1807    0.4432   -2.1523 C   0  0  0  0  0  0  0  0  0  0  0  0
   -0.8234   -0.6664   -2.3480 C   0  0  0  0  0  0  0  0  0  0  0  0
   -0.5011   -1.9839   -2.1279 N   0  3  0  0  0  0  0  0  0  0  0  0
   -2.1309   -0.6421   -2.7437 C   0  0  0  0  0  0  0  0  0  0  0  0
   -1.5671   -2.7512   -2.3775 C   0  0  0  0  0  0  0  0  0  0  0  0
   -2.5656   -1.9456   -2.7535 N   0  0  0  0  0  0  0  0  0  0  0  0
   -1.5221    1.5532   -0.5874 H   0  0  0  0  0  0  0  0  0  0  0  0
    0.7479   -0.1420   -0.1257 H   0  0  0  0  0  0  0  0  0  0  0  0
    1.1217    0.1829   -2.6557 H   0  0  0  0  0  0  0  0  0  0  0  0
   -0.1876    1.3362   -2.6745 H   0  0  0  0  0  0  0  0  0  0  0  0
    0.4058   -2.3272   -1.8238 H   0  0  0  0  0  0  0  0  0  0  0  0
   -2.8342    0.1154   -3.0273 H   0  0  0  0  0  0  0  0  0  0  0  0
   -1.6128   -3.8240   -2.2918 H   0  0  0  0  0  0  0  0  0  0  0  0
   -3.5003   -2.2526   -3.0075 H   0  0  0  0  0  0  0  0  0  0  0  0
    1.3767    2.5618    0.6271 N   0  0  0  0  0  0  0  0  0  0  0  0
    2.2563    3.6500    0.9891 C   0  0  2  0  0  0  0  0  0  0  0  0
    3.6916    3.1573    0.8604 C   0  0  0  0  0  0  0  0  0  0  0  0
    3.9987    1.9677    0.9019 O   0  0  0  0  0  0  0  0  0  0  0  0
    1.9751    4.1428    2.4000 C   0  0  0  0  0  0  0  0  0  0  0  0
    0.6152    2.3272    1.2570 H   0  0  0  0  0  0  0  0  0  0  0  0
    2.0792    4.4537    0.2660 H   0  0  0  0  0  0  0  0  0  0  0  0
    2.1471    3.3512    3.1385 H   0  0  0  0  0  0  0  0  0  0  0  0
    2.6229    4.9858    2.6623 H   0  0  0  0  0  0  0  0  0  0  0  0
    0.9341    4.4690    2.4988 H   0  0  0  0  0  0  0  0  0  0  0  0
    4.5938    4.2046    0.7371 N   0  0  0  0  0  0  0  0  0  0  0  0
    6.0177    3.9965    0.6130 C   0  0  0  0  0  0  0  0  0  0  0  0
    4.2487    5.1589    0.6929 H   0  0  0  0  0  0  0  0  0  0  0  0
    6.4817    4.0282    1.6098 H   0  0  0  0  0  0  0  0  0  0  0  0
    6.2059    3.0157    0.1520 H   0  0  0  0  0  0  0  0  0  0  0  0
    6.4500    4.7872   -0.0179 H   0  0  0  0  0  0  0  0  0  0  0  0
 22 24  2  0  0  0  0
 24 26  1  0  0  0  0
 25 26  1  0  0  0  0
 23 25  2  0  0  0  0
 21 22  1  0  0  0  0
 22 23  1  0  0  0  0
  1  3  1  0  0  0  0
  1  7  1  0  0  0  0
  1  2  2  0  0  0  0
 36 37  1  0  0  0  0
 37 45  1  0  0  0  0
 37 38  2  0  0  0  0
  8  9  1  0  0  0  0
  9 17  1  0  0  0  0
  9 10  2  0  0  0  0
 18 19  1  0  0  0  0
 19 35  1  0  0  0  0
 19 20  2  0  0  0  0
 36 39  1  0  0  0  0
  8 11  1  0  0  0  0
 45 46  1  0  0  0  0
 18 21  1  0  0  0  0
 35 36  1  0  0  0  0
  7  8  1  0  0  0  0
 17 18  1  0  0  0  0
 24 32  1  0  0  0  0
 25 33  1  0  0  0  0
  3  4  1  0  0  0  0
  3  5  1  0  0  0  0
  3  6  1  0  0  0  0
 39 42  1  0  0  0  0
 39 43  1  0  0  0  0
 39 44  1  0  0  0  0
 11 14  1  0  0  0  0
 11 15  1  0  0  0  0
 11 16  1  0  0  0  0
 46 48  1  0  0  0  0
 46 49  1  0  0  0  0
 46 50  1  0  0  0  0
 21 29  1  0  0  0  0
 21 30  1  0  0  0  0
 36 41  1  0  0  0  0
  8 13  1  0  0  0  0
 18 28  1  0  0  0  0
 26 34  1  0  0  0  0
 23 31  1  0  0  0  0
 45 47  1  0  0  0  0
  7 12  1  0  0  0  0
 35 40  1  0  0  0  0
 17 27  1  0  0  0  0
M  CHG  1  23   1
M  END
$$$$

  -OEChem-05262214473D

 50 50  0     1  0  0  0  0  0999 V2000
   -1.6938    0.4865    3.8080 C   0  0  0  0  0  0  0  0  0  0  0  0
   -0.7464   -0.1282    3.3323 O   0  0  0  0  0  0  0  0  0  0  0  0
   -2.1257    0.2041    5.2087 C   0  0  0  0  0  0  0  0  0  0  0  0
   -2.8853   -0.5922    5.2621 H   0  0  0  0  0  0  0  0  0  0  0  0
   -1.2944   -0.1435    5.8430 H   0  0  0  0  0  0  0  0  0  0  0  0
   -2.5637    1.0590    5.7483 H   0  0  0  0  0  0  0  0  0  0  0  0
   -2.4435    1.4589    3.1669 N   0  0  0  0  0  0  0  0  0  0  0  0
   -2.1966    1.8850    1.8145 C   0  0  2  0  0  0  0  0  0  0  0  0
   -0.8617    1.2996    1.3733 C   0  0  0  0  0  0  0  0  0  0  0  0
    0.0104    0.9468    2.1646 O   0  0  0  0  0  0  0  0  0  0  0  0
   -2.1879    3.4017    1.7050 C   0  0  0  0  0  0  0  0  0  0  0  0
   -3.2085    1.8948    3.6787 H   0  0  0  0  0  0  0  0  0  0  0  0
   -3.0007    1.4665    1.1994 H   0  0  0  0  0  0  0  0  0  0  0  0
   -1.3888    3.8390    2.3147 H   0  0  0  0  0  0  0  0  0  0  0  0
   -2.0284    3.7240    0.6708 H   0  0  0  0  0  0  0  0  0  0  0  0
   -3.1380    3.8230    2.0508 H   0  0  0  0  0  0  0  0  0  0  0  0
   -0.7390    1.2565   -0.0101 N   0  0  0  0  0  0  0  0  0  0  0  0
    0.4383    0.7557   -0.6738 C   0  0  2  0  0  0  0  0  0  0  0  0
    1.5202    1.8212   -0.5379 C   0  0  0  0  0  0  0  0  0  0  0  0
    2.2092    2.1994   -1.4830 O   0  0  0  0  0  0  0  0  0  0  0  0
    0.1807    0.4432   -2.1523 C   0  0  0  0  0  0  0  0  0  0  0  0
   -0.8234   -0.6664   -2.3480 C   0  0  0  0  0  0  0  0  0  0  0  0
   -0.5011   -1.9839   -2.1279 N   0  3  0  0  0  0  0  0  0  0  0  0
   -2.1309   -0.6421   -2.7437 C   0  0  0  0  0  0  0  0  0  0  0  0
   -1.5671   -2.7512   -2.3775 C   0  0  0  0  0  0  0  0  0  0  0  0
   -2.5656   -1.9456   -2.7535 N   0  0  0  0  0  0  0  0  0  0  0  0
   -1.5221    1.5532   -0.5874 H   0  0  0  0  0  0  0  0  0  0  0  0
    0.7479   -0.1420   -0.1257 H   0  0  0  0  0  0  0  0  0  0  0  0
    1.1217    0.1829   -2.6557 H   0  0  0  0  0  0  0  0  0  0  0  0
   -0.1876    1.3362   -2.6745 H   0  0  0  0  0  0  0  0  0  0  0  0
    0.4058   -2.3272   -1.8238 H   0  0  0  0  0  0  0  0  0  0  0  0
   -2.8342    0.1154   -3.0273 H   0  0  0  0  0  0  0  0  0  0  0  0
   -1.6128   -3.8240   -2.2918 H   0  0  0  0  0  0  0  0  0  0  0  0
   -3.5003   -2.2526   -3.0075 H   0  0  0  0  0  0  0  0  0  0  0  0
    1.5878    2.3317    0.7510 N   0  0  0  0  0  0  0  0  0  0  0  0
    2.5121    3.3703    1.1457 C   0  0  2  0  0  0  0  0  0  0  0  0
    3.9026    2.9669    0.6733 C   0  0  0  0  0  0  0  0  0  0  0  0
    4.2194    1.8028    0.4375 O   0  0  0  0  0  0  0  0  0  0  0  0
    2.4909    3.5871    2.6507 C   0  0  0  0  0  0  0  0  0  0  0  0
    0.9559    1.9564    1.4521 H   0  0  0  0  0  0  0  0  0  0  0  0
    2.2007    4.2842    0.6280 H   0  0  0  0  0  0  0  0  0  0  0  0
    2.8000    2.6821    3.1864 H   0  0  0  0  0  0  0  0  0  0  0  0
    3.1705    4.3937    2.9450 H   0  0  0  0  0  0  0  0  0  0  0  0
    1.4836    3.8481    2.9928 H   0  0  0  0  0  0  0  0  0  0  0  0
    4.7606    4.0544    0.5875 N   0  0  0  0  0  0  0  0  0  0  0  0
    6.1389    3.9294    0.1744 C   0  0  0  0  0  0  0  0  0  0  0  0
    4.4073    4.9863    0.7838 H   0  0  0  0  0  0  0  0  0  0  0  0
    6.7773    3.7980    1.0605 H   0  0  0  0  0  0  0  0  0  0  0  0
    6.2456    3.0568   -0.4869 H   0  0  0  0  0  0  0  0  0  0  0  0
    6.4435    4.8380   -0.3655 H   0  0  0  0  0  0  0  0  0  0  0  0
 22 24  2  0  0  0  0
 24 26  1  0  0  0  0
 25 26  1  0  0  0  0
 23 25  2  0  0  0  0
 21 22  1  0  0  0  0
 22 23  1  0  0  0  0
  1  3  1  0  0  0  0
  1  7  1  0  0  0  0
  1  2  2  0  0  0  0
 36 37  1  0  0  0  0
 37 45  1  0  0  0  0
 37 38  2  0  0  0  0
  8  9  1  0  0  0  0
  9 17  1  0  0  0  0
  9 10  2  0  0  0  0
 18 19  1  0  0  0  0
 19 35  1  0  0  0  0
 19 20  2  0  0  0  0
 36 39  1  0  0  0  0
  8 11  1  0  0  0  0
 45 46  1  0  0  0  0
 18 21  1  0  0  0  0
 35 36  1  0  0  0  0
  7  8  1  0  0  0  0
 17 18  1  0  0  0  0
 24 32  1  0  0  0  0
 25 33  1  0  0  0  0
  3  4  1  0  0  0  0
  3  5  1  0  0  0  0
  3  6  1  0  0  0  0
 39 42  1  0  0  0  0
 39 43  1  0  0  0  0
 39 44  1  0  0  0  0
 11 14  1  0  0  0  0
 11 15  1  0  0  0  0
 11 16  1  0  0  0  0
 46 48  1  0  0  0  0
 46 49  1  0  0  0  0
 46 50  1  0  0  0  0
 21 29  1  0  0  0  0
 21 30  1  0  0  0  0
 36 41  1  0  0  0  0
  8 13  1  0  0  0  0
 18 28  1  0  0  0  0
 26 34  1  0  0  0  0
 23 31  1  0  0  0  0
 45 47  1  0  0  0  0
  7 12  1  0  0  0  0
 35 40  1  0  0  0  0
 17 27  1  0  0  0  0
M  CHG  1  23   1
M  END
$$$$

  -OEChem-05262214473D

 50 50  0     1  0  0  0  0  0999 V2000
   -1.6938    0.4865    3.8080 C   0  0  0  0  0  0  0  0  0  0  0  0
   -0.7464   -0.1282    3.3323 O   0  0  0  0  0  0  0  0  0  0  0  0
   -2.1257    0.2041    5.2087 C   0  0  0  0  0  0  0  0  0  0  0  0
   -2.8853   -0.5922    5.2621 H   0  0  0  0  0  0  0  0  0  0  0  0
   -1.2944   -0.1435    5.8430 H   0  0  0  0  0  0  0  0  0  0  0  0
   -2.5637    1.0590    5.7483 H   0  0  0  0  0  0  0  0  0  0  0  0
   -2.4435    1.4589    3.1669 N   0  0  0  0  0  0  0  0  0  0  0  0
   -2.1966    1.8850    1.8145 C   0  0  2  0  0  0  0  0  0  0  0  0
   -0.8617    1.2996    1.3733 C   0  0  0  0  0  0  0  0  0  0  0  0
    0.0104    0.9468    2.1646 O   0  0  0  0  0  0  0  0  0  0  0  0
   -2.1879    3.4017    1.7050 C   0  0  0  0  0  0  0  0  0  0  0  0
   -3.2085    1.8948    3.6787 H   0  0  0  0  0  0  0  0  0  0  0  0
   -3.0007    1.4665    1.1994 H   0  0  0  0  0  0  0  0  0  0  0  0
   -1.3888    3.8390    2.3147 H   0  0  0  0  0  0  0  0  0  0  0  0
   -2.0284    3.7240    0.6708 H   0  0  0  0  0  0  0  0  0  0  0  0
   -3.1380    3.8230    2.0508 H   0  0  0  0  0  0  0  0  0  0  0  0
   -0.7390    1.2565   -0.0101 N   0  0  0  0  0  0  0  0  0  0  0  0
    0.4383    0.7557   -0.6738 C   0  0  2  0  0  0  0  0  0  0  0  0
    1.5202    1.8212   -0.5379 C   0  0  0  0  0  0  0  0  0  0  0  0
    2.0223    2.3919   -1.5039 O   0  0  0  0  0  0  0  0  0  0  0  0
    0.1807    0.4432   -2.1523 C   0  0  0  0  0  0  0  0  0  0  0  0
   -0.8234   -0.6664   -2.3480 C   0  0  0  0  0  0  0  0  0  0  0  0
   -0.5011   -1.9839   -2.1279 N   0  3  0  0  0  0  0  0  0  0  0  0
   -2.1309   -0.6421   -2.7437 C   0  0  0  0  0  0  0  0  0  0  0  0
   -1.5671   -2.7512   -2.3775 C   0  0  0  0  0  0  0  0  0  0  0  0
   -2.5656   -1.9456   -2.7535 N   0  0  0  0  0  0  0  0  0  0  0  0
   -1.5221    1.5532   -0.5874 H   0  0  0  0  0  0  0  0  0  0  0  0
    0.7479   -0.1420   -0.1257 H   0  0  0  0  0  0  0  0  0  0  0  0
    1.1217    0.1829   -2.6557 H   0  0  0  0  0  0  0  0  0  0  0  0
   -0.1876    1.3362   -2.6745 H   0  0  0  0  0  0  0  0  0  0  0  0
    0.4058   -2.3272   -1.8238 H   0  0  0  0  0  0  0  0  0  0  0  0
   -2.8342    0.1154   -3.0273 H   0  0  0  0  0  0  0  0  0  0  0  0
   -1.6128   -3.8240   -2.2918 H   0  0  0  0  0  0  0  0  0  0  0  0
   -3.5003   -2.2526   -3.0075 H   0  0  0  0  0  0  0  0  0  0  0  0
    1.8195    2.0915    0.7902 N   0  0  0  0  0  0  0  0  0  0  0  0
    2.7939    3.0773    1.1993 C   0  0  2  0  0  0  0  0  0  0  0  0
    4.0769    2.8222    0.4194 C   0  0  0  0  0  0  0  0  0  0  0  0
    4.3524    1.7339   -0.0814 O   0  0  0  0  0  0  0  0  0  0  0  0
    3.0473    3.0162    2.6976 C   0  0  0  0  0  0  0  0  0  0  0  0
    1.3289    1.5702    1.5108 H   0  0  0  0  0  0  0  0  0  0  0  0
    2.3874    4.0567    0.9246 H   0  0  0  0  0  0  0  0  0  0  0  0
    3.4548    2.0421    2.9918 H   0  0  0  0  0  0  0  0  0  0  0  0
    3.7643    3.7824    3.0103 H   0  0  0  0  0  0  0  0  0  0  0  0
    2.1180    3.1703    3.2566 H   0  0  0  0  0  0  0  0  0  0  0  0
    4.8980    3.9406    0.3852 N   0  0  0  0  0  0  0  0  0  0  0  0
    6.1781    3.9478   -0.2835 C   0  0  0  0  0  0  0  0  0  0  0  0
    4.5809    4.8065    0.8112 H   0  0  0  0  0  0  0  0  0  0  0  0
    6.9688    3.6834    0.4341 H   0  0  0  0  0  0  0  0  0  0  0  0
    6.1674    3.2148   -1.1036 H   0  0  0  0  0  0  0  0  0  0  0  0
    6.3733    4.9509   -0.6908 H   0  0  0  0  0  0  0  0  0  0  0  0
 22 24  2  0  0  0  0
 24 26  1  0  0  0  0
 25 26  1  0  0  0  0
 23 25  2  0  0  0  0
 21 22  1  0  0  0  0
 22 23  1  0  0  0  0
  1  3  1  0  0  0  0
  1  7  1  0  0  0  0
  1  2  2  0  0  0  0
 36 37  1  0  0  0  0
 37 45  1  0  0  0  0
 37 38  2  0  0  0  0
  8  9  1  0  0  0  0
  9 17  1  0  0  0  0
  9 10  2  0  0  0  0
 18 19  1  0  0  0  0
 19 35  1  0  0  0  0
 19 20  2  0  0  0  0
 36 39  1  0  0  0  0
  8 11  1  0  0  0  0
 45 46  1  0  0  0  0
 18 21  1  0  0  0  0
 35 36  1  0  0  0  0
  7  8  1  0  0  0  0
 17 18  1  0  0  0  0
 24 32  1  0  0  0  0
 25 33  1  0  0  0  0
  3  4  1  0  0  0  0
  3  5  1  0  0  0  0
  3  6  1  0  0  0  0
 39 42  1  0  0  0  0
 39 43  1  0  0  0  0
 39 44  1  0  0  0  0
 11 14  1  0  0  0  0
 11 15  1  0  0  0  0
 11 16  1  0  0  0  0
 46 48  1  0  0  0  0
 46 49  1  0  0  0  0
 46 50  1  0  0  0  0
 21 29  1  0  0  0  0
 21 30  1  0  0  0  0
 36 41  1  0  0  0  0
  8 13  1  0  0  0  0
 18 28  1  0  0  0  0
 26 34  1  0  0  0  0
 23 31  1  0  0  0  0
 45 47  1  0  0  0  0
  7 12  1  0  0  0  0
 35 40  1  0  0  0  0
 17 27  1  0  0  0  0
M  CHG  1  23   1
M  END
$$$$

  -OEChem-05262214473D

 50 50  0     1  0  0  0  0  0999 V2000
   -1.6938    0.4865    3.8080 C   0  0  0  0  0  0  0  0  0  0  0  0
   -0.7464   -0.1282    3.3323 O   0  0  0  0  0  0  0  0  0  0  0  0
   -2.1257    0.2041    5.2087 C   0  0  0  0  0  0  0  0  0  0  0  0
   -2.8853   -0.5922    5.2621 H   0  0  0  0  0  0  0  0  0  0  0  0
   -1.2944   -0.1435    5.8430 H   0  0  0  0  0  0  0  0  0  0  0  0
   -2.5637    1.0590    5.7483 H   0  0  0  0  0  0  0  0  0  0  0  0
   -2.4435    1.4589    3.1669 N   0  0  0  0  0  0  0  0  0  0  0  0
   -2.1966    1.8850    1.8145 C   0  0  2  0  0  0  0  0  0  0  0  0
   -0.8617    1.2996    1.3733 C   0  0  0  0  0  0  0  0  0  0  0  0
    0.0104    0.9468    2.1646 O   0  0  0  0  0  0  0  0  0  0  0  0
   -2.1879    3.4017    1.7050 C   0  0  0  0  0  0  0  0  0  0  0  0
   -3.2085    1.8948    3.6787 H   0  0  0  0  0  0  0  0  0  0  0  0
   -3.0007    1.4665    1.1994 H   0  0  0  0  0  0  0  0  0  0  0  0
   -1.3888    3.8390    2.3147 H   0  0  0  0  0  0  0  0  0  0  0  0
   -2.0284    3.7240    0.6708 H   0  0  0  0  0  0  0  0  0  0  0  0
   -3.1380    3.8230    2.0508 H   0  0  0  0  0  0  0  0  0  0  0  0
   -0.7390    1.2565   -0.0101 N   0  0  0  0  0  0  0  0  0  0  0  0
    0.4383    0.7557   -0.6738 C   0  0  2  0  0  0  0  0  0  0  0  0
    1.5202    1.8212   -0.5379 C   0  0  0  0  0  0  0  0  0  0  0  0
    1.8334    2.5774   -1.4550 O   0  0  0  0  0  0  0  0  0  0  0  0
    0.1807    0.4432   -2.1523 C   0  0  0  0  0  0  0  0  0  0  0  0
   -0.8234   -0.6664   -2.3480 C   0  0  0  0  0  0  0  0  0  0  0  0
   -0.5011   -1.9839   -2.1279 N   0  3  0  0  0  0  0  0  0  0  0  0
   -2.1309   -0.6421   -2.7437 C   0  0  0  0  0  0  0  0  0  0  0  0
   -1.5671   -2.7512   -2.3775 C   0  0  0  0  0  0  0  0  0  0  0  0
   -2.5656   -1.9456   -2.7535 N   0  0  0  0  0  0  0  0  0  0  0  0
   -1.5221    1.5532   -0.5874 H   0  0  0  0  0  0  0  0  0  0  0  0
    0.7479   -0.1420   -0.1257 H   0  0  0  0  0  0  0  0  0  0  0  0
    1.1217    0.1829   -2.6557 H   0  0  0  0  0  0  0  0  0  0  0  0
   -0.1876    1.3362   -2.6745 H   0  0  0  0  0  0  0  0  0  0  0  0
    0.4058   -2.3272   -1.8238 H   0  0  0  0  0  0  0  0  0  0  0  0
   -2.8342    0.1154   -3.0273 H   0  0  0  0  0  0  0  0  0  0  0  0
   -1.6128   -3.8240   -2.2918 H   0  0  0  0  0  0  0  0  0  0  0  0
   -3.5003   -2.2526   -3.0075 H   0  0  0  0  0  0  0  0  0  0  0  0
    2.0558    1.8576    0.7420 N   0  0  0  0  0  0  0  0  0  0  0  0
    3.0826    2.7909    1.1463 C   0  0  2  0  0  0  0  0  0  0  0  0
    4.2028    2.7331    0.1160 C   0  0  0  0  0  0  0  0  0  0  0  0
    4.3886    1.7657   -0.6192 O   0  0  0  0  0  0  0  0  0  0  0  0
    3.6063    2.4690    2.5373 C   0  0  0  0  0  0  0  0  0  0  0  0
    1.7087    1.1949    1.4291 H   0  0  0  0  0  0  0  0  0  0  0  0
    2.6267    3.7869    1.1355 H   0  0  0  0  0  0  0  0  0  0  0  0
    4.0668    1.4747    2.5677 H   0  0  0  0  0  0  0  0  0  0  0  0
    4.3637    3.1937    2.8536 H   0  0  0  0  0  0  0  0  0  0  0  0
    2.7941    2.4817    3.2721 H   0  0  0  0  0  0  0  0  0  0  0  0
    4.9968    3.8710    0.1441 N   0  0  0  0  0  0  0  0  0  0  0  0
    6.1328    4.0507   -0.7295 C   0  0  0  0  0  0  0  0  0  0  0  0
    4.7577    4.6318    0.7732 H   0  0  0  0  0  0  0  0  0  0  0  0
    7.0431    3.6922   -0.2266 H   0  0  0  0  0  0  0  0  0  0  0  0
    5.9767    3.4789   -1.6562 H   0  0  0  0  0  0  0  0  0  0  0  0
    6.2439    5.1180   -0.9715 H   0  0  0  0  0  0  0  0  0  0  0  0
 22 24  2  0  0  0  0
 24 26  1  0  0  0  0
 25 26  1  0  0  0  0
 23 25  2  0  0  0  0
 21 22  1  0  0  0  0
 22 23  1  0  0  0  0
  1  3  1  0  0  0  0
  1  7  1  0  0  0  0
  1  2  2  0  0  0  0
 36 37  1  0  0  0  0
 37 45  1  0  0  0  0
 37 38  2  0  0  0  0
  8  9  1  0  0  0  0
  9 17  1  0  0  0  0
  9 10  2  0  0  0  0
 18 19  1  0  0  0  0
 19 35  1  0  0  0  0
 19 20  2  0  0  0  0
 36 39  1  0  0  0  0
  8 11  1  0  0  0  0
 45 46  1  0  0  0  0
 18 21  1  0  0  0  0
 35 36  1  0  0  0  0
  7  8  1  0  0  0  0
 17 18  1  0  0  0  0
 24 32  1  0  0  0  0
 25 33  1  0  0  0  0
  3  4  1  0  0  0  0
  3  5  1  0  0  0  0
  3  6  1  0  0  0  0
 39 42  1  0  0  0  0
 39 43  1  0  0  0  0
 39 44  1  0  0  0  0
 11 14  1  0  0  0  0
 11 15  1  0  0  0  0
 11 16  1  0  0  0  0
 46 48  1  0  0  0  0
 46 49  1  0  0  0  0
 46 50  1  0  0  0  0
 21 29  1  0  0  0  0
 21 30  1  0  0  0  0
 36 41  1  0  0  0  0
  8 13  1  0  0  0  0
 18 28  1  0  0  0  0
 26 34  1  0  0  0  0
 23 31  1  0  0  0  0
 45 47  1  0  0  0  0
  7 12  1  0  0  0  0
 35 40  1  0  0  0  0
 17 27  1  0  0  0  0
M  CHG  1  23   1
M  END
$$$$

  -OEChem-05262214473D

 50 50  0     1  0  0  0  0  0999 V2000
   -1.6938    0.4865    3.8080 C   0  0  0  0  0  0  0  0  0  0  0  0
   -0.7464   -0.1282    3.3323 O   0  0  0  0  0  0  0  0  0  0  0  0
   -2.1257    0.2041    5.2087 C   0  0  0  0  0  0  0  0  0  0  0  0
   -2.8853   -0.5922    5.2621 H   0  0  0  0  0  0  0  0  0  0  0  0
   -1.2944   -0.1435    5.8430 H   0  0  0  0  0  0  0  0  0  0  0  0
   -2.5637    1.0590    5.7483 H   0  0  0  0  0  0  0  0  0  0  0  0
   -2.4435    1.4589    3.1669 N   0  0  0  0  0  0  0  0  0  0  0  0
   -2.1966    1.8850    1.8145 C   0  0  2  0  0  0  0  0  0  0  0  0
   -0.8617    1.2996    1.3733 C   0  0  0  0  0  0  0  0  0  0  0  0
    0.0104    0.9468    2.1646 O   0  0  0  0  0  0  0  0  0  0  0  0
   -2.1879    3.4017    1.7050 C   0  0  0  0  0  0  0  0  0  0  0  0
   -3.2085    1.8948    3.6787 H   0  0  0  0  0  0  0  0  0  0  0  0
   -3.0007    1.4665    1.1994 H   0  0  0  0  0  0  0  0  0  0  0  0
   -1.3888    3.8390    2.3147 H   0  0  0  0  0  0  0  0  0  0  0  0
   -2.0284    3.7240    0.6708 H   0  0  0  0  0  0  0  0  0  0  0  0
   -3.1380    3.8230    2.0508 H   0  0  0  0  0  0  0  0  0  0  0  0
   -0.7390    1.2565   -0.0101 N   0  0  0  0  0  0  0  0  0  0  0  0
    0.4383    0.7557   -0.6738 C   0  0  2  0  0  0  0  0  0  0  0  0
    1.5202    1.8212   -0.5379 C   0  0  0  0  0  0  0  0  0  0  0  0
    1.6556    2.7432   -1.3394 O   0  0  0  0  0  0  0  0  0  0  0  0
    0.1807    0.4432   -2.1523 C   0  0  0  0  0  0  0  0  0  0  0  0
   -0.8234   -0.6664   -2.3480 C   0  0  0  0  0  0  0  0  0  0  0  0
   -0.5011   -1.9839   -2.1279 N   0  3  0  0  0  0  0  0  0  0  0  0
   -2.1309   -0.6421   -2.7437 C   0  0  0  0  0  0  0  0  0  0  0  0
   -1.5671   -2.7512   -2.3775 C   0  0  0  0  0  0  0  0  0  0  0  0
   -2.5656   -1.9456   -2.7535 N   0  0  0  0  0  0  0  0  0  0  0  0
   -1.5221    1.5532   -0.5874 H   0  0  0  0  0  0  0  0  0  0  0  0
    0.7479   -0.1420   -0.1257 H   0  0  0  0  0  0  0  0  0  0  0  0
    1.1217    0.1829   -2.6557 H   0  0  0  0  0  0  0  0  0  0  0  0
   -0.1876    1.3362   -2.6745 H   0  0  0  0  0  0  0  0  0  0  0  0
    0.4058   -2.3272   -1.8238 H   0  0  0  0  0  0  0  0  0  0  0  0
   -2.8342    0.1154   -3.0273 H   0  0  0  0  0  0  0  0  0  0  0  0
   -1.6128   -3.8240   -2.2918 H   0  0  0  0  0  0  0  0  0  0  0  0
   -3.5003   -2.2526   -3.0075 H   0  0  0  0  0  0  0  0  0  0  0  0
    2.2808    1.6460    0.6097 N   0  0  0  0  0  0  0  0  0  0  0  0
    3.3585    2.5306    0.9903 C   0  0  2  0  0  0  0  0  0  0  0  0
    4.2715    2.7057   -0.2161 C   0  0  0  0  0  0  0  0  0  0  0  0
    4.3256    1.8960   -1.1395 O   0  0  0  0  0  0  0  0  0  0  0  0
    4.1299    1.9827    2.1808 C   0  0  0  0  0  0  0  0  0  0  0  0
    2.0694    0.8563    1.2126 H   0  0  0  0  0  0  0  0  0  0  0  0
    2.9022    3.4930    1.2464 H   0  0  0  0  0  0  0  0  0  0  0  0
    4.5943    1.0187    1.9432 H   0  0  0  0  0  0  0  0  0  0  0  0
    4.9280    2.6677    2.4858 H   0  0  0  0  0  0  0  0  0  0  0  0
    3.4659    1.8294    3.0384 H   0  0  0  0  0  0  0  0  0  0  0  0
    5.0502    3.8504   -0.1195 N   0  0  0  0  0  0  0  0  0  0  0  0
    6.0060    4.2309   -1.1332 C   0  0  0  0  0  0  0  0  0  0  0  0
    4.9256    4.4741    0.6724 H   0  0  0  0  0  0  0  0  0  0  0  0
    6.9951    3.8237   -0.8766 H   0  0  0  0  0  0  0  0  0  0  0  0
    5.6864    3.8311   -2.1069 H   0  0  0  0  0  0  0  0  0  0  0  0
    6.0644    5.3280   -1.1886 H   0  0  0  0  0  0  0  0  0  0  0  0
 22 24  2  0  0  0  0
 24 26  1  0  0  0  0
 25 26  1  0  0  0  0
 23 25  2  0  0  0  0
 21 22  1  0  0  0  0
 22 23  1  0  0  0  0
  1  3  1  0  0  0  0
  1  7  1  0  0  0  0
  1  2  2  0  0  0  0
 36 37  1  0  0  0  0
 37 45  1  0  0  0  0
 37 38  2  0  0  0  0
  8  9  1  0  0  0  0
  9 17  1  0  0  0  0
  9 10  2  0  0  0  0
 18 19  1  0  0  0  0
 19 35  1  0  0  0  0
 19 20  2  0  0  0  0
 36 39  1  0  0  0  0
  8 11  1  0  0  0  0
 45 46  1  0  0  0  0
 18 21  1  0  0  0  0
 35 36  1  0  0  0  0
  7  8  1  0  0  0  0
 17 18  1  0  0  0  0
 24 32  1  0  0  0  0
 25 33  1  0  0  0  0
  3  4  1  0  0  0  0
  3  5  1  0  0  0  0
  3  6  1  0  0  0  0
 39 42  1  0  0  0  0
 39 43  1  0  0  0  0
 39 44  1  0  0  0  0
 11 14  1  0  0  0  0
 11 15  1  0  0  0  0
 11 16  1  0  0  0  0
 46 48  1  0  0  0  0
 46 49  1  0  0  0  0
 46 50  1  0  0  0  0
 21 29  1  0  0  0  0
 21 30  1  0  0  0  0
 36 41  1  0  0  0  0
  8 13  1  0  0  0  0
 18 28  1  0  0  0  0
 26 34  1  0  0  0  0
 23 31  1  0  0  0  0
 45 47  1  0  0  0  0
  7 12  1  0  0  0  0
 35 40  1  0  0  0  0
 17 27  1  0  0  0  0
M  CHG  1  23   1
M  END
$$$$

  -OEChem-05262214473D

 50 50  0     1  0  0  0  0  0999 V2000
   -1.6938    0.4865    3.8080 C   0  0  0  0  0  0  0  0  0  0  0  0
   -0.7464   -0.1282    3.3323 O   0  0  0  0  0  0  0  0  0  0  0  0
   -2.1257    0.2041    5.2087 C   0  0  0  0  0  0  0  0  0  0  0  0
   -2.8853   -0.5922    5.2621 H   0  0  0  0  0  0  0  0  0  0  0  0
   -1.2944   -0.1435    5.8430 H   0  0  0  0  0  0  0  0  0  0  0  0
   -2.5637    1.0590    5.7483 H   0  0  0  0  0  0  0  0  0  0  0  0
   -2.4435    1.4589    3.1669 N   0  0  0  0  0  0  0  0  0  0  0  0
   -2.1966    1.8850    1.8145 C   0  0  2  0  0  0  0  0  0  0  0  0
   -0.8617    1.2996    1.3733 C   0  0  0  0  0  0  0  0  0  0  0  0
    0.0104    0.9468    2.1646 O   0  0  0  0  0  0  0  0  0  0  0  0
   -2.1879    3.4017    1.7050 C   0  0  0  0  0  0  0  0  0  0  0  0
   -3.2085    1.8948    3.6787 H   0  0  0  0  0  0  0  0  0  0  0  0
   -3.0007    1.4665    1.1994 H   0  0  0  0  0  0  0  0  0  0  0  0
   -1.3888    3.8390    2.3147 H   0  0  0  0  0  0  0  0  0  0  0  0
   -2.0284    3.7240    0.6708 H   0  0  0  0  0  0  0  0  0  0  0  0
   -3.1380    3.8230    2.0508 H   0  0  0  0  0  0  0  0  0  0  0  0
   -0.7390    1.2565   -0.0101 N   0  0  0  0  0  0  0  0  0  0  0  0
    0.4383    0.7557   -0.6738 C   0  0  2  0  0  0  0  0  0  0  0  0
    1.5202    1.8212   -0.5379 C   0  0  0  0  0  0  0  0  0  0  0  0
    1.5010    2.8781   -1.1653 O   0  0  0  0  0  0  0  0  0  0  0  0
    0.1807    0.4432   -2.1523 C   0  0  0  0  0  0  0  0  0  0  0  0
   -0.8234   -0.6664   -2.3480 C   0  0  0  0  0  0  0  0  0  0  0  0
   -0.5011   -1.9839   -2.1279 N   0  3  0  0  0  0  0  0  0  0  0  0
   -2.1309   -0.6421   -2.7437 C   0  0  0  0  0  0  0  0  0  0  0  0
   -1.5671   -2.7512   -2.3775 C   0  0  0  0  0  0  0  0  0  0  0  0
   -2.5656   -1.9456   -2.7535 N   0  0  0  0  0  0  0  0  0  0  0  0
   -1.5221    1.5532   -0.5874 H   0  0  0  0  0  0  0  0  0  0  0  0
    0.7479   -0.1420   -0.1257 H   0  0  0  0  0  0  0  0  0  0  0  0
    1.1217    0.1829   -2.6557 H   0  0  0  0  0  0  0  0  0  0  0  0
   -0.1876    1.3362   -2.6745 H   0  0  0  0  0  0  0  0  0  0  0  0
    0.4058   -2.3272   -1.8238 H   0  0  0  0  0  0  0  0  0  0  0  0
   -2.8342    0.1154   -3.0273 H   0  0  0  0  0  0  0  0  0  0  0  0
   -1.6128   -3.8240   -2.2918 H   0  0  0  0  0  0  0  0  0  0  0  0
   -3.5003   -2.2526   -3.0075 H   0  0  0  0  0  0  0  0  0  0  0  0
    2.4791    1.4711    0.4025 N   0  0  0  0  0  0  0  0  0  0  0  0
    3.6028    2.3143    0.7419 C   0  0  2  0  0  0  0  0  0  0  0  0
    4.2784    2.7417   -0.5544 C   0  0  0  0  0  0  0  0  0  0  0  0
    4.1676    2.1160   -1.6066 O   0  0  0  0  0  0  0  0  0  0  0  0
    4.5824    1.5906    1.6525 C   0  0  0  0  0  0  0  0  0  0  0  0
    2.3865    0.5772    0.8760 H   0  0  0  0  0  0  0  0  0  0  0  0
    3.1951    3.1952    1.2497 H   0  0  0  0  0  0  0  0  0  0  0  0
    5.0014    0.7050    1.1608 H   0  0  0  0  0  0  0  0  0  0  0  0
    5.4186    2.2401    1.9318 H   0  0  0  0  0  0  0  0  0  0  0  0
    4.0876    1.2577    2.5712 H   0  0  0  0  0  0  0  0  0  0  0  0
    5.0546    3.8801   -0.3876 N   0  0  0  0  0  0  0  0  0  0  0  0
    5.8064    4.4762   -1.4671 C   0  0  0  0  0  0  0  0  0  0  0  0
    5.0732    4.3442    0.5157 H   0  0  0  0  0  0  0  0  0  0  0  0
    6.8282    4.0691   -1.4716 H   0  0  0  0  0  0  0  0  0  0  0  0
    5.3164    4.2474   -2.4250 H   0  0  0  0  0  0  0  0  0  0  0  0
    5.8468    5.5665   -1.3273 H   0  0  0  0  0  0  0  0  0  0  0  0
 22 24  2  0  0  0  0
 24 26  1  0  0  0  0
 25 26  1  0  0  0  0
 23 25  2  0  0  0  0
 21 22  1  0  0  0  0
 22 23  1  0  0  0  0
  1  3  1  0  0  0  0
  1  7  1  0  0  0  0
  1  2  2  0  0  0  0
 36 37  1  0  0  0  0
 37 45  1  0  0  0  0
 37 38  2  0  0  0  0
  8  9  1  0  0  0  0
  9 17  1  0  0  0  0
  9 10  2  0  0  0  0
 18 19  1  0  0  0  0
 19 35  1  0  0  0  0
 19 20  2  0  0  0  0
 36 39  1  0  0  0  0
  8 11  1  0  0  0  0
 45 46  1  0  0  0  0
 18 21  1  0  0  0  0
 35 36  1  0  0  0  0
  7  8  1  0  0  0  0
 17 18  1  0  0  0  0
 24 32  1  0  0  0  0
 25 33  1  0  0  0  0
  3  4  1  0  0  0  0
  3  5  1  0  0  0  0
  3  6  1  0  0  0  0
 39 42  1  0  0  0  0
 39 43  1  0  0  0  0
 39 44  1  0  0  0  0
 11 14  1  0  0  0  0
 11 15  1  0  0  0  0
 11 16  1  0  0  0  0
 46 48  1  0  0  0  0
 46 49  1  0  0  0  0
 46 50  1  0  0  0  0
 21 29  1  0  0  0  0
 21 30  1  0  0  0  0
 36 41  1  0  0  0  0
  8 13  1  0  0  0  0
 18 28  1  0  0  0  0
 26 34  1  0  0  0  0
 23 31  1  0  0  0  0
 45 47  1  0  0  0  0
  7 12  1  0  0  0  0
 35 40  1  0  0  0  0
 17 27  1  0  0  0  0
M  CHG  1  23   1
M  END
$$$$

  -OEChem-05262214473D

 50 50  0     1  0  0  0  0  0999 V2000
   -1.6938    0.4865    3.8080 C   0  0  0  0  0  0  0  0  0  0  0  0
   -0.7464   -0.1282    3.3323 O   0  0  0  0  0  0  0  0  0  0  0  0
   -2.1257    0.2041    5.2087 C   0  0  0  0  0  0  0  0  0  0  0  0
   -2.8853   -0.5922    5.2621 H   0  0  0  0  0  0  0  0  0  0  0  0
   -1.2944   -0.1435    5.8430 H   0  0  0  0  0  0  0  0  0  0  0  0
   -2.5637    1.0590    5.7483 H   0  0  0  0  0  0  0  0  0  0  0  0
   -2.4435    1.4589    3.1669 N   0  0  0  0  0  0  0  0  0  0  0  0
   -2.1966    1.8850    1.8145 C   0  0  2  0  0  0  0  0  0  0  0  0
   -0.8617    1.2996    1.3733 C   0  0  0  0  0  0  0  0  0  0  0  0
    0.0104    0.9468    2.1646 O   0  0  0  0  0  0  0  0  0  0  0  0
   -2.1879    3.4017    1.7050 C   0  0  0  0  0  0  0  0  0  0  0  0
   -3.2085    1.8948    3.6787 H   0  0  0  0  0  0  0  0  0  0  0  0
   -3.0007    1.4665    1.1994 H   0  0  0  0  0  0  0  0  0  0  0  0
   -1.3888    3.8390    2.3147 H   0  0  0  0  0  0  0  0  0  0  0  0
   -2.0284    3.7240    0.6708 H   0  0  0  0  0  0  0  0  0  0  0  0
   -3.1380    3.8230    2.0508 H   0  0  0  0  0  0  0  0  0  0  0  0
   -0.7390    1.2565   -0.0101 N   0  0  0  0  0  0  0  0  0  0  0  0
    0.4383    0.7557   -0.6738 C   0  0  2  0  0  0  0  0  0  0  0  0
    1.5202    1.8212   -0.5379 C   0  0  0  0  0  0  0  0  0  0  0  0
    1.3800    2.9728   -0.9442 O   0  0  0  0  0  0  0  0  0  0  0  0
    0.1807    0.4432   -2.1523 C   0  0  0  0  0  0  0  0  0  0  0  0
   -0.8234   -0.6664   -2.3480 C   0  0  0  0  0  0  0  0  0  0  0  0
   -0.5011   -1.9839   -2.1279 N   0  3  0  0  0  0  0  0  0  0  0  0
   -2.1309   -0.6421   -2.7437 C   0  0  0  0  0  0  0  0  0  0  0  0
   -1.5671   -2.7512   -2.3775 C   0  0  0  0  0  0  0  0  0  0  0  0
   -2.5656   -1.9456   -2.7535 N   0  0  0  0  0  0  0  0  0  0  0  0
   -1.5221    1.5532   -0.5874 H   0  0  0  0  0  0  0  0  0  0  0  0
    0.7479   -0.1420   -0.1257 H   0  0  0  0  0  0  0  0  0  0  0  0
    1.1217    0.1829   -2.6557 H   0  0  0  0  0  0  0  0  0  0  0  0
   -0.1876    1.3362   -2.6745 H   0  0  0  0  0  0  0  0  0  0  0  0
    0.4058   -2.3272   -1.8238 H   0  0  0  0  0  0  0  0  0  0  0  0
   -2.8342    0.1154   -3.0273 H   0  0  0  0  0  0  0  0  0  0  0  0
   -1.6128   -3.8240   -2.2918 H   0  0  0  0  0  0  0  0  0  0  0  0
   -3.5003   -2.2526   -3.0075 H   0  0  0  0  0  0  0  0  0  0  0  0
    2.6372    1.3447    0.1342 N   0  0  0  0  0  0  0  0  0  0  0  0
    3.7988    2.1565    0.4180 C   0  0  2  0  0  0  0  0  0  0  0  0
    4.2231    2.8389   -0.8758 C   0  0  0  0  0  0  0  0  0  0  0  0
    3.9253    2.4107   -1.9889 O   0  0  0  0  0  0  0  0  0  0  0  0
    4.9330    1.3193    0.9883 C   0  0  0  0  0  0  0  0  0  0  0  0
    2.6383    0.3768    0.4422 H   0  0  0  0  0  0  0  0  0  0  0  0
    3.4855    2.9136    1.1451 H   0  0  0  0  0  0  0  0  0  0  0  0
    5.2603    0.5552    0.2738 H   0  0  0  0  0  0  0  0  0  0  0  0
    5.8021    1.9402    1.2293 H   0  0  0  0  0  0  0  0  0  0  0  0
    4.6167    0.8057    1.9026 H   0  0  0  0  0  0  0  0  0  0  0  0
    5.0097    3.9581   -0.6418 N   0  0  0  0  0  0  0  0  0  0  0  0
    5.5474    4.7699   -1.7085 C   0  0  0  0  0  0  0  0  0  0  0  0
    5.1905    4.2509    0.3139 H   0  0  0  0  0  0  0  0  0  0  0  0
    6.5537    4.4115   -1.9711 H   0  0  0  0  0  0  0  0  0  0  0  0
    4.8918    4.6994   -2.5890 H   0  0  0  0  0  0  0  0  0  0  0  0
    5.6061    5.8174   -1.3780 H   0  0  0  0  0  0  0  0  0  0  0  0
 22 24  2  0  0  0  0
 24 26  1  0  0  0  0
 25 26  1  0  0  0  0
 23 25  2  0  0  0  0
 21 22  1  0  0  0  0
 22 23  1  0  0  0  0
  1  3  1  0  0  0  0
  1  7  1  0  0  0  0
  1  2  2  0  0  0  0
 36 37  1  0  0  0  0
 37 45  1  0  0  0  0
 37 38  2  0  0  0  0
  8  9  1  0  0  0  0
  9 17  1  0  0  0  0
  9 10  2  0  0  0  0
 18 19  1  0  0  0  0
 19 35  1  0  0  0  0
 19 20  2  0  0  0  0
 36 39  1  0  0  0  0
  8 11  1  0  0  0  0
 45 46  1  0  0  0  0
 18 21  1  0  0  0  0
 35 36  1  0  0  0  0
  7  8  1  0  0  0  0
 17 18  1  0  0  0  0
 24 32  1  0  0  0  0
 25 33  1  0  0  0  0
  3  4  1  0  0  0  0
  3  5  1  0  0  0  0
  3  6  1  0  0  0  0
 39 42  1  0  0  0  0
 39 43  1  0  0  0  0
 39 44  1  0  0  0  0
 11 14  1  0  0  0  0
 11 15  1  0  0  0  0
 11 16  1  0  0  0  0
 46 48  1  0  0  0  0
 46 49  1  0  0  0  0
 46 50  1  0  0  0  0
 21 29  1  0  0  0  0
 21 30  1  0  0  0  0
 36 41  1  0  0  0  0
  8 13  1  0  0  0  0
 18 28  1  0  0  0  0
 26 34  1  0  0  0  0
 23 31  1  0  0  0  0
 45 47  1  0  0  0  0
  7 12  1  0  0  0  0
 35 40  1  0  0  0  0
 17 27  1  0  0  0  0
M  CHG  1  23   1
M  END
$$$$

  -OEChem-05262214473D

 50 50  0     1  0  0  0  0  0999 V2000
   -1.6938    0.4865    3.8080 C   0  0  0  0  0  0  0  0  0  0  0  0
   -0.7464   -0.1282    3.3323 O   0  0  0  0  0  0  0  0  0  0  0  0
   -2.1257    0.2041    5.2087 C   0  0  0  0  0  0  0  0  0  0  0  0
   -2.8853   -0.5922    5.2621 H   0  0  0  0  0  0  0  0  0  0  0  0
   -1.2944   -0.1435    5.8430 H   0  0  0  0  0  0  0  0  0  0  0  0
   -2.5637    1.0590    5.7483 H   0  0  0  0  0  0  0  0  0  0  0  0
   -2.4435    1.4589    3.1669 N   0  0  0  0  0  0  0  0  0  0  0  0
   -2.1966    1.8850    1.8145 C   0  0  2  0  0  0  0  0  0  0  0  0
   -0.8617    1.2996    1.3733 C   0  0  0  0  0  0  0  0  0  0  0  0
    0.0104    0.9468    2.1646 O   0  0  0  0  0  0  0  0  0  0  0  0
   -2.1879    3.4017    1.7050 C   0  0  0  0  0  0  0  0  0  0  0  0
   -3.2085    1.8948    3.6787 H   0  0  0  0  0  0  0  0  0  0  0  0
   -3.0007    1.4665    1.1994 H   0  0  0  0  0  0  0  0  0  0  0  0
   -1.3888    3.8390    2.3147 H   0  0  0  0  0  0  0  0  0  0  0  0
   -2.0284    3.7240    0.6708 H   0  0  0  0  0  0  0  0  0  0  0  0
   -3.1380    3.8230    2.0508 H   0  0  0  0  0  0  0  0  0  0  0  0
   -0.7390    1.2565   -0.0101 N   0  0  0  0  0  0  0  0  0  0  0  0
    0.4383    0.7557   -0.6738 C   0  0  2  0  0  0  0  0  0  0  0  0
    1.5202    1.8212   -0.5379 C   0  0  0  0  0  0  0  0  0  0  0  0
    1.3009    3.0209   -0.6915 O   0  0  0  0  0  0  0  0  0  0  0  0
    0.1807    0.4432   -2.1523 C   0  0  0  0  0  0  0  0  0  0  0  0
   -0.8234   -0.6664   -2.3480 C   0  0  0  0  0  0  0  0  0  0  0  0
   -0.5011   -1.9839   -2.1279 N   0  3  0  0  0  0  0  0  0  0  0  0
   -2.1309   -0.6421   -2.7437 C   0  0  0  0  0  0  0  0  0  0  0  0
   -1.5671   -2.7512   -2.3775 C   0  0  0  0  0  0  0  0  0  0  0  0
   -2.5656   -1.9456   -2.7535 N   0  0  0  0  0  0  0  0  0  0  0  0
   -1.5221    1.5532   -0.5874 H   0  0  0  0  0  0  0  0  0  0  0  0
    0.7479   -0.1420   -0.1257 H   0  0  0  0  0  0  0  0  0  0  0  0
    1.1217    0.1829   -2.6557 H   0  0  0  0  0  0  0  0  0  0  0  0
   -0.1876    1.3362   -2.6745 H   0  0  0  0  0  0  0  0  0  0  0  0
    0.4058   -2.3272   -1.8238 H   0  0  0  0  0  0  0  0  0  0  0  0
   -2.8342    0.1154   -3.0273 H   0  0  0  0  0  0  0  0  0  0  0  0
   -1.6128   -3.8240   -2.2918 H   0  0  0  0  0  0  0  0  0  0  0  0
   -3.5003   -2.2526   -3.0075 H   0  0  0  0  0  0  0  0  0  0  0  0
    2.7443    1.2756   -0.1767 N   0  0  0  0  0  0  0  0  0  0  0  0
    3.9331    2.0682    0.0407 C   0  0  2  0  0  0  0  0  0  0  0  0
    4.1093    2.9905   -1.1584 C   0  0  0  0  0  0  0  0  0  0  0  0
    3.6155    2.7599   -2.2602 O   0  0  0  0  0  0  0  0  0  0  0  0
    5.1577    1.1873    0.2335 C   0  0  0  0  0  0  0  0  0  0  0  0
    2.8077    0.2687   -0.0591 H   0  0  0  0  0  0  0  0  0  0  0  0
    3.7537    2.6675    0.9399 H   0  0  0  0  0  0  0  0  0  0  0  0
    5.3534    0.5793   -0.6573 H   0  0  0  0  0  0  0  0  0  0  0  0
    6.0525    1.7884    0.4264 H   0  0  0  0  0  0  0  0  0  0  0  0
    5.0173    0.5040    1.0780 H   0  0  0  0  0  0  0  0  0  0  0  0
    4.9185    4.0792   -0.8650 N   0  0  0  0  0  0  0  0  0  0  0  0
    5.2469    5.0919   -1.8409 C   0  0  0  0  0  0  0  0  0  0  0  0
    5.2693    4.2006    0.0805 H   0  0  0  0  0  0  0  0  0  0  0  0
    6.1903    4.8277   -2.3411 H   0  0  0  0  0  0  0  0  0  0  0  0
    4.4417    5.1563   -2.5875 H   0  0  0  0  0  0  0  0  0  0  0  0
    5.3586    6.0636   -1.3374 H   0  0  0  0  0  0  0  0  0  0  0  0
 22 24  2  0  0  0  0
 24 26  1  0  0  0  0
 25 26  1  0  0  0  0
 23 25  2  0  0  0  0
 21 22  1  0  0  0  0
 22 23  1  0  0  0  0
  1  3  1  0  0  0  0
  1  7  1  0  0  0  0
  1  2  2  0  0  0  0
 36 37  1  0  0  0  0
 37 45  1  0  0  0  0
 37 38  2  0  0  0  0
  8  9  1  0  0  0  0
  9 17  1  0  0  0  0
  9 10  2  0  0  0  0
 18 19  1  0  0  0  0
 19 35  1  0  0  0  0
 19 20  2  0  0  0  0
 36 39  1  0  0  0  0
  8 11  1  0  0  0  0
 45 46  1  0  0  0  0
 18 21  1  0  0  0  0
 35 36  1  0  0  0  0
  7  8  1  0  0  0  0
 17 18  1  0  0  0  0
 24 32  1  0  0  0  0
 25 33  1  0  0  0  0
  3  4  1  0  0  0  0
  3  5  1  0  0  0  0
  3  6  1  0  0  0  0
 39 42  1  0  0  0  0
 39 43  1  0  0  0  0
 39 44  1  0  0  0  0
 11 14  1  0  0  0  0
 11 15  1  0  0  0  0
 11 16  1  0  0  0  0
 46 48  1  0  0  0  0
 46 49  1  0  0  0  0
 46 50  1  0  0  0  0
 21 29  1  0  0  0  0
 21 30  1  0  0  0  0
 36 41  1  0  0  0  0
  8 13  1  0  0  0  0
 18 28  1  0  0  0  0
 26 34  1  0  0  0  0
 23 31  1  0  0  0  0
 45 47  1  0  0  0  0
  7 12  1  0  0  0  0
 35 40  1  0  0  0  0
 17 27  1  0  0  0  0
M  CHG  1  23   1
M  END
$$$$

  -OEChem-05262214473D

 50 50  0     1  0  0  0  0  0999 V2000
   -1.6938    0.4865    3.8080 C   0  0  0  0  0  0  0  0  0  0  0  0
   -0.7464   -0.1282    3.3323 O   0  0  0  0  0  0  0  0  0  0  0  0
   -2.1257    0.2041    5.2087 C   0  0  0  0  0  0  0  0  0  0  0  0
   -2.8853   -0.5922    5.2621 H   0  0  0  0  0  0  0  0  0  0  0  0
   -1.2944   -0.1435    5.8430 H   0  0  0  0  0  0  0  0  0  0  0  0
   -2.5637    1.0590    5.7483 H   0  0  0  0  0  0  0  0  0  0  0  0
   -2.4435    1.4589    3.1669 N   0  0  0  0  0  0  0  0  0  0  0  0
   -2.1966    1.8850    1.8145 C   0  0  2  0  0  0  0  0  0  0  0  0
   -0.8617    1.2996    1.3733 C   0  0  0  0  0  0  0  0  0  0  0  0
    0.0104    0.9468    2.1646 O   0  0  0  0  0  0  0  0  0  0  0  0
   -2.1879    3.4017    1.7050 C   0  0  0  0  0  0  0  0  0  0  0  0
   -3.2085    1.8948    3.6787 H   0  0  0  0  0  0  0  0  0  0  0  0
   -3.0007    1.4665    1.1994 H   0  0  0  0  0  0  0  0  0  0  0  0
   -1.3888    3.8390    2.3147 H   0  0  0  0  0  0  0  0  0  0  0  0
   -2.0284    3.7240    0.6708 H   0  0  0  0  0  0  0  0  0  0  0  0
   -3.1380    3.8230    2.0508 H   0  0  0  0  0  0  0  0  0  0  0  0
   -0.7390    1.2565   -0.0101 N   0  0  0  0  0  0  0  0  0  0  0  0
    0.4383    0.7557   -0.6738 C   0  0  2  0  0  0  0  0  0  0  0  0
    1.5202    1.8212   -0.5379 C   0  0  0  0  0  0  0  0  0  0  0  0
    1.2691    3.0191   -0.4242 O   0  0  0  0  0  0  0  0  0  0  0  0
    0.1807    0.4432   -2.1523 C   0  0  0  0  0  0  0  0  0  0  0  0
   -0.8234   -0.6664   -2.3480 C   0  0  0  0  0  0  0  0  0  0  0  0
   -0.5011   -1.9839   -2.1279 N   0  3  0  0  0  0  0  0  0  0  0  0
   -2.1309   -0.6421   -2.7437 C   0  0  0  0  0  0  0  0  0  0  0  0
   -1.5671   -2.7512   -2.3775 C   0  0  0  0  0  0  0  0  0  0  0  0
   -2.5656   -1.9456   -2.7535 N   0  0  0  0  0  0  0  0  0  0  0  0
   -1.5221    1.5532   -0.5874 H   0  0  0  0  0  0  0  0  0  0  0  0
    0.7479   -0.1420   -0.1257 H   0  0  0  0  0  0  0  0  0  0  0  0
    1.1217    0.1829   -2.6557 H   0  0  0  0  0  0  0  0  0  0  0  0
   -0.1876    1.3362   -2.6745 H   0  0  0  0  0  0  0  0  0  0  0  0
    0.4058   -2.3272   -1.8238 H   0  0  0  0  0  0  0  0  0  0  0  0
   -2.8342    0.1154   -3.0273 H   0  0  0  0  0  0  0  0  0  0  0  0
   -1.6128   -3.8240   -2.2918 H   0  0  0  0  0  0  0  0  0  0  0  0
   -3.5003   -2.2526   -3.0075 H   0  0  0  0  0  0  0  0  0  0  0  0
    2.7930    1.2685   -0.5090 N   0  0  0  0  0  0  0  0  0  0  0  0
    3.9967    2.0552   -0.3642 C   0  0  2  0  0  0  0  0  0  0  0  0
    3.9447    3.1862   -1.3829 C   0  0  0  0  0  0  0  0  0  0  0  0
    3.2590    3.1400   -2.4021 O   0  0  0  0  0  0  0  0  0  0  0  0
    5.2413    1.2037   -0.5605 C   0  0  0  0  0  0  0  0  0  0  0  0
    2.8831    0.2603   -0.5939 H   0  0  0  0  0  0  0  0  0  0  0  0
    3.9812    2.4737    0.6480 H   0  0  0  0  0  0  0  0  0  0  0  0
    5.2744    0.7758   -1.5691 H   0  0  0  0  0  0  0  0  0  0  0  0
    6.1525    1.7950   -0.4223 H   0  0  0  0  0  0  0  0  0  0  0  0
    5.2620    0.3733    0.1536 H   0  0  0  0  0  0  0  0  0  0  0  0
    4.7872    4.2350   -1.0418 N   0  0  0  0  0  0  0  0  0  0  0  0
    4.9252    5.4204   -1.8552 C   0  0  0  0  0  0  0  0  0  0  0  0
    5.3045    4.1966   -0.1684 H   0  0  0  0  0  0  0  0  0  0  0  0
    5.7627    5.2892   -2.5562 H   0  0  0  0  0  0  0  0  0  0  0  0
    3.9966    5.5870   -2.4207 H   0  0  0  0  0  0  0  0  0  0  0  0
    5.1213    6.2881   -1.2082 H   0  0  0  0  0  0  0  0  0  0  0  0
 22 24  2  0  0  0  0
 24 26  1  0  0  0  0
 25 26  1  0  0  0  0
 23 25  2  0  0  0  0
 21 22  1  0  0  0  0
 22 23  1  0  0  0  0
  1  3  1  0  0  0  0
  1  7  1  0  0  0  0
  1  2  2  0  0  0  0
 36 37  1  0  0  0  0
 37 45  1  0  0  0  0
 37 38  2  0  0  0  0
  8  9  1  0  0  0  0
  9 17  1  0  0  0  0
  9 10  2  0  0  0  0
 18 19  1  0  0  0  0
 19 35  1  0  0  0  0
 19 20  2  0  0  0  0
 36 39  1  0  0  0  0
  8 11  1  0  0  0  0
 45 46  1  0  0  0  0
 18 21  1  0  0  0  0
 35 36  1  0  0  0  0
  7  8  1  0  0  0  0
 17 18  1  0  0  0  0
 24 32  1  0  0  0  0
 25 33  1  0  0  0  0
  3  4  1  0  0  0  0
  3  5  1  0  0  0  0
  3  6  1  0  0  0  0
 39 42  1  0  0  0  0
 39 43  1  0  0  0  0
 39 44  1  0  0  0  0
 11 14  1  0  0  0  0
 11 15  1  0  0  0  0
 11 16  1  0  0  0  0
 46 48  1  0  0  0  0
 46 49  1  0  0  0  0
 46 50  1  0  0  0  0
 21 29  1  0  0  0  0
 21 30  1  0  0  0  0
 36 41  1  0  0  0  0
  8 13  1  0  0  0  0
 18 28  1  0  0  0  0
 26 34  1  0  0  0  0
 23 31  1  0  0  0  0
 45 47  1  0  0  0  0
  7 12  1  0  0  0  0
 35 40  1  0  0  0  0
 17 27  1  0  0  0  0
M  CHG  1  23   1
M  END
$$$$

  -OEChem-05262214473D

 50 50  0     1  0  0  0  0  0999 V2000
   -1.6938    0.4865    3.8080 C   0  0  0  0  0  0  0  0  0  0  0  0
   -0.7464   -0.1282    3.3323 O   0  0  0  0  0  0  0  0  0  0  0  0
   -2.1257    0.2041    5.2087 C   0  0  0  0  0  0  0  0  0  0  0  0
   -2.8853   -0.5922    5.2621 H   0  0  0  0  0  0  0  0  0  0  0  0
   -1.2944   -0.1435    5.8430 H   0  0  0  0  0  0  0  0  0  0  0  0
   -2.5637    1.0590    5.7483 H   0  0  0  0  0  0  0  0  0  0  0  0
   -2.4435    1.4589    3.1669 N   0  0  0  0  0  0  0  0  0  0  0  0
   -2.1966    1.8850    1.8145 C   0  0  2  0  0  0  0  0  0  0  0  0
   -0.8617    1.2996    1.3733 C   0  0  0  0  0  0  0  0  0  0  0  0
    0.0104    0.9468    2.1646 O   0  0  0  0  0  0  0  0  0  0  0  0
   -2.1879    3.4017    1.7050 C   0  0  0  0  0  0  0  0  0  0  0  0
   -3.2085    1.8948    3.6787 H   0  0  0  0  0  0  0  0  0  0  0  0
   -3.0007    1.4665    1.1994 H   0  0  0  0  0  0  0  0  0  0  0  0
   -1.3888    3.8390    2.3147 H   0  0  0  0  0  0  0  0  0  0  0  0
   -2.0284    3.7240    0.6708 H   0  0  0  0  0  0  0  0  0  0  0  0
   -3.1380    3.8230    2.0508 H   0  0  0  0  0  0  0  0  0  0  0  0
   -0.7390    1.2565   -0.0101 N   0  0  0  0  0  0  0  0  0  0  0  0
    0.4383    0.7557   -0.6738 C   0  0  2  0  0  0  0  0  0  0  0  0
    1.5202    1.8212   -0.5379 C   0  0  0  0  0  0  0  0  0  0  0  0
    1.2868    2.9675   -0.1606 O   0  0  0  0  0  0  0  0  0  0  0  0
    0.1807    0.4432   -2.1523 C   0  0  0  0  0  0  0  0  0  0  0  0
   -0.8234   -0.6664   -2.3480 C   0  0  0  0  0  0  0  0  0  0  0  0
   -0.5011   -1.9839   -2.1279 N   0  3  0  0  0  0  0  0  0  0  0  0
   -2.1309   -0.6421   -2.7437 C   0  0  0  0  0  0  0  0  0  0  0  0
   -1.5671   -2.7512   -2.3775 C   0  0  0  0  0  0  0  0  0  0  0  0
   -2.5656   -1.9456   -2.7535 N   0  0  0  0  0  0  0  0  0  0  0  0
   -1.5221    1.5532   -0.5874 H   0  0  0  0  0  0  0  0  0  0  0  0
    0.7479   -0.1420   -0.1257 H   0  0  0  0  0  0  0  0  0  0  0  0
    1.1217    0.1829   -2.6557 H   0  0  0  0  0  0  0  0  0  0  0  0
   -0.1876    1.3362   -2.6745 H   0  0  0  0  0  0  0  0  0  0  0  0
    0.4058   -2.3272   -1.8238 H   0  0  0  0  0  0  0  0  0  0  0  0
   -2.8342    0.1154   -3.0273 H   0  0  0  0  0  0  0  0  0  0  0  0
   -1.6128   -3.8240   -2.2918 H   0  0  0  0  0  0  0  0  0  0  0  0
   -3.5003   -2.2526   -3.0075 H   0  0  0  0  0  0  0  0  0  0  0  0
    2.7802    1.3237   -0.8402 N   0  0  0  0  0  0  0  0  0  0  0  0
    3.9852    2.1186   -0.7692 C   0  0  2  0  0  0  0  0  0  0  0  0
    3.7407    3.4127   -1.5341 C   0  0  0  0  0  0  0  0  0  0  0  0
    2.8803    3.5249   -2.4048 O   0  0  0  0  0  0  0  0  0  0  0  0
    5.1780    1.3672   -1.3396 C   0  0  0  0  0  0  0  0  0  0  0  0
    2.8594    0.3521   -1.1256 H   0  0  0  0  0  0  0  0  0  0  0  0
    4.1526    2.3453    0.2893 H   0  0  0  0  0  0  0  0  0  0  0  0
    5.0286    1.1312   -2.3995 H   0  0  0  0  0  0  0  0  0  0  0  0
    6.0955    1.9595   -1.2591 H   0  0  0  0  0  0  0  0  0  0  0  0
    5.3342    0.4225   -0.8076 H   0  0  0  0  0  0  0  0  0  0  0  0
    4.6249    4.4149   -1.1602 N   0  0  0  0  0  0  0  0  0  0  0  0
    4.6044    5.7329   -1.7506 C   0  0  0  0  0  0  0  0  0  0  0  0
    5.2935    4.2393   -0.4159 H   0  0  0  0  0  0  0  0  0  0  0  0
    5.3002    5.7647   -2.6019 H   0  0  0  0  0  0  0  0  0  0  0  0
    3.5869    5.9621   -2.1000 H   0  0  0  0  0  0  0  0  0  0  0  0
    4.9102    6.4758   -0.9993 H   0  0  0  0  0  0  0  0  0  0  0  0
 22 24  2  0  0  0  0
 24 26  1  0  0  0  0
 25 26  1  0  0  0  0
 23 25  2  0  0  0  0
 21 22  1  0  0  0  0
 22 23  1  0  0  0  0
  1  3  1  0  0  0  0
  1  7  1  0  0  0  0
  1  2  2  0  0  0  0
 36 37  1  0  0  0  0
 37 45  1  0  0  0  0
 37 38  2  0  0  0  0
  8  9  1  0  0  0  0
  9 17  1  0  0  0  0
  9 10  2  0  0  0  0
 18 19  1  0  0  0  0
 19 35  1  0  0  0  0
 19 20  2  0  0  0  0
 36 39  1  0  0  0  0
  8 11  1  0  0  0  0
 45 46  1  0  0  0  0
 18 21  1  0  0  0  0
 35 36  1  0  0  0  0
  7  8  1  0  0  0  0
 17 18  1  0  0  0  0
 24 32  1  0  0  0  0
 25 33  1  0  0  0  0
  3  4  1  0  0  0  0
  3  5  1  0  0  0  0
  3  6  1  0  0  0  0
 39 42  1  0  0  0  0
 39 43  1  0  0  0  0
 39 44  1  0  0  0  0
 11 14  1  0  0  0  0
 11 15  1  0  0  0  0
 11 16  1  0  0  0  0
 46 48  1  0  0  0  0
 46 49  1  0  0  0  0
 46 50  1  0  0  0  0
 21 29  1  0  0  0  0
 21 30  1  0  0  0  0
 36 41  1  0  0  0  0
  8 13  1  0  0  0  0
 18 28  1  0  0  0  0
 26 34  1  0  0  0  0
 23 31  1  0  0  0  0
 45 47  1  0  0  0  0
  7 12  1  0  0  0  0
 35 40  1  0  0  0  0
 17 27  1  0  0  0  0
M  CHG  1  23   1
M  END
$$$$

  -OEChem-05262214473D

 50 50  0     1  0  0  0  0  0999 V2000
   -1.6938    0.4865    3.8080 C   0  0  0  0  0  0  0  0  0  0  0  0
   -0.7464   -0.1282    3.3323 O   0  0  0  0  0  0  0  0  0  0  0  0
   -2.1257    0.2041    5.2087 C   0  0  0  0  0  0  0  0  0  0  0  0
   -2.8853   -0.5922    5.2621 H   0  0  0  0  0  0  0  0  0  0  0  0
   -1.2944   -0.1435    5.8430 H   0  0  0  0  0  0  0  0  0  0  0  0
   -2.5637    1.0590    5.7483 H   0  0  0  0  0  0  0  0  0  0  0  0
   -2.4435    1.4589    3.1669 N   0  0  0  0  0  0  0  0  0  0  0  0
   -2.1966    1.8850    1.8145 C   0  0  2  0  0  0  0  0  0  0  0  0
   -0.8617    1.2996    1.3733 C   0  0  0  0  0  0  0  0  0  0  0  0
    0.0104    0.9468    2.1646 O   0  0  0  0  0  0  0  0  0  0  0  0
   -2.1879    3.4017    1.7050 C   0  0  0  0  0  0  0  0  0  0  0  0
   -3.2085    1.8948    3.6787 H   0  0  0  0  0  0  0  0  0  0  0  0
   -3.0007    1.4665    1.1994 H   0  0  0  0  0  0  0  0  0  0  0  0
   -1.3888    3.8390    2.3147 H   0  0  0  0  0  0  0  0  0  0  0  0
   -2.0284    3.7240    0.6708 H   0  0  0  0  0  0  0  0  0  0  0  0
   -3.1380    3.8230    2.0508 H   0  0  0  0  0  0  0  0  0  0  0  0
   -0.7390    1.2565   -0.0101 N   0  0  0  0  0  0  0  0  0  0  0  0
    0.4383    0.7557   -0.6738 C   0  0  2  0  0  0  0  0  0  0  0  0
    1.6107    1.6219   -0.2271 C   0  0  0  0  0  0  0  0  0  0  0  0
    1.4963    2.5330    0.5900 O   0  0  0  0  0  0  0  0  0  0  0  0
    0.3013    0.7903   -2.2003 C   0  0  0  0  0  0  0  0  0  0  0  0
   -0.7928   -0.1164   -2.7088 C   0  0  0  0  0  0  0  0  0  0  0  0
   -0.6411   -1.4813   -2.7555 N   0  3  0  0  0  0  0  0  0  0  0  0
   -2.0422    0.1572   -3.1894 C   0  0  0  0  0  0  0  0  0  0  0  0
   -1.7534   -2.0368   -3.2469 C   0  0  0  0  0  0  0  0  0  0  0  0
   -2.6137   -1.0492   -3.5151 N   0  0  0  0  0  0  0  0  0  0  0  0
   -1.5221    1.5532   -0.5874 H   0  0  0  0  0  0  0  0  0  0  0  0
    0.5897   -0.2678   -0.3112 H   0  0  0  0  0  0  0  0  0  0  0  0
    1.2549    0.5202   -2.6740 H   0  0  0  0  0  0  0  0  0  0  0  0
    0.0886    1.8115   -2.5432 H   0  0  0  0  0  0  0  0  0  0  0  0
    0.1868   -1.9937   -2.4640 H   0  0  0  0  0  0  0  0  0  0  0  0
   -2.6253    1.0410   -3.3554 H   0  0  0  0  0  0  0  0  0  0  0  0
   -1.9248   -3.0893   -3.3998 H   0  0  0  0  0  0  0  0  0  0  0  0
   -3.5453   -1.1744   -3.9010 H   0  0  0  0  0  0  0  0  0  0  0  0
    2.8043    1.2225   -0.8121 N   0  0  0  0  0  0  0  0  0  0  0  0
    4.0727    1.8604   -0.5423 C   0  0  2  0  0  0  0  0  0  0  0  0
    3.8889    3.3628   -0.7111 C   0  0  0  0  0  0  0  0  0  0  0  0
    2.9885    3.8567   -1.3867 O   0  0  0  0  0  0  0  0  0  0  0  0
    5.1621    1.3389   -1.4664 C   0  0  0  0  0  0  0  0  0  0  0  0
    2.7854    0.4426   -1.4625 H   0  0  0  0  0  0  0  0  0  0  0  0
    4.3234    1.6375    0.5006 H   0  0  0  0  0  0  0  0  0  0  0  0
    4.9284    1.5531   -2.5157 H   0  0  0  0  0  0  0  0  0  0  0  0
    6.1284    1.8023   -1.2418 H   0  0  0  0  0  0  0  0  0  0  0  0
    5.2725    0.2538   -1.3653 H   0  0  0  0  0  0  0  0  0  0  0  0
    4.8742    4.0863   -0.0538 N   0  0  0  0  0  0  0  0  0  0  0  0
    4.9259    5.5295   -0.0736 C   0  0  0  0  0  0  0  0  0  0  0  0
    5.5707    3.5946    0.4984 H   0  0  0  0  0  0  0  0  0  0  0  0
    5.5680    5.8626   -0.9023 H   0  0  0  0  0  0  0  0  0  0  0  0
    3.9111    5.9308   -0.2121 H   0  0  0  0  0  0  0  0  0  0  0  0
    5.3377    5.8947    0.8788 H   0  0  0  0  0  0  0  0  0  0  0  0
 22 24  2  0  0  0  0
 24 26  1  0  0  0  0
 25 26  1  0  0  0  0
 23 25  2  0  0  0  0
 21 22  1  0  0  0  0
 22 23  1  0  0  0  0
  1  3  1  0  0  0  0
  1  7  1  0  0  0  0
  1  2  2  0  0  0  0
 36 37  1  0  0  0  0
 37 45  1  0  0  0  0
 37 38  2  0  0  0  0
  8  9  1  0  0  0  0
  9 17  1  0  0  0  0
  9 10  2  0  0  0  0
 18 19  1  0  0  0  0
 19 35  1  0  0  0  0
 19 20  2  0  0  0  0
 36 39  1  0  0  0  0
  8 11  1  0  0  0  0
 45 46  1  0  0  0  0
 18 21  1  0  0  0  0
 35 36  1  0  0  0  0
  7  8  1  0  0  0  0
 17 18  1  0  0  0  0
 24 32  1  0  0  0  0
 25 33  1  0  0  0  0
  3  4  1  0  0  0  0
  3  5  1  0  0  0  0
  3  6  1  0  0  0  0
 39 42  1  0  0  0  0
 39 43  1  0  0  0  0
 39 44  1  0  0  0  0
 11 14  1  0  0  0  0
 11 15  1  0  0  0  0
 11 16  1  0  0  0  0
 46 48  1  0  0  0  0
 46 49  1  0  0  0  0
 46 50  1  0  0  0  0
 21 29  1  0  0  0  0
 21 30  1  0  0  0  0
 36 41  1  0  0  0  0
  8 13  1  0  0  0  0
 18 28  1  0  0  0  0
 26 34  1  0  0  0  0
 23 31  1  0  0  0  0
 45 47  1  0  0  0  0
  7 12  1  0  0  0  0
 35 40  1  0  0  0  0
 17 27  1  0  0  0  0
M  CHG  1  23   1
M  END
$$$$

  -OEChem-05262214473D

 50 50  0     1  0  0  0  0  0999 V2000
   -1.6938    0.4865    3.8080 C   0  0  0  0  0  0  0  0  0  0  0  0
   -0.7464   -0.1282    3.3323 O   0  0  0  0  0  0  0  0  0  0  0  0
   -2.1257    0.2041    5.2087 C   0  0  0  0  0  0  0  0  0  0  0  0
   -2.8853   -0.5922    5.2621 H   0  0  0  0  0  0  0  0  0  0  0  0
   -1.2944   -0.1435    5.8430 H   0  0  0  0  0  0  0  0  0  0  0  0
   -2.5637    1.0590    5.7483 H   0  0  0  0  0  0  0  0  0  0  0  0
   -2.4435    1.4589    3.1669 N   0  0  0  0  0  0  0  0  0  0  0  0
   -2.1966    1.8850    1.8145 C   0  0  2  0  0  0  0  0  0  0  0  0
   -0.8617    1.2996    1.3733 C   0  0  0  0  0  0  0  0  0  0  0  0
    0.0104    0.9468    2.1646 O   0  0  0  0  0  0  0  0  0  0  0  0
   -2.1879    3.4017    1.7050 C   0  0  0  0  0  0  0  0  0  0  0  0
   -3.2085    1.8948    3.6787 H   0  0  0  0  0  0  0  0  0  0  0  0
   -3.0007    1.4665    1.1994 H   0  0  0  0  0  0  0  0  0  0  0  0
   -1.3888    3.8390    2.3147 H   0  0  0  0  0  0  0  0  0  0  0  0
   -2.0284    3.7240    0.6708 H   0  0  0  0  0  0  0  0  0  0  0  0
   -3.1380    3.8230    2.0508 H   0  0  0  0  0  0  0  0  0  0  0  0
   -0.7390    1.2565   -0.0101 N   0  0  0  0  0  0  0  0  0  0  0  0
    0.4383    0.7557   -0.6738 C   0  0  2  0  0  0  0  0  0  0  0  0
    1.6107    1.6219   -0.2271 C   0  0  0  0  0  0  0  0  0  0  0  0
    1.5688    2.3436    0.7670 O   0  0  0  0  0  0  0  0  0  0  0  0
    0.3013    0.7903   -2.2003 C   0  0  0  0  0  0  0  0  0  0  0  0
   -0.7928   -0.1164   -2.7088 C   0  0  0  0  0  0  0  0  0  0  0  0
   -0.6411   -1.4813   -2.7555 N   0  3  0  0  0  0  0  0  0  0  0  0
   -2.0422    0.1572   -3.1894 C   0  0  0  0  0  0  0  0  0  0  0  0
   -1.7534   -2.0368   -3.2469 C   0  0  0  0  0  0  0  0  0  0  0  0
   -2.6137   -1.0492   -3.5151 N   0  0  0  0  0  0  0  0  0  0  0  0
   -1.5221    1.5532   -0.5874 H   0  0  0  0  0  0  0  0  0  0  0  0
    0.5897   -0.2678   -0.3112 H   0  0  0  0  0  0  0  0  0  0  0  0
    1.2549    0.5202   -2.6740 H   0  0  0  0  0  0  0  0  0  0  0  0
    0.0886    1.8115   -2.5432 H   0  0  0  0  0  0  0  0  0  0  0  0
    0.1868   -1.9937   -2.4640 H   0  0  0  0  0  0  0  0  0  0  0  0
   -2.6253    1.0410   -3.3554 H   0  0  0  0  0  0  0  0  0  0  0  0
   -1.9248   -3.0893   -3.3998 H   0  0  0  0  0  0  0  0  0  0  0  0
   -3.5453   -1.1744   -3.9010 H   0  0  0  0  0  0  0  0  0  0  0  0
    2.7215    1.4531   -1.0420 N   0  0  0  0  0  0  0  0  0  0  0  0
    3.9752    2.1392   -0.8268 C   0  0  2  0  0  0  0  0  0  0  0  0
    3.6762    3.6229   -0.6571 C   0  0  0  0  0  0  0  0  0  0  0  0
    2.6537    4.1544   -1.0851 O   0  0  0  0  0  0  0  0  0  0  0  0
    4.9381    1.9072   -1.9807 C   0  0  0  0  0  0  0  0  0  0  0  0
    2.6497    0.8152   -1.8292 H   0  0  0  0  0  0  0  0  0  0  0  0
    4.3973    1.7425    0.1030 H   0  0  0  0  0  0  0  0  0  0  0  0
    4.5323    2.2981   -2.9209 H   0  0  0  0  0  0  0  0  0  0  0  0
    5.8975    2.4042   -1.8029 H   0  0  0  0  0  0  0  0  0  0  0  0
    5.1287    0.8377   -2.1202 H   0  0  0  0  0  0  0  0  0  0  0  0
    4.7053    4.2920   -0.0096 N   0  0  0  0  0  0  0  0  0  0  0  0
    4.6653    5.7104    0.2594 C   0  0  0  0  0  0  0  0  0  0  0  0
    5.5076    3.7681    0.3277 H   0  0  0  0  0  0  0  0  0  0  0  0
    5.1500    6.2543   -0.5648 H   0  0  0  0  0  0  0  0  0  0  0  0
    3.6188    6.0372    0.3488 H   0  0  0  0  0  0  0  0  0  0  0  0
    5.1965    5.9204    1.1995 H   0  0  0  0  0  0  0  0  0  0  0  0
 22 24  2  0  0  0  0
 24 26  1  0  0  0  0
 25 26  1  0  0  0  0
 23 25  2  0  0  0  0
 21 22  1  0  0  0  0
 22 23  1  0  0  0  0
  1  3  1  0  0  0  0
  1  7  1  0  0  0  0
  1  2  2  0  0  0  0
 36 37  1  0  0  0  0
 37 45  1  0  0  0  0
 37 38  2  0  0  0  0
  8  9  1  0  0  0  0
  9 17  1  0  0  0  0
  9 10  2  0  0  0  0
 18 19  1  0  0  0  0
 19 35  1  0  0  0  0
 19 20  2  0  0  0  0
 36 39  1  0  0  0  0
  8 11  1  0  0  0  0
 45 46  1  0  0  0  0
 18 21  1  0  0  0  0
 35 36  1  0  0  0  0
  7  8  1  0  0  0  0
 17 18  1  0  0  0  0
 24 32  1  0  0  0  0
 25 33  1  0  0  0  0
  3  4  1  0  0  0  0
  3  5  1  0  0  0  0
  3  6  1  0  0  0  0
 39 42  1  0  0  0  0
 39 43  1  0  0  0  0
 39 44  1  0  0  0  0
 11 14  1  0  0  0  0
 11 15  1  0  0  0  0
 11 16  1  0  0  0  0
 46 48  1  0  0  0  0
 46 49  1  0  0  0  0
 46 50  1  0  0  0  0
 21 29  1  0  0  0  0
 21 30  1  0  0  0  0
 36 41  1  0  0  0  0
  8 13  1  0  0  0  0
 18 28  1  0  0  0  0
 26 34  1  0  0  0  0
 23 31  1  0  0  0  0
 45 47  1  0  0  0  0
  7 12  1  0  0  0  0
 35 40  1  0  0  0  0
 17 27  1  0  0  0  0
M  CHG  1  23   1
M  END
$$$$

  -OEChem-05262214473D

 50 50  0     1  0  0  0  0  0999 V2000
   -1.6938    0.4865    3.8080 C   0  0  0  0  0  0  0  0  0  0  0  0
   -0.7464   -0.1282    3.3323 O   0  0  0  0  0  0  0  0  0  0  0  0
   -2.1257    0.2041    5.2087 C   0  0  0  0  0  0  0  0  0  0  0  0
   -2.8853   -0.5922    5.2621 H   0  0  0  0  0  0  0  0  0  0  0  0
   -1.2944   -0.1435    5.8430 H   0  0  0  0  0  0  0  0  0  0  0  0
   -2.5637    1.0590    5.7483 H   0  0  0  0  0  0  0  0  0  0  0  0
   -2.4435    1.4589    3.1669 N   0  0  0  0  0  0  0  0  0  0  0  0
   -2.1966    1.8850    1.8145 C   0  0  2  0  0  0  0  0  0  0  0  0
   -0.8617    1.2996    1.3733 C   0  0  0  0  0  0  0  0  0  0  0  0
    0.0104    0.9468    2.1646 O   0  0  0  0  0  0  0  0  0  0  0  0
   -2.1879    3.4017    1.7050 C   0  0  0  0  0  0  0  0  0  0  0  0
   -3.2085    1.8948    3.6787 H   0  0  0  0  0  0  0  0  0  0  0  0
   -3.0007    1.4665    1.1994 H   0  0  0  0  0  0  0  0  0  0  0  0
   -1.3888    3.8390    2.3147 H   0  0  0  0  0  0  0  0  0  0  0  0
   -2.0284    3.7240    0.6708 H   0  0  0  0  0  0  0  0  0  0  0  0
   -3.1380    3.8230    2.0508 H   0  0  0  0  0  0  0  0  0  0  0  0
   -0.7390    1.2565   -0.0101 N   0  0  0  0  0  0  0  0  0  0  0  0
    0.4383    0.7557   -0.6738 C   0  0  2  0  0  0  0  0  0  0  0  0
    1.6107    1.6219   -0.2271 C   0  0  0  0  0  0  0  0  0  0  0  0
    1.6792    2.1309    0.8896 O   0  0  0  0  0  0  0  0  0  0  0  0
    0.3013    0.7903   -2.2003 C   0  0  0  0  0  0  0  0  0  0  0  0
   -0.7928   -0.1164   -2.7088 C   0  0  0  0  0  0  0  0  0  0  0  0
   -0.6411   -1.4813   -2.7555 N   0  3  0  0  0  0  0  0  0  0  0  0
   -2.0422    0.1572   -3.1894 C   0  0  0  0  0  0  0  0  0  0  0  0
   -1.7534   -2.0368   -3.2469 C   0  0  0  0  0  0  0  0  0  0  0  0
   -2.6137   -1.0492   -3.5151 N   0  0  0  0  0  0  0  0  0  0  0  0
   -1.5221    1.5532   -0.5874 H   0  0  0  0  0  0  0  0  0  0  0  0
    0.5897   -0.2678   -0.3112 H   0  0  0  0  0  0  0  0  0  0  0  0
    1.2549    0.5202   -2.6740 H   0  0  0  0  0  0  0  0  0  0  0  0
    0.0886    1.8115   -2.5432 H   0  0  0  0  0  0  0  0  0  0  0  0
    0.1868   -1.9937   -2.4640 H   0  0  0  0  0  0  0  0  0  0  0  0
   -2.6253    1.0410   -3.3554 H   0  0  0  0  0  0  0  0  0  0  0  0
   -1.9248   -3.0893   -3.3998 H   0  0  0  0  0  0  0  0  0  0  0  0
   -3.5453   -1.1744   -3.9010 H   0  0  0  0  0  0  0  0  0  0  0  0
    2.5902    1.7153   -1.2060 N   0  0  0  0  0  0  0  0  0  0  0  0
    3.8179    2.4577   -1.0317 C   0  0  2  0  0  0  0  0  0  0  0  0
    3.4589    3.8473   -0.5220 C   0  0  0  0  0  0  0  0  0  0  0  0
    2.3521    4.3564   -0.6854 O   0  0  0  0  0  0  0  0  0  0  0  0
    4.6031    2.5416   -2.3314 C   0  0  0  0  0  0  0  0  0  0  0  0
    2.4365    1.2379   -2.0892 H   0  0  0  0  0  0  0  0  0  0  0  0
    4.4022    1.9287   -0.2710 H   0  0  0  0  0  0  0  0  0  0  0  0
    4.0336    3.0685   -3.1058 H   0  0  0  0  0  0  0  0  0  0  0  0
    5.5463    3.0797   -2.1912 H   0  0  0  0  0  0  0  0  0  0  0  0
    4.8346    1.5410   -2.7121 H   0  0  0  0  0  0  0  0  0  0  0  0
    4.5332    4.4690    0.0989 N   0  0  0  0  0  0  0  0  0  0  0  0
    4.4489    5.7991    0.6555 C   0  0  0  0  0  0  0  0  0  0  0  0
    5.4084    3.9648    0.2066 H   0  0  0  0  0  0  0  0  0  0  0  0
    4.7661    6.5338   -0.0993 H   0  0  0  0  0  0  0  0  0  0  0  0
    3.4108    6.0061    0.9548 H   0  0  0  0  0  0  0  0  0  0  0  0
    5.1054    5.8706    1.5352 H   0  0  0  0  0  0  0  0  0  0  0  0
 22 24  2  0  0  0  0
 24 26  1  0  0  0  0
 25 26  1  0  0  0  0
 23 25  2  0  0  0  0
 21 22  1  0  0  0  0
 22 23  1  0  0  0  0
  1  3  1  0  0  0  0
  1  7  1  0  0  0  0
  1  2  2  0  0  0  0
 36 37  1  0  0  0  0
 37 45  1  0  0  0  0
 37 38  2  0  0  0  0
  8  9  1  0  0  0  0
  9 17  1  0  0  0  0
  9 10  2  0  0  0  0
 18 19  1  0  0  0  0
 19 35  1  0  0  0  0
 19 20  2  0  0  0  0
 36 39  1  0  0  0  0
  8 11  1  0  0  0  0
 45 46  1  0  0  0  0
 18 21  1  0  0  0  0
 35 36  1  0  0  0  0
  7  8  1  0  0  0  0
 17 18  1  0  0  0  0
 24 32  1  0  0  0  0
 25 33  1  0  0  0  0
  3  4  1  0  0  0  0
  3  5  1  0  0  0  0
  3  6  1  0  0  0  0
 39 42  1  0  0  0  0
 39 43  1  0  0  0  0
 39 44  1  0  0  0  0
 11 14  1  0  0  0  0
 11 15  1  0  0  0  0
 11 16  1  0  0  0  0
 46 48  1  0  0  0  0
 46 49  1  0  0  0  0
 46 50  1  0  0  0  0
 21 29  1  0  0  0  0
 21 30  1  0  0  0  0
 36 41  1  0  0  0  0
  8 13  1  0  0  0  0
 18 28  1  0  0  0  0
 26 34  1  0  0  0  0
 23 31  1  0  0  0  0
 45 47  1  0  0  0  0
  7 12  1  0  0  0  0
 35 40  1  0  0  0  0
 17 27  1  0  0  0  0
M  CHG  1  23   1
M  END
$$$$

  -OEChem-05262214473D

 50 50  0     1  0  0  0  0  0999 V2000
   -1.6938    0.4865    3.8080 C   0  0  0  0  0  0  0  0  0  0  0  0
   -0.7464   -0.1282    3.3323 O   0  0  0  0  0  0  0  0  0  0  0  0
   -2.1257    0.2041    5.2087 C   0  0  0  0  0  0  0  0  0  0  0  0
   -2.8853   -0.5922    5.2621 H   0  0  0  0  0  0  0  0  0  0  0  0
   -1.2944   -0.1435    5.8430 H   0  0  0  0  0  0  0  0  0  0  0  0
   -2.5637    1.0590    5.7483 H   0  0  0  0  0  0  0  0  0  0  0  0
   -2.4435    1.4589    3.1669 N   0  0  0  0  0  0  0  0  0  0  0  0
   -2.1966    1.8850    1.8145 C   0  0  2  0  0  0  0  0  0  0  0  0
   -0.8617    1.2996    1.3733 C   0  0  0  0  0  0  0  0  0  0  0  0
    0.0104    0.9468    2.1646 O   0  0  0  0  0  0  0  0  0  0  0  0
   -2.1879    3.4017    1.7050 C   0  0  0  0  0  0  0  0  0  0  0  0
   -3.2085    1.8948    3.6787 H   0  0  0  0  0  0  0  0  0  0  0  0
   -3.0007    1.4665    1.1994 H   0  0  0  0  0  0  0  0  0  0  0  0
   -1.3888    3.8390    2.3147 H   0  0  0  0  0  0  0  0  0  0  0  0
   -2.0284    3.7240    0.6708 H   0  0  0  0  0  0  0  0  0  0  0  0
   -3.1380    3.8230    2.0508 H   0  0  0  0  0  0  0  0  0  0  0  0
   -0.7390    1.2565   -0.0101 N   0  0  0  0  0  0  0  0  0  0  0  0
    0.4383    0.7557   -0.6738 C   0  0  2  0  0  0  0  0  0  0  0  0
    1.6107    1.6219   -0.2271 C   0  0  0  0  0  0  0  0  0  0  0  0
    1.8200    1.9095    0.9495 O   0  0  0  0  0  0  0  0  0  0  0  0
    0.3013    0.7903   -2.2003 C   0  0  0  0  0  0  0  0  0  0  0  0
   -0.7928   -0.1164   -2.7088 C   0  0  0  0  0  0  0  0  0  0  0  0
   -0.6411   -1.4813   -2.7555 N   0  3  0  0  0  0  0  0  0  0  0  0
   -2.0422    0.1572   -3.1894 C   0  0  0  0  0  0  0  0  0  0  0  0
   -1.7534   -2.0368   -3.2469 C   0  0  0  0  0  0  0  0  0  0  0  0
   -2.6137   -1.0492   -3.5151 N   0  0  0  0  0  0  0  0  0  0  0  0
   -1.5221    1.5532   -0.5874 H   0  0  0  0  0  0  0  0  0  0  0  0
    0.5897   -0.2678   -0.3112 H   0  0  0  0  0  0  0  0  0  0  0  0
    1.2549    0.5202   -2.6740 H   0  0  0  0  0  0  0  0  0  0  0  0
    0.0886    1.8115   -2.5432 H   0  0  0  0  0  0  0  0  0  0  0  0
    0.1868   -1.9937   -2.4640 H   0  0  0  0  0  0  0  0  0  0  0  0
   -2.6253    1.0410   -3.3554 H   0  0  0  0  0  0  0  0  0  0  0  0
   -1.9248   -3.0893   -3.3998 H   0  0  0  0  0  0  0  0  0  0  0  0
   -3.5453   -1.1744   -3.9010 H   0  0  0  0  0  0  0  0  0  0  0  0
    2.4194    1.9913   -1.2929 N   0  0  0  0  0  0  0  0  0  0  0  0
    3.6118    2.7943   -1.1432 C   0  0  2  0  0  0  0  0  0  0  0  0
    3.2520    4.0206   -0.3149 C   0  0  0  0  0  0  0  0  0  0  0  0
    2.1042    4.4492   -0.2147 O   0  0  0  0  0  0  0  0  0  0  0  0
    4.1797    3.1987   -2.4947 C   0  0  0  0  0  0  0  0  0  0  0  0
    2.1603    1.6817   -2.2249 H   0  0  0  0  0  0  0  0  0  0  0  0
    4.3378    2.1833   -0.5959 H   0  0  0  0  0  0  0  0  0  0  0  0
    3.4663    3.8115   -3.0577 H   0  0  0  0  0  0  0  0  0  0  0  0
    5.0988    3.7829   -2.3801 H   0  0  0  0  0  0  0  0  0  0  0  0
    4.4102    2.3158   -3.1006 H   0  0  0  0  0  0  0  0  0  0  0  0
    4.3694    4.6054    0.2643 N   0  0  0  0  0  0  0  0  0  0  0  0
    4.2914    5.7896    1.0875 C   0  0  0  0  0  0  0  0  0  0  0  0
    5.2798    4.1714    0.1434 H   0  0  0  0  0  0  0  0  0  0  0  0
    4.4426    6.6820    0.4624 H   0  0  0  0  0  0  0  0  0  0  0  0
    3.3015    5.8397    1.5645 H   0  0  0  0  0  0  0  0  0  0  0  0
    5.0705    5.7489    1.8630 H   0  0  0  0  0  0  0  0  0  0  0  0
 22 24  2  0  0  0  0
 24 26  1  0  0  0  0
 25 26  1  0  0  0  0
 23 25  2  0  0  0  0
 21 22  1  0  0  0  0
 22 23  1  0  0  0  0
  1  3  1  0  0  0  0
  1  7  1  0  0  0  0
  1  2  2  0  0  0  0
 36 37  1  0  0  0  0
 37 45  1  0  0  0  0
 37 38  2  0  0  0  0
  8  9  1  0  0  0  0
  9 17  1  0  0  0  0
  9 10  2  0  0  0  0
 18 19  1  0  0  0  0
 19 35  1  0  0  0  0
 19 20  2  0  0  0  0
 36 39  1  0  0  0  0
  8 11  1  0  0  0  0
 45 46  1  0  0  0  0
 18 21  1  0  0  0  0
 35 36  1  0  0  0  0
  7  8  1  0  0  0  0
 17 18  1  0  0  0  0
 24 32  1  0  0  0  0
 25 33  1  0  0  0  0
  3  4  1  0  0  0  0
  3  5  1  0  0  0  0
  3  6  1  0  0  0  0
 39 42  1  0  0  0  0
 39 43  1  0  0  0  0
 39 44  1  0  0  0  0
 11 14  1  0  0  0  0
 11 15  1  0  0  0  0
 11 16  1  0  0  0  0
 46 48  1  0  0  0  0
 46 49  1  0  0  0  0
 46 50  1  0  0  0  0
 21 29  1  0  0  0  0
 21 30  1  0  0  0  0
 36 41  1  0  0  0  0
  8 13  1  0  0  0  0
 18 28  1  0  0  0  0
 26 34  1  0  0  0  0
 23 31  1  0  0  0  0
 45 47  1  0  0  0  0
  7 12  1  0  0  0  0
 35 40  1  0  0  0  0
 17 27  1  0  0  0  0
M  CHG  1  23   1
M  END
$$$$

  -OEChem-05262214473D

 50 50  0     1  0  0  0  0  0999 V2000
   -1.6938    0.4865    3.8080 C   0  0  0  0  0  0  0  0  0  0  0  0
   -0.7464   -0.1282    3.3323 O   0  0  0  0  0  0  0  0  0  0  0  0
   -2.1257    0.2041    5.2087 C   0  0  0  0  0  0  0  0  0  0  0  0
   -2.8853   -0.5922    5.2621 H   0  0  0  0  0  0  0  0  0  0  0  0
   -1.2944   -0.1435    5.8430 H   0  0  0  0  0  0  0  0  0  0  0  0
   -2.5637    1.0590    5.7483 H   0  0  0  0  0  0  0  0  0  0  0  0
   -2.4435    1.4589    3.1669 N   0  0  0  0  0  0  0  0  0  0  0  0
   -2.1966    1.8850    1.8145 C   0  0  2  0  0  0  0  0  0  0  0  0
   -0.8617    1.2996    1.3733 C   0  0  0  0  0  0  0  0  0  0  0  0
    0.0104    0.9468    2.1646 O   0  0  0  0  0  0  0  0  0  0  0  0
   -2.1879    3.4017    1.7050 C   0  0  0  0  0  0  0  0  0  0  0  0
   -3.2085    1.8948    3.6787 H   0  0  0  0  0  0  0  0  0  0  0  0
   -3.0007    1.4665    1.1994 H   0  0  0  0  0  0  0  0  0  0  0  0
   -1.3888    3.8390    2.3147 H   0  0  0  0  0  0  0  0  0  0  0  0
   -2.0284    3.7240    0.6708 H   0  0  0  0  0  0  0  0  0  0  0  0
   -3.1380    3.8230    2.0508 H   0  0  0  0  0  0  0  0  0  0  0  0
   -0.7390    1.2565   -0.0101 N   0  0  0  0  0  0  0  0  0  0  0  0
    0.4383    0.7557   -0.6738 C   0  0  2  0  0  0  0  0  0  0  0  0
    1.6107    1.6219   -0.2271 C   0  0  0  0  0  0  0  0  0  0  0  0
    1.9816    1.6943    0.9425 O   0  0  0  0  0  0  0  0  0  0  0  0
    0.3013    0.7903   -2.2003 C   0  0  0  0  0  0  0  0  0  0  0  0
   -0.7928   -0.1164   -2.7088 C   0  0  0  0  0  0  0  0  0  0  0  0
   -0.6411   -1.4813   -2.7555 N   0  3  0  0  0  0  0  0  0  0  0  0
   -2.0422    0.1572   -3.1894 C   0  0  0  0  0  0  0  0  0  0  0  0
   -1.7534   -2.0368   -3.2469 C   0  0  0  0  0  0  0  0  0  0  0  0
   -2.6137   -1.0492   -3.5151 N   0  0  0  0  0  0  0  0  0  0  0  0
   -1.5221    1.5532   -0.5874 H   0  0  0  0  0  0  0  0  0  0  0  0
    0.5897   -0.2678   -0.3112 H   0  0  0  0  0  0  0  0  0  0  0  0
    1.2549    0.5202   -2.6740 H   0  0  0  0  0  0  0  0  0  0  0  0
    0.0886    1.8115   -2.5432 H   0  0  0  0  0  0  0  0  0  0  0  0
    0.1868   -1.9937   -2.4640 H   0  0  0  0  0  0  0  0  0  0  0  0
   -2.6253    1.0410   -3.3554 H   0  0  0  0  0  0  0  0  0  0  0  0
   -1.9248   -3.0893   -3.3998 H   0  0  0  0  0  0  0  0  0  0  0  0
   -3.5453   -1.1744   -3.9010 H   0  0  0  0  0  0  0  0  0  0  0  0
    2.2208    2.2622   -1.2968 N   0  0  0  0  0  0  0  0  0  0  0  0
    3.3707    3.1259   -1.1536 C   0  0  2  0  0  0  0  0  0  0  0  0
    3.0693    4.1311   -0.0499 C   0  0  0  0  0  0  0  0  0  0  0  0
    1.9270    4.4263    0.2949 O   0  0  0  0  0  0  0  0  0  0  0  0
    3.6970    3.8339   -2.4593 C   0  0  0  0  0  0  0  0  0  0  0  0
    1.8399    2.1165   -2.2271 H   0  0  0  0  0  0  0  0  0  0  0  0
    4.2086    2.4891   -0.8495 H   0  0  0  0  0  0  0  0  0  0  0  0
    2.8690    4.4766   -2.7799 H   0  0  0  0  0  0  0  0  0  0  0  0
    4.5854    4.4657   -2.3568 H   0  0  0  0  0  0  0  0  0  0  0  0
    3.8843    3.1094   -3.2593 H   0  0  0  0  0  0  0  0  0  0  0  0
    4.2252    4.6918    0.4752 N   0  0  0  0  0  0  0  0  0  0  0  0
    4.2035    5.6824    1.5261 C   0  0  0  0  0  0  0  0  0  0  0  0
    5.1307    4.3738    0.1423 H   0  0  0  0  0  0  0  0  0  0  0  0
    4.2015    6.6888    1.0820 H   0  0  0  0  0  0  0  0  0  0  0  0
    3.2981    5.5493    2.1365 H   0  0  0  0  0  0  0  0  0  0  0  0
    5.0942    5.5634    2.1605 H   0  0  0  0  0  0  0  0  0  0  0  0
 22 24  2  0  0  0  0
 24 26  1  0  0  0  0
 25 26  1  0  0  0  0
 23 25  2  0  0  0  0
 21 22  1  0  0  0  0
 22 23  1  0  0  0  0
  1  3  1  0  0  0  0
  1  7  1  0  0  0  0
  1  2  2  0  0  0  0
 36 37  1  0  0  0  0
 37 45  1  0  0  0  0
 37 38  2  0  0  0  0
  8  9  1  0  0  0  0
  9 17  1  0  0  0  0
  9 10  2  0  0  0  0
 18 19  1  0  0  0  0
 19 35  1  0  0  0  0
 19 20  2  0  0  0  0
 36 39  1  0  0  0  0
  8 11  1  0  0  0  0
 45 46  1  0  0  0  0
 18 21  1  0  0  0  0
 35 36  1  0  0  0  0
  7  8  1  0  0  0  0
 17 18  1  0  0  0  0
 24 32  1  0  0  0  0
 25 33  1  0  0  0  0
  3  4  1  0  0  0  0
  3  5  1  0  0  0  0
  3  6  1  0  0  0  0
 39 42  1  0  0  0  0
 39 43  1  0  0  0  0
 39 44  1  0  0  0  0
 11 14  1  0  0  0  0
 11 15  1  0  0  0  0
 11 16  1  0  0  0  0
 46 48  1  0  0  0  0
 46 49  1  0  0  0  0
 46 50  1  0  0  0  0
 21 29  1  0  0  0  0
 21 30  1  0  0  0  0
 36 41  1  0  0  0  0
  8 13  1  0  0  0  0
 18 28  1  0  0  0  0
 26 34  1  0  0  0  0
 23 31  1  0  0  0  0
 45 47  1  0  0  0  0
  7 12  1  0  0  0  0
 35 40  1  0  0  0  0
 17 27  1  0  0  0  0
M  CHG  1  23   1
M  END
$$$$

  -OEChem-05262214473D

 50 50  0     1  0  0  0  0  0999 V2000
   -1.6938    0.4865    3.8080 C   0  0  0  0  0  0  0  0  0  0  0  0
   -0.7464   -0.1282    3.3323 O   0  0  0  0  0  0  0  0  0  0  0  0
   -2.1257    0.2041    5.2087 C   0  0  0  0  0  0  0  0  0  0  0  0
   -2.8853   -0.5922    5.2621 H   0  0  0  0  0  0  0  0  0  0  0  0
   -1.2944   -0.1435    5.8430 H   0  0  0  0  0  0  0  0  0  0  0  0
   -2.5637    1.0590    5.7483 H   0  0  0  0  0  0  0  0  0  0  0  0
   -2.4435    1.4589    3.1669 N   0  0  0  0  0  0  0  0  0  0  0  0
   -2.1966    1.8850    1.8145 C   0  0  2  0  0  0  0  0  0  0  0  0
   -0.8617    1.2996    1.3733 C   0  0  0  0  0  0  0  0  0  0  0  0
    0.0104    0.9468    2.1646 O   0  0  0  0  0  0  0  0  0  0  0  0
   -2.1879    3.4017    1.7050 C   0  0  0  0  0  0  0  0  0  0  0  0
   -3.2085    1.8948    3.6787 H   0  0  0  0  0  0  0  0  0  0  0  0
   -3.0007    1.4665    1.1994 H   0  0  0  0  0  0  0  0  0  0  0  0
   -1.3888    3.8390    2.3147 H   0  0  0  0  0  0  0  0  0  0  0  0
   -2.0284    3.7240    0.6708 H   0  0  0  0  0  0  0  0  0  0  0  0
   -3.1380    3.8230    2.0508 H   0  0  0  0  0  0  0  0  0  0  0  0
   -0.7390    1.2565   -0.0101 N   0  0  0  0  0  0  0  0  0  0  0  0
    0.4383    0.7557   -0.6738 C   0  0  2  0  0  0  0  0  0  0  0  0
    1.6107    1.6219   -0.2271 C   0  0  0  0  0  0  0  0  0  0  0  0
    2.1530    1.5002    0.8692 O   0  0  0  0  0  0  0  0  0  0  0  0
    0.3013    0.7903   -2.2003 C   0  0  0  0  0  0  0  0  0  0  0  0
   -0.7928   -0.1164   -2.7088 C   0  0  0  0  0  0  0  0  0  0  0  0
   -0.6411   -1.4813   -2.7555 N   0  3  0  0  0  0  0  0  0  0  0  0
   -2.0422    0.1572   -3.1894 C   0  0  0  0  0  0  0  0  0  0  0  0
   -1.7534   -2.0368   -3.2469 C   0  0  0  0  0  0  0  0  0  0  0  0
   -2.6137   -1.0492   -3.5151 N   0  0  0  0  0  0  0  0  0  0  0  0
   -1.5221    1.5532   -0.5874 H   0  0  0  0  0  0  0  0  0  0  0  0
    0.5897   -0.2678   -0.3112 H   0  0  0  0  0  0  0  0  0  0  0  0
    1.2549    0.5202   -2.6740 H   0  0  0  0  0  0  0  0  0  0  0  0
    0.0886    1.8115   -2.5432 H   0  0  0  0  0  0  0  0  0  0  0  0
    0.1868   -1.9937   -2.4640 H   0  0  0  0  0  0  0  0  0  0  0  0
   -2.6253    1.0410   -3.3554 H   0  0  0  0  0  0  0  0  0  0  0  0
   -1.9248   -3.0893   -3.3998 H   0  0  0  0  0  0  0  0  0  0  0  0
   -3.5453   -1.1744   -3.9010 H   0  0  0  0  0  0  0  0  0  0  0  0
    2.0077    2.5096   -1.2174 N   0  0  0  0  0  0  0  0  0  0  0  0
    3.1112    3.4300   -1.0622 C   0  0  2  0  0  0  0  0  0  0  0  0
    2.9235    4.1713    0.2549 C   0  0  0  0  0  0  0  0  0  0  0  0
    1.8324    4.2894    0.8087 O   0  0  0  0  0  0  0  0  0  0  0  0
    3.1878    4.4037   -2.2278 C   0  0  0  0  0  0  0  0  0  0  0  0
    1.4971    2.5126   -2.0955 H   0  0  0  0  0  0  0  0  0  0  0  0
    4.0233    2.8251   -1.0147 H   0  0  0  0  0  0  0  0  0  0  0  0
    2.2825    5.0185   -2.2914 H   0  0  0  0  0  0  0  0  0  0  0  0
    4.0411    5.0818   -2.1230 H   0  0  0  0  0  0  0  0  0  0  0  0
    3.2928    3.8676   -3.1772 H   0  0  0  0  0  0  0  0  0  0  0  0
    4.1104    4.7224    0.7173 N   0  0  0  0  0  0  0  0  0  0  0  0
    4.1912    5.4849    1.9413 C   0  0  0  0  0  0  0  0  0  0  0  0
    4.9711    4.5582    0.2036 H   0  0  0  0  0  0  0  0  0  0  0  0
    4.0592    6.5538    1.7174 H   0  0  0  0  0  0  0  0  0  0  0  0
    3.4010    5.1548    2.6316 H   0  0  0  0  0  0  0  0  0  0  0  0
    5.1749    5.3268    2.4074 H   0  0  0  0  0  0  0  0  0  0  0  0
 22 24  2  0  0  0  0
 24 26  1  0  0  0  0
 25 26  1  0  0  0  0
 23 25  2  0  0  0  0
 21 22  1  0  0  0  0
 22 23  1  0  0  0  0
  1  3  1  0  0  0  0
  1  7  1  0  0  0  0
  1  2  2  0  0  0  0
 36 37  1  0  0  0  0
 37 45  1  0  0  0  0
 37 38  2  0  0  0  0
  8  9  1  0  0  0  0
  9 17  1  0  0  0  0
  9 10  2  0  0  0  0
 18 19  1  0  0  0  0
 19 35  1  0  0  0  0
 19 20  2  0  0  0  0
 36 39  1  0  0  0  0
  8 11  1  0  0  0  0
 45 46  1  0  0  0  0
 18 21  1  0  0  0  0
 35 36  1  0  0  0  0
  7  8  1  0  0  0  0
 17 18  1  0  0  0  0
 24 32  1  0  0  0  0
 25 33  1  0  0  0  0
  3  4  1  0  0  0  0
  3  5  1  0  0  0  0
  3  6  1  0  0  0  0
 39 42  1  0  0  0  0
 39 43  1  0  0  0  0
 39 44  1  0  0  0  0
 11 14  1  0  0  0  0
 11 15  1  0  0  0  0
 11 16  1  0  0  0  0
 46 48  1  0  0  0  0
 46 49  1  0  0  0  0
 46 50  1  0  0  0  0
 21 29  1  0  0  0  0
 21 30  1  0  0  0  0
 36 41  1  0  0  0  0
  8 13  1  0  0  0  0
 18 28  1  0  0  0  0
 26 34  1  0  0  0  0
 23 31  1  0  0  0  0
 45 47  1  0  0  0  0
  7 12  1  0  0  0  0
 35 40  1  0  0  0  0
 17 27  1  0  0  0  0
M  CHG  1  23   1
M  END
$$$$

  -OEChem-05262214473D

 50 50  0     1  0  0  0  0  0999 V2000
   -1.6938    0.4865    3.8080 C   0  0  0  0  0  0  0  0  0  0  0  0
   -0.7464   -0.1282    3.3323 O   0  0  0  0  0  0  0  0  0  0  0  0
   -2.1257    0.2041    5.2087 C   0  0  0  0  0  0  0  0  0  0  0  0
   -2.8853   -0.5922    5.2621 H   0  0  0  0  0  0  0  0  0  0  0  0
   -1.2944   -0.1435    5.8430 H   0  0  0  0  0  0  0  0  0  0  0  0
   -2.5637    1.0590    5.7483 H   0  0  0  0  0  0  0  0  0  0  0  0
   -2.4435    1.4589    3.1669 N   0  0  0  0  0  0  0  0  0  0  0  0
   -2.1966    1.8850    1.8145 C   0  0  2  0  0  0  0  0  0  0  0  0
   -0.8617    1.2996    1.3733 C   0  0  0  0  0  0  0  0  0  0  0  0
    0.0104    0.9468    2.1646 O   0  0  0  0  0  0  0  0  0  0  0  0
   -2.1879    3.4017    1.7050 C   0  0  0  0  0  0  0  0  0  0  0  0
   -3.2085    1.8948    3.6787 H   0  0  0  0  0  0  0  0  0  0  0  0
   -3.0007    1.4665    1.1994 H   0  0  0  0  0  0  0  0  0  0  0  0
   -1.3888    3.8390    2.3147 H   0  0  0  0  0  0  0  0  0  0  0  0
   -2.0284    3.7240    0.6708 H   0  0  0  0  0  0  0  0  0  0  0  0
   -3.1380    3.8230    2.0508 H   0  0  0  0  0  0  0  0  0  0  0  0
   -0.7390    1.2565   -0.0101 N   0  0  0  0  0  0  0  0  0  0  0  0
    0.4383    0.7557   -0.6738 C   0  0  2  0  0  0  0  0  0  0  0  0
    1.6107    1.6219   -0.2271 C   0  0  0  0  0  0  0  0  0  0  0  0
    2.3225    1.3402    0.7346 O   0  0  0  0  0  0  0  0  0  0  0  0
    0.3013    0.7903   -2.2003 C   0  0  0  0  0  0  0  0  0  0  0  0
   -0.7928   -0.1164   -2.7088 C   0  0  0  0  0  0  0  0  0  0  0  0
   -0.6411   -1.4813   -2.7555 N   0  3  0  0  0  0  0  0  0  0  0  0
   -2.0422    0.1572   -3.1894 C   0  0  0  0  0  0  0  0  0  0  0  0
   -1.7534   -2.0368   -3.2469 C   0  0  0  0  0  0  0  0  0  0  0  0
   -2.6137   -1.0492   -3.5151 N   0  0  0  0  0  0  0  0  0  0  0  0
   -1.5221    1.5532   -0.5874 H   0  0  0  0  0  0  0  0  0  0  0  0
    0.5897   -0.2678   -0.3112 H   0  0  0  0  0  0  0  0  0  0  0  0
    1.2549    0.5202   -2.6740 H   0  0  0  0  0  0  0  0  0  0  0  0
    0.0886    1.8115   -2.5432 H   0  0  0  0  0  0  0  0  0  0  0  0
    0.1868   -1.9937   -2.4640 H   0  0  0  0  0  0  0  0  0  0  0  0
   -2.6253    1.0410   -3.3554 H   0  0  0  0  0  0  0  0  0  0  0  0
   -1.9248   -3.0893   -3.3998 H   0  0  0  0  0  0  0  0  0  0  0  0
   -3.5453   -1.1744   -3.9010 H   0  0  0  0  0  0  0  0  0  0  0  0
    1.7949    2.7166   -1.0602 N   0  0  0  0  0  0  0  0  0  0  0  0
    2.8509    3.6859   -0.8752 C   0  0  2  0  0  0  0  0  0  0  0  0
    2.8245    4.1384    0.5788 C   0  0  0  0  0  0  0  0  0  0  0  0
    1.8270    4.0477    1.2915 O   0  0  0  0  0  0  0  0  0  0  0  0
    2.6867    4.8694   -1.8158 C   0  0  0  0  0  0  0  0  0  0  0  0
    1.1553    2.8430   -1.8391 H   0  0  0  0  0  0  0  0  0  0  0  0
    3.7945    3.1685   -1.0801 H   0  0  0  0  0  0  0  0  0  0  0  0
    1.7468    5.4003   -1.6255 H   0  0  0  0  0  0  0  0  0  0  0  0
    3.5031    5.5890   -1.6944 H   0  0  0  0  0  0  0  0  0  0  0  0
    2.6761    4.5388   -2.8600 H   0  0  0  0  0  0  0  0  0  0  0  0
    4.0328    4.6950    0.9742 N   0  0  0  0  0  0  0  0  0  0  0  0
    4.2553    5.2106    2.3048 C   0  0  0  0  0  0  0  0  0  0  0  0
    4.8120    4.7120    0.3228 H   0  0  0  0  0  0  0  0  0  0  0  0
    4.0254    6.2861    2.3251 H   0  0  0  0  0  0  0  0  0  0  0  0
    3.6031    4.6829    3.0162 H   0  0  0  0  0  0  0  0  0  0  0  0
    5.3071    5.0552    2.5870 H   0  0  0  0  0  0  0  0  0  0  0  0
 22 24  2  0  0  0  0
 24 26  1  0  0  0  0
 25 26  1  0  0  0  0
 23 25  2  0  0  0  0
 21 22  1  0  0  0  0
 22 23  1  0  0  0  0
  1  3  1  0  0  0  0
  1  7  1  0  0  0  0
  1  2  2  0  0  0  0
 36 37  1  0  0  0  0
 37 45  1  0  0  0  0
 37 38  2  0  0  0  0
  8  9  1  0  0  0  0
  9 17  1  0  0  0  0
  9 10  2  0  0  0  0
 18 19  1  0  0  0  0
 19 35  1  0  0  0  0
 19 20  2  0  0  0  0
 36 39  1  0  0  0  0
  8 11  1  0  0  0  0
 45 46  1  0  0  0  0
 18 21  1  0  0  0  0
 35 36  1  0  0  0  0
  7  8  1  0  0  0  0
 17 18  1  0  0  0  0
 24 32  1  0  0  0  0
 25 33  1  0  0  0  0
  3  4  1  0  0  0  0
  3  5  1  0  0  0  0
  3  6  1  0  0  0  0
 39 42  1  0  0  0  0
 39 43  1  0  0  0  0
 39 44  1  0  0  0  0
 11 14  1  0  0  0  0
 11 15  1  0  0  0  0
 11 16  1  0  0  0  0
 46 48  1  0  0  0  0
 46 49  1  0  0  0  0
 46 50  1  0  0  0  0
 21 29  1  0  0  0  0
 21 30  1  0  0  0  0
 36 41  1  0  0  0  0
  8 13  1  0  0  0  0
 18 28  1  0  0  0  0
 26 34  1  0  0  0  0
 23 31  1  0  0  0  0
 45 47  1  0  0  0  0
  7 12  1  0  0  0  0
 35 40  1  0  0  0  0
 17 27  1  0  0  0  0
M  CHG  1  23   1
M  END
$$$$

  -OEChem-05262214473D

 50 50  0     1  0  0  0  0  0999 V2000
   -1.6938    0.4865    3.8080 C   0  0  0  0  0  0  0  0  0  0  0  0
   -0.7464   -0.1282    3.3323 O   0  0  0  0  0  0  0  0  0  0  0  0
   -2.1257    0.2041    5.2087 C   0  0  0  0  0  0  0  0  0  0  0  0
   -2.8853   -0.5922    5.2621 H   0  0  0  0  0  0  0  0  0  0  0  0
   -1.2944   -0.1435    5.8430 H   0  0  0  0  0  0  0  0  0  0  0  0
   -2.5637    1.0590    5.7483 H   0  0  0  0  0  0  0  0  0  0  0  0
   -2.4435    1.4589    3.1669 N   0  0  0  0  0  0  0  0  0  0  0  0
   -2.1966    1.8850    1.8145 C   0  0  2  0  0  0  0  0  0  0  0  0
   -0.8617    1.2996    1.3733 C   0  0  0  0  0  0  0  0  0  0  0  0
    0.0104    0.9468    2.1646 O   0  0  0  0  0  0  0  0  0  0  0  0
   -2.1879    3.4017    1.7050 C   0  0  0  0  0  0  0  0  0  0  0  0
   -3.2085    1.8948    3.6787 H   0  0  0  0  0  0  0  0  0  0  0  0
   -3.0007    1.4665    1.1994 H   0  0  0  0  0  0  0  0  0  0  0  0
   -1.3888    3.8390    2.3147 H   0  0  0  0  0  0  0  0  0  0  0  0
   -2.0284    3.7240    0.6708 H   0  0  0  0  0  0  0  0  0  0  0  0
   -3.1380    3.8230    2.0508 H   0  0  0  0  0  0  0  0  0  0  0  0
   -0.7390    1.2565   -0.0101 N   0  0  0  0  0  0  0  0  0  0  0  0
    0.4383    0.7557   -0.6738 C   0  0  2  0  0  0  0  0  0  0  0  0
    1.6107    1.6219   -0.2271 C   0  0  0  0  0  0  0  0  0  0  0  0
    2.4786    1.2253    0.5477 O   0  0  0  0  0  0  0  0  0  0  0  0
    0.3013    0.7903   -2.2003 C   0  0  0  0  0  0  0  0  0  0  0  0
   -0.7928   -0.1164   -2.7088 C   0  0  0  0  0  0  0  0  0  0  0  0
   -0.6411   -1.4813   -2.7555 N   0  3  0  0  0  0  0  0  0  0  0  0
   -2.0422    0.1572   -3.1894 C   0  0  0  0  0  0  0  0  0  0  0  0
   -1.7534   -2.0368   -3.2469 C   0  0  0  0  0  0  0  0  0  0  0  0
   -2.6137   -1.0492   -3.5151 N   0  0  0  0  0  0  0  0  0  0  0  0
   -1.5221    1.5532   -0.5874 H   0  0  0  0  0  0  0  0  0  0  0  0
    0.5897   -0.2678   -0.3112 H   0  0  0  0  0  0  0  0  0  0  0  0
    1.2549    0.5202   -2.6740 H   0  0  0  0  0  0  0  0  0  0  0  0
    0.0886    1.8115   -2.5432 H   0  0  0  0  0  0  0  0  0  0  0  0
    0.1868   -1.9937   -2.4640 H   0  0  0  0  0  0  0  0  0  0  0  0
   -2.6253    1.0410   -3.3554 H   0  0  0  0  0  0  0  0  0  0  0  0
   -1.9248   -3.0893   -3.3998 H   0  0  0  0  0  0  0  0  0  0  0  0
   -3.5453   -1.1744   -3.9010 H   0  0  0  0  0  0  0  0  0  0  0  0
    1.5967    2.8692   -0.8358 N   0  0  0  0  0  0  0  0  0  0  0  0
    2.6076    3.8760   -0.6053 C   0  0  2  0  0  0  0  0  0  0  0  0
    2.7789    4.0346    0.8997 C   0  0  0  0  0  0  0  0  0  0  0  0
    1.9112    3.7177    1.7106 O   0  0  0  0  0  0  0  0  0  0  0  0
    2.2280    5.1993   -1.2515 C   0  0  0  0  0  0  0  0  0  0  0  0
    0.8378    3.0852   -1.4755 H   0  0  0  0  0  0  0  0  0  0  0  0
    3.5378    3.4959   -1.0413 H   0  0  0  0  0  0  0  0  0  0  0  0
    1.2983    5.5958   -0.8274 H   0  0  0  0  0  0  0  0  0  0  0  0
    3.0079    5.9529   -1.1004 H   0  0  0  0  0  0  0  0  0  0  0  0
    2.0761    5.0772   -2.3294 H   0  0  0  0  0  0  0  0  0  0  0  0
    3.9976    4.6115    1.2283 N   0  0  0  0  0  0  0  0  0  0  0  0
    4.3915    4.8781    2.5920 C   0  0  0  0  0  0  0  0  0  0  0  0
    4.6642    4.8248    0.4921 H   0  0  0  0  0  0  0  0  0  0  0  0
    4.1024    5.9041    2.8638 H   0  0  0  0  0  0  0  0  0  0  0  0
    3.8906    4.1659    3.2641 H   0  0  0  0  0  0  0  0  0  0  0  0
    5.4818    4.7672    2.6869 H   0  0  0  0  0  0  0  0  0  0  0  0
 22 24  2  0  0  0  0
 24 26  1  0  0  0  0
 25 26  1  0  0  0  0
 23 25  2  0  0  0  0
 21 22  1  0  0  0  0
 22 23  1  0  0  0  0
  1  3  1  0  0  0  0
  1  7  1  0  0  0  0
  1  2  2  0  0  0  0
 36 37  1  0  0  0  0
 37 45  1  0  0  0  0
 37 38  2  0  0  0  0
  8  9  1  0  0  0  0
  9 17  1  0  0  0  0
  9 10  2  0  0  0  0
 18 19  1  0  0  0  0
 19 35  1  0  0  0  0
 19 20  2  0  0  0  0
 36 39  1  0  0  0  0
  8 11  1  0  0  0  0
 45 46  1  0  0  0  0
 18 21  1  0  0  0  0
 35 36  1  0  0  0  0
  7  8  1  0  0  0  0
 17 18  1  0  0  0  0
 24 32  1  0  0  0  0
 25 33  1  0  0  0  0
  3  4  1  0  0  0  0
  3  5  1  0  0  0  0
  3  6  1  0  0  0  0
 39 42  1  0  0  0  0
 39 43  1  0  0  0  0
 39 44  1  0  0  0  0
 11 14  1  0  0  0  0
 11 15  1  0  0  0  0
 11 16  1  0  0  0  0
 46 48  1  0  0  0  0
 46 49  1  0  0  0  0
 46 50  1  0  0  0  0
 21 29  1  0  0  0  0
 21 30  1  0  0  0  0
 36 41  1  0  0  0  0
  8 13  1  0  0  0  0
 18 28  1  0  0  0  0
 26 34  1  0  0  0  0
 23 31  1  0  0  0  0
 45 47  1  0  0  0  0
  7 12  1  0  0  0  0
 35 40  1  0  0  0  0
 17 27  1  0  0  0  0
M  CHG  1  23   1
M  END
$$$$

  -OEChem-05262214473D

 50 50  0     1  0  0  0  0  0999 V2000
   -1.6938    0.4865    3.8080 C   0  0  0  0  0  0  0  0  0  0  0  0
   -0.7464   -0.1282    3.3323 O   0  0  0  0  0  0  0  0  0  0  0  0
   -2.1257    0.2041    5.2087 C   0  0  0  0  0  0  0  0  0  0  0  0
   -2.8853   -0.5922    5.2621 H   0  0  0  0  0  0  0  0  0  0  0  0
   -1.2944   -0.1435    5.8430 H   0  0  0  0  0  0  0  0  0  0  0  0
   -2.5637    1.0590    5.7483 H   0  0  0  0  0  0  0  0  0  0  0  0
   -2.4435    1.4589    3.1669 N   0  0  0  0  0  0  0  0  0  0  0  0
   -2.1966    1.8850    1.8145 C   0  0  2  0  0  0  0  0  0  0  0  0
   -0.8617    1.2996    1.3733 C   0  0  0  0  0  0  0  0  0  0  0  0
    0.0104    0.9468    2.1646 O   0  0  0  0  0  0  0  0  0  0  0  0
   -2.1879    3.4017    1.7050 C   0  0  0  0  0  0  0  0  0  0  0  0
   -3.2085    1.8948    3.6787 H   0  0  0  0  0  0  0  0  0  0  0  0
   -3.0007    1.4665    1.1994 H   0  0  0  0  0  0  0  0  0  0  0  0
   -1.3888    3.8390    2.3147 H   0  0  0  0  0  0  0  0  0  0  0  0
   -2.0284    3.7240    0.6708 H   0  0  0  0  0  0  0  0  0  0  0  0
   -3.1380    3.8230    2.0508 H   0  0  0  0  0  0  0  0  0  0  0  0
   -0.7390    1.2565   -0.0101 N   0  0  0  0  0  0  0  0  0  0  0  0
    0.4383    0.7557   -0.6738 C   0  0  2  0  0  0  0  0  0  0  0  0
    1.6107    1.6219   -0.2271 C   0  0  0  0  0  0  0  0  0  0  0  0
    2.6105    1.1634    0.3214 O   0  0  0  0  0  0  0  0  0  0  0  0
    0.3013    0.7903   -2.2003 C   0  0  0  0  0  0  0  0  0  0  0  0
   -0.7928   -0.1164   -2.7088 C   0  0  0  0  0  0  0  0  0  0  0  0
   -0.6411   -1.4813   -2.7555 N   0  3  0  0  0  0  0  0  0  0  0  0
   -2.0422    0.1572   -3.1894 C   0  0  0  0  0  0  0  0  0  0  0  0
   -1.7534   -2.0368   -3.2469 C   0  0  0  0  0  0  0  0  0  0  0  0
   -2.6137   -1.0492   -3.5151 N   0  0  0  0  0  0  0  0  0  0  0  0
   -1.5221    1.5532   -0.5874 H   0  0  0  0  0  0  0  0  0  0  0  0
    0.5897   -0.2678   -0.3112 H   0  0  0  0  0  0  0  0  0  0  0  0
    1.2549    0.5202   -2.6740 H   0  0  0  0  0  0  0  0  0  0  0  0
    0.0886    1.8115   -2.5432 H   0  0  0  0  0  0  0  0  0  0  0  0
    0.1868   -1.9937   -2.4640 H   0  0  0  0  0  0  0  0  0  0  0  0
   -2.6253    1.0410   -3.3554 H   0  0  0  0  0  0  0  0  0  0  0  0
   -1.9248   -3.0893   -3.3998 H   0  0  0  0  0  0  0  0  0  0  0  0
   -3.5453   -1.1744   -3.9010 H   0  0  0  0  0  0  0  0  0  0  0  0
    1.4267    2.9568   -0.5596 N   0  0  0  0  0  0  0  0  0  0  0  0
    2.3978    3.9876   -0.2711 C   0  0  2  0  0  0  0  0  0  0  0  0
    2.7899    3.8670    1.1956 C   0  0  0  0  0  0  0  0  0  0  0  0
    2.0791    3.3219    2.0374 O   0  0  0  0  0  0  0  0  0  0  0  0
    1.8429    5.3708   -0.5734 C   0  0  0  0  0  0  0  0  0  0  0  0
    0.5662    3.2227   -1.0293 H   0  0  0  0  0  0  0  0  0  0  0  0
    3.2708    3.7849   -0.9010 H   0  0  0  0  0  0  0  0  0  0  0  0
    0.9675    5.5919    0.0483 H   0  0  0  0  0  0  0  0  0  0  0  0
    2.5894    6.1485   -0.3814 H   0  0  0  0  0  0  0  0  0  0  0  0
    1.5337    5.4462   -1.6215 H   0  0  0  0  0  0  0  0  0  0  0  0
    4.0074    4.4777    1.4623 N   0  0  0  0  0  0  0  0  0  0  0  0
    4.5906    4.5102    2.7832 C   0  0  0  0  0  0  0  0  0  0  0  0
    4.5377    4.8888    0.6998 H   0  0  0  0  0  0  0  0  0  0  0  0
    4.2850    5.4336    3.2968 H   0  0  0  0  0  0  0  0  0  0  0  0
    4.2440    3.6390    3.3584 H   0  0  0  0  0  0  0  0  0  0  0  0
    5.6871    4.4824    2.7005 H   0  0  0  0  0  0  0  0  0  0  0  0
 22 24  2  0  0  0  0
 24 26  1  0  0  0  0
 25 26  1  0  0  0  0
 23 25  2  0  0  0  0
 21 22  1  0  0  0  0
 22 23  1  0  0  0  0
  1  3  1  0  0  0  0
  1  7  1  0  0  0  0
  1  2  2  0  0  0  0
 36 37  1  0  0  0  0
 37 45  1  0  0  0  0
 37 38  2  0  0  0  0
  8  9  1  0  0  0  0
  9 17  1  0  0  0  0
  9 10  2  0  0  0  0
 18 19  1  0  0  0  0
 19 35  1  0  0  0  0
 19 20  2  0  0  0  0
 36 39  1  0  0  0  0
  8 11  1  0  0  0  0
 45 46  1  0  0  0  0
 18 21  1  0  0  0  0
 35 36  1  0  0  0  0
  7  8  1  0  0  0  0
 17 18  1  0  0  0  0
 24 32  1  0  0  0  0
 25 33  1  0  0  0  0
  3  4  1  0  0  0  0
  3  5  1  0  0  0  0
  3  6  1  0  0  0  0
 39 42  1  0  0  0  0
 39 43  1  0  0  0  0
 39 44  1  0  0  0  0
 11 14  1  0  0  0  0
 11 15  1  0  0  0  0
 11 16  1  0  0  0  0
 46 48  1  0  0  0  0
 46 49  1  0  0  0  0
 46 50  1  0  0  0  0
 21 29  1  0  0  0  0
 21 30  1  0  0  0  0
 36 41  1  0  0  0  0
  8 13  1  0  0  0  0
 18 28  1  0  0  0  0
 26 34  1  0  0  0  0
 23 31  1  0  0  0  0
 45 47  1  0  0  0  0
  7 12  1  0  0  0  0
 35 40  1  0  0  0  0
 17 27  1  0  0  0  0
M  CHG  1  23   1
M  END
$$$$

  -OEChem-05262214473D

 50 50  0     1  0  0  0  0  0999 V2000
   -1.6938    0.4865    3.8080 C   0  0  0  0  0  0  0  0  0  0  0  0
   -0.7464   -0.1282    3.3323 O   0  0  0  0  0  0  0  0  0  0  0  0
   -2.1257    0.2041    5.2087 C   0  0  0  0  0  0  0  0  0  0  0  0
   -2.8853   -0.5922    5.2621 H   0  0  0  0  0  0  0  0  0  0  0  0
   -1.2944   -0.1435    5.8430 H   0  0  0  0  0  0  0  0  0  0  0  0
   -2.5637    1.0590    5.7483 H   0  0  0  0  0  0  0  0  0  0  0  0
   -2.4435    1.4589    3.1669 N   0  0  0  0  0  0  0  0  0  0  0  0
   -2.1966    1.8850    1.8145 C   0  0  2  0  0  0  0  0  0  0  0  0
   -0.8617    1.2996    1.3733 C   0  0  0  0  0  0  0  0  0  0  0  0
    0.0104    0.9468    2.1646 O   0  0  0  0  0  0  0  0  0  0  0  0
   -2.1879    3.4017    1.7050 C   0  0  0  0  0  0  0  0  0  0  0  0
   -3.2085    1.8948    3.6787 H   0  0  0  0  0  0  0  0  0  0  0  0
   -3.0007    1.4665    1.1994 H   0  0  0  0  0  0  0  0  0  0  0  0
   -1.3888    3.8390    2.3147 H   0  0  0  0  0  0  0  0  0  0  0  0
   -2.0284    3.7240    0.6708 H   0  0  0  0  0  0  0  0  0  0  0  0
   -3.1380    3.8230    2.0508 H   0  0  0  0  0  0  0  0  0  0  0  0
   -0.7390    1.2565   -0.0101 N   0  0  0  0  0  0  0  0  0  0  0  0
    0.4383    0.7557   -0.6738 C   0  0  2  0  0  0  0  0  0  0  0  0
    1.6107    1.6219   -0.2271 C   0  0  0  0  0  0  0  0  0  0  0  0
    2.7094    1.1586    0.0711 O   0  0  0  0  0  0  0  0  0  0  0  0
    0.3013    0.7903   -2.2003 C   0  0  0  0  0  0  0  0  0  0  0  0
   -0.7928   -0.1164   -2.7088 C   0  0  0  0  0  0  0  0  0  0  0  0
   -0.6411   -1.4813   -2.7555 N   0  3  0  0  0  0  0  0  0  0  0  0
   -2.0422    0.1572   -3.1894 C   0  0  0  0  0  0  0  0  0  0  0  0
   -1.7534   -2.0368   -3.2469 C   0  0  0  0  0  0  0  0  0  0  0  0
   -2.6137   -1.0492   -3.5151 N   0  0  0  0  0  0  0  0  0  0  0  0
   -1.5221    1.5532   -0.5874 H   0  0  0  0  0  0  0  0  0  0  0  0
    0.5897   -0.2678   -0.3112 H   0  0  0  0  0  0  0  0  0  0  0  0
    1.2549    0.5202   -2.6740 H   0  0  0  0  0  0  0  0  0  0  0  0
    0.0886    1.8115   -2.5432 H   0  0  0  0  0  0  0  0  0  0  0  0
    0.1868   -1.9937   -2.4640 H   0  0  0  0  0  0  0  0  0  0  0  0
   -2.6253    1.0410   -3.3554 H   0  0  0  0  0  0  0  0  0  0  0  0
   -1.9248   -3.0893   -3.3998 H   0  0  0  0  0  0  0  0  0  0  0  0
   -3.5453   -1.1744   -3.9010 H   0  0  0  0  0  0  0  0  0  0  0  0
    1.2965    2.9736   -0.2503 N   0  0  0  0  0  0  0  0  0  0  0  0
    2.2359    4.0129    0.1049 C   0  0  2  0  0  0  0  0  0  0  0  0
    2.8568    3.6471    1.4465 C   0  0  0  0  0  0  0  0  0  0  0  0
    2.3193    2.8873    2.2496 O   0  0  0  0  0  0  0  0  0  0  0  0
    1.5576    5.3724    0.1725 C   0  0  0  0  0  0  0  0  0  0  0  0
    0.3591    3.2461   -0.5311 H   0  0  0  0  0  0  0  0  0  0  0  0
    3.0116    4.0159   -0.6686 H   0  0  0  0  0  0  0  0  0  0  0  0
    0.7772    5.3887    0.9420 H   0  0  0  0  0  0  0  0  0  0  0  0
    2.2761    6.1627    0.4137 H   0  0  0  0  0  0  0  0  0  0  0  0
    1.0860    5.6206   -0.7845 H   0  0  0  0  0  0  0  0  0  0  0  0
    4.0614    4.3026    1.6602 N   0  0  0  0  0  0  0  0  0  0  0  0
    4.8388    4.1318    2.8653 C   0  0  0  0  0  0  0  0  0  0  0  0
    4.4413    4.8998    0.9317 H   0  0  0  0  0  0  0  0  0  0  0  0
    4.5607    4.9069    3.5946 H   0  0  0  0  0  0  0  0  0  0  0  0
    4.6392    3.1380    3.2926 H   0  0  0  0  0  0  0  0  0  0  0  0
    5.9090    4.2201    2.6267 H   0  0  0  0  0  0  0  0  0  0  0  0
 22 24  2  0  0  0  0
 24 26  1  0  0  0  0
 25 26  1  0  0  0  0
 23 25  2  0  0  0  0
 21 22  1  0  0  0  0
 22 23  1  0  0  0  0
  1  3  1  0  0  0  0
  1  7  1  0  0  0  0
  1  2  2  0  0  0  0
 36 37  1  0  0  0  0
 37 45  1  0  0  0  0
 37 38  2  0  0  0  0
  8  9  1  0  0  0  0
  9 17  1  0  0  0  0
  9 10  2  0  0  0  0
 18 19  1  0  0  0  0
 19 35  1  0  0  0  0
 19 20  2  0  0  0  0
 36 39  1  0  0  0  0
  8 11  1  0  0  0  0
 45 46  1  0  0  0  0
 18 21  1  0  0  0  0
 35 36  1  0  0  0  0
  7  8  1  0  0  0  0
 17 18  1  0  0  0  0
 24 32  1  0  0  0  0
 25 33  1  0  0  0  0
  3  4  1  0  0  0  0
  3  5  1  0  0  0  0
  3  6  1  0  0  0  0
 39 42  1  0  0  0  0
 39 43  1  0  0  0  0
 39 44  1  0  0  0  0
 11 14  1  0  0  0  0
 11 15  1  0  0  0  0
 11 16  1  0  0  0  0
 46 48  1  0  0  0  0
 46 49  1  0  0  0  0
 46 50  1  0  0  0  0
 21 29  1  0  0  0  0
 21 30  1  0  0  0  0
 36 41  1  0  0  0  0
  8 13  1  0  0  0  0
 18 28  1  0  0  0  0
 26 34  1  0  0  0  0
 23 31  1  0  0  0  0
 45 47  1  0  0  0  0
  7 12  1  0  0  0  0
 35 40  1  0  0  0  0
 17 27  1  0  0  0  0
M  CHG  1  23   1
M  END
$$$$

  -OEChem-05262214473D

 50 50  0     1  0  0  0  0  0999 V2000
   -1.6938    0.4865    3.8080 C   0  0  0  0  0  0  0  0  0  0  0  0
   -0.7464   -0.1282    3.3323 O   0  0  0  0  0  0  0  0  0  0  0  0
   -2.1257    0.2041    5.2087 C   0  0  0  0  0  0  0  0  0  0  0  0
   -2.8853   -0.5922    5.2621 H   0  0  0  0  0  0  0  0  0  0  0  0
   -1.2944   -0.1435    5.8430 H   0  0  0  0  0  0  0  0  0  0  0  0
   -2.5637    1.0590    5.7483 H   0  0  0  0  0  0  0  0  0  0  0  0
   -2.4435    1.4589    3.1669 N   0  0  0  0  0  0  0  0  0  0  0  0
   -2.1966    1.8850    1.8145 C   0  0  2  0  0  0  0  0  0  0  0  0
   -0.8617    1.2996    1.3733 C   0  0  0  0  0  0  0  0  0  0  0  0
    0.0104    0.9468    2.1646 O   0  0  0  0  0  0  0  0  0  0  0  0
   -2.1879    3.4017    1.7050 C   0  0  0  0  0  0  0  0  0  0  0  0
   -3.2085    1.8948    3.6787 H   0  0  0  0  0  0  0  0  0  0  0  0
   -3.0007    1.4665    1.1994 H   0  0  0  0  0  0  0  0  0  0  0  0
   -1.3888    3.8390    2.3147 H   0  0  0  0  0  0  0  0  0  0  0  0
   -2.0284    3.7240    0.6708 H   0  0  0  0  0  0  0  0  0  0  0  0
   -3.1380    3.8230    2.0508 H   0  0  0  0  0  0  0  0  0  0  0  0
   -0.7390    1.2565   -0.0101 N   0  0  0  0  0  0  0  0  0  0  0  0
    0.4383    0.7557   -0.6738 C   0  0  2  0  0  0  0  0  0  0  0  0
    1.6107    1.6219   -0.2271 C   0  0  0  0  0  0  0  0  0  0  0  0
    2.7685    1.2113   -0.1861 O   0  0  0  0  0  0  0  0  0  0  0  0
    0.3013    0.7903   -2.2003 C   0  0  0  0  0  0  0  0  0  0  0  0
   -0.7928   -0.1164   -2.7088 C   0  0  0  0  0  0  0  0  0  0  0  0
   -0.6411   -1.4813   -2.7555 N   0  3  0  0  0  0  0  0  0  0  0  0
   -2.0422    0.1572   -3.1894 C   0  0  0  0  0  0  0  0  0  0  0  0
   -1.7534   -2.0368   -3.2469 C   0  0  0  0  0  0  0  0  0  0  0  0
   -2.6137   -1.0492   -3.5151 N   0  0  0  0  0  0  0  0  0  0  0  0
   -1.5221    1.5532   -0.5874 H   0  0  0  0  0  0  0  0  0  0  0  0
    0.5897   -0.2678   -0.3112 H   0  0  0  0  0  0  0  0  0  0  0  0
    1.2549    0.5202   -2.6740 H   0  0  0  0  0  0  0  0  0  0  0  0
    0.0886    1.8115   -2.5432 H   0  0  0  0  0  0  0  0  0  0  0  0
    0.1868   -1.9937   -2.4640 H   0  0  0  0  0  0  0  0  0  0  0  0
   -2.6253    1.0410   -3.3554 H   0  0  0  0  0  0  0  0  0  0  0  0
   -1.9248   -3.0893   -3.3998 H   0  0  0  0  0  0  0  0  0  0  0  0
   -3.5453   -1.1744   -3.9010 H   0  0  0  0  0  0  0  0  0  0  0  0
    1.2149    2.9184    0.0709 N   0  0  0  0  0  0  0  0  0  0  0  0
    2.1328    3.9503    0.4968 C   0  0  2  0  0  0  0  0  0  0  0  0
    2.9750    3.3898    1.6353 C   0  0  0  0  0  0  0  0  0  0  0  0
    2.6156    2.4435    2.3327 O   0  0  0  0  0  0  0  0  0  0  0  0
    1.3916    5.2037    0.9352 C   0  0  0  0  0  0  0  0  0  0  0  0
    0.2305    3.1539   -0.0147 H   0  0  0  0  0  0  0  0  0  0  0  0
    2.7779    4.1731   -0.3600 H   0  0  0  0  0  0  0  0  0  0  0  0
    0.7401    5.0001    1.7928 H   0  0  0  0  0  0  0  0  0  0  0  0
    2.0892    5.9944    1.2305 H   0  0  0  0  0  0  0  0  0  0  0  0
    0.7633    5.5885    0.1246 H   0  0  0  0  0  0  0  0  0  0  0  0
    4.1559    4.0981    1.8086 N   0  0  0  0  0  0  0  0  0  0  0  0
    5.1194    3.7688    2.8328 C   0  0  0  0  0  0  0  0  0  0  0  0
    4.3814    4.8569    1.1721 H   0  0  0  0  0  0  0  0  0  0  0  0
    4.9108    4.3598    3.7368 H   0  0  0  0  0  0  0  0  0  0  0  0
    5.0492    2.6972    3.0712 H   0  0  0  0  0  0  0  0  0  0  0  0
    6.1324    3.9983    2.4706 H   0  0  0  0  0  0  0  0  0  0  0  0
 22 24  2  0  0  0  0
 24 26  1  0  0  0  0
 25 26  1  0  0  0  0
 23 25  2  0  0  0  0
 21 22  1  0  0  0  0
 22 23  1  0  0  0  0
  1  3  1  0  0  0  0
  1  7  1  0  0  0  0
  1  2  2  0  0  0  0
 36 37  1  0  0  0  0
 37 45  1  0  0  0  0
 37 38  2  0  0  0  0
  8  9  1  0  0  0  0
  9 17  1  0  0  0  0
  9 10  2  0  0  0  0
 18 19  1  0  0  0  0
 19 35  1  0  0  0  0
 19 20  2  0  0  0  0
 36 39  1  0  0  0  0
  8 11  1  0  0  0  0
 45 46  1  0  0  0  0
 18 21  1  0  0  0  0
 35 36  1  0  0  0  0
  7  8  1  0  0  0  0
 17 18  1  0  0  0  0
 24 32  1  0  0  0  0
 25 33  1  0  0  0  0
  3  4  1  0  0  0  0
  3  5  1  0  0  0  0
  3  6  1  0  0  0  0
 39 42  1  0  0  0  0
 39 43  1  0  0  0  0
 39 44  1  0  0  0  0
 11 14  1  0  0  0  0
 11 15  1  0  0  0  0
 11 16  1  0  0  0  0
 46 48  1  0  0  0  0
 46 49  1  0  0  0  0
 46 50  1  0  0  0  0
 21 29  1  0  0  0  0
 21 30  1  0  0  0  0
 36 41  1  0  0  0  0
  8 13  1  0  0  0  0
 18 28  1  0  0  0  0
 26 34  1  0  0  0  0
 23 31  1  0  0  0  0
 45 47  1  0  0  0  0
  7 12  1  0  0  0  0
 35 40  1  0  0  0  0
 17 27  1  0  0  0  0
M  CHG  1  23   1
M  END
$$$$

  -OEChem-05262214473D

 50 50  0     1  0  0  0  0  0999 V2000
   -1.6938    0.4865    3.8080 C   0  0  0  0  0  0  0  0  0  0  0  0
   -0.7464   -0.1282    3.3323 O   0  0  0  0  0  0  0  0  0  0  0  0
   -2.1257    0.2041    5.2087 C   0  0  0  0  0  0  0  0  0  0  0  0
   -2.8853   -0.5922    5.2621 H   0  0  0  0  0  0  0  0  0  0  0  0
   -1.2944   -0.1435    5.8430 H   0  0  0  0  0  0  0  0  0  0  0  0
   -2.5637    1.0590    5.7483 H   0  0  0  0  0  0  0  0  0  0  0  0
   -2.4435    1.4589    3.1669 N   0  0  0  0  0  0  0  0  0  0  0  0
   -2.1966    1.8850    1.8145 C   0  0  2  0  0  0  0  0  0  0  0  0
   -0.8617    1.2996    1.3733 C   0  0  0  0  0  0  0  0  0  0  0  0
    0.0104    0.9468    2.1646 O   0  0  0  0  0  0  0  0  0  0  0  0
   -2.1879    3.4017    1.7050 C   0  0  0  0  0  0  0  0  0  0  0  0
   -3.2085    1.8948    3.6787 H   0  0  0  0  0  0  0  0  0  0  0  0
   -3.0007    1.4665    1.1994 H   0  0  0  0  0  0  0  0  0  0  0  0
   -1.3888    3.8390    2.3147 H   0  0  0  0  0  0  0  0  0  0  0  0
   -2.0284    3.7240    0.6708 H   0  0  0  0  0  0  0  0  0  0  0  0
   -3.1380    3.8230    2.0508 H   0  0  0  0  0  0  0  0  0  0  0  0
   -0.7390    1.2565   -0.0101 N   0  0  0  0  0  0  0  0  0  0  0  0
    0.4383    0.7557   -0.6738 C   0  0  2  0  0  0  0  0  0  0  0  0
    1.6107    1.6219   -0.2271 C   0  0  0  0  0  0  0  0  0  0  0  0
    2.7838    1.3179   -0.4328 O   0  0  0  0  0  0  0  0  0  0  0  0
    0.3013    0.7903   -2.2003 C   0  0  0  0  0  0  0  0  0  0  0  0
   -0.7928   -0.1164   -2.7088 C   0  0  0  0  0  0  0  0  0  0  0  0
   -0.6411   -1.4813   -2.7555 N   0  3  0  0  0  0  0  0  0  0  0  0
   -2.0422    0.1572   -3.1894 C   0  0  0  0  0  0  0  0  0  0  0  0
   -1.7534   -2.0368   -3.2469 C   0  0  0  0  0  0  0  0  0  0  0  0
   -2.6137   -1.0492   -3.5151 N   0  0  0  0  0  0  0  0  0  0  0  0
   -1.5221    1.5532   -0.5874 H   0  0  0  0  0  0  0  0  0  0  0  0
    0.5897   -0.2678   -0.3112 H   0  0  0  0  0  0  0  0  0  0  0  0
    1.2549    0.5202   -2.6740 H   0  0  0  0  0  0  0  0  0  0  0  0
    0.0886    1.8115   -2.5432 H   0  0  0  0  0  0  0  0  0  0  0  0
    0.1868   -1.9937   -2.4640 H   0  0  0  0  0  0  0  0  0  0  0  0
   -2.6253    1.0410   -3.3554 H   0  0  0  0  0  0  0  0  0  0  0  0
   -1.9248   -3.0893   -3.3998 H   0  0  0  0  0  0  0  0  0  0  0  0
   -3.5453   -1.1744   -3.9010 H   0  0  0  0  0  0  0  0  0  0  0  0
    1.1875    2.7950    0.3822 N   0  0  0  0  0  0  0  0  0  0  0  0
    2.0956    3.8039    0.8782 C   0  0  2  0  0  0  0  0  0  0  0  0
    3.1364    3.1127    1.7490 C   0  0  0  0  0  0  0  0  0  0  0  0
    2.9476    2.0208    2.2811 O   0  0  0  0  0  0  0  0  0  0  0  0
    1.3562    4.8765    1.6627 C   0  0  0  0  0  0  0  0  0  0  0  0
    0.1892    2.9523    0.4847 H   0  0  0  0  0  0  0  0  0  0  0  0
    2.5856    4.2458    0.0037 H   0  0  0  0  0  0  0  0  0  0  0  0
    0.8589    4.4526    2.5427 H   0  0  0  0  0  0  0  0  0  0  0  0
    2.0416    5.6551    2.0134 H   0  0  0  0  0  0  0  0  0  0  0  0
    0.5878    5.3521    1.0437 H   0  0  0  0  0  0  0  0  0  0  0  0
    4.2845    3.8783    1.8973 N   0  0  0  0  0  0  0  0  0  0  0  0
    5.4132    3.4459    2.6880 C   0  0  0  0  0  0  0  0  0  0  0  0
    4.3622    4.7631    1.4045 H   0  0  0  0  0  0  0  0  0  0  0  0
    5.3113    3.8295    3.7139 H   0  0  0  0  0  0  0  0  0  0  0  0
    5.4461    2.3466    2.7093 H   0  0  0  0  0  0  0  0  0  0  0  0
    6.3420    3.8320    2.2428 H   0  0  0  0  0  0  0  0  0  0  0  0
 22 24  2  0  0  0  0
 24 26  1  0  0  0  0
 25 26  1  0  0  0  0
 23 25  2  0  0  0  0
 21 22  1  0  0  0  0
 22 23  1  0  0  0  0
  1  3  1  0  0  0  0
  1  7  1  0  0  0  0
  1  2  2  0  0  0  0
 36 37  1  0  0  0  0
 37 45  1  0  0  0  0
 37 38  2  0  0  0  0
  8  9  1  0  0  0  0
  9 17  1  0  0  0  0
  9 10  2  0  0  0  0
 18 19  1  0  0  0  0
 19 35  1  0  0  0  0
 19 20  2  0  0  0  0
 36 39  1  0  0  0  0
  8 11  1  0  0  0  0
 45 46  1  0  0  0  0
 18 21  1  0  0  0  0
 35 36  1  0  0  0  0
  7  8  1  0  0  0  0
 17 18  1  0  0  0  0
 24 32  1  0  0  0  0
 25 33  1  0  0  0  0
  3  4  1  0  0  0  0
  3  5  1  0  0  0  0
  3  6  1  0  0  0  0
 39 42  1  0  0  0  0
 39 43  1  0  0  0  0
 39 44  1  0  0  0  0
 11 14  1  0  0  0  0
 11 15  1  0  0  0  0
 11 16  1  0  0  0  0
 46 48  1  0  0  0  0
 46 49  1  0  0  0  0
 46 50  1  0  0  0  0
 21 29  1  0  0  0  0
 21 30  1  0  0  0  0
 36 41  1  0  0  0  0
  8 13  1  0  0  0  0
 18 28  1  0  0  0  0
 26 34  1  0  0  0  0
 23 31  1  0  0  0  0
 45 47  1  0  0  0  0
  7 12  1  0  0  0  0
 35 40  1  0  0  0  0
 17 27  1  0  0  0  0
M  CHG  1  23   1
M  END
$$$$

  -OEChem-05262214473D

 50 50  0     1  0  0  0  0  0999 V2000
   -1.6938    0.4865    3.8080 C   0  0  0  0  0  0  0  0  0  0  0  0
   -0.7464   -0.1282    3.3323 O   0  0  0  0  0  0  0  0  0  0  0  0
   -2.1257    0.2041    5.2087 C   0  0  0  0  0  0  0  0  0  0  0  0
   -2.8853   -0.5922    5.2621 H   0  0  0  0  0  0  0  0  0  0  0  0
   -1.2944   -0.1435    5.8430 H   0  0  0  0  0  0  0  0  0  0  0  0
   -2.5637    1.0590    5.7483 H   0  0  0  0  0  0  0  0  0  0  0  0
   -2.4435    1.4589    3.1669 N   0  0  0  0  0  0  0  0  0  0  0  0
   -2.1966    1.8850    1.8145 C   0  0  2  0  0  0  0  0  0  0  0  0
   -0.8617    1.2996    1.3733 C   0  0  0  0  0  0  0  0  0  0  0  0
    0.0104    0.9468    2.1646 O   0  0  0  0  0  0  0  0  0  0  0  0
   -2.1879    3.4017    1.7050 C   0  0  0  0  0  0  0  0  0  0  0  0
   -3.2085    1.8948    3.6787 H   0  0  0  0  0  0  0  0  0  0  0  0
   -3.0007    1.4665    1.1994 H   0  0  0  0  0  0  0  0  0  0  0  0
   -1.3888    3.8390    2.3147 H   0  0  0  0  0  0  0  0  0  0  0  0
   -2.0284    3.7240    0.6708 H   0  0  0  0  0  0  0  0  0  0  0  0
   -3.1380    3.8230    2.0508 H   0  0  0  0  0  0  0  0  0  0  0  0
   -0.7390    1.2565   -0.0101 N   0  0  0  0  0  0  0  0  0  0  0  0
    0.4383    0.7557   -0.6738 C   0  0  2  0  0  0  0  0  0  0  0  0
    1.6107    1.6219   -0.2271 C   0  0  0  0  0  0  0  0  0  0  0  0
    2.7541    1.4711   -0.6521 O   0  0  0  0  0  0  0  0  0  0  0  0
    0.3013    0.7903   -2.2003 C   0  0  0  0  0  0  0  0  0  0  0  0
   -0.7928   -0.1164   -2.7088 C   0  0  0  0  0  0  0  0  0  0  0  0
   -0.6411   -1.4813   -2.7555 N   0  3  0  0  0  0  0  0  0  0  0  0
   -2.0422    0.1572   -3.1894 C   0  0  0  0  0  0  0  0  0  0  0  0
   -1.7534   -2.0368   -3.2469 C   0  0  0  0  0  0  0  0  0  0  0  0
   -2.6137   -1.0492   -3.5151 N   0  0  0  0  0  0  0  0  0  0  0  0
   -1.5221    1.5532   -0.5874 H   0  0  0  0  0  0  0  0  0  0  0  0
    0.5897   -0.2678   -0.3112 H   0  0  0  0  0  0  0  0  0  0  0  0
    1.2549    0.5202   -2.6740 H   0  0  0  0  0  0  0  0  0  0  0  0
    0.0886    1.8115   -2.5432 H   0  0  0  0  0  0  0  0  0  0  0  0
    0.1868   -1.9937   -2.4640 H   0  0  0  0  0  0  0  0  0  0  0  0
   -2.6253    1.0410   -3.3554 H   0  0  0  0  0  0  0  0  0  0  0  0
   -1.9248   -3.0893   -3.3998 H   0  0  0  0  0  0  0  0  0  0  0  0
   -3.5453   -1.1744   -3.9010 H   0  0  0  0  0  0  0  0  0  0  0  0
    1.2161    2.6117    0.6623 N   0  0  0  0  0  0  0  0  0  0  0  0
    2.1269    3.5839    1.2228 C   0  0  2  0  0  0  0  0  0  0  0  0
    3.3301    2.8346    1.7800 C   0  0  0  0  0  0  0  0  0  0  0  0
    3.2927    1.6479    2.0983 O   0  0  0  0  0  0  0  0  0  0  0  0
    1.4538    4.4129    2.3055 C   0  0  0  0  0  0  0  0  0  0  0  0
    0.2381    2.6550    0.9329 H   0  0  0  0  0  0  0  0  0  0  0  0
    2.4478    4.2291    0.3977 H   0  0  0  0  0  0  0  0  0  0  0  0
    1.1254    3.7835    3.1407 H   0  0  0  0  0  0  0  0  0  0  0  0
    2.1365    5.1679    2.7092 H   0  0  0  0  0  0  0  0  0  0  0  0
    0.5714    4.9276    1.9103 H   0  0  0  0  0  0  0  0  0  0  0  0
    4.4385    3.6580    1.9204 N   0  0  0  0  0  0  0  0  0  0  0  0
    5.7001    3.1851    2.4406 C   0  0  0  0  0  0  0  0  0  0  0  0
    4.3849    4.6247    1.6132 H   0  0  0  0  0  0  0  0  0  0  0  0
    5.7350    3.3523    3.5272 H   0  0  0  0  0  0  0  0  0  0  0  0
    5.8029    2.1100    2.2316 H   0  0  0  0  0  0  0  0  0  0  0  0
    6.5236    3.7327    1.9588 H   0  0  0  0  0  0  0  0  0  0  0  0
 22 24  2  0  0  0  0
 24 26  1  0  0  0  0
 25 26  1  0  0  0  0
 23 25  2  0  0  0  0
 21 22  1  0  0  0  0
 22 23  1  0  0  0  0
  1  3  1  0  0  0  0
  1  7  1  0  0  0  0
  1  2  2  0  0  0  0
 36 37  1  0  0  0  0
 37 45  1  0  0  0  0
 37 38  2  0  0  0  0
  8  9  1  0  0  0  0
  9 17  1  0  0  0  0
  9 10  2  0  0  0  0
 18 19  1  0  0  0  0
 19 35  1  0  0  0  0
 19 20  2  0  0  0  0
 36 39  1  0  0  0  0
  8 11  1  0  0  0  0
 45 46  1  0  0  0  0
 18 21  1  0  0  0  0
 35 36  1  0  0  0  0
  7  8  1  0  0  0  0
 17 18  1  0  0  0  0
 24 32  1  0  0  0  0
 25 33  1  0  0  0  0
  3  4  1  0  0  0  0
  3  5  1  0  0  0  0
  3  6  1  0  0  0  0
 39 42  1  0  0  0  0
 39 43  1  0  0  0  0
 39 44  1  0  0  0  0
 11 14  1  0  0  0  0
 11 15  1  0  0  0  0
 11 16  1  0  0  0  0
 46 48  1  0  0  0  0
 46 49  1  0  0  0  0
 46 50  1  0  0  0  0
 21 29  1  0  0  0  0
 21 30  1  0  0  0  0
 36 41  1  0  0  0  0
  8 13  1  0  0  0  0
 18 28  1  0  0  0  0
 26 34  1  0  0  0  0
 23 31  1  0  0  0  0
 45 47  1  0  0  0  0
  7 12  1  0  0  0  0
 35 40  1  0  0  0  0
 17 27  1  0  0  0  0
M  CHG  1  23   1
M  END
$$$$

  -OEChem-05262214473D

 50 50  0     1  0  0  0  0  0999 V2000
   -1.6938    0.4865    3.8080 C   0  0  0  0  0  0  0  0  0  0  0  0
   -0.7464   -0.1282    3.3323 O   0  0  0  0  0  0  0  0  0  0  0  0
   -2.1257    0.2041    5.2087 C   0  0  0  0  0  0  0  0  0  0  0  0
   -2.8853   -0.5922    5.2621 H   0  0  0  0  0  0  0  0  0  0  0  0
   -1.2944   -0.1435    5.8430 H   0  0  0  0  0  0  0  0  0  0  0  0
   -2.5637    1.0590    5.7483 H   0  0  0  0  0  0  0  0  0  0  0  0
   -2.4435    1.4589    3.1669 N   0  0  0  0  0  0  0  0  0  0  0  0
   -2.1966    1.8850    1.8145 C   0  0  2  0  0  0  0  0  0  0  0  0
   -0.8617    1.2996    1.3733 C   0  0  0  0  0  0  0  0  0  0  0  0
    0.0104    0.9468    2.1646 O   0  0  0  0  0  0  0  0  0  0  0  0
   -2.1879    3.4017    1.7050 C   0  0  0  0  0  0  0  0  0  0  0  0
   -3.2085    1.8948    3.6787 H   0  0  0  0  0  0  0  0  0  0  0  0
   -3.0007    1.4665    1.1994 H   0  0  0  0  0  0  0  0  0  0  0  0
   -1.3888    3.8390    2.3147 H   0  0  0  0  0  0  0  0  0  0  0  0
   -2.0284    3.7240    0.6708 H   0  0  0  0  0  0  0  0  0  0  0  0
   -3.1380    3.8230    2.0508 H   0  0  0  0  0  0  0  0  0  0  0  0
   -0.7390    1.2565   -0.0101 N   0  0  0  0  0  0  0  0  0  0  0  0
    0.4383    0.7557   -0.6738 C   0  0  2  0  0  0  0  0  0  0  0  0
    1.6107    1.6219   -0.2271 C   0  0  0  0  0  0  0  0  0  0  0  0
    2.6816    1.6605   -0.8291 O   0  0  0  0  0  0  0  0  0  0  0  0
    0.3013    0.7903   -2.2003 C   0  0  0  0  0  0  0  0  0  0  0  0
   -0.7928   -0.1164   -2.7088 C   0  0  0  0  0  0  0  0  0  0  0  0
   -0.6411   -1.4813   -2.7555 N   0  3  0  0  0  0  0  0  0  0  0  0
   -2.0422    0.1572   -3.1894 C   0  0  0  0  0  0  0  0  0  0  0  0
   -1.7534   -2.0368   -3.2469 C   0  0  0  0  0  0  0  0  0  0  0  0
   -2.6137   -1.0492   -3.5151 N   0  0  0  0  0  0  0  0  0  0  0  0
   -1.5221    1.5532   -0.5874 H   0  0  0  0  0  0  0  0  0  0  0  0
    0.5897   -0.2678   -0.3112 H   0  0  0  0  0  0  0  0  0  0  0  0
    1.2549    0.5202   -2.6740 H   0  0  0  0  0  0  0  0  0  0  0  0
    0.0886    1.8115   -2.5432 H   0  0  0  0  0  0  0  0  0  0  0  0
    0.1868   -1.9937   -2.4640 H   0  0  0  0  0  0  0  0  0  0  0  0
   -2.6253    1.0410   -3.3554 H   0  0  0  0  0  0  0  0  0  0  0  0
   -1.9248   -3.0893   -3.3998 H   0  0  0  0  0  0  0  0  0  0  0  0
   -3.5453   -1.1744   -3.9010 H   0  0  0  0  0  0  0  0  0  0  0  0
    1.2989    2.3811    0.8922 N   0  0  0  0  0  0  0  0  0  0  0  0
    2.2245    3.3051    1.5073 C   0  0  2  0  0  0  0  0  0  0  0  0
    3.5428    2.5745    1.7260 C   0  0  0  0  0  0  0  0  0  0  0  0
    3.6275    1.3502    1.7967 O   0  0  0  0  0  0  0  0  0  0  0  0
    1.6777    3.8446    2.8198 C   0  0  0  0  0  0  0  0  0  0  0  0
    0.3737    2.2823    1.2996 H   0  0  0  0  0  0  0  0  0  0  0  0
    2.3739    4.1241    0.7953 H   0  0  0  0  0  0  0  0  0  0  0  0
    1.5215    3.0384    3.5459 H   0  0  0  0  0  0  0  0  0  0  0  0
    2.3674    4.5660    3.2703 H   0  0  0  0  0  0  0  0  0  0  0  0
    0.7151    4.3437    2.6652 H   0  0  0  0  0  0  0  0  0  0  0  0
    4.6073    3.4523    1.8761 N   0  0  0  0  0  0  0  0  0  0  0  0
    5.9607    3.0042    2.1075 C   0  0  0  0  0  0  0  0  0  0  0  0
    4.4480    4.4512    1.7839 H   0  0  0  0  0  0  0  0  0  0  0  0
    6.1531    2.9606    3.1897 H   0  0  0  0  0  0  0  0  0  0  0  0
    6.0952    2.0037    1.6707 H   0  0  0  0  0  0  0  0  0  0  0  0
    6.6648    3.7070    1.6381 H   0  0  0  0  0  0  0  0  0  0  0  0
 22 24  2  0  0  0  0
 24 26  1  0  0  0  0
 25 26  1  0  0  0  0
 23 25  2  0  0  0  0
 21 22  1  0  0  0  0
 22 23  1  0  0  0  0
  1  3  1  0  0  0  0
  1  7  1  0  0  0  0
  1  2  2  0  0  0  0
 36 37  1  0  0  0  0
 37 45  1  0  0  0  0
 37 38  2  0  0  0  0
  8  9  1  0  0  0  0
  9 17  1  0  0  0  0
  9 10  2  0  0  0  0
 18 19  1  0  0  0  0
 19 35  1  0  0  0  0
 19 20  2  0  0  0  0
 36 39  1  0  0  0  0
  8 11  1  0  0  0  0
 45 46  1  0  0  0  0
 18 21  1  0  0  0  0
 35 36  1  0  0  0  0
  7  8  1  0  0  0  0
 17 18  1  0  0  0  0
 24 32  1  0  0  0  0
 25 33  1  0  0  0  0
  3  4  1  0  0  0  0
  3  5  1  0  0  0  0
  3  6  1  0  0  0  0
 39 42  1  0  0  0  0
 39 43  1  0  0  0  0
 39 44  1  0  0  0  0
 11 14  1  0  0  0  0
 11 15  1  0  0  0  0
 11 16  1  0  0  0  0
 46 48  1  0  0  0  0
 46 49  1  0  0  0  0
 46 50  1  0  0  0  0
 21 29  1  0  0  0  0
 21 30  1  0  0  0  0
 36 41  1  0  0  0  0
  8 13  1  0  0  0  0
 18 28  1  0  0  0  0
 26 34  1  0  0  0  0
 23 31  1  0  0  0  0
 45 47  1  0  0  0  0
  7 12  1  0  0  0  0
 35 40  1  0  0  0  0
 17 27  1  0  0  0  0
M  CHG  1  23   1
M  END
$$$$

  -OEChem-05262214473D

 50 50  0     1  0  0  0  0  0999 V2000
   -1.6938    0.4865    3.8080 C   0  0  0  0  0  0  0  0  0  0  0  0
   -0.7464   -0.1282    3.3323 O   0  0  0  0  0  0  0  0  0  0  0  0
   -2.1257    0.2041    5.2087 C   0  0  0  0  0  0  0  0  0  0  0  0
   -2.8853   -0.5922    5.2621 H   0  0  0  0  0  0  0  0  0  0  0  0
   -1.2944   -0.1435    5.8430 H   0  0  0  0  0  0  0  0  0  0  0  0
   -2.5637    1.0590    5.7483 H   0  0  0  0  0  0  0  0  0  0  0  0
   -2.4435    1.4589    3.1669 N   0  0  0  0  0  0  0  0  0  0  0  0
   -2.1966    1.8850    1.8145 C   0  0  2  0  0  0  0  0  0  0  0  0
   -0.8617    1.2996    1.3733 C   0  0  0  0  0  0  0  0  0  0  0  0
    0.0104    0.9468    2.1646 O   0  0  0  0  0  0  0  0  0  0  0  0
   -2.1879    3.4017    1.7050 C   0  0  0  0  0  0  0  0  0  0  0  0
   -3.2085    1.8948    3.6787 H   0  0  0  0  0  0  0  0  0  0  0  0
   -3.0007    1.4665    1.1994 H   0  0  0  0  0  0  0  0  0  0  0  0
   -1.3888    3.8390    2.3147 H   0  0  0  0  0  0  0  0  0  0  0  0
   -2.0284    3.7240    0.6708 H   0  0  0  0  0  0  0  0  0  0  0  0
   -3.1380    3.8230    2.0508 H   0  0  0  0  0  0  0  0  0  0  0  0
   -0.7390    1.2565   -0.0101 N   0  0  0  0  0  0  0  0  0  0  0  0
    0.4383    0.7557   -0.6738 C   0  0  2  0  0  0  0  0  0  0  0  0
    1.6107    1.6219   -0.2271 C   0  0  0  0  0  0  0  0  0  0  0  0
    2.5712    1.8732   -0.9517 O   0  0  0  0  0  0  0  0  0  0  0  0
    0.3013    0.7903   -2.2003 C   0  0  0  0  0  0  0  0  0  0  0  0
   -0.7928   -0.1164   -2.7088 C   0  0  0  0  0  0  0  0  0  0  0  0
   -0.6411   -1.4813   -2.7555 N   0  3  0  0  0  0  0  0  0  0  0  0
   -2.0422    0.1572   -3.1894 C   0  0  0  0  0  0  0  0  0  0  0  0
   -1.7534   -2.0368   -3.2469 C   0  0  0  0  0  0  0  0  0  0  0  0
   -2.6137   -1.0492   -3.5151 N   0  0  0  0  0  0  0  0  0  0  0  0
   -1.5221    1.5532   -0.5874 H   0  0  0  0  0  0  0  0  0  0  0  0
    0.5897   -0.2678   -0.3112 H   0  0  0  0  0  0  0  0  0  0  0  0
    1.2549    0.5202   -2.6740 H   0  0  0  0  0  0  0  0  0  0  0  0
    0.0886    1.8115   -2.5432 H   0  0  0  0  0  0  0  0  0  0  0  0
    0.1868   -1.9937   -2.4640 H   0  0  0  0  0  0  0  0  0  0  0  0
   -2.6253    1.0410   -3.3554 H   0  0  0  0  0  0  0  0  0  0  0  0
   -1.9248   -3.0893   -3.3998 H   0  0  0  0  0  0  0  0  0  0  0  0
   -3.5453   -1.1744   -3.9010 H   0  0  0  0  0  0  0  0  0  0  0  0
    1.4302    2.1189    1.0562 N   0  0  0  0  0  0  0  0  0  0  0  0
    2.3817    2.9866    1.7123 C   0  0  2  0  0  0  0  0  0  0  0  0
    3.7601    2.3502    1.5909 C   0  0  0  0  0  0  0  0  0  0  0  0
    3.9292    1.1481    1.3970 O   0  0  0  0  0  0  0  0  0  0  0  0
    2.0128    3.2102    3.1706 C   0  0  0  0  0  0  0  0  0  0  0  0
    0.5869    1.8597    1.5596 H   0  0  0  0  0  0  0  0  0  0  0  0
    2.3690    3.9379    1.1693 H   0  0  0  0  0  0  0  0  0  0  0  0
    2.0202    2.2681    3.7308 H   0  0  0  0  0  0  0  0  0  0  0  0
    2.7186    3.8905    3.6586 H   0  0  0  0  0  0  0  0  0  0  0  0
    1.0092    3.6404    3.2571 H   0  0  0  0  0  0  0  0  0  0  0  0
    4.7794    3.2752    1.7677 N   0  0  0  0  0  0  0  0  0  0  0  0
    6.1771    2.9155    1.7115 C   0  0  0  0  0  0  0  0  0  0  0  0
    4.5472    4.2545    1.9050 H   0  0  0  0  0  0  0  0  0  0  0  0
    6.5369    2.6811    2.7242 H   0  0  0  0  0  0  0  0  0  0  0  0
    6.3032    2.0347    1.0647 H   0  0  0  0  0  0  0  0  0  0  0  0
    6.7559    3.7567    1.3024 H   0  0  0  0  0  0  0  0  0  0  0  0
 22 24  2  0  0  0  0
 24 26  1  0  0  0  0
 25 26  1  0  0  0  0
 23 25  2  0  0  0  0
 21 22  1  0  0  0  0
 22 23  1  0  0  0  0
  1  3  1  0  0  0  0
  1  7  1  0  0  0  0
  1  2  2  0  0  0  0
 36 37  1  0  0  0  0
 37 45  1  0  0  0  0
 37 38  2  0  0  0  0
  8  9  1  0  0  0  0
  9 17  1  0  0  0  0
  9 10  2  0  0  0  0
 18 19  1  0  0  0  0
 19 35  1  0  0  0  0
 19 20  2  0  0  0  0
 36 39  1  0  0  0  0
  8 11  1  0  0  0  0
 45 46  1  0  0  0  0
 18 21  1  0  0  0  0
 35 36  1  0  0  0  0
  7  8  1  0  0  0  0
 17 18  1  0  0  0  0
 24 32  1  0  0  0  0
 25 33  1  0  0  0  0
  3  4  1  0  0  0  0
  3  5  1  0  0  0  0
  3  6  1  0  0  0  0
 39 42  1  0  0  0  0
 39 43  1  0  0  0  0
 39 44  1  0  0  0  0
 11 14  1  0  0  0  0
 11 15  1  0  0  0  0
 11 16  1  0  0  0  0
 46 48  1  0  0  0  0
 46 49  1  0  0  0  0
 46 50  1  0  0  0  0
 21 29  1  0  0  0  0
 21 30  1  0  0  0  0
 36 41  1  0  0  0  0
  8 13  1  0  0  0  0
 18 28  1  0  0  0  0
 26 34  1  0  0  0  0
 23 31  1  0  0  0  0
 45 47  1  0  0  0  0
  7 12  1  0  0  0  0
 35 40  1  0  0  0  0
 17 27  1  0  0  0  0
M  CHG  1  23   1
M  END
$$$$

  -OEChem-05262214473D

 50 50  0     1  0  0  0  0  0999 V2000
   -1.6938    0.4865    3.8080 C   0  0  0  0  0  0  0  0  0  0  0  0
   -0.7464   -0.1282    3.3323 O   0  0  0  0  0  0  0  0  0  0  0  0
   -2.1257    0.2041    5.2087 C   0  0  0  0  0  0  0  0  0  0  0  0
   -2.8853   -0.5922    5.2621 H   0  0  0  0  0  0  0  0  0  0  0  0
   -1.2944   -0.1435    5.8430 H   0  0  0  0  0  0  0  0  0  0  0  0
   -2.5637    1.0590    5.7483 H   0  0  0  0  0  0  0  0  0  0  0  0
   -2.4435    1.4589    3.1669 N   0  0  0  0  0  0  0  0  0  0  0  0
   -2.1966    1.8850    1.8145 C   0  0  2  0  0  0  0  0  0  0  0  0
   -0.8617    1.2996    1.3733 C   0  0  0  0  0  0  0  0  0  0  0  0
    0.0104    0.9468    2.1646 O   0  0  0  0  0  0  0  0  0  0  0  0
   -2.1879    3.4017    1.7050 C   0  0  0  0  0  0  0  0  0  0  0  0
   -3.2085    1.8948    3.6787 H   0  0  0  0  0  0  0  0  0  0  0  0
   -3.0007    1.4665    1.1994 H   0  0  0  0  0  0  0  0  0  0  0  0
   -1.3888    3.8390    2.3147 H   0  0  0  0  0  0  0  0  0  0  0  0
   -2.0284    3.7240    0.6708 H   0  0  0  0  0  0  0  0  0  0  0  0
   -3.1380    3.8230    2.0508 H   0  0  0  0  0  0  0  0  0  0  0  0
   -0.7390    1.2565   -0.0101 N   0  0  0  0  0  0  0  0  0  0  0  0
    0.4383    0.7557   -0.6738 C   0  0  2  0  0  0  0  0  0  0  0  0
    1.6107    1.6219   -0.2271 C   0  0  0  0  0  0  0  0  0  0  0  0
    2.4304    2.0946   -1.0116 O   0  0  0  0  0  0  0  0  0  0  0  0
    0.3013    0.7903   -2.2003 C   0  0  0  0  0  0  0  0  0  0  0  0
   -0.7928   -0.1164   -2.7088 C   0  0  0  0  0  0  0  0  0  0  0  0
   -0.6411   -1.4813   -2.7555 N   0  3  0  0  0  0  0  0  0  0  0  0
   -2.0422    0.1572   -3.1894 C   0  0  0  0  0  0  0  0  0  0  0  0
   -1.7534   -2.0368   -3.2469 C   0  0  0  0  0  0  0  0  0  0  0  0
   -2.6137   -1.0492   -3.5151 N   0  0  0  0  0  0  0  0  0  0  0  0
   -1.5221    1.5532   -0.5874 H   0  0  0  0  0  0  0  0  0  0  0  0
    0.5897   -0.2678   -0.3112 H   0  0  0  0  0  0  0  0  0  0  0  0
    1.2549    0.5202   -2.6740 H   0  0  0  0  0  0  0  0  0  0  0  0
    0.0886    1.8115   -2.5432 H   0  0  0  0  0  0  0  0  0  0  0  0
    0.1868   -1.9937   -2.4640 H   0  0  0  0  0  0  0  0  0  0  0  0
   -2.6253    1.0410   -3.3554 H   0  0  0  0  0  0  0  0  0  0  0  0
   -1.9248   -3.0893   -3.3998 H   0  0  0  0  0  0  0  0  0  0  0  0
   -3.5453   -1.1744   -3.9010 H   0  0  0  0  0  0  0  0  0  0  0  0
    1.6010    1.8429    1.1431 N   0  0  0  0  0  0  0  0  0  0  0  0
    2.5879    2.6500    1.8238 C   0  0  2  0  0  0  0  0  0  0  0  0
    3.9670    2.1768    1.3838 C   0  0  0  0  0  0  0  0  0  0  0  0
    4.1770    1.0554    0.9263 O   0  0  0  0  0  0  0  0  0  0  0  0
    2.4361    2.5531    3.3338 C   0  0  0  0  0  0  0  0  0  0  0  0
    0.8631    1.4158    1.6953 H   0  0  0  0  0  0  0  0  0  0  0  0
    2.4334    3.6832    1.4942 H   0  0  0  0  0  0  0  0  0  0  0  0
    2.5875    1.5250    3.6827 H   0  0  0  0  0  0  0  0  0  0  0  0
    3.1661    3.1873    3.8475 H   0  0  0  0  0  0  0  0  0  0  0  0
    1.4337    2.8656    3.6456 H   0  0  0  0  0  0  0  0  0  0  0  0
    4.9432    3.1389    1.6023 N   0  0  0  0  0  0  0  0  0  0  0  0
    6.3346    2.9251    1.2795 C   0  0  0  0  0  0  0  0  0  0  0  0
    4.6758    4.0479    1.9682 H   0  0  0  0  0  0  0  0  0  0  0  0
    6.8604    2.5329    2.1625 H   0  0  0  0  0  0  0  0  0  0  0  0
    6.4125    2.2011    0.4550 H   0  0  0  0  0  0  0  0  0  0  0  0
    6.7908    3.8785    0.9746 H   0  0  0  0  0  0  0  0  0  0  0  0
 22 24  2  0  0  0  0
 24 26  1  0  0  0  0
 25 26  1  0  0  0  0
 23 25  2  0  0  0  0
 21 22  1  0  0  0  0
 22 23  1  0  0  0  0
  1  3  1  0  0  0  0
  1  7  1  0  0  0  0
  1  2  2  0  0  0  0
 36 37  1  0  0  0  0
 37 45  1  0  0  0  0
 37 38  2  0  0  0  0
  8  9  1  0  0  0  0
  9 17  1  0  0  0  0
  9 10  2  0  0  0  0
 18 19  1  0  0  0  0
 19 35  1  0  0  0  0
 19 20  2  0  0  0  0
 36 39  1  0  0  0  0
  8 11  1  0  0  0  0
 45 46  1  0  0  0  0
 18 21  1  0  0  0  0
 35 36  1  0  0  0  0
  7  8  1  0  0  0  0
 17 18  1  0  0  0  0
 24 32  1  0  0  0  0
 25 33  1  0  0  0  0
  3  4  1  0  0  0  0
  3  5  1  0  0  0  0
  3  6  1  0  0  0  0
 39 42  1  0  0  0  0
 39 43  1  0  0  0  0
 39 44  1  0  0  0  0
 11 14  1  0  0  0  0
 11 15  1  0  0  0  0
 11 16  1  0  0  0  0
 46 48  1  0  0  0  0
 46 49  1  0  0  0  0
 46 50  1  0  0  0  0
 21 29  1  0  0  0  0
 21 30  1  0  0  0  0
 36 41  1  0  0  0  0
  8 13  1  0  0  0  0
 18 28  1  0  0  0  0
 26 34  1  0  0  0  0
 23 31  1  0  0  0  0
 45 47  1  0  0  0  0
  7 12  1  0  0  0  0
 35 40  1  0  0  0  0
 17 27  1  0  0  0  0
M  CHG  1  23   1
M  END
$$$$

  -OEChem-05262214473D

 50 50  0     1  0  0  0  0  0999 V2000
   -1.6938    0.4865    3.8080 C   0  0  0  0  0  0  0  0  0  0  0  0
   -0.7464   -0.1282    3.3323 O   0  0  0  0  0  0  0  0  0  0  0  0
   -2.1257    0.2041    5.2087 C   0  0  0  0  0  0  0  0  0  0  0  0
   -2.8853   -0.5922    5.2621 H   0  0  0  0  0  0  0  0  0  0  0  0
   -1.2944   -0.1435    5.8430 H   0  0  0  0  0  0  0  0  0  0  0  0
   -2.5637    1.0590    5.7483 H   0  0  0  0  0  0  0  0  0  0  0  0
   -2.4435    1.4589    3.1669 N   0  0  0  0  0  0  0  0  0  0  0  0
   -2.1966    1.8850    1.8145 C   0  0  2  0  0  0  0  0  0  0  0  0
   -0.8617    1.2996    1.3733 C   0  0  0  0  0  0  0  0  0  0  0  0
    0.0104    0.9468    2.1646 O   0  0  0  0  0  0  0  0  0  0  0  0
   -2.1879    3.4017    1.7050 C   0  0  0  0  0  0  0  0  0  0  0  0
   -3.2085    1.8948    3.6787 H   0  0  0  0  0  0  0  0  0  0  0  0
   -3.0007    1.4665    1.1994 H   0  0  0  0  0  0  0  0  0  0  0  0
   -1.3888    3.8390    2.3147 H   0  0  0  0  0  0  0  0  0  0  0  0
   -2.0284    3.7240    0.6708 H   0  0  0  0  0  0  0  0  0  0  0  0
   -3.1380    3.8230    2.0508 H   0  0  0  0  0  0  0  0  0  0  0  0
   -0.7390    1.2565   -0.0101 N   0  0  0  0  0  0  0  0  0  0  0  0
    0.4383    0.7557   -0.6738 C   0  0  2  0  0  0  0  0  0  0  0  0
    1.6107    1.6219   -0.2271 C   0  0  0  0  0  0  0  0  0  0  0  0
    2.2688    2.3098   -1.0046 O   0  0  0  0  0  0  0  0  0  0  0  0
    0.3013    0.7903   -2.2003 C   0  0  0  0  0  0  0  0  0  0  0  0
   -0.7928   -0.1164   -2.7088 C   0  0  0  0  0  0  0  0  0  0  0  0
   -0.6411   -1.4813   -2.7555 N   0  3  0  0  0  0  0  0  0  0  0  0
   -2.0422    0.1572   -3.1894 C   0  0  0  0  0  0  0  0  0  0  0  0
   -1.7534   -2.0368   -3.2469 C   0  0  0  0  0  0  0  0  0  0  0  0
   -2.6137   -1.0492   -3.5151 N   0  0  0  0  0  0  0  0  0  0  0  0
   -1.5221    1.5532   -0.5874 H   0  0  0  0  0  0  0  0  0  0  0  0
    0.5897   -0.2678   -0.3112 H   0  0  0  0  0  0  0  0  0  0  0  0
    1.2549    0.5202   -2.6740 H   0  0  0  0  0  0  0  0  0  0  0  0
    0.0886    1.8115   -2.5432 H   0  0  0  0  0  0  0  0  0  0  0  0
    0.1868   -1.9937   -2.4640 H   0  0  0  0  0  0  0  0  0  0  0  0
   -2.6253    1.0410   -3.3554 H   0  0  0  0  0  0  0  0  0  0  0  0
   -1.9248   -3.0893   -3.3998 H   0  0  0  0  0  0  0  0  0  0  0  0
   -3.5453   -1.1744   -3.9010 H   0  0  0  0  0  0  0  0  0  0  0  0
    1.7997    1.5720    1.1470 N   0  0  0  0  0  0  0  0  0  0  0  0
    2.8290    2.3184    1.8341 C   0  0  2  0  0  0  0  0  0  0  0  0
    4.1497    2.0663    1.1188 C   0  0  0  0  0  0  0  0  0  0  0  0
    4.3543    1.0782    0.4167 O   0  0  0  0  0  0  0  0  0  0  0  0
    2.9188    1.9179    3.2985 C   0  0  0  0  0  0  0  0  0  0  0  0
    1.1835    0.9811    1.6975 H   0  0  0  0  0  0  0  0  0  0  0  0
    2.5626    3.3775    1.7478 H   0  0  0  0  0  0  0  0  0  0  0  0
    3.1848    0.8599    3.4049 H   0  0  0  0  0  0  0  0  0  0  0  0
    3.6795    2.5044    3.8242 H   0  0  0  0  0  0  0  0  0  0  0  0
    1.9595    2.0720    3.8042 H   0  0  0  0  0  0  0  0  0  0  0  0
    5.0874    3.0524    1.3914 N   0  0  0  0  0  0  0  0  0  0  0  0
    6.4225    3.0322    0.8409 C   0  0  0  0  0  0  0  0  0  0  0  0
    4.8249    3.8455    1.9692 H   0  0  0  0  0  0  0  0  0  0  0  0
    7.1015    2.5261    1.5429 H   0  0  0  0  0  0  0  0  0  0  0  0
    6.4159    2.4915   -0.1170 H   0  0  0  0  0  0  0  0  0  0  0  0
    6.7671    4.0640    0.6772 H   0  0  0  0  0  0  0  0  0  0  0  0
 22 24  2  0  0  0  0
 24 26  1  0  0  0  0
 25 26  1  0  0  0  0
 23 25  2  0  0  0  0
 21 22  1  0  0  0  0
 22 23  1  0  0  0  0
  1  3  1  0  0  0  0
  1  7  1  0  0  0  0
  1  2  2  0  0  0  0
 36 37  1  0  0  0  0
 37 45  1  0  0  0  0
 37 38  2  0  0  0  0
  8  9  1  0  0  0  0
  9 17  1  0  0  0  0
  9 10  2  0  0  0  0
 18 19  1  0  0  0  0
 19 35  1  0  0  0  0
 19 20  2  0  0  0  0
 36 39  1  0  0  0  0
  8 11  1  0  0  0  0
 45 46  1  0  0  0  0
 18 21  1  0  0  0  0
 35 36  1  0  0  0  0
  7  8  1  0  0  0  0
 17 18  1  0  0  0  0
 24 32  1  0  0  0  0
 25 33  1  0  0  0  0
  3  4  1  0  0  0  0
  3  5  1  0  0  0  0
  3  6  1  0  0  0  0
 39 42  1  0  0  0  0
 39 43  1  0  0  0  0
 39 44  1  0  0  0  0
 11 14  1  0  0  0  0
 11 15  1  0  0  0  0
 11 16  1  0  0  0  0
 46 48  1  0  0  0  0
 46 49  1  0  0  0  0
 46 50  1  0  0  0  0
 21 29  1  0  0  0  0
 21 30  1  0  0  0  0
 36 41  1  0  0  0  0
  8 13  1  0  0  0  0
 18 28  1  0  0  0  0
 26 34  1  0  0  0  0
 23 31  1  0  0  0  0
 45 47  1  0  0  0  0
  7 12  1  0  0  0  0
 35 40  1  0  0  0  0
 17 27  1  0  0  0  0
M  CHG  1  23   1
M  END
$$$$

  -OEChem-05262214473D

 50 50  0     1  0  0  0  0  0999 V2000
   -1.6938    0.4865    3.8080 C   0  0  0  0  0  0  0  0  0  0  0  0
   -0.7464   -0.1282    3.3323 O   0  0  0  0  0  0  0  0  0  0  0  0
   -2.1257    0.2041    5.2087 C   0  0  0  0  0  0  0  0  0  0  0  0
   -2.8853   -0.5922    5.2621 H   0  0  0  0  0  0  0  0  0  0  0  0
   -1.2944   -0.1435    5.8430 H   0  0  0  0  0  0  0  0  0  0  0  0
   -2.5637    1.0590    5.7483 H   0  0  0  0  0  0  0  0  0  0  0  0
   -2.4435    1.4589    3.1669 N   0  0  0  0  0  0  0  0  0  0  0  0
   -2.1966    1.8850    1.8145 C   0  0  2  0  0  0  0  0  0  0  0  0
   -0.8617    1.2996    1.3733 C   0  0  0  0  0  0  0  0  0  0  0  0
    0.0104    0.9468    2.1646 O   0  0  0  0  0  0  0  0  0  0  0  0
   -2.1879    3.4017    1.7050 C   0  0  0  0  0  0  0  0  0  0  0  0
   -3.2085    1.8948    3.6787 H   0  0  0  0  0  0  0  0  0  0  0  0
   -3.0007    1.4665    1.1994 H   0  0  0  0  0  0  0  0  0  0  0  0
   -1.3888    3.8390    2.3147 H   0  0  0  0  0  0  0  0  0  0  0  0
   -2.0284    3.7240    0.6708 H   0  0  0  0  0  0  0  0  0  0  0  0
   -3.1380    3.8230    2.0508 H   0  0  0  0  0  0  0  0  0  0  0  0
   -0.7390    1.2565   -0.0101 N   0  0  0  0  0  0  0  0  0  0  0  0
    0.4383    0.7557   -0.6738 C   0  0  2  0  0  0  0  0  0  0  0  0
    1.6107    1.6219   -0.2271 C   0  0  0  0  0  0  0  0  0  0  0  0
    2.0974    2.5040   -0.9313 O   0  0  0  0  0  0  0  0  0  0  0  0
    0.3013    0.7903   -2.2003 C   0  0  0  0  0  0  0  0  0  0  0  0
   -0.7928   -0.1164   -2.7088 C   0  0  0  0  0  0  0  0  0  0  0  0
   -0.6411   -1.4813   -2.7555 N   0  3  0  0  0  0  0  0  0  0  0  0
   -2.0422    0.1572   -3.1894 C   0  0  0  0  0  0  0  0  0  0  0  0
   -1.7534   -2.0368   -3.2469 C   0  0  0  0  0  0  0  0  0  0  0  0
   -2.6137   -1.0492   -3.5151 N   0  0  0  0  0  0  0  0  0  0  0  0
   -1.5221    1.5532   -0.5874 H   0  0  0  0  0  0  0  0  0  0  0  0
    0.5897   -0.2678   -0.3112 H   0  0  0  0  0  0  0  0  0  0  0  0
    1.2549    0.5202   -2.6740 H   0  0  0  0  0  0  0  0  0  0  0  0
    0.0886    1.8115   -2.5432 H   0  0  0  0  0  0  0  0  0  0  0  0
    0.1868   -1.9937   -2.4640 H   0  0  0  0  0  0  0  0  0  0  0  0
   -2.6253    1.0410   -3.3554 H   0  0  0  0  0  0  0  0  0  0  0  0
   -1.9248   -3.0893   -3.3998 H   0  0  0  0  0  0  0  0  0  0  0  0
   -3.5453   -1.1744   -3.9010 H   0  0  0  0  0  0  0  0  0  0  0  0
    2.0127    1.3246    1.0677 N   0  0  0  0  0  0  0  0  0  0  0  0
    3.0885    2.0143    1.7427 C   0  0  2  0  0  0  0  0  0  0  0  0
    4.2955    2.0261    0.8140 C   0  0  0  0  0  0  0  0  0  0  0  0
    4.4488    1.2152   -0.0970 O   0  0  0  0  0  0  0  0  0  0  0  0
    3.4281    1.3481    3.0669 C   0  0  0  0  0  0  0  0  0  0  0  0
    1.5263    0.5850    1.5659 H   0  0  0  0  0  0  0  0  0  0  0  0
    2.7479    3.0415    1.9130 H   0  0  0  0  0  0  0  0  0  0  0  0
    3.7713    0.3180    2.9164 H   0  0  0  0  0  0  0  0  0  0  0  0
    4.2238    1.8884    3.5904 H   0  0  0  0  0  0  0  0  0  0  0  0
    2.5510    1.3138    3.7222 H   0  0  0  0  0  0  0  0  0  0  0  0
    5.2022    3.0219    1.1492 N   0  0  0  0  0  0  0  0  0  0  0  0
    6.4348    3.2297    0.4257 C   0  0  0  0  0  0  0  0  0  0  0  0
    4.9845    3.6611    1.9080 H   0  0  0  0  0  0  0  0  0  0  0  0
    7.2438    2.6611    0.9075 H   0  0  0  0  0  0  0  0  0  0  0  0
    6.3130    2.8861   -0.6121 H   0  0  0  0  0  0  0  0  0  0  0  0
    6.6864    4.3006    0.4302 H   0  0  0  0  0  0  0  0  0  0  0  0
 22 24  2  0  0  0  0
 24 26  1  0  0  0  0
 25 26  1  0  0  0  0
 23 25  2  0  0  0  0
 21 22  1  0  0  0  0
 22 23  1  0  0  0  0
  1  3  1  0  0  0  0
  1  7  1  0  0  0  0
  1  2  2  0  0  0  0
 36 37  1  0  0  0  0
 37 45  1  0  0  0  0
 37 38  2  0  0  0  0
  8  9  1  0  0  0  0
  9 17  1  0  0  0  0
  9 10  2  0  0  0  0
 18 19  1  0  0  0  0
 19 35  1  0  0  0  0
 19 20  2  0  0  0  0
 36 39  1  0  0  0  0
  8 11  1  0  0  0  0
 45 46  1  0  0  0  0
 18 21  1  0  0  0  0
 35 36  1  0  0  0  0
  7  8  1  0  0  0  0
 17 18  1  0  0  0  0
 24 32  1  0  0  0  0
 25 33  1  0  0  0  0
  3  4  1  0  0  0  0
  3  5  1  0  0  0  0
  3  6  1  0  0  0  0
 39 42  1  0  0  0  0
 39 43  1  0  0  0  0
 39 44  1  0  0  0  0
 11 14  1  0  0  0  0
 11 15  1  0  0  0  0
 11 16  1  0  0  0  0
 46 48  1  0  0  0  0
 46 49  1  0  0  0  0
 46 50  1  0  0  0  0
 21 29  1  0  0  0  0
 21 30  1  0  0  0  0
 36 41  1  0  0  0  0
  8 13  1  0  0  0  0
 18 28  1  0  0  0  0
 26 34  1  0  0  0  0
 23 31  1  0  0  0  0
 45 47  1  0  0  0  0
  7 12  1  0  0  0  0
 35 40  1  0  0  0  0
 17 27  1  0  0  0  0
M  CHG  1  23   1
M  END
$$$$

  -OEChem-05262214473D

 50 50  0     1  0  0  0  0  0999 V2000
   -1.6938    0.4865    3.8080 C   0  0  0  0  0  0  0  0  0  0  0  0
   -0.7464   -0.1282    3.3323 O   0  0  0  0  0  0  0  0  0  0  0  0
   -2.1257    0.2041    5.2087 C   0  0  0  0  0  0  0  0  0  0  0  0
   -2.8853   -0.5922    5.2621 H   0  0  0  0  0  0  0  0  0  0  0  0
   -1.2944   -0.1435    5.8430 H   0  0  0  0  0  0  0  0  0  0  0  0
   -2.5637    1.0590    5.7483 H   0  0  0  0  0  0  0  0  0  0  0  0
   -2.4435    1.4589    3.1669 N   0  0  0  0  0  0  0  0  0  0  0  0
   -2.1966    1.8850    1.8145 C   0  0  2  0  0  0  0  0  0  0  0  0
   -0.8617    1.2996    1.3733 C   0  0  0  0  0  0  0  0  0  0  0  0
    0.0104    0.9468    2.1646 O   0  0  0  0  0  0  0  0  0  0  0  0
   -2.1879    3.4017    1.7050 C   0  0  0  0  0  0  0  0  0  0  0  0
   -3.2085    1.8948    3.6787 H   0  0  0  0  0  0  0  0  0  0  0  0
   -3.0007    1.4665    1.1994 H   0  0  0  0  0  0  0  0  0  0  0  0
   -1.3888    3.8390    2.3147 H   0  0  0  0  0  0  0  0  0  0  0  0
   -2.0284    3.7240    0.6708 H   0  0  0  0  0  0  0  0  0  0  0  0
   -3.1380    3.8230    2.0508 H   0  0  0  0  0  0  0  0  0  0  0  0
   -0.7390    1.2565   -0.0101 N   0  0  0  0  0  0  0  0  0  0  0  0
    0.4383    0.7557   -0.6738 C   0  0  2  0  0  0  0  0  0  0  0  0
    1.6107    1.6219   -0.2271 C   0  0  0  0  0  0  0  0  0  0  0  0
    1.9279    2.6639   -0.7967 O   0  0  0  0  0  0  0  0  0  0  0  0
    0.3013    0.7903   -2.2003 C   0  0  0  0  0  0  0  0  0  0  0  0
   -0.7928   -0.1164   -2.7088 C   0  0  0  0  0  0  0  0  0  0  0  0
   -0.6411   -1.4813   -2.7555 N   0  3  0  0  0  0  0  0  0  0  0  0
   -2.0422    0.1572   -3.1894 C   0  0  0  0  0  0  0  0  0  0  0  0
   -1.7534   -2.0368   -3.2469 C   0  0  0  0  0  0  0  0  0  0  0  0
   -2.6137   -1.0492   -3.5151 N   0  0  0  0  0  0  0  0  0  0  0  0
   -1.5221    1.5532   -0.5874 H   0  0  0  0  0  0  0  0  0  0  0  0
    0.5897   -0.2678   -0.3112 H   0  0  0  0  0  0  0  0  0  0  0  0
    1.2549    0.5202   -2.6740 H   0  0  0  0  0  0  0  0  0  0  0  0
    0.0886    1.8115   -2.5432 H   0  0  0  0  0  0  0  0  0  0  0  0
    0.1868   -1.9937   -2.4640 H   0  0  0  0  0  0  0  0  0  0  0  0
   -2.6253    1.0410   -3.3554 H   0  0  0  0  0  0  0  0  0  0  0  0
   -1.9248   -3.0893   -3.3998 H   0  0  0  0  0  0  0  0  0  0  0  0
   -3.5453   -1.1744   -3.9010 H   0  0  0  0  0  0  0  0  0  0  0  0
    2.2255    1.1175    0.9104 N   0  0  0  0  0  0  0  0  0  0  0  0
    3.3488    1.7584    1.5557 C   0  0  2  0  0  0  0  0  0  0  0  0
    4.3945    2.0591    0.4901 C   0  0  0  0  0  0  0  0  0  0  0  0
    4.4542    1.4569   -0.5799 O   0  0  0  0  0  0  0  0  0  0  0  0
    3.9292    0.8824    2.6550 C   0  0  0  0  0  0  0  0  0  0  0  0
    1.8681    0.2546    1.3095 H   0  0  0  0  0  0  0  0  0  0  0  0
    2.9767    2.6981    1.9784 H   0  0  0  0  0  0  0  0  0  0  0  0
    4.3071   -0.0637    2.2505 H   0  0  0  0  0  0  0  0  0  0  0  0
    4.7618    1.3812    3.1618 H   0  0  0  0  0  0  0  0  0  0  0  0
    3.1678    0.6426    3.4050 H   0  0  0  0  0  0  0  0  0  0  0  0
    5.2799    3.0493    0.8924 N   0  0  0  0  0  0  0  0  0  0  0  0
    6.3707    3.5040    0.0621 C   0  0  0  0  0  0  0  0  0  0  0  0
    5.1436    3.5073    1.7887 H   0  0  0  0  0  0  0  0  0  0  0  0
    7.2776    2.9287    0.2998 H   0  0  0  0  0  0  0  0  0  0  0  0
    6.1109    3.3579   -0.9967 H   0  0  0  0  0  0  0  0  0  0  0  0
    6.5542    4.5721    0.2506 H   0  0  0  0  0  0  0  0  0  0  0  0
 22 24  2  0  0  0  0
 24 26  1  0  0  0  0
 25 26  1  0  0  0  0
 23 25  2  0  0  0  0
 21 22  1  0  0  0  0
 22 23  1  0  0  0  0
  1  3  1  0  0  0  0
  1  7  1  0  0  0  0
  1  2  2  0  0  0  0
 36 37  1  0  0  0  0
 37 45  1  0  0  0  0
 37 38  2  0  0  0  0
  8  9  1  0  0  0  0
  9 17  1  0  0  0  0
  9 10  2  0  0  0  0
 18 19  1  0  0  0  0
 19 35  1  0  0  0  0
 19 20  2  0  0  0  0
 36 39  1  0  0  0  0
  8 11  1  0  0  0  0
 45 46  1  0  0  0  0
 18 21  1  0  0  0  0
 35 36  1  0  0  0  0
  7  8  1  0  0  0  0
 17 18  1  0  0  0  0
 24 32  1  0  0  0  0
 25 33  1  0  0  0  0
  3  4  1  0  0  0  0
  3  5  1  0  0  0  0
  3  6  1  0  0  0  0
 39 42  1  0  0  0  0
 39 43  1  0  0  0  0
 39 44  1  0  0  0  0
 11 14  1  0  0  0  0
 11 15  1  0  0  0  0
 11 16  1  0  0  0  0
 46 48  1  0  0  0  0
 46 49  1  0  0  0  0
 46 50  1  0  0  0  0
 21 29  1  0  0  0  0
 21 30  1  0  0  0  0
 36 41  1  0  0  0  0
  8 13  1  0  0  0  0
 18 28  1  0  0  0  0
 26 34  1  0  0  0  0
 23 31  1  0  0  0  0
 45 47  1  0  0  0  0
  7 12  1  0  0  0  0
 35 40  1  0  0  0  0
 17 27  1  0  0  0  0
M  CHG  1  23   1
M  END
$$$$

  -OEChem-05262214473D

 50 50  0     1  0  0  0  0  0999 V2000
   -1.6938    0.4865    3.8080 C   0  0  0  0  0  0  0  0  0  0  0  0
   -0.7464   -0.1282    3.3323 O   0  0  0  0  0  0  0  0  0  0  0  0
   -2.1257    0.2041    5.2087 C   0  0  0  0  0  0  0  0  0  0  0  0
   -2.8853   -0.5922    5.2621 H   0  0  0  0  0  0  0  0  0  0  0  0
   -1.2944   -0.1435    5.8430 H   0  0  0  0  0  0  0  0  0  0  0  0
   -2.5637    1.0590    5.7483 H   0  0  0  0  0  0  0  0  0  0  0  0
   -2.4435    1.4589    3.1669 N   0  0  0  0  0  0  0  0  0  0  0  0
   -2.1966    1.8850    1.8145 C   0  0  2  0  0  0  0  0  0  0  0  0
   -0.8617    1.2996    1.3733 C   0  0  0  0  0  0  0  0  0  0  0  0
    0.0104    0.9468    2.1646 O   0  0  0  0  0  0  0  0  0  0  0  0
   -2.1879    3.4017    1.7050 C   0  0  0  0  0  0  0  0  0  0  0  0
   -3.2085    1.8948    3.6787 H   0  0  0  0  0  0  0  0  0  0  0  0
   -3.0007    1.4665    1.1994 H   0  0  0  0  0  0  0  0  0  0  0  0
   -1.3888    3.8390    2.3147 H   0  0  0  0  0  0  0  0  0  0  0  0
   -2.0284    3.7240    0.6708 H   0  0  0  0  0  0  0  0  0  0  0  0
   -3.1380    3.8230    2.0508 H   0  0  0  0  0  0  0  0  0  0  0  0
   -0.7390    1.2565   -0.0101 N   0  0  0  0  0  0  0  0  0  0  0  0
    0.4383    0.7557   -0.6738 C   0  0  2  0  0  0  0  0  0  0  0  0
    1.6107    1.6219   -0.2271 C   0  0  0  0  0  0  0  0  0  0  0  0
    1.7718    2.7788   -0.6098 O   0  0  0  0  0  0  0  0  0  0  0  0
    0.3013    0.7903   -2.2003 C   0  0  0  0  0  0  0  0  0  0  0  0
   -0.7928   -0.1164   -2.7088 C   0  0  0  0  0  0  0  0  0  0  0  0
   -0.6411   -1.4813   -2.7555 N   0  3  0  0  0  0  0  0  0  0  0  0
   -2.0422    0.1572   -3.1894 C   0  0  0  0  0  0  0  0  0  0  0  0
   -1.7534   -2.0368   -3.2469 C   0  0  0  0  0  0  0  0  0  0  0  0
   -2.6137   -1.0492   -3.5151 N   0  0  0  0  0  0  0  0  0  0  0  0
   -1.5221    1.5532   -0.5874 H   0  0  0  0  0  0  0  0  0  0  0  0
    0.5897   -0.2678   -0.3112 H   0  0  0  0  0  0  0  0  0  0  0  0
    1.2549    0.5202   -2.6740 H   0  0  0  0  0  0  0  0  0  0  0  0
    0.0886    1.8115   -2.5432 H   0  0  0  0  0  0  0  0  0  0  0  0
    0.1868   -1.9937   -2.4640 H   0  0  0  0  0  0  0  0  0  0  0  0
   -2.6253    1.0410   -3.3554 H   0  0  0  0  0  0  0  0  0  0  0  0
   -1.9248   -3.0893   -3.3998 H   0  0  0  0  0  0  0  0  0  0  0  0
   -3.5453   -1.1744   -3.9010 H   0  0  0  0  0  0  0  0  0  0  0  0
    2.4237    0.9650    0.6861 N   0  0  0  0  0  0  0  0  0  0  0  0
    3.5921    1.5683    1.2859 C   0  0  2  0  0  0  0  0  0  0  0  0
    4.4401    2.1628    0.1692 C   0  0  0  0  0  0  0  0  0  0  0  0
    4.3701    1.7869   -0.9990 O   0  0  0  0  0  0  0  0  0  0  0  0
    4.3879    0.5525    2.0907 C   0  0  0  0  0  0  0  0  0  0  0  0
    2.1856    0.0123    0.9459 H   0  0  0  0  0  0  0  0  0  0  0  0
    3.2334    2.3707    1.9396 H   0  0  0  0  0  0  0  0  0  0  0  0
    4.7556   -0.2593    1.4524 H   0  0  0  0  0  0  0  0  0  0  0  0
    5.2570    1.0173    2.5678 H   0  0  0  0  0  0  0  0  0  0  0  0
    3.7678    0.1041    2.8744 H   0  0  0  0  0  0  0  0  0  0  0  0
    5.3150    3.1327    0.6383 N   0  0  0  0  0  0  0  0  0  0  0  0
    6.2344    3.8365   -0.2250 C   0  0  0  0  0  0  0  0  0  0  0  0
    5.2914    3.3945    1.6195 H   0  0  0  0  0  0  0  0  0  0  0  0
    7.2006    3.3108   -0.2389 H   0  0  0  0  0  0  0  0  0  0  0  0
    5.8234    3.8749   -1.2446 H   0  0  0  0  0  0  0  0  0  0  0  0
    6.3795    4.8601    0.1507 H   0  0  0  0  0  0  0  0  0  0  0  0
 22 24  2  0  0  0  0
 24 26  1  0  0  0  0
 25 26  1  0  0  0  0
 23 25  2  0  0  0  0
 21 22  1  0  0  0  0
 22 23  1  0  0  0  0
  1  3  1  0  0  0  0
  1  7  1  0  0  0  0
  1  2  2  0  0  0  0
 36 37  1  0  0  0  0
 37 45  1  0  0  0  0
 37 38  2  0  0  0  0
  8  9  1  0  0  0  0
  9 17  1  0  0  0  0
  9 10  2  0  0  0  0
 18 19  1  0  0  0  0
 19 35  1  0  0  0  0
 19 20  2  0  0  0  0
 36 39  1  0  0  0  0
  8 11  1  0  0  0  0
 45 46  1  0  0  0  0
 18 21  1  0  0  0  0
 35 36  1  0  0  0  0
  7  8  1  0  0  0  0
 17 18  1  0  0  0  0
 24 32  1  0  0  0  0
 25 33  1  0  0  0  0
  3  4  1  0  0  0  0
  3  5  1  0  0  0  0
  3  6  1  0  0  0  0
 39 42  1  0  0  0  0
 39 43  1  0  0  0  0
 39 44  1  0  0  0  0
 11 14  1  0  0  0  0
 11 15  1  0  0  0  0
 11 16  1  0  0  0  0
 46 48  1  0  0  0  0
 46 49  1  0  0  0  0
 46 50  1  0  0  0  0
 21 29  1  0  0  0  0
 21 30  1  0  0  0  0
 36 41  1  0  0  0  0
  8 13  1  0  0  0  0
 18 28  1  0  0  0  0
 26 34  1  0  0  0  0
 23 31  1  0  0  0  0
 45 47  1  0  0  0  0
  7 12  1  0  0  0  0
 35 40  1  0  0  0  0
 17 27  1  0  0  0  0
M  CHG  1  23   1
M  END
$$$$

  -OEChem-05262214473D

 50 50  0     1  0  0  0  0  0999 V2000
   -1.6938    0.4865    3.8080 C   0  0  0  0  0  0  0  0  0  0  0  0
   -0.7464   -0.1282    3.3323 O   0  0  0  0  0  0  0  0  0  0  0  0
   -2.1257    0.2041    5.2087 C   0  0  0  0  0  0  0  0  0  0  0  0
   -2.8853   -0.5922    5.2621 H   0  0  0  0  0  0  0  0  0  0  0  0
   -1.2944   -0.1435    5.8430 H   0  0  0  0  0  0  0  0  0  0  0  0
   -2.5637    1.0590    5.7483 H   0  0  0  0  0  0  0  0  0  0  0  0
   -2.4435    1.4589    3.1669 N   0  0  0  0  0  0  0  0  0  0  0  0
   -2.1966    1.8850    1.8145 C   0  0  2  0  0  0  0  0  0  0  0  0
   -0.8617    1.2996    1.3733 C   0  0  0  0  0  0  0  0  0  0  0  0
    0.0104    0.9468    2.1646 O   0  0  0  0  0  0  0  0  0  0  0  0
   -2.1879    3.4017    1.7050 C   0  0  0  0  0  0  0  0  0  0  0  0
   -3.2085    1.8948    3.6787 H   0  0  0  0  0  0  0  0  0  0  0  0
   -3.0007    1.4665    1.1994 H   0  0  0  0  0  0  0  0  0  0  0  0
   -1.3888    3.8390    2.3147 H   0  0  0  0  0  0  0  0  0  0  0  0
   -2.0284    3.7240    0.6708 H   0  0  0  0  0  0  0  0  0  0  0  0
   -3.1380    3.8230    2.0508 H   0  0  0  0  0  0  0  0  0  0  0  0
   -0.7390    1.2565   -0.0101 N   0  0  0  0  0  0  0  0  0  0  0  0
    0.4383    0.7557   -0.6738 C   0  0  2  0  0  0  0  0  0  0  0  0
    1.6107    1.6219   -0.2271 C   0  0  0  0  0  0  0  0  0  0  0  0
    1.6399    2.8407   -0.3836 O   0  0  0  0  0  0  0  0  0  0  0  0
    0.3013    0.7903   -2.2003 C   0  0  0  0  0  0  0  0  0  0  0  0
   -0.7928   -0.1164   -2.7088 C   0  0  0  0  0  0  0  0  0  0  0  0
   -0.6411   -1.4813   -2.7555 N   0  3  0  0  0  0  0  0  0  0  0  0
   -2.0422    0.1572   -3.1894 C   0  0  0  0  0  0  0  0  0  0  0  0
   -1.7534   -2.0368   -3.2469 C   0  0  0  0  0  0  0  0  0  0  0  0
   -2.6137   -1.0492   -3.5151 N   0  0  0  0  0  0  0  0  0  0  0  0
   -1.5221    1.5532   -0.5874 H   0  0  0  0  0  0  0  0  0  0  0  0
    0.5897   -0.2678   -0.3112 H   0  0  0  0  0  0  0  0  0  0  0  0
    1.2549    0.5202   -2.6740 H   0  0  0  0  0  0  0  0  0  0  0  0
    0.0886    1.8115   -2.5432 H   0  0  0  0  0  0  0  0  0  0  0  0
    0.1868   -1.9937   -2.4640 H   0  0  0  0  0  0  0  0  0  0  0  0
   -2.6253    1.0410   -3.3554 H   0  0  0  0  0  0  0  0  0  0  0  0
   -1.9248   -3.0893   -3.3998 H   0  0  0  0  0  0  0  0  0  0  0  0
   -3.5453   -1.1744   -3.9010 H   0  0  0  0  0  0  0  0  0  0  0  0
    2.5937    0.8774    0.4098 N   0  0  0  0  0  0  0  0  0  0  0  0
    3.8019    1.4567    0.9516 C   0  0  2  0  0  0  0  0  0  0  0  0
    4.4291    2.3304   -0.1267 C   0  0  0  0  0  0  0  0  0  0  0  0
    4.2022    2.1827   -1.3258 O   0  0  0  0  0  0  0  0  0  0  0  0
    4.7730    0.3809    1.4125 C   0  0  0  0  0  0  0  0  0  0  0  0
    2.4572   -0.1252    0.4997 H   0  0  0  0  0  0  0  0  0  0  0  0
    3.5004    2.0817    1.7993 H   0  0  0  0  0  0  0  0  0  0  0  0
    5.0863   -0.2553    0.5767 H   0  0  0  0  0  0  0  0  0  0  0  0
    5.6755    0.8216    1.8488 H   0  0  0  0  0  0  0  0  0  0  0  0
    4.3101   -0.2649    2.1665 H   0  0  0  0  0  0  0  0  0  0  0  0
    5.3053    3.2666    0.4043 N   0  0  0  0  0  0  0  0  0  0  0  0
    6.0354    4.2045   -0.4162 C   0  0  0  0  0  0  0  0  0  0  0  0
    5.4178    3.3305    1.4118 H   0  0  0  0  0  0  0  0  0  0  0  0
    7.0180    3.7812   -0.6719 H   0  0  0  0  0  0  0  0  0  0  0  0
    5.4700    4.4019   -1.3389 H   0  0  0  0  0  0  0  0  0  0  0  0
    6.1742    5.1450    0.1371 H   0  0  0  0  0  0  0  0  0  0  0  0
 22 24  2  0  0  0  0
 24 26  1  0  0  0  0
 25 26  1  0  0  0  0
 23 25  2  0  0  0  0
 21 22  1  0  0  0  0
 22 23  1  0  0  0  0
  1  3  1  0  0  0  0
  1  7  1  0  0  0  0
  1  2  2  0  0  0  0
 36 37  1  0  0  0  0
 37 45  1  0  0  0  0
 37 38  2  0  0  0  0
  8  9  1  0  0  0  0
  9 17  1  0  0  0  0
  9 10  2  0  0  0  0
 18 19  1  0  0  0  0
 19 35  1  0  0  0  0
 19 20  2  0  0  0  0
 36 39  1  0  0  0  0
  8 11  1  0  0  0  0
 45 46  1  0  0  0  0
 18 21  1  0  0  0  0
 35 36  1  0  0  0  0
  7  8  1  0  0  0  0
 17 18  1  0  0  0  0
 24 32  1  0  0  0  0
 25 33  1  0  0  0  0
  3  4  1  0  0  0  0
  3  5  1  0  0  0  0
  3  6  1  0  0  0  0
 39 42  1  0  0  0  0
 39 43  1  0  0  0  0
 39 44  1  0  0  0  0
 11 14  1  0  0  0  0
 11 15  1  0  0  0  0
 11 16  1  0  0  0  0
 46 48  1  0  0  0  0
 46 49  1  0  0  0  0
 46 50  1  0  0  0  0
 21 29  1  0  0  0  0
 21 30  1  0  0  0  0
 36 41  1  0  0  0  0
  8 13  1  0  0  0  0
 18 28  1  0  0  0  0
 26 34  1  0  0  0  0
 23 31  1  0  0  0  0
 45 47  1  0  0  0  0
  7 12  1  0  0  0  0
 35 40  1  0  0  0  0
 17 27  1  0  0  0  0
M  CHG  1  23   1
M  END
$$$$

  -OEChem-05262214473D

 50 50  0     1  0  0  0  0  0999 V2000
   -1.6938    0.4865    3.8080 C   0  0  0  0  0  0  0  0  0  0  0  0
   -0.7464   -0.1282    3.3323 O   0  0  0  0  0  0  0  0  0  0  0  0
   -2.1257    0.2041    5.2087 C   0  0  0  0  0  0  0  0  0  0  0  0
   -2.8853   -0.5922    5.2621 H   0  0  0  0  0  0  0  0  0  0  0  0
   -1.2944   -0.1435    5.8430 H   0  0  0  0  0  0  0  0  0  0  0  0
   -2.5637    1.0590    5.7483 H   0  0  0  0  0  0  0  0  0  0  0  0
   -2.4435    1.4589    3.1669 N   0  0  0  0  0  0  0  0  0  0  0  0
   -2.1966    1.8850    1.8145 C   0  0  2  0  0  0  0  0  0  0  0  0
   -0.8617    1.2996    1.3733 C   0  0  0  0  0  0  0  0  0  0  0  0
    0.0104    0.9468    2.1646 O   0  0  0  0  0  0  0  0  0  0  0  0
   -2.1879    3.4017    1.7050 C   0  0  0  0  0  0  0  0  0  0  0  0
   -3.2085    1.8948    3.6787 H   0  0  0  0  0  0  0  0  0  0  0  0
   -3.0007    1.4665    1.1994 H   0  0  0  0  0  0  0  0  0  0  0  0
   -1.3888    3.8390    2.3147 H   0  0  0  0  0  0  0  0  0  0  0  0
   -2.0284    3.7240    0.6708 H   0  0  0  0  0  0  0  0  0  0  0  0
   -3.1380    3.8230    2.0508 H   0  0  0  0  0  0  0  0  0  0  0  0
   -0.7390    1.2565   -0.0101 N   0  0  0  0  0  0  0  0  0  0  0  0
    0.4383    0.7557   -0.6738 C   0  0  2  0  0  0  0  0  0  0  0  0
    1.6107    1.6219   -0.2271 C   0  0  0  0  0  0  0  0  0  0  0  0
    1.5410    2.8455   -0.1333 O   0  0  0  0  0  0  0  0  0  0  0  0
    0.3013    0.7903   -2.2003 C   0  0  0  0  0  0  0  0  0  0  0  0
   -0.7928   -0.1164   -2.7088 C   0  0  0  0  0  0  0  0  0  0  0  0
   -0.6411   -1.4813   -2.7555 N   0  3  0  0  0  0  0  0  0  0  0  0
   -2.0422    0.1572   -3.1894 C   0  0  0  0  0  0  0  0  0  0  0  0
   -1.7534   -2.0368   -3.2469 C   0  0  0  0  0  0  0  0  0  0  0  0
   -2.6137   -1.0492   -3.5151 N   0  0  0  0  0  0  0  0  0  0  0  0
   -1.5221    1.5532   -0.5874 H   0  0  0  0  0  0  0  0  0  0  0  0
    0.5897   -0.2678   -0.3112 H   0  0  0  0  0  0  0  0  0  0  0  0
    1.2549    0.5202   -2.6740 H   0  0  0  0  0  0  0  0  0  0  0  0
    0.0886    1.8115   -2.5432 H   0  0  0  0  0  0  0  0  0  0  0  0
    0.1868   -1.9937   -2.4640 H   0  0  0  0  0  0  0  0  0  0  0  0
   -2.6253    1.0410   -3.3554 H   0  0  0  0  0  0  0  0  0  0  0  0
   -1.9248   -3.0893   -3.3998 H   0  0  0  0  0  0  0  0  0  0  0  0
   -3.5453   -1.1744   -3.9010 H   0  0  0  0  0  0  0  0  0  0  0  0
    2.7240    0.8606    0.1006 N   0  0  0  0  0  0  0  0  0  0  0  0
    3.9638    1.4314    0.5757 C   0  0  2  0  0  0  0  0  0  0  0  0
    4.3622    2.5503   -0.3776 C   0  0  0  0  0  0  0  0  0  0  0  0
    3.9619    2.6173   -1.5380 O   0  0  0  0  0  0  0  0  0  0  0  0
    5.0583    0.3794    0.6666 C   0  0  0  0  0  0  0  0  0  0  0  0
    2.6643   -0.1486    0.0015 H   0  0  0  0  0  0  0  0  0  0  0  0
    3.7596    1.8507    1.5669 H   0  0  0  0  0  0  0  0  0  0  0  0
    5.2767   -0.0521   -0.3170 H   0  0  0  0  0  0  0  0  0  0  0  0
    5.9888    0.8075    1.0537 H   0  0  0  0  0  0  0  0  0  0  0  0
    4.7578   -0.4392    1.3294 H   0  0  0  0  0  0  0  0  0  0  0  0
    5.2513    3.4417    0.2064 N   0  0  0  0  0  0  0  0  0  0  0  0
    5.7871    4.5828   -0.4983 C   0  0  0  0  0  0  0  0  0  0  0  0
    5.5143    3.3195    1.1799 H   0  0  0  0  0  0  0  0  0  0  0  0
    6.7423    4.3079   -0.9697 H   0  0  0  0  0  0  0  0  0  0  0  0
    5.0748    4.9028   -1.2731 H   0  0  0  0  0  0  0  0  0  0  0  0
    5.9523    5.4072    0.2109 H   0  0  0  0  0  0  0  0  0  0  0  0
 22 24  2  0  0  0  0
 24 26  1  0  0  0  0
 25 26  1  0  0  0  0
 23 25  2  0  0  0  0
 21 22  1  0  0  0  0
 22 23  1  0  0  0  0
  1  3  1  0  0  0  0
  1  7  1  0  0  0  0
  1  2  2  0  0  0  0
 36 37  1  0  0  0  0
 37 45  1  0  0  0  0
 37 38  2  0  0  0  0
  8  9  1  0  0  0  0
  9 17  1  0  0  0  0
  9 10  2  0  0  0  0
 18 19  1  0  0  0  0
 19 35  1  0  0  0  0
 19 20  2  0  0  0  0
 36 39  1  0  0  0  0
  8 11  1  0  0  0  0
 45 46  1  0  0  0  0
 18 21  1  0  0  0  0
 35 36  1  0  0  0  0
  7  8  1  0  0  0  0
 17 18  1  0  0  0  0
 24 32  1  0  0  0  0
 25 33  1  0  0  0  0
  3  4  1  0  0  0  0
  3  5  1  0  0  0  0
  3  6  1  0  0  0  0
 39 42  1  0  0  0  0
 39 43  1  0  0  0  0
 39 44  1  0  0  0  0
 11 14  1  0  0  0  0
 11 15  1  0  0  0  0
 11 16  1  0  0  0  0
 46 48  1  0  0  0  0
 46 49  1  0  0  0  0
 46 50  1  0  0  0  0
 21 29  1  0  0  0  0
 21 30  1  0  0  0  0
 36 41  1  0  0  0  0
  8 13  1  0  0  0  0
 18 28  1  0  0  0  0
 26 34  1  0  0  0  0
 23 31  1  0  0  0  0
 45 47  1  0  0  0  0
  7 12  1  0  0  0  0
 35 40  1  0  0  0  0
 17 27  1  0  0  0  0
M  CHG  1  23   1
M  END
$$$$

  -OEChem-05262214473D

 50 50  0     1  0  0  0  0  0999 V2000
   -1.6938    0.4865    3.8080 C   0  0  0  0  0  0  0  0  0  0  0  0
   -0.7464   -0.1282    3.3323 O   0  0  0  0  0  0  0  0  0  0  0  0
   -2.1257    0.2041    5.2087 C   0  0  0  0  0  0  0  0  0  0  0  0
   -2.8853   -0.5922    5.2621 H   0  0  0  0  0  0  0  0  0  0  0  0
   -1.2944   -0.1435    5.8430 H   0  0  0  0  0  0  0  0  0  0  0  0
   -2.5637    1.0590    5.7483 H   0  0  0  0  0  0  0  0  0  0  0  0
   -2.4435    1.4589    3.1669 N   0  0  0  0  0  0  0  0  0  0  0  0
   -2.1966    1.8850    1.8145 C   0  0  2  0  0  0  0  0  0  0  0  0
   -0.8617    1.2996    1.3733 C   0  0  0  0  0  0  0  0  0  0  0  0
    0.0104    0.9468    2.1646 O   0  0  0  0  0  0  0  0  0  0  0  0
   -2.1879    3.4017    1.7050 C   0  0  0  0  0  0  0  0  0  0  0  0
   -3.2085    1.8948    3.6787 H   0  0  0  0  0  0  0  0  0  0  0  0
   -3.0007    1.4665    1.1994 H   0  0  0  0  0  0  0  0  0  0  0  0
   -1.3888    3.8390    2.3147 H   0  0  0  0  0  0  0  0  0  0  0  0
   -2.0284    3.7240    0.6708 H   0  0  0  0  0  0  0  0  0  0  0  0
   -3.1380    3.8230    2.0508 H   0  0  0  0  0  0  0  0  0  0  0  0
   -0.7390    1.2565   -0.0101 N   0  0  0  0  0  0  0  0  0  0  0  0
    0.4383    0.7557   -0.6738 C   0  0  2  0  0  0  0  0  0  0  0  0
    1.6107    1.6219   -0.2271 C   0  0  0  0  0  0  0  0  0  0  0  0
    1.4819    2.7928    0.1240 O   0  0  0  0  0  0  0  0  0  0  0  0
    0.3013    0.7903   -2.2003 C   0  0  0  0  0  0  0  0  0  0  0  0
   -0.7928   -0.1164   -2.7088 C   0  0  0  0  0  0  0  0  0  0  0  0
   -0.6411   -1.4813   -2.7555 N   0  3  0  0  0  0  0  0  0  0  0  0
   -2.0422    0.1572   -3.1894 C   0  0  0  0  0  0  0  0  0  0  0  0
   -1.7534   -2.0368   -3.2469 C   0  0  0  0  0  0  0  0  0  0  0  0
   -2.6137   -1.0492   -3.5151 N   0  0  0  0  0  0  0  0  0  0  0  0
   -1.5221    1.5532   -0.5874 H   0  0  0  0  0  0  0  0  0  0  0  0
    0.5897   -0.2678   -0.3112 H   0  0  0  0  0  0  0  0  0  0  0  0
    1.2549    0.5202   -2.6740 H   0  0  0  0  0  0  0  0  0  0  0  0
    0.0886    1.8115   -2.5432 H   0  0  0  0  0  0  0  0  0  0  0  0
    0.1868   -1.9937   -2.4640 H   0  0  0  0  0  0  0  0  0  0  0  0
   -2.6253    1.0410   -3.3554 H   0  0  0  0  0  0  0  0  0  0  0  0
   -1.9248   -3.0893   -3.3998 H   0  0  0  0  0  0  0  0  0  0  0  0
   -3.5453   -1.1744   -3.9010 H   0  0  0  0  0  0  0  0  0  0  0  0
    2.8056    0.9158   -0.2206 N   0  0  0  0  0  0  0  0  0  0  0  0
    4.0669    1.4940    0.1837 C   0  0  2  0  0  0  0  0  0  0  0  0
    4.2440    2.8076   -0.5664 C   0  0  0  0  0  0  0  0  0  0  0  0
    3.6657    3.0611   -1.6211 O   0  0  0  0  0  0  0  0  0  0  0  0
    5.2243    0.5480   -0.0960 C   0  0  0  0  0  0  0  0  0  0  0  0
    2.7929   -0.0563   -0.5149 H   0  0  0  0  0  0  0  0  0  0  0  0
    3.9933    1.6935    1.2583 H   0  0  0  0  0  0  0  0  0  0  0  0
    5.3137    0.3365   -1.1678 H   0  0  0  0  0  0  0  0  0  0  0  0
    6.1757    0.9758    0.2369 H   0  0  0  0  0  0  0  0  0  0  0  0
    5.0805   -0.4072    0.4204 H   0  0  0  0  0  0  0  0  0  0  0  0
    5.1568    3.6462    0.0580 N   0  0  0  0  0  0  0  0  0  0  0  0
    5.5066    4.9458   -0.4659 C   0  0  0  0  0  0  0  0  0  0  0  0
    5.5742    3.3624    0.9395 H   0  0  0  0  0  0  0  0  0  0  0  0
    6.3922    4.8551   -1.1119 H   0  0  0  0  0  0  0  0  0  0  0  0
    4.6648    5.3436   -1.0517 H   0  0  0  0  0  0  0  0  0  0  0  0
    5.7289    5.6291    0.3670 H   0  0  0  0  0  0  0  0  0  0  0  0
 22 24  2  0  0  0  0
 24 26  1  0  0  0  0
 25 26  1  0  0  0  0
 23 25  2  0  0  0  0
 21 22  1  0  0  0  0
 22 23  1  0  0  0  0
  1  3  1  0  0  0  0
  1  7  1  0  0  0  0
  1  2  2  0  0  0  0
 36 37  1  0  0  0  0
 37 45  1  0  0  0  0
 37 38  2  0  0  0  0
  8  9  1  0  0  0  0
  9 17  1  0  0  0  0
  9 10  2  0  0  0  0
 18 19  1  0  0  0  0
 19 35  1  0  0  0  0
 19 20  2  0  0  0  0
 36 39  1  0  0  0  0
  8 11  1  0  0  0  0
 45 46  1  0  0  0  0
 18 21  1  0  0  0  0
 35 36  1  0  0  0  0
  7  8  1  0  0  0  0
 17 18  1  0  0  0  0
 24 32  1  0  0  0  0
 25 33  1  0  0  0  0
  3  4  1  0  0  0  0
  3  5  1  0  0  0  0
  3  6  1  0  0  0  0
 39 42  1  0  0  0  0
 39 43  1  0  0  0  0
 39 44  1  0  0  0  0
 11 14  1  0  0  0  0
 11 15  1  0  0  0  0
 11 16  1  0  0  0  0
 46 48  1  0  0  0  0
 46 49  1  0  0  0  0
 46 50  1  0  0  0  0
 21 29  1  0  0  0  0
 21 30  1  0  0  0  0
 36 41  1  0  0  0  0
  8 13  1  0  0  0  0
 18 28  1  0  0  0  0
 26 34  1  0  0  0  0
 23 31  1  0  0  0  0
 45 47  1  0  0  0  0
  7 12  1  0  0  0  0
 35 40  1  0  0  0  0
 17 27  1  0  0  0  0
M  CHG  1  23   1
M  END
$$$$

  -OEChem-05262214473D

 50 50  0     1  0  0  0  0  0999 V2000
   -1.6938    0.4865    3.8080 C   0  0  0  0  0  0  0  0  0  0  0  0
   -0.7464   -0.1282    3.3323 O   0  0  0  0  0  0  0  0  0  0  0  0
   -2.1257    0.2041    5.2087 C   0  0  0  0  0  0  0  0  0  0  0  0
   -2.8853   -0.5922    5.2621 H   0  0  0  0  0  0  0  0  0  0  0  0
   -1.2944   -0.1435    5.8430 H   0  0  0  0  0  0  0  0  0  0  0  0
   -2.5637    1.0590    5.7483 H   0  0  0  0  0  0  0  0  0  0  0  0
   -2.4435    1.4589    3.1669 N   0  0  0  0  0  0  0  0  0  0  0  0
   -2.1966    1.8850    1.8145 C   0  0  2  0  0  0  0  0  0  0  0  0
   -0.8617    1.2996    1.3733 C   0  0  0  0  0  0  0  0  0  0  0  0
    0.0104    0.9468    2.1646 O   0  0  0  0  0  0  0  0  0  0  0  0
   -2.1879    3.4017    1.7050 C   0  0  0  0  0  0  0  0  0  0  0  0
   -3.2085    1.8948    3.6787 H   0  0  0  0  0  0  0  0  0  0  0  0
   -3.0007    1.4665    1.1994 H   0  0  0  0  0  0  0  0  0  0  0  0
   -1.3888    3.8390    2.3147 H   0  0  0  0  0  0  0  0  0  0  0  0
   -2.0284    3.7240    0.6708 H   0  0  0  0  0  0  0  0  0  0  0  0
   -3.1380    3.8230    2.0508 H   0  0  0  0  0  0  0  0  0  0  0  0
   -0.7390    1.2565   -0.0101 N   0  0  0  0  0  0  0  0  0  0  0  0
    0.4383    0.7557   -0.6738 C   0  0  2  0  0  0  0  0  0  0  0  0
    1.6107    1.6219   -0.2271 C   0  0  0  0  0  0  0  0  0  0  0  0
    1.4667    2.6862    0.3707 O   0  0  0  0  0  0  0  0  0  0  0  0
    0.3013    0.7903   -2.2003 C   0  0  0  0  0  0  0  0  0  0  0  0
   -0.7928   -0.1164   -2.7088 C   0  0  0  0  0  0  0  0  0  0  0  0
   -0.6411   -1.4813   -2.7555 N   0  3  0  0  0  0  0  0  0  0  0  0
   -2.0422    0.1572   -3.1894 C   0  0  0  0  0  0  0  0  0  0  0  0
   -1.7534   -2.0368   -3.2469 C   0  0  0  0  0  0  0  0  0  0  0  0
   -2.6137   -1.0492   -3.5151 N   0  0  0  0  0  0  0  0  0  0  0  0
   -1.5221    1.5532   -0.5874 H   0  0  0  0  0  0  0  0  0  0  0  0
    0.5897   -0.2678   -0.3112 H   0  0  0  0  0  0  0  0  0  0  0  0
    1.2549    0.5202   -2.6740 H   0  0  0  0  0  0  0  0  0  0  0  0
    0.0886    1.8115   -2.5432 H   0  0  0  0  0  0  0  0  0  0  0  0
    0.1868   -1.9937   -2.4640 H   0  0  0  0  0  0  0  0  0  0  0  0
   -2.6253    1.0410   -3.3554 H   0  0  0  0  0  0  0  0  0  0  0  0
   -1.9248   -3.0893   -3.3998 H   0  0  0  0  0  0  0  0  0  0  0  0
   -3.5453   -1.1744   -3.9010 H   0  0  0  0  0  0  0  0  0  0  0  0
    2.8330    1.0392   -0.5319 N   0  0  0  0  0  0  0  0  0  0  0  0
    4.1040    1.6404   -0.1976 C   0  0  2  0  0  0  0  0  0  0  0  0
    4.0826    3.0847   -0.6801 C   0  0  0  0  0  0  0  0  0  0  0  0
    3.3337    3.4838   -1.5695 O   0  0  0  0  0  0  0  0  0  0  0  0
    5.2597    0.8753   -0.8236 C   0  0  0  0  0  0  0  0  0  0  0  0
    2.8342    0.1453   -1.0143 H   0  0  0  0  0  0  0  0  0  0  0  0
    4.1856    1.6208    0.8946 H   0  0  0  0  0  0  0  0  0  0  0  0
    5.1950    0.8840   -1.9178 H   0  0  0  0  0  0  0  0  0  0  0  0
    6.2233    1.3151   -0.5460 H   0  0  0  0  0  0  0  0  0  0  0  0
    5.2560   -0.1708   -0.4987 H   0  0  0  0  0  0  0  0  0  0  0  0
    5.0281    3.8660   -0.0307 N   0  0  0  0  0  0  0  0  0  0  0  0
    5.2128    5.2687   -0.3210 C   0  0  0  0  0  0  0  0  0  0  0  0
    5.5934    3.4563    0.7070 H   0  0  0  0  0  0  0  0  0  0  0  0
    5.9917    5.3853   -1.0890 H   0  0  0  0  0  0  0  0  0  0  0  0
    4.2679    5.6942   -0.6898 H   0  0  0  0  0  0  0  0  0  0  0  0
    5.5193    5.7953    0.5948 H   0  0  0  0  0  0  0  0  0  0  0  0
 22 24  2  0  0  0  0
 24 26  1  0  0  0  0
 25 26  1  0  0  0  0
 23 25  2  0  0  0  0
 21 22  1  0  0  0  0
 22 23  1  0  0  0  0
  1  3  1  0  0  0  0
  1  7  1  0  0  0  0
  1  2  2  0  0  0  0
 36 37  1  0  0  0  0
 37 45  1  0  0  0  0
 37 38  2  0  0  0  0
  8  9  1  0  0  0  0
  9 17  1  0  0  0  0
  9 10  2  0  0  0  0
 18 19  1  0  0  0  0
 19 35  1  0  0  0  0
 19 20  2  0  0  0  0
 36 39  1  0  0  0  0
  8 11  1  0  0  0  0
 45 46  1  0  0  0  0
 18 21  1  0  0  0  0
 35 36  1  0  0  0  0
  7  8  1  0  0  0  0
 17 18  1  0  0  0  0
 24 32  1  0  0  0  0
 25 33  1  0  0  0  0
  3  4  1  0  0  0  0
  3  5  1  0  0  0  0
  3  6  1  0  0  0  0
 39 42  1  0  0  0  0
 39 43  1  0  0  0  0
 39 44  1  0  0  0  0
 11 14  1  0  0  0  0
 11 15  1  0  0  0  0
 11 16  1  0  0  0  0
 46 48  1  0  0  0  0
 46 49  1  0  0  0  0
 46 50  1  0  0  0  0
 21 29  1  0  0  0  0
 21 30  1  0  0  0  0
 36 41  1  0  0  0  0
  8 13  1  0  0  0  0
 18 28  1  0  0  0  0
 26 34  1  0  0  0  0
 23 31  1  0  0  0  0
 45 47  1  0  0  0  0
  7 12  1  0  0  0  0
 35 40  1  0  0  0  0
 17 27  1  0  0  0  0
M  CHG  1  23   1
M  END
$$$$

  -OEChem-05262214473D

 50 50  0     1  0  0  0  0  0999 V2000
   -1.6938    0.4865    3.8080 C   0  0  0  0  0  0  0  0  0  0  0  0
   -0.7464   -0.1282    3.3323 O   0  0  0  0  0  0  0  0  0  0  0  0
   -2.1257    0.2041    5.2087 C   0  0  0  0  0  0  0  0  0  0  0  0
   -2.8853   -0.5922    5.2621 H   0  0  0  0  0  0  0  0  0  0  0  0
   -1.2944   -0.1435    5.8430 H   0  0  0  0  0  0  0  0  0  0  0  0
   -2.5637    1.0590    5.7483 H   0  0  0  0  0  0  0  0  0  0  0  0
   -2.4435    1.4589    3.1669 N   0  0  0  0  0  0  0  0  0  0  0  0
   -2.1966    1.8850    1.8145 C   0  0  2  0  0  0  0  0  0  0  0  0
   -0.8617    1.2996    1.3733 C   0  0  0  0  0  0  0  0  0  0  0  0
    0.0104    0.9468    2.1646 O   0  0  0  0  0  0  0  0  0  0  0  0
   -2.1879    3.4017    1.7050 C   0  0  0  0  0  0  0  0  0  0  0  0
   -3.2085    1.8948    3.6787 H   0  0  0  0  0  0  0  0  0  0  0  0
   -3.0007    1.4665    1.1994 H   0  0  0  0  0  0  0  0  0  0  0  0
   -1.3888    3.8390    2.3147 H   0  0  0  0  0  0  0  0  0  0  0  0
   -2.0284    3.7240    0.6708 H   0  0  0  0  0  0  0  0  0  0  0  0
   -3.1380    3.8230    2.0508 H   0  0  0  0  0  0  0  0  0  0  0  0
   -0.7390    1.2565   -0.0101 N   0  0  0  0  0  0  0  0  0  0  0  0
    0.4383    0.7557   -0.6738 C   0  0  2  0  0  0  0  0  0  0  0  0
    1.6463    1.3529    0.0392 C   0  0  0  0  0  0  0  0  0  0  0  0
    1.5491    2.0831    1.0231 O   0  0  0  0  0  0  0  0  0  0  0  0
    0.4635    1.1213   -2.1623 C   0  0  0  0  0  0  0  0  0  0  0  0
   -0.6652    0.4875   -2.9382 C   0  0  0  0  0  0  0  0  0  0  0  0
   -0.6599   -0.8464   -3.2679 N   0  3  0  0  0  0  0  0  0  0  0  0
   -1.8211    1.0128   -3.4429 C   0  0  0  0  0  0  0  0  0  0  0  0
   -1.7699   -1.1408   -3.9524 C   0  0  0  0  0  0  0  0  0  0  0  0
   -2.4848   -0.0167   -4.0656 N   0  0  0  0  0  0  0  0  0  0  0  0
   -1.5221    1.5532   -0.5874 H   0  0  0  0  0  0  0  0  0  0  0  0
    0.4387   -0.3314   -0.5313 H   0  0  0  0  0  0  0  0  0  0  0  0
    1.4254    0.8340   -2.6084 H   0  0  0  0  0  0  0  0  0  0  0  0
    0.4003    2.2100   -2.2910 H   0  0  0  0  0  0  0  0  0  0  0  0
    0.0725   -1.5102   -3.0316 H   0  0  0  0  0  0  0  0  0  0  0  0
   -2.2838    1.9795   -3.4577 H   0  0  0  0  0  0  0  0  0  0  0  0
   -2.0390   -2.1081   -4.3426 H   0  0  0  0  0  0  0  0  0  0  0  0
   -3.3799    0.0614   -4.5401 H   0  0  0  0  0  0  0  0  0  0  0  0
    2.8428    0.9321   -0.5247 N   0  0  0  0  0  0  0  0  0  0  0  0
    4.1390    1.3319   -0.0259 C   0  0  2  0  0  0  0  0  0  0  0  0
    4.1391    2.8478    0.1214 C   0  0  0  0  0  0  0  0  0  0  0  0
    3.3724    3.5820   -0.4984 O   0  0  0  0  0  0  0  0  0  0  0  0
    5.2538    0.8760   -0.9544 C   0  0  0  0  0  0  0  0  0  0  0  0
    2.8055    0.3120   -1.3283 H   0  0  0  0  0  0  0  0  0  0  0  0
    4.2553    0.8686    0.9599 H   0  0  0  0  0  0  0  0  0  0  0  0
    5.1541    1.3300   -1.9471 H   0  0  0  0  0  0  0  0  0  0  0  0
    6.2369    1.1548   -0.5608 H   0  0  0  0  0  0  0  0  0  0  0  0
    5.2337   -0.2116   -1.0828 H   0  0  0  0  0  0  0  0  0  0  0  0
    5.1249    3.2872    0.9939 N   0  0  0  0  0  0  0  0  0  0  0  0
    5.3361    4.6847    1.2916 C   0  0  0  0  0  0  0  0  0  0  0  0
    5.7030    2.6068    1.4783 H   0  0  0  0  0  0  0  0  0  0  0  0
    6.0926    5.0957    0.6069 H   0  0  0  0  0  0  0  0  0  0  0  0
    4.3910    5.2332    1.1656 H   0  0  0  0  0  0  0  0  0  0  0  0
    5.6854    4.7896    2.3294 H   0  0  0  0  0  0  0  0  0  0  0  0
 22 24  2  0  0  0  0
 24 26  1  0  0  0  0
 25 26  1  0  0  0  0
 23 25  2  0  0  0  0
 21 22  1  0  0  0  0
 22 23  1  0  0  0  0
  1  3  1  0  0  0  0
  1  7  1  0  0  0  0
  1  2  2  0  0  0  0
 36 37  1  0  0  0  0
 37 45  1  0  0  0  0
 37 38  2  0  0  0  0
  8  9  1  0  0  0  0
  9 17  1  0  0  0  0
  9 10  2  0  0  0  0
 18 19  1  0  0  0  0
 19 35  1  0  0  0  0
 19 20  2  0  0  0  0
 36 39  1  0  0  0  0
  8 11  1  0  0  0  0
 45 46  1  0  0  0  0
 18 21  1  0  0  0  0
 35 36  1  0  0  0  0
  7  8  1  0  0  0  0
 17 18  1  0  0  0  0
 24 32  1  0  0  0  0
 25 33  1  0  0  0  0
  3  4  1  0  0  0  0
  3  5  1  0  0  0  0
  3  6  1  0  0  0  0
 39 42  1  0  0  0  0
 39 43  1  0  0  0  0
 39 44  1  0  0  0  0
 11 14  1  0  0  0  0
 11 15  1  0  0  0  0
 11 16  1  0  0  0  0
 46 48  1  0  0  0  0
 46 49  1  0  0  0  0
 46 50  1  0  0  0  0
 21 29  1  0  0  0  0
 21 30  1  0  0  0  0
 36 41  1  0  0  0  0
  8 13  1  0  0  0  0
 18 28  1  0  0  0  0
 26 34  1  0  0  0  0
 23 31  1  0  0  0  0
 45 47  1  0  0  0  0
  7 12  1  0  0  0  0
 35 40  1  0  0  0  0
 17 27  1  0  0  0  0
M  CHG  1  23   1
M  END
$$$$

  -OEChem-05262214473D

 50 50  0     1  0  0  0  0  0999 V2000
   -1.6938    0.4865    3.8080 C   0  0  0  0  0  0  0  0  0  0  0  0
   -0.7464   -0.1282    3.3323 O   0  0  0  0  0  0  0  0  0  0  0  0
   -2.1257    0.2041    5.2087 C   0  0  0  0  0  0  0  0  0  0  0  0
   -2.8853   -0.5922    5.2621 H   0  0  0  0  0  0  0  0  0  0  0  0
   -1.2944   -0.1435    5.8430 H   0  0  0  0  0  0  0  0  0  0  0  0
   -2.5637    1.0590    5.7483 H   0  0  0  0  0  0  0  0  0  0  0  0
   -2.4435    1.4589    3.1669 N   0  0  0  0  0  0  0  0  0  0  0  0
   -2.1966    1.8850    1.8145 C   0  0  2  0  0  0  0  0  0  0  0  0
   -0.8617    1.2996    1.3733 C   0  0  0  0  0  0  0  0  0  0  0  0
    0.0104    0.9468    2.1646 O   0  0  0  0  0  0  0  0  0  0  0  0
   -2.1879    3.4017    1.7050 C   0  0  0  0  0  0  0  0  0  0  0  0
   -3.2085    1.8948    3.6787 H   0  0  0  0  0  0  0  0  0  0  0  0
   -3.0007    1.4665    1.1994 H   0  0  0  0  0  0  0  0  0  0  0  0
   -1.3888    3.8390    2.3147 H   0  0  0  0  0  0  0  0  0  0  0  0
   -2.0284    3.7240    0.6708 H   0  0  0  0  0  0  0  0  0  0  0  0
   -3.1380    3.8230    2.0508 H   0  0  0  0  0  0  0  0  0  0  0  0
   -0.7390    1.2565   -0.0101 N   0  0  0  0  0  0  0  0  0  0  0  0
    0.4383    0.7557   -0.6738 C   0  0  2  0  0  0  0  0  0  0  0  0
    1.6463    1.3529    0.0392 C   0  0  0  0  0  0  0  0  0  0  0  0
    1.5818    1.8536    1.1599 O   0  0  0  0  0  0  0  0  0  0  0  0
    0.4635    1.1213   -2.1623 C   0  0  0  0  0  0  0  0  0  0  0  0
   -0.6652    0.4875   -2.9382 C   0  0  0  0  0  0  0  0  0  0  0  0
   -0.6599   -0.8464   -3.2679 N   0  3  0  0  0  0  0  0  0  0  0  0
   -1.8211    1.0128   -3.4429 C   0  0  0  0  0  0  0  0  0  0  0  0
   -1.7699   -1.1408   -3.9524 C   0  0  0  0  0  0  0  0  0  0  0  0
   -2.4848   -0.0167   -4.0656 N   0  0  0  0  0  0  0  0  0  0  0  0
   -1.5221    1.5532   -0.5874 H   0  0  0  0  0  0  0  0  0  0  0  0
    0.4387   -0.3314   -0.5313 H   0  0  0  0  0  0  0  0  0  0  0  0
    1.4254    0.8340   -2.6084 H   0  0  0  0  0  0  0  0  0  0  0  0
    0.4003    2.2100   -2.2910 H   0  0  0  0  0  0  0  0  0  0  0  0
    0.0725   -1.5102   -3.0316 H   0  0  0  0  0  0  0  0  0  0  0  0
   -2.2838    1.9795   -3.4577 H   0  0  0  0  0  0  0  0  0  0  0  0
   -2.0390   -2.1081   -4.3426 H   0  0  0  0  0  0  0  0  0  0  0  0
   -3.3799    0.0614   -4.5401 H   0  0  0  0  0  0  0  0  0  0  0  0
    2.8098    1.2138   -0.7048 N   0  0  0  0  0  0  0  0  0  0  0  0
    4.1023    1.6736   -0.2499 C   0  0  2  0  0  0  0  0  0  0  0  0
    3.9518    3.1164    0.2139 C   0  0  0  0  0  0  0  0  0  0  0  0
    3.0430    3.8518   -0.1662 O   0  0  0  0  0  0  0  0  0  0  0  0
    5.1475    1.5621   -1.3489 C   0  0  0  0  0  0  0  0  0  0  0  0
    2.7499    0.7665   -1.6147 H   0  0  0  0  0  0  0  0  0  0  0  0
    4.3806    1.0428    0.6015 H   0  0  0  0  0  0  0  0  0  0  0  0
    4.8857    2.1873   -2.2104 H   0  0  0  0  0  0  0  0  0  0  0  0
    6.1322    1.8839   -0.9941 H   0  0  0  0  0  0  0  0  0  0  0  0
    5.2332    0.5288   -1.7019 H   0  0  0  0  0  0  0  0  0  0  0  0
    4.9760    3.4994    1.0686 N   0  0  0  0  0  0  0  0  0  0  0  0
    5.0641    4.8251    1.6349 C   0  0  0  0  0  0  0  0  0  0  0  0
    5.6771    2.8184    1.3450 H   0  0  0  0  0  0  0  0  0  0  0  0
    5.6875    5.4600    0.9881 H   0  0  0  0  0  0  0  0  0  0  0  0
    4.0560    5.2585    1.7120 H   0  0  0  0  0  0  0  0  0  0  0  0
    5.5157    4.7667    2.6362 H   0  0  0  0  0  0  0  0  0  0  0  0
 22 24  2  0  0  0  0
 24 26  1  0  0  0  0
 25 26  1  0  0  0  0
 23 25  2  0  0  0  0
 21 22  1  0  0  0  0
 22 23  1  0  0  0  0
  1  3  1  0  0  0  0
  1  7  1  0  0  0  0
  1  2  2  0  0  0  0
 36 37  1  0  0  0  0
 37 45  1  0  0  0  0
 37 38  2  0  0  0  0
  8  9  1  0  0  0  0
  9 17  1  0  0  0  0
  9 10  2  0  0  0  0
 18 19  1  0  0  0  0
 19 35  1  0  0  0  0
 19 20  2  0  0  0  0
 36 39  1  0  0  0  0
  8 11  1  0  0  0  0
 45 46  1  0  0  0  0
 18 21  1  0  0  0  0
 35 36  1  0  0  0  0
  7  8  1  0  0  0  0
 17 18  1  0  0  0  0
 24 32  1  0  0  0  0
 25 33  1  0  0  0  0
  3  4  1  0  0  0  0
  3  5  1  0  0  0  0
  3  6  1  0  0  0  0
 39 42  1  0  0  0  0
 39 43  1  0  0  0  0
 39 44  1  0  0  0  0
 11 14  1  0  0  0  0
 11 15  1  0  0  0  0
 11 16  1  0  0  0  0
 46 48  1  0  0  0  0
 46 49  1  0  0  0  0
 46 50  1  0  0  0  0
 21 29  1  0  0  0  0
 21 30  1  0  0  0  0
 36 41  1  0  0  0  0
  8 13  1  0  0  0  0
 18 28  1  0  0  0  0
 26 34  1  0  0  0  0
 23 31  1  0  0  0  0
 45 47  1  0  0  0  0
  7 12  1  0  0  0  0
 35 40  1  0  0  0  0
 17 27  1  0  0  0  0
M  CHG  1  23   1
M  END
$$$$

  -OEChem-05262214473D

 50 50  0     1  0  0  0  0  0999 V2000
   -1.6938    0.4865    3.8080 C   0  0  0  0  0  0  0  0  0  0  0  0
   -0.7464   -0.1282    3.3323 O   0  0  0  0  0  0  0  0  0  0  0  0
   -2.1257    0.2041    5.2087 C   0  0  0  0  0  0  0  0  0  0  0  0
   -2.8853   -0.5922    5.2621 H   0  0  0  0  0  0  0  0  0  0  0  0
   -1.2944   -0.1435    5.8430 H   0  0  0  0  0  0  0  0  0  0  0  0
   -2.5637    1.0590    5.7483 H   0  0  0  0  0  0  0  0  0  0  0  0
   -2.4435    1.4589    3.1669 N   0  0  0  0  0  0  0  0  0  0  0  0
   -2.1966    1.8850    1.8145 C   0  0  2  0  0  0  0  0  0  0  0  0
   -0.8617    1.2996    1.3733 C   0  0  0  0  0  0  0  0  0  0  0  0
    0.0104    0.9468    2.1646 O   0  0  0  0  0  0  0  0  0  0  0  0
   -2.1879    3.4017    1.7050 C   0  0  0  0  0  0  0  0  0  0  0  0
   -3.2085    1.8948    3.6787 H   0  0  0  0  0  0  0  0  0  0  0  0
   -3.0007    1.4665    1.1994 H   0  0  0  0  0  0  0  0  0  0  0  0
   -1.3888    3.8390    2.3147 H   0  0  0  0  0  0  0  0  0  0  0  0
   -2.0284    3.7240    0.6708 H   0  0  0  0  0  0  0  0  0  0  0  0
   -3.1380    3.8230    2.0508 H   0  0  0  0  0  0  0  0  0  0  0  0
   -0.7390    1.2565   -0.0101 N   0  0  0  0  0  0  0  0  0  0  0  0
    0.4383    0.7557   -0.6738 C   0  0  2  0  0  0  0  0  0  0  0  0
    1.6463    1.3529    0.0392 C   0  0  0  0  0  0  0  0  0  0  0  0
    1.6551    1.6078    1.2416 O   0  0  0  0  0  0  0  0  0  0  0  0
    0.4635    1.1213   -2.1623 C   0  0  0  0  0  0  0  0  0  0  0  0
   -0.6652    0.4875   -2.9382 C   0  0  0  0  0  0  0  0  0  0  0  0
   -0.6599   -0.8464   -3.2679 N   0  3  0  0  0  0  0  0  0  0  0  0
   -1.8211    1.0128   -3.4429 C   0  0  0  0  0  0  0  0  0  0  0  0
   -1.7699   -1.1408   -3.9524 C   0  0  0  0  0  0  0  0  0  0  0  0
   -2.4848   -0.0167   -4.0656 N   0  0  0  0  0  0  0  0  0  0  0  0
   -1.5221    1.5532   -0.5874 H   0  0  0  0  0  0  0  0  0  0  0  0
    0.4387   -0.3314   -0.5313 H   0  0  0  0  0  0  0  0  0  0  0  0
    1.4254    0.8340   -2.6084 H   0  0  0  0  0  0  0  0  0  0  0  0
    0.4003    2.2100   -2.2910 H   0  0  0  0  0  0  0  0  0  0  0  0
    0.0725   -1.5102   -3.0316 H   0  0  0  0  0  0  0  0  0  0  0  0
   -2.2838    1.9795   -3.4577 H   0  0  0  0  0  0  0  0  0  0  0  0
   -2.0390   -2.1081   -4.3426 H   0  0  0  0  0  0  0  0  0  0  0  0
   -3.3799    0.0614   -4.5401 H   0  0  0  0  0  0  0  0  0  0  0  0
    2.7256    1.5189   -0.8176 N   0  0  0  0  0  0  0  0  0  0  0  0
    4.0028    2.0450   -0.3924 C   0  0  2  0  0  0  0  0  0  0  0  0
    3.7477    3.3342    0.3773 C   0  0  0  0  0  0  0  0  0  0  0  0
    2.7259    4.0044    0.2434 O   0  0  0  0  0  0  0  0  0  0  0  0
    4.9217    2.2929   -1.5785 C   0  0  0  0  0  0  0  0  0  0  0  0
    2.6121    1.2575   -1.7926 H   0  0  0  0  0  0  0  0  0  0  0  0
    4.4443    1.2998    0.2783 H   0  0  0  0  0  0  0  0  0  0  0  0
    4.4960    3.0368   -2.2617 H   0  0  0  0  0  0  0  0  0  0  0  0
    5.8988    2.6644   -1.2525 H   0  0  0  0  0  0  0  0  0  0  0  0
    5.0802    1.3708   -2.1481 H   0  0  0  0  0  0  0  0  0  0  0  0
    4.8140    3.6710    1.1992 N   0  0  0  0  0  0  0  0  0  0  0  0
    4.8191    4.8575    2.0228 C   0  0  0  0  0  0  0  0  0  0  0  0
    5.6130    3.0470    1.2621 H   0  0  0  0  0  0  0  0  0  0  0  0
    5.2908    5.6847    1.4721 H   0  0  0  0  0  0  0  0  0  0  0  0
    3.7848    5.1303    2.2789 H   0  0  0  0  0  0  0  0  0  0  0  0
    5.3856    4.6611    2.9451 H   0  0  0  0  0  0  0  0  0  0  0  0
 22 24  2  0  0  0  0
 24 26  1  0  0  0  0
 25 26  1  0  0  0  0
 23 25  2  0  0  0  0
 21 22  1  0  0  0  0
 22 23  1  0  0  0  0
  1  3  1  0  0  0  0
  1  7  1  0  0  0  0
  1  2  2  0  0  0  0
 36 37  1  0  0  0  0
 37 45  1  0  0  0  0
 37 38  2  0  0  0  0
  8  9  1  0  0  0  0
  9 17  1  0  0  0  0
  9 10  2  0  0  0  0
 18 19  1  0  0  0  0
 19 35  1  0  0  0  0
 19 20  2  0  0  0  0
 36 39  1  0  0  0  0
  8 11  1  0  0  0  0
 45 46  1  0  0  0  0
 18 21  1  0  0  0  0
 35 36  1  0  0  0  0
  7  8  1  0  0  0  0
 17 18  1  0  0  0  0
 24 32  1  0  0  0  0
 25 33  1  0  0  0  0
  3  4  1  0  0  0  0
  3  5  1  0  0  0  0
  3  6  1  0  0  0  0
 39 42  1  0  0  0  0
 39 43  1  0  0  0  0
 39 44  1  0  0  0  0
 11 14  1  0  0  0  0
 11 15  1  0  0  0  0
 11 16  1  0  0  0  0
 46 48  1  0  0  0  0
 46 49  1  0  0  0  0
 46 50  1  0  0  0  0
 21 29  1  0  0  0  0
 21 30  1  0  0  0  0
 36 41  1  0  0  0  0
  8 13  1  0  0  0  0
 18 28  1  0  0  0  0
 26 34  1  0  0  0  0
 23 31  1  0  0  0  0
 45 47  1  0  0  0  0
  7 12  1  0  0  0  0
 35 40  1  0  0  0  0
 17 27  1  0  0  0  0
M  CHG  1  23   1
M  END
$$$$

  -OEChem-05262214473D

 50 50  0     1  0  0  0  0  0999 V2000
   -1.6938    0.4865    3.8080 C   0  0  0  0  0  0  0  0  0  0  0  0
   -0.7464   -0.1282    3.3323 O   0  0  0  0  0  0  0  0  0  0  0  0
   -2.1257    0.2041    5.2087 C   0  0  0  0  0  0  0  0  0  0  0  0
   -2.8853   -0.5922    5.2621 H   0  0  0  0  0  0  0  0  0  0  0  0
   -1.2944   -0.1435    5.8430 H   0  0  0  0  0  0  0  0  0  0  0  0
   -2.5637    1.0590    5.7483 H   0  0  0  0  0  0  0  0  0  0  0  0
   -2.4435    1.4589    3.1669 N   0  0  0  0  0  0  0  0  0  0  0  0
   -2.1966    1.8850    1.8145 C   0  0  2  0  0  0  0  0  0  0  0  0
   -0.8617    1.2996    1.3733 C   0  0  0  0  0  0  0  0  0  0  0  0
    0.0104    0.9468    2.1646 O   0  0  0  0  0  0  0  0  0  0  0  0
   -2.1879    3.4017    1.7050 C   0  0  0  0  0  0  0  0  0  0  0  0
   -3.2085    1.8948    3.6787 H   0  0  0  0  0  0  0  0  0  0  0  0
   -3.0007    1.4665    1.1994 H   0  0  0  0  0  0  0  0  0  0  0  0
   -1.3888    3.8390    2.3147 H   0  0  0  0  0  0  0  0  0  0  0  0
   -2.0284    3.7240    0.6708 H   0  0  0  0  0  0  0  0  0  0  0  0
   -3.1380    3.8230    2.0508 H   0  0  0  0  0  0  0  0  0  0  0  0
   -0.7390    1.2565   -0.0101 N   0  0  0  0  0  0  0  0  0  0  0  0
    0.4383    0.7557   -0.6738 C   0  0  2  0  0  0  0  0  0  0  0  0
    1.6463    1.3529    0.0392 C   0  0  0  0  0  0  0  0  0  0  0  0
    1.7639    1.3625    1.2627 O   0  0  0  0  0  0  0  0  0  0  0  0
    0.4635    1.1213   -2.1623 C   0  0  0  0  0  0  0  0  0  0  0  0
   -0.6652    0.4875   -2.9382 C   0  0  0  0  0  0  0  0  0  0  0  0
   -0.6599   -0.8464   -3.2679 N   0  3  0  0  0  0  0  0  0  0  0  0
   -1.8211    1.0128   -3.4429 C   0  0  0  0  0  0  0  0  0  0  0  0
   -1.7699   -1.1408   -3.9524 C   0  0  0  0  0  0  0  0  0  0  0  0
   -2.4848   -0.0167   -4.0656 N   0  0  0  0  0  0  0  0  0  0  0  0
   -1.5221    1.5532   -0.5874 H   0  0  0  0  0  0  0  0  0  0  0  0
    0.4387   -0.3314   -0.5313 H   0  0  0  0  0  0  0  0  0  0  0  0
    1.4254    0.8340   -2.6084 H   0  0  0  0  0  0  0  0  0  0  0  0
    0.4003    2.2100   -2.2910 H   0  0  0  0  0  0  0  0  0  0  0  0
    0.0725   -1.5102   -3.0316 H   0  0  0  0  0  0  0  0  0  0  0  0
   -2.2838    1.9795   -3.4577 H   0  0  0  0  0  0  0  0  0  0  0  0
   -2.0390   -2.1081   -4.3426 H   0  0  0  0  0  0  0  0  0  0  0  0
   -3.3799    0.0614   -4.5401 H   0  0  0  0  0  0  0  0  0  0  0  0
    2.5959    1.8265   -0.8555 N   0  0  0  0  0  0  0  0  0  0  0  0
    3.8472    2.4210   -0.4438 C   0  0  2  0  0  0  0  0  0  0  0  0
    3.5407    3.4863    0.6005 C   0  0  0  0  0  0  0  0  0  0  0  0
    2.4426    4.0293    0.7025 O   0  0  0  0  0  0  0  0  0  0  0  0
    4.5919    3.0185   -1.6275 C   0  0  0  0  0  0  0  0  0  0  0  0
    2.4016    1.7516   -1.8497 H   0  0  0  0  0  0  0  0  0  0  0  0
    4.4420    1.6221    0.0124 H   0  0  0  0  0  0  0  0  0  0  0  0
    4.0115    3.8208   -2.0975 H   0  0  0  0  0  0  0  0  0  0  0  0
    5.5528    3.4431   -1.3184 H   0  0  0  0  0  0  0  0  0  0  0  0
    4.7853    2.2571   -2.3909 H   0  0  0  0  0  0  0  0  0  0  0  0
    4.6501    3.7904    1.3771 N   0  0  0  0  0  0  0  0  0  0  0  0
    4.6180    4.7795    2.4290 C   0  0  0  0  0  0  0  0  0  0  0  0
    5.5150    3.2770    1.2355 H   0  0  0  0  0  0  0  0  0  0  0  0
    4.9295    5.7544    2.0259 H   0  0  0  0  0  0  0  0  0  0  0  0
    3.5958    4.8575    2.8278 H   0  0  0  0  0  0  0  0  0  0  0  0
    5.3041    4.4799    3.2349 H   0  0  0  0  0  0  0  0  0  0  0  0
 22 24  2  0  0  0  0
 24 26  1  0  0  0  0
 25 26  1  0  0  0  0
 23 25  2  0  0  0  0
 21 22  1  0  0  0  0
 22 23  1  0  0  0  0
  1  3  1  0  0  0  0
  1  7  1  0  0  0  0
  1  2  2  0  0  0  0
 36 37  1  0  0  0  0
 37 45  1  0  0  0  0
 37 38  2  0  0  0  0
  8  9  1  0  0  0  0
  9 17  1  0  0  0  0
  9 10  2  0  0  0  0
 18 19  1  0  0  0  0
 19 35  1  0  0  0  0
 19 20  2  0  0  0  0
 36 39  1  0  0  0  0
  8 11  1  0  0  0  0
 45 46  1  0  0  0  0
 18 21  1  0  0  0  0
 35 36  1  0  0  0  0
  7  8  1  0  0  0  0
 17 18  1  0  0  0  0
 24 32  1  0  0  0  0
 25 33  1  0  0  0  0
  3  4  1  0  0  0  0
  3  5  1  0  0  0  0
  3  6  1  0  0  0  0
 39 42  1  0  0  0  0
 39 43  1  0  0  0  0
 39 44  1  0  0  0  0
 11 14  1  0  0  0  0
 11 15  1  0  0  0  0
 11 16  1  0  0  0  0
 46 48  1  0  0  0  0
 46 49  1  0  0  0  0
 46 50  1  0  0  0  0
 21 29  1  0  0  0  0
 21 30  1  0  0  0  0
 36 41  1  0  0  0  0
  8 13  1  0  0  0  0
 18 28  1  0  0  0  0
 26 34  1  0  0  0  0
 23 31  1  0  0  0  0
 45 47  1  0  0  0  0
  7 12  1  0  0  0  0
 35 40  1  0  0  0  0
 17 27  1  0  0  0  0
M  CHG  1  23   1
M  END
$$$$

  -OEChem-05262214473D

 50 50  0     1  0  0  0  0  0999 V2000
   -1.6938    0.4865    3.8080 C   0  0  0  0  0  0  0  0  0  0  0  0
   -0.7464   -0.1282    3.3323 O   0  0  0  0  0  0  0  0  0  0  0  0
   -2.1257    0.2041    5.2087 C   0  0  0  0  0  0  0  0  0  0  0  0
   -2.8853   -0.5922    5.2621 H   0  0  0  0  0  0  0  0  0  0  0  0
   -1.2944   -0.1435    5.8430 H   0  0  0  0  0  0  0  0  0  0  0  0
   -2.5637    1.0590    5.7483 H   0  0  0  0  0  0  0  0  0  0  0  0
   -2.4435    1.4589    3.1669 N   0  0  0  0  0  0  0  0  0  0  0  0
   -2.1966    1.8850    1.8145 C   0  0  2  0  0  0  0  0  0  0  0  0
   -0.8617    1.2996    1.3733 C   0  0  0  0  0  0  0  0  0  0  0  0
    0.0104    0.9468    2.1646 O   0  0  0  0  0  0  0  0  0  0  0  0
   -2.1879    3.4017    1.7050 C   0  0  0  0  0  0  0  0  0  0  0  0
   -3.2085    1.8948    3.6787 H   0  0  0  0  0  0  0  0  0  0  0  0
   -3.0007    1.4665    1.1994 H   0  0  0  0  0  0  0  0  0  0  0  0
   -1.3888    3.8390    2.3147 H   0  0  0  0  0  0  0  0  0  0  0  0
   -2.0284    3.7240    0.6708 H   0  0  0  0  0  0  0  0  0  0  0  0
   -3.1380    3.8230    2.0508 H   0  0  0  0  0  0  0  0  0  0  0  0
   -0.7390    1.2565   -0.0101 N   0  0  0  0  0  0  0  0  0  0  0  0
    0.4383    0.7557   -0.6738 C   0  0  2  0  0  0  0  0  0  0  0  0
    1.6463    1.3529    0.0392 C   0  0  0  0  0  0  0  0  0  0  0  0
    1.9009    1.1344    1.2217 O   0  0  0  0  0  0  0  0  0  0  0  0
    0.4635    1.1213   -2.1623 C   0  0  0  0  0  0  0  0  0  0  0  0
   -0.6652    0.4875   -2.9382 C   0  0  0  0  0  0  0  0  0  0  0  0
   -0.6599   -0.8464   -3.2679 N   0  3  0  0  0  0  0  0  0  0  0  0
   -1.8211    1.0128   -3.4429 C   0  0  0  0  0  0  0  0  0  0  0  0
   -1.7699   -1.1408   -3.9524 C   0  0  0  0  0  0  0  0  0  0  0  0
   -2.4848   -0.0167   -4.0656 N   0  0  0  0  0  0  0  0  0  0  0  0
   -1.5221    1.5532   -0.5874 H   0  0  0  0  0  0  0  0  0  0  0  0
    0.4387   -0.3314   -0.5313 H   0  0  0  0  0  0  0  0  0  0  0  0
    1.4254    0.8340   -2.6084 H   0  0  0  0  0  0  0  0  0  0  0  0
    0.4003    2.2100   -2.2910 H   0  0  0  0  0  0  0  0  0  0  0  0
    0.0725   -1.5102   -3.0316 H   0  0  0  0  0  0  0  0  0  0  0  0
   -2.2838    1.9795   -3.4577 H   0  0  0  0  0  0  0  0  0  0  0  0
   -2.0390   -2.1081   -4.3426 H   0  0  0  0  0  0  0  0  0  0  0  0
   -3.3799    0.0614   -4.5401 H   0  0  0  0  0  0  0  0  0  0  0  0
    2.4295    2.1157   -0.8159 N   0  0  0  0  0  0  0  0  0  0  0  0
    3.6463    2.7759   -0.4006 C   0  0  2  0  0  0  0  0  0  0  0  0
    3.3450    3.5625    0.8683 C   0  0  0  0  0  0  0  0  0  0  0  0
    2.2125    3.9250    1.1798 O   0  0  0  0  0  0  0  0  0  0  0  0
    4.1806    3.6895   -1.4926 C   0  0  0  0  0  0  0  0  0  0  0  0
    2.1326    2.2151   -1.7822 H   0  0  0  0  0  0  0  0  0  0  0  0
    4.3737    1.9876   -0.1782 H   0  0  0  0  0  0  0  0  0  0  0  0
    3.4654    4.4857   -1.7290 H   0  0  0  0  0  0  0  0  0  0  0  0
    5.1176    4.1669   -1.1873 H   0  0  0  0  0  0  0  0  0  0  0  0
    4.3686    3.1274   -2.4137 H   0  0  0  0  0  0  0  0  0  0  0  0
    4.4953    3.8493    1.5900 N   0  0  0  0  0  0  0  0  0  0  0  0
    4.4742    4.5966    2.8258 C   0  0  0  0  0  0  0  0  0  0  0  0
    5.3898    3.4927    1.2669 H   0  0  0  0  0  0  0  0  0  0  0  0
    4.6282    5.6645    2.6118 H   0  0  0  0  0  0  0  0  0  0  0  0
    3.5019    4.4584    3.3211 H   0  0  0  0  0  0  0  0  0  0  0  0
    5.2766    4.2357    3.4860 H   0  0  0  0  0  0  0  0  0  0  0  0
 22 24  2  0  0  0  0
 24 26  1  0  0  0  0
 25 26  1  0  0  0  0
 23 25  2  0  0  0  0
 21 22  1  0  0  0  0
 22 23  1  0  0  0  0
  1  3  1  0  0  0  0
  1  7  1  0  0  0  0
  1  2  2  0  0  0  0
 36 37  1  0  0  0  0
 37 45  1  0  0  0  0
 37 38  2  0  0  0  0
  8  9  1  0  0  0  0
  9 17  1  0  0  0  0
  9 10  2  0  0  0  0
 18 19  1  0  0  0  0
 19 35  1  0  0  0  0
 19 20  2  0  0  0  0
 36 39  1  0  0  0  0
  8 11  1  0  0  0  0
 45 46  1  0  0  0  0
 18 21  1  0  0  0  0
 35 36  1  0  0  0  0
  7  8  1  0  0  0  0
 17 18  1  0  0  0  0
 24 32  1  0  0  0  0
 25 33  1  0  0  0  0
  3  4  1  0  0  0  0
  3  5  1  0  0  0  0
  3  6  1  0  0  0  0
 39 42  1  0  0  0  0
 39 43  1  0  0  0  0
 39 44  1  0  0  0  0
 11 14  1  0  0  0  0
 11 15  1  0  0  0  0
 11 16  1  0  0  0  0
 46 48  1  0  0  0  0
 46 49  1  0  0  0  0
 46 50  1  0  0  0  0
 21 29  1  0  0  0  0
 21 30  1  0  0  0  0
 36 41  1  0  0  0  0
  8 13  1  0  0  0  0
 18 28  1  0  0  0  0
 26 34  1  0  0  0  0
 23 31  1  0  0  0  0
 45 47  1  0  0  0  0
  7 12  1  0  0  0  0
 35 40  1  0  0  0  0
 17 27  1  0  0  0  0
M  CHG  1  23   1
M  END
$$$$

  -OEChem-05262214473D

 50 50  0     1  0  0  0  0  0999 V2000
   -1.6938    0.4865    3.8080 C   0  0  0  0  0  0  0  0  0  0  0  0
   -0.7464   -0.1282    3.3323 O   0  0  0  0  0  0  0  0  0  0  0  0
   -2.1257    0.2041    5.2087 C   0  0  0  0  0  0  0  0  0  0  0  0
   -2.8853   -0.5922    5.2621 H   0  0  0  0  0  0  0  0  0  0  0  0
   -1.2944   -0.1435    5.8430 H   0  0  0  0  0  0  0  0  0  0  0  0
   -2.5637    1.0590    5.7483 H   0  0  0  0  0  0  0  0  0  0  0  0
   -2.4435    1.4589    3.1669 N   0  0  0  0  0  0  0  0  0  0  0  0
   -2.1966    1.8850    1.8145 C   0  0  2  0  0  0  0  0  0  0  0  0
   -0.8617    1.2996    1.3733 C   0  0  0  0  0  0  0  0  0  0  0  0
    0.0104    0.9468    2.1646 O   0  0  0  0  0  0  0  0  0  0  0  0
   -2.1879    3.4017    1.7050 C   0  0  0  0  0  0  0  0  0  0  0  0
   -3.2085    1.8948    3.6787 H   0  0  0  0  0  0  0  0  0  0  0  0
   -3.0007    1.4665    1.1994 H   0  0  0  0  0  0  0  0  0  0  0  0
   -1.3888    3.8390    2.3147 H   0  0  0  0  0  0  0  0  0  0  0  0
   -2.0284    3.7240    0.6708 H   0  0  0  0  0  0  0  0  0  0  0  0
   -3.1380    3.8230    2.0508 H   0  0  0  0  0  0  0  0  0  0  0  0
   -0.7390    1.2565   -0.0101 N   0  0  0  0  0  0  0  0  0  0  0  0
    0.4383    0.7557   -0.6738 C   0  0  2  0  0  0  0  0  0  0  0  0
    1.6463    1.3529    0.0392 C   0  0  0  0  0  0  0  0  0  0  0  0
    2.0566    0.9391    1.1215 O   0  0  0  0  0  0  0  0  0  0  0  0
    0.4635    1.1213   -2.1623 C   0  0  0  0  0  0  0  0  0  0  0  0
   -0.6652    0.4875   -2.9382 C   0  0  0  0  0  0  0  0  0  0  0  0
   -0.6599   -0.8464   -3.2679 N   0  3  0  0  0  0  0  0  0  0  0  0
   -1.8211    1.0128   -3.4429 C   0  0  0  0  0  0  0  0  0  0  0  0
   -1.7699   -1.1408   -3.9524 C   0  0  0  0  0  0  0  0  0  0  0  0
   -2.4848   -0.0167   -4.0656 N   0  0  0  0  0  0  0  0  0  0  0  0
   -1.5221    1.5532   -0.5874 H   0  0  0  0  0  0  0  0  0  0  0  0
    0.4387   -0.3314   -0.5313 H   0  0  0  0  0  0  0  0  0  0  0  0
    1.4254    0.8340   -2.6084 H   0  0  0  0  0  0  0  0  0  0  0  0
    0.4003    2.2100   -2.2910 H   0  0  0  0  0  0  0  0  0  0  0  0
    0.0725   -1.5102   -3.0316 H   0  0  0  0  0  0  0  0  0  0  0  0
   -2.2838    1.9795   -3.4577 H   0  0  0  0  0  0  0  0  0  0  0  0
   -2.0390   -2.1081   -4.3426 H   0  0  0  0  0  0  0  0  0  0  0  0
   -3.3799    0.0614   -4.5401 H   0  0  0  0  0  0  0  0  0  0  0  0
    2.2379    2.3668   -0.7014 N   0  0  0  0  0  0  0  0  0  0  0  0
    3.4136    3.0855   -0.2656 C   0  0  2  0  0  0  0  0  0  0  0  0
    3.1740    3.5575    1.1624 C   0  0  0  0  0  0  0  0  0  0  0  0
    2.0513    3.6986    1.6427 O   0  0  0  0  0  0  0  0  0  0  0  0
    3.7157    4.2602   -1.1829 C   0  0  0  0  0  0  0  0  0  0  0  0
    1.8236    2.6163   -1.5946 H   0  0  0  0  0  0  0  0  0  0  0  0
    4.2443    2.3714   -0.2803 H   0  0  0  0  0  0  0  0  0  0  0  0
    2.8947    4.9864   -1.1813 H   0  0  0  0  0  0  0  0  0  0  0  0
    4.6229    4.7864   -0.8680 H   0  0  0  0  0  0  0  0  0  0  0  0
    3.8584    3.9222   -2.2150 H   0  0  0  0  0  0  0  0  0  0  0  0
    4.3602    3.8439    1.8234 N   0  0  0  0  0  0  0  0  0  0  0  0
    4.3978    4.3211    3.1861 C   0  0  0  0  0  0  0  0  0  0  0  0
    5.2460    3.6795    1.3542 H   0  0  0  0  0  0  0  0  0  0  0  0
    4.4074    5.4210    3.1898 H   0  0  0  0  0  0  0  0  0  0  0  0
    3.5095    3.9604    3.7254 H   0  0  0  0  0  0  0  0  0  0  0  0
    5.3052    3.9449    3.6812 H   0  0  0  0  0  0  0  0  0  0  0  0
 22 24  2  0  0  0  0
 24 26  1  0  0  0  0
 25 26  1  0  0  0  0
 23 25  2  0  0  0  0
 21 22  1  0  0  0  0
 22 23  1  0  0  0  0
  1  3  1  0  0  0  0
  1  7  1  0  0  0  0
  1  2  2  0  0  0  0
 36 37  1  0  0  0  0
 37 45  1  0  0  0  0
 37 38  2  0  0  0  0
  8  9  1  0  0  0  0
  9 17  1  0  0  0  0
  9 10  2  0  0  0  0
 18 19  1  0  0  0  0
 19 35  1  0  0  0  0
 19 20  2  0  0  0  0
 36 39  1  0  0  0  0
  8 11  1  0  0  0  0
 45 46  1  0  0  0  0
 18 21  1  0  0  0  0
 35 36  1  0  0  0  0
  7  8  1  0  0  0  0
 17 18  1  0  0  0  0
 24 32  1  0  0  0  0
 25 33  1  0  0  0  0
  3  4  1  0  0  0  0
  3  5  1  0  0  0  0
  3  6  1  0  0  0  0
 39 42  1  0  0  0  0
 39 43  1  0  0  0  0
 39 44  1  0  0  0  0
 11 14  1  0  0  0  0
 11 15  1  0  0  0  0
 11 16  1  0  0  0  0
 46 48  1  0  0  0  0
 46 49  1  0  0  0  0
 46 50  1  0  0  0  0
 21 29  1  0  0  0  0
 21 30  1  0  0  0  0
 36 41  1  0  0  0  0
  8 13  1  0  0  0  0
 18 28  1  0  0  0  0
 26 34  1  0  0  0  0
 23 31  1  0  0  0  0
 45 47  1  0  0  0  0
  7 12  1  0  0  0  0
 35 40  1  0  0  0  0
 17 27  1  0  0  0  0
M  CHG  1  23   1
M  END
$$$$

  -OEChem-05262214473D

 50 50  0     1  0  0  0  0  0999 V2000
   -1.6938    0.4865    3.8080 C   0  0  0  0  0  0  0  0  0  0  0  0
   -0.7464   -0.1282    3.3323 O   0  0  0  0  0  0  0  0  0  0  0  0
   -2.1257    0.2041    5.2087 C   0  0  0  0  0  0  0  0  0  0  0  0
   -2.8853   -0.5922    5.2621 H   0  0  0  0  0  0  0  0  0  0  0  0
   -1.2944   -0.1435    5.8430 H   0  0  0  0  0  0  0  0  0  0  0  0
   -2.5637    1.0590    5.7483 H   0  0  0  0  0  0  0  0  0  0  0  0
   -2.4435    1.4589    3.1669 N   0  0  0  0  0  0  0  0  0  0  0  0
   -2.1966    1.8850    1.8145 C   0  0  2  0  0  0  0  0  0  0  0  0
   -0.8617    1.2996    1.3733 C   0  0  0  0  0  0  0  0  0  0  0  0
    0.0104    0.9468    2.1646 O   0  0  0  0  0  0  0  0  0  0  0  0
   -2.1879    3.4017    1.7050 C   0  0  0  0  0  0  0  0  0  0  0  0
   -3.2085    1.8948    3.6787 H   0  0  0  0  0  0  0  0  0  0  0  0
   -3.0007    1.4665    1.1994 H   0  0  0  0  0  0  0  0  0  0  0  0
   -1.3888    3.8390    2.3147 H   0  0  0  0  0  0  0  0  0  0  0  0
   -2.0284    3.7240    0.6708 H   0  0  0  0  0  0  0  0  0  0  0  0
   -3.1380    3.8230    2.0508 H   0  0  0  0  0  0  0  0  0  0  0  0
   -0.7390    1.2565   -0.0101 N   0  0  0  0  0  0  0  0  0  0  0  0
    0.4383    0.7557   -0.6738 C   0  0  2  0  0  0  0  0  0  0  0  0
    1.6463    1.3529    0.0392 C   0  0  0  0  0  0  0  0  0  0  0  0
    2.2205    0.7898    0.9688 O   0  0  0  0  0  0  0  0  0  0  0  0
    0.4635    1.1213   -2.1623 C   0  0  0  0  0  0  0  0  0  0  0  0
   -0.6652    0.4875   -2.9382 C   0  0  0  0  0  0  0  0  0  0  0  0
   -0.6599   -0.8464   -3.2679 N   0  3  0  0  0  0  0  0  0  0  0  0
   -1.8211    1.0128   -3.4429 C   0  0  0  0  0  0  0  0  0  0  0  0
   -1.7699   -1.1408   -3.9524 C   0  0  0  0  0  0  0  0  0  0  0  0
   -2.4848   -0.0167   -4.0656 N   0  0  0  0  0  0  0  0  0  0  0  0
   -1.5221    1.5532   -0.5874 H   0  0  0  0  0  0  0  0  0  0  0  0
    0.4387   -0.3314   -0.5313 H   0  0  0  0  0  0  0  0  0  0  0  0
    1.4254    0.8340   -2.6084 H   0  0  0  0  0  0  0  0  0  0  0  0
    0.4003    2.2100   -2.2910 H   0  0  0  0  0  0  0  0  0  0  0  0
    0.0725   -1.5102   -3.0316 H   0  0  0  0  0  0  0  0  0  0  0  0
   -2.2838    1.9795   -3.4577 H   0  0  0  0  0  0  0  0  0  0  0  0
   -2.0390   -2.1081   -4.3426 H   0  0  0  0  0  0  0  0  0  0  0  0
   -3.3799    0.0614   -4.5401 H   0  0  0  0  0  0  0  0  0  0  0  0
    2.0339    2.5627   -0.5199 N   0  0  0  0  0  0  0  0  0  0  0  0
    3.1651    3.3287   -0.0483 C   0  0  2  0  0  0  0  0  0  0  0  0
    3.0391    3.4716    1.4628 C   0  0  0  0  0  0  0  0  0  0  0  0
    1.9698    3.3653    2.0598 O   0  0  0  0  0  0  0  0  0  0  0  0
    3.2290    4.6917   -0.7197 C   0  0  0  0  0  0  0  0  0  0  0  0
    1.4955    2.9281   -1.2999 H   0  0  0  0  0  0  0  0  0  0  0  0
    4.0624    2.7475   -0.2872 H   0  0  0  0  0  0  0  0  0  0  0  0
    2.3383    5.2885   -0.4918 H   0  0  0  0  0  0  0  0  0  0  0  0
    4.1025    5.2595   -0.3825 H   0  0  0  0  0  0  0  0  0  0  0  0
    3.2896    4.5874   -1.8084 H   0  0  0  0  0  0  0  0  0  0  0  0
    4.2541    3.7744    2.0614 N   0  0  0  0  0  0  0  0  0  0  0  0
    4.3938    3.9718    3.4853 C   0  0  0  0  0  0  0  0  0  0  0  0
    5.0932    3.8247    1.4914 H   0  0  0  0  0  0  0  0  0  0  0  0
    4.2822    5.0406    3.7206 H   0  0  0  0  0  0  0  0  0  0  0  0
    3.6181    3.3975    4.0129 H   0  0  0  0  0  0  0  0  0  0  0  0
    5.3877    3.6275    3.8073 H   0  0  0  0  0  0  0  0  0  0  0  0
 22 24  2  0  0  0  0
 24 26  1  0  0  0  0
 25 26  1  0  0  0  0
 23 25  2  0  0  0  0
 21 22  1  0  0  0  0
 22 23  1  0  0  0  0
  1  3  1  0  0  0  0
  1  7  1  0  0  0  0
  1  2  2  0  0  0  0
 36 37  1  0  0  0  0
 37 45  1  0  0  0  0
 37 38  2  0  0  0  0
  8  9  1  0  0  0  0
  9 17  1  0  0  0  0
  9 10  2  0  0  0  0
 18 19  1  0  0  0  0
 19 35  1  0  0  0  0
 19 20  2  0  0  0  0
 36 39  1  0  0  0  0
  8 11  1  0  0  0  0
 45 46  1  0  0  0  0
 18 21  1  0  0  0  0
 35 36  1  0  0  0  0
  7  8  1  0  0  0  0
 17 18  1  0  0  0  0
 24 32  1  0  0  0  0
 25 33  1  0  0  0  0
  3  4  1  0  0  0  0
  3  5  1  0  0  0  0
  3  6  1  0  0  0  0
 39 42  1  0  0  0  0
 39 43  1  0  0  0  0
 39 44  1  0  0  0  0
 11 14  1  0  0  0  0
 11 15  1  0  0  0  0
 11 16  1  0  0  0  0
 46 48  1  0  0  0  0
 46 49  1  0  0  0  0
 46 50  1  0  0  0  0
 21 29  1  0  0  0  0
 21 30  1  0  0  0  0
 36 41  1  0  0  0  0
  8 13  1  0  0  0  0
 18 28  1  0  0  0  0
 26 34  1  0  0  0  0
 23 31  1  0  0  0  0
 45 47  1  0  0  0  0
  7 12  1  0  0  0  0
 35 40  1  0  0  0  0
 17 27  1  0  0  0  0
M  CHG  1  23   1
M  END
$$$$

  -OEChem-05262214473D

 50 50  0     1  0  0  0  0  0999 V2000
   -1.6938    0.4865    3.8080 C   0  0  0  0  0  0  0  0  0  0  0  0
   -0.7464   -0.1282    3.3323 O   0  0  0  0  0  0  0  0  0  0  0  0
   -2.1257    0.2041    5.2087 C   0  0  0  0  0  0  0  0  0  0  0  0
   -2.8853   -0.5922    5.2621 H   0  0  0  0  0  0  0  0  0  0  0  0
   -1.2944   -0.1435    5.8430 H   0  0  0  0  0  0  0  0  0  0  0  0
   -2.5637    1.0590    5.7483 H   0  0  0  0  0  0  0  0  0  0  0  0
   -2.4435    1.4589    3.1669 N   0  0  0  0  0  0  0  0  0  0  0  0
   -2.1966    1.8850    1.8145 C   0  0  2  0  0  0  0  0  0  0  0  0
   -0.8617    1.2996    1.3733 C   0  0  0  0  0  0  0  0  0  0  0  0
    0.0104    0.9468    2.1646 O   0  0  0  0  0  0  0  0  0  0  0  0
   -2.1879    3.4017    1.7050 C   0  0  0  0  0  0  0  0  0  0  0  0
   -3.2085    1.8948    3.6787 H   0  0  0  0  0  0  0  0  0  0  0  0
   -3.0007    1.4665    1.1994 H   0  0  0  0  0  0  0  0  0  0  0  0
   -1.3888    3.8390    2.3147 H   0  0  0  0  0  0  0  0  0  0  0  0
   -2.0284    3.7240    0.6708 H   0  0  0  0  0  0  0  0  0  0  0  0
   -3.1380    3.8230    2.0508 H   0  0  0  0  0  0  0  0  0  0  0  0
   -0.7390    1.2565   -0.0101 N   0  0  0  0  0  0  0  0  0  0  0  0
    0.4383    0.7557   -0.6738 C   0  0  2  0  0  0  0  0  0  0  0  0
    1.6463    1.3529    0.0392 C   0  0  0  0  0  0  0  0  0  0  0  0
    2.3814    0.6968    0.7741 O   0  0  0  0  0  0  0  0  0  0  0  0
    0.4635    1.1213   -2.1623 C   0  0  0  0  0  0  0  0  0  0  0  0
   -0.6652    0.4875   -2.9382 C   0  0  0  0  0  0  0  0  0  0  0  0
   -0.6599   -0.8464   -3.2679 N   0  3  0  0  0  0  0  0  0  0  0  0
   -1.8211    1.0128   -3.4429 C   0  0  0  0  0  0  0  0  0  0  0  0
   -1.7699   -1.1408   -3.9524 C   0  0  0  0  0  0  0  0  0  0  0  0
   -2.4848   -0.0167   -4.0656 N   0  0  0  0  0  0  0  0  0  0  0  0
   -1.5221    1.5532   -0.5874 H   0  0  0  0  0  0  0  0  0  0  0  0
    0.4387   -0.3314   -0.5313 H   0  0  0  0  0  0  0  0  0  0  0  0
    1.4254    0.8340   -2.6084 H   0  0  0  0  0  0  0  0  0  0  0  0
    0.4003    2.2100   -2.2910 H   0  0  0  0  0  0  0  0  0  0  0  0
    0.0725   -1.5102   -3.0316 H   0  0  0  0  0  0  0  0  0  0  0  0
   -2.2838    1.9795   -3.4577 H   0  0  0  0  0  0  0  0  0  0  0  0
   -2.0390   -2.1081   -4.3426 H   0  0  0  0  0  0  0  0  0  0  0  0
   -3.3799    0.0614   -4.5401 H   0  0  0  0  0  0  0  0  0  0  0  0
    1.8316    2.6900   -0.2838 N   0  0  0  0  0  0  0  0  0  0  0  0
    2.9176    3.4890    0.2368 C   0  0  2  0  0  0  0  0  0  0  0  0
    2.9498    3.3107    1.7490 C   0  0  0  0  0  0  0  0  0  0  0  0
    1.9738    2.9481    2.4026 O   0  0  0  0  0  0  0  0  0  0  0  0
    2.7537    4.9546   -0.1344 C   0  0  0  0  0  0  0  0  0  0  0  0
    1.1707    3.1291   -0.9180 H   0  0  0  0  0  0  0  0  0  0  0  0
    3.8405    3.0901   -0.1982 H   0  0  0  0  0  0  0  0  0  0  0  0
    1.8343    5.3716    0.2927 H   0  0  0  0  0  0  0  0  0  0  0  0
    3.5918    5.5539    0.2363 H   0  0  0  0  0  0  0  0  0  0  0  0
    2.7008    5.0778   -1.2215 H   0  0  0  0  0  0  0  0  0  0  0  0
    4.1841    3.6457    2.2879 N   0  0  0  0  0  0  0  0  0  0  0  0
    4.4626    3.5726    3.7032 C   0  0  0  0  0  0  0  0  0  0  0  0
    4.9421    3.9183    1.6691 H   0  0  0  0  0  0  0  0  0  0  0  0
    4.2612    4.5491    4.1679 H   0  0  0  0  0  0  0  0  0  0  0  0
    3.8203    2.8078    4.1642 H   0  0  0  0  0  0  0  0  0  0  0  0
    5.5186    3.3050    3.8556 H   0  0  0  0  0  0  0  0  0  0  0  0
 22 24  2  0  0  0  0
 24 26  1  0  0  0  0
 25 26  1  0  0  0  0
 23 25  2  0  0  0  0
 21 22  1  0  0  0  0
 22 23  1  0  0  0  0
  1  3  1  0  0  0  0
  1  7  1  0  0  0  0
  1  2  2  0  0  0  0
 36 37  1  0  0  0  0
 37 45  1  0  0  0  0
 37 38  2  0  0  0  0
  8  9  1  0  0  0  0
  9 17  1  0  0  0  0
  9 10  2  0  0  0  0
 18 19  1  0  0  0  0
 19 35  1  0  0  0  0
 19 20  2  0  0  0  0
 36 39  1  0  0  0  0
  8 11  1  0  0  0  0
 45 46  1  0  0  0  0
 18 21  1  0  0  0  0
 35 36  1  0  0  0  0
  7  8  1  0  0  0  0
 17 18  1  0  0  0  0
 24 32  1  0  0  0  0
 25 33  1  0  0  0  0
  3  4  1  0  0  0  0
  3  5  1  0  0  0  0
  3  6  1  0  0  0  0
 39 42  1  0  0  0  0
 39 43  1  0  0  0  0
 39 44  1  0  0  0  0
 11 14  1  0  0  0  0
 11 15  1  0  0  0  0
 11 16  1  0  0  0  0
 46 48  1  0  0  0  0
 46 49  1  0  0  0  0
 46 50  1  0  0  0  0
 21 29  1  0  0  0  0
 21 30  1  0  0  0  0
 36 41  1  0  0  0  0
  8 13  1  0  0  0  0
 18 28  1  0  0  0  0
 26 34  1  0  0  0  0
 23 31  1  0  0  0  0
 45 47  1  0  0  0  0
  7 12  1  0  0  0  0
 35 40  1  0  0  0  0
 17 27  1  0  0  0  0
M  CHG  1  23   1
M  END
$$$$

  -OEChem-05262214473D

 50 50  0     1  0  0  0  0  0999 V2000
   -1.6938    0.4865    3.8080 C   0  0  0  0  0  0  0  0  0  0  0  0
   -0.7464   -0.1282    3.3323 O   0  0  0  0  0  0  0  0  0  0  0  0
   -2.1257    0.2041    5.2087 C   0  0  0  0  0  0  0  0  0  0  0  0
   -2.8853   -0.5922    5.2621 H   0  0  0  0  0  0  0  0  0  0  0  0
   -1.2944   -0.1435    5.8430 H   0  0  0  0  0  0  0  0  0  0  0  0
   -2.5637    1.0590    5.7483 H   0  0  0  0  0  0  0  0  0  0  0  0
   -2.4435    1.4589    3.1669 N   0  0  0  0  0  0  0  0  0  0  0  0
   -2.1966    1.8850    1.8145 C   0  0  2  0  0  0  0  0  0  0  0  0
   -0.8617    1.2996    1.3733 C   0  0  0  0  0  0  0  0  0  0  0  0
    0.0104    0.9468    2.1646 O   0  0  0  0  0  0  0  0  0  0  0  0
   -2.1879    3.4017    1.7050 C   0  0  0  0  0  0  0  0  0  0  0  0
   -3.2085    1.8948    3.6787 H   0  0  0  0  0  0  0  0  0  0  0  0
   -3.0007    1.4665    1.1994 H   0  0  0  0  0  0  0  0  0  0  0  0
   -1.3888    3.8390    2.3147 H   0  0  0  0  0  0  0  0  0  0  0  0
   -2.0284    3.7240    0.6708 H   0  0  0  0  0  0  0  0  0  0  0  0
   -3.1380    3.8230    2.0508 H   0  0  0  0  0  0  0  0  0  0  0  0
   -0.7390    1.2565   -0.0101 N   0  0  0  0  0  0  0  0  0  0  0  0
    0.4383    0.7557   -0.6738 C   0  0  2  0  0  0  0  0  0  0  0  0
    1.6463    1.3529    0.0392 C   0  0  0  0  0  0  0  0  0  0  0  0
    2.5283    0.6663    0.5506 O   0  0  0  0  0  0  0  0  0  0  0  0
    0.4635    1.1213   -2.1623 C   0  0  0  0  0  0  0  0  0  0  0  0
   -0.6652    0.4875   -2.9382 C   0  0  0  0  0  0  0  0  0  0  0  0
   -0.6599   -0.8464   -3.2679 N   0  3  0  0  0  0  0  0  0  0  0  0
   -1.8211    1.0128   -3.4429 C   0  0  0  0  0  0  0  0  0  0  0  0
   -1.7699   -1.1408   -3.9524 C   0  0  0  0  0  0  0  0  0  0  0  0
   -2.4848   -0.0167   -4.0656 N   0  0  0  0  0  0  0  0  0  0  0  0
   -1.5221    1.5532   -0.5874 H   0  0  0  0  0  0  0  0  0  0  0  0
    0.4387   -0.3314   -0.5313 H   0  0  0  0  0  0  0  0  0  0  0  0
    1.4254    0.8340   -2.6084 H   0  0  0  0  0  0  0  0  0  0  0  0
    0.4003    2.2100   -2.2910 H   0  0  0  0  0  0  0  0  0  0  0  0
    0.0725   -1.5102   -3.0316 H   0  0  0  0  0  0  0  0  0  0  0  0
   -2.2838    1.9795   -3.4577 H   0  0  0  0  0  0  0  0  0  0  0  0
   -2.0390   -2.1081   -4.3426 H   0  0  0  0  0  0  0  0  0  0  0  0
   -3.3799    0.0614   -4.5401 H   0  0  0  0  0  0  0  0  0  0  0  0
    1.6448    2.7400   -0.0091 N   0  0  0  0  0  0  0  0  0  0  0  0
    2.6881    3.5554    0.5701 C   0  0  2  0  0  0  0  0  0  0  0  0
    2.9119    3.0858    2.0015 C   0  0  0  0  0  0  0  0  0  0  0  0
    2.0629    2.4752    2.6477 O   0  0  0  0  0  0  0  0  0  0  0  0
    2.3220    5.0309    0.5331 C   0  0  0  0  0  0  0  0  0  0  0  0
    0.8715    3.2056   -0.4749 H   0  0  0  0  0  0  0  0  0  0  0  0
    3.5937    3.3760   -0.0195 H   0  0  0  0  0  0  0  0  0  0  0  0
    1.4169    5.2301    1.1185 H   0  0  0  0  0  0  0  0  0  0  0  0
    3.1256    5.6496    0.9462 H   0  0  0  0  0  0  0  0  0  0  0  0
    2.1323    5.3598   -0.4943 H   0  0  0  0  0  0  0  0  0  0  0  0
    4.1550    3.4664    2.4873 N   0  0  0  0  0  0  0  0  0  0  0  0
    4.5994    3.1507    3.8248 C   0  0  0  0  0  0  0  0  0  0  0  0
    4.8028    3.9539    1.8753 H   0  0  0  0  0  0  0  0  0  0  0  0
    4.3457    3.9800    4.5014 H   0  0  0  0  0  0  0  0  0  0  0  0
    4.1023    2.2317    4.1689 H   0  0  0  0  0  0  0  0  0  0  0  0
    5.6890    2.9994    3.8228 H   0  0  0  0  0  0  0  0  0  0  0  0
 22 24  2  0  0  0  0
 24 26  1  0  0  0  0
 25 26  1  0  0  0  0
 23 25  2  0  0  0  0
 21 22  1  0  0  0  0
 22 23  1  0  0  0  0
  1  3  1  0  0  0  0
  1  7  1  0  0  0  0
  1  2  2  0  0  0  0
 36 37  1  0  0  0  0
 37 45  1  0  0  0  0
 37 38  2  0  0  0  0
  8  9  1  0  0  0  0
  9 17  1  0  0  0  0
  9 10  2  0  0  0  0
 18 19  1  0  0  0  0
 19 35  1  0  0  0  0
 19 20  2  0  0  0  0
 36 39  1  0  0  0  0
  8 11  1  0  0  0  0
 45 46  1  0  0  0  0
 18 21  1  0  0  0  0
 35 36  1  0  0  0  0
  7  8  1  0  0  0  0
 17 18  1  0  0  0  0
 24 32  1  0  0  0  0
 25 33  1  0  0  0  0
  3  4  1  0  0  0  0
  3  5  1  0  0  0  0
  3  6  1  0  0  0  0
 39 42  1  0  0  0  0
 39 43  1  0  0  0  0
 39 44  1  0  0  0  0
 11 14  1  0  0  0  0
 11 15  1  0  0  0  0
 11 16  1  0  0  0  0
 46 48  1  0  0  0  0
 46 49  1  0  0  0  0
 46 50  1  0  0  0  0
 21 29  1  0  0  0  0
 21 30  1  0  0  0  0
 36 41  1  0  0  0  0
  8 13  1  0  0  0  0
 18 28  1  0  0  0  0
 26 34  1  0  0  0  0
 23 31  1  0  0  0  0
 45 47  1  0  0  0  0
  7 12  1  0  0  0  0
 35 40  1  0  0  0  0
 17 27  1  0  0  0  0
M  CHG  1  23   1
M  END
$$$$

  -OEChem-05262214473D

 50 50  0     1  0  0  0  0  0999 V2000
   -1.6938    0.4865    3.8080 C   0  0  0  0  0  0  0  0  0  0  0  0
   -0.7464   -0.1282    3.3323 O   0  0  0  0  0  0  0  0  0  0  0  0
   -2.1257    0.2041    5.2087 C   0  0  0  0  0  0  0  0  0  0  0  0
   -2.8853   -0.5922    5.2621 H   0  0  0  0  0  0  0  0  0  0  0  0
   -1.2944   -0.1435    5.8430 H   0  0  0  0  0  0  0  0  0  0  0  0
   -2.5637    1.0590    5.7483 H   0  0  0  0  0  0  0  0  0  0  0  0
   -2.4435    1.4589    3.1669 N   0  0  0  0  0  0  0  0  0  0  0  0
   -2.1966    1.8850    1.8145 C   0  0  2  0  0  0  0  0  0  0  0  0
   -0.8617    1.2996    1.3733 C   0  0  0  0  0  0  0  0  0  0  0  0
    0.0104    0.9468    2.1646 O   0  0  0  0  0  0  0  0  0  0  0  0
   -2.1879    3.4017    1.7050 C   0  0  0  0  0  0  0  0  0  0  0  0
   -3.2085    1.8948    3.6787 H   0  0  0  0  0  0  0  0  0  0  0  0
   -3.0007    1.4665    1.1994 H   0  0  0  0  0  0  0  0  0  0  0  0
   -1.3888    3.8390    2.3147 H   0  0  0  0  0  0  0  0  0  0  0  0
   -2.0284    3.7240    0.6708 H   0  0  0  0  0  0  0  0  0  0  0  0
   -3.1380    3.8230    2.0508 H   0  0  0  0  0  0  0  0  0  0  0  0
   -0.7390    1.2565   -0.0101 N   0  0  0  0  0  0  0  0  0  0  0  0
    0.4383    0.7557   -0.6738 C   0  0  2  0  0  0  0  0  0  0  0  0
    1.6463    1.3529    0.0392 C   0  0  0  0  0  0  0  0  0  0  0  0
    2.6513    0.7005    0.3136 O   0  0  0  0  0  0  0  0  0  0  0  0
    0.4635    1.1213   -2.1623 C   0  0  0  0  0  0  0  0  0  0  0  0
   -0.6652    0.4875   -2.9382 C   0  0  0  0  0  0  0  0  0  0  0  0
   -0.6599   -0.8464   -3.2679 N   0  3  0  0  0  0  0  0  0  0  0  0
   -1.8211    1.0128   -3.4429 C   0  0  0  0  0  0  0  0  0  0  0  0
   -1.7699   -1.1408   -3.9524 C   0  0  0  0  0  0  0  0  0  0  0  0
   -2.4848   -0.0167   -4.0656 N   0  0  0  0  0  0  0  0  0  0  0  0
   -1.5221    1.5532   -0.5874 H   0  0  0  0  0  0  0  0  0  0  0  0
    0.4387   -0.3314   -0.5313 H   0  0  0  0  0  0  0  0  0  0  0  0
    1.4254    0.8340   -2.6084 H   0  0  0  0  0  0  0  0  0  0  0  0
    0.4003    2.2100   -2.2910 H   0  0  0  0  0  0  0  0  0  0  0  0
    0.0725   -1.5102   -3.0316 H   0  0  0  0  0  0  0  0  0  0  0  0
   -2.2838    1.9795   -3.4577 H   0  0  0  0  0  0  0  0  0  0  0  0
   -2.0390   -2.1081   -4.3426 H   0  0  0  0  0  0  0  0  0  0  0  0
   -3.3799    0.0614   -4.5401 H   0  0  0  0  0  0  0  0  0  0  0  0
    1.4861    2.7094    0.2855 N   0  0  0  0  0  0  0  0  0  0  0  0
    2.4922    3.5233    0.9290 C   0  0  2  0  0  0  0  0  0  0  0  0
    2.9282    2.8121    2.2032 C   0  0  0  0  0  0  0  0  0  0  0  0
    2.2311    1.9790    2.7784 O   0  0  0  0  0  0  0  0  0  0  0  0
    1.9635    4.9155    1.2373 C   0  0  0  0  0  0  0  0  0  0  0  0
    0.6180    3.1524   -0.0009 H   0  0  0  0  0  0  0  0  0  0  0  0
    3.3389    3.5856    0.2367 H   0  0  0  0  0  0  0  0  0  0  0  0
    1.1146    4.8734    1.9295 H   0  0  0  0  0  0  0  0  0  0  0  0
    2.7356    5.5399    1.6988 H   0  0  0  0  0  0  0  0  0  0  0  0
    1.6227    5.4142    0.3235 H   0  0  0  0  0  0  0  0  0  0  0  0
    4.1689    3.2488    2.6461 N   0  0  0  0  0  0  0  0  0  0  0  0
    4.7950    2.7347    3.8418 C   0  0  0  0  0  0  0  0  0  0  0  0
    4.6848    3.9292    2.0960 H   0  0  0  0  0  0  0  0  0  0  0  0
    4.5300    3.3722    4.6982 H   0  0  0  0  0  0  0  0  0  0  0  0
    4.4449    1.7084    4.0267 H   0  0  0  0  0  0  0  0  0  0  0  0
    5.8872    2.7316    3.7112 H   0  0  0  0  0  0  0  0  0  0  0  0
 22 24  2  0  0  0  0
 24 26  1  0  0  0  0
 25 26  1  0  0  0  0
 23 25  2  0  0  0  0
 21 22  1  0  0  0  0
 22 23  1  0  0  0  0
  1  3  1  0  0  0  0
  1  7  1  0  0  0  0
  1  2  2  0  0  0  0
 36 37  1  0  0  0  0
 37 45  1  0  0  0  0
 37 38  2  0  0  0  0
  8  9  1  0  0  0  0
  9 17  1  0  0  0  0
  9 10  2  0  0  0  0
 18 19  1  0  0  0  0
 19 35  1  0  0  0  0
 19 20  2  0  0  0  0
 36 39  1  0  0  0  0
  8 11  1  0  0  0  0
 45 46  1  0  0  0  0
 18 21  1  0  0  0  0
 35 36  1  0  0  0  0
  7  8  1  0  0  0  0
 17 18  1  0  0  0  0
 24 32  1  0  0  0  0
 25 33  1  0  0  0  0
  3  4  1  0  0  0  0
  3  5  1  0  0  0  0
  3  6  1  0  0  0  0
 39 42  1  0  0  0  0
 39 43  1  0  0  0  0
 39 44  1  0  0  0  0
 11 14  1  0  0  0  0
 11 15  1  0  0  0  0
 11 16  1  0  0  0  0
 46 48  1  0  0  0  0
 46 49  1  0  0  0  0
 46 50  1  0  0  0  0
 21 29  1  0  0  0  0
 21 30  1  0  0  0  0
 36 41  1  0  0  0  0
  8 13  1  0  0  0  0
 18 28  1  0  0  0  0
 26 34  1  0  0  0  0
 23 31  1  0  0  0  0
 45 47  1  0  0  0  0
  7 12  1  0  0  0  0
 35 40  1  0  0  0  0
 17 27  1  0  0  0  0
M  CHG  1  23   1
M  END
$$$$

  -OEChem-05262214473D

 50 50  0     1  0  0  0  0  0999 V2000
   -1.6938    0.4865    3.8080 C   0  0  0  0  0  0  0  0  0  0  0  0
   -0.7464   -0.1282    3.3323 O   0  0  0  0  0  0  0  0  0  0  0  0
   -2.1257    0.2041    5.2087 C   0  0  0  0  0  0  0  0  0  0  0  0
   -2.8853   -0.5922    5.2621 H   0  0  0  0  0  0  0  0  0  0  0  0
   -1.2944   -0.1435    5.8430 H   0  0  0  0  0  0  0  0  0  0  0  0
   -2.5637    1.0590    5.7483 H   0  0  0  0  0  0  0  0  0  0  0  0
   -2.4435    1.4589    3.1669 N   0  0  0  0  0  0  0  0  0  0  0  0
   -2.1966    1.8850    1.8145 C   0  0  2  0  0  0  0  0  0  0  0  0
   -0.8617    1.2996    1.3733 C   0  0  0  0  0  0  0  0  0  0  0  0
    0.0104    0.9468    2.1646 O   0  0  0  0  0  0  0  0  0  0  0  0
   -2.1879    3.4017    1.7050 C   0  0  0  0  0  0  0  0  0  0  0  0
   -3.2085    1.8948    3.6787 H   0  0  0  0  0  0  0  0  0  0  0  0
   -3.0007    1.4665    1.1994 H   0  0  0  0  0  0  0  0  0  0  0  0
   -1.3888    3.8390    2.3147 H   0  0  0  0  0  0  0  0  0  0  0  0
   -2.0284    3.7240    0.6708 H   0  0  0  0  0  0  0  0  0  0  0  0
   -3.1380    3.8230    2.0508 H   0  0  0  0  0  0  0  0  0  0  0  0
   -0.7390    1.2565   -0.0101 N   0  0  0  0  0  0  0  0  0  0  0  0
    0.4383    0.7557   -0.6738 C   0  0  2  0  0  0  0  0  0  0  0  0
    1.6463    1.3529    0.0392 C   0  0  0  0  0  0  0  0  0  0  0  0
    2.7419    0.7970    0.0793 O   0  0  0  0  0  0  0  0  0  0  0  0
    0.4635    1.1213   -2.1623 C   0  0  0  0  0  0  0  0  0  0  0  0
   -0.6652    0.4875   -2.9382 C   0  0  0  0  0  0  0  0  0  0  0  0
   -0.6599   -0.8464   -3.2679 N   0  3  0  0  0  0  0  0  0  0  0  0
   -1.8211    1.0128   -3.4429 C   0  0  0  0  0  0  0  0  0  0  0  0
   -1.7699   -1.1408   -3.9524 C   0  0  0  0  0  0  0  0  0  0  0  0
   -2.4848   -0.0167   -4.0656 N   0  0  0  0  0  0  0  0  0  0  0  0
   -1.5221    1.5532   -0.5874 H   0  0  0  0  0  0  0  0  0  0  0  0
    0.4387   -0.3314   -0.5313 H   0  0  0  0  0  0  0  0  0  0  0  0
    1.4254    0.8340   -2.6084 H   0  0  0  0  0  0  0  0  0  0  0  0
    0.4003    2.2100   -2.2910 H   0  0  0  0  0  0  0  0  0  0  0  0
    0.0725   -1.5102   -3.0316 H   0  0  0  0  0  0  0  0  0  0  0  0
   -2.2838    1.9795   -3.4577 H   0  0  0  0  0  0  0  0  0  0  0  0
   -2.0390   -2.1081   -4.3426 H   0  0  0  0  0  0  0  0  0  0  0  0
   -3.3799    0.0614   -4.5401 H   0  0  0  0  0  0  0  0  0  0  0  0
    1.3664    2.6002    0.5798 N   0  0  0  0  0  0  0  0  0  0  0  0
    2.3431    3.3951    1.2889 C   0  0  2  0  0  0  0  0  0  0  0  0
    2.9975    2.5084    2.3401 C   0  0  0  0  0  0  0  0  0  0  0  0
    2.4668    1.4932    2.7859 O   0  0  0  0  0  0  0  0  0  0  0  0
    1.7026    4.6163    1.9301 C   0  0  0  0  0  0  0  0  0  0  0  0
    0.4277    2.9731    0.4717 H   0  0  0  0  0  0  0  0  0  0  0  0
    3.0933    3.7046    0.5531 H   0  0  0  0  0  0  0  0  0  0  0  0
    0.9480    4.3260    2.6703 H   0  0  0  0  0  0  0  0  0  0  0  0
    2.4485    5.2325    2.4427 H   0  0  0  0  0  0  0  0  0  0  0  0
    1.2069    5.2374    1.1763 H   0  0  0  0  0  0  0  0  0  0  0  0
    4.2247    3.0077    2.7535 N   0  0  0  0  0  0  0  0  0  0  0  0
    5.0360    2.3531    3.7531 C   0  0  0  0  0  0  0  0  0  0  0  0
    4.5962    3.8458    2.3160 H   0  0  0  0  0  0  0  0  0  0  0  0
    4.8016    2.7671    4.7449 H   0  0  0  0  0  0  0  0  0  0  0  0
    4.8248    1.2736    3.7473 H   0  0  0  0  0  0  0  0  0  0  0  0
    6.0998    2.5198    3.5284 H   0  0  0  0  0  0  0  0  0  0  0  0
 22 24  2  0  0  0  0
 24 26  1  0  0  0  0
 25 26  1  0  0  0  0
 23 25  2  0  0  0  0
 21 22  1  0  0  0  0
 22 23  1  0  0  0  0
  1  3  1  0  0  0  0
  1  7  1  0  0  0  0
  1  2  2  0  0  0  0
 36 37  1  0  0  0  0
 37 45  1  0  0  0  0
 37 38  2  0  0  0  0
  8  9  1  0  0  0  0
  9 17  1  0  0  0  0
  9 10  2  0  0  0  0
 18 19  1  0  0  0  0
 19 35  1  0  0  0  0
 19 20  2  0  0  0  0
 36 39  1  0  0  0  0
  8 11  1  0  0  0  0
 45 46  1  0  0  0  0
 18 21  1  0  0  0  0
 35 36  1  0  0  0  0
  7  8  1  0  0  0  0
 17 18  1  0  0  0  0
 24 32  1  0  0  0  0
 25 33  1  0  0  0  0
  3  4  1  0  0  0  0
  3  5  1  0  0  0  0
  3  6  1  0  0  0  0
 39 42  1  0  0  0  0
 39 43  1  0  0  0  0
 39 44  1  0  0  0  0
 11 14  1  0  0  0  0
 11 15  1  0  0  0  0
 11 16  1  0  0  0  0
 46 48  1  0  0  0  0
 46 49  1  0  0  0  0
 46 50  1  0  0  0  0
 21 29  1  0  0  0  0
 21 30  1  0  0  0  0
 36 41  1  0  0  0  0
  8 13  1  0  0  0  0
 18 28  1  0  0  0  0
 26 34  1  0  0  0  0
 23 31  1  0  0  0  0
 45 47  1  0  0  0  0
  7 12  1  0  0  0  0
 35 40  1  0  0  0  0
 17 27  1  0  0  0  0
M  CHG  1  23   1
M  END
$$$$

  -OEChem-05262214473D

 50 50  0     1  0  0  0  0  0999 V2000
   -1.6938    0.4865    3.8080 C   0  0  0  0  0  0  0  0  0  0  0  0
   -0.7464   -0.1282    3.3323 O   0  0  0  0  0  0  0  0  0  0  0  0
   -2.1257    0.2041    5.2087 C   0  0  0  0  0  0  0  0  0  0  0  0
   -2.8853   -0.5922    5.2621 H   0  0  0  0  0  0  0  0  0  0  0  0
   -1.2944   -0.1435    5.8430 H   0  0  0  0  0  0  0  0  0  0  0  0
   -2.5637    1.0590    5.7483 H   0  0  0  0  0  0  0  0  0  0  0  0
   -2.4435    1.4589    3.1669 N   0  0  0  0  0  0  0  0  0  0  0  0
   -2.1966    1.8850    1.8145 C   0  0  2  0  0  0  0  0  0  0  0  0
   -0.8617    1.2996    1.3733 C   0  0  0  0  0  0  0  0  0  0  0  0
    0.0104    0.9468    2.1646 O   0  0  0  0  0  0  0  0  0  0  0  0
   -2.1879    3.4017    1.7050 C   0  0  0  0  0  0  0  0  0  0  0  0
   -3.2085    1.8948    3.6787 H   0  0  0  0  0  0  0  0  0  0  0  0
   -3.0007    1.4665    1.1994 H   0  0  0  0  0  0  0  0  0  0  0  0
   -1.3888    3.8390    2.3147 H   0  0  0  0  0  0  0  0  0  0  0  0
   -2.0284    3.7240    0.6708 H   0  0  0  0  0  0  0  0  0  0  0  0
   -3.1380    3.8230    2.0508 H   0  0  0  0  0  0  0  0  0  0  0  0
   -0.7390    1.2565   -0.0101 N   0  0  0  0  0  0  0  0  0  0  0  0
    0.4383    0.7557   -0.6738 C   0  0  2  0  0  0  0  0  0  0  0  0
    1.6463    1.3529    0.0392 C   0  0  0  0  0  0  0  0  0  0  0  0
    2.7940    0.9492   -0.1365 O   0  0  0  0  0  0  0  0  0  0  0  0
    0.4635    1.1213   -2.1623 C   0  0  0  0  0  0  0  0  0  0  0  0
   -0.6652    0.4875   -2.9382 C   0  0  0  0  0  0  0  0  0  0  0  0
   -0.6599   -0.8464   -3.2679 N   0  3  0  0  0  0  0  0  0  0  0  0
   -1.8211    1.0128   -3.4429 C   0  0  0  0  0  0  0  0  0  0  0  0
   -1.7699   -1.1408   -3.9524 C   0  0  0  0  0  0  0  0  0  0  0  0
   -2.4848   -0.0167   -4.0656 N   0  0  0  0  0  0  0  0  0  0  0  0
   -1.5221    1.5532   -0.5874 H   0  0  0  0  0  0  0  0  0  0  0  0
    0.4387   -0.3314   -0.5313 H   0  0  0  0  0  0  0  0  0  0  0  0
    1.4254    0.8340   -2.6084 H   0  0  0  0  0  0  0  0  0  0  0  0
    0.4003    2.2100   -2.2910 H   0  0  0  0  0  0  0  0  0  0  0  0
    0.0725   -1.5102   -3.0316 H   0  0  0  0  0  0  0  0  0  0  0  0
   -2.2838    1.9795   -3.4577 H   0  0  0  0  0  0  0  0  0  0  0  0
   -2.0390   -2.1081   -4.3426 H   0  0  0  0  0  0  0  0  0  0  0  0
   -3.3799    0.0614   -4.5401 H   0  0  0  0  0  0  0  0  0  0  0  0
    1.2938    2.4199    0.8539 N   0  0  0  0  0  0  0  0  0  0  0  0
    2.2512    3.1794    1.6253 C   0  0  2  0  0  0  0  0  0  0  0  0
    3.1150    2.1954    2.4032 C   0  0  0  0  0  0  0  0  0  0  0  0
    2.7540    1.0509    2.6696 O   0  0  0  0  0  0  0  0  0  0  0  0
    1.5570    4.1535    2.5644 C   0  0  0  0  0  0  0  0  0  0  0  0
    0.3135    2.6800    0.9107 H   0  0  0  0  0  0  0  0  0  0  0  0
    2.8738    3.7251    0.9080 H   0  0  0  0  0  0  0  0  0  0  0  0
    0.9285    3.6252    3.2906 H   0  0  0  0  0  0  0  0  0  0  0  0
    2.2838    4.7482    3.1274 H   0  0  0  0  0  0  0  0  0  0  0  0
    0.9130    4.8414    2.0059 H   0  0  0  0  0  0  0  0  0  0  0  0
    4.3187    2.7596    2.8020 N   0  0  0  0  0  0  0  0  0  0  0  0
    5.3059    2.0319    3.5648 C   0  0  0  0  0  0  0  0  0  0  0  0
    4.5430    3.7094    2.5204 H   0  0  0  0  0  0  0  0  0  0  0  0
    5.1419    2.2059    4.6385 H   0  0  0  0  0  0  0  0  0  0  0  0
    5.2160    0.9569    3.3497 H   0  0  0  0  0  0  0  0  0  0  0  0
    6.3123    2.3785    3.2869 H   0  0  0  0  0  0  0  0  0  0  0  0
 22 24  2  0  0  0  0
 24 26  1  0  0  0  0
 25 26  1  0  0  0  0
 23 25  2  0  0  0  0
 21 22  1  0  0  0  0
 22 23  1  0  0  0  0
  1  3  1  0  0  0  0
  1  7  1  0  0  0  0
  1  2  2  0  0  0  0
 36 37  1  0  0  0  0
 37 45  1  0  0  0  0
 37 38  2  0  0  0  0
  8  9  1  0  0  0  0
  9 17  1  0  0  0  0
  9 10  2  0  0  0  0
 18 19  1  0  0  0  0
 19 35  1  0  0  0  0
 19 20  2  0  0  0  0
 36 39  1  0  0  0  0
  8 11  1  0  0  0  0
 45 46  1  0  0  0  0
 18 21  1  0  0  0  0
 35 36  1  0  0  0  0
  7  8  1  0  0  0  0
 17 18  1  0  0  0  0
 24 32  1  0  0  0  0
 25 33  1  0  0  0  0
  3  4  1  0  0  0  0
  3  5  1  0  0  0  0
  3  6  1  0  0  0  0
 39 42  1  0  0  0  0
 39 43  1  0  0  0  0
 39 44  1  0  0  0  0
 11 14  1  0  0  0  0
 11 15  1  0  0  0  0
 11 16  1  0  0  0  0
 46 48  1  0  0  0  0
 46 49  1  0  0  0  0
 46 50  1  0  0  0  0
 21 29  1  0  0  0  0
 21 30  1  0  0  0  0
 36 41  1  0  0  0  0
  8 13  1  0  0  0  0
 18 28  1  0  0  0  0
 26 34  1  0  0  0  0
 23 31  1  0  0  0  0
 45 47  1  0  0  0  0
  7 12  1  0  0  0  0
 35 40  1  0  0  0  0
 17 27  1  0  0  0  0
M  CHG  1  23   1
M  END
$$$$

  -OEChem-05262214473D

 50 50  0     1  0  0  0  0  0999 V2000
   -1.6938    0.4865    3.8080 C   0  0  0  0  0  0  0  0  0  0  0  0
   -0.7464   -0.1282    3.3323 O   0  0  0  0  0  0  0  0  0  0  0  0
   -2.1257    0.2041    5.2087 C   0  0  0  0  0  0  0  0  0  0  0  0
   -2.8853   -0.5922    5.2621 H   0  0  0  0  0  0  0  0  0  0  0  0
   -1.2944   -0.1435    5.8430 H   0  0  0  0  0  0  0  0  0  0  0  0
   -2.5637    1.0590    5.7483 H   0  0  0  0  0  0  0  0  0  0  0  0
   -2.4435    1.4589    3.1669 N   0  0  0  0  0  0  0  0  0  0  0  0
   -2.1966    1.8850    1.8145 C   0  0  2  0  0  0  0  0  0  0  0  0
   -0.8617    1.2996    1.3733 C   0  0  0  0  0  0  0  0  0  0  0  0
    0.0104    0.9468    2.1646 O   0  0  0  0  0  0  0  0  0  0  0  0
   -2.1879    3.4017    1.7050 C   0  0  0  0  0  0  0  0  0  0  0  0
   -3.2085    1.8948    3.6787 H   0  0  0  0  0  0  0  0  0  0  0  0
   -3.0007    1.4665    1.1994 H   0  0  0  0  0  0  0  0  0  0  0  0
   -1.3888    3.8390    2.3147 H   0  0  0  0  0  0  0  0  0  0  0  0
   -2.0284    3.7240    0.6708 H   0  0  0  0  0  0  0  0  0  0  0  0
   -3.1380    3.8230    2.0508 H   0  0  0  0  0  0  0  0  0  0  0  0
   -0.7390    1.2565   -0.0101 N   0  0  0  0  0  0  0  0  0  0  0  0
    0.4383    0.7557   -0.6738 C   0  0  2  0  0  0  0  0  0  0  0  0
    1.6463    1.3529    0.0392 C   0  0  0  0  0  0  0  0  0  0  0  0
    2.8040    1.1468   -0.3190 O   0  0  0  0  0  0  0  0  0  0  0  0
    0.4635    1.1213   -2.1623 C   0  0  0  0  0  0  0  0  0  0  0  0
   -0.6652    0.4875   -2.9382 C   0  0  0  0  0  0  0  0  0  0  0  0
   -0.6599   -0.8464   -3.2679 N   0  3  0  0  0  0  0  0  0  0  0  0
   -1.8211    1.0128   -3.4429 C   0  0  0  0  0  0  0  0  0  0  0  0
   -1.7699   -1.1408   -3.9524 C   0  0  0  0  0  0  0  0  0  0  0  0
   -2.4848   -0.0167   -4.0656 N   0  0  0  0  0  0  0  0  0  0  0  0
   -1.5221    1.5532   -0.5874 H   0  0  0  0  0  0  0  0  0  0  0  0
    0.4387   -0.3314   -0.5313 H   0  0  0  0  0  0  0  0  0  0  0  0
    1.4254    0.8340   -2.6084 H   0  0  0  0  0  0  0  0  0  0  0  0
    0.4003    2.2100   -2.2910 H   0  0  0  0  0  0  0  0  0  0  0  0
    0.0725   -1.5102   -3.0316 H   0  0  0  0  0  0  0  0  0  0  0  0
   -2.2838    1.9795   -3.4577 H   0  0  0  0  0  0  0  0  0  0  0  0
   -2.0390   -2.1081   -4.3426 H   0  0  0  0  0  0  0  0  0  0  0  0
   -3.3799    0.0614   -4.5401 H   0  0  0  0  0  0  0  0  0  0  0  0
    1.2733    2.1807    1.0889 N   0  0  0  0  0  0  0  0  0  0  0  0
    2.2226    2.8909    1.9154 C   0  0  2  0  0  0  0  0  0  0  0  0
    3.2729    1.8943    2.3879 C   0  0  0  0  0  0  0  0  0  0  0  0
    3.0732    0.6824    2.4375 O   0  0  0  0  0  0  0  0  0  0  0  0
    1.5366    3.5589    3.0970 C   0  0  0  0  0  0  0  0  0  0  0  0
    0.2832    2.2930    1.2863 H   0  0  0  0  0  0  0  0  0  0  0  0
    2.6953    3.6454    1.2772 H   0  0  0  0  0  0  0  0  0  0  0  0
    1.0573    2.8186    3.7479 H   0  0  0  0  0  0  0  0  0  0  0  0
    2.2528    4.1201    3.7062 H   0  0  0  0  0  0  0  0  0  0  0  0
    0.7612    4.2532    2.7559 H   0  0  0  0  0  0  0  0  0  0  0  0
    4.4444    2.5213    2.7886 N   0  0  0  0  0  0  0  0  0  0  0  0
    5.5865    1.7929    3.2896 C   0  0  0  0  0  0  0  0  0  0  0  0
    4.5289    3.5292    2.6952 H   0  0  0  0  0  0  0  0  0  0  0  0
    5.5277    1.7268    4.3860 H   0  0  0  0  0  0  0  0  0  0  0  0
    5.5919    0.7798    2.8610 H   0  0  0  0  0  0  0  0  0  0  0  0
    6.5101    2.3172    3.0030 H   0  0  0  0  0  0  0  0  0  0  0  0
 22 24  2  0  0  0  0
 24 26  1  0  0  0  0
 25 26  1  0  0  0  0
 23 25  2  0  0  0  0
 21 22  1  0  0  0  0
 22 23  1  0  0  0  0
  1  3  1  0  0  0  0
  1  7  1  0  0  0  0
  1  2  2  0  0  0  0
 36 37  1  0  0  0  0
 37 45  1  0  0  0  0
 37 38  2  0  0  0  0
  8  9  1  0  0  0  0
  9 17  1  0  0  0  0
  9 10  2  0  0  0  0
 18 19  1  0  0  0  0
 19 35  1  0  0  0  0
 19 20  2  0  0  0  0
 36 39  1  0  0  0  0
  8 11  1  0  0  0  0
 45 46  1  0  0  0  0
 18 21  1  0  0  0  0
 35 36  1  0  0  0  0
  7  8  1  0  0  0  0
 17 18  1  0  0  0  0
 24 32  1  0  0  0  0
 25 33  1  0  0  0  0
  3  4  1  0  0  0  0
  3  5  1  0  0  0  0
  3  6  1  0  0  0  0
 39 42  1  0  0  0  0
 39 43  1  0  0  0  0
 39 44  1  0  0  0  0
 11 14  1  0  0  0  0
 11 15  1  0  0  0  0
 11 16  1  0  0  0  0
 46 48  1  0  0  0  0
 46 49  1  0  0  0  0
 46 50  1  0  0  0  0
 21 29  1  0  0  0  0
 21 30  1  0  0  0  0
 36 41  1  0  0  0  0
  8 13  1  0  0  0  0
 18 28  1  0  0  0  0
 26 34  1  0  0  0  0
 23 31  1  0  0  0  0
 45 47  1  0  0  0  0
  7 12  1  0  0  0  0
 35 40  1  0  0  0  0
 17 27  1  0  0  0  0
M  CHG  1  23   1
M  END
$$$$

  -OEChem-05262214473D

 50 50  0     1  0  0  0  0  0999 V2000
   -1.6938    0.4865    3.8080 C   0  0  0  0  0  0  0  0  0  0  0  0
   -0.7464   -0.1282    3.3323 O   0  0  0  0  0  0  0  0  0  0  0  0
   -2.1257    0.2041    5.2087 C   0  0  0  0  0  0  0  0  0  0  0  0
   -2.8853   -0.5922    5.2621 H   0  0  0  0  0  0  0  0  0  0  0  0
   -1.2944   -0.1435    5.8430 H   0  0  0  0  0  0  0  0  0  0  0  0
   -2.5637    1.0590    5.7483 H   0  0  0  0  0  0  0  0  0  0  0  0
   -2.4435    1.4589    3.1669 N   0  0  0  0  0  0  0  0  0  0  0  0
   -2.1966    1.8850    1.8145 C   0  0  2  0  0  0  0  0  0  0  0  0
   -0.8617    1.2996    1.3733 C   0  0  0  0  0  0  0  0  0  0  0  0
    0.0104    0.9468    2.1646 O   0  0  0  0  0  0  0  0  0  0  0  0
   -2.1879    3.4017    1.7050 C   0  0  0  0  0  0  0  0  0  0  0  0
   -3.2085    1.8948    3.6787 H   0  0  0  0  0  0  0  0  0  0  0  0
   -3.0007    1.4665    1.1994 H   0  0  0  0  0  0  0  0  0  0  0  0
   -1.3888    3.8390    2.3147 H   0  0  0  0  0  0  0  0  0  0  0  0
   -2.0284    3.7240    0.6708 H   0  0  0  0  0  0  0  0  0  0  0  0
   -3.1380    3.8230    2.0508 H   0  0  0  0  0  0  0  0  0  0  0  0
   -0.7390    1.2565   -0.0101 N   0  0  0  0  0  0  0  0  0  0  0  0
    0.4383    0.7557   -0.6738 C   0  0  2  0  0  0  0  0  0  0  0  0
    1.6463    1.3529    0.0392 C   0  0  0  0  0  0  0  0  0  0  0  0
    2.7712    1.3764   -0.4558 O   0  0  0  0  0  0  0  0  0  0  0  0
    0.4635    1.1213   -2.1623 C   0  0  0  0  0  0  0  0  0  0  0  0
   -0.6652    0.4875   -2.9382 C   0  0  0  0  0  0  0  0  0  0  0  0
   -0.6599   -0.8464   -3.2679 N   0  3  0  0  0  0  0  0  0  0  0  0
   -1.8211    1.0128   -3.4429 C   0  0  0  0  0  0  0  0  0  0  0  0
   -1.7699   -1.1408   -3.9524 C   0  0  0  0  0  0  0  0  0  0  0  0
   -2.4848   -0.0167   -4.0656 N   0  0  0  0  0  0  0  0  0  0  0  0
   -1.5221    1.5532   -0.5874 H   0  0  0  0  0  0  0  0  0  0  0  0
    0.4387   -0.3314   -0.5313 H   0  0  0  0  0  0  0  0  0  0  0  0
    1.4254    0.8340   -2.6084 H   0  0  0  0  0  0  0  0  0  0  0  0
    0.4003    2.2100   -2.2910 H   0  0  0  0  0  0  0  0  0  0  0  0
    0.0725   -1.5102   -3.0316 H   0  0  0  0  0  0  0  0  0  0  0  0
   -2.2838    1.9795   -3.4577 H   0  0  0  0  0  0  0  0  0  0  0  0
   -2.0390   -2.1081   -4.3426 H   0  0  0  0  0  0  0  0  0  0  0  0
   -3.3799    0.0614   -4.5401 H   0  0  0  0  0  0  0  0  0  0  0  0
    1.3063    1.8990    1.2690 N   0  0  0  0  0  0  0  0  0  0  0  0
    2.2593    2.5493    2.1394 C   0  0  2  0  0  0  0  0  0  0  0  0
    3.4602    1.6257    2.2955 C   0  0  0  0  0  0  0  0  0  0  0  0
    3.4026    0.4126    2.1053 O   0  0  0  0  0  0  0  0  0  0  0  0
    1.6430    2.8728    3.4915 C   0  0  0  0  0  0  0  0  0  0  0  0
    0.3388    1.8385    1.5727 H   0  0  0  0  0  0  0  0  0  0  0  0
    2.5699    3.4712    1.6356 H   0  0  0  0  0  0  0  0  0  0  0  0
    1.3257    1.9613    4.0112 H   0  0  0  0  0  0  0  0  0  0  0  0
    2.3575    3.3910    4.1395 H   0  0  0  0  0  0  0  0  0  0  0  0
    0.7618    3.5129    3.3750 H   0  0  0  0  0  0  0  0  0  0  0  0
    4.5933    2.3092    2.7140 N   0  0  0  0  0  0  0  0  0  0  0  0
    5.8585    1.6524    2.9463 C   0  0  0  0  0  0  0  0  0  0  0  0
    4.5547    3.3177    2.8286 H   0  0  0  0  0  0  0  0  0  0  0  0
    5.9328    1.3624    4.0048 H   0  0  0  0  0  0  0  0  0  0  0  0
    5.9269    0.7545    2.3146 H   0  0  0  0  0  0  0  0  0  0  0  0
    6.6798    2.3401    2.6962 H   0  0  0  0  0  0  0  0  0  0  0  0
 22 24  2  0  0  0  0
 24 26  1  0  0  0  0
 25 26  1  0  0  0  0
 23 25  2  0  0  0  0
 21 22  1  0  0  0  0
 22 23  1  0  0  0  0
  1  3  1  0  0  0  0
  1  7  1  0  0  0  0
  1  2  2  0  0  0  0
 36 37  1  0  0  0  0
 37 45  1  0  0  0  0
 37 38  2  0  0  0  0
  8  9  1  0  0  0  0
  9 17  1  0  0  0  0
  9 10  2  0  0  0  0
 18 19  1  0  0  0  0
 19 35  1  0  0  0  0
 19 20  2  0  0  0  0
 36 39  1  0  0  0  0
  8 11  1  0  0  0  0
 45 46  1  0  0  0  0
 18 21  1  0  0  0  0
 35 36  1  0  0  0  0
  7  8  1  0  0  0  0
 17 18  1  0  0  0  0
 24 32  1  0  0  0  0
 25 33  1  0  0  0  0
  3  4  1  0  0  0  0
  3  5  1  0  0  0  0
  3  6  1  0  0  0  0
 39 42  1  0  0  0  0
 39 43  1  0  0  0  0
 39 44  1  0  0  0  0
 11 14  1  0  0  0  0
 11 15  1  0  0  0  0
 11 16  1  0  0  0  0
 46 48  1  0  0  0  0
 46 49  1  0  0  0  0
 46 50  1  0  0  0  0
 21 29  1  0  0  0  0
 21 30  1  0  0  0  0
 36 41  1  0  0  0  0
  8 13  1  0  0  0  0
 18 28  1  0  0  0  0
 26 34  1  0  0  0  0
 23 31  1  0  0  0  0
 45 47  1  0  0  0  0
  7 12  1  0  0  0  0
 35 40  1  0  0  0  0
 17 27  1  0  0  0  0
M  CHG  1  23   1
M  END
$$$$

  -OEChem-05262214473D

 50 50  0     1  0  0  0  0  0999 V2000
   -1.6938    0.4865    3.8080 C   0  0  0  0  0  0  0  0  0  0  0  0
   -0.7464   -0.1282    3.3323 O   0  0  0  0  0  0  0  0  0  0  0  0
   -2.1257    0.2041    5.2087 C   0  0  0  0  0  0  0  0  0  0  0  0
   -2.8853   -0.5922    5.2621 H   0  0  0  0  0  0  0  0  0  0  0  0
   -1.2944   -0.1435    5.8430 H   0  0  0  0  0  0  0  0  0  0  0  0
   -2.5637    1.0590    5.7483 H   0  0  0  0  0  0  0  0  0  0  0  0
   -2.4435    1.4589    3.1669 N   0  0  0  0  0  0  0  0  0  0  0  0
   -2.1966    1.8850    1.8145 C   0  0  2  0  0  0  0  0  0  0  0  0
   -0.8617    1.2996    1.3733 C   0  0  0  0  0  0  0  0  0  0  0  0
    0.0104    0.9468    2.1646 O   0  0  0  0  0  0  0  0  0  0  0  0
   -2.1879    3.4017    1.7050 C   0  0  0  0  0  0  0  0  0  0  0  0
   -3.2085    1.8948    3.6787 H   0  0  0  0  0  0  0  0  0  0  0  0
   -3.0007    1.4665    1.1994 H   0  0  0  0  0  0  0  0  0  0  0  0
   -1.3888    3.8390    2.3147 H   0  0  0  0  0  0  0  0  0  0  0  0
   -2.0284    3.7240    0.6708 H   0  0  0  0  0  0  0  0  0  0  0  0
   -3.1380    3.8230    2.0508 H   0  0  0  0  0  0  0  0  0  0  0  0
   -0.7390    1.2565   -0.0101 N   0  0  0  0  0  0  0  0  0  0  0  0
    0.4383    0.7557   -0.6738 C   0  0  2  0  0  0  0  0  0  0  0  0
    1.6463    1.3529    0.0392 C   0  0  0  0  0  0  0  0  0  0  0  0
    2.6979    1.6221   -0.5375 O   0  0  0  0  0  0  0  0  0  0  0  0
    0.4635    1.1213   -2.1623 C   0  0  0  0  0  0  0  0  0  0  0  0
   -0.6652    0.4875   -2.9382 C   0  0  0  0  0  0  0  0  0  0  0  0
   -0.6599   -0.8464   -3.2679 N   0  3  0  0  0  0  0  0  0  0  0  0
   -1.8211    1.0128   -3.4429 C   0  0  0  0  0  0  0  0  0  0  0  0
   -1.7699   -1.1408   -3.9524 C   0  0  0  0  0  0  0  0  0  0  0  0
   -2.4848   -0.0167   -4.0656 N   0  0  0  0  0  0  0  0  0  0  0  0
   -1.5221    1.5532   -0.5874 H   0  0  0  0  0  0  0  0  0  0  0  0
    0.4387   -0.3314   -0.5313 H   0  0  0  0  0  0  0  0  0  0  0  0
    1.4254    0.8340   -2.6084 H   0  0  0  0  0  0  0  0  0  0  0  0
    0.4003    2.2100   -2.2910 H   0  0  0  0  0  0  0  0  0  0  0  0
    0.0725   -1.5102   -3.0316 H   0  0  0  0  0  0  0  0  0  0  0  0
   -2.2838    1.9795   -3.4577 H   0  0  0  0  0  0  0  0  0  0  0  0
   -2.0390   -2.1081   -4.3426 H   0  0  0  0  0  0  0  0  0  0  0  0
   -3.3799    0.0614   -4.5401 H   0  0  0  0  0  0  0  0  0  0  0  0
    1.3905    1.5939    1.3819 N   0  0  0  0  0  0  0  0  0  0  0  0
    2.3588    2.1779    2.2819 C   0  0  2  0  0  0  0  0  0  0  0  0
    3.6643    1.4079    2.1320 C   0  0  0  0  0  0  0  0  0  0  0  0
    3.7198    0.2601    1.6957 O   0  0  0  0  0  0  0  0  0  0  0  0
    1.8687    2.1420    3.7211 C   0  0  0  0  0  0  0  0  0  0  0  0
    0.4766    1.3475    1.7505 H   0  0  0  0  0  0  0  0  0  0  0  0
    2.5062    3.2142    1.9588 H   0  0  0  0  0  0  0  0  0  0  0  0
    1.7154    1.1118    4.0625 H   0  0  0  0  0  0  0  0  0  0  0  0
    2.5909    2.6104    4.3979 H   0  0  0  0  0  0  0  0  0  0  0  0
    0.9147    2.6708    3.8212 H   0  0  0  0  0  0  0  0  0  0  0  0
    4.7553    2.1376    2.5833 N   0  0  0  0  0  0  0  0  0  0  0  0
    6.1035    1.6201    2.5584 C   0  0  0  0  0  0  0  0  0  0  0  0
    4.6188    3.0891    2.9114 H   0  0  0  0  0  0  0  0  0  0  0  0
    6.3295    1.1378    3.5208 H   0  0  0  0  0  0  0  0  0  0  0  0
    6.1981    0.8827    1.7477 H   0  0  0  0  0  0  0  0  0  0  0  0
    6.8099    2.4458    2.3873 H   0  0  0  0  0  0  0  0  0  0  0  0
 22 24  2  0  0  0  0
 24 26  1  0  0  0  0
 25 26  1  0  0  0  0
 23 25  2  0  0  0  0
 21 22  1  0  0  0  0
 22 23  1  0  0  0  0
  1  3  1  0  0  0  0
  1  7  1  0  0  0  0
  1  2  2  0  0  0  0
 36 37  1  0  0  0  0
 37 45  1  0  0  0  0
 37 38  2  0  0  0  0
  8  9  1  0  0  0  0
  9 17  1  0  0  0  0
  9 10  2  0  0  0  0
 18 19  1  0  0  0  0
 19 35  1  0  0  0  0
 19 20  2  0  0  0  0
 36 39  1  0  0  0  0
  8 11  1  0  0  0  0
 45 46  1  0  0  0  0
 18 21  1  0  0  0  0
 35 36  1  0  0  0  0
  7  8  1  0  0  0  0
 17 18  1  0  0  0  0
 24 32  1  0  0  0  0
 25 33  1  0  0  0  0
  3  4  1  0  0  0  0
  3  5  1  0  0  0  0
  3  6  1  0  0  0  0
 39 42  1  0  0  0  0
 39 43  1  0  0  0  0
 39 44  1  0  0  0  0
 11 14  1  0  0  0  0
 11 15  1  0  0  0  0
 11 16  1  0  0  0  0
 46 48  1  0  0  0  0
 46 49  1  0  0  0  0
 46 50  1  0  0  0  0
 21 29  1  0  0  0  0
 21 30  1  0  0  0  0
 36 41  1  0  0  0  0
  8 13  1  0  0  0  0
 18 28  1  0  0  0  0
 26 34  1  0  0  0  0
 23 31  1  0  0  0  0
 45 47  1  0  0  0  0
  7 12  1  0  0  0  0
 35 40  1  0  0  0  0
 17 27  1  0  0  0  0
M  CHG  1  23   1
M  END
$$$$

  -OEChem-05262214473D

 50 50  0     1  0  0  0  0  0999 V2000
   -1.6938    0.4865    3.8080 C   0  0  0  0  0  0  0  0  0  0  0  0
   -0.7464   -0.1282    3.3323 O   0  0  0  0  0  0  0  0  0  0  0  0
   -2.1257    0.2041    5.2087 C   0  0  0  0  0  0  0  0  0  0  0  0
   -2.8853   -0.5922    5.2621 H   0  0  0  0  0  0  0  0  0  0  0  0
   -1.2944   -0.1435    5.8430 H   0  0  0  0  0  0  0  0  0  0  0  0
   -2.5637    1.0590    5.7483 H   0  0  0  0  0  0  0  0  0  0  0  0
   -2.4435    1.4589    3.1669 N   0  0  0  0  0  0  0  0  0  0  0  0
   -2.1966    1.8850    1.8145 C   0  0  2  0  0  0  0  0  0  0  0  0
   -0.8617    1.2996    1.3733 C   0  0  0  0  0  0  0  0  0  0  0  0
    0.0104    0.9468    2.1646 O   0  0  0  0  0  0  0  0  0  0  0  0
   -2.1879    3.4017    1.7050 C   0  0  0  0  0  0  0  0  0  0  0  0
   -3.2085    1.8948    3.6787 H   0  0  0  0  0  0  0  0  0  0  0  0
   -3.0007    1.4665    1.1994 H   0  0  0  0  0  0  0  0  0  0  0  0
   -1.3888    3.8390    2.3147 H   0  0  0  0  0  0  0  0  0  0  0  0
   -2.0284    3.7240    0.6708 H   0  0  0  0  0  0  0  0  0  0  0  0
   -3.1380    3.8230    2.0508 H   0  0  0  0  0  0  0  0  0  0  0  0
   -0.7390    1.2565   -0.0101 N   0  0  0  0  0  0  0  0  0  0  0  0
    0.4383    0.7557   -0.6738 C   0  0  2  0  0  0  0  0  0  0  0  0
    1.6463    1.3529    0.0392 C   0  0  0  0  0  0  0  0  0  0  0  0
    2.5891    1.8674   -0.5585 O   0  0  0  0  0  0  0  0  0  0  0  0
    0.4635    1.1213   -2.1623 C   0  0  0  0  0  0  0  0  0  0  0  0
   -0.6652    0.4875   -2.9382 C   0  0  0  0  0  0  0  0  0  0  0  0
   -0.6599   -0.8464   -3.2679 N   0  3  0  0  0  0  0  0  0  0  0  0
   -1.8211    1.0128   -3.4429 C   0  0  0  0  0  0  0  0  0  0  0  0
   -1.7699   -1.1408   -3.9524 C   0  0  0  0  0  0  0  0  0  0  0  0
   -2.4848   -0.0167   -4.0656 N   0  0  0  0  0  0  0  0  0  0  0  0
   -1.5221    1.5532   -0.5874 H   0  0  0  0  0  0  0  0  0  0  0  0
    0.4387   -0.3314   -0.5313 H   0  0  0  0  0  0  0  0  0  0  0  0
    1.4254    0.8340   -2.6084 H   0  0  0  0  0  0  0  0  0  0  0  0
    0.4003    2.2100   -2.2910 H   0  0  0  0  0  0  0  0  0  0  0  0
    0.0725   -1.5102   -3.0316 H   0  0  0  0  0  0  0  0  0  0  0  0
   -2.2838    1.9795   -3.4577 H   0  0  0  0  0  0  0  0  0  0  0  0
   -2.0390   -2.1081   -4.3426 H   0  0  0  0  0  0  0  0  0  0  0  0
   -3.3799    0.0614   -4.5401 H   0  0  0  0  0  0  0  0  0  0  0  0
    1.5202    1.2863    1.4198 N   0  0  0  0  0  0  0  0  0  0  0  0
    2.5144    1.8019    2.3333 C   0  0  2  0  0  0  0  0  0  0  0  0
    3.8712    1.2558    1.9089 C   0  0  0  0  0  0  0  0  0  0  0  0
    4.0031    0.2351    1.2366 O   0  0  0  0  0  0  0  0  0  0  0  0
    2.1985    1.4164    3.7701 C   0  0  0  0  0  0  0  0  0  0  0  0
    0.6872    0.8534    1.8077 H   0  0  0  0  0  0  0  0  0  0  0  0
    2.5086    2.8920    2.2247 H   0  0  0  0  0  0  0  0  0  0  0  0
    2.1998    0.3278    3.8983 H   0  0  0  0  0  0  0  0  0  0  0  0
    2.9369    1.8318    4.4638 H   0  0  0  0  0  0  0  0  0  0  0  0
    1.2096    1.7845    4.0639 H   0  0  0  0  0  0  0  0  0  0  0  0
    4.9192    2.0182    2.4054 N   0  0  0  0  0  0  0  0  0  0  0  0
    6.3046    1.6980    2.1522 C   0  0  0  0  0  0  0  0  0  0  0  0
    4.7168    2.8591    2.9380 H   0  0  0  0  0  0  0  0  0  0  0  0
    6.6908    1.0680    2.9670 H   0  0  0  0  0  0  0  0  0  0  0  0
    6.3871    1.1556    1.1988 H   0  0  0  0  0  0  0  0  0  0  0  0
    6.8914    2.6269    2.0975 H   0  0  0  0  0  0  0  0  0  0  0  0
 22 24  2  0  0  0  0
 24 26  1  0  0  0  0
 25 26  1  0  0  0  0
 23 25  2  0  0  0  0
 21 22  1  0  0  0  0
 22 23  1  0  0  0  0
  1  3  1  0  0  0  0
  1  7  1  0  0  0  0
  1  2  2  0  0  0  0
 36 37  1  0  0  0  0
 37 45  1  0  0  0  0
 37 38  2  0  0  0  0
  8  9  1  0  0  0  0
  9 17  1  0  0  0  0
  9 10  2  0  0  0  0
 18 19  1  0  0  0  0
 19 35  1  0  0  0  0
 19 20  2  0  0  0  0
 36 39  1  0  0  0  0
  8 11  1  0  0  0  0
 45 46  1  0  0  0  0
 18 21  1  0  0  0  0
 35 36  1  0  0  0  0
  7  8  1  0  0  0  0
 17 18  1  0  0  0  0
 24 32  1  0  0  0  0
 25 33  1  0  0  0  0
  3  4  1  0  0  0  0
  3  5  1  0  0  0  0
  3  6  1  0  0  0  0
 39 42  1  0  0  0  0
 39 43  1  0  0  0  0
 39 44  1  0  0  0  0
 11 14  1  0  0  0  0
 11 15  1  0  0  0  0
 11 16  1  0  0  0  0
 46 48  1  0  0  0  0
 46 49  1  0  0  0  0
 46 50  1  0  0  0  0
 21 29  1  0  0  0  0
 21 30  1  0  0  0  0
 36 41  1  0  0  0  0
  8 13  1  0  0  0  0
 18 28  1  0  0  0  0
 26 34  1  0  0  0  0
 23 31  1  0  0  0  0
 45 47  1  0  0  0  0
  7 12  1  0  0  0  0
 35 40  1  0  0  0  0
 17 27  1  0  0  0  0
M  CHG  1  23   1
M  END
$$$$

  -OEChem-05262214473D

 50 50  0     1  0  0  0  0  0999 V2000
   -1.6938    0.4865    3.8080 C   0  0  0  0  0  0  0  0  0  0  0  0
   -0.7464   -0.1282    3.3323 O   0  0  0  0  0  0  0  0  0  0  0  0
   -2.1257    0.2041    5.2087 C   0  0  0  0  0  0  0  0  0  0  0  0
   -2.8853   -0.5922    5.2621 H   0  0  0  0  0  0  0  0  0  0  0  0
   -1.2944   -0.1435    5.8430 H   0  0  0  0  0  0  0  0  0  0  0  0
   -2.5637    1.0590    5.7483 H   0  0  0  0  0  0  0  0  0  0  0  0
   -2.4435    1.4589    3.1669 N   0  0  0  0  0  0  0  0  0  0  0  0
   -2.1966    1.8850    1.8145 C   0  0  2  0  0  0  0  0  0  0  0  0
   -0.8617    1.2996    1.3733 C   0  0  0  0  0  0  0  0  0  0  0  0
    0.0104    0.9468    2.1646 O   0  0  0  0  0  0  0  0  0  0  0  0
   -2.1879    3.4017    1.7050 C   0  0  0  0  0  0  0  0  0  0  0  0
   -3.2085    1.8948    3.6787 H   0  0  0  0  0  0  0  0  0  0  0  0
   -3.0007    1.4665    1.1994 H   0  0  0  0  0  0  0  0  0  0  0  0
   -1.3888    3.8390    2.3147 H   0  0  0  0  0  0  0  0  0  0  0  0
   -2.0284    3.7240    0.6708 H   0  0  0  0  0  0  0  0  0  0  0  0
   -3.1380    3.8230    2.0508 H   0  0  0  0  0  0  0  0  0  0  0  0
   -0.7390    1.2565   -0.0101 N   0  0  0  0  0  0  0  0  0  0  0  0
    0.4383    0.7557   -0.6738 C   0  0  2  0  0  0  0  0  0  0  0  0
    1.6463    1.3529    0.0392 C   0  0  0  0  0  0  0  0  0  0  0  0
    2.4522    2.0955   -0.5176 O   0  0  0  0  0  0  0  0  0  0  0  0
    0.4635    1.1213   -2.1623 C   0  0  0  0  0  0  0  0  0  0  0  0
   -0.6652    0.4875   -2.9382 C   0  0  0  0  0  0  0  0  0  0  0  0
   -0.6599   -0.8464   -3.2679 N   0  3  0  0  0  0  0  0  0  0  0  0
   -1.8211    1.0128   -3.4429 C   0  0  0  0  0  0  0  0  0  0  0  0
   -1.7699   -1.1408   -3.9524 C   0  0  0  0  0  0  0  0  0  0  0  0
   -2.4848   -0.0167   -4.0656 N   0  0  0  0  0  0  0  0  0  0  0  0
   -1.5221    1.5532   -0.5874 H   0  0  0  0  0  0  0  0  0  0  0  0
    0.4387   -0.3314   -0.5313 H   0  0  0  0  0  0  0  0  0  0  0  0
    1.4254    0.8340   -2.6084 H   0  0  0  0  0  0  0  0  0  0  0  0
    0.4003    2.2100   -2.2910 H   0  0  0  0  0  0  0  0  0  0  0  0
    0.0725   -1.5102   -3.0316 H   0  0  0  0  0  0  0  0  0  0  0  0
   -2.2838    1.9795   -3.4577 H   0  0  0  0  0  0  0  0  0  0  0  0
   -2.0390   -2.1081   -4.3426 H   0  0  0  0  0  0  0  0  0  0  0  0
   -3.3799    0.0614   -4.5401 H   0  0  0  0  0  0  0  0  0  0  0  0
    1.6865    0.9971    1.3801 N   0  0  0  0  0  0  0  0  0  0  0  0
    2.7153    1.4470    2.2900 C   0  0  2  0  0  0  0  0  0  0  0  0
    4.0669    1.1796    1.6411 C   0  0  0  0  0  0  0  0  0  0  0  0
    4.2332    0.3394    0.7593 O   0  0  0  0  0  0  0  0  0  0  0  0
    2.6099    0.7454    3.6351 C   0  0  0  0  0  0  0  0  0  0  0  0
    0.9561    0.3899    1.7401 H   0  0  0  0  0  0  0  0  0  0  0  0
    2.5768    2.5265    2.4152 H   0  0  0  0  0  0  0  0  0  0  0  0
    2.7460   -0.3372    3.5298 H   0  0  0  0  0  0  0  0  0  0  0  0
    3.3721    1.1080    4.3326 H   0  0  0  0  0  0  0  0  0  0  0  0
    1.6263    0.9143    4.0868 H   0  0  0  0  0  0  0  0  0  0  0  0
    5.0740    1.9592    2.1925 N   0  0  0  0  0  0  0  0  0  0  0  0
    6.4483    1.8810    1.7554 C   0  0  0  0  0  0  0  0  0  0  0  0
    4.8420    2.6434    2.9066 H   0  0  0  0  0  0  0  0  0  0  0  0
    6.9921    1.1579    2.3811 H   0  0  0  0  0  0  0  0  0  0  0  0
    6.4810    1.5546    0.7055 H   0  0  0  0  0  0  0  0  0  0  0  0
    6.9188    2.8711    1.8464 H   0  0  0  0  0  0  0  0  0  0  0  0
 22 24  2  0  0  0  0
 24 26  1  0  0  0  0
 25 26  1  0  0  0  0
 23 25  2  0  0  0  0
 21 22  1  0  0  0  0
 22 23  1  0  0  0  0
  1  3  1  0  0  0  0
  1  7  1  0  0  0  0
  1  2  2  0  0  0  0
 36 37  1  0  0  0  0
 37 45  1  0  0  0  0
 37 38  2  0  0  0  0
  8  9  1  0  0  0  0
  9 17  1  0  0  0  0
  9 10  2  0  0  0  0
 18 19  1  0  0  0  0
 19 35  1  0  0  0  0
 19 20  2  0  0  0  0
 36 39  1  0  0  0  0
  8 11  1  0  0  0  0
 45 46  1  0  0  0  0
 18 21  1  0  0  0  0
 35 36  1  0  0  0  0
  7  8  1  0  0  0  0
 17 18  1  0  0  0  0
 24 32  1  0  0  0  0
 25 33  1  0  0  0  0
  3  4  1  0  0  0  0
  3  5  1  0  0  0  0
  3  6  1  0  0  0  0
 39 42  1  0  0  0  0
 39 43  1  0  0  0  0
 39 44  1  0  0  0  0
 11 14  1  0  0  0  0
 11 15  1  0  0  0  0
 11 16  1  0  0  0  0
 46 48  1  0  0  0  0
 46 49  1  0  0  0  0
 46 50  1  0  0  0  0
 21 29  1  0  0  0  0
 21 30  1  0  0  0  0
 36 41  1  0  0  0  0
  8 13  1  0  0  0  0
 18 28  1  0  0  0  0
 26 34  1  0  0  0  0
 23 31  1  0  0  0  0
 45 47  1  0  0  0  0
  7 12  1  0  0  0  0
 35 40  1  0  0  0  0
 17 27  1  0  0  0  0
M  CHG  1  23   1
M  END
$$$$

  -OEChem-05262214473D

 50 50  0     1  0  0  0  0  0999 V2000
   -1.6938    0.4865    3.8080 C   0  0  0  0  0  0  0  0  0  0  0  0
   -0.7464   -0.1282    3.3323 O   0  0  0  0  0  0  0  0  0  0  0  0
   -2.1257    0.2041    5.2087 C   0  0  0  0  0  0  0  0  0  0  0  0
   -2.8853   -0.5922    5.2621 H   0  0  0  0  0  0  0  0  0  0  0  0
   -1.2944   -0.1435    5.8430 H   0  0  0  0  0  0  0  0  0  0  0  0
   -2.5637    1.0590    5.7483 H   0  0  0  0  0  0  0  0  0  0  0  0
   -2.4435    1.4589    3.1669 N   0  0  0  0  0  0  0  0  0  0  0  0
   -2.1966    1.8850    1.8145 C   0  0  2  0  0  0  0  0  0  0  0  0
   -0.8617    1.2996    1.3733 C   0  0  0  0  0  0  0  0  0  0  0  0
    0.0104    0.9468    2.1646 O   0  0  0  0  0  0  0  0  0  0  0  0
   -2.1879    3.4017    1.7050 C   0  0  0  0  0  0  0  0  0  0  0  0
   -3.2085    1.8948    3.6787 H   0  0  0  0  0  0  0  0  0  0  0  0
   -3.0007    1.4665    1.1994 H   0  0  0  0  0  0  0  0  0  0  0  0
   -1.3888    3.8390    2.3147 H   0  0  0  0  0  0  0  0  0  0  0  0
   -2.0284    3.7240    0.6708 H   0  0  0  0  0  0  0  0  0  0  0  0
   -3.1380    3.8230    2.0508 H   0  0  0  0  0  0  0  0  0  0  0  0
   -0.7390    1.2565   -0.0101 N   0  0  0  0  0  0  0  0  0  0  0  0
    0.4383    0.7557   -0.6738 C   0  0  2  0  0  0  0  0  0  0  0  0
    1.6463    1.3529    0.0392 C   0  0  0  0  0  0  0  0  0  0  0  0
    2.2965    2.2909   -0.4173 O   0  0  0  0  0  0  0  0  0  0  0  0
    0.4635    1.1213   -2.1623 C   0  0  0  0  0  0  0  0  0  0  0  0
   -0.6652    0.4875   -2.9382 C   0  0  0  0  0  0  0  0  0  0  0  0
   -0.6599   -0.8464   -3.2679 N   0  3  0  0  0  0  0  0  0  0  0  0
   -1.8211    1.0128   -3.4429 C   0  0  0  0  0  0  0  0  0  0  0  0
   -1.7699   -1.1408   -3.9524 C   0  0  0  0  0  0  0  0  0  0  0  0
   -2.4848   -0.0167   -4.0656 N   0  0  0  0  0  0  0  0  0  0  0  0
   -1.5221    1.5532   -0.5874 H   0  0  0  0  0  0  0  0  0  0  0  0
    0.4387   -0.3314   -0.5313 H   0  0  0  0  0  0  0  0  0  0  0  0
    1.4254    0.8340   -2.6084 H   0  0  0  0  0  0  0  0  0  0  0  0
    0.4003    2.2100   -2.2910 H   0  0  0  0  0  0  0  0  0  0  0  0
    0.0725   -1.5102   -3.0316 H   0  0  0  0  0  0  0  0  0  0  0  0
   -2.2838    1.9795   -3.4577 H   0  0  0  0  0  0  0  0  0  0  0  0
   -2.0390   -2.1081   -4.3426 H   0  0  0  0  0  0  0  0  0  0  0  0
   -3.3799    0.0614   -4.5401 H   0  0  0  0  0  0  0  0  0  0  0  0
    1.8782    0.7460    1.2657 N   0  0  0  0  0  0  0  0  0  0  0  0
    2.9480    1.1374    2.1551 C   0  0  2  0  0  0  0  0  0  0  0  0
    4.2380    1.1847    1.3470 C   0  0  0  0  0  0  0  0  0  0  0  0
    4.3944    0.5659    0.2964 O   0  0  0  0  0  0  0  0  0  0  0  0
    3.0747    0.1747    3.3255 C   0  0  0  0  0  0  0  0  0  0  0  0
    1.2652   -0.0114    1.5526 H   0  0  0  0  0  0  0  0  0  0  0  0
    2.7063    2.1426    2.5174 H   0  0  0  0  0  0  0  0  0  0  0  0
    3.3167   -0.8378    2.9821 H   0  0  0  0  0  0  0  0  0  0  0  0
    3.8668    0.4885    4.0134 H   0  0  0  0  0  0  0  0  0  0  0  0
    2.1365    0.1194    3.8881 H   0  0  0  0  0  0  0  0  0  0  0  0
    5.2091    1.9647    1.9591 N   0  0  0  0  0  0  0  0  0  0  0  0
    6.5248    2.1565    1.3951 C   0  0  0  0  0  0  0  0  0  0  0  0
    4.9859    2.4565    2.8193 H   0  0  0  0  0  0  0  0  0  0  0  0
    7.2128    1.4014    1.8031 H   0  0  0  0  0  0  0  0  0  0  0  0
    6.4734    2.0526    0.3012 H   0  0  0  0  0  0  0  0  0  0  0  0
    6.8903    3.1619    1.6511 H   0  0  0  0  0  0  0  0  0  0  0  0
 22 24  2  0  0  0  0
 24 26  1  0  0  0  0
 25 26  1  0  0  0  0
 23 25  2  0  0  0  0
 21 22  1  0  0  0  0
 22 23  1  0  0  0  0
  1  3  1  0  0  0  0
  1  7  1  0  0  0  0
  1  2  2  0  0  0  0
 36 37  1  0  0  0  0
 37 45  1  0  0  0  0
 37 38  2  0  0  0  0
  8  9  1  0  0  0  0
  9 17  1  0  0  0  0
  9 10  2  0  0  0  0
 18 19  1  0  0  0  0
 19 35  1  0  0  0  0
 19 20  2  0  0  0  0
 36 39  1  0  0  0  0
  8 11  1  0  0  0  0
 45 46  1  0  0  0  0
 18 21  1  0  0  0  0
 35 36  1  0  0  0  0
  7  8  1  0  0  0  0
 17 18  1  0  0  0  0
 24 32  1  0  0  0  0
 25 33  1  0  0  0  0
  3  4  1  0  0  0  0
  3  5  1  0  0  0  0
  3  6  1  0  0  0  0
 39 42  1  0  0  0  0
 39 43  1  0  0  0  0
 39 44  1  0  0  0  0
 11 14  1  0  0  0  0
 11 15  1  0  0  0  0
 11 16  1  0  0  0  0
 46 48  1  0  0  0  0
 46 49  1  0  0  0  0
 46 50  1  0  0  0  0
 21 29  1  0  0  0  0
 21 30  1  0  0  0  0
 36 41  1  0  0  0  0
  8 13  1  0  0  0  0
 18 28  1  0  0  0  0
 26 34  1  0  0  0  0
 23 31  1  0  0  0  0
 45 47  1  0  0  0  0
  7 12  1  0  0  0  0
 35 40  1  0  0  0  0
 17 27  1  0  0  0  0
M  CHG  1  23   1
M  END
$$$$

  -OEChem-05262214473D

 50 50  0     1  0  0  0  0  0999 V2000
   -1.6938    0.4865    3.8080 C   0  0  0  0  0  0  0  0  0  0  0  0
   -0.7464   -0.1282    3.3323 O   0  0  0  0  0  0  0  0  0  0  0  0
   -2.1257    0.2041    5.2087 C   0  0  0  0  0  0  0  0  0  0  0  0
   -2.8853   -0.5922    5.2621 H   0  0  0  0  0  0  0  0  0  0  0  0
   -1.2944   -0.1435    5.8430 H   0  0  0  0  0  0  0  0  0  0  0  0
   -2.5637    1.0590    5.7483 H   0  0  0  0  0  0  0  0  0  0  0  0
   -2.4435    1.4589    3.1669 N   0  0  0  0  0  0  0  0  0  0  0  0
   -2.1966    1.8850    1.8145 C   0  0  2  0  0  0  0  0  0  0  0  0
   -0.8617    1.2996    1.3733 C   0  0  0  0  0  0  0  0  0  0  0  0
    0.0104    0.9468    2.1646 O   0  0  0  0  0  0  0  0  0  0  0  0
   -2.1879    3.4017    1.7050 C   0  0  0  0  0  0  0  0  0  0  0  0
   -3.2085    1.8948    3.6787 H   0  0  0  0  0  0  0  0  0  0  0  0
   -3.0007    1.4665    1.1994 H   0  0  0  0  0  0  0  0  0  0  0  0
   -1.3888    3.8390    2.3147 H   0  0  0  0  0  0  0  0  0  0  0  0
   -2.0284    3.7240    0.6708 H   0  0  0  0  0  0  0  0  0  0  0  0
   -3.1380    3.8230    2.0508 H   0  0  0  0  0  0  0  0  0  0  0  0
   -0.7390    1.2565   -0.0101 N   0  0  0  0  0  0  0  0  0  0  0  0
    0.4383    0.7557   -0.6738 C   0  0  2  0  0  0  0  0  0  0  0  0
    1.6463    1.3529    0.0392 C   0  0  0  0  0  0  0  0  0  0  0  0
    2.1326    2.4401   -0.2647 O   0  0  0  0  0  0  0  0  0  0  0  0
    0.4635    1.1213   -2.1623 C   0  0  0  0  0  0  0  0  0  0  0  0
   -0.6652    0.4875   -2.9382 C   0  0  0  0  0  0  0  0  0  0  0  0
   -0.6599   -0.8464   -3.2679 N   0  3  0  0  0  0  0  0  0  0  0  0
   -1.8211    1.0128   -3.4429 C   0  0  0  0  0  0  0  0  0  0  0  0
   -1.7699   -1.1408   -3.9524 C   0  0  0  0  0  0  0  0  0  0  0  0
   -2.4848   -0.0167   -4.0656 N   0  0  0  0  0  0  0  0  0  0  0  0
   -1.5221    1.5532   -0.5874 H   0  0  0  0  0  0  0  0  0  0  0  0
    0.4387   -0.3314   -0.5313 H   0  0  0  0  0  0  0  0  0  0  0  0
    1.4254    0.8340   -2.6084 H   0  0  0  0  0  0  0  0  0  0  0  0
    0.4003    2.2100   -2.2910 H   0  0  0  0  0  0  0  0  0  0  0  0
    0.0725   -1.5102   -3.0316 H   0  0  0  0  0  0  0  0  0  0  0  0
   -2.2838    1.9795   -3.4577 H   0  0  0  0  0  0  0  0  0  0  0  0
   -2.0390   -2.1081   -4.3426 H   0  0  0  0  0  0  0  0  0  0  0  0
   -3.3799    0.0614   -4.5401 H   0  0  0  0  0  0  0  0  0  0  0  0
    2.0821    0.5501    1.0842 N   0  0  0  0  0  0  0  0  0  0  0  0
    3.1965    0.8942    1.9377 C   0  0  2  0  0  0  0  0  0  0  0  0
    4.3728    1.2705    1.0466 C   0  0  0  0  0  0  0  0  0  0  0  0
    4.4758    0.8991   -0.1207 O   0  0  0  0  0  0  0  0  0  0  0  0
    3.5614   -0.2568    2.8622 C   0  0  0  0  0  0  0  0  0  0  0  0
    1.5932   -0.3231    1.2578 H   0  0  0  0  0  0  0  0  0  0  0  0
    2.8881    1.7665    2.5242 H   0  0  0  0  0  0  0  0  0  0  0  0
    3.8730   -1.1399    2.2926 H   0  0  0  0  0  0  0  0  0  0  0  0
    4.3872    0.0154    3.5279 H   0  0  0  0  0  0  0  0  0  0  0  0
    2.7053   -0.5458    3.4814 H   0  0  0  0  0  0  0  0  0  0  0  0
    5.3152    2.0341    1.7211 N   0  0  0  0  0  0  0  0  0  0  0  0
    6.5288    2.5057    1.0958 C   0  0  0  0  0  0  0  0  0  0  0  0
    5.1386    2.3114    2.6822 H   0  0  0  0  0  0  0  0  0  0  0  0
    7.3380    1.7819    1.2723 H   0  0  0  0  0  0  0  0  0  0  0  0
    6.3648    2.6156    0.0137 H   0  0  0  0  0  0  0  0  0  0  0  0
    6.8078    3.4793    1.5251 H   0  0  0  0  0  0  0  0  0  0  0  0
 22 24  2  0  0  0  0
 24 26  1  0  0  0  0
 25 26  1  0  0  0  0
 23 25  2  0  0  0  0
 21 22  1  0  0  0  0
 22 23  1  0  0  0  0
  1  3  1  0  0  0  0
  1  7  1  0  0  0  0
  1  2  2  0  0  0  0
 36 37  1  0  0  0  0
 37 45  1  0  0  0  0
 37 38  2  0  0  0  0
  8  9  1  0  0  0  0
  9 17  1  0  0  0  0
  9 10  2  0  0  0  0
 18 19  1  0  0  0  0
 19 35  1  0  0  0  0
 19 20  2  0  0  0  0
 36 39  1  0  0  0  0
  8 11  1  0  0  0  0
 45 46  1  0  0  0  0
 18 21  1  0  0  0  0
 35 36  1  0  0  0  0
  7  8  1  0  0  0  0
 17 18  1  0  0  0  0
 24 32  1  0  0  0  0
 25 33  1  0  0  0  0
  3  4  1  0  0  0  0
  3  5  1  0  0  0  0
  3  6  1  0  0  0  0
 39 42  1  0  0  0  0
 39 43  1  0  0  0  0
 39 44  1  0  0  0  0
 11 14  1  0  0  0  0
 11 15  1  0  0  0  0
 11 16  1  0  0  0  0
 46 48  1  0  0  0  0
 46 49  1  0  0  0  0
 46 50  1  0  0  0  0
 21 29  1  0  0  0  0
 21 30  1  0  0  0  0
 36 41  1  0  0  0  0
  8 13  1  0  0  0  0
 18 28  1  0  0  0  0
 26 34  1  0  0  0  0
 23 31  1  0  0  0  0
 45 47  1  0  0  0  0
  7 12  1  0  0  0  0
 35 40  1  0  0  0  0
 17 27  1  0  0  0  0
M  CHG  1  23   1
M  END
$$$$

  -OEChem-05262214473D

 50 50  0     1  0  0  0  0  0999 V2000
   -1.6938    0.4865    3.8080 C   0  0  0  0  0  0  0  0  0  0  0  0
   -0.7464   -0.1282    3.3323 O   0  0  0  0  0  0  0  0  0  0  0  0
   -2.1257    0.2041    5.2087 C   0  0  0  0  0  0  0  0  0  0  0  0
   -2.8853   -0.5922    5.2621 H   0  0  0  0  0  0  0  0  0  0  0  0
   -1.2944   -0.1435    5.8430 H   0  0  0  0  0  0  0  0  0  0  0  0
   -2.5637    1.0590    5.7483 H   0  0  0  0  0  0  0  0  0  0  0  0
   -2.4435    1.4589    3.1669 N   0  0  0  0  0  0  0  0  0  0  0  0
   -2.1966    1.8850    1.8145 C   0  0  2  0  0  0  0  0  0  0  0  0
   -0.8617    1.2996    1.3733 C   0  0  0  0  0  0  0  0  0  0  0  0
    0.0104    0.9468    2.1646 O   0  0  0  0  0  0  0  0  0  0  0  0
   -2.1879    3.4017    1.7050 C   0  0  0  0  0  0  0  0  0  0  0  0
   -3.2085    1.8948    3.6787 H   0  0  0  0  0  0  0  0  0  0  0  0
   -3.0007    1.4665    1.1994 H   0  0  0  0  0  0  0  0  0  0  0  0
   -1.3888    3.8390    2.3147 H   0  0  0  0  0  0  0  0  0  0  0  0
   -2.0284    3.7240    0.6708 H   0  0  0  0  0  0  0  0  0  0  0  0
   -3.1380    3.8230    2.0508 H   0  0  0  0  0  0  0  0  0  0  0  0
   -0.7390    1.2565   -0.0101 N   0  0  0  0  0  0  0  0  0  0  0  0
    0.4383    0.7557   -0.6738 C   0  0  2  0  0  0  0  0  0  0  0  0
    1.6463    1.3529    0.0392 C   0  0  0  0  0  0  0  0  0  0  0  0
    1.9717    2.5332   -0.0700 O   0  0  0  0  0  0  0  0  0  0  0  0
    0.4635    1.1213   -2.1623 C   0  0  0  0  0  0  0  0  0  0  0  0
   -0.6652    0.4875   -2.9382 C   0  0  0  0  0  0  0  0  0  0  0  0
   -0.6599   -0.8464   -3.2679 N   0  3  0  0  0  0  0  0  0  0  0  0
   -1.8211    1.0128   -3.4429 C   0  0  0  0  0  0  0  0  0  0  0  0
   -1.7699   -1.1408   -3.9524 C   0  0  0  0  0  0  0  0  0  0  0  0
   -2.4848   -0.0167   -4.0656 N   0  0  0  0  0  0  0  0  0  0  0  0
   -1.5221    1.5532   -0.5874 H   0  0  0  0  0  0  0  0  0  0  0  0
    0.4387   -0.3314   -0.5313 H   0  0  0  0  0  0  0  0  0  0  0  0
    1.4254    0.8340   -2.6084 H   0  0  0  0  0  0  0  0  0  0  0  0
    0.4003    2.2100   -2.2910 H   0  0  0  0  0  0  0  0  0  0  0  0
    0.0725   -1.5102   -3.0316 H   0  0  0  0  0  0  0  0  0  0  0  0
   -2.2838    1.9795   -3.4577 H   0  0  0  0  0  0  0  0  0  0  0  0
   -2.0390   -2.1081   -4.3426 H   0  0  0  0  0  0  0  0  0  0  0  0
   -3.3799    0.0614   -4.5401 H   0  0  0  0  0  0  0  0  0  0  0  0
    2.2844    0.4228    0.8481 N   0  0  0  0  0  0  0  0  0  0  0  0
    3.4440    0.7339    1.6527 C   0  0  2  0  0  0  0  0  0  0  0  0
    4.4622    1.4314    0.7604 C   0  0  0  0  0  0  0  0  0  0  0  0
    4.4718    1.3164   -0.4635 O   0  0  0  0  0  0  0  0  0  0  0  0
    4.0368   -0.5197    2.2769 C   0  0  0  0  0  0  0  0  0  0  0  0
    1.9180   -0.5241    0.8759 H   0  0  0  0  0  0  0  0  0  0  0  0
    3.1100    1.4239    2.4353 H   0  0  0  0  0  0  0  0  0  0  0  0
    4.3770   -1.2231    1.5082 H   0  0  0  0  0  0  0  0  0  0  0  0
    4.8979   -0.2790    2.9091 H   0  0  0  0  0  0  0  0  0  0  0  0
    3.2941   -1.0361    2.8946 H   0  0  0  0  0  0  0  0  0  0  0  0
    5.3852    2.1629    1.4946 N   0  0  0  0  0  0  0  0  0  0  0  0
    6.4600    2.9049    0.8780 C   0  0  0  0  0  0  0  0  0  0  0  0
    5.2897    2.2178    2.5044 H   0  0  0  0  0  0  0  0  0  0  0  0
    7.3590    2.2734    0.8250 H   0  0  0  0  0  0  0  0  0  0  0  0
    6.1626    3.2052   -0.1376 H   0  0  0  0  0  0  0  0  0  0  0  0
    6.6769    3.8018    1.4768 H   0  0  0  0  0  0  0  0  0  0  0  0
 22 24  2  0  0  0  0
 24 26  1  0  0  0  0
 25 26  1  0  0  0  0
 23 25  2  0  0  0  0
 21 22  1  0  0  0  0
 22 23  1  0  0  0  0
  1  3  1  0  0  0  0
  1  7  1  0  0  0  0
  1  2  2  0  0  0  0
 36 37  1  0  0  0  0
 37 45  1  0  0  0  0
 37 38  2  0  0  0  0
  8  9  1  0  0  0  0
  9 17  1  0  0  0  0
  9 10  2  0  0  0  0
 18 19  1  0  0  0  0
 19 35  1  0  0  0  0
 19 20  2  0  0  0  0
 36 39  1  0  0  0  0
  8 11  1  0  0  0  0
 45 46  1  0  0  0  0
 18 21  1  0  0  0  0
 35 36  1  0  0  0  0
  7  8  1  0  0  0  0
 17 18  1  0  0  0  0
 24 32  1  0  0  0  0
 25 33  1  0  0  0  0
  3  4  1  0  0  0  0
  3  5  1  0  0  0  0
  3  6  1  0  0  0  0
 39 42  1  0  0  0  0
 39 43  1  0  0  0  0
 39 44  1  0  0  0  0
 11 14  1  0  0  0  0
 11 15  1  0  0  0  0
 11 16  1  0  0  0  0
 46 48  1  0  0  0  0
 46 49  1  0  0  0  0
 46 50  1  0  0  0  0
 21 29  1  0  0  0  0
 21 30  1  0  0  0  0
 36 41  1  0  0  0  0
  8 13  1  0  0  0  0
 18 28  1  0  0  0  0
 26 34  1  0  0  0  0
 23 31  1  0  0  0  0
 45 47  1  0  0  0  0
  7 12  1  0  0  0  0
 35 40  1  0  0  0  0
 17 27  1  0  0  0  0
M  CHG  1  23   1
M  END
$$$$

  -OEChem-05262214473D

 50 50  0     1  0  0  0  0  0999 V2000
   -1.6938    0.4865    3.8080 C   0  0  0  0  0  0  0  0  0  0  0  0
   -0.7464   -0.1282    3.3323 O   0  0  0  0  0  0  0  0  0  0  0  0
   -2.1257    0.2041    5.2087 C   0  0  0  0  0  0  0  0  0  0  0  0
   -2.8853   -0.5922    5.2621 H   0  0  0  0  0  0  0  0  0  0  0  0
   -1.2944   -0.1435    5.8430 H   0  0  0  0  0  0  0  0  0  0  0  0
   -2.5637    1.0590    5.7483 H   0  0  0  0  0  0  0  0  0  0  0  0
   -2.4435    1.4589    3.1669 N   0  0  0  0  0  0  0  0  0  0  0  0
   -2.1966    1.8850    1.8145 C   0  0  2  0  0  0  0  0  0  0  0  0
   -0.8617    1.2996    1.3733 C   0  0  0  0  0  0  0  0  0  0  0  0
    0.0104    0.9468    2.1646 O   0  0  0  0  0  0  0  0  0  0  0  0
   -2.1879    3.4017    1.7050 C   0  0  0  0  0  0  0  0  0  0  0  0
   -3.2085    1.8948    3.6787 H   0  0  0  0  0  0  0  0  0  0  0  0
   -3.0007    1.4665    1.1994 H   0  0  0  0  0  0  0  0  0  0  0  0
   -1.3888    3.8390    2.3147 H   0  0  0  0  0  0  0  0  0  0  0  0
   -2.0284    3.7240    0.6708 H   0  0  0  0  0  0  0  0  0  0  0  0
   -3.1380    3.8230    2.0508 H   0  0  0  0  0  0  0  0  0  0  0  0
   -0.7390    1.2565   -0.0101 N   0  0  0  0  0  0  0  0  0  0  0  0
    0.4383    0.7557   -0.6738 C   0  0  2  0  0  0  0  0  0  0  0  0
    1.6463    1.3529    0.0392 C   0  0  0  0  0  0  0  0  0  0  0  0
    1.8247    2.5637    0.1535 O   0  0  0  0  0  0  0  0  0  0  0  0
    0.4635    1.1213   -2.1623 C   0  0  0  0  0  0  0  0  0  0  0  0
   -0.6652    0.4875   -2.9382 C   0  0  0  0  0  0  0  0  0  0  0  0
   -0.6599   -0.8464   -3.2679 N   0  3  0  0  0  0  0  0  0  0  0  0
   -1.8211    1.0128   -3.4429 C   0  0  0  0  0  0  0  0  0  0  0  0
   -1.7699   -1.1408   -3.9524 C   0  0  0  0  0  0  0  0  0  0  0  0
   -2.4848   -0.0167   -4.0656 N   0  0  0  0  0  0  0  0  0  0  0  0
   -1.5221    1.5532   -0.5874 H   0  0  0  0  0  0  0  0  0  0  0  0
    0.4387   -0.3314   -0.5313 H   0  0  0  0  0  0  0  0  0  0  0  0
    1.4254    0.8340   -2.6084 H   0  0  0  0  0  0  0  0  0  0  0  0
    0.4003    2.2100   -2.2910 H   0  0  0  0  0  0  0  0  0  0  0  0
    0.0725   -1.5102   -3.0316 H   0  0  0  0  0  0  0  0  0  0  0  0
   -2.2838    1.9795   -3.4577 H   0  0  0  0  0  0  0  0  0  0  0  0
   -2.0390   -2.1081   -4.3426 H   0  0  0  0  0  0  0  0  0  0  0  0
   -3.3799    0.0614   -4.5401 H   0  0  0  0  0  0  0  0  0  0  0  0
    2.4713    0.3728    0.5733 N   0  0  0  0  0  0  0  0  0  0  0  0
    3.6735    0.6675    1.3194 C   0  0  2  0  0  0  0  0  0  0  0  0
    4.5000    1.6563    0.5078 C   0  0  0  0  0  0  0  0  0  0  0  0
    4.3827    1.7892   -0.7086 O   0  0  0  0  0  0  0  0  0  0  0  0
    4.4685   -0.5960    1.6095 C   0  0  0  0  0  0  0  0  0  0  0  0
    2.2173   -0.6006    0.4329 H   0  0  0  0  0  0  0  0  0  0  0  0
    3.3568    1.1380    2.2566 H   0  0  0  0  0  0  0  0  0  0  0  0
    4.7944   -1.0815    0.6823 H   0  0  0  0  0  0  0  0  0  0  0  0
    5.3641   -0.3747    2.1992 H   0  0  0  0  0  0  0  0  0  0  0  0
    3.8626   -1.3181    2.1674 H   0  0  0  0  0  0  0  0  0  0  0  0
    5.4143    2.3422    1.2952 N   0  0  0  0  0  0  0  0  0  0  0  0
    6.3231    3.3269    0.7564 C   0  0  0  0  0  0  0  0  0  0  0  0
    5.4291    2.1822    2.2982 H   0  0  0  0  0  0  0  0  0  0  0  0
    7.2745    2.8424    0.4916 H   0  0  0  0  0  0  0  0  0  0  0  0
    5.8806    3.7813   -0.1423 H   0  0  0  0  0  0  0  0  0  0  0  0
    6.5065    4.1074    1.5096 H   0  0  0  0  0  0  0  0  0  0  0  0
 22 24  2  0  0  0  0
 24 26  1  0  0  0  0
 25 26  1  0  0  0  0
 23 25  2  0  0  0  0
 21 22  1  0  0  0  0
 22 23  1  0  0  0  0
  1  3  1  0  0  0  0
  1  7  1  0  0  0  0
  1  2  2  0  0  0  0
 36 37  1  0  0  0  0
 37 45  1  0  0  0  0
 37 38  2  0  0  0  0
  8  9  1  0  0  0  0
  9 17  1  0  0  0  0
  9 10  2  0  0  0  0
 18 19  1  0  0  0  0
 19 35  1  0  0  0  0
 19 20  2  0  0  0  0
 36 39  1  0  0  0  0
  8 11  1  0  0  0  0
 45 46  1  0  0  0  0
 18 21  1  0  0  0  0
 35 36  1  0  0  0  0
  7  8  1  0  0  0  0
 17 18  1  0  0  0  0
 24 32  1  0  0  0  0
 25 33  1  0  0  0  0
  3  4  1  0  0  0  0
  3  5  1  0  0  0  0
  3  6  1  0  0  0  0
 39 42  1  0  0  0  0
 39 43  1  0  0  0  0
 39 44  1  0  0  0  0
 11 14  1  0  0  0  0
 11 15  1  0  0  0  0
 11 16  1  0  0  0  0
 46 48  1  0  0  0  0
 46 49  1  0  0  0  0
 46 50  1  0  0  0  0
 21 29  1  0  0  0  0
 21 30  1  0  0  0  0
 36 41  1  0  0  0  0
  8 13  1  0  0  0  0
 18 28  1  0  0  0  0
 26 34  1  0  0  0  0
 23 31  1  0  0  0  0
 45 47  1  0  0  0  0
  7 12  1  0  0  0  0
 35 40  1  0  0  0  0
 17 27  1  0  0  0  0
M  CHG  1  23   1
M  END
$$$$

  -OEChem-05262214473D

 50 50  0     1  0  0  0  0  0999 V2000
   -1.6938    0.4865    3.8080 C   0  0  0  0  0  0  0  0  0  0  0  0
   -0.7464   -0.1282    3.3323 O   0  0  0  0  0  0  0  0  0  0  0  0
   -2.1257    0.2041    5.2087 C   0  0  0  0  0  0  0  0  0  0  0  0
   -2.8853   -0.5922    5.2621 H   0  0  0  0  0  0  0  0  0  0  0  0
   -1.2944   -0.1435    5.8430 H   0  0  0  0  0  0  0  0  0  0  0  0
   -2.5637    1.0590    5.7483 H   0  0  0  0  0  0  0  0  0  0  0  0
   -2.4435    1.4589    3.1669 N   0  0  0  0  0  0  0  0  0  0  0  0
   -2.1966    1.8850    1.8145 C   0  0  2  0  0  0  0  0  0  0  0  0
   -0.8617    1.2996    1.3733 C   0  0  0  0  0  0  0  0  0  0  0  0
    0.0104    0.9468    2.1646 O   0  0  0  0  0  0  0  0  0  0  0  0
   -2.1879    3.4017    1.7050 C   0  0  0  0  0  0  0  0  0  0  0  0
   -3.2085    1.8948    3.6787 H   0  0  0  0  0  0  0  0  0  0  0  0
   -3.0007    1.4665    1.1994 H   0  0  0  0  0  0  0  0  0  0  0  0
   -1.3888    3.8390    2.3147 H   0  0  0  0  0  0  0  0  0  0  0  0
   -2.0284    3.7240    0.6708 H   0  0  0  0  0  0  0  0  0  0  0  0
   -3.1380    3.8230    2.0508 H   0  0  0  0  0  0  0  0  0  0  0  0
   -0.7390    1.2565   -0.0101 N   0  0  0  0  0  0  0  0  0  0  0  0
    0.4383    0.7557   -0.6738 C   0  0  2  0  0  0  0  0  0  0  0  0
    1.6463    1.3529    0.0392 C   0  0  0  0  0  0  0  0  0  0  0  0
    1.7018    2.5295    0.3905 O   0  0  0  0  0  0  0  0  0  0  0  0
    0.4635    1.1213   -2.1623 C   0  0  0  0  0  0  0  0  0  0  0  0
   -0.6652    0.4875   -2.9382 C   0  0  0  0  0  0  0  0  0  0  0  0
   -0.6599   -0.8464   -3.2679 N   0  3  0  0  0  0  0  0  0  0  0  0
   -1.8211    1.0128   -3.4429 C   0  0  0  0  0  0  0  0  0  0  0  0
   -1.7699   -1.1408   -3.9524 C   0  0  0  0  0  0  0  0  0  0  0  0
   -2.4848   -0.0167   -4.0656 N   0  0  0  0  0  0  0  0  0  0  0  0
   -1.5221    1.5532   -0.5874 H   0  0  0  0  0  0  0  0  0  0  0  0
    0.4387   -0.3314   -0.5313 H   0  0  0  0  0  0  0  0  0  0  0  0
    1.4254    0.8340   -2.6084 H   0  0  0  0  0  0  0  0  0  0  0  0
    0.4003    2.2100   -2.2910 H   0  0  0  0  0  0  0  0  0  0  0  0
    0.0725   -1.5102   -3.0316 H   0  0  0  0  0  0  0  0  0  0  0  0
   -2.2838    1.9795   -3.4577 H   0  0  0  0  0  0  0  0  0  0  0  0
   -2.0390   -2.1081   -4.3426 H   0  0  0  0  0  0  0  0  0  0  0  0
   -3.3799    0.0614   -4.5401 H   0  0  0  0  0  0  0  0  0  0  0  0
    2.6300    0.4034    0.2788 N   0  0  0  0  0  0  0  0  0  0  0  0
    3.8695    0.6995    0.9605 C   0  0  2  0  0  0  0  0  0  0  0  0
    4.4838    1.9300    0.3062 C   0  0  0  0  0  0  0  0  0  0  0  0
    4.2146    2.2855   -0.8393 O   0  0  0  0  0  0  0  0  0  0  0  0
    4.8270   -0.4807    0.9053 C   0  0  0  0  0  0  0  0  0  0  0  0
    2.4707   -0.5474   -0.0411 H   0  0  0  0  0  0  0  0  0  0  0  0
    3.6116    0.9284    2.0003 H   0  0  0  0  0  0  0  0  0  0  0  0
    5.0967   -0.7248   -0.1287 H   0  0  0  0  0  0  0  0  0  0  0  0
    5.7541   -0.2651    1.4466 H   0  0  0  0  0  0  0  0  0  0  0  0
    4.3722   -1.3726    1.3496 H   0  0  0  0  0  0  0  0  0  0  0  0
    5.4004    2.5598    1.1364 N   0  0  0  0  0  0  0  0  0  0  0  0
    6.1276    3.7428    0.7394 C   0  0  0  0  0  0  0  0  0  0  0  0
    5.5470    2.2069    2.0775 H   0  0  0  0  0  0  0  0  0  0  0  0
    7.0902    3.4502    0.2948 H   0  0  0  0  0  0  0  0  0  0  0  0
    5.5380    4.3046   -0.0001 H   0  0  0  0  0  0  0  0  0  0  0  0
    6.3082    4.3752    1.6211 H   0  0  0  0  0  0  0  0  0  0  0  0
 22 24  2  0  0  0  0
 24 26  1  0  0  0  0
 25 26  1  0  0  0  0
 23 25  2  0  0  0  0
 21 22  1  0  0  0  0
 22 23  1  0  0  0  0
  1  3  1  0  0  0  0
  1  7  1  0  0  0  0
  1  2  2  0  0  0  0
 36 37  1  0  0  0  0
 37 45  1  0  0  0  0
 37 38  2  0  0  0  0
  8  9  1  0  0  0  0
  9 17  1  0  0  0  0
  9 10  2  0  0  0  0
 18 19  1  0  0  0  0
 19 35  1  0  0  0  0
 19 20  2  0  0  0  0
 36 39  1  0  0  0  0
  8 11  1  0  0  0  0
 45 46  1  0  0  0  0
 18 21  1  0  0  0  0
 35 36  1  0  0  0  0
  7  8  1  0  0  0  0
 17 18  1  0  0  0  0
 24 32  1  0  0  0  0
 25 33  1  0  0  0  0
  3  4  1  0  0  0  0
  3  5  1  0  0  0  0
  3  6  1  0  0  0  0
 39 42  1  0  0  0  0
 39 43  1  0  0  0  0
 39 44  1  0  0  0  0
 11 14  1  0  0  0  0
 11 15  1  0  0  0  0
 11 16  1  0  0  0  0
 46 48  1  0  0  0  0
 46 49  1  0  0  0  0
 46 50  1  0  0  0  0
 21 29  1  0  0  0  0
 21 30  1  0  0  0  0
 36 41  1  0  0  0  0
  8 13  1  0  0  0  0
 18 28  1  0  0  0  0
 26 34  1  0  0  0  0
 23 31  1  0  0  0  0
 45 47  1  0  0  0  0
  7 12  1  0  0  0  0
 35 40  1  0  0  0  0
 17 27  1  0  0  0  0
M  CHG  1  23   1
M  END
$$$$

  -OEChem-05262214473D

 50 50  0     1  0  0  0  0  0999 V2000
   -1.6938    0.4865    3.8080 C   0  0  0  0  0  0  0  0  0  0  0  0
   -0.7464   -0.1282    3.3323 O   0  0  0  0  0  0  0  0  0  0  0  0
   -2.1257    0.2041    5.2087 C   0  0  0  0  0  0  0  0  0  0  0  0
   -2.8853   -0.5922    5.2621 H   0  0  0  0  0  0  0  0  0  0  0  0
   -1.2944   -0.1435    5.8430 H   0  0  0  0  0  0  0  0  0  0  0  0
   -2.5637    1.0590    5.7483 H   0  0  0  0  0  0  0  0  0  0  0  0
   -2.4435    1.4589    3.1669 N   0  0  0  0  0  0  0  0  0  0  0  0
   -2.1966    1.8850    1.8145 C   0  0  2  0  0  0  0  0  0  0  0  0
   -0.8617    1.2996    1.3733 C   0  0  0  0  0  0  0  0  0  0  0  0
    0.0104    0.9468    2.1646 O   0  0  0  0  0  0  0  0  0  0  0  0
   -2.1879    3.4017    1.7050 C   0  0  0  0  0  0  0  0  0  0  0  0
   -3.2085    1.8948    3.6787 H   0  0  0  0  0  0  0  0  0  0  0  0
   -3.0007    1.4665    1.1994 H   0  0  0  0  0  0  0  0  0  0  0  0
   -1.3888    3.8390    2.3147 H   0  0  0  0  0  0  0  0  0  0  0  0
   -2.0284    3.7240    0.6708 H   0  0  0  0  0  0  0  0  0  0  0  0
   -3.1380    3.8230    2.0508 H   0  0  0  0  0  0  0  0  0  0  0  0
   -0.7390    1.2565   -0.0101 N   0  0  0  0  0  0  0  0  0  0  0  0
    0.4383    0.7557   -0.6738 C   0  0  2  0  0  0  0  0  0  0  0  0
    1.6463    1.3529    0.0392 C   0  0  0  0  0  0  0  0  0  0  0  0
    1.6112    2.4330    0.6248 O   0  0  0  0  0  0  0  0  0  0  0  0
    0.4635    1.1213   -2.1623 C   0  0  0  0  0  0  0  0  0  0  0  0
   -0.6652    0.4875   -2.9382 C   0  0  0  0  0  0  0  0  0  0  0  0
   -0.6599   -0.8464   -3.2679 N   0  3  0  0  0  0  0  0  0  0  0  0
   -1.8211    1.0128   -3.4429 C   0  0  0  0  0  0  0  0  0  0  0  0
   -1.7699   -1.1408   -3.9524 C   0  0  0  0  0  0  0  0  0  0  0  0
   -2.4848   -0.0167   -4.0656 N   0  0  0  0  0  0  0  0  0  0  0  0
   -1.5221    1.5532   -0.5874 H   0  0  0  0  0  0  0  0  0  0  0  0
    0.4387   -0.3314   -0.5313 H   0  0  0  0  0  0  0  0  0  0  0  0
    1.4254    0.8340   -2.6084 H   0  0  0  0  0  0  0  0  0  0  0  0
    0.4003    2.2100   -2.2910 H   0  0  0  0  0  0  0  0  0  0  0  0
    0.0725   -1.5102   -3.0316 H   0  0  0  0  0  0  0  0  0  0  0  0
   -2.2838    1.9795   -3.4577 H   0  0  0  0  0  0  0  0  0  0  0  0
   -2.0390   -2.1081   -4.3426 H   0  0  0  0  0  0  0  0  0  0  0  0
   -3.3799    0.0614   -4.5401 H   0  0  0  0  0  0  0  0  0  0  0  0
    2.7497    0.5126   -0.0155 N   0  0  0  0  0  0  0  0  0  0  0  0
    4.0185    0.8278    0.6006 C   0  0  2  0  0  0  0  0  0  0  0  0
    4.4145    2.2337    0.1692 C   0  0  0  0  0  0  0  0  0  0  0  0
    3.9789    2.7712   -0.8468 O   0  0  0  0  0  0  0  0  0  0  0  0
    5.0879   -0.1814    0.2125 C   0  0  0  0  0  0  0  0  0  0  0  0
    2.6610   -0.3681   -0.5137 H   0  0  0  0  0  0  0  0  0  0  0  0
    3.8572    0.8094    1.6840 H   0  0  0  0  0  0  0  0  0  0  0  0
    5.2633   -0.1774   -0.8695 H   0  0  0  0  0  0  0  0  0  0  0  0
    6.0412    0.0424    0.7026 H   0  0  0  0  0  0  0  0  0  0  0  0
    4.7881   -1.1958    0.4968 H   0  0  0  0  0  0  0  0  0  0  0  0
    5.3446    2.8009    1.0291 N   0  0  0  0  0  0  0  0  0  0  0  0
    5.8866    4.1244    0.8281 C   0  0  0  0  0  0  0  0  0  0  0  0
    5.6356    2.2903    1.8575 H   0  0  0  0  0  0  0  0  0  0  0  0
    6.8187    4.0553    0.2480 H   0  0  0  0  0  0  0  0  0  0  0  0
    5.1581    4.7394    0.2793 H   0  0  0  0  0  0  0  0  0  0  0  0
    6.0957    4.5870    1.8039 H   0  0  0  0  0  0  0  0  0  0  0  0
 22 24  2  0  0  0  0
 24 26  1  0  0  0  0
 25 26  1  0  0  0  0
 23 25  2  0  0  0  0
 21 22  1  0  0  0  0
 22 23  1  0  0  0  0
  1  3  1  0  0  0  0
  1  7  1  0  0  0  0
  1  2  2  0  0  0  0
 36 37  1  0  0  0  0
 37 45  1  0  0  0  0
 37 38  2  0  0  0  0
  8  9  1  0  0  0  0
  9 17  1  0  0  0  0
  9 10  2  0  0  0  0
 18 19  1  0  0  0  0
 19 35  1  0  0  0  0
 19 20  2  0  0  0  0
 36 39  1  0  0  0  0
  8 11  1  0  0  0  0
 45 46  1  0  0  0  0
 18 21  1  0  0  0  0
 35 36  1  0  0  0  0
  7  8  1  0  0  0  0
 17 18  1  0  0  0  0
 24 32  1  0  0  0  0
 25 33  1  0  0  0  0
  3  4  1  0  0  0  0
  3  5  1  0  0  0  0
  3  6  1  0  0  0  0
 39 42  1  0  0  0  0
 39 43  1  0  0  0  0
 39 44  1  0  0  0  0
 11 14  1  0  0  0  0
 11 15  1  0  0  0  0
 11 16  1  0  0  0  0
 46 48  1  0  0  0  0
 46 49  1  0  0  0  0
 46 50  1  0  0  0  0
 21 29  1  0  0  0  0
 21 30  1  0  0  0  0
 36 41  1  0  0  0  0
  8 13  1  0  0  0  0
 18 28  1  0  0  0  0
 26 34  1  0  0  0  0
 23 31  1  0  0  0  0
 45 47  1  0  0  0  0
  7 12  1  0  0  0  0
 35 40  1  0  0  0  0
 17 27  1  0  0  0  0
M  CHG  1  23   1
M  END
$$$$

  -OEChem-05262214473D

 50 50  0     1  0  0  0  0  0999 V2000
   -1.6938    0.4865    3.8080 C   0  0  0  0  0  0  0  0  0  0  0  0
   -0.7464   -0.1282    3.3323 O   0  0  0  0  0  0  0  0  0  0  0  0
   -2.1257    0.2041    5.2087 C   0  0  0  0  0  0  0  0  0  0  0  0
   -2.8853   -0.5922    5.2621 H   0  0  0  0  0  0  0  0  0  0  0  0
   -1.2944   -0.1435    5.8430 H   0  0  0  0  0  0  0  0  0  0  0  0
   -2.5637    1.0590    5.7483 H   0  0  0  0  0  0  0  0  0  0  0  0
   -2.4435    1.4589    3.1669 N   0  0  0  0  0  0  0  0  0  0  0  0
   -2.1966    1.8850    1.8145 C   0  0  2  0  0  0  0  0  0  0  0  0
   -0.8617    1.2996    1.3733 C   0  0  0  0  0  0  0  0  0  0  0  0
    0.0104    0.9468    2.1646 O   0  0  0  0  0  0  0  0  0  0  0  0
   -2.1879    3.4017    1.7050 C   0  0  0  0  0  0  0  0  0  0  0  0
   -3.2085    1.8948    3.6787 H   0  0  0  0  0  0  0  0  0  0  0  0
   -3.0007    1.4665    1.1994 H   0  0  0  0  0  0  0  0  0  0  0  0
   -1.3888    3.8390    2.3147 H   0  0  0  0  0  0  0  0  0  0  0  0
   -2.0284    3.7240    0.6708 H   0  0  0  0  0  0  0  0  0  0  0  0
   -3.1380    3.8230    2.0508 H   0  0  0  0  0  0  0  0  0  0  0  0
   -0.7390    1.2565   -0.0101 N   0  0  0  0  0  0  0  0  0  0  0  0
    0.4383    0.7557   -0.6738 C   0  0  2  0  0  0  0  0  0  0  0  0
    1.6463    1.3529    0.0392 C   0  0  0  0  0  0  0  0  0  0  0  0
    1.5591    2.2807    0.8406 O   0  0  0  0  0  0  0  0  0  0  0  0
    0.4635    1.1213   -2.1623 C   0  0  0  0  0  0  0  0  0  0  0  0
   -0.6652    0.4875   -2.9382 C   0  0  0  0  0  0  0  0  0  0  0  0
   -0.6599   -0.8464   -3.2679 N   0  3  0  0  0  0  0  0  0  0  0  0
   -1.8211    1.0128   -3.4429 C   0  0  0  0  0  0  0  0  0  0  0  0
   -1.7699   -1.1408   -3.9524 C   0  0  0  0  0  0  0  0  0  0  0  0
   -2.4848   -0.0167   -4.0656 N   0  0  0  0  0  0  0  0  0  0  0  0
   -1.5221    1.5532   -0.5874 H   0  0  0  0  0  0  0  0  0  0  0  0
    0.4387   -0.3314   -0.5313 H   0  0  0  0  0  0  0  0  0  0  0  0
    1.4254    0.8340   -2.6084 H   0  0  0  0  0  0  0  0  0  0  0  0
    0.4003    2.2100   -2.2910 H   0  0  0  0  0  0  0  0  0  0  0  0
    0.0725   -1.5102   -3.0316 H   0  0  0  0  0  0  0  0  0  0  0  0
   -2.2838    1.9795   -3.4577 H   0  0  0  0  0  0  0  0  0  0  0  0
   -2.0390   -2.1081   -4.3426 H   0  0  0  0  0  0  0  0  0  0  0  0
   -3.3799    0.0614   -4.5401 H   0  0  0  0  0  0  0  0  0  0  0  0
    2.8223    0.6930   -0.2896 N   0  0  0  0  0  0  0  0  0  0  0  0
    4.1104    1.0435    0.2641 C   0  0  2  0  0  0  0  0  0  0  0  0
    4.2969    2.5467    0.1062 C   0  0  0  0  0  0  0  0  0  0  0  0
    3.6916    3.2135   -0.7305 O   0  0  0  0  0  0  0  0  0  0  0  0
    5.2335    0.2813   -0.4218 C   0  0  0  0  0  0  0  0  0  0  0  0
    2.7752   -0.0750   -0.9527 H   0  0  0  0  0  0  0  0  0  0  0  0
    4.0767    0.7890    1.3291 H   0  0  0  0  0  0  0  0  0  0  0  0
    5.2829    0.5234   -1.4897 H   0  0  0  0  0  0  0  0  0  0  0  0
    6.2058    0.5266    0.0180 H   0  0  0  0  0  0  0  0  0  0  0  0
    5.0819   -0.7998   -0.3328 H   0  0  0  0  0  0  0  0  0  0  0  0
    5.2506    3.0490    0.9805 N   0  0  0  0  0  0  0  0  0  0  0  0
    5.6166    4.4457    1.0164 C   0  0  0  0  0  0  0  0  0  0  0  0
    5.6888    2.4267    1.6532 H   0  0  0  0  0  0  0  0  0  0  0  0
    6.4784    4.6166    0.3545 H   0  0  0  0  0  0  0  0  0  0  0  0
    4.7669    5.0561    0.6769 H   0  0  0  0  0  0  0  0  0  0  0  0
    5.8832    4.7284    2.0455 H   0  0  0  0  0  0  0  0  0  0  0  0
 22 24  2  0  0  0  0
 24 26  1  0  0  0  0
 25 26  1  0  0  0  0
 23 25  2  0  0  0  0
 21 22  1  0  0  0  0
 22 23  1  0  0  0  0
  1  3  1  0  0  0  0
  1  7  1  0  0  0  0
  1  2  2  0  0  0  0
 36 37  1  0  0  0  0
 37 45  1  0  0  0  0
 37 38  2  0  0  0  0
  8  9  1  0  0  0  0
  9 17  1  0  0  0  0
  9 10  2  0  0  0  0
 18 19  1  0  0  0  0
 19 35  1  0  0  0  0
 19 20  2  0  0  0  0
 36 39  1  0  0  0  0
  8 11  1  0  0  0  0
 45 46  1  0  0  0  0
 18 21  1  0  0  0  0
 35 36  1  0  0  0  0
  7  8  1  0  0  0  0
 17 18  1  0  0  0  0
 24 32  1  0  0  0  0
 25 33  1  0  0  0  0
  3  4  1  0  0  0  0
  3  5  1  0  0  0  0
  3  6  1  0  0  0  0
 39 42  1  0  0  0  0
 39 43  1  0  0  0  0
 39 44  1  0  0  0  0
 11 14  1  0  0  0  0
 11 15  1  0  0  0  0
 11 16  1  0  0  0  0
 46 48  1  0  0  0  0
 46 49  1  0  0  0  0
 46 50  1  0  0  0  0
 21 29  1  0  0  0  0
 21 30  1  0  0  0  0
 36 41  1  0  0  0  0
  8 13  1  0  0  0  0
 18 28  1  0  0  0  0
 26 34  1  0  0  0  0
 23 31  1  0  0  0  0
 45 47  1  0  0  0  0
  7 12  1  0  0  0  0
 35 40  1  0  0  0  0
 17 27  1  0  0  0  0
M  CHG  1  23   1
M  END
$$$$

  -OEChem-05262214473D

 50 50  0     1  0  0  0  0  0999 V2000
   -1.6938    0.4865    3.8080 C   0  0  0  0  0  0  0  0  0  0  0  0
   -0.7464   -0.1282    3.3323 O   0  0  0  0  0  0  0  0  0  0  0  0
   -2.1257    0.2041    5.2087 C   0  0  0  0  0  0  0  0  0  0  0  0
   -2.8853   -0.5922    5.2621 H   0  0  0  0  0  0  0  0  0  0  0  0
   -1.2944   -0.1435    5.8430 H   0  0  0  0  0  0  0  0  0  0  0  0
   -2.5637    1.0590    5.7483 H   0  0  0  0  0  0  0  0  0  0  0  0
   -2.4435    1.4589    3.1669 N   0  0  0  0  0  0  0  0  0  0  0  0
   -2.1966    1.8850    1.8145 C   0  0  2  0  0  0  0  0  0  0  0  0
   -0.8617    1.2996    1.3733 C   0  0  0  0  0  0  0  0  0  0  0  0
    0.0104    0.9468    2.1646 O   0  0  0  0  0  0  0  0  0  0  0  0
   -2.1879    3.4017    1.7050 C   0  0  0  0  0  0  0  0  0  0  0  0
   -3.2085    1.8948    3.6787 H   0  0  0  0  0  0  0  0  0  0  0  0
   -3.0007    1.4665    1.1994 H   0  0  0  0  0  0  0  0  0  0  0  0
   -1.3888    3.8390    2.3147 H   0  0  0  0  0  0  0  0  0  0  0  0
   -2.0284    3.7240    0.6708 H   0  0  0  0  0  0  0  0  0  0  0  0
   -3.1380    3.8230    2.0508 H   0  0  0  0  0  0  0  0  0  0  0  0
   -0.7390    1.2565   -0.0101 N   0  0  0  0  0  0  0  0  0  0  0  0
    0.4383    0.7557   -0.6738 C   0  0  2  0  0  0  0  0  0  0  0  0
    1.6248    1.0325    0.2427 C   0  0  0  0  0  0  0  0  0  0  0  0
    1.5075    1.5507    1.3511 O   0  0  0  0  0  0  0  0  0  0  0  0
    0.6562    1.4137   -2.0411 C   0  0  0  0  0  0  0  0  0  0  0  0
   -0.4494    1.1041   -3.0206 C   0  0  0  0  0  0  0  0  0  0  0  0
   -0.5563   -0.1226   -3.6304 N   0  3  0  0  0  0  0  0  0  0  0  0
   -1.4828    1.8666   -3.4870 C   0  0  0  0  0  0  0  0  0  0  0  0
   -1.6157   -0.1242   -4.4460 C   0  0  0  0  0  0  0  0  0  0  0  0
   -2.1877    1.0817   -4.3675 N   0  0  0  0  0  0  0  0  0  0  0  0
   -1.5221    1.5532   -0.5874 H   0  0  0  0  0  0  0  0  0  0  0  0
    0.3050   -0.3282   -0.7708 H   0  0  0  0  0  0  0  0  0  0  0  0
    1.6215    1.1030   -2.4633 H   0  0  0  0  0  0  0  0  0  0  0  0
    0.7262    2.5044   -1.9351 H   0  0  0  0  0  0  0  0  0  0  0  0
    0.0708   -0.9096   -3.4879 H   0  0  0  0  0  0  0  0  0  0  0  0
   -1.8329    2.8670   -3.3275 H   0  0  0  0  0  0  0  0  0  0  0  0
   -1.9475   -0.9475   -5.0562 H   0  0  0  0  0  0  0  0  0  0  0  0
   -3.0154    1.3705   -4.8813 H   0  0  0  0  0  0  0  0  0  0  0  0
    2.8195    0.5863   -0.3050 N   0  0  0  0  0  0  0  0  0  0  0  0
    4.0936    0.7044    0.3670 C   0  0  2  0  0  0  0  0  0  0  0  0
    4.2445    2.1445    0.8392 C   0  0  0  0  0  0  0  0  0  0  0  0
    3.6306    3.0832    0.3361 O   0  0  0  0  0  0  0  0  0  0  0  0
    5.2412    0.3097   -0.5494 C   0  0  0  0  0  0  0  0  0  0  0  0
    2.7973    0.1551   -1.2244 H   0  0  0  0  0  0  0  0  0  0  0  0
    4.0565    0.0369    1.2348 H   0  0  0  0  0  0  0  0  0  0  0  0
    5.2943    0.9674   -1.4247 H   0  0  0  0  0  0  0  0  0  0  0  0
    6.2032    0.3724   -0.0301 H   0  0  0  0  0  0  0  0  0  0  0  0
    5.1155   -0.7163   -0.9118 H   0  0  0  0  0  0  0  0  0  0  0  0
    5.1776    2.2641    1.8596 N   0  0  0  0  0  0  0  0  0  0  0  0
    5.5089    3.5311    2.4686 C   0  0  0  0  0  0  0  0  0  0  0  0
    5.6249    1.4298    2.2280 H   0  0  0  0  0  0  0  0  0  0  0  0
    6.3721    3.9733    1.9497 H   0  0  0  0  0  0  0  0  0  0  0  0
    4.6475    4.2109    2.3920 H   0  0  0  0  0  0  0  0  0  0  0  0
    5.7591    3.3742    3.5282 H   0  0  0  0  0  0  0  0  0  0  0  0
 22 24  2  0  0  0  0
 24 26  1  0  0  0  0
 25 26  1  0  0  0  0
 23 25  2  0  0  0  0
 21 22  1  0  0  0  0
 22 23  1  0  0  0  0
  1  3  1  0  0  0  0
  1  7  1  0  0  0  0
  1  2  2  0  0  0  0
 36 37  1  0  0  0  0
 37 45  1  0  0  0  0
 37 38  2  0  0  0  0
  8  9  1  0  0  0  0
  9 17  1  0  0  0  0
  9 10  2  0  0  0  0
 18 19  1  0  0  0  0
 19 35  1  0  0  0  0
 19 20  2  0  0  0  0
 36 39  1  0  0  0  0
  8 11  1  0  0  0  0
 45 46  1  0  0  0  0
 18 21  1  0  0  0  0
 35 36  1  0  0  0  0
  7  8  1  0  0  0  0
 17 18  1  0  0  0  0
 24 32  1  0  0  0  0
 25 33  1  0  0  0  0
  3  4  1  0  0  0  0
  3  5  1  0  0  0  0
  3  6  1  0  0  0  0
 39 42  1  0  0  0  0
 39 43  1  0  0  0  0
 39 44  1  0  0  0  0
 11 14  1  0  0  0  0
 11 15  1  0  0  0  0
 11 16  1  0  0  0  0
 46 48  1  0  0  0  0
 46 49  1  0  0  0  0
 46 50  1  0  0  0  0
 21 29  1  0  0  0  0
 21 30  1  0  0  0  0
 36 41  1  0  0  0  0
  8 13  1  0  0  0  0
 18 28  1  0  0  0  0
 26 34  1  0  0  0  0
 23 31  1  0  0  0  0
 45 47  1  0  0  0  0
  7 12  1  0  0  0  0
 35 40  1  0  0  0  0
 17 27  1  0  0  0  0
M  CHG  1  23   1
M  END
$$$$

  -OEChem-05262214473D

 50 50  0     1  0  0  0  0  0999 V2000
   -1.6938    0.4865    3.8080 C   0  0  0  0  0  0  0  0  0  0  0  0
   -0.7464   -0.1282    3.3323 O   0  0  0  0  0  0  0  0  0  0  0  0
   -2.1257    0.2041    5.2087 C   0  0  0  0  0  0  0  0  0  0  0  0
   -2.8853   -0.5922    5.2621 H   0  0  0  0  0  0  0  0  0  0  0  0
   -1.2944   -0.1435    5.8430 H   0  0  0  0  0  0  0  0  0  0  0  0
   -2.5637    1.0590    5.7483 H   0  0  0  0  0  0  0  0  0  0  0  0
   -2.4435    1.4589    3.1669 N   0  0  0  0  0  0  0  0  0  0  0  0
   -2.1966    1.8850    1.8145 C   0  0  2  0  0  0  0  0  0  0  0  0
   -0.8617    1.2996    1.3733 C   0  0  0  0  0  0  0  0  0  0  0  0
    0.0104    0.9468    2.1646 O   0  0  0  0  0  0  0  0  0  0  0  0
   -2.1879    3.4017    1.7050 C   0  0  0  0  0  0  0  0  0  0  0  0
   -3.2085    1.8948    3.6787 H   0  0  0  0  0  0  0  0  0  0  0  0
   -3.0007    1.4665    1.1994 H   0  0  0  0  0  0  0  0  0  0  0  0
   -1.3888    3.8390    2.3147 H   0  0  0  0  0  0  0  0  0  0  0  0
   -2.0284    3.7240    0.6708 H   0  0  0  0  0  0  0  0  0  0  0  0
   -3.1380    3.8230    2.0508 H   0  0  0  0  0  0  0  0  0  0  0  0
   -0.7390    1.2565   -0.0101 N   0  0  0  0  0  0  0  0  0  0  0  0
    0.4383    0.7557   -0.6738 C   0  0  2  0  0  0  0  0  0  0  0  0
    1.6248    1.0325    0.2427 C   0  0  0  0  0  0  0  0  0  0  0  0
    1.5007    1.2957    1.4369 O   0  0  0  0  0  0  0  0  0  0  0  0
    0.6562    1.4137   -2.0411 C   0  0  0  0  0  0  0  0  0  0  0  0
   -0.4494    1.1041   -3.0206 C   0  0  0  0  0  0  0  0  0  0  0  0
   -0.5563   -0.1226   -3.6304 N   0  3  0  0  0  0  0  0  0  0  0  0
   -1.4828    1.8666   -3.4870 C   0  0  0  0  0  0  0  0  0  0  0  0
   -1.6157   -0.1242   -4.4460 C   0  0  0  0  0  0  0  0  0  0  0  0
   -2.1877    1.0817   -4.3675 N   0  0  0  0  0  0  0  0  0  0  0  0
   -1.5221    1.5532   -0.5874 H   0  0  0  0  0  0  0  0  0  0  0  0
    0.3050   -0.3282   -0.7708 H   0  0  0  0  0  0  0  0  0  0  0  0
    1.6215    1.1030   -2.4633 H   0  0  0  0  0  0  0  0  0  0  0  0
    0.7262    2.5044   -1.9351 H   0  0  0  0  0  0  0  0  0  0  0  0
    0.0708   -0.9096   -3.4879 H   0  0  0  0  0  0  0  0  0  0  0  0
   -1.8329    2.8670   -3.3275 H   0  0  0  0  0  0  0  0  0  0  0  0
   -1.9475   -0.9475   -5.0562 H   0  0  0  0  0  0  0  0  0  0  0  0
   -3.0154    1.3705   -4.8813 H   0  0  0  0  0  0  0  0  0  0  0  0
    2.8363    0.9009   -0.4217 N   0  0  0  0  0  0  0  0  0  0  0  0
    4.1177    1.0866    0.2203 C   0  0  2  0  0  0  0  0  0  0  0  0
    4.0792    2.4101    0.9730 C   0  0  0  0  0  0  0  0  0  0  0  0
    3.3004    3.3189    0.6925 O   0  0  0  0  0  0  0  0  0  0  0  0
    5.2518    1.0702   -0.7927 C   0  0  0  0  0  0  0  0  0  0  0  0
    2.8215    0.6621   -1.4089 H   0  0  0  0  0  0  0  0  0  0  0  0
    4.2364    0.2636    0.9335 H   0  0  0  0  0  0  0  0  0  0  0  0
    5.1499    1.8878   -1.5157 H   0  0  0  0  0  0  0  0  0  0  0  0
    6.2241    1.1824   -0.3018 H   0  0  0  0  0  0  0  0  0  0  0  0
    5.2596    0.1295   -1.3538 H   0  0  0  0  0  0  0  0  0  0  0  0
    5.0460    2.4737    1.9667 N   0  0  0  0  0  0  0  0  0  0  0  0
    5.2201    3.6317    2.8121 C   0  0  0  0  0  0  0  0  0  0  0  0
    5.6362    1.6658    2.1421 H   0  0  0  0  0  0  0  0  0  0  0  0
    5.9724    4.3004    2.3685 H   0  0  0  0  0  0  0  0  0  0  0  0
    4.2629    4.1661    2.9034 H   0  0  0  0  0  0  0  0  0  0  0  0
    5.5572    3.3106    3.8087 H   0  0  0  0  0  0  0  0  0  0  0  0
 22 24  2  0  0  0  0
 24 26  1  0  0  0  0
 25 26  1  0  0  0  0
 23 25  2  0  0  0  0
 21 22  1  0  0  0  0
 22 23  1  0  0  0  0
  1  3  1  0  0  0  0
  1  7  1  0  0  0  0
  1  2  2  0  0  0  0
 36 37  1  0  0  0  0
 37 45  1  0  0  0  0
 37 38  2  0  0  0  0
  8  9  1  0  0  0  0
  9 17  1  0  0  0  0
  9 10  2  0  0  0  0
 18 19  1  0  0  0  0
 19 35  1  0  0  0  0
 19 20  2  0  0  0  0
 36 39  1  0  0  0  0
  8 11  1  0  0  0  0
 45 46  1  0  0  0  0
 18 21  1  0  0  0  0
 35 36  1  0  0  0  0
  7  8  1  0  0  0  0
 17 18  1  0  0  0  0
 24 32  1  0  0  0  0
 25 33  1  0  0  0  0
  3  4  1  0  0  0  0
  3  5  1  0  0  0  0
  3  6  1  0  0  0  0
 39 42  1  0  0  0  0
 39 43  1  0  0  0  0
 39 44  1  0  0  0  0
 11 14  1  0  0  0  0
 11 15  1  0  0  0  0
 11 16  1  0  0  0  0
 46 48  1  0  0  0  0
 46 49  1  0  0  0  0
 46 50  1  0  0  0  0
 21 29  1  0  0  0  0
 21 30  1  0  0  0  0
 36 41  1  0  0  0  0
  8 13  1  0  0  0  0
 18 28  1  0  0  0  0
 26 34  1  0  0  0  0
 23 31  1  0  0  0  0
 45 47  1  0  0  0  0
  7 12  1  0  0  0  0
 35 40  1  0  0  0  0
 17 27  1  0  0  0  0
M  CHG  1  23   1
M  END
$$$$

  -OEChem-05262214473D

 50 50  0     1  0  0  0  0  0999 V2000
   -1.6938    0.4865    3.8080 C   0  0  0  0  0  0  0  0  0  0  0  0
   -0.7464   -0.1282    3.3323 O   0  0  0  0  0  0  0  0  0  0  0  0
   -2.1257    0.2041    5.2087 C   0  0  0  0  0  0  0  0  0  0  0  0
   -2.8853   -0.5922    5.2621 H   0  0  0  0  0  0  0  0  0  0  0  0
   -1.2944   -0.1435    5.8430 H   0  0  0  0  0  0  0  0  0  0  0  0
   -2.5637    1.0590    5.7483 H   0  0  0  0  0  0  0  0  0  0  0  0
   -2.4435    1.4589    3.1669 N   0  0  0  0  0  0  0  0  0  0  0  0
   -2.1966    1.8850    1.8145 C   0  0  2  0  0  0  0  0  0  0  0  0
   -0.8617    1.2996    1.3733 C   0  0  0  0  0  0  0  0  0  0  0  0
    0.0104    0.9468    2.1646 O   0  0  0  0  0  0  0  0  0  0  0  0
   -2.1879    3.4017    1.7050 C   0  0  0  0  0  0  0  0  0  0  0  0
   -3.2085    1.8948    3.6787 H   0  0  0  0  0  0  0  0  0  0  0  0
   -3.0007    1.4665    1.1994 H   0  0  0  0  0  0  0  0  0  0  0  0
   -1.3888    3.8390    2.3147 H   0  0  0  0  0  0  0  0  0  0  0  0
   -2.0284    3.7240    0.6708 H   0  0  0  0  0  0  0  0  0  0  0  0
   -3.1380    3.8230    2.0508 H   0  0  0  0  0  0  0  0  0  0  0  0
   -0.7390    1.2565   -0.0101 N   0  0  0  0  0  0  0  0  0  0  0  0
    0.4383    0.7557   -0.6738 C   0  0  2  0  0  0  0  0  0  0  0  0
    1.6248    1.0325    0.2427 C   0  0  0  0  0  0  0  0  0  0  0  0
    1.5378    1.0310    1.4688 O   0  0  0  0  0  0  0  0  0  0  0  0
    0.6562    1.4137   -2.0411 C   0  0  0  0  0  0  0  0  0  0  0  0
   -0.4494    1.1041   -3.0206 C   0  0  0  0  0  0  0  0  0  0  0  0
   -0.5563   -0.1226   -3.6304 N   0  3  0  0  0  0  0  0  0  0  0  0
   -1.4828    1.8666   -3.4870 C   0  0  0  0  0  0  0  0  0  0  0  0
   -1.6157   -0.1242   -4.4460 C   0  0  0  0  0  0  0  0  0  0  0  0
   -2.1877    1.0817   -4.3675 N   0  0  0  0  0  0  0  0  0  0  0  0
   -1.5221    1.5532   -0.5874 H   0  0  0  0  0  0  0  0  0  0  0  0
    0.3050   -0.3282   -0.7708 H   0  0  0  0  0  0  0  0  0  0  0  0
    1.6215    1.1030   -2.4633 H   0  0  0  0  0  0  0  0  0  0  0  0
    0.7262    2.5044   -1.9351 H   0  0  0  0  0  0  0  0  0  0  0  0
    0.0708   -0.9096   -3.4879 H   0  0  0  0  0  0  0  0  0  0  0  0
   -1.8329    2.8670   -3.3275 H   0  0  0  0  0  0  0  0  0  0  0  0
   -1.9475   -0.9475   -5.0562 H   0  0  0  0  0  0  0  0  0  0  0  0
   -3.0154    1.3705   -4.8813 H   0  0  0  0  0  0  0  0  0  0  0  0
    2.7980    1.2309   -0.4719 N   0  0  0  0  0  0  0  0  0  0  0  0
    4.0746    1.4891    0.1545 C   0  0  2  0  0  0  0  0  0  0  0  0
    3.8845    2.6140    1.1635 C   0  0  0  0  0  0  0  0  0  0  0  0
    2.9615    3.4234    1.0997 O   0  0  0  0  0  0  0  0  0  0  0  0
    5.1322    1.8555   -0.8751 C   0  0  0  0  0  0  0  0  0  0  0  0
    2.7574    1.1928   -1.4861 H   0  0  0  0  0  0  0  0  0  0  0  0
    4.3607    0.5713    0.6796 H   0  0  0  0  0  0  0  0  0  0  0  0
    4.8629    2.7727   -1.4114 H   0  0  0  0  0  0  0  0  0  0  0  0
    6.1054    2.0229   -0.4020 H   0  0  0  0  0  0  0  0  0  0  0  0
    5.2464    1.0579   -1.6172 H   0  0  0  0  0  0  0  0  0  0  0  0
    4.8912    2.6341    2.1186 N   0  0  0  0  0  0  0  0  0  0  0  0
    4.9416    3.6147    3.1778 C   0  0  0  0  0  0  0  0  0  0  0  0
    5.6063    1.9128    2.1061 H   0  0  0  0  0  0  0  0  0  0  0  0
    5.5550    4.4698    2.8576 H   0  0  0  0  0  0  0  0  0  0  0  0
    3.9225    3.9599    3.4064 H   0  0  0  0  0  0  0  0  0  0  0  0
    5.3854    3.1612    4.0763 H   0  0  0  0  0  0  0  0  0  0  0  0
 22 24  2  0  0  0  0
 24 26  1  0  0  0  0
 25 26  1  0  0  0  0
 23 25  2  0  0  0  0
 21 22  1  0  0  0  0
 22 23  1  0  0  0  0
  1  3  1  0  0  0  0
  1  7  1  0  0  0  0
  1  2  2  0  0  0  0
 36 37  1  0  0  0  0
 37 45  1  0  0  0  0
 37 38  2  0  0  0  0
  8  9  1  0  0  0  0
  9 17  1  0  0  0  0
  9 10  2  0  0  0  0
 18 19  1  0  0  0  0
 19 35  1  0  0  0  0
 19 20  2  0  0  0  0
 36 39  1  0  0  0  0
  8 11  1  0  0  0  0
 45 46  1  0  0  0  0
 18 21  1  0  0  0  0
 35 36  1  0  0  0  0
  7  8  1  0  0  0  0
 17 18  1  0  0  0  0
 24 32  1  0  0  0  0
 25 33  1  0  0  0  0
  3  4  1  0  0  0  0
  3  5  1  0  0  0  0
  3  6  1  0  0  0  0
 39 42  1  0  0  0  0
 39 43  1  0  0  0  0
 39 44  1  0  0  0  0
 11 14  1  0  0  0  0
 11 15  1  0  0  0  0
 11 16  1  0  0  0  0
 46 48  1  0  0  0  0
 46 49  1  0  0  0  0
 46 50  1  0  0  0  0
 21 29  1  0  0  0  0
 21 30  1  0  0  0  0
 36 41  1  0  0  0  0
  8 13  1  0  0  0  0
 18 28  1  0  0  0  0
 26 34  1  0  0  0  0
 23 31  1  0  0  0  0
 45 47  1  0  0  0  0
  7 12  1  0  0  0  0
 35 40  1  0  0  0  0
 17 27  1  0  0  0  0
M  CHG  1  23   1
M  END
$$$$

  -OEChem-05262214473D

 50 50  0     1  0  0  0  0  0999 V2000
   -1.6938    0.4865    3.8080 C   0  0  0  0  0  0  0  0  0  0  0  0
   -0.7464   -0.1282    3.3323 O   0  0  0  0  0  0  0  0  0  0  0  0
   -2.1257    0.2041    5.2087 C   0  0  0  0  0  0  0  0  0  0  0  0
   -2.8853   -0.5922    5.2621 H   0  0  0  0  0  0  0  0  0  0  0  0
   -1.2944   -0.1435    5.8430 H   0  0  0  0  0  0  0  0  0  0  0  0
   -2.5637    1.0590    5.7483 H   0  0  0  0  0  0  0  0  0  0  0  0
   -2.4435    1.4589    3.1669 N   0  0  0  0  0  0  0  0  0  0  0  0
   -2.1966    1.8850    1.8145 C   0  0  2  0  0  0  0  0  0  0  0  0
   -0.8617    1.2996    1.3733 C   0  0  0  0  0  0  0  0  0  0  0  0
    0.0104    0.9468    2.1646 O   0  0  0  0  0  0  0  0  0  0  0  0
   -2.1879    3.4017    1.7050 C   0  0  0  0  0  0  0  0  0  0  0  0
   -3.2085    1.8948    3.6787 H   0  0  0  0  0  0  0  0  0  0  0  0
   -3.0007    1.4665    1.1994 H   0  0  0  0  0  0  0  0  0  0  0  0
   -1.3888    3.8390    2.3147 H   0  0  0  0  0  0  0  0  0  0  0  0
   -2.0284    3.7240    0.6708 H   0  0  0  0  0  0  0  0  0  0  0  0
   -3.1380    3.8230    2.0508 H   0  0  0  0  0  0  0  0  0  0  0  0
   -0.7390    1.2565   -0.0101 N   0  0  0  0  0  0  0  0  0  0  0  0
    0.4383    0.7557   -0.6738 C   0  0  2  0  0  0  0  0  0  0  0  0
    1.6248    1.0325    0.2427 C   0  0  0  0  0  0  0  0  0  0  0  0
    1.6164    0.7747    1.4445 O   0  0  0  0  0  0  0  0  0  0  0  0
    0.6562    1.4137   -2.0411 C   0  0  0  0  0  0  0  0  0  0  0  0
   -0.4494    1.1041   -3.0206 C   0  0  0  0  0  0  0  0  0  0  0  0
   -0.5563   -0.1226   -3.6304 N   0  3  0  0  0  0  0  0  0  0  0  0
   -1.4828    1.8666   -3.4870 C   0  0  0  0  0  0  0  0  0  0  0  0
   -1.6157   -0.1242   -4.4460 C   0  0  0  0  0  0  0  0  0  0  0  0
   -2.1877    1.0817   -4.3675 N   0  0  0  0  0  0  0  0  0  0  0  0
   -1.5221    1.5532   -0.5874 H   0  0  0  0  0  0  0  0  0  0  0  0
    0.3050   -0.3282   -0.7708 H   0  0  0  0  0  0  0  0  0  0  0  0
    1.6215    1.1030   -2.4633 H   0  0  0  0  0  0  0  0  0  0  0  0
    0.7262    2.5044   -1.9351 H   0  0  0  0  0  0  0  0  0  0  0  0
    0.0708   -0.9096   -3.4879 H   0  0  0  0  0  0  0  0  0  0  0  0
   -1.8329    2.8670   -3.3275 H   0  0  0  0  0  0  0  0  0  0  0  0
   -1.9475   -0.9475   -5.0562 H   0  0  0  0  0  0  0  0  0  0  0  0
   -3.0154    1.3705   -4.8813 H   0  0  0  0  0  0  0  0  0  0  0  0
    2.7074    1.5539   -0.4520 N   0  0  0  0  0  0  0  0  0  0  0  0
    3.9673    1.8845    0.1741 C   0  0  2  0  0  0  0  0  0  0  0  0
    3.6736    2.7423    1.3977 C   0  0  0  0  0  0  0  0  0  0  0  0
    2.6370    3.3895    1.5300 O   0  0  0  0  0  0  0  0  0  0  0  0
    4.8906    2.6119   -0.7908 C   0  0  0  0  0  0  0  0  0  0  0  0
    2.6092    1.7110   -1.4507 H   0  0  0  0  0  0  0  0  0  0  0  0
    4.4209    0.9389    0.4906 H   0  0  0  0  0  0  0  0  0  0  0  0
    4.4530    3.5618   -1.1190 H   0  0  0  0  0  0  0  0  0  0  0  0
    5.8553    2.8364   -0.3239 H   0  0  0  0  0  0  0  0  0  0  0  0
    5.0769    2.0057   -1.6839 H   0  0  0  0  0  0  0  0  0  0  0  0
    4.7239    2.7344    2.3049 N   0  0  0  0  0  0  0  0  0  0  0  0
    4.6924    3.4814    3.5406 C   0  0  0  0  0  0  0  0  0  0  0  0
    5.5374    2.1540    2.1225 H   0  0  0  0  0  0  0  0  0  0  0  0
    5.1486    4.4700    3.3838 H   0  0  0  0  0  0  0  0  0  0  0  0
    3.6494    3.6065    3.8668 H   0  0  0  0  0  0  0  0  0  0  0  0
    5.2551    2.9364    4.3128 H   0  0  0  0  0  0  0  0  0  0  0  0
 22 24  2  0  0  0  0
 24 26  1  0  0  0  0
 25 26  1  0  0  0  0
 23 25  2  0  0  0  0
 21 22  1  0  0  0  0
 22 23  1  0  0  0  0
  1  3  1  0  0  0  0
  1  7  1  0  0  0  0
  1  2  2  0  0  0  0
 36 37  1  0  0  0  0
 37 45  1  0  0  0  0
 37 38  2  0  0  0  0
  8  9  1  0  0  0  0
  9 17  1  0  0  0  0
  9 10  2  0  0  0  0
 18 19  1  0  0  0  0
 19 35  1  0  0  0  0
 19 20  2  0  0  0  0
 36 39  1  0  0  0  0
  8 11  1  0  0  0  0
 45 46  1  0  0  0  0
 18 21  1  0  0  0  0
 35 36  1  0  0  0  0
  7  8  1  0  0  0  0
 17 18  1  0  0  0  0
 24 32  1  0  0  0  0
 25 33  1  0  0  0  0
  3  4  1  0  0  0  0
  3  5  1  0  0  0  0
  3  6  1  0  0  0  0
 39 42  1  0  0  0  0
 39 43  1  0  0  0  0
 39 44  1  0  0  0  0
 11 14  1  0  0  0  0
 11 15  1  0  0  0  0
 11 16  1  0  0  0  0
 46 48  1  0  0  0  0
 46 49  1  0  0  0  0
 46 50  1  0  0  0  0
 21 29  1  0  0  0  0
 21 30  1  0  0  0  0
 36 41  1  0  0  0  0
  8 13  1  0  0  0  0
 18 28  1  0  0  0  0
 26 34  1  0  0  0  0
 23 31  1  0  0  0  0
 45 47  1  0  0  0  0
  7 12  1  0  0  0  0
 35 40  1  0  0  0  0
 17 27  1  0  0  0  0
M  CHG  1  23   1
M  END
$$$$

  -OEChem-05262214473D

 50 50  0     1  0  0  0  0  0999 V2000
   -1.6938    0.4865    3.8080 C   0  0  0  0  0  0  0  0  0  0  0  0
   -0.7464   -0.1282    3.3323 O   0  0  0  0  0  0  0  0  0  0  0  0
   -2.1257    0.2041    5.2087 C   0  0  0  0  0  0  0  0  0  0  0  0
   -2.8853   -0.5922    5.2621 H   0  0  0  0  0  0  0  0  0  0  0  0
   -1.2944   -0.1435    5.8430 H   0  0  0  0  0  0  0  0  0  0  0  0
   -2.5637    1.0590    5.7483 H   0  0  0  0  0  0  0  0  0  0  0  0
   -2.4435    1.4589    3.1669 N   0  0  0  0  0  0  0  0  0  0  0  0
   -2.1966    1.8850    1.8145 C   0  0  2  0  0  0  0  0  0  0  0  0
   -0.8617    1.2996    1.3733 C   0  0  0  0  0  0  0  0  0  0  0  0
    0.0104    0.9468    2.1646 O   0  0  0  0  0  0  0  0  0  0  0  0
   -2.1879    3.4017    1.7050 C   0  0  0  0  0  0  0  0  0  0  0  0
   -3.2085    1.8948    3.6787 H   0  0  0  0  0  0  0  0  0  0  0  0
   -3.0007    1.4665    1.1994 H   0  0  0  0  0  0  0  0  0  0  0  0
   -1.3888    3.8390    2.3147 H   0  0  0  0  0  0  0  0  0  0  0  0
   -2.0284    3.7240    0.6708 H   0  0  0  0  0  0  0  0  0  0  0  0
   -3.1380    3.8230    2.0508 H   0  0  0  0  0  0  0  0  0  0  0  0
   -0.7390    1.2565   -0.0101 N   0  0  0  0  0  0  0  0  0  0  0  0
    0.4383    0.7557   -0.6738 C   0  0  2  0  0  0  0  0  0  0  0  0
    1.6248    1.0325    0.2427 C   0  0  0  0  0  0  0  0  0  0  0  0
    1.7310    0.5443    1.3657 O   0  0  0  0  0  0  0  0  0  0  0  0
    0.6562    1.4137   -2.0411 C   0  0  0  0  0  0  0  0  0  0  0  0
   -0.4494    1.1041   -3.0206 C   0  0  0  0  0  0  0  0  0  0  0  0
   -0.5563   -0.1226   -3.6304 N   0  3  0  0  0  0  0  0  0  0  0  0
   -1.4828    1.8666   -3.4870 C   0  0  0  0  0  0  0  0  0  0  0  0
   -1.6157   -0.1242   -4.4460 C   0  0  0  0  0  0  0  0  0  0  0  0
   -2.1877    1.0817   -4.3675 N   0  0  0  0  0  0  0  0  0  0  0  0
   -1.5221    1.5532   -0.5874 H   0  0  0  0  0  0  0  0  0  0  0  0
    0.3050   -0.3282   -0.7708 H   0  0  0  0  0  0  0  0  0  0  0  0
    1.6215    1.1030   -2.4633 H   0  0  0  0  0  0  0  0  0  0  0  0
    0.7262    2.5044   -1.9351 H   0  0  0  0  0  0  0  0  0  0  0  0
    0.0708   -0.9096   -3.4879 H   0  0  0  0  0  0  0  0  0  0  0  0
   -1.8329    2.8670   -3.3275 H   0  0  0  0  0  0  0  0  0  0  0  0
   -1.9475   -0.9475   -5.0562 H   0  0  0  0  0  0  0  0  0  0  0  0
   -3.0154    1.3705   -4.8813 H   0  0  0  0  0  0  0  0  0  0  0  0
    2.5705    1.8477   -0.3636 N   0  0  0  0  0  0  0  0  0  0  0  0
    3.8031    2.2457    0.2776 C   0  0  2  0  0  0  0  0  0  0  0  0
    3.4610    2.7863    1.6597 C   0  0  0  0  0  0  0  0  0  0  0  0
    2.3490    3.2197    1.9541 O   0  0  0  0  0  0  0  0  0  0  0  0
    4.5436    3.2881   -0.5457 C   0  0  0  0  0  0  0  0  0  0  0  0
    2.3871    2.1813   -1.3053 H   0  0  0  0  0  0  0  0  0  0  0  0
    4.4131    1.3415    0.3791 H   0  0  0  0  0  0  0  0  0  0  0  0
    3.9479    4.2013   -0.6583 H   0  0  0  0  0  0  0  0  0  0  0  0
    5.4908    3.5675   -0.0729 H   0  0  0  0  0  0  0  0  0  0  0  0
    4.7625    2.9082   -1.5495 H   0  0  0  0  0  0  0  0  0  0  0  0
    4.5555    2.7677    2.5130 N   0  0  0  0  0  0  0  0  0  0  0  0
    4.4895    3.2407    3.8760 C   0  0  0  0  0  0  0  0  0  0  0  0
    5.4340    2.3730    2.1902 H   0  0  0  0  0  0  0  0  0  0  0  0
    4.7806    4.3009    3.9112 H   0  0  0  0  0  0  0  0  0  0  0  0
    3.4621    3.1299    4.2531 H   0  0  0  0  0  0  0  0  0  0  0  0
    5.1755    2.6512    4.5021 H   0  0  0  0  0  0  0  0  0  0  0  0
 22 24  2  0  0  0  0
 24 26  1  0  0  0  0
 25 26  1  0  0  0  0
 23 25  2  0  0  0  0
 21 22  1  0  0  0  0
 22 23  1  0  0  0  0
  1  3  1  0  0  0  0
  1  7  1  0  0  0  0
  1  2  2  0  0  0  0
 36 37  1  0  0  0  0
 37 45  1  0  0  0  0
 37 38  2  0  0  0  0
  8  9  1  0  0  0  0
  9 17  1  0  0  0  0
  9 10  2  0  0  0  0
 18 19  1  0  0  0  0
 19 35  1  0  0  0  0
 19 20  2  0  0  0  0
 36 39  1  0  0  0  0
  8 11  1  0  0  0  0
 45 46  1  0  0  0  0
 18 21  1  0  0  0  0
 35 36  1  0  0  0  0
  7  8  1  0  0  0  0
 17 18  1  0  0  0  0
 24 32  1  0  0  0  0
 25 33  1  0  0  0  0
  3  4  1  0  0  0  0
  3  5  1  0  0  0  0
  3  6  1  0  0  0  0
 39 42  1  0  0  0  0
 39 43  1  0  0  0  0
 39 44  1  0  0  0  0
 11 14  1  0  0  0  0
 11 15  1  0  0  0  0
 11 16  1  0  0  0  0
 46 48  1  0  0  0  0
 46 49  1  0  0  0  0
 46 50  1  0  0  0  0
 21 29  1  0  0  0  0
 21 30  1  0  0  0  0
 36 41  1  0  0  0  0
  8 13  1  0  0  0  0
 18 28  1  0  0  0  0
 26 34  1  0  0  0  0
 23 31  1  0  0  0  0
 45 47  1  0  0  0  0
  7 12  1  0  0  0  0
 35 40  1  0  0  0  0
 17 27  1  0  0  0  0
M  CHG  1  23   1
M  END
$$$$

  -OEChem-05262214473D

 50 50  0     1  0  0  0  0  0999 V2000
   -1.6938    0.4865    3.8080 C   0  0  0  0  0  0  0  0  0  0  0  0
   -0.7464   -0.1282    3.3323 O   0  0  0  0  0  0  0  0  0  0  0  0
   -2.1257    0.2041    5.2087 C   0  0  0  0  0  0  0  0  0  0  0  0
   -2.8853   -0.5922    5.2621 H   0  0  0  0  0  0  0  0  0  0  0  0
   -1.2944   -0.1435    5.8430 H   0  0  0  0  0  0  0  0  0  0  0  0
   -2.5637    1.0590    5.7483 H   0  0  0  0  0  0  0  0  0  0  0  0
   -2.4435    1.4589    3.1669 N   0  0  0  0  0  0  0  0  0  0  0  0
   -2.1966    1.8850    1.8145 C   0  0  2  0  0  0  0  0  0  0  0  0
   -0.8617    1.2996    1.3733 C   0  0  0  0  0  0  0  0  0  0  0  0
    0.0104    0.9468    2.1646 O   0  0  0  0  0  0  0  0  0  0  0  0
   -2.1879    3.4017    1.7050 C   0  0  0  0  0  0  0  0  0  0  0  0
   -3.2085    1.8948    3.6787 H   0  0  0  0  0  0  0  0  0  0  0  0
   -3.0007    1.4665    1.1994 H   0  0  0  0  0  0  0  0  0  0  0  0
   -1.3888    3.8390    2.3147 H   0  0  0  0  0  0  0  0  0  0  0  0
   -2.0284    3.7240    0.6708 H   0  0  0  0  0  0  0  0  0  0  0  0
   -3.1380    3.8230    2.0508 H   0  0  0  0  0  0  0  0  0  0  0  0
   -0.7390    1.2565   -0.0101 N   0  0  0  0  0  0  0  0  0  0  0  0
    0.4383    0.7557   -0.6738 C   0  0  2  0  0  0  0  0  0  0  0  0
    1.6248    1.0325    0.2427 C   0  0  0  0  0  0  0  0  0  0  0  0
    1.8739    0.3553    1.2378 O   0  0  0  0  0  0  0  0  0  0  0  0
    0.6562    1.4137   -2.0411 C   0  0  0  0  0  0  0  0  0  0  0  0
   -0.4494    1.1041   -3.0206 C   0  0  0  0  0  0  0  0  0  0  0  0
   -0.5563   -0.1226   -3.6304 N   0  3  0  0  0  0  0  0  0  0  0  0
   -1.4828    1.8666   -3.4870 C   0  0  0  0  0  0  0  0  0  0  0  0
   -1.6157   -0.1242   -4.4460 C   0  0  0  0  0  0  0  0  0  0  0  0
   -2.1877    1.0817   -4.3675 N   0  0  0  0  0  0  0  0  0  0  0  0
   -1.5221    1.5532   -0.5874 H   0  0  0  0  0  0  0  0  0  0  0  0
    0.3050   -0.3282   -0.7708 H   0  0  0  0  0  0  0  0  0  0  0  0
    1.6215    1.1030   -2.4633 H   0  0  0  0  0  0  0  0  0  0  0  0
    0.7262    2.5044   -1.9351 H   0  0  0  0  0  0  0  0  0  0  0  0
    0.0708   -0.9096   -3.4879 H   0  0  0  0  0  0  0  0  0  0  0  0
   -1.8329    2.8670   -3.3275 H   0  0  0  0  0  0  0  0  0  0  0  0
   -1.9475   -0.9475   -5.0562 H   0  0  0  0  0  0  0  0  0  0  0  0
   -3.0154    1.3705   -4.8813 H   0  0  0  0  0  0  0  0  0  0  0  0
    2.3967    2.0924   -0.2125 N   0  0  0  0  0  0  0  0  0  0  0  0
    3.5931    2.5482    0.4581 C   0  0  2  0  0  0  0  0  0  0  0  0
    3.2611    2.7429    1.9316 C   0  0  0  0  0  0  0  0  0  0  0  0
    2.1172    2.9254    2.3431 O   0  0  0  0  0  0  0  0  0  0  0  0
    4.1147    3.8378   -0.1565 C   0  0  0  0  0  0  0  0  0  0  0  0
    2.1062    2.5718   -1.0596 H   0  0  0  0  0  0  0  0  0  0  0  0
    4.3376    1.7516    0.3530 H   0  0  0  0  0  0  0  0  0  0  0  0
    3.3822    4.6476   -0.0608 H   0  0  0  0  0  0  0  0  0  0  0  0
    5.0368    4.1665    0.3340 H   0  0  0  0  0  0  0  0  0  0  0  0
    4.3248    3.7041   -1.2232 H   0  0  0  0  0  0  0  0  0  0  0  0
    4.3973    2.7317    2.7285 N   0  0  0  0  0  0  0  0  0  0  0  0
    4.3468    2.9091    4.1610 C   0  0  0  0  0  0  0  0  0  0  0  0
    5.3033    2.5548    2.3045 H   0  0  0  0  0  0  0  0  0  0  0  0
    4.4763    3.9741    4.4039 H   0  0  0  0  0  0  0  0  0  0  0  0
    3.3736    2.5626    4.5391 H   0  0  0  0  0  0  0  0  0  0  0  0
    5.1518    2.3253    4.6312 H   0  0  0  0  0  0  0  0  0  0  0  0
 22 24  2  0  0  0  0
 24 26  1  0  0  0  0
 25 26  1  0  0  0  0
 23 25  2  0  0  0  0
 21 22  1  0  0  0  0
 22 23  1  0  0  0  0
  1  3  1  0  0  0  0
  1  7  1  0  0  0  0
  1  2  2  0  0  0  0
 36 37  1  0  0  0  0
 37 45  1  0  0  0  0
 37 38  2  0  0  0  0
  8  9  1  0  0  0  0
  9 17  1  0  0  0  0
  9 10  2  0  0  0  0
 18 19  1  0  0  0  0
 19 35  1  0  0  0  0
 19 20  2  0  0  0  0
 36 39  1  0  0  0  0
  8 11  1  0  0  0  0
 45 46  1  0  0  0  0
 18 21  1  0  0  0  0
 35 36  1  0  0  0  0
  7  8  1  0  0  0  0
 17 18  1  0  0  0  0
 24 32  1  0  0  0  0
 25 33  1  0  0  0  0
  3  4  1  0  0  0  0
  3  5  1  0  0  0  0
  3  6  1  0  0  0  0
 39 42  1  0  0  0  0
 39 43  1  0  0  0  0
 39 44  1  0  0  0  0
 11 14  1  0  0  0  0
 11 15  1  0  0  0  0
 11 16  1  0  0  0  0
 46 48  1  0  0  0  0
 46 49  1  0  0  0  0
 46 50  1  0  0  0  0
 21 29  1  0  0  0  0
 21 30  1  0  0  0  0
 36 41  1  0  0  0  0
  8 13  1  0  0  0  0
 18 28  1  0  0  0  0
 26 34  1  0  0  0  0
 23 31  1  0  0  0  0
 45 47  1  0  0  0  0
  7 12  1  0  0  0  0
 35 40  1  0  0  0  0
 17 27  1  0  0  0  0
M  CHG  1  23   1
M  END
$$$$

  -OEChem-05262214473D

 50 50  0     1  0  0  0  0  0999 V2000
   -1.6938    0.4865    3.8080 C   0  0  0  0  0  0  0  0  0  0  0  0
   -0.7464   -0.1282    3.3323 O   0  0  0  0  0  0  0  0  0  0  0  0
   -2.1257    0.2041    5.2087 C   0  0  0  0  0  0  0  0  0  0  0  0
   -2.8853   -0.5922    5.2621 H   0  0  0  0  0  0  0  0  0  0  0  0
   -1.2944   -0.1435    5.8430 H   0  0  0  0  0  0  0  0  0  0  0  0
   -2.5637    1.0590    5.7483 H   0  0  0  0  0  0  0  0  0  0  0  0
   -2.4435    1.4589    3.1669 N   0  0  0  0  0  0  0  0  0  0  0  0
   -2.1966    1.8850    1.8145 C   0  0  2  0  0  0  0  0  0  0  0  0
   -0.8617    1.2996    1.3733 C   0  0  0  0  0  0  0  0  0  0  0  0
    0.0104    0.9468    2.1646 O   0  0  0  0  0  0  0  0  0  0  0  0
   -2.1879    3.4017    1.7050 C   0  0  0  0  0  0  0  0  0  0  0  0
   -3.2085    1.8948    3.6787 H   0  0  0  0  0  0  0  0  0  0  0  0
   -3.0007    1.4665    1.1994 H   0  0  0  0  0  0  0  0  0  0  0  0
   -1.3888    3.8390    2.3147 H   0  0  0  0  0  0  0  0  0  0  0  0
   -2.0284    3.7240    0.6708 H   0  0  0  0  0  0  0  0  0  0  0  0
   -3.1380    3.8230    2.0508 H   0  0  0  0  0  0  0  0  0  0  0  0
   -0.7390    1.2565   -0.0101 N   0  0  0  0  0  0  0  0  0  0  0  0
    0.4383    0.7557   -0.6738 C   0  0  2  0  0  0  0  0  0  0  0  0
    1.6248    1.0325    0.2427 C   0  0  0  0  0  0  0  0  0  0  0  0
    2.0352    0.2209    1.0695 O   0  0  0  0  0  0  0  0  0  0  0  0
    0.6562    1.4137   -2.0411 C   0  0  0  0  0  0  0  0  0  0  0  0
   -0.4494    1.1041   -3.0206 C   0  0  0  0  0  0  0  0  0  0  0  0
   -0.5563   -0.1226   -3.6304 N   0  3  0  0  0  0  0  0  0  0  0  0
   -1.4828    1.8666   -3.4870 C   0  0  0  0  0  0  0  0  0  0  0  0
   -1.6157   -0.1242   -4.4460 C   0  0  0  0  0  0  0  0  0  0  0  0
   -2.1877    1.0817   -4.3675 N   0  0  0  0  0  0  0  0  0  0  0  0
   -1.5221    1.5532   -0.5874 H   0  0  0  0  0  0  0  0  0  0  0  0
    0.3050   -0.3282   -0.7708 H   0  0  0  0  0  0  0  0  0  0  0  0
    1.6215    1.1030   -2.4633 H   0  0  0  0  0  0  0  0  0  0  0  0
    0.7262    2.5044   -1.9351 H   0  0  0  0  0  0  0  0  0  0  0  0
    0.0708   -0.9096   -3.4879 H   0  0  0  0  0  0  0  0  0  0  0  0
   -1.8329    2.8670   -3.3275 H   0  0  0  0  0  0  0  0  0  0  0  0
   -1.9475   -0.9475   -5.0562 H   0  0  0  0  0  0  0  0  0  0  0  0
   -3.0154    1.3705   -4.8813 H   0  0  0  0  0  0  0  0  0  0  0  0
    2.1979    2.2713   -0.0091 N   0  0  0  0  0  0  0  0  0  0  0  0
    3.3517    2.7714    0.7032 C   0  0  2  0  0  0  0  0  0  0  0  0
    3.0875    2.6150    2.1950 C   0  0  0  0  0  0  0  0  0  0  0  0
    1.9574    2.5268    2.6704 O   0  0  0  0  0  0  0  0  0  0  0  0
    3.6331    4.2236    0.3504 C   0  0  0  0  0  0  0  0  0  0  0  0
    1.7857    2.8557   -0.7304 H   0  0  0  0  0  0  0  0  0  0  0  0
    4.1997    2.1412    0.4139 H   0  0  0  0  0  0  0  0  0  0  0  0
    2.7945    4.8704    0.6329 H   0  0  0  0  0  0  0  0  0  0  0  0
    4.5242    4.5925    0.8690 H   0  0  0  0  0  0  0  0  0  0  0  0
    3.7934    4.3389   -0.7271 H   0  0  0  0  0  0  0  0  0  0  0  0
    4.2603    2.6290    2.9369 N   0  0  0  0  0  0  0  0  0  0  0  0
    4.2738    2.5092    4.3762 C   0  0  0  0  0  0  0  0  0  0  0  0
    5.1541    2.6870    2.4577 H   0  0  0  0  0  0  0  0  0  0  0  0
    4.2564    3.5118    4.8283 H   0  0  0  0  0  0  0  0  0  0  0  0
    3.3898    1.9433    4.7052 H   0  0  0  0  0  0  0  0  0  0  0  0
    5.1856    1.9808    4.6914 H   0  0  0  0  0  0  0  0  0  0  0  0
 22 24  2  0  0  0  0
 24 26  1  0  0  0  0
 25 26  1  0  0  0  0
 23 25  2  0  0  0  0
 21 22  1  0  0  0  0
 22 23  1  0  0  0  0
  1  3  1  0  0  0  0
  1  7  1  0  0  0  0
  1  2  2  0  0  0  0
 36 37  1  0  0  0  0
 37 45  1  0  0  0  0
 37 38  2  0  0  0  0
  8  9  1  0  0  0  0
  9 17  1  0  0  0  0
  9 10  2  0  0  0  0
 18 19  1  0  0  0  0
 19 35  1  0  0  0  0
 19 20  2  0  0  0  0
 36 39  1  0  0  0  0
  8 11  1  0  0  0  0
 45 46  1  0  0  0  0
 18 21  1  0  0  0  0
 35 36  1  0  0  0  0
  7  8  1  0  0  0  0
 17 18  1  0  0  0  0
 24 32  1  0  0  0  0
 25 33  1  0  0  0  0
  3  4  1  0  0  0  0
  3  5  1  0  0  0  0
  3  6  1  0  0  0  0
 39 42  1  0  0  0  0
 39 43  1  0  0  0  0
 39 44  1  0  0  0  0
 11 14  1  0  0  0  0
 11 15  1  0  0  0  0
 11 16  1  0  0  0  0
 46 48  1  0  0  0  0
 46 49  1  0  0  0  0
 46 50  1  0  0  0  0
 21 29  1  0  0  0  0
 21 30  1  0  0  0  0
 36 41  1  0  0  0  0
  8 13  1  0  0  0  0
 18 28  1  0  0  0  0
 26 34  1  0  0  0  0
 23 31  1  0  0  0  0
 45 47  1  0  0  0  0
  7 12  1  0  0  0  0
 35 40  1  0  0  0  0
 17 27  1  0  0  0  0
M  CHG  1  23   1
M  END
$$$$

  -OEChem-05262214473D

 50 50  0     1  0  0  0  0  0999 V2000
   -1.6938    0.4865    3.8080 C   0  0  0  0  0  0  0  0  0  0  0  0
   -0.7464   -0.1282    3.3323 O   0  0  0  0  0  0  0  0  0  0  0  0
   -2.1257    0.2041    5.2087 C   0  0  0  0  0  0  0  0  0  0  0  0
   -2.8853   -0.5922    5.2621 H   0  0  0  0  0  0  0  0  0  0  0  0
   -1.2944   -0.1435    5.8430 H   0  0  0  0  0  0  0  0  0  0  0  0
   -2.5637    1.0590    5.7483 H   0  0  0  0  0  0  0  0  0  0  0  0
   -2.4435    1.4589    3.1669 N   0  0  0  0  0  0  0  0  0  0  0  0
   -2.1966    1.8850    1.8145 C   0  0  2  0  0  0  0  0  0  0  0  0
   -0.8617    1.2996    1.3733 C   0  0  0  0  0  0  0  0  0  0  0  0
    0.0104    0.9468    2.1646 O   0  0  0  0  0  0  0  0  0  0  0  0
   -2.1879    3.4017    1.7050 C   0  0  0  0  0  0  0  0  0  0  0  0
   -3.2085    1.8948    3.6787 H   0  0  0  0  0  0  0  0  0  0  0  0
   -3.0007    1.4665    1.1994 H   0  0  0  0  0  0  0  0  0  0  0  0
   -1.3888    3.8390    2.3147 H   0  0  0  0  0  0  0  0  0  0  0  0
   -2.0284    3.7240    0.6708 H   0  0  0  0  0  0  0  0  0  0  0  0
   -3.1380    3.8230    2.0508 H   0  0  0  0  0  0  0  0  0  0  0  0
   -0.7390    1.2565   -0.0101 N   0  0  0  0  0  0  0  0  0  0  0  0
    0.4383    0.7557   -0.6738 C   0  0  2  0  0  0  0  0  0  0  0  0
    1.6248    1.0325    0.2427 C   0  0  0  0  0  0  0  0  0  0  0  0
    2.2041    0.1500    0.8723 O   0  0  0  0  0  0  0  0  0  0  0  0
    0.6562    1.4137   -2.0411 C   0  0  0  0  0  0  0  0  0  0  0  0
   -0.4494    1.1041   -3.0206 C   0  0  0  0  0  0  0  0  0  0  0  0
   -0.5563   -0.1226   -3.6304 N   0  3  0  0  0  0  0  0  0  0  0  0
   -1.4828    1.8666   -3.4870 C   0  0  0  0  0  0  0  0  0  0  0  0
   -1.6157   -0.1242   -4.4460 C   0  0  0  0  0  0  0  0  0  0  0  0
   -2.1877    1.0817   -4.3675 N   0  0  0  0  0  0  0  0  0  0  0  0
   -1.5221    1.5532   -0.5874 H   0  0  0  0  0  0  0  0  0  0  0  0
    0.3050   -0.3282   -0.7708 H   0  0  0  0  0  0  0  0  0  0  0  0
    1.6215    1.1030   -2.4633 H   0  0  0  0  0  0  0  0  0  0  0  0
    0.7262    2.5044   -1.9351 H   0  0  0  0  0  0  0  0  0  0  0  0
    0.0708   -0.9096   -3.4879 H   0  0  0  0  0  0  0  0  0  0  0  0
   -1.8329    2.8670   -3.3275 H   0  0  0  0  0  0  0  0  0  0  0  0
   -1.9475   -0.9475   -5.0562 H   0  0  0  0  0  0  0  0  0  0  0  0
   -3.0154    1.3705   -4.8813 H   0  0  0  0  0  0  0  0  0  0  0  0
    1.9876    2.3722    0.2327 N   0  0  0  0  0  0  0  0  0  0  0  0
    3.0953    2.9001    0.9963 C   0  0  2  0  0  0  0  0  0  0  0  0
    2.9521    2.4115    2.4317 C   0  0  0  0  0  0  0  0  0  0  0  0
    1.8804    2.0509    2.9138 O   0  0  0  0  0  0  0  0  0  0  0  0
    3.1318    4.4193    0.9403 C   0  0  0  0  0  0  0  0  0  0  0  0
    1.4474    3.0139   -0.3402 H   0  0  0  0  0  0  0  0  0  0  0  0
    4.0087    2.4838    0.5576 H   0  0  0  0  0  0  0  0  0  0  0  0
    2.2247    4.8544    1.3754 H   0  0  0  0  0  0  0  0  0  0  0  0
    3.9879    4.8164    1.4956 H   0  0  0  0  0  0  0  0  0  0  0  0
    3.2048    4.7695   -0.0950 H   0  0  0  0  0  0  0  0  0  0  0  0
    4.1538    2.4664    3.1239 N   0  0  0  0  0  0  0  0  0  0  0  0
    4.2757    2.0682    4.5069 C   0  0  0  0  0  0  0  0  0  0  0  0
    4.9966    2.7607    2.6394 H   0  0  0  0  0  0  0  0  0  0  0  0
    4.1358    2.9456    5.1554 H   0  0  0  0  0  0  0  0  0  0  0  0
    3.5096    1.3141    4.7401 H   0  0  0  0  0  0  0  0  0  0  0  0
    5.2748    1.6411    4.6786 H   0  0  0  0  0  0  0  0  0  0  0  0
 22 24  2  0  0  0  0
 24 26  1  0  0  0  0
 25 26  1  0  0  0  0
 23 25  2  0  0  0  0
 21 22  1  0  0  0  0
 22 23  1  0  0  0  0
  1  3  1  0  0  0  0
  1  7  1  0  0  0  0
  1  2  2  0  0  0  0
 36 37  1  0  0  0  0
 37 45  1  0  0  0  0
 37 38  2  0  0  0  0
  8  9  1  0  0  0  0
  9 17  1  0  0  0  0
  9 10  2  0  0  0  0
 18 19  1  0  0  0  0
 19 35  1  0  0  0  0
 19 20  2  0  0  0  0
 36 39  1  0  0  0  0
  8 11  1  0  0  0  0
 45 46  1  0  0  0  0
 18 21  1  0  0  0  0
 35 36  1  0  0  0  0
  7  8  1  0  0  0  0
 17 18  1  0  0  0  0
 24 32  1  0  0  0  0
 25 33  1  0  0  0  0
  3  4  1  0  0  0  0
  3  5  1  0  0  0  0
  3  6  1  0  0  0  0
 39 42  1  0  0  0  0
 39 43  1  0  0  0  0
 39 44  1  0  0  0  0
 11 14  1  0  0  0  0
 11 15  1  0  0  0  0
 11 16  1  0  0  0  0
 46 48  1  0  0  0  0
 46 49  1  0  0  0  0
 46 50  1  0  0  0  0
 21 29  1  0  0  0  0
 21 30  1  0  0  0  0
 36 41  1  0  0  0  0
  8 13  1  0  0  0  0
 18 28  1  0  0  0  0
 26 34  1  0  0  0  0
 23 31  1  0  0  0  0
 45 47  1  0  0  0  0
  7 12  1  0  0  0  0
 35 40  1  0  0  0  0
 17 27  1  0  0  0  0
M  CHG  1  23   1
M  END
$$$$

  -OEChem-05262214473D

 50 50  0     1  0  0  0  0  0999 V2000
   -1.6938    0.4865    3.8080 C   0  0  0  0  0  0  0  0  0  0  0  0
   -0.7464   -0.1282    3.3323 O   0  0  0  0  0  0  0  0  0  0  0  0
   -2.1257    0.2041    5.2087 C   0  0  0  0  0  0  0  0  0  0  0  0
   -2.8853   -0.5922    5.2621 H   0  0  0  0  0  0  0  0  0  0  0  0
   -1.2944   -0.1435    5.8430 H   0  0  0  0  0  0  0  0  0  0  0  0
   -2.5637    1.0590    5.7483 H   0  0  0  0  0  0  0  0  0  0  0  0
   -2.4435    1.4589    3.1669 N   0  0  0  0  0  0  0  0  0  0  0  0
   -2.1966    1.8850    1.8145 C   0  0  2  0  0  0  0  0  0  0  0  0
   -0.8617    1.2996    1.3733 C   0  0  0  0  0  0  0  0  0  0  0  0
    0.0104    0.9468    2.1646 O   0  0  0  0  0  0  0  0  0  0  0  0
   -2.1879    3.4017    1.7050 C   0  0  0  0  0  0  0  0  0  0  0  0
   -3.2085    1.8948    3.6787 H   0  0  0  0  0  0  0  0  0  0  0  0
   -3.0007    1.4665    1.1994 H   0  0  0  0  0  0  0  0  0  0  0  0
   -1.3888    3.8390    2.3147 H   0  0  0  0  0  0  0  0  0  0  0  0
   -2.0284    3.7240    0.6708 H   0  0  0  0  0  0  0  0  0  0  0  0
   -3.1380    3.8230    2.0508 H   0  0  0  0  0  0  0  0  0  0  0  0
   -0.7390    1.2565   -0.0101 N   0  0  0  0  0  0  0  0  0  0  0  0
    0.4383    0.7557   -0.6738 C   0  0  2  0  0  0  0  0  0  0  0  0
    1.6248    1.0325    0.2427 C   0  0  0  0  0  0  0  0  0  0  0  0
    2.3690    0.1475    0.6595 O   0  0  0  0  0  0  0  0  0  0  0  0
    0.6562    1.4137   -2.0411 C   0  0  0  0  0  0  0  0  0  0  0  0
   -0.4494    1.1041   -3.0206 C   0  0  0  0  0  0  0  0  0  0  0  0
   -0.5563   -0.1226   -3.6304 N   0  3  0  0  0  0  0  0  0  0  0  0
   -1.4828    1.8666   -3.4870 C   0  0  0  0  0  0  0  0  0  0  0  0
   -1.6157   -0.1242   -4.4460 C   0  0  0  0  0  0  0  0  0  0  0  0
   -2.1877    1.0817   -4.3675 N   0  0  0  0  0  0  0  0  0  0  0  0
   -1.5221    1.5532   -0.5874 H   0  0  0  0  0  0  0  0  0  0  0  0
    0.3050   -0.3282   -0.7708 H   0  0  0  0  0  0  0  0  0  0  0  0
    1.6215    1.1030   -2.4633 H   0  0  0  0  0  0  0  0  0  0  0  0
    0.7262    2.5044   -1.9351 H   0  0  0  0  0  0  0  0  0  0  0  0
    0.0708   -0.9096   -3.4879 H   0  0  0  0  0  0  0  0  0  0  0  0
   -1.8329    2.8670   -3.3275 H   0  0  0  0  0  0  0  0  0  0  0  0
   -1.9475   -0.9475   -5.0562 H   0  0  0  0  0  0  0  0  0  0  0  0
   -3.0154    1.3705   -4.8813 H   0  0  0  0  0  0  0  0  0  0  0  0
    1.7801    2.3882    0.4964 N   0  0  0  0  0  0  0  0  0  0  0  0
    2.8414    2.9254    1.3174 C   0  0  2  0  0  0  0  0  0  0  0  0
    2.8642    2.1462    2.6258 C   0  0  0  0  0  0  0  0  0  0  0  0
    1.8915    1.5303    3.0567 O   0  0  0  0  0  0  0  0  0  0  0  0
    2.6448    4.4115    1.5731 C   0  0  0  0  0  0  0  0  0  0  0  0
    1.1144    3.0354    0.0844 H   0  0  0  0  0  0  0  0  0  0  0  0
    3.7777    2.7561    0.7745 H   0  0  0  0  0  0  0  0  0  0  0  0
    1.7117    4.6008    2.1162 H   0  0  0  0  0  0  0  0  0  0  0  0
    3.4646    4.8230    2.1712 H   0  0  0  0  0  0  0  0  0  0  0  0
    2.5989    4.9666    0.6299 H   0  0  0  0  0  0  0  0  0  0  0  0
    4.0849    2.2552    3.2769 N   0  0  0  0  0  0  0  0  0  0  0  0
    4.3523    1.6162    4.5443 C   0  0  0  0  0  0  0  0  0  0  0  0
    4.8416    2.7707    2.8370 H   0  0  0  0  0  0  0  0  0  0  0  0
    4.1228    2.3141    5.3630 H   0  0  0  0  0  0  0  0  0  0  0  0
    3.7248    0.7180    4.6415 H   0  0  0  0  0  0  0  0  0  0  0  0
    5.4132    1.3295    4.5936 H   0  0  0  0  0  0  0  0  0  0  0  0
 22 24  2  0  0  0  0
 24 26  1  0  0  0  0
 25 26  1  0  0  0  0
 23 25  2  0  0  0  0
 21 22  1  0  0  0  0
 22 23  1  0  0  0  0
  1  3  1  0  0  0  0
  1  7  1  0  0  0  0
  1  2  2  0  0  0  0
 36 37  1  0  0  0  0
 37 45  1  0  0  0  0
 37 38  2  0  0  0  0
  8  9  1  0  0  0  0
  9 17  1  0  0  0  0
  9 10  2  0  0  0  0
 18 19  1  0  0  0  0
 19 35  1  0  0  0  0
 19 20  2  0  0  0  0
 36 39  1  0  0  0  0
  8 11  1  0  0  0  0
 45 46  1  0  0  0  0
 18 21  1  0  0  0  0
 35 36  1  0  0  0  0
  7  8  1  0  0  0  0
 17 18  1  0  0  0  0
 24 32  1  0  0  0  0
 25 33  1  0  0  0  0
  3  4  1  0  0  0  0
  3  5  1  0  0  0  0
  3  6  1  0  0  0  0
 39 42  1  0  0  0  0
 39 43  1  0  0  0  0
 39 44  1  0  0  0  0
 11 14  1  0  0  0  0
 11 15  1  0  0  0  0
 11 16  1  0  0  0  0
 46 48  1  0  0  0  0
 46 49  1  0  0  0  0
 46 50  1  0  0  0  0
 21 29  1  0  0  0  0
 21 30  1  0  0  0  0
 36 41  1  0  0  0  0
  8 13  1  0  0  0  0
 18 28  1  0  0  0  0
 26 34  1  0  0  0  0
 23 31  1  0  0  0  0
 45 47  1  0  0  0  0
  7 12  1  0  0  0  0
 35 40  1  0  0  0  0
 17 27  1  0  0  0  0
M  CHG  1  23   1
M  END
$$$$

  -OEChem-05262214473D

 50 50  0     1  0  0  0  0  0999 V2000
   -1.6938    0.4865    3.8080 C   0  0  0  0  0  0  0  0  0  0  0  0
   -0.7464   -0.1282    3.3323 O   0  0  0  0  0  0  0  0  0  0  0  0
   -2.1257    0.2041    5.2087 C   0  0  0  0  0  0  0  0  0  0  0  0
   -2.8853   -0.5922    5.2621 H   0  0  0  0  0  0  0  0  0  0  0  0
   -1.2944   -0.1435    5.8430 H   0  0  0  0  0  0  0  0  0  0  0  0
   -2.5637    1.0590    5.7483 H   0  0  0  0  0  0  0  0  0  0  0  0
   -2.4435    1.4589    3.1669 N   0  0  0  0  0  0  0  0  0  0  0  0
   -2.1966    1.8850    1.8145 C   0  0  2  0  0  0  0  0  0  0  0  0
   -0.8617    1.2996    1.3733 C   0  0  0  0  0  0  0  0  0  0  0  0
    0.0104    0.9468    2.1646 O   0  0  0  0  0  0  0  0  0  0  0  0
   -2.1879    3.4017    1.7050 C   0  0  0  0  0  0  0  0  0  0  0  0
   -3.2085    1.8948    3.6787 H   0  0  0  0  0  0  0  0  0  0  0  0
   -3.0007    1.4665    1.1994 H   0  0  0  0  0  0  0  0  0  0  0  0
   -1.3888    3.8390    2.3147 H   0  0  0  0  0  0  0  0  0  0  0  0
   -2.0284    3.7240    0.6708 H   0  0  0  0  0  0  0  0  0  0  0  0
   -3.1380    3.8230    2.0508 H   0  0  0  0  0  0  0  0  0  0  0  0
   -0.7390    1.2565   -0.0101 N   0  0  0  0  0  0  0  0  0  0  0  0
    0.4383    0.7557   -0.6738 C   0  0  2  0  0  0  0  0  0  0  0  0
    1.6248    1.0325    0.2427 C   0  0  0  0  0  0  0  0  0  0  0  0
    2.5187    0.2136    0.4458 O   0  0  0  0  0  0  0  0  0  0  0  0
    0.6562    1.4137   -2.0411 C   0  0  0  0  0  0  0  0  0  0  0  0
   -0.4494    1.1041   -3.0206 C   0  0  0  0  0  0  0  0  0  0  0  0
   -0.5563   -0.1226   -3.6304 N   0  3  0  0  0  0  0  0  0  0  0  0
   -1.4828    1.8666   -3.4870 C   0  0  0  0  0  0  0  0  0  0  0  0
   -1.6157   -0.1242   -4.4460 C   0  0  0  0  0  0  0  0  0  0  0  0
   -2.1877    1.0817   -4.3675 N   0  0  0  0  0  0  0  0  0  0  0  0
   -1.5221    1.5532   -0.5874 H   0  0  0  0  0  0  0  0  0  0  0  0
    0.3050   -0.3282   -0.7708 H   0  0  0  0  0  0  0  0  0  0  0  0
    1.6215    1.1030   -2.4633 H   0  0  0  0  0  0  0  0  0  0  0  0
    0.7262    2.5044   -1.9351 H   0  0  0  0  0  0  0  0  0  0  0  0
    0.0708   -0.9096   -3.4879 H   0  0  0  0  0  0  0  0  0  0  0  0
   -1.8329    2.8670   -3.3275 H   0  0  0  0  0  0  0  0  0  0  0  0
   -1.9475   -0.9475   -5.0562 H   0  0  0  0  0  0  0  0  0  0  0  0
   -3.0154    1.3705   -4.8813 H   0  0  0  0  0  0  0  0  0  0  0  0
    1.5896    2.3183    0.7642 N   0  0  0  0  0  0  0  0  0  0  0  0
    2.6073    2.8457    1.6445 C   0  0  2  0  0  0  0  0  0  0  0  0
    2.8296    1.8372    2.7639 C   0  0  0  0  0  0  0  0  0  0  0  0
    1.9900    1.0003    3.0893 O   0  0  0  0  0  0  0  0  0  0  0  0
    2.2054    4.2008    2.2057 C   0  0  0  0  0  0  0  0  0  0  0  0
    0.8093    2.9188    0.5146 H   0  0  0  0  0  0  0  0  0  0  0  0
    3.5223    2.9395    1.0497 H   0  0  0  0  0  0  0  0  0  0  0  0
    1.2904    4.1267    2.8047 H   0  0  0  0  0  0  0  0  0  0  0  0
    2.9897    4.6119    2.8498 H   0  0  0  0  0  0  0  0  0  0  0  0
    2.0170    4.9166    1.3983 H   0  0  0  0  0  0  0  0  0  0  0  0
    4.0585    2.0096    3.3853 N   0  0  0  0  0  0  0  0  0  0  0  0
    4.4984    1.1840    4.4857 C   0  0  0  0  0  0  0  0  0  0  0  0
    4.6996    2.7165    3.0373 H   0  0  0  0  0  0  0  0  0  0  0  0
    4.2182    1.6602    5.4369 H   0  0  0  0  0  0  0  0  0  0  0  0
    4.0209    0.1955    4.4160 H   0  0  0  0  0  0  0  0  0  0  0  0
    5.5913    1.0672    4.4422 H   0  0  0  0  0  0  0  0  0  0  0  0
 22 24  2  0  0  0  0
 24 26  1  0  0  0  0
 25 26  1  0  0  0  0
 23 25  2  0  0  0  0
 21 22  1  0  0  0  0
 22 23  1  0  0  0  0
  1  3  1  0  0  0  0
  1  7  1  0  0  0  0
  1  2  2  0  0  0  0
 36 37  1  0  0  0  0
 37 45  1  0  0  0  0
 37 38  2  0  0  0  0
  8  9  1  0  0  0  0
  9 17  1  0  0  0  0
  9 10  2  0  0  0  0
 18 19  1  0  0  0  0
 19 35  1  0  0  0  0
 19 20  2  0  0  0  0
 36 39  1  0  0  0  0
  8 11  1  0  0  0  0
 45 46  1  0  0  0  0
 18 21  1  0  0  0  0
 35 36  1  0  0  0  0
  7  8  1  0  0  0  0
 17 18  1  0  0  0  0
 24 32  1  0  0  0  0
 25 33  1  0  0  0  0
  3  4  1  0  0  0  0
  3  5  1  0  0  0  0
  3  6  1  0  0  0  0
 39 42  1  0  0  0  0
 39 43  1  0  0  0  0
 39 44  1  0  0  0  0
 11 14  1  0  0  0  0
 11 15  1  0  0  0  0
 11 16  1  0  0  0  0
 46 48  1  0  0  0  0
 46 49  1  0  0  0  0
 46 50  1  0  0  0  0
 21 29  1  0  0  0  0
 21 30  1  0  0  0  0
 36 41  1  0  0  0  0
  8 13  1  0  0  0  0
 18 28  1  0  0  0  0
 26 34  1  0  0  0  0
 23 31  1  0  0  0  0
 45 47  1  0  0  0  0
  7 12  1  0  0  0  0
 35 40  1  0  0  0  0
 17 27  1  0  0  0  0
M  CHG  1  23   1
M  END
$$$$

  -OEChem-05262214473D

 50 50  0     1  0  0  0  0  0999 V2000
   -1.6938    0.4865    3.8080 C   0  0  0  0  0  0  0  0  0  0  0  0
   -0.7464   -0.1282    3.3323 O   0  0  0  0  0  0  0  0  0  0  0  0
   -2.1257    0.2041    5.2087 C   0  0  0  0  0  0  0  0  0  0  0  0
   -2.8853   -0.5922    5.2621 H   0  0  0  0  0  0  0  0  0  0  0  0
   -1.2944   -0.1435    5.8430 H   0  0  0  0  0  0  0  0  0  0  0  0
   -2.5637    1.0590    5.7483 H   0  0  0  0  0  0  0  0  0  0  0  0
   -2.4435    1.4589    3.1669 N   0  0  0  0  0  0  0  0  0  0  0  0
   -2.1966    1.8850    1.8145 C   0  0  2  0  0  0  0  0  0  0  0  0
   -0.8617    1.2996    1.3733 C   0  0  0  0  0  0  0  0  0  0  0  0
    0.0104    0.9468    2.1646 O   0  0  0  0  0  0  0  0  0  0  0  0
   -2.1879    3.4017    1.7050 C   0  0  0  0  0  0  0  0  0  0  0  0
   -3.2085    1.8948    3.6787 H   0  0  0  0  0  0  0  0  0  0  0  0
   -3.0007    1.4665    1.1994 H   0  0  0  0  0  0  0  0  0  0  0  0
   -1.3888    3.8390    2.3147 H   0  0  0  0  0  0  0  0  0  0  0  0
   -2.0284    3.7240    0.6708 H   0  0  0  0  0  0  0  0  0  0  0  0
   -3.1380    3.8230    2.0508 H   0  0  0  0  0  0  0  0  0  0  0  0
   -0.7390    1.2565   -0.0101 N   0  0  0  0  0  0  0  0  0  0  0  0
    0.4383    0.7557   -0.6738 C   0  0  2  0  0  0  0  0  0  0  0  0
    1.6248    1.0325    0.2427 C   0  0  0  0  0  0  0  0  0  0  0  0
    2.6429    0.3438    0.2456 O   0  0  0  0  0  0  0  0  0  0  0  0
    0.6562    1.4137   -2.0411 C   0  0  0  0  0  0  0  0  0  0  0  0
   -0.4494    1.1041   -3.0206 C   0  0  0  0  0  0  0  0  0  0  0  0
   -0.5563   -0.1226   -3.6304 N   0  3  0  0  0  0  0  0  0  0  0  0
   -1.4828    1.8666   -3.4870 C   0  0  0  0  0  0  0  0  0  0  0  0
   -1.6157   -0.1242   -4.4460 C   0  0  0  0  0  0  0  0  0  0  0  0
   -2.1877    1.0817   -4.3675 N   0  0  0  0  0  0  0  0  0  0  0  0
   -1.5221    1.5532   -0.5874 H   0  0  0  0  0  0  0  0  0  0  0  0
    0.3050   -0.3282   -0.7708 H   0  0  0  0  0  0  0  0  0  0  0  0
    1.6215    1.1030   -2.4633 H   0  0  0  0  0  0  0  0  0  0  0  0
    0.7262    2.5044   -1.9351 H   0  0  0  0  0  0  0  0  0  0  0  0
    0.0708   -0.9096   -3.4879 H   0  0  0  0  0  0  0  0  0  0  0  0
   -1.8329    2.8670   -3.3275 H   0  0  0  0  0  0  0  0  0  0  0  0
   -1.9475   -0.9475   -5.0562 H   0  0  0  0  0  0  0  0  0  0  0  0
   -3.0154    1.3705   -4.8813 H   0  0  0  0  0  0  0  0  0  0  0  0
    1.4290    2.1672    1.0177 N   0  0  0  0  0  0  0  0  0  0  0  0
    2.4089    2.6664    1.9555 C   0  0  2  0  0  0  0  0  0  0  0  0
    2.8507    1.5054    2.8367 C   0  0  0  0  0  0  0  0  0  0  0  0
    2.1691    0.4972    3.0094 O   0  0  0  0  0  0  0  0  0  0  0  0
    1.8434    3.8014    2.7949 C   0  0  0  0  0  0  0  0  0  0  0  0
    0.5530    2.6721    0.9210 H   0  0  0  0  0  0  0  0  0  0  0  0
    3.2601    3.0215    1.3644 H   0  0  0  0  0  0  0  0  0  0  0  0
    0.9896    3.4646    3.3941 H   0  0  0  0  0  0  0  0  0  0  0  0
    2.5958    4.1975    3.4850 H   0  0  0  0  0  0  0  0  0  0  0  0
    1.4988    4.6231    2.1578 H   0  0  0  0  0  0  0  0  0  0  0  0
    4.0762    1.7465    3.4418 N   0  0  0  0  0  0  0  0  0  0  0  0
    4.7039    0.8011    4.3352 C   0  0  0  0  0  0  0  0  0  0  0  0
    4.5802    2.6017    3.2265 H   0  0  0  0  0  0  0  0  0  0  0  0
    4.4156    1.0286    5.3721 H   0  0  0  0  0  0  0  0  0  0  0  0
    4.3775   -0.2177    4.0791 H   0  0  0  0  0  0  0  0  0  0  0  0
    5.7970    0.8720    4.2348 H   0  0  0  0  0  0  0  0  0  0  0  0
 22 24  2  0  0  0  0
 24 26  1  0  0  0  0
 25 26  1  0  0  0  0
 23 25  2  0  0  0  0
 21 22  1  0  0  0  0
 22 23  1  0  0  0  0
  1  3  1  0  0  0  0
  1  7  1  0  0  0  0
  1  2  2  0  0  0  0
 36 37  1  0  0  0  0
 37 45  1  0  0  0  0
 37 38  2  0  0  0  0
  8  9  1  0  0  0  0
  9 17  1  0  0  0  0
  9 10  2  0  0  0  0
 18 19  1  0  0  0  0
 19 35  1  0  0  0  0
 19 20  2  0  0  0  0
 36 39  1  0  0  0  0
  8 11  1  0  0  0  0
 45 46  1  0  0  0  0
 18 21  1  0  0  0  0
 35 36  1  0  0  0  0
  7  8  1  0  0  0  0
 17 18  1  0  0  0  0
 24 32  1  0  0  0  0
 25 33  1  0  0  0  0
  3  4  1  0  0  0  0
  3  5  1  0  0  0  0
  3  6  1  0  0  0  0
 39 42  1  0  0  0  0
 39 43  1  0  0  0  0
 39 44  1  0  0  0  0
 11 14  1  0  0  0  0
 11 15  1  0  0  0  0
 11 16  1  0  0  0  0
 46 48  1  0  0  0  0
 46 49  1  0  0  0  0
 46 50  1  0  0  0  0
 21 29  1  0  0  0  0
 21 30  1  0  0  0  0
 36 41  1  0  0  0  0
  8 13  1  0  0  0  0
 18 28  1  0  0  0  0
 26 34  1  0  0  0  0
 23 31  1  0  0  0  0
 45 47  1  0  0  0  0
  7 12  1  0  0  0  0
 35 40  1  0  0  0  0
 17 27  1  0  0  0  0
M  CHG  1  23   1
M  END
$$$$

  -OEChem-05262214473D

 50 50  0     1  0  0  0  0  0999 V2000
   -1.6938    0.4865    3.8080 C   0  0  0  0  0  0  0  0  0  0  0  0
   -0.7464   -0.1282    3.3323 O   0  0  0  0  0  0  0  0  0  0  0  0
   -2.1257    0.2041    5.2087 C   0  0  0  0  0  0  0  0  0  0  0  0
   -2.8853   -0.5922    5.2621 H   0  0  0  0  0  0  0  0  0  0  0  0
   -1.2944   -0.1435    5.8430 H   0  0  0  0  0  0  0  0  0  0  0  0
   -2.5637    1.0590    5.7483 H   0  0  0  0  0  0  0  0  0  0  0  0
   -2.4435    1.4589    3.1669 N   0  0  0  0  0  0  0  0  0  0  0  0
   -2.1966    1.8850    1.8145 C   0  0  2  0  0  0  0  0  0  0  0  0
   -0.8617    1.2996    1.3733 C   0  0  0  0  0  0  0  0  0  0  0  0
    0.0104    0.9468    2.1646 O   0  0  0  0  0  0  0  0  0  0  0  0
   -2.1879    3.4017    1.7050 C   0  0  0  0  0  0  0  0  0  0  0  0
   -3.2085    1.8948    3.6787 H   0  0  0  0  0  0  0  0  0  0  0  0
   -3.0007    1.4665    1.1994 H   0  0  0  0  0  0  0  0  0  0  0  0
   -1.3888    3.8390    2.3147 H   0  0  0  0  0  0  0  0  0  0  0  0
   -2.0284    3.7240    0.6708 H   0  0  0  0  0  0  0  0  0  0  0  0
   -3.1380    3.8230    2.0508 H   0  0  0  0  0  0  0  0  0  0  0  0
   -0.7390    1.2565   -0.0101 N   0  0  0  0  0  0  0  0  0  0  0  0
    0.4383    0.7557   -0.6738 C   0  0  2  0  0  0  0  0  0  0  0  0
    1.6248    1.0325    0.2427 C   0  0  0  0  0  0  0  0  0  0  0  0
    2.7333    0.5292    0.0727 O   0  0  0  0  0  0  0  0  0  0  0  0
    0.6562    1.4137   -2.0411 C   0  0  0  0  0  0  0  0  0  0  0  0
   -0.4494    1.1041   -3.0206 C   0  0  0  0  0  0  0  0  0  0  0  0
   -0.5563   -0.1226   -3.6304 N   0  3  0  0  0  0  0  0  0  0  0  0
   -1.4828    1.8666   -3.4870 C   0  0  0  0  0  0  0  0  0  0  0  0
   -1.6157   -0.1242   -4.4460 C   0  0  0  0  0  0  0  0  0  0  0  0
   -2.1877    1.0817   -4.3675 N   0  0  0  0  0  0  0  0  0  0  0  0
   -1.5221    1.5532   -0.5874 H   0  0  0  0  0  0  0  0  0  0  0  0
    0.3050   -0.3282   -0.7708 H   0  0  0  0  0  0  0  0  0  0  0  0
    1.6215    1.1030   -2.4633 H   0  0  0  0  0  0  0  0  0  0  0  0
    0.7262    2.5044   -1.9351 H   0  0  0  0  0  0  0  0  0  0  0  0
    0.0708   -0.9096   -3.4879 H   0  0  0  0  0  0  0  0  0  0  0  0
   -1.8329    2.8670   -3.3275 H   0  0  0  0  0  0  0  0  0  0  0  0
   -1.9475   -0.9475   -5.0562 H   0  0  0  0  0  0  0  0  0  0  0  0
   -3.0154    1.3705   -4.8813 H   0  0  0  0  0  0  0  0  0  0  0  0
    1.3094    1.9451    1.2397 N   0  0  0  0  0  0  0  0  0  0  0  0
    2.2598    2.3997    2.2290 C   0  0  2  0  0  0  0  0  0  0  0  0
    2.9262    1.1736    2.8392 C   0  0  0  0  0  0  0  0  0  0  0  0
    2.4166    0.0551    2.8224 O   0  0  0  0  0  0  0  0  0  0  0  0
    1.5837    3.2406    3.3006 C   0  0  0  0  0  0  0  0  0  0  0  0
    0.3629    2.3120    1.2759 H   0  0  0  0  0  0  0  0  0  0  0  0
    3.0089    2.9965    1.6973 H   0  0  0  0  0  0  0  0  0  0  0  0
    0.8298    2.6595    3.8442 H   0  0  0  0  0  0  0  0  0  0  0  0
    2.3096    3.6079    4.0335 H   0  0  0  0  0  0  0  0  0  0  0  0
    1.0797    4.1059    2.8566 H   0  0  0  0  0  0  0  0  0  0  0  0
    4.1370    1.4837    3.4425 N   0  0  0  0  0  0  0  0  0  0  0  0
    4.9550    0.4935    4.1031 C   0  0  0  0  0  0  0  0  0  0  0  0
    4.4917    2.4341    3.3917 H   0  0  0  0  0  0  0  0  0  0  0  0
    4.7015    0.4622    5.1730 H   0  0  0  0  0  0  0  0  0  0  0  0
    4.7704   -0.4934    3.6537 H   0  0  0  0  0  0  0  0  0  0  0  0
    6.0164    0.7572    3.9854 H   0  0  0  0  0  0  0  0  0  0  0  0
 22 24  2  0  0  0  0
 24 26  1  0  0  0  0
 25 26  1  0  0  0  0
 23 25  2  0  0  0  0
 21 22  1  0  0  0  0
 22 23  1  0  0  0  0
  1  3  1  0  0  0  0
  1  7  1  0  0  0  0
  1  2  2  0  0  0  0
 36 37  1  0  0  0  0
 37 45  1  0  0  0  0
 37 38  2  0  0  0  0
  8  9  1  0  0  0  0
  9 17  1  0  0  0  0
  9 10  2  0  0  0  0
 18 19  1  0  0  0  0
 19 35  1  0  0  0  0
 19 20  2  0  0  0  0
 36 39  1  0  0  0  0
  8 11  1  0  0  0  0
 45 46  1  0  0  0  0
 18 21  1  0  0  0  0
 35 36  1  0  0  0  0
  7  8  1  0  0  0  0
 17 18  1  0  0  0  0
 24 32  1  0  0  0  0
 25 33  1  0  0  0  0
  3  4  1  0  0  0  0
  3  5  1  0  0  0  0
  3  6  1  0  0  0  0
 39 42  1  0  0  0  0
 39 43  1  0  0  0  0
 39 44  1  0  0  0  0
 11 14  1  0  0  0  0
 11 15  1  0  0  0  0
 11 16  1  0  0  0  0
 46 48  1  0  0  0  0
 46 49  1  0  0  0  0
 46 50  1  0  0  0  0
 21 29  1  0  0  0  0
 21 30  1  0  0  0  0
 36 41  1  0  0  0  0
  8 13  1  0  0  0  0
 18 28  1  0  0  0  0
 26 34  1  0  0  0  0
 23 31  1  0  0  0  0
 45 47  1  0  0  0  0
  7 12  1  0  0  0  0
 35 40  1  0  0  0  0
 17 27  1  0  0  0  0
M  CHG  1  23   1
M  END
$$$$

  -OEChem-05262214473D

 50 50  0     1  0  0  0  0  0999 V2000
   -1.6938    0.4865    3.8080 C   0  0  0  0  0  0  0  0  0  0  0  0
   -0.7464   -0.1282    3.3323 O   0  0  0  0  0  0  0  0  0  0  0  0
   -2.1257    0.2041    5.2087 C   0  0  0  0  0  0  0  0  0  0  0  0
   -2.8853   -0.5922    5.2621 H   0  0  0  0  0  0  0  0  0  0  0  0
   -1.2944   -0.1435    5.8430 H   0  0  0  0  0  0  0  0  0  0  0  0
   -2.5637    1.0590    5.7483 H   0  0  0  0  0  0  0  0  0  0  0  0
   -2.4435    1.4589    3.1669 N   0  0  0  0  0  0  0  0  0  0  0  0
   -2.1966    1.8850    1.8145 C   0  0  2  0  0  0  0  0  0  0  0  0
   -0.8617    1.2996    1.3733 C   0  0  0  0  0  0  0  0  0  0  0  0
    0.0104    0.9468    2.1646 O   0  0  0  0  0  0  0  0  0  0  0  0
   -2.1879    3.4017    1.7050 C   0  0  0  0  0  0  0  0  0  0  0  0
   -3.2085    1.8948    3.6787 H   0  0  0  0  0  0  0  0  0  0  0  0
   -3.0007    1.4665    1.1994 H   0  0  0  0  0  0  0  0  0  0  0  0
   -1.3888    3.8390    2.3147 H   0  0  0  0  0  0  0  0  0  0  0  0
   -2.0284    3.7240    0.6708 H   0  0  0  0  0  0  0  0  0  0  0  0
   -3.1380    3.8230    2.0508 H   0  0  0  0  0  0  0  0  0  0  0  0
   -0.7390    1.2565   -0.0101 N   0  0  0  0  0  0  0  0  0  0  0  0
    0.4383    0.7557   -0.6738 C   0  0  2  0  0  0  0  0  0  0  0  0
    1.6248    1.0325    0.2427 C   0  0  0  0  0  0  0  0  0  0  0  0
    2.7835    0.7572   -0.0613 O   0  0  0  0  0  0  0  0  0  0  0  0
    0.6562    1.4137   -2.0411 C   0  0  0  0  0  0  0  0  0  0  0  0
   -0.4494    1.1041   -3.0206 C   0  0  0  0  0  0  0  0  0  0  0  0
   -0.5563   -0.1226   -3.6304 N   0  3  0  0  0  0  0  0  0  0  0  0
   -1.4828    1.8666   -3.4870 C   0  0  0  0  0  0  0  0  0  0  0  0
   -1.6157   -0.1242   -4.4460 C   0  0  0  0  0  0  0  0  0  0  0  0
   -2.1877    1.0817   -4.3675 N   0  0  0  0  0  0  0  0  0  0  0  0
   -1.5221    1.5532   -0.5874 H   0  0  0  0  0  0  0  0  0  0  0  0
    0.3050   -0.3282   -0.7708 H   0  0  0  0  0  0  0  0  0  0  0  0
    1.6215    1.1030   -2.4633 H   0  0  0  0  0  0  0  0  0  0  0  0
    0.7262    2.5044   -1.9351 H   0  0  0  0  0  0  0  0  0  0  0  0
    0.0708   -0.9096   -3.4879 H   0  0  0  0  0  0  0  0  0  0  0  0
   -1.8329    2.8670   -3.3275 H   0  0  0  0  0  0  0  0  0  0  0  0
   -1.9475   -0.9475   -5.0562 H   0  0  0  0  0  0  0  0  0  0  0  0
   -3.0154    1.3705   -4.8813 H   0  0  0  0  0  0  0  0  0  0  0  0
    1.2388    1.6674    1.4150 N   0  0  0  0  0  0  0  0  0  0  0  0
    2.1702    2.0638    2.4466 C   0  0  2  0  0  0  0  0  0  0  0  0
    3.0508    0.8644    2.7712 C   0  0  0  0  0  0  0  0  0  0  0  0
    2.7157   -0.2957    2.5412 O   0  0  0  0  0  0  0  0  0  0  0  0
    1.4437    2.5567    3.6883 C   0  0  0  0  0  0  0  0  0  0  0  0
    0.2519    1.8632    1.5551 H   0  0  0  0  0  0  0  0  0  0  0  0
    2.7857    2.8662    2.0255 H   0  0  0  0  0  0  0  0  0  0  0  0
    0.8218    1.7664    4.1243 H   0  0  0  0  0  0  0  0  0  0  0  0
    2.1506    2.8834    4.4581 H   0  0  0  0  0  0  0  0  0  0  0  0
    0.7882    3.4004    3.4472 H   0  0  0  0  0  0  0  0  0  0  0  0
    4.2366    1.2391    3.3874 N   0  0  0  0  0  0  0  0  0  0  0  0
    5.2345    0.2822    3.8051 C   0  0  0  0  0  0  0  0  0  0  0  0
    4.4400    2.2252    3.5217 H   0  0  0  0  0  0  0  0  0  0  0  0
    5.0564   -0.0002    4.8532 H   0  0  0  0  0  0  0  0  0  0  0  0
    5.1729   -0.6130    3.1688 H   0  0  0  0  0  0  0  0  0  0  0  0
    6.2345    0.7307    3.7111 H   0  0  0  0  0  0  0  0  0  0  0  0
 22 24  2  0  0  0  0
 24 26  1  0  0  0  0
 25 26  1  0  0  0  0
 23 25  2  0  0  0  0
 21 22  1  0  0  0  0
 22 23  1  0  0  0  0
  1  3  1  0  0  0  0
  1  7  1  0  0  0  0
  1  2  2  0  0  0  0
 36 37  1  0  0  0  0
 37 45  1  0  0  0  0
 37 38  2  0  0  0  0
  8  9  1  0  0  0  0
  9 17  1  0  0  0  0
  9 10  2  0  0  0  0
 18 19  1  0  0  0  0
 19 35  1  0  0  0  0
 19 20  2  0  0  0  0
 36 39  1  0  0  0  0
  8 11  1  0  0  0  0
 45 46  1  0  0  0  0
 18 21  1  0  0  0  0
 35 36  1  0  0  0  0
  7  8  1  0  0  0  0
 17 18  1  0  0  0  0
 24 32  1  0  0  0  0
 25 33  1  0  0  0  0
  3  4  1  0  0  0  0
  3  5  1  0  0  0  0
  3  6  1  0  0  0  0
 39 42  1  0  0  0  0
 39 43  1  0  0  0  0
 39 44  1  0  0  0  0
 11 14  1  0  0  0  0
 11 15  1  0  0  0  0
 11 16  1  0  0  0  0
 46 48  1  0  0  0  0
 46 49  1  0  0  0  0
 46 50  1  0  0  0  0
 21 29  1  0  0  0  0
 21 30  1  0  0  0  0
 36 41  1  0  0  0  0
  8 13  1  0  0  0  0
 18 28  1  0  0  0  0
 26 34  1  0  0  0  0
 23 31  1  0  0  0  0
 45 47  1  0  0  0  0
  7 12  1  0  0  0  0
 35 40  1  0  0  0  0
 17 27  1  0  0  0  0
M  CHG  1  23   1
M  END
$$$$

  -OEChem-05262214473D

 50 50  0     1  0  0  0  0  0999 V2000
   -1.6938    0.4865    3.8080 C   0  0  0  0  0  0  0  0  0  0  0  0
   -0.7464   -0.1282    3.3323 O   0  0  0  0  0  0  0  0  0  0  0  0
   -2.1257    0.2041    5.2087 C   0  0  0  0  0  0  0  0  0  0  0  0
   -2.8853   -0.5922    5.2621 H   0  0  0  0  0  0  0  0  0  0  0  0
   -1.2944   -0.1435    5.8430 H   0  0  0  0  0  0  0  0  0  0  0  0
   -2.5637    1.0590    5.7483 H   0  0  0  0  0  0  0  0  0  0  0  0
   -2.4435    1.4589    3.1669 N   0  0  0  0  0  0  0  0  0  0  0  0
   -2.1966    1.8850    1.8145 C   0  0  2  0  0  0  0  0  0  0  0  0
   -0.8617    1.2996    1.3733 C   0  0  0  0  0  0  0  0  0  0  0  0
    0.0104    0.9468    2.1646 O   0  0  0  0  0  0  0  0  0  0  0  0
   -2.1879    3.4017    1.7050 C   0  0  0  0  0  0  0  0  0  0  0  0
   -3.2085    1.8948    3.6787 H   0  0  0  0  0  0  0  0  0  0  0  0
   -3.0007    1.4665    1.1994 H   0  0  0  0  0  0  0  0  0  0  0  0
   -1.3888    3.8390    2.3147 H   0  0  0  0  0  0  0  0  0  0  0  0
   -2.0284    3.7240    0.6708 H   0  0  0  0  0  0  0  0  0  0  0  0
   -3.1380    3.8230    2.0508 H   0  0  0  0  0  0  0  0  0  0  0  0
   -0.7390    1.2565   -0.0101 N   0  0  0  0  0  0  0  0  0  0  0  0
    0.4383    0.7557   -0.6738 C   0  0  2  0  0  0  0  0  0  0  0  0
    1.6248    1.0325    0.2427 C   0  0  0  0  0  0  0  0  0  0  0  0
    2.7903    1.0123   -0.1471 O   0  0  0  0  0  0  0  0  0  0  0  0
    0.6562    1.4137   -2.0411 C   0  0  0  0  0  0  0  0  0  0  0  0
   -0.4494    1.1041   -3.0206 C   0  0  0  0  0  0  0  0  0  0  0  0
   -0.5563   -0.1226   -3.6304 N   0  3  0  0  0  0  0  0  0  0  0  0
   -1.4828    1.8666   -3.4870 C   0  0  0  0  0  0  0  0  0  0  0  0
   -1.6157   -0.1242   -4.4460 C   0  0  0  0  0  0  0  0  0  0  0  0
   -2.1877    1.0817   -4.3675 N   0  0  0  0  0  0  0  0  0  0  0  0
   -1.5221    1.5532   -0.5874 H   0  0  0  0  0  0  0  0  0  0  0  0
    0.3050   -0.3282   -0.7708 H   0  0  0  0  0  0  0  0  0  0  0  0
    1.6215    1.1030   -2.4633 H   0  0  0  0  0  0  0  0  0  0  0  0
    0.7262    2.5044   -1.9351 H   0  0  0  0  0  0  0  0  0  0  0  0
    0.0708   -0.9096   -3.4879 H   0  0  0  0  0  0  0  0  0  0  0  0
   -1.8329    2.8670   -3.3275 H   0  0  0  0  0  0  0  0  0  0  0  0
   -1.9475   -0.9475   -5.0562 H   0  0  0  0  0  0  0  0  0  0  0  0
   -3.0154    1.3705   -4.8813 H   0  0  0  0  0  0  0  0  0  0  0  0
    1.2220    1.3527    1.5317 N   0  0  0  0  0  0  0  0  0  0  0  0
    2.1461    1.6816    2.5932 C   0  0  2  0  0  0  0  0  0  0  0  0
    3.2161    0.5987    2.6374 C   0  0  0  0  0  0  0  0  0  0  0  0
    3.0459   -0.5314    2.1848 O   0  0  0  0  0  0  0  0  0  0  0  0
    1.4332    1.7962    3.9317 C   0  0  0  0  0  0  0  0  0  0  0  0
    0.2277    1.3562    1.7395 H   0  0  0  0  0  0  0  0  0  0  0  0
    2.6058    2.6395    2.3269 H   0  0  0  0  0  0  0  0  0  0  0  0
    0.9663    0.8460    4.2153 H   0  0  0  0  0  0  0  0  0  0  0  0
    2.1298    2.0734    4.7298 H   0  0  0  0  0  0  0  0  0  0  0  0
    0.6440    2.5547    3.8892 H   0  0  0  0  0  0  0  0  0  0  0  0
    4.3682    1.0295    3.2803 N   0  0  0  0  0  0  0  0  0  0  0  0
    5.5233    0.1816    3.4616 C   0  0  0  0  0  0  0  0  0  0  0  0
    4.4287    1.9892    3.6076 H   0  0  0  0  0  0  0  0  0  0  0  0
    5.4562   -0.3273    4.4345 H   0  0  0  0  0  0  0  0  0  0  0  0
    5.5575   -0.5681    2.6574 H   0  0  0  0  0  0  0  0  0  0  0  0
    6.4363    0.7943    3.4306 H   0  0  0  0  0  0  0  0  0  0  0  0
 22 24  2  0  0  0  0
 24 26  1  0  0  0  0
 25 26  1  0  0  0  0
 23 25  2  0  0  0  0
 21 22  1  0  0  0  0
 22 23  1  0  0  0  0
  1  3  1  0  0  0  0
  1  7  1  0  0  0  0
  1  2  2  0  0  0  0
 36 37  1  0  0  0  0
 37 45  1  0  0  0  0
 37 38  2  0  0  0  0
  8  9  1  0  0  0  0
  9 17  1  0  0  0  0
  9 10  2  0  0  0  0
 18 19  1  0  0  0  0
 19 35  1  0  0  0  0
 19 20  2  0  0  0  0
 36 39  1  0  0  0  0
  8 11  1  0  0  0  0
 45 46  1  0  0  0  0
 18 21  1  0  0  0  0
 35 36  1  0  0  0  0
  7  8  1  0  0  0  0
 17 18  1  0  0  0  0
 24 32  1  0  0  0  0
 25 33  1  0  0  0  0
  3  4  1  0  0  0  0
  3  5  1  0  0  0  0
  3  6  1  0  0  0  0
 39 42  1  0  0  0  0
 39 43  1  0  0  0  0
 39 44  1  0  0  0  0
 11 14  1  0  0  0  0
 11 15  1  0  0  0  0
 11 16  1  0  0  0  0
 46 48  1  0  0  0  0
 46 49  1  0  0  0  0
 46 50  1  0  0  0  0
 21 29  1  0  0  0  0
 21 30  1  0  0  0  0
 36 41  1  0  0  0  0
  8 13  1  0  0  0  0
 18 28  1  0  0  0  0
 26 34  1  0  0  0  0
 23 31  1  0  0  0  0
 45 47  1  0  0  0  0
  7 12  1  0  0  0  0
 35 40  1  0  0  0  0
 17 27  1  0  0  0  0
M  CHG  1  23   1
M  END
$$$$

  -OEChem-05262214473D

 50 50  0     1  0  0  0  0  0999 V2000
   -1.6938    0.4865    3.8080 C   0  0  0  0  0  0  0  0  0  0  0  0
   -0.7464   -0.1282    3.3323 O   0  0  0  0  0  0  0  0  0  0  0  0
   -2.1257    0.2041    5.2087 C   0  0  0  0  0  0  0  0  0  0  0  0
   -2.8853   -0.5922    5.2621 H   0  0  0  0  0  0  0  0  0  0  0  0
   -1.2944   -0.1435    5.8430 H   0  0  0  0  0  0  0  0  0  0  0  0
   -2.5637    1.0590    5.7483 H   0  0  0  0  0  0  0  0  0  0  0  0
   -2.4435    1.4589    3.1669 N   0  0  0  0  0  0  0  0  0  0  0  0
   -2.1966    1.8850    1.8145 C   0  0  2  0  0  0  0  0  0  0  0  0
   -0.8617    1.2996    1.3733 C   0  0  0  0  0  0  0  0  0  0  0  0
    0.0104    0.9468    2.1646 O   0  0  0  0  0  0  0  0  0  0  0  0
   -2.1879    3.4017    1.7050 C   0  0  0  0  0  0  0  0  0  0  0  0
   -3.2085    1.8948    3.6787 H   0  0  0  0  0  0  0  0  0  0  0  0
   -3.0007    1.4665    1.1994 H   0  0  0  0  0  0  0  0  0  0  0  0
   -1.3888    3.8390    2.3147 H   0  0  0  0  0  0  0  0  0  0  0  0
   -2.0284    3.7240    0.6708 H   0  0  0  0  0  0  0  0  0  0  0  0
   -3.1380    3.8230    2.0508 H   0  0  0  0  0  0  0  0  0  0  0  0
   -0.7390    1.2565   -0.0101 N   0  0  0  0  0  0  0  0  0  0  0  0
    0.4383    0.7557   -0.6738 C   0  0  2  0  0  0  0  0  0  0  0  0
    1.6248    1.0325    0.2427 C   0  0  0  0  0  0  0  0  0  0  0  0
    2.7532    1.2769   -0.1790 O   0  0  0  0  0  0  0  0  0  0  0  0
    0.6562    1.4137   -2.0411 C   0  0  0  0  0  0  0  0  0  0  0  0
   -0.4494    1.1041   -3.0206 C   0  0  0  0  0  0  0  0  0  0  0  0
   -0.5563   -0.1226   -3.6304 N   0  3  0  0  0  0  0  0  0  0  0  0
   -1.4828    1.8666   -3.4870 C   0  0  0  0  0  0  0  0  0  0  0  0
   -1.6157   -0.1242   -4.4460 C   0  0  0  0  0  0  0  0  0  0  0  0
   -2.1877    1.0817   -4.3675 N   0  0  0  0  0  0  0  0  0  0  0  0
   -1.5221    1.5532   -0.5874 H   0  0  0  0  0  0  0  0  0  0  0  0
    0.3050   -0.3282   -0.7708 H   0  0  0  0  0  0  0  0  0  0  0  0
    1.6215    1.1030   -2.4633 H   0  0  0  0  0  0  0  0  0  0  0  0
    0.7262    2.5044   -1.9351 H   0  0  0  0  0  0  0  0  0  0  0  0
    0.0708   -0.9096   -3.4879 H   0  0  0  0  0  0  0  0  0  0  0  0
   -1.8329    2.8670   -3.3275 H   0  0  0  0  0  0  0  0  0  0  0  0
   -1.9475   -0.9475   -5.0562 H   0  0  0  0  0  0  0  0  0  0  0  0
   -3.0154    1.3705   -4.8813 H   0  0  0  0  0  0  0  0  0  0  0  0
    1.2603    1.0227    1.5819 N   0  0  0  0  0  0  0  0  0  0  0  0
    2.1891    1.2791    2.6590 C   0  0  2  0  0  0  0  0  0  0  0  0
    3.4109    0.3948    2.4469 C   0  0  0  0  0  0  0  0  0  0  0  0
    3.3848   -0.6359    1.7776 O   0  0  0  0  0  0  0  0  0  0  0  0
    1.5528    1.0110    4.0140 C   0  0  0  0  0  0  0  0  0  0  0  0
    0.2919    0.8255    1.8167 H   0  0  0  0  0  0  0  0  0  0  0  0
    2.4815    2.3319    2.5807 H   0  0  0  0  0  0  0  0  0  0  0  0
    1.2532   -0.0389    4.1110 H   0  0  0  0  0  0  0  0  0  0  0  0
    2.2485    1.2329    4.8300 H   0  0  0  0  0  0  0  0  0  0  0  0
    0.6572    1.6263    4.1526 H   0  0  0  0  0  0  0  0  0  0  0  0
    4.5230    0.8691    3.1284 N   0  0  0  0  0  0  0  0  0  0  0  0
    5.8018    0.1985    3.0959 C   0  0  0  0  0  0  0  0  0  0  0  0
    4.4586    1.7421    3.6435 H   0  0  0  0  0  0  0  0  0  0  0  0
    5.8735   -0.4967    3.9453 H   0  0  0  0  0  0  0  0  0  0  0  0
    5.8979   -0.3620    2.1543 H   0  0  0  0  0  0  0  0  0  0  0  0
    6.6082    0.9437    3.1630 H   0  0  0  0  0  0  0  0  0  0  0  0
 22 24  2  0  0  0  0
 24 26  1  0  0  0  0
 25 26  1  0  0  0  0
 23 25  2  0  0  0  0
 21 22  1  0  0  0  0
 22 23  1  0  0  0  0
  1  3  1  0  0  0  0
  1  7  1  0  0  0  0
  1  2  2  0  0  0  0
 36 37  1  0  0  0  0
 37 45  1  0  0  0  0
 37 38  2  0  0  0  0
  8  9  1  0  0  0  0
  9 17  1  0  0  0  0
  9 10  2  0  0  0  0
 18 19  1  0  0  0  0
 19 35  1  0  0  0  0
 19 20  2  0  0  0  0
 36 39  1  0  0  0  0
  8 11  1  0  0  0  0
 45 46  1  0  0  0  0
 18 21  1  0  0  0  0
 35 36  1  0  0  0  0
  7  8  1  0  0  0  0
 17 18  1  0  0  0  0
 24 32  1  0  0  0  0
 25 33  1  0  0  0  0
  3  4  1  0  0  0  0
  3  5  1  0  0  0  0
  3  6  1  0  0  0  0
 39 42  1  0  0  0  0
 39 43  1  0  0  0  0
 39 44  1  0  0  0  0
 11 14  1  0  0  0  0
 11 15  1  0  0  0  0
 11 16  1  0  0  0  0
 46 48  1  0  0  0  0
 46 49  1  0  0  0  0
 46 50  1  0  0  0  0
 21 29  1  0  0  0  0
 21 30  1  0  0  0  0
 36 41  1  0  0  0  0
  8 13  1  0  0  0  0
 18 28  1  0  0  0  0
 26 34  1  0  0  0  0
 23 31  1  0  0  0  0
 45 47  1  0  0  0  0
  7 12  1  0  0  0  0
 35 40  1  0  0  0  0
 17 27  1  0  0  0  0
M  CHG  1  23   1
M  END
$$$$

  -OEChem-05262214473D

 50 50  0     1  0  0  0  0  0999 V2000
   -1.6938    0.4865    3.8080 C   0  0  0  0  0  0  0  0  0  0  0  0
   -0.7464   -0.1282    3.3323 O   0  0  0  0  0  0  0  0  0  0  0  0
   -2.1257    0.2041    5.2087 C   0  0  0  0  0  0  0  0  0  0  0  0
   -2.8853   -0.5922    5.2621 H   0  0  0  0  0  0  0  0  0  0  0  0
   -1.2944   -0.1435    5.8430 H   0  0  0  0  0  0  0  0  0  0  0  0
   -2.5637    1.0590    5.7483 H   0  0  0  0  0  0  0  0  0  0  0  0
   -2.4435    1.4589    3.1669 N   0  0  0  0  0  0  0  0  0  0  0  0
   -2.1966    1.8850    1.8145 C   0  0  2  0  0  0  0  0  0  0  0  0
   -0.8617    1.2996    1.3733 C   0  0  0  0  0  0  0  0  0  0  0  0
    0.0104    0.9468    2.1646 O   0  0  0  0  0  0  0  0  0  0  0  0
   -2.1879    3.4017    1.7050 C   0  0  0  0  0  0  0  0  0  0  0  0
   -3.2085    1.8948    3.6787 H   0  0  0  0  0  0  0  0  0  0  0  0
   -3.0007    1.4665    1.1994 H   0  0  0  0  0  0  0  0  0  0  0  0
   -1.3888    3.8390    2.3147 H   0  0  0  0  0  0  0  0  0  0  0  0
   -2.0284    3.7240    0.6708 H   0  0  0  0  0  0  0  0  0  0  0  0
   -3.1380    3.8230    2.0508 H   0  0  0  0  0  0  0  0  0  0  0  0
   -0.7390    1.2565   -0.0101 N   0  0  0  0  0  0  0  0  0  0  0  0
    0.4383    0.7557   -0.6738 C   0  0  2  0  0  0  0  0  0  0  0  0
    1.6248    1.0325    0.2427 C   0  0  0  0  0  0  0  0  0  0  0  0
    2.6747    1.5332   -0.1547 O   0  0  0  0  0  0  0  0  0  0  0  0
    0.6562    1.4137   -2.0411 C   0  0  0  0  0  0  0  0  0  0  0  0
   -0.4494    1.1041   -3.0206 C   0  0  0  0  0  0  0  0  0  0  0  0
   -0.5563   -0.1226   -3.6304 N   0  3  0  0  0  0  0  0  0  0  0  0
   -1.4828    1.8666   -3.4870 C   0  0  0  0  0  0  0  0  0  0  0  0
   -1.6157   -0.1242   -4.4460 C   0  0  0  0  0  0  0  0  0  0  0  0
   -2.1877    1.0817   -4.3675 N   0  0  0  0  0  0  0  0  0  0  0  0
   -1.5221    1.5532   -0.5874 H   0  0  0  0  0  0  0  0  0  0  0  0
    0.3050   -0.3282   -0.7708 H   0  0  0  0  0  0  0  0  0  0  0  0
    1.6215    1.1030   -2.4633 H   0  0  0  0  0  0  0  0  0  0  0  0
    0.7262    2.5044   -1.9351 H   0  0  0  0  0  0  0  0  0  0  0  0
    0.0708   -0.9096   -3.4879 H   0  0  0  0  0  0  0  0  0  0  0  0
   -1.8329    2.8670   -3.3275 H   0  0  0  0  0  0  0  0  0  0  0  0
   -1.9475   -0.9475   -5.0562 H   0  0  0  0  0  0  0  0  0  0  0  0
   -3.0154    1.3705   -4.8813 H   0  0  0  0  0  0  0  0  0  0  0  0
    1.3509    0.6998    1.5621 N   0  0  0  0  0  0  0  0  0  0  0  0
    2.2964    0.8837    2.6395 C   0  0  2  0  0  0  0  0  0  0  0  0
    3.6217    0.2665    2.2127 C   0  0  0  0  0  0  0  0  0  0  0  0
    3.7093   -0.6021    1.3473 O   0  0  0  0  0  0  0  0  0  0  0  0
    1.7943    0.2545    3.9298 C   0  0  0  0  0  0  0  0  0  0  0  0
    0.4401    0.3073    1.7814 H   0  0  0  0  0  0  0  0  0  0  0  0
    2.4212    1.9642    2.7698 H   0  0  0  0  0  0  0  0  0  0  0  0
    1.6632   -0.8280    3.8186 H   0  0  0  0  0  0  0  0  0  0  0  0
    2.4986    0.4194    4.7519 H   0  0  0  0  0  0  0  0  0  0  0  0
    0.8267    0.6785    4.2193 H   0  0  0  0  0  0  0  0  0  0  0  0
    4.6903    0.7688    2.9421 N   0  0  0  0  0  0  0  0  0  0  0  0
    6.0510    0.3319    2.7330 C   0  0  0  0  0  0  0  0  0  0  0  0
    4.5276    1.5009    3.6271 H   0  0  0  0  0  0  0  0  0  0  0  0
    6.2800   -0.4968    3.4191 H   0  0  0  0  0  0  0  0  0  0  0  0
    6.1710   -0.0086    1.6940 H   0  0  0  0  0  0  0  0  0  0  0  0
    6.7384    1.1686    2.9265 H   0  0  0  0  0  0  0  0  0  0  0  0
 22 24  2  0  0  0  0
 24 26  1  0  0  0  0
 25 26  1  0  0  0  0
 23 25  2  0  0  0  0
 21 22  1  0  0  0  0
 22 23  1  0  0  0  0
  1  3  1  0  0  0  0
  1  7  1  0  0  0  0
  1  2  2  0  0  0  0
 36 37  1  0  0  0  0
 37 45  1  0  0  0  0
 37 38  2  0  0  0  0
  8  9  1  0  0  0  0
  9 17  1  0  0  0  0
  9 10  2  0  0  0  0
 18 19  1  0  0  0  0
 19 35  1  0  0  0  0
 19 20  2  0  0  0  0
 36 39  1  0  0  0  0
  8 11  1  0  0  0  0
 45 46  1  0  0  0  0
 18 21  1  0  0  0  0
 35 36  1  0  0  0  0
  7  8  1  0  0  0  0
 17 18  1  0  0  0  0
 24 32  1  0  0  0  0
 25 33  1  0  0  0  0
  3  4  1  0  0  0  0
  3  5  1  0  0  0  0
  3  6  1  0  0  0  0
 39 42  1  0  0  0  0
 39 43  1  0  0  0  0
 39 44  1  0  0  0  0
 11 14  1  0  0  0  0
 11 15  1  0  0  0  0
 11 16  1  0  0  0  0
 46 48  1  0  0  0  0
 46 49  1  0  0  0  0
 46 50  1  0  0  0  0
 21 29  1  0  0  0  0
 21 30  1  0  0  0  0
 36 41  1  0  0  0  0
  8 13  1  0  0  0  0
 18 28  1  0  0  0  0
 26 34  1  0  0  0  0
 23 31  1  0  0  0  0
 45 47  1  0  0  0  0
  7 12  1  0  0  0  0
 35 40  1  0  0  0  0
 17 27  1  0  0  0  0
M  CHG  1  23   1
M  END
$$$$

  -OEChem-05262214473D

 50 50  0     1  0  0  0  0  0999 V2000
   -1.6938    0.4865    3.8080 C   0  0  0  0  0  0  0  0  0  0  0  0
   -0.7464   -0.1282    3.3323 O   0  0  0  0  0  0  0  0  0  0  0  0
   -2.1257    0.2041    5.2087 C   0  0  0  0  0  0  0  0  0  0  0  0
   -2.8853   -0.5922    5.2621 H   0  0  0  0  0  0  0  0  0  0  0  0
   -1.2944   -0.1435    5.8430 H   0  0  0  0  0  0  0  0  0  0  0  0
   -2.5637    1.0590    5.7483 H   0  0  0  0  0  0  0  0  0  0  0  0
   -2.4435    1.4589    3.1669 N   0  0  0  0  0  0  0  0  0  0  0  0
   -2.1966    1.8850    1.8145 C   0  0  2  0  0  0  0  0  0  0  0  0
   -0.8617    1.2996    1.3733 C   0  0  0  0  0  0  0  0  0  0  0  0
    0.0104    0.9468    2.1646 O   0  0  0  0  0  0  0  0  0  0  0  0
   -2.1879    3.4017    1.7050 C   0  0  0  0  0  0  0  0  0  0  0  0
   -3.2085    1.8948    3.6787 H   0  0  0  0  0  0  0  0  0  0  0  0
   -3.0007    1.4665    1.1994 H   0  0  0  0  0  0  0  0  0  0  0  0
   -1.3888    3.8390    2.3147 H   0  0  0  0  0  0  0  0  0  0  0  0
   -2.0284    3.7240    0.6708 H   0  0  0  0  0  0  0  0  0  0  0  0
   -3.1380    3.8230    2.0508 H   0  0  0  0  0  0  0  0  0  0  0  0
   -0.7390    1.2565   -0.0101 N   0  0  0  0  0  0  0  0  0  0  0  0
    0.4383    0.7557   -0.6738 C   0  0  2  0  0  0  0  0  0  0  0  0
    1.6248    1.0325    0.2427 C   0  0  0  0  0  0  0  0  0  0  0  0
    2.5600    1.7637   -0.0759 O   0  0  0  0  0  0  0  0  0  0  0  0
    0.6562    1.4137   -2.0411 C   0  0  0  0  0  0  0  0  0  0  0  0
   -0.4494    1.1041   -3.0206 C   0  0  0  0  0  0  0  0  0  0  0  0
   -0.5563   -0.1226   -3.6304 N   0  3  0  0  0  0  0  0  0  0  0  0
   -1.4828    1.8666   -3.4870 C   0  0  0  0  0  0  0  0  0  0  0  0
   -1.6157   -0.1242   -4.4460 C   0  0  0  0  0  0  0  0  0  0  0  0
   -2.1877    1.0817   -4.3675 N   0  0  0  0  0  0  0  0  0  0  0  0
   -1.5221    1.5532   -0.5874 H   0  0  0  0  0  0  0  0  0  0  0  0
    0.3050   -0.3282   -0.7708 H   0  0  0  0  0  0  0  0  0  0  0  0
    1.6215    1.1030   -2.4633 H   0  0  0  0  0  0  0  0  0  0  0  0
    0.7262    2.5044   -1.9351 H   0  0  0  0  0  0  0  0  0  0  0  0
    0.0708   -0.9096   -3.4879 H   0  0  0  0  0  0  0  0  0  0  0  0
   -1.8329    2.8670   -3.3275 H   0  0  0  0  0  0  0  0  0  0  0  0
   -1.9475   -0.9475   -5.0562 H   0  0  0  0  0  0  0  0  0  0  0  0
   -3.0154    1.3705   -4.8813 H   0  0  0  0  0  0  0  0  0  0  0  0
    1.4878    0.4060    1.4736 N   0  0  0  0  0  0  0  0  0  0  0  0
    2.4607    0.5225    2.5360 C   0  0  2  0  0  0  0  0  0  0  0  0
    3.8344    0.2226    1.9507 C   0  0  0  0  0  0  0  0  0  0  0  0
    3.9973   -0.4323    0.9232 O   0  0  0  0  0  0  0  0  0  0  0  0
    2.1414   -0.4216    3.6847 C   0  0  0  0  0  0  0  0  0  0  0  0
    0.6622   -0.1630    1.6359 H   0  0  0  0  0  0  0  0  0  0  0  0
    2.4291    1.5616    2.8812 H   0  0  0  0  0  0  0  0  0  0  0  0
    2.1683   -1.4675    3.3579 H   0  0  0  0  0  0  0  0  0  0  0  0
    2.8630   -0.3117    4.5009 H   0  0  0  0  0  0  0  0  0  0  0  0
    1.1411   -0.2241    4.0849 H   0  0  0  0  0  0  0  0  0  0  0  0
    4.8587    0.7355    2.7341 N   0  0  0  0  0  0  0  0  0  0  0  0
    6.2538    0.5726    2.3977 C   0  0  0  0  0  0  0  0  0  0  0  0
    4.6309    1.2820    3.5594 H   0  0  0  0  0  0  0  0  0  0  0  0
    6.6479   -0.3278    2.8917 H   0  0  0  0  0  0  0  0  0  0  0  0
    6.3583    0.4680    1.3077 H   0  0  0  0  0  0  0  0  0  0  0  0
    6.8181    1.4537    2.7372 H   0  0  0  0  0  0  0  0  0  0  0  0
 22 24  2  0  0  0  0
 24 26  1  0  0  0  0
 25 26  1  0  0  0  0
 23 25  2  0  0  0  0
 21 22  1  0  0  0  0
 22 23  1  0  0  0  0
  1  3  1  0  0  0  0
  1  7  1  0  0  0  0
  1  2  2  0  0  0  0
 36 37  1  0  0  0  0
 37 45  1  0  0  0  0
 37 38  2  0  0  0  0
  8  9  1  0  0  0  0
  9 17  1  0  0  0  0
  9 10  2  0  0  0  0
 18 19  1  0  0  0  0
 19 35  1  0  0  0  0
 19 20  2  0  0  0  0
 36 39  1  0  0  0  0
  8 11  1  0  0  0  0
 45 46  1  0  0  0  0
 18 21  1  0  0  0  0
 35 36  1  0  0  0  0
  7  8  1  0  0  0  0
 17 18  1  0  0  0  0
 24 32  1  0  0  0  0
 25 33  1  0  0  0  0
  3  4  1  0  0  0  0
  3  5  1  0  0  0  0
  3  6  1  0  0  0  0
 39 42  1  0  0  0  0
 39 43  1  0  0  0  0
 39 44  1  0  0  0  0
 11 14  1  0  0  0  0
 11 15  1  0  0  0  0
 11 16  1  0  0  0  0
 46 48  1  0  0  0  0
 46 49  1  0  0  0  0
 46 50  1  0  0  0  0
 21 29  1  0  0  0  0
 21 30  1  0  0  0  0
 36 41  1  0  0  0  0
  8 13  1  0  0  0  0
 18 28  1  0  0  0  0
 26 34  1  0  0  0  0
 23 31  1  0  0  0  0
 45 47  1  0  0  0  0
  7 12  1  0  0  0  0
 35 40  1  0  0  0  0
 17 27  1  0  0  0  0
M  CHG  1  23   1
M  END
$$$$

  -OEChem-05262214473D

 50 50  0     1  0  0  0  0  0999 V2000
   -1.6938    0.4865    3.8080 C   0  0  0  0  0  0  0  0  0  0  0  0
   -0.7464   -0.1282    3.3323 O   0  0  0  0  0  0  0  0  0  0  0  0
   -2.1257    0.2041    5.2087 C   0  0  0  0  0  0  0  0  0  0  0  0
   -2.8853   -0.5922    5.2621 H   0  0  0  0  0  0  0  0  0  0  0  0
   -1.2944   -0.1435    5.8430 H   0  0  0  0  0  0  0  0  0  0  0  0
   -2.5637    1.0590    5.7483 H   0  0  0  0  0  0  0  0  0  0  0  0
   -2.4435    1.4589    3.1669 N   0  0  0  0  0  0  0  0  0  0  0  0
   -2.1966    1.8850    1.8145 C   0  0  2  0  0  0  0  0  0  0  0  0
   -0.8617    1.2996    1.3733 C   0  0  0  0  0  0  0  0  0  0  0  0
    0.0104    0.9468    2.1646 O   0  0  0  0  0  0  0  0  0  0  0  0
   -2.1879    3.4017    1.7050 C   0  0  0  0  0  0  0  0  0  0  0  0
   -3.2085    1.8948    3.6787 H   0  0  0  0  0  0  0  0  0  0  0  0
   -3.0007    1.4665    1.1994 H   0  0  0  0  0  0  0  0  0  0  0  0
   -1.3888    3.8390    2.3147 H   0  0  0  0  0  0  0  0  0  0  0  0
   -2.0284    3.7240    0.6708 H   0  0  0  0  0  0  0  0  0  0  0  0
   -3.1380    3.8230    2.0508 H   0  0  0  0  0  0  0  0  0  0  0  0
   -0.7390    1.2565   -0.0101 N   0  0  0  0  0  0  0  0  0  0  0  0
    0.4383    0.7557   -0.6738 C   0  0  2  0  0  0  0  0  0  0  0  0
    1.6248    1.0325    0.2427 C   0  0  0  0  0  0  0  0  0  0  0  0
    2.4172    1.9526    0.0520 O   0  0  0  0  0  0  0  0  0  0  0  0
    0.6562    1.4137   -2.0411 C   0  0  0  0  0  0  0  0  0  0  0  0
   -0.4494    1.1041   -3.0206 C   0  0  0  0  0  0  0  0  0  0  0  0
   -0.5563   -0.1226   -3.6304 N   0  3  0  0  0  0  0  0  0  0  0  0
   -1.4828    1.8666   -3.4870 C   0  0  0  0  0  0  0  0  0  0  0  0
   -1.6157   -0.1242   -4.4460 C   0  0  0  0  0  0  0  0  0  0  0  0
   -2.1877    1.0817   -4.3675 N   0  0  0  0  0  0  0  0  0  0  0  0
   -1.5221    1.5532   -0.5874 H   0  0  0  0  0  0  0  0  0  0  0  0
    0.3050   -0.3282   -0.7708 H   0  0  0  0  0  0  0  0  0  0  0  0
    1.6215    1.1030   -2.4633 H   0  0  0  0  0  0  0  0  0  0  0  0
    0.7262    2.5044   -1.9351 H   0  0  0  0  0  0  0  0  0  0  0  0
    0.0708   -0.9096   -3.4879 H   0  0  0  0  0  0  0  0  0  0  0  0
   -1.8329    2.8670   -3.3275 H   0  0  0  0  0  0  0  0  0  0  0  0
   -1.9475   -0.9475   -5.0562 H   0  0  0  0  0  0  0  0  0  0  0  0
   -3.0154    1.3705   -4.8813 H   0  0  0  0  0  0  0  0  0  0  0  0
    1.6615    0.1613    1.3225 N   0  0  0  0  0  0  0  0  0  0  0  0
    2.6707    0.2200    2.3555 C   0  0  2  0  0  0  0  0  0  0  0  0
    4.0343    0.2660    1.6788 C   0  0  0  0  0  0  0  0  0  0  0  0
    4.2291   -0.1380    0.5342 O   0  0  0  0  0  0  0  0  0  0  0  0
    2.5703   -0.9713    3.2954 C   0  0  0  0  0  0  0  0  0  0  0  0
    0.9430   -0.5535    1.3902 H   0  0  0  0  0  0  0  0  0  0  0  0
    2.5046    1.1516    2.9074 H   0  0  0  0  0  0  0  0  0  0  0  0
    2.7339   -1.9139    2.7604 H   0  0  0  0  0  0  0  0  0  0  0  0
    3.3170   -0.9107    4.0940 H   0  0  0  0  0  0  0  0  0  0  0  0
    1.5789   -1.0199    3.7586 H   0  0  0  0  0  0  0  0  0  0  0  0
    5.0169    0.7715    2.5185 N   0  0  0  0  0  0  0  0  0  0  0  0
    6.3966    0.9042    2.1127 C   0  0  0  0  0  0  0  0  0  0  0  0
    4.7616    1.1002    3.4451 H   0  0  0  0  0  0  0  0  0  0  0  0
    6.9522   -0.0010    2.3990 H   0  0  0  0  0  0  0  0  0  0  0  0
    6.4468    1.0353    1.0217 H   0  0  0  0  0  0  0  0  0  0  0  0
    6.8418    1.7796    2.6081 H   0  0  0  0  0  0  0  0  0  0  0  0
 22 24  2  0  0  0  0
 24 26  1  0  0  0  0
 25 26  1  0  0  0  0
 23 25  2  0  0  0  0
 21 22  1  0  0  0  0
 22 23  1  0  0  0  0
  1  3  1  0  0  0  0
  1  7  1  0  0  0  0
  1  2  2  0  0  0  0
 36 37  1  0  0  0  0
 37 45  1  0  0  0  0
 37 38  2  0  0  0  0
  8  9  1  0  0  0  0
  9 17  1  0  0  0  0
  9 10  2  0  0  0  0
 18 19  1  0  0  0  0
 19 35  1  0  0  0  0
 19 20  2  0  0  0  0
 36 39  1  0  0  0  0
  8 11  1  0  0  0  0
 45 46  1  0  0  0  0
 18 21  1  0  0  0  0
 35 36  1  0  0  0  0
  7  8  1  0  0  0  0
 17 18  1  0  0  0  0
 24 32  1  0  0  0  0
 25 33  1  0  0  0  0
  3  4  1  0  0  0  0
  3  5  1  0  0  0  0
  3  6  1  0  0  0  0
 39 42  1  0  0  0  0
 39 43  1  0  0  0  0
 39 44  1  0  0  0  0
 11 14  1  0  0  0  0
 11 15  1  0  0  0  0
 11 16  1  0  0  0  0
 46 48  1  0  0  0  0
 46 49  1  0  0  0  0
 46 50  1  0  0  0  0
 21 29  1  0  0  0  0
 21 30  1  0  0  0  0
 36 41  1  0  0  0  0
  8 13  1  0  0  0  0
 18 28  1  0  0  0  0
 26 34  1  0  0  0  0
 23 31  1  0  0  0  0
 45 47  1  0  0  0  0
  7 12  1  0  0  0  0
 35 40  1  0  0  0  0
 17 27  1  0  0  0  0
M  CHG  1  23   1
M  END
$$$$

  -OEChem-05262214473D

 50 50  0     1  0  0  0  0  0999 V2000
   -1.6938    0.4865    3.8080 C   0  0  0  0  0  0  0  0  0  0  0  0
   -0.7464   -0.1282    3.3323 O   0  0  0  0  0  0  0  0  0  0  0  0
   -2.1257    0.2041    5.2087 C   0  0  0  0  0  0  0  0  0  0  0  0
   -2.8853   -0.5922    5.2621 H   0  0  0  0  0  0  0  0  0  0  0  0
   -1.2944   -0.1435    5.8430 H   0  0  0  0  0  0  0  0  0  0  0  0
   -2.5637    1.0590    5.7483 H   0  0  0  0  0  0  0  0  0  0  0  0
   -2.4435    1.4589    3.1669 N   0  0  0  0  0  0  0  0  0  0  0  0
   -2.1966    1.8850    1.8145 C   0  0  2  0  0  0  0  0  0  0  0  0
   -0.8617    1.2996    1.3733 C   0  0  0  0  0  0  0  0  0  0  0  0
    0.0104    0.9468    2.1646 O   0  0  0  0  0  0  0  0  0  0  0  0
   -2.1879    3.4017    1.7050 C   0  0  0  0  0  0  0  0  0  0  0  0
   -3.2085    1.8948    3.6787 H   0  0  0  0  0  0  0  0  0  0  0  0
   -3.0007    1.4665    1.1994 H   0  0  0  0  0  0  0  0  0  0  0  0
   -1.3888    3.8390    2.3147 H   0  0  0  0  0  0  0  0  0  0  0  0
   -2.0284    3.7240    0.6708 H   0  0  0  0  0  0  0  0  0  0  0  0
   -3.1380    3.8230    2.0508 H   0  0  0  0  0  0  0  0  0  0  0  0
   -0.7390    1.2565   -0.0101 N   0  0  0  0  0  0  0  0  0  0  0  0
    0.4383    0.7557   -0.6738 C   0  0  2  0  0  0  0  0  0  0  0  0
    1.6248    1.0325    0.2427 C   0  0  0  0  0  0  0  0  0  0  0  0
    2.2558    2.0871    0.2203 O   0  0  0  0  0  0  0  0  0  0  0  0
    0.6562    1.4137   -2.0411 C   0  0  0  0  0  0  0  0  0  0  0  0
   -0.4494    1.1041   -3.0206 C   0  0  0  0  0  0  0  0  0  0  0  0
   -0.5563   -0.1226   -3.6304 N   0  3  0  0  0  0  0  0  0  0  0  0
   -1.4828    1.8666   -3.4870 C   0  0  0  0  0  0  0  0  0  0  0  0
   -1.6157   -0.1242   -4.4460 C   0  0  0  0  0  0  0  0  0  0  0  0
   -2.1877    1.0817   -4.3675 N   0  0  0  0  0  0  0  0  0  0  0  0
   -1.5221    1.5532   -0.5874 H   0  0  0  0  0  0  0  0  0  0  0  0
    0.3050   -0.3282   -0.7708 H   0  0  0  0  0  0  0  0  0  0  0  0
    1.6215    1.1030   -2.4633 H   0  0  0  0  0  0  0  0  0  0  0  0
    0.7262    2.5044   -1.9351 H   0  0  0  0  0  0  0  0  0  0  0  0
    0.0708   -0.9096   -3.4879 H   0  0  0  0  0  0  0  0  0  0  0  0
   -1.8329    2.8670   -3.3275 H   0  0  0  0  0  0  0  0  0  0  0  0
   -1.9475   -0.9475   -5.0562 H   0  0  0  0  0  0  0  0  0  0  0  0
   -3.0154    1.3705   -4.8813 H   0  0  0  0  0  0  0  0  0  0  0  0
    1.8604   -0.0176    1.1192 N   0  0  0  0  0  0  0  0  0  0  0  0
    2.9121   -0.0032    2.1104 C   0  0  2  0  0  0  0  0  0  0  0  0
    4.2078    0.3938    1.4154 C   0  0  0  0  0  0  0  0  0  0  0  0
    4.3889    0.2607    0.2069 O   0  0  0  0  0  0  0  0  0  0  0  0
    3.0518   -1.3572    2.7885 C   0  0  0  0  0  0  0  0  0  0  0  0
    1.2635   -0.8375    1.0611 H   0  0  0  0  0  0  0  0  0  0  0  0
    2.6425    0.7619    2.8465 H   0  0  0  0  0  0  0  0  0  0  0  0
    3.3217   -2.1367    2.0667 H   0  0  0  0  0  0  0  0  0  0  0  0
    3.8296   -1.3367    3.5590 H   0  0  0  0  0  0  0  0  0  0  0  0
    2.1102   -1.6547    3.2624 H   0  0  0  0  0  0  0  0  0  0  0  0
    5.1539    0.8742    2.3101 N   0  0  0  0  0  0  0  0  0  0  0  0
    6.4695    1.3041    1.8975 C   0  0  0  0  0  0  0  0  0  0  0  0
    4.9108    0.9680    3.2919 H   0  0  0  0  0  0  0  0  0  0  0  0
    7.1722    0.4613    1.9747 H   0  0  0  0  0  0  0  0  0  0  0  0
    6.4306    1.6546    0.8556 H   0  0  0  0  0  0  0  0  0  0  0  0
    6.8079    2.1241    2.5479 H   0  0  0  0  0  0  0  0  0  0  0  0
 22 24  2  0  0  0  0
 24 26  1  0  0  0  0
 25 26  1  0  0  0  0
 23 25  2  0  0  0  0
 21 22  1  0  0  0  0
 22 23  1  0  0  0  0
  1  3  1  0  0  0  0
  1  7  1  0  0  0  0
  1  2  2  0  0  0  0
 36 37  1  0  0  0  0
 37 45  1  0  0  0  0
 37 38  2  0  0  0  0
  8  9  1  0  0  0  0
  9 17  1  0  0  0  0
  9 10  2  0  0  0  0
 18 19  1  0  0  0  0
 19 35  1  0  0  0  0
 19 20  2  0  0  0  0
 36 39  1  0  0  0  0
  8 11  1  0  0  0  0
 45 46  1  0  0  0  0
 18 21  1  0  0  0  0
 35 36  1  0  0  0  0
  7  8  1  0  0  0  0
 17 18  1  0  0  0  0
 24 32  1  0  0  0  0
 25 33  1  0  0  0  0
  3  4  1  0  0  0  0
  3  5  1  0  0  0  0
  3  6  1  0  0  0  0
 39 42  1  0  0  0  0
 39 43  1  0  0  0  0
 39 44  1  0  0  0  0
 11 14  1  0  0  0  0
 11 15  1  0  0  0  0
 11 16  1  0  0  0  0
 46 48  1  0  0  0  0
 46 49  1  0  0  0  0
 46 50  1  0  0  0  0
 21 29  1  0  0  0  0
 21 30  1  0  0  0  0
 36 41  1  0  0  0  0
  8 13  1  0  0  0  0
 18 28  1  0  0  0  0
 26 34  1  0  0  0  0
 23 31  1  0  0  0  0
 45 47  1  0  0  0  0
  7 12  1  0  0  0  0
 35 40  1  0  0  0  0
 17 27  1  0  0  0  0
M  CHG  1  23   1
M  END
$$$$

  -OEChem-05262214473D

 50 50  0     1  0  0  0  0  0999 V2000
   -1.6938    0.4865    3.8080 C   0  0  0  0  0  0  0  0  0  0  0  0
   -0.7464   -0.1282    3.3323 O   0  0  0  0  0  0  0  0  0  0  0  0
   -2.1257    0.2041    5.2087 C   0  0  0  0  0  0  0  0  0  0  0  0
   -2.8853   -0.5922    5.2621 H   0  0  0  0  0  0  0  0  0  0  0  0
   -1.2944   -0.1435    5.8430 H   0  0  0  0  0  0  0  0  0  0  0  0
   -2.5637    1.0590    5.7483 H   0  0  0  0  0  0  0  0  0  0  0  0
   -2.4435    1.4589    3.1669 N   0  0  0  0  0  0  0  0  0  0  0  0
   -2.1966    1.8850    1.8145 C   0  0  2  0  0  0  0  0  0  0  0  0
   -0.8617    1.2996    1.3733 C   0  0  0  0  0  0  0  0  0  0  0  0
    0.0104    0.9468    2.1646 O   0  0  0  0  0  0  0  0  0  0  0  0
   -2.1879    3.4017    1.7050 C   0  0  0  0  0  0  0  0  0  0  0  0
   -3.2085    1.8948    3.6787 H   0  0  0  0  0  0  0  0  0  0  0  0
   -3.0007    1.4665    1.1994 H   0  0  0  0  0  0  0  0  0  0  0  0
   -1.3888    3.8390    2.3147 H   0  0  0  0  0  0  0  0  0  0  0  0
   -2.0284    3.7240    0.6708 H   0  0  0  0  0  0  0  0  0  0  0  0
   -3.1380    3.8230    2.0508 H   0  0  0  0  0  0  0  0  0  0  0  0
   -0.7390    1.2565   -0.0101 N   0  0  0  0  0  0  0  0  0  0  0  0
    0.4383    0.7557   -0.6738 C   0  0  2  0  0  0  0  0  0  0  0  0
    1.6248    1.0325    0.2427 C   0  0  0  0  0  0  0  0  0  0  0  0
    2.0869    2.1580    0.4175 O   0  0  0  0  0  0  0  0  0  0  0  0
    0.6562    1.4137   -2.0411 C   0  0  0  0  0  0  0  0  0  0  0  0
   -0.4494    1.1041   -3.0206 C   0  0  0  0  0  0  0  0  0  0  0  0
   -0.5563   -0.1226   -3.6304 N   0  3  0  0  0  0  0  0  0  0  0  0
   -1.4828    1.8666   -3.4870 C   0  0  0  0  0  0  0  0  0  0  0  0
   -1.6157   -0.1242   -4.4460 C   0  0  0  0  0  0  0  0  0  0  0  0
   -2.1877    1.0817   -4.3675 N   0  0  0  0  0  0  0  0  0  0  0  0
   -1.5221    1.5532   -0.5874 H   0  0  0  0  0  0  0  0  0  0  0  0
    0.3050   -0.3282   -0.7708 H   0  0  0  0  0  0  0  0  0  0  0  0
    1.6215    1.1030   -2.4633 H   0  0  0  0  0  0  0  0  0  0  0  0
    0.7262    2.5044   -1.9351 H   0  0  0  0  0  0  0  0  0  0  0  0
    0.0708   -0.9096   -3.4879 H   0  0  0  0  0  0  0  0  0  0  0  0
   -1.8329    2.8670   -3.3275 H   0  0  0  0  0  0  0  0  0  0  0  0
   -1.9475   -0.9475   -5.0562 H   0  0  0  0  0  0  0  0  0  0  0  0
   -3.0154    1.3705   -4.8813 H   0  0  0  0  0  0  0  0  0  0  0  0
    2.0707   -0.1185    0.8774 N   0  0  0  0  0  0  0  0  0  0  0  0
    3.1685   -0.1319    1.8173 C   0  0  2  0  0  0  0  0  0  0  0  0
    4.3432    0.5973    1.1787 C   0  0  0  0  0  0  0  0  0  0  0  0
    4.4659    0.7365   -0.0365 O   0  0  0  0  0  0  0  0  0  0  0  0
    3.5532   -1.5529    2.1986 C   0  0  0  0  0  0  0  0  0  0  0  0
    1.6018   -0.9956    0.6709 H   0  0  0  0  0  0  0  0  0  0  0  0
    2.8335    0.4193    2.7027 H   0  0  0  0  0  0  0  0  0  0  0  0
    3.8915   -2.1207    1.3242 H   0  0  0  0  0  0  0  0  0  0  0  0
    4.3659   -1.5606    2.9324 H   0  0  0  0  0  0  0  0  0  0  0  0
    2.6989   -2.0854    2.6304 H   0  0  0  0  0  0  0  0  0  0  0  0
    5.2604    1.0367    2.1231 N   0  0  0  0  0  0  0  0  0  0  0  0
    6.4676    1.7451    1.7668 C   0  0  0  0  0  0  0  0  0  0  0  0
    5.0683    0.8943    3.1103 H   0  0  0  0  0  0  0  0  0  0  0  0
    7.2928    1.0275    1.6476 H   0  0  0  0  0  0  0  0  0  0  0  0
    6.3108    2.2838    0.8207 H   0  0  0  0  0  0  0  0  0  0  0  0
    6.7187    2.4638    2.5607 H   0  0  0  0  0  0  0  0  0  0  0  0
 22 24  2  0  0  0  0
 24 26  1  0  0  0  0
 25 26  1  0  0  0  0
 23 25  2  0  0  0  0
 21 22  1  0  0  0  0
 22 23  1  0  0  0  0
  1  3  1  0  0  0  0
  1  7  1  0  0  0  0
  1  2  2  0  0  0  0
 36 37  1  0  0  0  0
 37 45  1  0  0  0  0
 37 38  2  0  0  0  0
  8  9  1  0  0  0  0
  9 17  1  0  0  0  0
  9 10  2  0  0  0  0
 18 19  1  0  0  0  0
 19 35  1  0  0  0  0
 19 20  2  0  0  0  0
 36 39  1  0  0  0  0
  8 11  1  0  0  0  0
 45 46  1  0  0  0  0
 18 21  1  0  0  0  0
 35 36  1  0  0  0  0
  7  8  1  0  0  0  0
 17 18  1  0  0  0  0
 24 32  1  0  0  0  0
 25 33  1  0  0  0  0
  3  4  1  0  0  0  0
  3  5  1  0  0  0  0
  3  6  1  0  0  0  0
 39 42  1  0  0  0  0
 39 43  1  0  0  0  0
 39 44  1  0  0  0  0
 11 14  1  0  0  0  0
 11 15  1  0  0  0  0
 11 16  1  0  0  0  0
 46 48  1  0  0  0  0
 46 49  1  0  0  0  0
 46 50  1  0  0  0  0
 21 29  1  0  0  0  0
 21 30  1  0  0  0  0
 36 41  1  0  0  0  0
  8 13  1  0  0  0  0
 18 28  1  0  0  0  0
 26 34  1  0  0  0  0
 23 31  1  0  0  0  0
 45 47  1  0  0  0  0
  7 12  1  0  0  0  0
 35 40  1  0  0  0  0
 17 27  1  0  0  0  0
M  CHG  1  23   1
M  END
$$$$

  -OEChem-05262214473D

 50 50  0     1  0  0  0  0  0999 V2000
   -1.6938    0.4865    3.8080 C   0  0  0  0  0  0  0  0  0  0  0  0
   -0.7464   -0.1282    3.3323 O   0  0  0  0  0  0  0  0  0  0  0  0
   -2.1257    0.2041    5.2087 C   0  0  0  0  0  0  0  0  0  0  0  0
   -2.8853   -0.5922    5.2621 H   0  0  0  0  0  0  0  0  0  0  0  0
   -1.2944   -0.1435    5.8430 H   0  0  0  0  0  0  0  0  0  0  0  0
   -2.5637    1.0590    5.7483 H   0  0  0  0  0  0  0  0  0  0  0  0
   -2.4435    1.4589    3.1669 N   0  0  0  0  0  0  0  0  0  0  0  0
   -2.1966    1.8850    1.8145 C   0  0  2  0  0  0  0  0  0  0  0  0
   -0.8617    1.2996    1.3733 C   0  0  0  0  0  0  0  0  0  0  0  0
    0.0104    0.9468    2.1646 O   0  0  0  0  0  0  0  0  0  0  0  0
   -2.1879    3.4017    1.7050 C   0  0  0  0  0  0  0  0  0  0  0  0
   -3.2085    1.8948    3.6787 H   0  0  0  0  0  0  0  0  0  0  0  0
   -3.0007    1.4665    1.1994 H   0  0  0  0  0  0  0  0  0  0  0  0
   -1.3888    3.8390    2.3147 H   0  0  0  0  0  0  0  0  0  0  0  0
   -2.0284    3.7240    0.6708 H   0  0  0  0  0  0  0  0  0  0  0  0
   -3.1380    3.8230    2.0508 H   0  0  0  0  0  0  0  0  0  0  0  0
   -0.7390    1.2565   -0.0101 N   0  0  0  0  0  0  0  0  0  0  0  0
    0.4383    0.7557   -0.6738 C   0  0  2  0  0  0  0  0  0  0  0  0
    1.6248    1.0325    0.2427 C   0  0  0  0  0  0  0  0  0  0  0  0
    1.9220    2.1605    0.6303 O   0  0  0  0  0  0  0  0  0  0  0  0
    0.6562    1.4137   -2.0411 C   0  0  0  0  0  0  0  0  0  0  0  0
   -0.4494    1.1041   -3.0206 C   0  0  0  0  0  0  0  0  0  0  0  0
   -0.5563   -0.1226   -3.6304 N   0  3  0  0  0  0  0  0  0  0  0  0
   -1.4828    1.8666   -3.4870 C   0  0  0  0  0  0  0  0  0  0  0  0
   -1.6157   -0.1242   -4.4460 C   0  0  0  0  0  0  0  0  0  0  0  0
   -2.1877    1.0817   -4.3675 N   0  0  0  0  0  0  0  0  0  0  0  0
   -1.5221    1.5532   -0.5874 H   0  0  0  0  0  0  0  0  0  0  0  0
    0.3050   -0.3282   -0.7708 H   0  0  0  0  0  0  0  0  0  0  0  0
    1.6215    1.1030   -2.4633 H   0  0  0  0  0  0  0  0  0  0  0  0
    0.7262    2.5044   -1.9351 H   0  0  0  0  0  0  0  0  0  0  0  0
    0.0708   -0.9096   -3.4879 H   0  0  0  0  0  0  0  0  0  0  0  0
   -1.8329    2.8670   -3.3275 H   0  0  0  0  0  0  0  0  0  0  0  0
   -1.9475   -0.9475   -5.0562 H   0  0  0  0  0  0  0  0  0  0  0  0
   -3.0154    1.3705   -4.8813 H   0  0  0  0  0  0  0  0  0  0  0  0
    2.2782   -0.1345    0.6136 N   0  0  0  0  0  0  0  0  0  0  0  0
    3.4224   -0.1572    1.4962 C   0  0  2  0  0  0  0  0  0  0  0  0
    4.4312    0.8626    0.9846 C   0  0  0  0  0  0  0  0  0  0  0  0
    4.4548    1.2572   -0.1793 O   0  0  0  0  0  0  0  0  0  0  0  0
    4.0401   -1.5451    1.5658 C   0  0  0  0  0  0  0  0  0  0  0  0
    1.9349   -1.0171    0.2462 H   0  0  0  0  0  0  0  0  0  0  0  0
    3.0645    0.1470    2.4859 H   0  0  0  0  0  0  0  0  0  0  0  0
    4.4045   -1.8670    0.5834 H   0  0  0  0  0  0  0  0  0  0  0  0
    4.8893   -1.5672    2.2568 H   0  0  0  0  0  0  0  0  0  0  0  0
    3.3048   -2.2824    1.9055 H   0  0  0  0  0  0  0  0  0  0  0  0
    5.3293    1.2480    1.9701 N   0  0  0  0  0  0  0  0  0  0  0  0
    6.3910    2.1970    1.7294 C   0  0  0  0  0  0  0  0  0  0  0  0
    5.2233    0.8843    2.9126 H   0  0  0  0  0  0  0  0  0  0  0  0
    7.3058    1.6590    1.4400 H   0  0  0  0  0  0  0  0  0  0  0  0
    6.0956    2.8799    0.9193 H   0  0  0  0  0  0  0  0  0  0  0  0
    6.5804    2.7754    2.6457 H   0  0  0  0  0  0  0  0  0  0  0  0
 22 24  2  0  0  0  0
 24 26  1  0  0  0  0
 25 26  1  0  0  0  0
 23 25  2  0  0  0  0
 21 22  1  0  0  0  0
 22 23  1  0  0  0  0
  1  3  1  0  0  0  0
  1  7  1  0  0  0  0
  1  2  2  0  0  0  0
 36 37  1  0  0  0  0
 37 45  1  0  0  0  0
 37 38  2  0  0  0  0
  8  9  1  0  0  0  0
  9 17  1  0  0  0  0
  9 10  2  0  0  0  0
 18 19  1  0  0  0  0
 19 35  1  0  0  0  0
 19 20  2  0  0  0  0
 36 39  1  0  0  0  0
  8 11  1  0  0  0  0
 45 46  1  0  0  0  0
 18 21  1  0  0  0  0
 35 36  1  0  0  0  0
  7  8  1  0  0  0  0
 17 18  1  0  0  0  0
 24 32  1  0  0  0  0
 25 33  1  0  0  0  0
  3  4  1  0  0  0  0
  3  5  1  0  0  0  0
  3  6  1  0  0  0  0
 39 42  1  0  0  0  0
 39 43  1  0  0  0  0
 39 44  1  0  0  0  0
 11 14  1  0  0  0  0
 11 15  1  0  0  0  0
 11 16  1  0  0  0  0
 46 48  1  0  0  0  0
 46 49  1  0  0  0  0
 46 50  1  0  0  0  0
 21 29  1  0  0  0  0
 21 30  1  0  0  0  0
 36 41  1  0  0  0  0
  8 13  1  0  0  0  0
 18 28  1  0  0  0  0
 26 34  1  0  0  0  0
 23 31  1  0  0  0  0
 45 47  1  0  0  0  0
  7 12  1  0  0  0  0
 35 40  1  0  0  0  0
 17 27  1  0  0  0  0
M  CHG  1  23   1
M  END
$$$$

  -OEChem-05262214473D

 50 50  0     1  0  0  0  0  0999 V2000
   -1.6938    0.4865    3.8080 C   0  0  0  0  0  0  0  0  0  0  0  0
   -0.7464   -0.1282    3.3323 O   0  0  0  0  0  0  0  0  0  0  0  0
   -2.1257    0.2041    5.2087 C   0  0  0  0  0  0  0  0  0  0  0  0
   -2.8853   -0.5922    5.2621 H   0  0  0  0  0  0  0  0  0  0  0  0
   -1.2944   -0.1435    5.8430 H   0  0  0  0  0  0  0  0  0  0  0  0
   -2.5637    1.0590    5.7483 H   0  0  0  0  0  0  0  0  0  0  0  0
   -2.4435    1.4589    3.1669 N   0  0  0  0  0  0  0  0  0  0  0  0
   -2.1966    1.8850    1.8145 C   0  0  2  0  0  0  0  0  0  0  0  0
   -0.8617    1.2996    1.3733 C   0  0  0  0  0  0  0  0  0  0  0  0
    0.0104    0.9468    2.1646 O   0  0  0  0  0  0  0  0  0  0  0  0
   -2.1879    3.4017    1.7050 C   0  0  0  0  0  0  0  0  0  0  0  0
   -3.2085    1.8948    3.6787 H   0  0  0  0  0  0  0  0  0  0  0  0
   -3.0007    1.4665    1.1994 H   0  0  0  0  0  0  0  0  0  0  0  0
   -1.3888    3.8390    2.3147 H   0  0  0  0  0  0  0  0  0  0  0  0
   -2.0284    3.7240    0.6708 H   0  0  0  0  0  0  0  0  0  0  0  0
   -3.1380    3.8230    2.0508 H   0  0  0  0  0  0  0  0  0  0  0  0
   -0.7390    1.2565   -0.0101 N   0  0  0  0  0  0  0  0  0  0  0  0
    0.4383    0.7557   -0.6738 C   0  0  2  0  0  0  0  0  0  0  0  0
    1.6248    1.0325    0.2427 C   0  0  0  0  0  0  0  0  0  0  0  0
    1.7724    2.0943    0.8440 O   0  0  0  0  0  0  0  0  0  0  0  0
    0.6562    1.4137   -2.0411 C   0  0  0  0  0  0  0  0  0  0  0  0
   -0.4494    1.1041   -3.0206 C   0  0  0  0  0  0  0  0  0  0  0  0
   -0.5563   -0.1226   -3.6304 N   0  3  0  0  0  0  0  0  0  0  0  0
   -1.4828    1.8666   -3.4870 C   0  0  0  0  0  0  0  0  0  0  0  0
   -1.6157   -0.1242   -4.4460 C   0  0  0  0  0  0  0  0  0  0  0  0
   -2.1877    1.0817   -4.3675 N   0  0  0  0  0  0  0  0  0  0  0  0
   -1.5221    1.5532   -0.5874 H   0  0  0  0  0  0  0  0  0  0  0  0
    0.3050   -0.3282   -0.7708 H   0  0  0  0  0  0  0  0  0  0  0  0
    1.6215    1.1030   -2.4633 H   0  0  0  0  0  0  0  0  0  0  0  0
    0.7262    2.5044   -1.9351 H   0  0  0  0  0  0  0  0  0  0  0  0
    0.0708   -0.9096   -3.4879 H   0  0  0  0  0  0  0  0  0  0  0  0
   -1.8329    2.8670   -3.3275 H   0  0  0  0  0  0  0  0  0  0  0  0
   -1.9475   -0.9475   -5.0562 H   0  0  0  0  0  0  0  0  0  0  0  0
   -3.0154    1.3705   -4.8813 H   0  0  0  0  0  0  0  0  0  0  0  0
    2.4687   -0.0646    0.3458 N   0  0  0  0  0  0  0  0  0  0  0  0
    3.6565   -0.0775    1.1691 C   0  0  2  0  0  0  0  0  0  0  0  0
    4.4658    1.1717    0.8465 C   0  0  0  0  0  0  0  0  0  0  0  0
    4.3563    1.7871   -0.2119 O   0  0  0  0  0  0  0  0  0  0  0  0
    4.4796   -1.3343    0.9332 C   0  0  0  0  0  0  0  0  0  0  0  0
    2.2399   -0.9005   -0.1840 H   0  0  0  0  0  0  0  0  0  0  0  0
    3.3198   -0.0364    2.2107 H   0  0  0  0  0  0  0  0  0  0  0  0
    4.8258   -1.3930   -0.1051 H   0  0  0  0  0  0  0  0  0  0  0  0
    5.3642   -1.3561    1.5782 H   0  0  0  0  0  0  0  0  0  0  0  0
    3.8866   -2.2325    1.1371 H   0  0  0  0  0  0  0  0  0  0  0  0
    5.3557    1.4936    1.8617 N   0  0  0  0  0  0  0  0  0  0  0  0
    6.2450    2.6292    1.7880 C   0  0  0  0  0  0  0  0  0  0  0  0
    5.3653    0.9385    2.7123 H   0  0  0  0  0  0  0  0  0  0  0  0
    7.2103    2.3129    1.3660 H   0  0  0  0  0  0  0  0  0  0  0  0
    5.7995    3.4024    1.1447 H   0  0  0  0  0  0  0  0  0  0  0  0
    6.4023    3.0377    2.7971 H   0  0  0  0  0  0  0  0  0  0  0  0
 22 24  2  0  0  0  0
 24 26  1  0  0  0  0
 25 26  1  0  0  0  0
 23 25  2  0  0  0  0
 21 22  1  0  0  0  0
 22 23  1  0  0  0  0
  1  3  1  0  0  0  0
  1  7  1  0  0  0  0
  1  2  2  0  0  0  0
 36 37  1  0  0  0  0
 37 45  1  0  0  0  0
 37 38  2  0  0  0  0
  8  9  1  0  0  0  0
  9 17  1  0  0  0  0
  9 10  2  0  0  0  0
 18 19  1  0  0  0  0
 19 35  1  0  0  0  0
 19 20  2  0  0  0  0
 36 39  1  0  0  0  0
  8 11  1  0  0  0  0
 45 46  1  0  0  0  0
 18 21  1  0  0  0  0
 35 36  1  0  0  0  0
  7  8  1  0  0  0  0
 17 18  1  0  0  0  0
 24 32  1  0  0  0  0
 25 33  1  0  0  0  0
  3  4  1  0  0  0  0
  3  5  1  0  0  0  0
  3  6  1  0  0  0  0
 39 42  1  0  0  0  0
 39 43  1  0  0  0  0
 39 44  1  0  0  0  0
 11 14  1  0  0  0  0
 11 15  1  0  0  0  0
 11 16  1  0  0  0  0
 46 48  1  0  0  0  0
 46 49  1  0  0  0  0
 46 50  1  0  0  0  0
 21 29  1  0  0  0  0
 21 30  1  0  0  0  0
 36 41  1  0  0  0  0
  8 13  1  0  0  0  0
 18 28  1  0  0  0  0
 26 34  1  0  0  0  0
 23 31  1  0  0  0  0
 45 47  1  0  0  0  0
  7 12  1  0  0  0  0
 35 40  1  0  0  0  0
 17 27  1  0  0  0  0
M  CHG  1  23   1
M  END
$$$$

  -OEChem-05262214473D

 50 50  0     1  0  0  0  0  0999 V2000
   -1.6938    0.4865    3.8080 C   0  0  0  0  0  0  0  0  0  0  0  0
   -0.7464   -0.1282    3.3323 O   0  0  0  0  0  0  0  0  0  0  0  0
   -2.1257    0.2041    5.2087 C   0  0  0  0  0  0  0  0  0  0  0  0
   -2.8853   -0.5922    5.2621 H   0  0  0  0  0  0  0  0  0  0  0  0
   -1.2944   -0.1435    5.8430 H   0  0  0  0  0  0  0  0  0  0  0  0
   -2.5637    1.0590    5.7483 H   0  0  0  0  0  0  0  0  0  0  0  0
   -2.4435    1.4589    3.1669 N   0  0  0  0  0  0  0  0  0  0  0  0
   -2.1966    1.8850    1.8145 C   0  0  2  0  0  0  0  0  0  0  0  0
   -0.8617    1.2996    1.3733 C   0  0  0  0  0  0  0  0  0  0  0  0
    0.0104    0.9468    2.1646 O   0  0  0  0  0  0  0  0  0  0  0  0
   -2.1879    3.4017    1.7050 C   0  0  0  0  0  0  0  0  0  0  0  0
   -3.2085    1.8948    3.6787 H   0  0  0  0  0  0  0  0  0  0  0  0
   -3.0007    1.4665    1.1994 H   0  0  0  0  0  0  0  0  0  0  0  0
   -1.3888    3.8390    2.3147 H   0  0  0  0  0  0  0  0  0  0  0  0
   -2.0284    3.7240    0.6708 H   0  0  0  0  0  0  0  0  0  0  0  0
   -3.1380    3.8230    2.0508 H   0  0  0  0  0  0  0  0  0  0  0  0
   -0.7390    1.2565   -0.0101 N   0  0  0  0  0  0  0  0  0  0  0  0
    0.4383    0.7557   -0.6738 C   0  0  2  0  0  0  0  0  0  0  0  0
    1.6248    1.0325    0.2427 C   0  0  0  0  0  0  0  0  0  0  0  0
    1.6481    1.9641    1.0442 O   0  0  0  0  0  0  0  0  0  0  0  0
    0.6562    1.4137   -2.0411 C   0  0  0  0  0  0  0  0  0  0  0  0
   -0.4494    1.1041   -3.0206 C   0  0  0  0  0  0  0  0  0  0  0  0
   -0.5563   -0.1226   -3.6304 N   0  3  0  0  0  0  0  0  0  0  0  0
   -1.4828    1.8666   -3.4870 C   0  0  0  0  0  0  0  0  0  0  0  0
   -1.6157   -0.1242   -4.4460 C   0  0  0  0  0  0  0  0  0  0  0  0
   -2.1877    1.0817   -4.3675 N   0  0  0  0  0  0  0  0  0  0  0  0
   -1.5221    1.5532   -0.5874 H   0  0  0  0  0  0  0  0  0  0  0  0
    0.3050   -0.3282   -0.7708 H   0  0  0  0  0  0  0  0  0  0  0  0
    1.6215    1.1030   -2.4633 H   0  0  0  0  0  0  0  0  0  0  0  0
    0.7262    2.5044   -1.9351 H   0  0  0  0  0  0  0  0  0  0  0  0
    0.0708   -0.9096   -3.4879 H   0  0  0  0  0  0  0  0  0  0  0  0
   -1.8329    2.8670   -3.3275 H   0  0  0  0  0  0  0  0  0  0  0  0
   -1.9475   -0.9475   -5.0562 H   0  0  0  0  0  0  0  0  0  0  0  0
   -3.0154    1.3705   -4.8813 H   0  0  0  0  0  0  0  0  0  0  0  0
    2.6292    0.0865    0.0923 N   0  0  0  0  0  0  0  0  0  0  0  0
    3.8548    0.1018    0.8581 C   0  0  2  0  0  0  0  0  0  0  0  0
    4.4446    1.5034    0.7737 C   0  0  0  0  0  0  0  0  0  0  0  0
    4.1772    2.2903   -0.1320 O   0  0  0  0  0  0  0  0  0  0  0  0
    4.8415   -0.9349    0.3440 C   0  0  0  0  0  0  0  0  0  0  0  0
    2.4963   -0.6538   -0.5903 H   0  0  0  0  0  0  0  0  0  0  0  0
    3.5821   -0.1184    1.8959 H   0  0  0  0  0  0  0  0  0  0  0  0
    5.1265   -0.7308   -0.6945 H   0  0  0  0  0  0  0  0  0  0  0  0
    5.7581   -0.9417    0.9430 H   0  0  0  0  0  0  0  0  0  0  0  0
    4.4048   -1.9389    0.3776 H   0  0  0  0  0  0  0  0  0  0  0  0
    5.3380    1.7567    1.8052 N   0  0  0  0  0  0  0  0  0  0  0  0
    6.0394    3.0122    1.9384 C   0  0  0  0  0  0  0  0  0  0  0  0
    5.4847    1.0533    2.5232 H   0  0  0  0  0  0  0  0  0  0  0  0
    7.0129    2.9445    1.4308 H   0  0  0  0  0  0  0  0  0  0  0  0
    5.4429    3.8156    1.4816 H   0  0  0  0  0  0  0  0  0  0  0  0
    6.1965    3.2329    3.0046 H   0  0  0  0  0  0  0  0  0  0  0  0
 22 24  2  0  0  0  0
 24 26  1  0  0  0  0
 25 26  1  0  0  0  0
 23 25  2  0  0  0  0
 21 22  1  0  0  0  0
 22 23  1  0  0  0  0
  1  3  1  0  0  0  0
  1  7  1  0  0  0  0
  1  2  2  0  0  0  0
 36 37  1  0  0  0  0
 37 45  1  0  0  0  0
 37 38  2  0  0  0  0
  8  9  1  0  0  0  0
  9 17  1  0  0  0  0
  9 10  2  0  0  0  0
 18 19  1  0  0  0  0
 19 35  1  0  0  0  0
 19 20  2  0  0  0  0
 36 39  1  0  0  0  0
  8 11  1  0  0  0  0
 45 46  1  0  0  0  0
 18 21  1  0  0  0  0
 35 36  1  0  0  0  0
  7  8  1  0  0  0  0
 17 18  1  0  0  0  0
 24 32  1  0  0  0  0
 25 33  1  0  0  0  0
  3  4  1  0  0  0  0
  3  5  1  0  0  0  0
  3  6  1  0  0  0  0
 39 42  1  0  0  0  0
 39 43  1  0  0  0  0
 39 44  1  0  0  0  0
 11 14  1  0  0  0  0
 11 15  1  0  0  0  0
 11 16  1  0  0  0  0
 46 48  1  0  0  0  0
 46 49  1  0  0  0  0
 46 50  1  0  0  0  0
 21 29  1  0  0  0  0
 21 30  1  0  0  0  0
 36 41  1  0  0  0  0
  8 13  1  0  0  0  0
 18 28  1  0  0  0  0
 26 34  1  0  0  0  0
 23 31  1  0  0  0  0
 45 47  1  0  0  0  0
  7 12  1  0  0  0  0
 35 40  1  0  0  0  0
 17 27  1  0  0  0  0
M  CHG  1  23   1
M  END
$$$$

  -OEChem-05262214473D

 50 50  0     1  0  0  0  0  0999 V2000
   -1.6938    0.4865    3.8080 C   0  0  0  0  0  0  0  0  0  0  0  0
   -0.7464   -0.1282    3.3323 O   0  0  0  0  0  0  0  0  0  0  0  0
   -2.1257    0.2041    5.2087 C   0  0  0  0  0  0  0  0  0  0  0  0
   -2.8853   -0.5922    5.2621 H   0  0  0  0  0  0  0  0  0  0  0  0
   -1.2944   -0.1435    5.8430 H   0  0  0  0  0  0  0  0  0  0  0  0
   -2.5637    1.0590    5.7483 H   0  0  0  0  0  0  0  0  0  0  0  0
   -2.4435    1.4589    3.1669 N   0  0  0  0  0  0  0  0  0  0  0  0
   -2.1966    1.8850    1.8145 C   0  0  2  0  0  0  0  0  0  0  0  0
   -0.8617    1.2996    1.3733 C   0  0  0  0  0  0  0  0  0  0  0  0
    0.0104    0.9468    2.1646 O   0  0  0  0  0  0  0  0  0  0  0  0
   -2.1879    3.4017    1.7050 C   0  0  0  0  0  0  0  0  0  0  0  0
   -3.2085    1.8948    3.6787 H   0  0  0  0  0  0  0  0  0  0  0  0
   -3.0007    1.4665    1.1994 H   0  0  0  0  0  0  0  0  0  0  0  0
   -1.3888    3.8390    2.3147 H   0  0  0  0  0  0  0  0  0  0  0  0
   -2.0284    3.7240    0.6708 H   0  0  0  0  0  0  0  0  0  0  0  0
   -3.1380    3.8230    2.0508 H   0  0  0  0  0  0  0  0  0  0  0  0
   -0.7390    1.2565   -0.0101 N   0  0  0  0  0  0  0  0  0  0  0  0
    0.4383    0.7557   -0.6738 C   0  0  2  0  0  0  0  0  0  0  0  0
    1.6248    1.0325    0.2427 C   0  0  0  0  0  0  0  0  0  0  0  0
    1.5578    1.7787    1.2171 O   0  0  0  0  0  0  0  0  0  0  0  0
    0.6562    1.4137   -2.0411 C   0  0  0  0  0  0  0  0  0  0  0  0
   -0.4494    1.1041   -3.0206 C   0  0  0  0  0  0  0  0  0  0  0  0
   -0.5563   -0.1226   -3.6304 N   0  3  0  0  0  0  0  0  0  0  0  0
   -1.4828    1.8666   -3.4870 C   0  0  0  0  0  0  0  0  0  0  0  0
   -1.6157   -0.1242   -4.4460 C   0  0  0  0  0  0  0  0  0  0  0  0
   -2.1877    1.0817   -4.3675 N   0  0  0  0  0  0  0  0  0  0  0  0
   -1.5221    1.5532   -0.5874 H   0  0  0  0  0  0  0  0  0  0  0  0
    0.3050   -0.3282   -0.7708 H   0  0  0  0  0  0  0  0  0  0  0  0
    1.6215    1.1030   -2.4633 H   0  0  0  0  0  0  0  0  0  0  0  0
    0.7262    2.5044   -1.9351 H   0  0  0  0  0  0  0  0  0  0  0  0
    0.0708   -0.9096   -3.4879 H   0  0  0  0  0  0  0  0  0  0  0  0
   -1.8329    2.8670   -3.3275 H   0  0  0  0  0  0  0  0  0  0  0  0
   -1.9475   -0.9475   -5.0562 H   0  0  0  0  0  0  0  0  0  0  0  0
   -3.0154    1.3705   -4.8813 H   0  0  0  0  0  0  0  0  0  0  0  0
    2.7489    0.3085   -0.1297 N   0  0  0  0  0  0  0  0  0  0  0  0
    4.0039    0.3685    0.5845 C   0  0  2  0  0  0  0  0  0  0  0  0
    4.3692    1.8352    0.7712 C   0  0  0  0  0  0  0  0  0  0  0  0
    3.9297    2.7324    0.0549 O   0  0  0  0  0  0  0  0  0  0  0  0
    5.1013   -0.3742   -0.1617 C   0  0  0  0  0  0  0  0  0  0  0  0
    2.6864   -0.2938   -0.9452 H   0  0  0  0  0  0  0  0  0  0  0  0
    3.8333   -0.0934    1.5631 H   0  0  0  0  0  0  0  0  0  0  0  0
    5.2864    0.0742   -1.1446 H   0  0  0  0  0  0  0  0  0  0  0  0
    6.0443   -0.3521    0.3945 H   0  0  0  0  0  0  0  0  0  0  0  0
    4.8239   -1.4218   -0.3212 H   0  0  0  0  0  0  0  0  0  0  0  0
    5.2772    2.0195    1.8045 N   0  0  0  0  0  0  0  0  0  0  0  0
    5.7883    3.3198    2.1706 C   0  0  0  0  0  0  0  0  0  0  0  0
    5.5732    1.2209    2.3580 H   0  0  0  0  0  0  0  0  0  0  0  0
    6.7270    3.5109    1.6299 H   0  0  0  0  0  0  0  0  0  0  0  0
    5.0500    4.0914    1.9071 H   0  0  0  0  0  0  0  0  0  0  0  0
    5.9771    3.3477    3.2539 H   0  0  0  0  0  0  0  0  0  0  0  0
 22 24  2  0  0  0  0
 24 26  1  0  0  0  0
 25 26  1  0  0  0  0
 23 25  2  0  0  0  0
 21 22  1  0  0  0  0
 22 23  1  0  0  0  0
  1  3  1  0  0  0  0
  1  7  1  0  0  0  0
  1  2  2  0  0  0  0
 36 37  1  0  0  0  0
 37 45  1  0  0  0  0
 37 38  2  0  0  0  0
  8  9  1  0  0  0  0
  9 17  1  0  0  0  0
  9 10  2  0  0  0  0
 18 19  1  0  0  0  0
 19 35  1  0  0  0  0
 19 20  2  0  0  0  0
 36 39  1  0  0  0  0
  8 11  1  0  0  0  0
 45 46  1  0  0  0  0
 18 21  1  0  0  0  0
 35 36  1  0  0  0  0
  7  8  1  0  0  0  0
 17 18  1  0  0  0  0
 24 32  1  0  0  0  0
 25 33  1  0  0  0  0
  3  4  1  0  0  0  0
  3  5  1  0  0  0  0
  3  6  1  0  0  0  0
 39 42  1  0  0  0  0
 39 43  1  0  0  0  0
 39 44  1  0  0  0  0
 11 14  1  0  0  0  0
 11 15  1  0  0  0  0
 11 16  1  0  0  0  0
 46 48  1  0  0  0  0
 46 49  1  0  0  0  0
 46 50  1  0  0  0  0
 21 29  1  0  0  0  0
 21 30  1  0  0  0  0
 36 41  1  0  0  0  0
  8 13  1  0  0  0  0
 18 28  1  0  0  0  0
 26 34  1  0  0  0  0
 23 31  1  0  0  0  0
 45 47  1  0  0  0  0
  7 12  1  0  0  0  0
 35 40  1  0  0  0  0
 17 27  1  0  0  0  0
M  CHG  1  23   1
M  END
$$$$

  -OEChem-05262214473D

 50 50  0     1  0  0  0  0  0999 V2000
   -1.6938    0.4865    3.8080 C   0  0  0  0  0  0  0  0  0  0  0  0
   -0.7464   -0.1282    3.3323 O   0  0  0  0  0  0  0  0  0  0  0  0
   -2.1257    0.2041    5.2087 C   0  0  0  0  0  0  0  0  0  0  0  0
   -2.8853   -0.5922    5.2621 H   0  0  0  0  0  0  0  0  0  0  0  0
   -1.2944   -0.1435    5.8430 H   0  0  0  0  0  0  0  0  0  0  0  0
   -2.5637    1.0590    5.7483 H   0  0  0  0  0  0  0  0  0  0  0  0
   -2.4435    1.4589    3.1669 N   0  0  0  0  0  0  0  0  0  0  0  0
   -2.1966    1.8850    1.8145 C   0  0  2  0  0  0  0  0  0  0  0  0
   -0.8617    1.2996    1.3733 C   0  0  0  0  0  0  0  0  0  0  0  0
    0.0104    0.9468    2.1646 O   0  0  0  0  0  0  0  0  0  0  0  0
   -2.1879    3.4017    1.7050 C   0  0  0  0  0  0  0  0  0  0  0  0
   -3.2085    1.8948    3.6787 H   0  0  0  0  0  0  0  0  0  0  0  0
   -3.0007    1.4665    1.1994 H   0  0  0  0  0  0  0  0  0  0  0  0
   -1.3888    3.8390    2.3147 H   0  0  0  0  0  0  0  0  0  0  0  0
   -2.0284    3.7240    0.6708 H   0  0  0  0  0  0  0  0  0  0  0  0
   -3.1380    3.8230    2.0508 H   0  0  0  0  0  0  0  0  0  0  0  0
   -0.7390    1.2565   -0.0101 N   0  0  0  0  0  0  0  0  0  0  0  0
    0.4383    0.7557   -0.6738 C   0  0  2  0  0  0  0  0  0  0  0  0
    1.5475    0.6826    0.3696 C   0  0  0  0  0  0  0  0  0  0  0  0
    1.3744    0.9721    1.5516 O   0  0  0  0  0  0  0  0  0  0  0  0
    0.8663    1.6475   -1.8449 C   0  0  0  0  0  0  0  0  0  0  0  0
   -0.1601    1.6914   -2.9505 C   0  0  0  0  0  0  0  0  0  0  0  0
   -0.3375    0.6408   -3.8182 N   0  3  0  0  0  0  0  0  0  0  0  0
   -1.0503    2.6603   -3.3187 C   0  0  0  0  0  0  0  0  0  0  0  0
   -1.3012    0.9438   -4.6939 C   0  0  0  0  0  0  0  0  0  0  0  0
   -1.7427    2.1711   -4.4001 N   0  0  0  0  0  0  0  0  0  0  0  0
   -1.5221    1.5532   -0.5874 H   0  0  0  0  0  0  0  0  0  0  0  0
    0.1978   -0.2586   -1.0135 H   0  0  0  0  0  0  0  0  0  0  0  0
    1.8300    1.3087   -2.2487 H   0  0  0  0  0  0  0  0  0  0  0  0
    1.0440    2.6747   -1.4998 H   0  0  0  0  0  0  0  0  0  0  0  0
    0.1817   -0.2327   -3.8019 H   0  0  0  0  0  0  0  0  0  0  0  0
   -1.3033    3.6430   -2.9735 H   0  0  0  0  0  0  0  0  0  0  0  0
   -1.6567    0.3136   -5.4919 H   0  0  0  0  0  0  0  0  0  0  0  0
   -2.4766    2.6637   -4.9013 H   0  0  0  0  0  0  0  0  0  0  0  0
    2.7361    0.2086   -0.1680 N   0  0  0  0  0  0  0  0  0  0  0  0
    3.9396    0.0206    0.6098 C   0  0  2  0  0  0  0  0  0  0  0  0
    4.1980    1.3008    1.3932 C   0  0  0  0  0  0  0  0  0  0  0  0
    3.7456    2.3941    1.0599 O   0  0  0  0  0  0  0  0  0  0  0  0
    5.1252   -0.3214   -0.2791 C   0  0  0  0  0  0  0  0  0  0  0  0
    2.7614   -0.0175   -1.1580 H   0  0  0  0  0  0  0  0  0  0  0  0
    3.7407   -0.8008    1.3067 H   0  0  0  0  0  0  0  0  0  0  0  0
    5.3396    0.4900   -0.9842 H   0  0  0  0  0  0  0  0  0  0  0  0
    6.0297   -0.4915    0.3140 H   0  0  0  0  0  0  0  0  0  0  0  0
    4.9257   -1.2258   -0.8639 H   0  0  0  0  0  0  0  0  0  0  0  0
    5.0288    1.0864    2.4841 N   0  0  0  0  0  0  0  0  0  0  0  0
    5.4324    2.1474    3.3771 C   0  0  0  0  0  0  0  0  0  0  0  0
    5.3417    0.1437    2.6962 H   0  0  0  0  0  0  0  0  0  0  0  0
    6.3876    2.5720    3.0347 H   0  0  0  0  0  0  0  0  0  0  0  0
    4.6632    2.9336    3.3836 H   0  0  0  0  0  0  0  0  0  0  0  0
    5.5538    1.7447    4.3935 H   0  0  0  0  0  0  0  0  0  0  0  0
 22 24  2  0  0  0  0
 24 26  1  0  0  0  0
 25 26  1  0  0  0  0
 23 25  2  0  0  0  0
 21 22  1  0  0  0  0
 22 23  1  0  0  0  0
  1  3  1  0  0  0  0
  1  7  1  0  0  0  0
  1  2  2  0  0  0  0
 36 37  1  0  0  0  0
 37 45  1  0  0  0  0
 37 38  2  0  0  0  0
  8  9  1  0  0  0  0
  9 17  1  0  0  0  0
  9 10  2  0  0  0  0
 18 19  1  0  0  0  0
 19 35  1  0  0  0  0
 19 20  2  0  0  0  0
 36 39  1  0  0  0  0
  8 11  1  0  0  0  0
 45 46  1  0  0  0  0
 18 21  1  0  0  0  0
 35 36  1  0  0  0  0
  7  8  1  0  0  0  0
 17 18  1  0  0  0  0
 24 32  1  0  0  0  0
 25 33  1  0  0  0  0
  3  4  1  0  0  0  0
  3  5  1  0  0  0  0
  3  6  1  0  0  0  0
 39 42  1  0  0  0  0
 39 43  1  0  0  0  0
 39 44  1  0  0  0  0
 11 14  1  0  0  0  0
 11 15  1  0  0  0  0
 11 16  1  0  0  0  0
 46 48  1  0  0  0  0
 46 49  1  0  0  0  0
 46 50  1  0  0  0  0
 21 29  1  0  0  0  0
 21 30  1  0  0  0  0
 36 41  1  0  0  0  0
  8 13  1  0  0  0  0
 18 28  1  0  0  0  0
 26 34  1  0  0  0  0
 23 31  1  0  0  0  0
 45 47  1  0  0  0  0
  7 12  1  0  0  0  0
 35 40  1  0  0  0  0
 17 27  1  0  0  0  0
M  CHG  1  23   1
M  END
$$$$

  -OEChem-05262214473D

 50 50  0     1  0  0  0  0  0999 V2000
   -1.6938    0.4865    3.8080 C   0  0  0  0  0  0  0  0  0  0  0  0
   -0.7464   -0.1282    3.3323 O   0  0  0  0  0  0  0  0  0  0  0  0
   -2.1257    0.2041    5.2087 C   0  0  0  0  0  0  0  0  0  0  0  0
   -2.8853   -0.5922    5.2621 H   0  0  0  0  0  0  0  0  0  0  0  0
   -1.2944   -0.1435    5.8430 H   0  0  0  0  0  0  0  0  0  0  0  0
   -2.5637    1.0590    5.7483 H   0  0  0  0  0  0  0  0  0  0  0  0
   -2.4435    1.4589    3.1669 N   0  0  0  0  0  0  0  0  0  0  0  0
   -2.1966    1.8850    1.8145 C   0  0  2  0  0  0  0  0  0  0  0  0
   -0.8617    1.2996    1.3733 C   0  0  0  0  0  0  0  0  0  0  0  0
    0.0104    0.9468    2.1646 O   0  0  0  0  0  0  0  0  0  0  0  0
   -2.1879    3.4017    1.7050 C   0  0  0  0  0  0  0  0  0  0  0  0
   -3.2085    1.8948    3.6787 H   0  0  0  0  0  0  0  0  0  0  0  0
   -3.0007    1.4665    1.1994 H   0  0  0  0  0  0  0  0  0  0  0  0
   -1.3888    3.8390    2.3147 H   0  0  0  0  0  0  0  0  0  0  0  0
   -2.0284    3.7240    0.6708 H   0  0  0  0  0  0  0  0  0  0  0  0
   -3.1380    3.8230    2.0508 H   0  0  0  0  0  0  0  0  0  0  0  0
   -0.7390    1.2565   -0.0101 N   0  0  0  0  0  0  0  0  0  0  0  0
    0.4383    0.7557   -0.6738 C   0  0  2  0  0  0  0  0  0  0  0  0
    1.5475    0.6826    0.3696 C   0  0  0  0  0  0  0  0  0  0  0  0
    1.3309    0.7079    1.5793 O   0  0  0  0  0  0  0  0  0  0  0  0
    0.8663    1.6475   -1.8449 C   0  0  0  0  0  0  0  0  0  0  0  0
   -0.1601    1.6914   -2.9505 C   0  0  0  0  0  0  0  0  0  0  0  0
   -0.3375    0.6408   -3.8182 N   0  3  0  0  0  0  0  0  0  0  0  0
   -1.0503    2.6603   -3.3187 C   0  0  0  0  0  0  0  0  0  0  0  0
   -1.3012    0.9438   -4.6939 C   0  0  0  0  0  0  0  0  0  0  0  0
   -1.7427    2.1711   -4.4001 N   0  0  0  0  0  0  0  0  0  0  0  0
   -1.5221    1.5532   -0.5874 H   0  0  0  0  0  0  0  0  0  0  0  0
    0.1978   -0.2586   -1.0135 H   0  0  0  0  0  0  0  0  0  0  0  0
    1.8300    1.3087   -2.2487 H   0  0  0  0  0  0  0  0  0  0  0  0
    1.0440    2.6747   -1.4998 H   0  0  0  0  0  0  0  0  0  0  0  0
    0.1817   -0.2327   -3.8019 H   0  0  0  0  0  0  0  0  0  0  0  0
   -1.3033    3.6430   -2.9735 H   0  0  0  0  0  0  0  0  0  0  0  0
   -1.6567    0.3136   -5.4919 H   0  0  0  0  0  0  0  0  0  0  0  0
   -2.4766    2.6637   -4.9013 H   0  0  0  0  0  0  0  0  0  0  0  0
    2.7991    0.5357   -0.2121 N   0  0  0  0  0  0  0  0  0  0  0  0
    4.0204    0.4185    0.5518 C   0  0  2  0  0  0  0  0  0  0  0  0
    4.0499    1.5523    1.5683 C   0  0  0  0  0  0  0  0  0  0  0  0
    3.4082    2.5919    1.4324 O   0  0  0  0  0  0  0  0  0  0  0  0
    5.2438    0.4651   -0.3502 C   0  0  0  0  0  0  0  0  0  0  0  0
    2.8598    0.5092   -1.2257 H   0  0  0  0  0  0  0  0  0  0  0  0
    3.9743   -0.5420    1.0765 H   0  0  0  0  0  0  0  0  0  0  0  0
    5.3070    1.4202   -0.8843 H   0  0  0  0  0  0  0  0  0  0  0  0
    6.1670    0.3475    0.2270 H   0  0  0  0  0  0  0  0  0  0  0  0
    5.2062   -0.3329   -1.0996 H   0  0  0  0  0  0  0  0  0  0  0  0
    4.9105    1.2847    2.6237 N   0  0  0  0  0  0  0  0  0  0  0  0
    5.1226    2.2114    3.7110 C   0  0  0  0  0  0  0  0  0  0  0  0
    5.3876    0.3888    2.6647 H   0  0  0  0  0  0  0  0  0  0  0  0
    5.9852    2.8546    3.4823 H   0  0  0  0  0  0  0  0  0  0  0  0
    4.2255    2.8343    3.8419 H   0  0  0  0  0  0  0  0  0  0  0  0
    5.3184    1.6512    4.6372 H   0  0  0  0  0  0  0  0  0  0  0  0
 22 24  2  0  0  0  0
 24 26  1  0  0  0  0
 25 26  1  0  0  0  0
 23 25  2  0  0  0  0
 21 22  1  0  0  0  0
 22 23  1  0  0  0  0
  1  3  1  0  0  0  0
  1  7  1  0  0  0  0
  1  2  2  0  0  0  0
 36 37  1  0  0  0  0
 37 45  1  0  0  0  0
 37 38  2  0  0  0  0
  8  9  1  0  0  0  0
  9 17  1  0  0  0  0
  9 10  2  0  0  0  0
 18 19  1  0  0  0  0
 19 35  1  0  0  0  0
 19 20  2  0  0  0  0
 36 39  1  0  0  0  0
  8 11  1  0  0  0  0
 45 46  1  0  0  0  0
 18 21  1  0  0  0  0
 35 36  1  0  0  0  0
  7  8  1  0  0  0  0
 17 18  1  0  0  0  0
 24 32  1  0  0  0  0
 25 33  1  0  0  0  0
  3  4  1  0  0  0  0
  3  5  1  0  0  0  0
  3  6  1  0  0  0  0
 39 42  1  0  0  0  0
 39 43  1  0  0  0  0
 39 44  1  0  0  0  0
 11 14  1  0  0  0  0
 11 15  1  0  0  0  0
 11 16  1  0  0  0  0
 46 48  1  0  0  0  0
 46 49  1  0  0  0  0
 46 50  1  0  0  0  0
 21 29  1  0  0  0  0
 21 30  1  0  0  0  0
 36 41  1  0  0  0  0
  8 13  1  0  0  0  0
 18 28  1  0  0  0  0
 26 34  1  0  0  0  0
 23 31  1  0  0  0  0
 45 47  1  0  0  0  0
  7 12  1  0  0  0  0
 35 40  1  0  0  0  0
 17 27  1  0  0  0  0
M  CHG  1  23   1
M  END
$$$$

  -OEChem-05262214473D

 50 50  0     1  0  0  0  0  0999 V2000
   -1.6938    0.4865    3.8080 C   0  0  0  0  0  0  0  0  0  0  0  0
   -0.7464   -0.1282    3.3323 O   0  0  0  0  0  0  0  0  0  0  0  0
   -2.1257    0.2041    5.2087 C   0  0  0  0  0  0  0  0  0  0  0  0
   -2.8853   -0.5922    5.2621 H   0  0  0  0  0  0  0  0  0  0  0  0
   -1.2944   -0.1435    5.8430 H   0  0  0  0  0  0  0  0  0  0  0  0
   -2.5637    1.0590    5.7483 H   0  0  0  0  0  0  0  0  0  0  0  0
   -2.4435    1.4589    3.1669 N   0  0  0  0  0  0  0  0  0  0  0  0
   -2.1966    1.8850    1.8145 C   0  0  2  0  0  0  0  0  0  0  0  0
   -0.8617    1.2996    1.3733 C   0  0  0  0  0  0  0  0  0  0  0  0
    0.0104    0.9468    2.1646 O   0  0  0  0  0  0  0  0  0  0  0  0
   -2.1879    3.4017    1.7050 C   0  0  0  0  0  0  0  0  0  0  0  0
   -3.2085    1.8948    3.6787 H   0  0  0  0  0  0  0  0  0  0  0  0
   -3.0007    1.4665    1.1994 H   0  0  0  0  0  0  0  0  0  0  0  0
   -1.3888    3.8390    2.3147 H   0  0  0  0  0  0  0  0  0  0  0  0
   -2.0284    3.7240    0.6708 H   0  0  0  0  0  0  0  0  0  0  0  0
   -3.1380    3.8230    2.0508 H   0  0  0  0  0  0  0  0  0  0  0  0
   -0.7390    1.2565   -0.0101 N   0  0  0  0  0  0  0  0  0  0  0  0
    0.4383    0.7557   -0.6738 C   0  0  2  0  0  0  0  0  0  0  0  0
    1.5475    0.6826    0.3696 C   0  0  0  0  0  0  0  0  0  0  0  0
    1.3354    0.4398    1.5558 O   0  0  0  0  0  0  0  0  0  0  0  0
    0.8663    1.6475   -1.8449 C   0  0  0  0  0  0  0  0  0  0  0  0
   -0.1601    1.6914   -2.9505 C   0  0  0  0  0  0  0  0  0  0  0  0
   -0.3375    0.6408   -3.8182 N   0  3  0  0  0  0  0  0  0  0  0  0
   -1.0503    2.6603   -3.3187 C   0  0  0  0  0  0  0  0  0  0  0  0
   -1.3012    0.9438   -4.6939 C   0  0  0  0  0  0  0  0  0  0  0  0
   -1.7427    2.1711   -4.4001 N   0  0  0  0  0  0  0  0  0  0  0  0
   -1.5221    1.5532   -0.5874 H   0  0  0  0  0  0  0  0  0  0  0  0
    0.1978   -0.2586   -1.0135 H   0  0  0  0  0  0  0  0  0  0  0  0
    1.8300    1.3087   -2.2487 H   0  0  0  0  0  0  0  0  0  0  0  0
    1.0440    2.6747   -1.4998 H   0  0  0  0  0  0  0  0  0  0  0  0
    0.1817   -0.2327   -3.8019 H   0  0  0  0  0  0  0  0  0  0  0  0
   -1.3033    3.6430   -2.9735 H   0  0  0  0  0  0  0  0  0  0  0  0
   -1.6567    0.3136   -5.4919 H   0  0  0  0  0  0  0  0  0  0  0  0
   -2.4766    2.6637   -4.9013 H   0  0  0  0  0  0  0  0  0  0  0  0
    2.8026    0.8711   -0.1923 N   0  0  0  0  0  0  0  0  0  0  0  0
    4.0286    0.8280    0.5718 C   0  0  2  0  0  0  0  0  0  0  0  0
    3.8602    1.7359    1.7829 C   0  0  0  0  0  0  0  0  0  0  0  0
    3.0428    2.6531    1.8252 O   0  0  0  0  0  0  0  0  0  0  0  0
    5.2201    1.2592   -0.2692 C   0  0  0  0  0  0  0  0  0  0  0  0
    2.8624    1.0482   -1.1907 H   0  0  0  0  0  0  0  0  0  0  0  0
    4.1569   -0.2073    0.9058 H   0  0  0  0  0  0  0  0  0  0  0  0
    5.1094    2.2941   -0.6130 H   0  0  0  0  0  0  0  0  0  0  0  0
    6.1520    1.1987    0.3026 H   0  0  0  0  0  0  0  0  0  0  0  0
    5.3219    0.6236   -1.1555 H   0  0  0  0  0  0  0  0  0  0  0  0
    4.7595    1.4289    2.7944 N   0  0  0  0  0  0  0  0  0  0  0  0
    4.8079    2.1555    4.0416 C   0  0  0  0  0  0  0  0  0  0  0  0
    5.3888    0.6397    2.6809 H   0  0  0  0  0  0  0  0  0  0  0  0
    5.5409    2.9719    3.9628 H   0  0  0  0  0  0  0  0  0  0  0  0
    3.8146    2.5746    4.2605 H   0  0  0  0  0  0  0  0  0  0  0  0
    5.1046    1.4734    4.8520 H   0  0  0  0  0  0  0  0  0  0  0  0
 22 24  2  0  0  0  0
 24 26  1  0  0  0  0
 25 26  1  0  0  0  0
 23 25  2  0  0  0  0
 21 22  1  0  0  0  0
 22 23  1  0  0  0  0
  1  3  1  0  0  0  0
  1  7  1  0  0  0  0
  1  2  2  0  0  0  0
 36 37  1  0  0  0  0
 37 45  1  0  0  0  0
 37 38  2  0  0  0  0
  8  9  1  0  0  0  0
  9 17  1  0  0  0  0
  9 10  2  0  0  0  0
 18 19  1  0  0  0  0
 19 35  1  0  0  0  0
 19 20  2  0  0  0  0
 36 39  1  0  0  0  0
  8 11  1  0  0  0  0
 45 46  1  0  0  0  0
 18 21  1  0  0  0  0
 35 36  1  0  0  0  0
  7  8  1  0  0  0  0
 17 18  1  0  0  0  0
 24 32  1  0  0  0  0
 25 33  1  0  0  0  0
  3  4  1  0  0  0  0
  3  5  1  0  0  0  0
  3  6  1  0  0  0  0
 39 42  1  0  0  0  0
 39 43  1  0  0  0  0
 39 44  1  0  0  0  0
 11 14  1  0  0  0  0
 11 15  1  0  0  0  0
 11 16  1  0  0  0  0
 46 48  1  0  0  0  0
 46 49  1  0  0  0  0
 46 50  1  0  0  0  0
 21 29  1  0  0  0  0
 21 30  1  0  0  0  0
 36 41  1  0  0  0  0
  8 13  1  0  0  0  0
 18 28  1  0  0  0  0
 26 34  1  0  0  0  0
 23 31  1  0  0  0  0
 45 47  1  0  0  0  0
  7 12  1  0  0  0  0
 35 40  1  0  0  0  0
 17 27  1  0  0  0  0
M  CHG  1  23   1
M  END
$$$$

  -OEChem-05262214473D

 50 50  0     1  0  0  0  0  0999 V2000
   -1.6938    0.4865    3.8080 C   0  0  0  0  0  0  0  0  0  0  0  0
   -0.7464   -0.1282    3.3323 O   0  0  0  0  0  0  0  0  0  0  0  0
   -2.1257    0.2041    5.2087 C   0  0  0  0  0  0  0  0  0  0  0  0
   -2.8853   -0.5922    5.2621 H   0  0  0  0  0  0  0  0  0  0  0  0
   -1.2944   -0.1435    5.8430 H   0  0  0  0  0  0  0  0  0  0  0  0
   -2.5637    1.0590    5.7483 H   0  0  0  0  0  0  0  0  0  0  0  0
   -2.4435    1.4589    3.1669 N   0  0  0  0  0  0  0  0  0  0  0  0
   -2.1966    1.8850    1.8145 C   0  0  2  0  0  0  0  0  0  0  0  0
   -0.8617    1.2996    1.3733 C   0  0  0  0  0  0  0  0  0  0  0  0
    0.0104    0.9468    2.1646 O   0  0  0  0  0  0  0  0  0  0  0  0
   -2.1879    3.4017    1.7050 C   0  0  0  0  0  0  0  0  0  0  0  0
   -3.2085    1.8948    3.6787 H   0  0  0  0  0  0  0  0  0  0  0  0
   -3.0007    1.4665    1.1994 H   0  0  0  0  0  0  0  0  0  0  0  0
   -1.3888    3.8390    2.3147 H   0  0  0  0  0  0  0  0  0  0  0  0
   -2.0284    3.7240    0.6708 H   0  0  0  0  0  0  0  0  0  0  0  0
   -3.1380    3.8230    2.0508 H   0  0  0  0  0  0  0  0  0  0  0  0
   -0.7390    1.2565   -0.0101 N   0  0  0  0  0  0  0  0  0  0  0  0
    0.4383    0.7557   -0.6738 C   0  0  2  0  0  0  0  0  0  0  0  0
    1.5475    0.6826    0.3696 C   0  0  0  0  0  0  0  0  0  0  0  0
    1.3875    0.1861    1.4826 O   0  0  0  0  0  0  0  0  0  0  0  0
    0.8663    1.6475   -1.8449 C   0  0  0  0  0  0  0  0  0  0  0  0
   -0.1601    1.6914   -2.9505 C   0  0  0  0  0  0  0  0  0  0  0  0
   -0.3375    0.6408   -3.8182 N   0  3  0  0  0  0  0  0  0  0  0  0
   -1.0503    2.6603   -3.3187 C   0  0  0  0  0  0  0  0  0  0  0  0
   -1.3012    0.9438   -4.6939 C   0  0  0  0  0  0  0  0  0  0  0  0
   -1.7427    2.1711   -4.4001 N   0  0  0  0  0  0  0  0  0  0  0  0
   -1.5221    1.5532   -0.5874 H   0  0  0  0  0  0  0  0  0  0  0  0
    0.1978   -0.2586   -1.0135 H   0  0  0  0  0  0  0  0  0  0  0  0
    1.8300    1.3087   -2.2487 H   0  0  0  0  0  0  0  0  0  0  0  0
    1.0440    2.6747   -1.4998 H   0  0  0  0  0  0  0  0  0  0  0  0
    0.1817   -0.2327   -3.8019 H   0  0  0  0  0  0  0  0  0  0  0  0
   -1.3033    3.6430   -2.9735 H   0  0  0  0  0  0  0  0  0  0  0  0
   -1.6567    0.3136   -5.4919 H   0  0  0  0  0  0  0  0  0  0  0  0
   -2.4766    2.6637   -4.9013 H   0  0  0  0  0  0  0  0  0  0  0  0
    2.7463    1.1919   -0.1099 N   0  0  0  0  0  0  0  0  0  0  0  0
    3.9638    1.2213    0.6682 C   0  0  2  0  0  0  0  0  0  0  0  0
    3.6417    1.8393    2.0224 C   0  0  0  0  0  0  0  0  0  0  0  0
    2.6740    2.5734    2.2116 O   0  0  0  0  0  0  0  0  0  0  0  0
    5.0554    2.0067   -0.0418 C   0  0  0  0  0  0  0  0  0  0  0  0
    2.7690    1.5627   -1.0553 H   0  0  0  0  0  0  0  0  0  0  0  0
    4.2762    0.1805    0.8061 H   0  0  0  0  0  0  0  0  0  0  0  0
    4.7605    3.0521   -0.1889 H   0  0  0  0  0  0  0  0  0  0  0  0
    5.9858    2.0040    0.5357 H   0  0  0  0  0  0  0  0  0  0  0  0
    5.2650    1.5786   -1.0280 H   0  0  0  0  0  0  0  0  0  0  0  0
    4.5859    1.5094    2.9845 N   0  0  0  0  0  0  0  0  0  0  0  0
    4.5096    1.9835    4.3466 C   0  0  0  0  0  0  0  0  0  0  0  0
    5.3454    0.8792    2.7439 H   0  0  0  0  0  0  0  0  0  0  0  0
    5.0850    2.9160    4.4436 H   0  0  0  0  0  0  0  0  0  0  0  0
    3.4586    2.1722    4.6107 H   0  0  0  0  0  0  0  0  0  0  0  0
    4.9270    1.2233    5.0233 H   0  0  0  0  0  0  0  0  0  0  0  0
 22 24  2  0  0  0  0
 24 26  1  0  0  0  0
 25 26  1  0  0  0  0
 23 25  2  0  0  0  0
 21 22  1  0  0  0  0
 22 23  1  0  0  0  0
  1  3  1  0  0  0  0
  1  7  1  0  0  0  0
  1  2  2  0  0  0  0
 36 37  1  0  0  0  0
 37 45  1  0  0  0  0
 37 38  2  0  0  0  0
  8  9  1  0  0  0  0
  9 17  1  0  0  0  0
  9 10  2  0  0  0  0
 18 19  1  0  0  0  0
 19 35  1  0  0  0  0
 19 20  2  0  0  0  0
 36 39  1  0  0  0  0
  8 11  1  0  0  0  0
 45 46  1  0  0  0  0
 18 21  1  0  0  0  0
 35 36  1  0  0  0  0
  7  8  1  0  0  0  0
 17 18  1  0  0  0  0
 24 32  1  0  0  0  0
 25 33  1  0  0  0  0
  3  4  1  0  0  0  0
  3  5  1  0  0  0  0
  3  6  1  0  0  0  0
 39 42  1  0  0  0  0
 39 43  1  0  0  0  0
 39 44  1  0  0  0  0
 11 14  1  0  0  0  0
 11 15  1  0  0  0  0
 11 16  1  0  0  0  0
 46 48  1  0  0  0  0
 46 49  1  0  0  0  0
 46 50  1  0  0  0  0
 21 29  1  0  0  0  0
 21 30  1  0  0  0  0
 36 41  1  0  0  0  0
  8 13  1  0  0  0  0
 18 28  1  0  0  0  0
 26 34  1  0  0  0  0
 23 31  1  0  0  0  0
 45 47  1  0  0  0  0
  7 12  1  0  0  0  0
 35 40  1  0  0  0  0
 17 27  1  0  0  0  0
M  CHG  1  23   1
M  END
$$$$

  -OEChem-05262214473D

 50 50  0     1  0  0  0  0  0999 V2000
   -1.6938    0.4865    3.8080 C   0  0  0  0  0  0  0  0  0  0  0  0
   -0.7464   -0.1282    3.3323 O   0  0  0  0  0  0  0  0  0  0  0  0
   -2.1257    0.2041    5.2087 C   0  0  0  0  0  0  0  0  0  0  0  0
   -2.8853   -0.5922    5.2621 H   0  0  0  0  0  0  0  0  0  0  0  0
   -1.2944   -0.1435    5.8430 H   0  0  0  0  0  0  0  0  0  0  0  0
   -2.5637    1.0590    5.7483 H   0  0  0  0  0  0  0  0  0  0  0  0
   -2.4435    1.4589    3.1669 N   0  0  0  0  0  0  0  0  0  0  0  0
   -2.1966    1.8850    1.8145 C   0  0  2  0  0  0  0  0  0  0  0  0
   -0.8617    1.2996    1.3733 C   0  0  0  0  0  0  0  0  0  0  0  0
    0.0104    0.9468    2.1646 O   0  0  0  0  0  0  0  0  0  0  0  0
   -2.1879    3.4017    1.7050 C   0  0  0  0  0  0  0  0  0  0  0  0
   -3.2085    1.8948    3.6787 H   0  0  0  0  0  0  0  0  0  0  0  0
   -3.0007    1.4665    1.1994 H   0  0  0  0  0  0  0  0  0  0  0  0
   -1.3888    3.8390    2.3147 H   0  0  0  0  0  0  0  0  0  0  0  0
   -2.0284    3.7240    0.6708 H   0  0  0  0  0  0  0  0  0  0  0  0
   -3.1380    3.8230    2.0508 H   0  0  0  0  0  0  0  0  0  0  0  0
   -0.7390    1.2565   -0.0101 N   0  0  0  0  0  0  0  0  0  0  0  0
    0.4383    0.7557   -0.6738 C   0  0  2  0  0  0  0  0  0  0  0  0
    1.5475    0.6826    0.3696 C   0  0  0  0  0  0  0  0  0  0  0  0
    1.4836   -0.0360    1.3648 O   0  0  0  0  0  0  0  0  0  0  0  0
    0.8663    1.6475   -1.8449 C   0  0  0  0  0  0  0  0  0  0  0  0
   -0.1601    1.6914   -2.9505 C   0  0  0  0  0  0  0  0  0  0  0  0
   -0.3375    0.6408   -3.8182 N   0  3  0  0  0  0  0  0  0  0  0  0
   -1.0503    2.6603   -3.3187 C   0  0  0  0  0  0  0  0  0  0  0  0
   -1.3012    0.9438   -4.6939 C   0  0  0  0  0  0  0  0  0  0  0  0
   -1.7427    2.1711   -4.4001 N   0  0  0  0  0  0  0  0  0  0  0  0
   -1.5221    1.5532   -0.5874 H   0  0  0  0  0  0  0  0  0  0  0  0
    0.1978   -0.2586   -1.0135 H   0  0  0  0  0  0  0  0  0  0  0  0
    1.8300    1.3087   -2.2487 H   0  0  0  0  0  0  0  0  0  0  0  0
    1.0440    2.6747   -1.4998 H   0  0  0  0  0  0  0  0  0  0  0  0
    0.1817   -0.2327   -3.8019 H   0  0  0  0  0  0  0  0  0  0  0  0
   -1.3033    3.6430   -2.9735 H   0  0  0  0  0  0  0  0  0  0  0  0
   -1.6567    0.3136   -5.4919 H   0  0  0  0  0  0  0  0  0  0  0  0
   -2.4766    2.6637   -4.9013 H   0  0  0  0  0  0  0  0  0  0  0  0
    2.6340    1.4763    0.0293 N   0  0  0  0  0  0  0  0  0  0  0  0
    3.8303    1.5716    0.8347 C   0  0  2  0  0  0  0  0  0  0  0  0
    3.4093    1.8553    2.2705 C   0  0  0  0  0  0  0  0  0  0  0  0
    2.3272    2.3584    2.5653 O   0  0  0  0  0  0  0  0  0  0  0  0
    4.7612    2.6569    0.3166 C   0  0  0  0  0  0  0  0  0  0  0  0
    2.5860    2.0176   -0.8289 H   0  0  0  0  0  0  0  0  0  0  0  0
    4.3240    0.5949    0.7844 H   0  0  0  0  0  0  0  0  0  0  0  0
    4.2839    3.6427    0.3591 H   0  0  0  0  0  0  0  0  0  0  0  0
    5.6797    2.7085    0.9104 H   0  0  0  0  0  0  0  0  0  0  0  0
    5.0392    2.4670   -0.7258 H   0  0  0  0  0  0  0  0  0  0  0  0
    4.4017    1.5205    3.1812 N   0  0  0  0  0  0  0  0  0  0  0  0
    4.2482    1.7071    4.6051 C   0  0  0  0  0  0  0  0  0  0  0  0
    5.2602    1.0910    2.8493 H   0  0  0  0  0  0  0  0  0  0  0  0
    4.6485    2.6908    4.8918 H   0  0  0  0  0  0  0  0  0  0  0  0
    3.1816    1.6544    4.8689 H   0  0  0  0  0  0  0  0  0  0  0  0
    4.7975    0.9180    5.1395 H   0  0  0  0  0  0  0  0  0  0  0  0
 22 24  2  0  0  0  0
 24 26  1  0  0  0  0
 25 26  1  0  0  0  0
 23 25  2  0  0  0  0
 21 22  1  0  0  0  0
 22 23  1  0  0  0  0
  1  3  1  0  0  0  0
  1  7  1  0  0  0  0
  1  2  2  0  0  0  0
 36 37  1  0  0  0  0
 37 45  1  0  0  0  0
 37 38  2  0  0  0  0
  8  9  1  0  0  0  0
  9 17  1  0  0  0  0
  9 10  2  0  0  0  0
 18 19  1  0  0  0  0
 19 35  1  0  0  0  0
 19 20  2  0  0  0  0
 36 39  1  0  0  0  0
  8 11  1  0  0  0  0
 45 46  1  0  0  0  0
 18 21  1  0  0  0  0
 35 36  1  0  0  0  0
  7  8  1  0  0  0  0
 17 18  1  0  0  0  0
 24 32  1  0  0  0  0
 25 33  1  0  0  0  0
  3  4  1  0  0  0  0
  3  5  1  0  0  0  0
  3  6  1  0  0  0  0
 39 42  1  0  0  0  0
 39 43  1  0  0  0  0
 39 44  1  0  0  0  0
 11 14  1  0  0  0  0
 11 15  1  0  0  0  0
 11 16  1  0  0  0  0
 46 48  1  0  0  0  0
 46 49  1  0  0  0  0
 46 50  1  0  0  0  0
 21 29  1  0  0  0  0
 21 30  1  0  0  0  0
 36 41  1  0  0  0  0
  8 13  1  0  0  0  0
 18 28  1  0  0  0  0
 26 34  1  0  0  0  0
 23 31  1  0  0  0  0
 45 47  1  0  0  0  0
  7 12  1  0  0  0  0
 35 40  1  0  0  0  0
 17 27  1  0  0  0  0
M  CHG  1  23   1
M  END
$$$$

  -OEChem-05262214473D

 50 50  0     1  0  0  0  0  0999 V2000
   -1.6938    0.4865    3.8080 C   0  0  0  0  0  0  0  0  0  0  0  0
   -0.7464   -0.1282    3.3323 O   0  0  0  0  0  0  0  0  0  0  0  0
   -2.1257    0.2041    5.2087 C   0  0  0  0  0  0  0  0  0  0  0  0
   -2.8853   -0.5922    5.2621 H   0  0  0  0  0  0  0  0  0  0  0  0
   -1.2944   -0.1435    5.8430 H   0  0  0  0  0  0  0  0  0  0  0  0
   -2.5637    1.0590    5.7483 H   0  0  0  0  0  0  0  0  0  0  0  0
   -2.4435    1.4589    3.1669 N   0  0  0  0  0  0  0  0  0  0  0  0
   -2.1966    1.8850    1.8145 C   0  0  2  0  0  0  0  0  0  0  0  0
   -0.8617    1.2996    1.3733 C   0  0  0  0  0  0  0  0  0  0  0  0
    0.0104    0.9468    2.1646 O   0  0  0  0  0  0  0  0  0  0  0  0
   -2.1879    3.4017    1.7050 C   0  0  0  0  0  0  0  0  0  0  0  0
   -3.2085    1.8948    3.6787 H   0  0  0  0  0  0  0  0  0  0  0  0
   -3.0007    1.4665    1.1994 H   0  0  0  0  0  0  0  0  0  0  0  0
   -1.3888    3.8390    2.3147 H   0  0  0  0  0  0  0  0  0  0  0  0
   -2.0284    3.7240    0.6708 H   0  0  0  0  0  0  0  0  0  0  0  0
   -3.1380    3.8230    2.0508 H   0  0  0  0  0  0  0  0  0  0  0  0
   -0.7390    1.2565   -0.0101 N   0  0  0  0  0  0  0  0  0  0  0  0
    0.4383    0.7557   -0.6738 C   0  0  2  0  0  0  0  0  0  0  0  0
    1.5475    0.6826    0.3696 C   0  0  0  0  0  0  0  0  0  0  0  0
    1.6173   -0.2113    1.2104 O   0  0  0  0  0  0  0  0  0  0  0  0
    0.8663    1.6475   -1.8449 C   0  0  0  0  0  0  0  0  0  0  0  0
   -0.1601    1.6914   -2.9505 C   0  0  0  0  0  0  0  0  0  0  0  0
   -0.3375    0.6408   -3.8182 N   0  3  0  0  0  0  0  0  0  0  0  0
   -1.0503    2.6603   -3.3187 C   0  0  0  0  0  0  0  0  0  0  0  0
   -1.3012    0.9438   -4.6939 C   0  0  0  0  0  0  0  0  0  0  0  0
   -1.7427    2.1711   -4.4001 N   0  0  0  0  0  0  0  0  0  0  0  0
   -1.5221    1.5532   -0.5874 H   0  0  0  0  0  0  0  0  0  0  0  0
    0.1978   -0.2586   -1.0135 H   0  0  0  0  0  0  0  0  0  0  0  0
    1.8300    1.3087   -2.2487 H   0  0  0  0  0  0  0  0  0  0  0  0
    1.0440    2.6747   -1.4998 H   0  0  0  0  0  0  0  0  0  0  0  0
    0.1817   -0.2327   -3.8019 H   0  0  0  0  0  0  0  0  0  0  0  0
   -1.3033    3.6430   -2.9735 H   0  0  0  0  0  0  0  0  0  0  0  0
   -1.6567    0.3136   -5.4919 H   0  0  0  0  0  0  0  0  0  0  0  0
   -2.4766    2.6637   -4.9013 H   0  0  0  0  0  0  0  0  0  0  0  0
    2.4735    1.7050    0.2160 N   0  0  0  0  0  0  0  0  0  0  0  0
    3.6373    1.8549    1.0597 C   0  0  2  0  0  0  0  0  0  0  0  0
    3.1790    1.7830    2.5103 C   0  0  0  0  0  0  0  0  0  0  0  0
    2.0258    2.0228    2.8621 O   0  0  0  0  0  0  0  0  0  0  0  0
    4.3573    3.1652    0.7815 C   0  0  0  0  0  0  0  0  0  0  0  0
    2.3258    2.3819   -0.5268 H   0  0  0  0  0  0  0  0  0  0  0  0
    4.2970    1.0078    0.8421 H   0  0  0  0  0  0  0  0  0  0  0  0
    3.7121    4.0255    0.9938 H   0  0  0  0  0  0  0  0  0  0  0  0
    5.2547    3.2642    1.4012 H   0  0  0  0  0  0  0  0  0  0  0  0
    4.6600    3.2281   -0.2693 H   0  0  0  0  0  0  0  0  0  0  0  0
    4.2193    1.4616    3.3710 N   0  0  0  0  0  0  0  0  0  0  0  0
    4.0415    1.3452    4.7996 C   0  0  0  0  0  0  0  0  0  0  0  0
    5.1391    1.2606    2.9899 H   0  0  0  0  0  0  0  0  0  0  0  0
    4.2613    2.3115    5.2769 H   0  0  0  0  0  0  0  0  0  0  0  0
    3.0026    1.0566    5.0173 H   0  0  0  0  0  0  0  0  0  0  0  0
    4.7251    0.5783    5.1927 H   0  0  0  0  0  0  0  0  0  0  0  0
 22 24  2  0  0  0  0
 24 26  1  0  0  0  0
 25 26  1  0  0  0  0
 23 25  2  0  0  0  0
 21 22  1  0  0  0  0
 22 23  1  0  0  0  0
  1  3  1  0  0  0  0
  1  7  1  0  0  0  0
  1  2  2  0  0  0  0
 36 37  1  0  0  0  0
 37 45  1  0  0  0  0
 37 38  2  0  0  0  0
  8  9  1  0  0  0  0
  9 17  1  0  0  0  0
  9 10  2  0  0  0  0
 18 19  1  0  0  0  0
 19 35  1  0  0  0  0
 19 20  2  0  0  0  0
 36 39  1  0  0  0  0
  8 11  1  0  0  0  0
 45 46  1  0  0  0  0
 18 21  1  0  0  0  0
 35 36  1  0  0  0  0
  7  8  1  0  0  0  0
 17 18  1  0  0  0  0
 24 32  1  0  0  0  0
 25 33  1  0  0  0  0
  3  4  1  0  0  0  0
  3  5  1  0  0  0  0
  3  6  1  0  0  0  0
 39 42  1  0  0  0  0
 39 43  1  0  0  0  0
 39 44  1  0  0  0  0
 11 14  1  0  0  0  0
 11 15  1  0  0  0  0
 11 16  1  0  0  0  0
 46 48  1  0  0  0  0
 46 49  1  0  0  0  0
 46 50  1  0  0  0  0
 21 29  1  0  0  0  0
 21 30  1  0  0  0  0
 36 41  1  0  0  0  0
  8 13  1  0  0  0  0
 18 28  1  0  0  0  0
 26 34  1  0  0  0  0
 23 31  1  0  0  0  0
 45 47  1  0  0  0  0
  7 12  1  0  0  0  0
 35 40  1  0  0  0  0
 17 27  1  0  0  0  0
M  CHG  1  23   1
M  END
$$$$

  -OEChem-05262214473D

 50 50  0     1  0  0  0  0  0999 V2000
   -1.6938    0.4865    3.8080 C   0  0  0  0  0  0  0  0  0  0  0  0
   -0.7464   -0.1282    3.3323 O   0  0  0  0  0  0  0  0  0  0  0  0
   -2.1257    0.2041    5.2087 C   0  0  0  0  0  0  0  0  0  0  0  0
   -2.8853   -0.5922    5.2621 H   0  0  0  0  0  0  0  0  0  0  0  0
   -1.2944   -0.1435    5.8430 H   0  0  0  0  0  0  0  0  0  0  0  0
   -2.5637    1.0590    5.7483 H   0  0  0  0  0  0  0  0  0  0  0  0
   -2.4435    1.4589    3.1669 N   0  0  0  0  0  0  0  0  0  0  0  0
   -2.1966    1.8850    1.8145 C   0  0  2  0  0  0  0  0  0  0  0  0
   -0.8617    1.2996    1.3733 C   0  0  0  0  0  0  0  0  0  0  0  0
    0.0104    0.9468    2.1646 O   0  0  0  0  0  0  0  0  0  0  0  0
   -2.1879    3.4017    1.7050 C   0  0  0  0  0  0  0  0  0  0  0  0
   -3.2085    1.8948    3.6787 H   0  0  0  0  0  0  0  0  0  0  0  0
   -3.0007    1.4665    1.1994 H   0  0  0  0  0  0  0  0  0  0  0  0
   -1.3888    3.8390    2.3147 H   0  0  0  0  0  0  0  0  0  0  0  0
   -2.0284    3.7240    0.6708 H   0  0  0  0  0  0  0  0  0  0  0  0
   -3.1380    3.8230    2.0508 H   0  0  0  0  0  0  0  0  0  0  0  0
   -0.7390    1.2565   -0.0101 N   0  0  0  0  0  0  0  0  0  0  0  0
    0.4383    0.7557   -0.6738 C   0  0  2  0  0  0  0  0  0  0  0  0
    1.5475    0.6826    0.3696 C   0  0  0  0  0  0  0  0  0  0  0  0
    1.7794   -0.3279    1.0299 O   0  0  0  0  0  0  0  0  0  0  0  0
    0.8663    1.6475   -1.8449 C   0  0  0  0  0  0  0  0  0  0  0  0
   -0.1601    1.6914   -2.9505 C   0  0  0  0  0  0  0  0  0  0  0  0
   -0.3375    0.6408   -3.8182 N   0  3  0  0  0  0  0  0  0  0  0  0
   -1.0503    2.6603   -3.3187 C   0  0  0  0  0  0  0  0  0  0  0  0
   -1.3012    0.9438   -4.6939 C   0  0  0  0  0  0  0  0  0  0  0  0
   -1.7427    2.1711   -4.4001 N   0  0  0  0  0  0  0  0  0  0  0  0
   -1.5221    1.5532   -0.5874 H   0  0  0  0  0  0  0  0  0  0  0  0
    0.1978   -0.2586   -1.0135 H   0  0  0  0  0  0  0  0  0  0  0  0
    1.8300    1.3087   -2.2487 H   0  0  0  0  0  0  0  0  0  0  0  0
    1.0440    2.6747   -1.4998 H   0  0  0  0  0  0  0  0  0  0  0  0
    0.1817   -0.2327   -3.8019 H   0  0  0  0  0  0  0  0  0  0  0  0
   -1.3033    3.6430   -2.9735 H   0  0  0  0  0  0  0  0  0  0  0  0
   -1.6567    0.3136   -5.4919 H   0  0  0  0  0  0  0  0  0  0  0  0
   -2.4766    2.6637   -4.9013 H   0  0  0  0  0  0  0  0  0  0  0  0
    2.2756    1.8622    0.4374 N   0  0  0  0  0  0  0  0  0  0  0  0
    3.3979    2.0520    1.3281 C   0  0  2  0  0  0  0  0  0  0  0  0
    2.9664    1.6271    2.7255 C   0  0  0  0  0  0  0  0  0  0  0  0
    1.7905    1.5892    3.0819 O   0  0  0  0  0  0  0  0  0  0  0  0
    3.8715    3.4972    1.3213 C   0  0  0  0  0  0  0  0  0  0  0  0
    2.0062    2.6309   -0.1696 H   0  0  0  0  0  0  0  0  0  0  0  0
    4.1970    1.3910    0.9752 H   0  0  0  0  0  0  0  0  0  0  0  0
    3.0841    4.1744    1.6718 H   0  0  0  0  0  0  0  0  0  0  0  0
    4.7395    3.6333    1.9747 H   0  0  0  0  0  0  0  0  0  0  0  0
    4.1533    3.8102    0.3102 H   0  0  0  0  0  0  0  0  0  0  0  0
    4.0512    1.3367    3.5409 N   0  0  0  0  0  0  0  0  0  0  0  0
    3.9035    0.9223    4.9166 C   0  0  0  0  0  0  0  0  0  0  0  0
    4.9904    1.3765    3.1562 H   0  0  0  0  0  0  0  0  0  0  0  0
    3.9496    1.8041    5.5727 H   0  0  0  0  0  0  0  0  0  0  0  0
    2.9337    0.4196    5.0459 H   0  0  0  0  0  0  0  0  0  0  0  0
    4.7147    0.2273    5.1792 H   0  0  0  0  0  0  0  0  0  0  0  0
 22 24  2  0  0  0  0
 24 26  1  0  0  0  0
 25 26  1  0  0  0  0
 23 25  2  0  0  0  0
 21 22  1  0  0  0  0
 22 23  1  0  0  0  0
  1  3  1  0  0  0  0
  1  7  1  0  0  0  0
  1  2  2  0  0  0  0
 36 37  1  0  0  0  0
 37 45  1  0  0  0  0
 37 38  2  0  0  0  0
  8  9  1  0  0  0  0
  9 17  1  0  0  0  0
  9 10  2  0  0  0  0
 18 19  1  0  0  0  0
 19 35  1  0  0  0  0
 19 20  2  0  0  0  0
 36 39  1  0  0  0  0
  8 11  1  0  0  0  0
 45 46  1  0  0  0  0
 18 21  1  0  0  0  0
 35 36  1  0  0  0  0
  7  8  1  0  0  0  0
 17 18  1  0  0  0  0
 24 32  1  0  0  0  0
 25 33  1  0  0  0  0
  3  4  1  0  0  0  0
  3  5  1  0  0  0  0
  3  6  1  0  0  0  0
 39 42  1  0  0  0  0
 39 43  1  0  0  0  0
 39 44  1  0  0  0  0
 11 14  1  0  0  0  0
 11 15  1  0  0  0  0
 11 16  1  0  0  0  0
 46 48  1  0  0  0  0
 46 49  1  0  0  0  0
 46 50  1  0  0  0  0
 21 29  1  0  0  0  0
 21 30  1  0  0  0  0
 36 41  1  0  0  0  0
  8 13  1  0  0  0  0
 18 28  1  0  0  0  0
 26 34  1  0  0  0  0
 23 31  1  0  0  0  0
 45 47  1  0  0  0  0
  7 12  1  0  0  0  0
 35 40  1  0  0  0  0
 17 27  1  0  0  0  0
M  CHG  1  23   1
M  END
$$$$

  -OEChem-05262214473D

 50 50  0     1  0  0  0  0  0999 V2000
   -1.6938    0.4865    3.8080 C   0  0  0  0  0  0  0  0  0  0  0  0
   -0.7464   -0.1282    3.3323 O   0  0  0  0  0  0  0  0  0  0  0  0
   -2.1257    0.2041    5.2087 C   0  0  0  0  0  0  0  0  0  0  0  0
   -2.8853   -0.5922    5.2621 H   0  0  0  0  0  0  0  0  0  0  0  0
   -1.2944   -0.1435    5.8430 H   0  0  0  0  0  0  0  0  0  0  0  0
   -2.5637    1.0590    5.7483 H   0  0  0  0  0  0  0  0  0  0  0  0
   -2.4435    1.4589    3.1669 N   0  0  0  0  0  0  0  0  0  0  0  0
   -2.1966    1.8850    1.8145 C   0  0  2  0  0  0  0  0  0  0  0  0
   -0.8617    1.2996    1.3733 C   0  0  0  0  0  0  0  0  0  0  0  0
    0.0104    0.9468    2.1646 O   0  0  0  0  0  0  0  0  0  0  0  0
   -2.1879    3.4017    1.7050 C   0  0  0  0  0  0  0  0  0  0  0  0
   -3.2085    1.8948    3.6787 H   0  0  0  0  0  0  0  0  0  0  0  0
   -3.0007    1.4665    1.1994 H   0  0  0  0  0  0  0  0  0  0  0  0
   -1.3888    3.8390    2.3147 H   0  0  0  0  0  0  0  0  0  0  0  0
   -2.0284    3.7240    0.6708 H   0  0  0  0  0  0  0  0  0  0  0  0
   -3.1380    3.8230    2.0508 H   0  0  0  0  0  0  0  0  0  0  0  0
   -0.7390    1.2565   -0.0101 N   0  0  0  0  0  0  0  0  0  0  0  0
    0.4383    0.7557   -0.6738 C   0  0  2  0  0  0  0  0  0  0  0  0
    1.5475    0.6826    0.3696 C   0  0  0  0  0  0  0  0  0  0  0  0
    1.9589   -0.3778    0.8356 O   0  0  0  0  0  0  0  0  0  0  0  0
    0.8663    1.6475   -1.8449 C   0  0  0  0  0  0  0  0  0  0  0  0
   -0.1601    1.6914   -2.9505 C   0  0  0  0  0  0  0  0  0  0  0  0
   -0.3375    0.6408   -3.8182 N   0  3  0  0  0  0  0  0  0  0  0  0
   -1.0503    2.6603   -3.3187 C   0  0  0  0  0  0  0  0  0  0  0  0
   -1.3012    0.9438   -4.6939 C   0  0  0  0  0  0  0  0  0  0  0  0
   -1.7427    2.1711   -4.4001 N   0  0  0  0  0  0  0  0  0  0  0  0
   -1.5221    1.5532   -0.5874 H   0  0  0  0  0  0  0  0  0  0  0  0
    0.1978   -0.2586   -1.0135 H   0  0  0  0  0  0  0  0  0  0  0  0
    1.8300    1.3087   -2.2487 H   0  0  0  0  0  0  0  0  0  0  0  0
    1.0440    2.6747   -1.4998 H   0  0  0  0  0  0  0  0  0  0  0  0
    0.1817   -0.2327   -3.8019 H   0  0  0  0  0  0  0  0  0  0  0  0
   -1.3033    3.6430   -2.9735 H   0  0  0  0  0  0  0  0  0  0  0  0
   -1.6567    0.3136   -5.4919 H   0  0  0  0  0  0  0  0  0  0  0  0
   -2.4766    2.6637   -4.9013 H   0  0  0  0  0  0  0  0  0  0  0  0
    2.0539    1.9374    0.6784 N   0  0  0  0  0  0  0  0  0  0  0  0
    3.1284    2.1495    1.6214 C   0  0  2  0  0  0  0  0  0  0  0  0
    2.7859    1.3984    2.9013 C   0  0  0  0  0  0  0  0  0  0  0  0
    1.6373    1.0874    3.2096 O   0  0  0  0  0  0  0  0  0  0  0  0
    3.3366    3.6301    1.8992 C   0  0  0  0  0  0  0  0  0  0  0  0
    1.6490    2.7475    0.2184 H   0  0  0  0  0  0  0  0  0  0  0  0
    4.0309    1.7184    1.1747 H   0  0  0  0  0  0  0  0  0  0  0  0
    2.4427    4.0794    2.3470 H   0  0  0  0  0  0  0  0  0  0  0  0
    4.1695    3.7905    2.5918 H   0  0  0  0  0  0  0  0  0  0  0  0
    3.5535    4.1736    0.9733 H   0  0  0  0  0  0  0  0  0  0  0  0
    3.9088    1.1543    3.6795 N   0  0  0  0  0  0  0  0  0  0  0  0
    3.8437    0.4674    4.9484 C   0  0  0  0  0  0  0  0  0  0  0  0
    4.8241    1.4309    3.3367 H   0  0  0  0  0  0  0  0  0  0  0  0
    3.7348    1.2030    5.7589 H   0  0  0  0  0  0  0  0  0  0  0  0
    2.9797   -0.2134    4.9527 H   0  0  0  0  0  0  0  0  0  0  0  0
    4.7670   -0.1110    5.0999 H   0  0  0  0  0  0  0  0  0  0  0  0
 22 24  2  0  0  0  0
 24 26  1  0  0  0  0
 25 26  1  0  0  0  0
 23 25  2  0  0  0  0
 21 22  1  0  0  0  0
 22 23  1  0  0  0  0
  1  3  1  0  0  0  0
  1  7  1  0  0  0  0
  1  2  2  0  0  0  0
 36 37  1  0  0  0  0
 37 45  1  0  0  0  0
 37 38  2  0  0  0  0
  8  9  1  0  0  0  0
  9 17  1  0  0  0  0
  9 10  2  0  0  0  0
 18 19  1  0  0  0  0
 19 35  1  0  0  0  0
 19 20  2  0  0  0  0
 36 39  1  0  0  0  0
  8 11  1  0  0  0  0
 45 46  1  0  0  0  0
 18 21  1  0  0  0  0
 35 36  1  0  0  0  0
  7  8  1  0  0  0  0
 17 18  1  0  0  0  0
 24 32  1  0  0  0  0
 25 33  1  0  0  0  0
  3  4  1  0  0  0  0
  3  5  1  0  0  0  0
  3  6  1  0  0  0  0
 39 42  1  0  0  0  0
 39 43  1  0  0  0  0
 39 44  1  0  0  0  0
 11 14  1  0  0  0  0
 11 15  1  0  0  0  0
 11 16  1  0  0  0  0
 46 48  1  0  0  0  0
 46 49  1  0  0  0  0
 46 50  1  0  0  0  0
 21 29  1  0  0  0  0
 21 30  1  0  0  0  0
 36 41  1  0  0  0  0
  8 13  1  0  0  0  0
 18 28  1  0  0  0  0
 26 34  1  0  0  0  0
 23 31  1  0  0  0  0
 45 47  1  0  0  0  0
  7 12  1  0  0  0  0
 35 40  1  0  0  0  0
 17 27  1  0  0  0  0
M  CHG  1  23   1
M  END
$$$$

  -OEChem-05262214473D

 50 50  0     1  0  0  0  0  0999 V2000
   -1.6938    0.4865    3.8080 C   0  0  0  0  0  0  0  0  0  0  0  0
   -0.7464   -0.1282    3.3323 O   0  0  0  0  0  0  0  0  0  0  0  0
   -2.1257    0.2041    5.2087 C   0  0  0  0  0  0  0  0  0  0  0  0
   -2.8853   -0.5922    5.2621 H   0  0  0  0  0  0  0  0  0  0  0  0
   -1.2944   -0.1435    5.8430 H   0  0  0  0  0  0  0  0  0  0  0  0
   -2.5637    1.0590    5.7483 H   0  0  0  0  0  0  0  0  0  0  0  0
   -2.4435    1.4589    3.1669 N   0  0  0  0  0  0  0  0  0  0  0  0
   -2.1966    1.8850    1.8145 C   0  0  2  0  0  0  0  0  0  0  0  0
   -0.8617    1.2996    1.3733 C   0  0  0  0  0  0  0  0  0  0  0  0
    0.0104    0.9468    2.1646 O   0  0  0  0  0  0  0  0  0  0  0  0
   -2.1879    3.4017    1.7050 C   0  0  0  0  0  0  0  0  0  0  0  0
   -3.2085    1.8948    3.6787 H   0  0  0  0  0  0  0  0  0  0  0  0
   -3.0007    1.4665    1.1994 H   0  0  0  0  0  0  0  0  0  0  0  0
   -1.3888    3.8390    2.3147 H   0  0  0  0  0  0  0  0  0  0  0  0
   -2.0284    3.7240    0.6708 H   0  0  0  0  0  0  0  0  0  0  0  0
   -3.1380    3.8230    2.0508 H   0  0  0  0  0  0  0  0  0  0  0  0
   -0.7390    1.2565   -0.0101 N   0  0  0  0  0  0  0  0  0  0  0  0
    0.4383    0.7557   -0.6738 C   0  0  2  0  0  0  0  0  0  0  0  0
    1.5475    0.6826    0.3696 C   0  0  0  0  0  0  0  0  0  0  0  0
    2.1435   -0.3577    0.6407 O   0  0  0  0  0  0  0  0  0  0  0  0
    0.8663    1.6475   -1.8449 C   0  0  0  0  0  0  0  0  0  0  0  0
   -0.1601    1.6914   -2.9505 C   0  0  0  0  0  0  0  0  0  0  0  0
   -0.3375    0.6408   -3.8182 N   0  3  0  0  0  0  0  0  0  0  0  0
   -1.0503    2.6603   -3.3187 C   0  0  0  0  0  0  0  0  0  0  0  0
   -1.3012    0.9438   -4.6939 C   0  0  0  0  0  0  0  0  0  0  0  0
   -1.7427    2.1711   -4.4001 N   0  0  0  0  0  0  0  0  0  0  0  0
   -1.5221    1.5532   -0.5874 H   0  0  0  0  0  0  0  0  0  0  0  0
    0.1978   -0.2586   -1.0135 H   0  0  0  0  0  0  0  0  0  0  0  0
    1.8300    1.3087   -2.2487 H   0  0  0  0  0  0  0  0  0  0  0  0
    1.0440    2.6747   -1.4998 H   0  0  0  0  0  0  0  0  0  0  0  0
    0.1817   -0.2327   -3.8019 H   0  0  0  0  0  0  0  0  0  0  0  0
   -1.3033    3.6430   -2.9735 H   0  0  0  0  0  0  0  0  0  0  0  0
   -1.6567    0.3136   -5.4919 H   0  0  0  0  0  0  0  0  0  0  0  0
   -2.4766    2.6637   -4.9013 H   0  0  0  0  0  0  0  0  0  0  0  0
    1.8234    1.9254    0.9225 N   0  0  0  0  0  0  0  0  0  0  0  0
    2.8471    2.1406    1.9198 C   0  0  2  0  0  0  0  0  0  0  0  0
    2.6499    1.1124    3.0258 C   0  0  0  0  0  0  0  0  0  0  0  0
    1.5766    0.5515    3.2366 O   0  0  0  0  0  0  0  0  0  0  0  0
    2.7893    3.5549    2.4758 C   0  0  0  0  0  0  0  0  0  0  0  0
    1.2785    2.7238    0.6106 H   0  0  0  0  0  0  0  0  0  0  0  0
    3.8101    1.9676    1.4270 H   0  0  0  0  0  0  0  0  0  0  0  0
    1.8316    3.7469    2.9733 H   0  0  0  0  0  0  0  0  0  0  0  0
    3.5833    3.7253    3.2103 H   0  0  0  0  0  0  0  0  0  0  0  0
    2.9015    4.2935    1.6747 H   0  0  0  0  0  0  0  0  0  0  0  0
    3.8019    0.9267    3.7772 N   0  0  0  0  0  0  0  0  0  0  0  0
    3.8660    0.0114    4.8926 C   0  0  0  0  0  0  0  0  0  0  0  0
    4.6516    1.4199    3.5193 H   0  0  0  0  0  0  0  0  0  0  0  0
    3.6314    0.5493    5.8230 H   0  0  0  0  0  0  0  0  0  0  0  0
    3.1373   -0.7991    4.7440 H   0  0  0  0  0  0  0  0  0  0  0  0
    4.8784   -0.4136    4.9602 H   0  0  0  0  0  0  0  0  0  0  0  0
 22 24  2  0  0  0  0
 24 26  1  0  0  0  0
 25 26  1  0  0  0  0
 23 25  2  0  0  0  0
 21 22  1  0  0  0  0
 22 23  1  0  0  0  0
  1  3  1  0  0  0  0
  1  7  1  0  0  0  0
  1  2  2  0  0  0  0
 36 37  1  0  0  0  0
 37 45  1  0  0  0  0
 37 38  2  0  0  0  0
  8  9  1  0  0  0  0
  9 17  1  0  0  0  0
  9 10  2  0  0  0  0
 18 19  1  0  0  0  0
 19 35  1  0  0  0  0
 19 20  2  0  0  0  0
 36 39  1  0  0  0  0
  8 11  1  0  0  0  0
 45 46  1  0  0  0  0
 18 21  1  0  0  0  0
 35 36  1  0  0  0  0
  7  8  1  0  0  0  0
 17 18  1  0  0  0  0
 24 32  1  0  0  0  0
 25 33  1  0  0  0  0
  3  4  1  0  0  0  0
  3  5  1  0  0  0  0
  3  6  1  0  0  0  0
 39 42  1  0  0  0  0
 39 43  1  0  0  0  0
 39 44  1  0  0  0  0
 11 14  1  0  0  0  0
 11 15  1  0  0  0  0
 11 16  1  0  0  0  0
 46 48  1  0  0  0  0
 46 49  1  0  0  0  0
 46 50  1  0  0  0  0
 21 29  1  0  0  0  0
 21 30  1  0  0  0  0
 36 41  1  0  0  0  0
  8 13  1  0  0  0  0
 18 28  1  0  0  0  0
 26 34  1  0  0  0  0
 23 31  1  0  0  0  0
 45 47  1  0  0  0  0
  7 12  1  0  0  0  0
 35 40  1  0  0  0  0
 17 27  1  0  0  0  0
M  CHG  1  23   1
M  END
$$$$

  -OEChem-05262214473D

 50 50  0     1  0  0  0  0  0999 V2000
   -1.6938    0.4865    3.8080 C   0  0  0  0  0  0  0  0  0  0  0  0
   -0.7464   -0.1282    3.3323 O   0  0  0  0  0  0  0  0  0  0  0  0
   -2.1257    0.2041    5.2087 C   0  0  0  0  0  0  0  0  0  0  0  0
   -2.8853   -0.5922    5.2621 H   0  0  0  0  0  0  0  0  0  0  0  0
   -1.2944   -0.1435    5.8430 H   0  0  0  0  0  0  0  0  0  0  0  0
   -2.5637    1.0590    5.7483 H   0  0  0  0  0  0  0  0  0  0  0  0
   -2.4435    1.4589    3.1669 N   0  0  0  0  0  0  0  0  0  0  0  0
   -2.1966    1.8850    1.8145 C   0  0  2  0  0  0  0  0  0  0  0  0
   -0.8617    1.2996    1.3733 C   0  0  0  0  0  0  0  0  0  0  0  0
    0.0104    0.9468    2.1646 O   0  0  0  0  0  0  0  0  0  0  0  0
   -2.1879    3.4017    1.7050 C   0  0  0  0  0  0  0  0  0  0  0  0
   -3.2085    1.8948    3.6787 H   0  0  0  0  0  0  0  0  0  0  0  0
   -3.0007    1.4665    1.1994 H   0  0  0  0  0  0  0  0  0  0  0  0
   -1.3888    3.8390    2.3147 H   0  0  0  0  0  0  0  0  0  0  0  0
   -2.0284    3.7240    0.6708 H   0  0  0  0  0  0  0  0  0  0  0  0
   -3.1380    3.8230    2.0508 H   0  0  0  0  0  0  0  0  0  0  0  0
   -0.7390    1.2565   -0.0101 N   0  0  0  0  0  0  0  0  0  0  0  0
    0.4383    0.7557   -0.6738 C   0  0  2  0  0  0  0  0  0  0  0  0
    1.5475    0.6826    0.3696 C   0  0  0  0  0  0  0  0  0  0  0  0
    2.3207   -0.2688    0.4586 O   0  0  0  0  0  0  0  0  0  0  0  0
    0.8663    1.6475   -1.8449 C   0  0  0  0  0  0  0  0  0  0  0  0
   -0.1601    1.6914   -2.9505 C   0  0  0  0  0  0  0  0  0  0  0  0
   -0.3375    0.6408   -3.8182 N   0  3  0  0  0  0  0  0  0  0  0  0
   -1.0503    2.6603   -3.3187 C   0  0  0  0  0  0  0  0  0  0  0  0
   -1.3012    0.9438   -4.6939 C   0  0  0  0  0  0  0  0  0  0  0  0
   -1.7427    2.1711   -4.4001 N   0  0  0  0  0  0  0  0  0  0  0  0
   -1.5221    1.5532   -0.5874 H   0  0  0  0  0  0  0  0  0  0  0  0
    0.1978   -0.2586   -1.0135 H   0  0  0  0  0  0  0  0  0  0  0  0
    1.8300    1.3087   -2.2487 H   0  0  0  0  0  0  0  0  0  0  0  0
    1.0440    2.6747   -1.4998 H   0  0  0  0  0  0  0  0  0  0  0  0
    0.1817   -0.2327   -3.8019 H   0  0  0  0  0  0  0  0  0  0  0  0
   -1.3033    3.6430   -2.9735 H   0  0  0  0  0  0  0  0  0  0  0  0
   -1.6567    0.3136   -5.4919 H   0  0  0  0  0  0  0  0  0  0  0  0
   -2.4766    2.6637   -4.9013 H   0  0  0  0  0  0  0  0  0  0  0  0
    1.5999    1.8269    1.1533 N   0  0  0  0  0  0  0  0  0  0  0  0
    2.5734    2.0261    2.2028 C   0  0  2  0  0  0  0  0  0  0  0  0
    2.5677    0.7886    3.0905 C   0  0  0  0  0  0  0  0  0  0  0  0
    1.6125    0.0180    3.1609 O   0  0  0  0  0  0  0  0  0  0  0  0
    2.2668    3.2768    3.0118 C   0  0  0  0  0  0  0  0  0  0  0  0
    0.9199    2.5614    0.9804 H   0  0  0  0  0  0  0  0  0  0  0  0
    3.5494    2.1217    1.7148 H   0  0  0  0  0  0  0  0  0  0  0  0
    1.2925    3.1995    3.5081 H   0  0  0  0  0  0  0  0  0  0  0  0
    3.0210    3.4419    3.7882 H   0  0  0  0  0  0  0  0  0  0  0  0
    2.2419    4.1618    2.3668 H   0  0  0  0  0  0  0  0  0  0  0  0
    3.7377    0.6696    3.8274 N   0  0  0  0  0  0  0  0  0  0  0  0
    3.9691   -0.4146    4.7532 C   0  0  0  0  0  0  0  0  0  0  0  0
    4.4847    1.3443    3.6915 H   0  0  0  0  0  0  0  0  0  0  0  0
    3.6466   -0.1125    5.7605 H   0  0  0  0  0  0  0  0  0  0  0  0
    3.3959   -1.2976    4.4342 H   0  0  0  0  0  0  0  0  0  0  0  0
    5.0413   -0.6598    4.7698 H   0  0  0  0  0  0  0  0  0  0  0  0
 22 24  2  0  0  0  0
 24 26  1  0  0  0  0
 25 26  1  0  0  0  0
 23 25  2  0  0  0  0
 21 22  1  0  0  0  0
 22 23  1  0  0  0  0
  1  3  1  0  0  0  0
  1  7  1  0  0  0  0
  1  2  2  0  0  0  0
 36 37  1  0  0  0  0
 37 45  1  0  0  0  0
 37 38  2  0  0  0  0
  8  9  1  0  0  0  0
  9 17  1  0  0  0  0
  9 10  2  0  0  0  0
 18 19  1  0  0  0  0
 19 35  1  0  0  0  0
 19 20  2  0  0  0  0
 36 39  1  0  0  0  0
  8 11  1  0  0  0  0
 45 46  1  0  0  0  0
 18 21  1  0  0  0  0
 35 36  1  0  0  0  0
  7  8  1  0  0  0  0
 17 18  1  0  0  0  0
 24 32  1  0  0  0  0
 25 33  1  0  0  0  0
  3  4  1  0  0  0  0
  3  5  1  0  0  0  0
  3  6  1  0  0  0  0
 39 42  1  0  0  0  0
 39 43  1  0  0  0  0
 39 44  1  0  0  0  0
 11 14  1  0  0  0  0
 11 15  1  0  0  0  0
 11 16  1  0  0  0  0
 46 48  1  0  0  0  0
 46 49  1  0  0  0  0
 46 50  1  0  0  0  0
 21 29  1  0  0  0  0
 21 30  1  0  0  0  0
 36 41  1  0  0  0  0
  8 13  1  0  0  0  0
 18 28  1  0  0  0  0
 26 34  1  0  0  0  0
 23 31  1  0  0  0  0
 45 47  1  0  0  0  0
  7 12  1  0  0  0  0
 35 40  1  0  0  0  0
 17 27  1  0  0  0  0
M  CHG  1  23   1
M  END
$$$$

  -OEChem-05262214473D

 50 50  0     1  0  0  0  0  0999 V2000
   -1.6938    0.4865    3.8080 C   0  0  0  0  0  0  0  0  0  0  0  0
   -0.7464   -0.1282    3.3323 O   0  0  0  0  0  0  0  0  0  0  0  0
   -2.1257    0.2041    5.2087 C   0  0  0  0  0  0  0  0  0  0  0  0
   -2.8853   -0.5922    5.2621 H   0  0  0  0  0  0  0  0  0  0  0  0
   -1.2944   -0.1435    5.8430 H   0  0  0  0  0  0  0  0  0  0  0  0
   -2.5637    1.0590    5.7483 H   0  0  0  0  0  0  0  0  0  0  0  0
   -2.4435    1.4589    3.1669 N   0  0  0  0  0  0  0  0  0  0  0  0
   -2.1966    1.8850    1.8145 C   0  0  2  0  0  0  0  0  0  0  0  0
   -0.8617    1.2996    1.3733 C   0  0  0  0  0  0  0  0  0  0  0  0
    0.0104    0.9468    2.1646 O   0  0  0  0  0  0  0  0  0  0  0  0
   -2.1879    3.4017    1.7050 C   0  0  0  0  0  0  0  0  0  0  0  0
   -3.2085    1.8948    3.6787 H   0  0  0  0  0  0  0  0  0  0  0  0
   -3.0007    1.4665    1.1994 H   0  0  0  0  0  0  0  0  0  0  0  0
   -1.3888    3.8390    2.3147 H   0  0  0  0  0  0  0  0  0  0  0  0
   -2.0284    3.7240    0.6708 H   0  0  0  0  0  0  0  0  0  0  0  0
   -3.1380    3.8230    2.0508 H   0  0  0  0  0  0  0  0  0  0  0  0
   -0.7390    1.2565   -0.0101 N   0  0  0  0  0  0  0  0  0  0  0  0
    0.4383    0.7557   -0.6738 C   0  0  2  0  0  0  0  0  0  0  0  0
    1.5475    0.6826    0.3696 C   0  0  0  0  0  0  0  0  0  0  0  0
    2.4783   -0.1173    0.3016 O   0  0  0  0  0  0  0  0  0  0  0  0
    0.8663    1.6475   -1.8449 C   0  0  0  0  0  0  0  0  0  0  0  0
   -0.1601    1.6914   -2.9505 C   0  0  0  0  0  0  0  0  0  0  0  0
   -0.3375    0.6408   -3.8182 N   0  3  0  0  0  0  0  0  0  0  0  0
   -1.0503    2.6603   -3.3187 C   0  0  0  0  0  0  0  0  0  0  0  0
   -1.3012    0.9438   -4.6939 C   0  0  0  0  0  0  0  0  0  0  0  0
   -1.7427    2.1711   -4.4001 N   0  0  0  0  0  0  0  0  0  0  0  0
   -1.5221    1.5532   -0.5874 H   0  0  0  0  0  0  0  0  0  0  0  0
    0.1978   -0.2586   -1.0135 H   0  0  0  0  0  0  0  0  0  0  0  0
    1.8300    1.3087   -2.2487 H   0  0  0  0  0  0  0  0  0  0  0  0
    1.0440    2.6747   -1.4998 H   0  0  0  0  0  0  0  0  0  0  0  0
    0.1817   -0.2327   -3.8019 H   0  0  0  0  0  0  0  0  0  0  0  0
   -1.3033    3.6430   -2.9735 H   0  0  0  0  0  0  0  0  0  0  0  0
   -1.6567    0.3136   -5.4919 H   0  0  0  0  0  0  0  0  0  0  0  0
   -2.4766    2.6637   -4.9013 H   0  0  0  0  0  0  0  0  0  0  0  0
    1.3986    1.6488    1.3548 N   0  0  0  0  0  0  0  0  0  0  0  0
    2.3257    1.8137    2.4512 C   0  0  2  0  0  0  0  0  0  0  0  0
    2.5448    0.4491    3.0911 C   0  0  0  0  0  0  0  0  0  0  0  0
    1.7427   -0.4767    2.9879 O   0  0  0  0  0  0  0  0  0  0  0  0
    1.8046    2.8147    3.4706 C   0  0  0  0  0  0  0  0  0  0  0  0
    0.5977    2.2714    1.3026 H   0  0  0  0  0  0  0  0  0  0  0  0
    3.2668    2.1702    2.0187 H   0  0  0  0  0  0  0  0  0  0  0  0
    0.8621    2.4746    3.9149 H   0  0  0  0  0  0  0  0  0  0  0  0
    2.5209    2.9598    4.2861 H   0  0  0  0  0  0  0  0  0  0  0  0
    1.6194    3.7874    3.0023 H   0  0  0  0  0  0  0  0  0  0  0  0
    3.7206    0.4004    3.8267 N   0  0  0  0  0  0  0  0  0  0  0  0
    4.1459   -0.7816    4.5395 C   0  0  0  0  0  0  0  0  0  0  0  0
    4.3347    1.2094    3.8415 H   0  0  0  0  0  0  0  0  0  0  0  0
    3.7792   -0.7373    5.5757 H   0  0  0  0  0  0  0  0  0  0  0  0
    3.7379   -1.6750    4.0442 H   0  0  0  0  0  0  0  0  0  0  0  0
    5.2447   -0.8330    4.5414 H   0  0  0  0  0  0  0  0  0  0  0  0
 22 24  2  0  0  0  0
 24 26  1  0  0  0  0
 25 26  1  0  0  0  0
 23 25  2  0  0  0  0
 21 22  1  0  0  0  0
 22 23  1  0  0  0  0
  1  3  1  0  0  0  0
  1  7  1  0  0  0  0
  1  2  2  0  0  0  0
 36 37  1  0  0  0  0
 37 45  1  0  0  0  0
 37 38  2  0  0  0  0
  8  9  1  0  0  0  0
  9 17  1  0  0  0  0
  9 10  2  0  0  0  0
 18 19  1  0  0  0  0
 19 35  1  0  0  0  0
 19 20  2  0  0  0  0
 36 39  1  0  0  0  0
  8 11  1  0  0  0  0
 45 46  1  0  0  0  0
 18 21  1  0  0  0  0
 35 36  1  0  0  0  0
  7  8  1  0  0  0  0
 17 18  1  0  0  0  0
 24 32  1  0  0  0  0
 25 33  1  0  0  0  0
  3  4  1  0  0  0  0
  3  5  1  0  0  0  0
  3  6  1  0  0  0  0
 39 42  1  0  0  0  0
 39 43  1  0  0  0  0
 39 44  1  0  0  0  0
 11 14  1  0  0  0  0
 11 15  1  0  0  0  0
 11 16  1  0  0  0  0
 46 48  1  0  0  0  0
 46 49  1  0  0  0  0
 46 50  1  0  0  0  0
 21 29  1  0  0  0  0
 21 30  1  0  0  0  0
 36 41  1  0  0  0  0
  8 13  1  0  0  0  0
 18 28  1  0  0  0  0
 26 34  1  0  0  0  0
 23 31  1  0  0  0  0
 45 47  1  0  0  0  0
  7 12  1  0  0  0  0
 35 40  1  0  0  0  0
 17 27  1  0  0  0  0
M  CHG  1  23   1
M  END
$$$$

  -OEChem-05262214473D

 50 50  0     1  0  0  0  0  0999 V2000
   -1.6938    0.4865    3.8080 C   0  0  0  0  0  0  0  0  0  0  0  0
   -0.7464   -0.1282    3.3323 O   0  0  0  0  0  0  0  0  0  0  0  0
   -2.1257    0.2041    5.2087 C   0  0  0  0  0  0  0  0  0  0  0  0
   -2.8853   -0.5922    5.2621 H   0  0  0  0  0  0  0  0  0  0  0  0
   -1.2944   -0.1435    5.8430 H   0  0  0  0  0  0  0  0  0  0  0  0
   -2.5637    1.0590    5.7483 H   0  0  0  0  0  0  0  0  0  0  0  0
   -2.4435    1.4589    3.1669 N   0  0  0  0  0  0  0  0  0  0  0  0
   -2.1966    1.8850    1.8145 C   0  0  2  0  0  0  0  0  0  0  0  0
   -0.8617    1.2996    1.3733 C   0  0  0  0  0  0  0  0  0  0  0  0
    0.0104    0.9468    2.1646 O   0  0  0  0  0  0  0  0  0  0  0  0
   -2.1879    3.4017    1.7050 C   0  0  0  0  0  0  0  0  0  0  0  0
   -3.2085    1.8948    3.6787 H   0  0  0  0  0  0  0  0  0  0  0  0
   -3.0007    1.4665    1.1994 H   0  0  0  0  0  0  0  0  0  0  0  0
   -1.3888    3.8390    2.3147 H   0  0  0  0  0  0  0  0  0  0  0  0
   -2.0284    3.7240    0.6708 H   0  0  0  0  0  0  0  0  0  0  0  0
   -3.1380    3.8230    2.0508 H   0  0  0  0  0  0  0  0  0  0  0  0
   -0.7390    1.2565   -0.0101 N   0  0  0  0  0  0  0  0  0  0  0  0
    0.4383    0.7557   -0.6738 C   0  0  2  0  0  0  0  0  0  0  0  0
    1.5475    0.6826    0.3696 C   0  0  0  0  0  0  0  0  0  0  0  0
    2.6057    0.0866    0.1805 O   0  0  0  0  0  0  0  0  0  0  0  0
    0.8663    1.6475   -1.8449 C   0  0  0  0  0  0  0  0  0  0  0  0
   -0.1601    1.6914   -2.9505 C   0  0  0  0  0  0  0  0  0  0  0  0
   -0.3375    0.6408   -3.8182 N   0  3  0  0  0  0  0  0  0  0  0  0
   -1.0503    2.6603   -3.3187 C   0  0  0  0  0  0  0  0  0  0  0  0
   -1.3012    0.9438   -4.6939 C   0  0  0  0  0  0  0  0  0  0  0  0
   -1.7427    2.1711   -4.4001 N   0  0  0  0  0  0  0  0  0  0  0  0
   -1.5221    1.5532   -0.5874 H   0  0  0  0  0  0  0  0  0  0  0  0
    0.1978   -0.2586   -1.0135 H   0  0  0  0  0  0  0  0  0  0  0  0
    1.8300    1.3087   -2.2487 H   0  0  0  0  0  0  0  0  0  0  0  0
    1.0440    2.6747   -1.4998 H   0  0  0  0  0  0  0  0  0  0  0  0
    0.1817   -0.2327   -3.8019 H   0  0  0  0  0  0  0  0  0  0  0  0
   -1.3033    3.6430   -2.9735 H   0  0  0  0  0  0  0  0  0  0  0  0
   -1.6567    0.3136   -5.4919 H   0  0  0  0  0  0  0  0  0  0  0  0
   -2.4766    2.6637   -4.9013 H   0  0  0  0  0  0  0  0  0  0  0  0
    1.2331    1.4032    1.5135 N   0  0  0  0  0  0  0  0  0  0  0  0
    2.1210    1.5179    2.6481 C   0  0  2  0  0  0  0  0  0  0  0  0
    2.5828    0.1170    3.0274 C   0  0  0  0  0  0  0  0  0  0  0  0
    1.9582   -0.8989    2.7292 O   0  0  0  0  0  0  0  0  0  0  0  0
    1.4344    2.2000    3.8211 C   0  0  0  0  0  0  0  0  0  0  0  0
    0.3339    1.8736    1.5552 H   0  0  0  0  0  0  0  0  0  0  0  0
    2.9815    2.1098    2.3178 H   0  0  0  0  0  0  0  0  0  0  0  0
    0.5696    1.6215    4.1660 H   0  0  0  0  0  0  0  0  0  0  0  0
    2.1170    2.3118    4.6700 H   0  0  0  0  0  0  0  0  0  0  0  0
    1.0766    3.1958    3.5379 H   0  0  0  0  0  0  0  0  0  0  0  0
    3.7518    0.1375    3.7751 N   0  0  0  0  0  0  0  0  0  0  0  0
    4.3843   -1.0645    4.2663 C   0  0  0  0  0  0  0  0  0  0  0  0
    4.2118    1.0242    3.9591 H   0  0  0  0  0  0  0  0  0  0  0  0
    4.0203   -1.2825    5.2812 H   0  0  0  0  0  0  0  0  0  0  0  0
    4.1399   -1.9055    3.6007 H   0  0  0  0  0  0  0  0  0  0  0  0
    5.4746   -0.9212    4.2908 H   0  0  0  0  0  0  0  0  0  0  0  0
 22 24  2  0  0  0  0
 24 26  1  0  0  0  0
 25 26  1  0  0  0  0
 23 25  2  0  0  0  0
 21 22  1  0  0  0  0
 22 23  1  0  0  0  0
  1  3  1  0  0  0  0
  1  7  1  0  0  0  0
  1  2  2  0  0  0  0
 36 37  1  0  0  0  0
 37 45  1  0  0  0  0
 37 38  2  0  0  0  0
  8  9  1  0  0  0  0
  9 17  1  0  0  0  0
  9 10  2  0  0  0  0
 18 19  1  0  0  0  0
 19 35  1  0  0  0  0
 19 20  2  0  0  0  0
 36 39  1  0  0  0  0
  8 11  1  0  0  0  0
 45 46  1  0  0  0  0
 18 21  1  0  0  0  0
 35 36  1  0  0  0  0
  7  8  1  0  0  0  0
 17 18  1  0  0  0  0
 24 32  1  0  0  0  0
 25 33  1  0  0  0  0
  3  4  1  0  0  0  0
  3  5  1  0  0  0  0
  3  6  1  0  0  0  0
 39 42  1  0  0  0  0
 39 43  1  0  0  0  0
 39 44  1  0  0  0  0
 11 14  1  0  0  0  0
 11 15  1  0  0  0  0
 11 16  1  0  0  0  0
 46 48  1  0  0  0  0
 46 49  1  0  0  0  0
 46 50  1  0  0  0  0
 21 29  1  0  0  0  0
 21 30  1  0  0  0  0
 36 41  1  0  0  0  0
  8 13  1  0  0  0  0
 18 28  1  0  0  0  0
 26 34  1  0  0  0  0
 23 31  1  0  0  0  0
 45 47  1  0  0  0  0
  7 12  1  0  0  0  0
 35 40  1  0  0  0  0
 17 27  1  0  0  0  0
M  CHG  1  23   1
M  END
$$$$

  -OEChem-05262214473D

 50 50  0     1  0  0  0  0  0999 V2000
   -1.6938    0.4865    3.8080 C   0  0  0  0  0  0  0  0  0  0  0  0
   -0.7464   -0.1282    3.3323 O   0  0  0  0  0  0  0  0  0  0  0  0
   -2.1257    0.2041    5.2087 C   0  0  0  0  0  0  0  0  0  0  0  0
   -2.8853   -0.5922    5.2621 H   0  0  0  0  0  0  0  0  0  0  0  0
   -1.2944   -0.1435    5.8430 H   0  0  0  0  0  0  0  0  0  0  0  0
   -2.5637    1.0590    5.7483 H   0  0  0  0  0  0  0  0  0  0  0  0
   -2.4435    1.4589    3.1669 N   0  0  0  0  0  0  0  0  0  0  0  0
   -2.1966    1.8850    1.8145 C   0  0  2  0  0  0  0  0  0  0  0  0
   -0.8617    1.2996    1.3733 C   0  0  0  0  0  0  0  0  0  0  0  0
    0.0104    0.9468    2.1646 O   0  0  0  0  0  0  0  0  0  0  0  0
   -2.1879    3.4017    1.7050 C   0  0  0  0  0  0  0  0  0  0  0  0
   -3.2085    1.8948    3.6787 H   0  0  0  0  0  0  0  0  0  0  0  0
   -3.0007    1.4665    1.1994 H   0  0  0  0  0  0  0  0  0  0  0  0
   -1.3888    3.8390    2.3147 H   0  0  0  0  0  0  0  0  0  0  0  0
   -2.0284    3.7240    0.6708 H   0  0  0  0  0  0  0  0  0  0  0  0
   -3.1380    3.8230    2.0508 H   0  0  0  0  0  0  0  0  0  0  0  0
   -0.7390    1.2565   -0.0101 N   0  0  0  0  0  0  0  0  0  0  0  0
    0.4383    0.7557   -0.6738 C   0  0  2  0  0  0  0  0  0  0  0  0
    1.5475    0.6826    0.3696 C   0  0  0  0  0  0  0  0  0  0  0  0
    2.6942    0.3288    0.1035 O   0  0  0  0  0  0  0  0  0  0  0  0
    0.8663    1.6475   -1.8449 C   0  0  0  0  0  0  0  0  0  0  0  0
   -0.1601    1.6914   -2.9505 C   0  0  0  0  0  0  0  0  0  0  0  0
   -0.3375    0.6408   -3.8182 N   0  3  0  0  0  0  0  0  0  0  0  0
   -1.0503    2.6603   -3.3187 C   0  0  0  0  0  0  0  0  0  0  0  0
   -1.3012    0.9438   -4.6939 C   0  0  0  0  0  0  0  0  0  0  0  0
   -1.7427    2.1711   -4.4001 N   0  0  0  0  0  0  0  0  0  0  0  0
   -1.5221    1.5532   -0.5874 H   0  0  0  0  0  0  0  0  0  0  0  0
    0.1978   -0.2586   -1.0135 H   0  0  0  0  0  0  0  0  0  0  0  0
    1.8300    1.3087   -2.2487 H   0  0  0  0  0  0  0  0  0  0  0  0
    1.0440    2.6747   -1.4998 H   0  0  0  0  0  0  0  0  0  0  0  0
    0.1817   -0.2327   -3.8019 H   0  0  0  0  0  0  0  0  0  0  0  0
   -1.3033    3.6430   -2.9735 H   0  0  0  0  0  0  0  0  0  0  0  0
   -1.6567    0.3136   -5.4919 H   0  0  0  0  0  0  0  0  0  0  0  0
   -2.4766    2.6637   -4.9013 H   0  0  0  0  0  0  0  0  0  0  0  0
    1.1149    1.1067    1.6184 N   0  0  0  0  0  0  0  0  0  0  0  0
    1.9732    1.1588    2.7800 C   0  0  2  0  0  0  0  0  0  0  0  0
    2.6791   -0.1850    2.9038 C   0  0  0  0  0  0  0  0  0  0  0  0
    2.2444   -1.2198    2.4025 O   0  0  0  0  0  0  0  0  0  0  0  0
    1.1814    1.4748    4.0393 C   0  0  0  0  0  0  0  0  0  0  0  0
    0.1463    1.3950    1.7210 H   0  0  0  0  0  0  0  0  0  0  0  0
    2.7128    1.9446    2.5918 H   0  0  0  0  0  0  0  0  0  0  0  0
    0.4352    0.6984    4.2442 H   0  0  0  0  0  0  0  0  0  0  0  0
    1.8369    1.5421    4.9138 H   0  0  0  0  0  0  0  0  0  0  0  0
    0.6504    2.4274    3.9371 H   0  0  0  0  0  0  0  0  0  0  0  0
    3.8292   -0.1012    3.6761 N   0  0  0  0  0  0  0  0  0  0  0  0
    4.6681   -1.2441    3.9520 C   0  0  0  0  0  0  0  0  0  0  0  0
    4.1245    0.8014    4.0363 H   0  0  0  0  0  0  0  0  0  0  0  0
    4.3534   -1.7110    4.8970 H   0  0  0  0  0  0  0  0  0  0  0  0
    4.5745   -1.9734    3.1339 H   0  0  0  0  0  0  0  0  0  0  0  0
    5.7155   -0.9185    4.0350 H   0  0  0  0  0  0  0  0  0  0  0  0
 22 24  2  0  0  0  0
 24 26  1  0  0  0  0
 25 26  1  0  0  0  0
 23 25  2  0  0  0  0
 21 22  1  0  0  0  0
 22 23  1  0  0  0  0
  1  3  1  0  0  0  0
  1  7  1  0  0  0  0
  1  2  2  0  0  0  0
 36 37  1  0  0  0  0
 37 45  1  0  0  0  0
 37 38  2  0  0  0  0
  8  9  1  0  0  0  0
  9 17  1  0  0  0  0
  9 10  2  0  0  0  0
 18 19  1  0  0  0  0
 19 35  1  0  0  0  0
 19 20  2  0  0  0  0
 36 39  1  0  0  0  0
  8 11  1  0  0  0  0
 45 46  1  0  0  0  0
 18 21  1  0  0  0  0
 35 36  1  0  0  0  0
  7  8  1  0  0  0  0
 17 18  1  0  0  0  0
 24 32  1  0  0  0  0
 25 33  1  0  0  0  0
  3  4  1  0  0  0  0
  3  5  1  0  0  0  0
  3  6  1  0  0  0  0
 39 42  1  0  0  0  0
 39 43  1  0  0  0  0
 39 44  1  0  0  0  0
 11 14  1  0  0  0  0
 11 15  1  0  0  0  0
 11 16  1  0  0  0  0
 46 48  1  0  0  0  0
 46 49  1  0  0  0  0
 46 50  1  0  0  0  0
 21 29  1  0  0  0  0
 21 30  1  0  0  0  0
 36 41  1  0  0  0  0
  8 13  1  0  0  0  0
 18 28  1  0  0  0  0
 26 34  1  0  0  0  0
 23 31  1  0  0  0  0
 45 47  1  0  0  0  0
  7 12  1  0  0  0  0
 35 40  1  0  0  0  0
 17 27  1  0  0  0  0
M  CHG  1  23   1
M  END
$$$$

  -OEChem-05262214473D

 50 50  0     1  0  0  0  0  0999 V2000
   -1.6938    0.4865    3.8080 C   0  0  0  0  0  0  0  0  0  0  0  0
   -0.7464   -0.1282    3.3323 O   0  0  0  0  0  0  0  0  0  0  0  0
   -2.1257    0.2041    5.2087 C   0  0  0  0  0  0  0  0  0  0  0  0
   -2.8853   -0.5922    5.2621 H   0  0  0  0  0  0  0  0  0  0  0  0
   -1.2944   -0.1435    5.8430 H   0  0  0  0  0  0  0  0  0  0  0  0
   -2.5637    1.0590    5.7483 H   0  0  0  0  0  0  0  0  0  0  0  0
   -2.4435    1.4589    3.1669 N   0  0  0  0  0  0  0  0  0  0  0  0
   -2.1966    1.8850    1.8145 C   0  0  2  0  0  0  0  0  0  0  0  0
   -0.8617    1.2996    1.3733 C   0  0  0  0  0  0  0  0  0  0  0  0
    0.0104    0.9468    2.1646 O   0  0  0  0  0  0  0  0  0  0  0  0
   -2.1879    3.4017    1.7050 C   0  0  0  0  0  0  0  0  0  0  0  0
   -3.2085    1.8948    3.6787 H   0  0  0  0  0  0  0  0  0  0  0  0
   -3.0007    1.4665    1.1994 H   0  0  0  0  0  0  0  0  0  0  0  0
   -1.3888    3.8390    2.3147 H   0  0  0  0  0  0  0  0  0  0  0  0
   -2.0284    3.7240    0.6708 H   0  0  0  0  0  0  0  0  0  0  0  0
   -3.1380    3.8230    2.0508 H   0  0  0  0  0  0  0  0  0  0  0  0
   -0.7390    1.2565   -0.0101 N   0  0  0  0  0  0  0  0  0  0  0  0
    0.4383    0.7557   -0.6738 C   0  0  2  0  0  0  0  0  0  0  0  0
    1.5475    0.6826    0.3696 C   0  0  0  0  0  0  0  0  0  0  0  0
    2.7377    0.5930    0.0758 O   0  0  0  0  0  0  0  0  0  0  0  0
    0.8663    1.6475   -1.8449 C   0  0  0  0  0  0  0  0  0  0  0  0
   -0.1601    1.6914   -2.9505 C   0  0  0  0  0  0  0  0  0  0  0  0
   -0.3375    0.6408   -3.8182 N   0  3  0  0  0  0  0  0  0  0  0  0
   -1.0503    2.6603   -3.3187 C   0  0  0  0  0  0  0  0  0  0  0  0
   -1.3012    0.9438   -4.6939 C   0  0  0  0  0  0  0  0  0  0  0  0
   -1.7427    2.1711   -4.4001 N   0  0  0  0  0  0  0  0  0  0  0  0
   -1.5221    1.5532   -0.5874 H   0  0  0  0  0  0  0  0  0  0  0  0
    0.1978   -0.2586   -1.0135 H   0  0  0  0  0  0  0  0  0  0  0  0
    1.8300    1.3087   -2.2487 H   0  0  0  0  0  0  0  0  0  0  0  0
    1.0440    2.6747   -1.4998 H   0  0  0  0  0  0  0  0  0  0  0  0
    0.1817   -0.2327   -3.8019 H   0  0  0  0  0  0  0  0  0  0  0  0
   -1.3033    3.6430   -2.9735 H   0  0  0  0  0  0  0  0  0  0  0  0
   -1.6567    0.3136   -5.4919 H   0  0  0  0  0  0  0  0  0  0  0  0
   -2.4766    2.6637   -4.9013 H   0  0  0  0  0  0  0  0  0  0  0  0
    1.0519    0.7796    1.6624 N   0  0  0  0  0  0  0  0  0  0  0  0
    1.8924    0.7609    2.8380 C   0  0  2  0  0  0  0  0  0  0  0  0
    2.8272   -0.4365    2.7287 C   0  0  0  0  0  0  0  0  0  0  0  0
    2.5817   -1.4176    2.0300 O   0  0  0  0  0  0  0  0  0  0  0  0
    1.0627    0.6883    4.1104 C   0  0  0  0  0  0  0  0  0  0  0  0
    0.0479    0.8683    1.7887 H   0  0  0  0  0  0  0  0  0  0  0  0
    2.4792    1.6858    2.8220 H   0  0  0  0  0  0  0  0  0  0  0  0
    0.4678   -0.2317    4.1443 H   0  0  0  0  0  0  0  0  0  0  0  0
    1.6997    0.7030    5.0009 H   0  0  0  0  0  0  0  0  0  0  0  0
    0.3699    1.5345    4.1727 H   0  0  0  0  0  0  0  0  0  0  0  0
    3.9474   -0.2995    3.5366 N   0  0  0  0  0  0  0  0  0  0  0  0
    4.9779   -1.3081    3.6181 C   0  0  0  0  0  0  0  0  0  0  0  0
    4.0787    0.5563    4.0678 H   0  0  0  0  0  0  0  0  0  0  0  0
    4.7558   -1.9935    4.4494 H   0  0  0  0  0  0  0  0  0  0  0  0
    5.0122   -1.8742    2.6756 H   0  0  0  0  0  0  0  0  0  0  0  0
    5.9508   -0.8250    3.7913 H   0  0  0  0  0  0  0  0  0  0  0  0
 22 24  2  0  0  0  0
 24 26  1  0  0  0  0
 25 26  1  0  0  0  0
 23 25  2  0  0  0  0
 21 22  1  0  0  0  0
 22 23  1  0  0  0  0
  1  3  1  0  0  0  0
  1  7  1  0  0  0  0
  1  2  2  0  0  0  0
 36 37  1  0  0  0  0
 37 45  1  0  0  0  0
 37 38  2  0  0  0  0
  8  9  1  0  0  0  0
  9 17  1  0  0  0  0
  9 10  2  0  0  0  0
 18 19  1  0  0  0  0
 19 35  1  0  0  0  0
 19 20  2  0  0  0  0
 36 39  1  0  0  0  0
  8 11  1  0  0  0  0
 45 46  1  0  0  0  0
 18 21  1  0  0  0  0
 35 36  1  0  0  0  0
  7  8  1  0  0  0  0
 17 18  1  0  0  0  0
 24 32  1  0  0  0  0
 25 33  1  0  0  0  0
  3  4  1  0  0  0  0
  3  5  1  0  0  0  0
  3  6  1  0  0  0  0
 39 42  1  0  0  0  0
 39 43  1  0  0  0  0
 39 44  1  0  0  0  0
 11 14  1  0  0  0  0
 11 15  1  0  0  0  0
 11 16  1  0  0  0  0
 46 48  1  0  0  0  0
 46 49  1  0  0  0  0
 46 50  1  0  0  0  0
 21 29  1  0  0  0  0
 21 30  1  0  0  0  0
 36 41  1  0  0  0  0
  8 13  1  0  0  0  0
 18 28  1  0  0  0  0
 26 34  1  0  0  0  0
 23 31  1  0  0  0  0
 45 47  1  0  0  0  0
  7 12  1  0  0  0  0
 35 40  1  0  0  0  0
 17 27  1  0  0  0  0
M  CHG  1  23   1
M  END
$$$$

  -OEChem-05262214473D

 50 50  0     1  0  0  0  0  0999 V2000
   -1.6938    0.4865    3.8080 C   0  0  0  0  0  0  0  0  0  0  0  0
   -0.7464   -0.1282    3.3323 O   0  0  0  0  0  0  0  0  0  0  0  0
   -2.1257    0.2041    5.2087 C   0  0  0  0  0  0  0  0  0  0  0  0
   -2.8853   -0.5922    5.2621 H   0  0  0  0  0  0  0  0  0  0  0  0
   -1.2944   -0.1435    5.8430 H   0  0  0  0  0  0  0  0  0  0  0  0
   -2.5637    1.0590    5.7483 H   0  0  0  0  0  0  0  0  0  0  0  0
   -2.4435    1.4589    3.1669 N   0  0  0  0  0  0  0  0  0  0  0  0
   -2.1966    1.8850    1.8145 C   0  0  2  0  0  0  0  0  0  0  0  0
   -0.8617    1.2996    1.3733 C   0  0  0  0  0  0  0  0  0  0  0  0
    0.0104    0.9468    2.1646 O   0  0  0  0  0  0  0  0  0  0  0  0
   -2.1879    3.4017    1.7050 C   0  0  0  0  0  0  0  0  0  0  0  0
   -3.2085    1.8948    3.6787 H   0  0  0  0  0  0  0  0  0  0  0  0
   -3.0007    1.4665    1.1994 H   0  0  0  0  0  0  0  0  0  0  0  0
   -1.3888    3.8390    2.3147 H   0  0  0  0  0  0  0  0  0  0  0  0
   -2.0284    3.7240    0.6708 H   0  0  0  0  0  0  0  0  0  0  0  0
   -3.1380    3.8230    2.0508 H   0  0  0  0  0  0  0  0  0  0  0  0
   -0.7390    1.2565   -0.0101 N   0  0  0  0  0  0  0  0  0  0  0  0
    0.4383    0.7557   -0.6738 C   0  0  2  0  0  0  0  0  0  0  0  0
    1.5475    0.6826    0.3696 C   0  0  0  0  0  0  0  0  0  0  0  0
    2.7332    0.8611    0.0993 O   0  0  0  0  0  0  0  0  0  0  0  0
    0.8663    1.6475   -1.8449 C   0  0  0  0  0  0  0  0  0  0  0  0
   -0.1601    1.6914   -2.9505 C   0  0  0  0  0  0  0  0  0  0  0  0
   -0.3375    0.6408   -3.8182 N   0  3  0  0  0  0  0  0  0  0  0  0
   -1.0503    2.6603   -3.3187 C   0  0  0  0  0  0  0  0  0  0  0  0
   -1.3012    0.9438   -4.6939 C   0  0  0  0  0  0  0  0  0  0  0  0
   -1.7427    2.1711   -4.4001 N   0  0  0  0  0  0  0  0  0  0  0  0
   -1.5221    1.5532   -0.5874 H   0  0  0  0  0  0  0  0  0  0  0  0
    0.1978   -0.2586   -1.0135 H   0  0  0  0  0  0  0  0  0  0  0  0
    1.8300    1.3087   -2.2487 H   0  0  0  0  0  0  0  0  0  0  0  0
    1.0440    2.6747   -1.4998 H   0  0  0  0  0  0  0  0  0  0  0  0
    0.1817   -0.2327   -3.8019 H   0  0  0  0  0  0  0  0  0  0  0  0
   -1.3033    3.6430   -2.9735 H   0  0  0  0  0  0  0  0  0  0  0  0
   -1.6567    0.3136   -5.4919 H   0  0  0  0  0  0  0  0  0  0  0  0
   -2.4766    2.6637   -4.9013 H   0  0  0  0  0  0  0  0  0  0  0  0
    1.0484    0.4442    1.6426 N   0  0  0  0  0  0  0  0  0  0  0  0
    1.8842    0.3513    2.8181 C   0  0  2  0  0  0  0  0  0  0  0  0
    3.0170   -0.6201    2.5141 C   0  0  0  0  0  0  0  0  0  0  0  0
    2.9472   -1.4788    1.6372 O   0  0  0  0  0  0  0  0  0  0  0  0
    1.0864   -0.1058    4.0294 C   0  0  0  0  0  0  0  0  0  0  0  0
    0.0453    0.3293    1.7537 H   0  0  0  0  0  0  0  0  0  0  0  0
    2.2966    1.3511    2.9927 H   0  0  0  0  0  0  0  0  0  0  0  0
    0.6654   -1.1056    3.8731 H   0  0  0  0  0  0  0  0  0  0  0  0
    1.7147   -0.1482    4.9253 H   0  0  0  0  0  0  0  0  0  0  0  0
    0.2542    0.5779    4.2287 H   0  0  0  0  0  0  0  0  0  0  0  0
    4.0984   -0.4437    3.3659 N   0  0  0  0  0  0  0  0  0  0  0  0
    5.2926   -1.2523    3.2875 C   0  0  0  0  0  0  0  0  0  0  0  0
    4.0774    0.3054    4.0516 H   0  0  0  0  0  0  0  0  0  0  0  0
    5.2002   -2.1109    3.9688 H   0  0  0  0  0  0  0  0  0  0  0  0
    5.4230   -1.6145    2.2570 H   0  0  0  0  0  0  0  0  0  0  0  0
    6.1646   -0.6472    3.5765 H   0  0  0  0  0  0  0  0  0  0  0  0
 22 24  2  0  0  0  0
 24 26  1  0  0  0  0
 25 26  1  0  0  0  0
 23 25  2  0  0  0  0
 21 22  1  0  0  0  0
 22 23  1  0  0  0  0
  1  3  1  0  0  0  0
  1  7  1  0  0  0  0
  1  2  2  0  0  0  0
 36 37  1  0  0  0  0
 37 45  1  0  0  0  0
 37 38  2  0  0  0  0
  8  9  1  0  0  0  0
  9 17  1  0  0  0  0
  9 10  2  0  0  0  0
 18 19  1  0  0  0  0
 19 35  1  0  0  0  0
 19 20  2  0  0  0  0
 36 39  1  0  0  0  0
  8 11  1  0  0  0  0
 45 46  1  0  0  0  0
 18 21  1  0  0  0  0
 35 36  1  0  0  0  0
  7  8  1  0  0  0  0
 17 18  1  0  0  0  0
 24 32  1  0  0  0  0
 25 33  1  0  0  0  0
  3  4  1  0  0  0  0
  3  5  1  0  0  0  0
  3  6  1  0  0  0  0
 39 42  1  0  0  0  0
 39 43  1  0  0  0  0
 39 44  1  0  0  0  0
 11 14  1  0  0  0  0
 11 15  1  0  0  0  0
 11 16  1  0  0  0  0
 46 48  1  0  0  0  0
 46 49  1  0  0  0  0
 46 50  1  0  0  0  0
 21 29  1  0  0  0  0
 21 30  1  0  0  0  0
 36 41  1  0  0  0  0
  8 13  1  0  0  0  0
 18 28  1  0  0  0  0
 26 34  1  0  0  0  0
 23 31  1  0  0  0  0
 45 47  1  0  0  0  0
  7 12  1  0  0  0  0
 35 40  1  0  0  0  0
 17 27  1  0  0  0  0
M  CHG  1  23   1
M  END
$$$$

  -OEChem-05262214473D

 50 50  0     1  0  0  0  0  0999 V2000
   -1.6938    0.4865    3.8080 C   0  0  0  0  0  0  0  0  0  0  0  0
   -0.7464   -0.1282    3.3323 O   0  0  0  0  0  0  0  0  0  0  0  0
   -2.1257    0.2041    5.2087 C   0  0  0  0  0  0  0  0  0  0  0  0
   -2.8853   -0.5922    5.2621 H   0  0  0  0  0  0  0  0  0  0  0  0
   -1.2944   -0.1435    5.8430 H   0  0  0  0  0  0  0  0  0  0  0  0
   -2.5637    1.0590    5.7483 H   0  0  0  0  0  0  0  0  0  0  0  0
   -2.4435    1.4589    3.1669 N   0  0  0  0  0  0  0  0  0  0  0  0
   -2.1966    1.8850    1.8145 C   0  0  2  0  0  0  0  0  0  0  0  0
   -0.8617    1.2996    1.3733 C   0  0  0  0  0  0  0  0  0  0  0  0
    0.0104    0.9468    2.1646 O   0  0  0  0  0  0  0  0  0  0  0  0
   -2.1879    3.4017    1.7050 C   0  0  0  0  0  0  0  0  0  0  0  0
   -3.2085    1.8948    3.6787 H   0  0  0  0  0  0  0  0  0  0  0  0
   -3.0007    1.4665    1.1994 H   0  0  0  0  0  0  0  0  0  0  0  0
   -1.3888    3.8390    2.3147 H   0  0  0  0  0  0  0  0  0  0  0  0
   -2.0284    3.7240    0.6708 H   0  0  0  0  0  0  0  0  0  0  0  0
   -3.1380    3.8230    2.0508 H   0  0  0  0  0  0  0  0  0  0  0  0
   -0.7390    1.2565   -0.0101 N   0  0  0  0  0  0  0  0  0  0  0  0
    0.4383    0.7557   -0.6738 C   0  0  2  0  0  0  0  0  0  0  0  0
    1.5475    0.6826    0.3696 C   0  0  0  0  0  0  0  0  0  0  0  0
    2.6811    1.1149    0.1725 O   0  0  0  0  0  0  0  0  0  0  0  0
    0.8663    1.6475   -1.8449 C   0  0  0  0  0  0  0  0  0  0  0  0
   -0.1601    1.6914   -2.9505 C   0  0  0  0  0  0  0  0  0  0  0  0
   -0.3375    0.6408   -3.8182 N   0  3  0  0  0  0  0  0  0  0  0  0
   -1.0503    2.6603   -3.3187 C   0  0  0  0  0  0  0  0  0  0  0  0
   -1.3012    0.9438   -4.6939 C   0  0  0  0  0  0  0  0  0  0  0  0
   -1.7427    2.1711   -4.4001 N   0  0  0  0  0  0  0  0  0  0  0  0
   -1.5221    1.5532   -0.5874 H   0  0  0  0  0  0  0  0  0  0  0  0
    0.1978   -0.2586   -1.0135 H   0  0  0  0  0  0  0  0  0  0  0  0
    1.8300    1.3087   -2.2487 H   0  0  0  0  0  0  0  0  0  0  0  0
    1.0440    2.6747   -1.4998 H   0  0  0  0  0  0  0  0  0  0  0  0
    0.1817   -0.2327   -3.8019 H   0  0  0  0  0  0  0  0  0  0  0  0
   -1.3033    3.6430   -2.9735 H   0  0  0  0  0  0  0  0  0  0  0  0
   -1.6567    0.3136   -5.4919 H   0  0  0  0  0  0  0  0  0  0  0  0
   -2.4766    2.6637   -4.9013 H   0  0  0  0  0  0  0  0  0  0  0  0
    1.1047    0.1234    1.5603 N   0  0  0  0  0  0  0  0  0  0  0  0
    1.9490   -0.0420    2.7216 C   0  0  2  0  0  0  0  0  0  0  0  0
    3.2355   -0.7235    2.2746 C   0  0  0  0  0  0  0  0  0  0  0  0
    3.3159   -1.3992    1.2508 O   0  0  0  0  0  0  0  0  0  0  0  0
    1.2511   -0.8533    3.8020 C   0  0  0  0  0  0  0  0  0  0  0  0
    0.1387   -0.1852    1.6184 H   0  0  0  0  0  0  0  0  0  0  0  0
    2.1773    0.9633    3.0923 H   0  0  0  0  0  0  0  0  0  0  0  0
    1.0143   -1.8637    3.4490 H   0  0  0  0  0  0  0  0  0  0  0  0
    1.8809   -0.9534    4.6922 H   0  0  0  0  0  0  0  0  0  0  0  0
    0.3111   -0.3770    4.1012 H   0  0  0  0  0  0  0  0  0  0  0  0
    4.2720   -0.5242    3.1757 N   0  0  0  0  0  0  0  0  0  0  0  0
    5.5909   -1.0803    2.9825 C   0  0  0  0  0  0  0  0  0  0  0  0
    4.1209    0.0659    3.9886 H   0  0  0  0  0  0  0  0  0  0  0  0
    5.6561   -2.0550    3.4881 H   0  0  0  0  0  0  0  0  0  0  0  0
    5.7791   -1.2120    1.9067 H   0  0  0  0  0  0  0  0  0  0  0  0
    6.3423   -0.3971    3.4052 H   0  0  0  0  0  0  0  0  0  0  0  0
 22 24  2  0  0  0  0
 24 26  1  0  0  0  0
 25 26  1  0  0  0  0
 23 25  2  0  0  0  0
 21 22  1  0  0  0  0
 22 23  1  0  0  0  0
  1  3  1  0  0  0  0
  1  7  1  0  0  0  0
  1  2  2  0  0  0  0
 36 37  1  0  0  0  0
 37 45  1  0  0  0  0
 37 38  2  0  0  0  0
  8  9  1  0  0  0  0
  9 17  1  0  0  0  0
  9 10  2  0  0  0  0
 18 19  1  0  0  0  0
 19 35  1  0  0  0  0
 19 20  2  0  0  0  0
 36 39  1  0  0  0  0
  8 11  1  0  0  0  0
 45 46  1  0  0  0  0
 18 21  1  0  0  0  0
 35 36  1  0  0  0  0
  7  8  1  0  0  0  0
 17 18  1  0  0  0  0
 24 32  1  0  0  0  0
 25 33  1  0  0  0  0
  3  4  1  0  0  0  0
  3  5  1  0  0  0  0
  3  6  1  0  0  0  0
 39 42  1  0  0  0  0
 39 43  1  0  0  0  0
 39 44  1  0  0  0  0
 11 14  1  0  0  0  0
 11 15  1  0  0  0  0
 11 16  1  0  0  0  0
 46 48  1  0  0  0  0
 46 49  1  0  0  0  0
 46 50  1  0  0  0  0
 21 29  1  0  0  0  0
 21 30  1  0  0  0  0
 36 41  1  0  0  0  0
  8 13  1  0  0  0  0
 18 28  1  0  0  0  0
 26 34  1  0  0  0  0
 23 31  1  0  0  0  0
 45 47  1  0  0  0  0
  7 12  1  0  0  0  0
 35 40  1  0  0  0  0
 17 27  1  0  0  0  0
M  CHG  1  23   1
M  END
$$$$

  -OEChem-05262214473D

 50 50  0     1  0  0  0  0  0999 V2000
   -1.6938    0.4865    3.8080 C   0  0  0  0  0  0  0  0  0  0  0  0
   -0.7464   -0.1282    3.3323 O   0  0  0  0  0  0  0  0  0  0  0  0
   -2.1257    0.2041    5.2087 C   0  0  0  0  0  0  0  0  0  0  0  0
   -2.8853   -0.5922    5.2621 H   0  0  0  0  0  0  0  0  0  0  0  0
   -1.2944   -0.1435    5.8430 H   0  0  0  0  0  0  0  0  0  0  0  0
   -2.5637    1.0590    5.7483 H   0  0  0  0  0  0  0  0  0  0  0  0
   -2.4435    1.4589    3.1669 N   0  0  0  0  0  0  0  0  0  0  0  0
   -2.1966    1.8850    1.8145 C   0  0  2  0  0  0  0  0  0  0  0  0
   -0.8617    1.2996    1.3733 C   0  0  0  0  0  0  0  0  0  0  0  0
    0.0104    0.9468    2.1646 O   0  0  0  0  0  0  0  0  0  0  0  0
   -2.1879    3.4017    1.7050 C   0  0  0  0  0  0  0  0  0  0  0  0
   -3.2085    1.8948    3.6787 H   0  0  0  0  0  0  0  0  0  0  0  0
   -3.0007    1.4665    1.1994 H   0  0  0  0  0  0  0  0  0  0  0  0
   -1.3888    3.8390    2.3147 H   0  0  0  0  0  0  0  0  0  0  0  0
   -2.0284    3.7240    0.6708 H   0  0  0  0  0  0  0  0  0  0  0  0
   -3.1380    3.8230    2.0508 H   0  0  0  0  0  0  0  0  0  0  0  0
   -0.7390    1.2565   -0.0101 N   0  0  0  0  0  0  0  0  0  0  0  0
    0.4383    0.7557   -0.6738 C   0  0  2  0  0  0  0  0  0  0  0  0
    1.5475    0.6826    0.3696 C   0  0  0  0  0  0  0  0  0  0  0  0
    2.5849    1.3370    0.2903 O   0  0  0  0  0  0  0  0  0  0  0  0
    0.8663    1.6475   -1.8449 C   0  0  0  0  0  0  0  0  0  0  0  0
   -0.1601    1.6914   -2.9505 C   0  0  0  0  0  0  0  0  0  0  0  0
   -0.3375    0.6408   -3.8182 N   0  3  0  0  0  0  0  0  0  0  0  0
   -1.0503    2.6603   -3.3187 C   0  0  0  0  0  0  0  0  0  0  0  0
   -1.3012    0.9438   -4.6939 C   0  0  0  0  0  0  0  0  0  0  0  0
   -1.7427    2.1711   -4.4001 N   0  0  0  0  0  0  0  0  0  0  0  0
   -1.5221    1.5532   -0.5874 H   0  0  0  0  0  0  0  0  0  0  0  0
    0.1978   -0.2586   -1.0135 H   0  0  0  0  0  0  0  0  0  0  0  0
    1.8300    1.3087   -2.2487 H   0  0  0  0  0  0  0  0  0  0  0  0
    1.0440    2.6747   -1.4998 H   0  0  0  0  0  0  0  0  0  0  0  0
    0.1817   -0.2327   -3.8019 H   0  0  0  0  0  0  0  0  0  0  0  0
   -1.3033    3.6430   -2.9735 H   0  0  0  0  0  0  0  0  0  0  0  0
   -1.6567    0.3136   -5.4919 H   0  0  0  0  0  0  0  0  0  0  0  0
   -2.4766    2.6637   -4.9013 H   0  0  0  0  0  0  0  0  0  0  0  0
    1.2169   -0.1610    1.4210 N   0  0  0  0  0  0  0  0  0  0  0  0
    2.0824   -0.3922    2.5552 C   0  0  2  0  0  0  0  0  0  0  0  0
    3.4678   -0.7396    2.0265 C   0  0  0  0  0  0  0  0  0  0  0  0
    3.6628   -1.1842    0.8971 O   0  0  0  0  0  0  0  0  0  0  0  0
    1.5453   -1.5034    3.4437 C   0  0  0  0  0  0  0  0  0  0  0  0
    0.3217   -0.6401    1.3919 H   0  0  0  0  0  0  0  0  0  0  0  0
    2.1295    0.5488    3.1141 H   0  0  0  0  0  0  0  0  0  0  0  0
    1.4909   -2.4542    2.9009 H   0  0  0  0  0  0  0  0  0  0  0  0
    2.1870   -1.6579    4.3174 H   0  0  0  0  0  0  0  0  0  0  0  0
    0.5369   -1.2654    3.7989 H   0  0  0  0  0  0  0  0  0  0  0  0
    4.4563   -0.5353    2.9791 N   0  0  0  0  0  0  0  0  0  0  0  0
    5.8523   -0.8039    2.7240 C   0  0  0  0  0  0  0  0  0  0  0  0
    4.2061   -0.1459    3.8832 H   0  0  0  0  0  0  0  0  0  0  0  0
    6.0925   -1.8298    3.0399 H   0  0  0  0  0  0  0  0  0  0  0  0
    6.0560   -0.6943    1.6486 H   0  0  0  0  0  0  0  0  0  0  0  0
    6.4717   -0.0918    3.2890 H   0  0  0  0  0  0  0  0  0  0  0  0
 22 24  2  0  0  0  0
 24 26  1  0  0  0  0
 25 26  1  0  0  0  0
 23 25  2  0  0  0  0
 21 22  1  0  0  0  0
 22 23  1  0  0  0  0
  1  3  1  0  0  0  0
  1  7  1  0  0  0  0
  1  2  2  0  0  0  0
 36 37  1  0  0  0  0
 37 45  1  0  0  0  0
 37 38  2  0  0  0  0
  8  9  1  0  0  0  0
  9 17  1  0  0  0  0
  9 10  2  0  0  0  0
 18 19  1  0  0  0  0
 19 35  1  0  0  0  0
 19 20  2  0  0  0  0
 36 39  1  0  0  0  0
  8 11  1  0  0  0  0
 45 46  1  0  0  0  0
 18 21  1  0  0  0  0
 35 36  1  0  0  0  0
  7  8  1  0  0  0  0
 17 18  1  0  0  0  0
 24 32  1  0  0  0  0
 25 33  1  0  0  0  0
  3  4  1  0  0  0  0
  3  5  1  0  0  0  0
  3  6  1  0  0  0  0
 39 42  1  0  0  0  0
 39 43  1  0  0  0  0
 39 44  1  0  0  0  0
 11 14  1  0  0  0  0
 11 15  1  0  0  0  0
 11 16  1  0  0  0  0
 46 48  1  0  0  0  0
 46 49  1  0  0  0  0
 46 50  1  0  0  0  0
 21 29  1  0  0  0  0
 21 30  1  0  0  0  0
 36 41  1  0  0  0  0
  8 13  1  0  0  0  0
 18 28  1  0  0  0  0
 26 34  1  0  0  0  0
 23 31  1  0  0  0  0
 45 47  1  0  0  0  0
  7 12  1  0  0  0  0
 35 40  1  0  0  0  0
 17 27  1  0  0  0  0
M  CHG  1  23   1
M  END
$$$$

  -OEChem-05262214473D

 50 50  0     1  0  0  0  0  0999 V2000
   -1.6938    0.4865    3.8080 C   0  0  0  0  0  0  0  0  0  0  0  0
   -0.7464   -0.1282    3.3323 O   0  0  0  0  0  0  0  0  0  0  0  0
   -2.1257    0.2041    5.2087 C   0  0  0  0  0  0  0  0  0  0  0  0
   -2.8853   -0.5922    5.2621 H   0  0  0  0  0  0  0  0  0  0  0  0
   -1.2944   -0.1435    5.8430 H   0  0  0  0  0  0  0  0  0  0  0  0
   -2.5637    1.0590    5.7483 H   0  0  0  0  0  0  0  0  0  0  0  0
   -2.4435    1.4589    3.1669 N   0  0  0  0  0  0  0  0  0  0  0  0
   -2.1966    1.8850    1.8145 C   0  0  2  0  0  0  0  0  0  0  0  0
   -0.8617    1.2996    1.3733 C   0  0  0  0  0  0  0  0  0  0  0  0
    0.0104    0.9468    2.1646 O   0  0  0  0  0  0  0  0  0  0  0  0
   -2.1879    3.4017    1.7050 C   0  0  0  0  0  0  0  0  0  0  0  0
   -3.2085    1.8948    3.6787 H   0  0  0  0  0  0  0  0  0  0  0  0
   -3.0007    1.4665    1.1994 H   0  0  0  0  0  0  0  0  0  0  0  0
   -1.3888    3.8390    2.3147 H   0  0  0  0  0  0  0  0  0  0  0  0
   -2.0284    3.7240    0.6708 H   0  0  0  0  0  0  0  0  0  0  0  0
   -3.1380    3.8230    2.0508 H   0  0  0  0  0  0  0  0  0  0  0  0
   -0.7390    1.2565   -0.0101 N   0  0  0  0  0  0  0  0  0  0  0  0
    0.4383    0.7557   -0.6738 C   0  0  2  0  0  0  0  0  0  0  0  0
    1.5475    0.6826    0.3696 C   0  0  0  0  0  0  0  0  0  0  0  0
    2.4512    1.5123    0.4447 O   0  0  0  0  0  0  0  0  0  0  0  0
    0.8663    1.6475   -1.8449 C   0  0  0  0  0  0  0  0  0  0  0  0
   -0.1601    1.6914   -2.9505 C   0  0  0  0  0  0  0  0  0  0  0  0
   -0.3375    0.6408   -3.8182 N   0  3  0  0  0  0  0  0  0  0  0  0
   -1.0503    2.6603   -3.3187 C   0  0  0  0  0  0  0  0  0  0  0  0
   -1.3012    0.9438   -4.6939 C   0  0  0  0  0  0  0  0  0  0  0  0
   -1.7427    2.1711   -4.4001 N   0  0  0  0  0  0  0  0  0  0  0  0
   -1.5221    1.5532   -0.5874 H   0  0  0  0  0  0  0  0  0  0  0  0
    0.1978   -0.2586   -1.0135 H   0  0  0  0  0  0  0  0  0  0  0  0
    1.8300    1.3087   -2.2487 H   0  0  0  0  0  0  0  0  0  0  0  0
    1.0440    2.6747   -1.4998 H   0  0  0  0  0  0  0  0  0  0  0  0
    0.1817   -0.2327   -3.8019 H   0  0  0  0  0  0  0  0  0  0  0  0
   -1.3033    3.6430   -2.9735 H   0  0  0  0  0  0  0  0  0  0  0  0
   -1.6567    0.3136   -5.4919 H   0  0  0  0  0  0  0  0  0  0  0  0
   -2.4766    2.6637   -4.9013 H   0  0  0  0  0  0  0  0  0  0  0  0
    1.3775   -0.3897    1.2344 N   0  0  0  0  0  0  0  0  0  0  0  0
    2.2754   -0.6755    2.3301 C   0  0  2  0  0  0  0  0  0  0  0  0
    3.6982   -0.6672    1.7867 C   0  0  0  0  0  0  0  0  0  0  0  0
    3.9641   -0.8485    0.6003 O   0  0  0  0  0  0  0  0  0  0  0  0
    1.9492   -2.0118    2.9787 C   0  0  0  0  0  0  0  0  0  0  0  0
    0.5819   -1.0044    1.0898 H   0  0  0  0  0  0  0  0  0  0  0  0
    2.1565    0.1359    3.0564 H   0  0  0  0  0  0  0  0  0  0  0  0
    2.0627   -2.8370    2.2662 H   0  0  0  0  0  0  0  0  0  0  0  0
    2.6120   -2.2137    3.8266 H   0  0  0  0  0  0  0  0  0  0  0  0
    0.9161   -2.0265    3.3425 H   0  0  0  0  0  0  0  0  0  0  0  0
    4.6387   -0.4764    2.7893 N   0  0  0  0  0  0  0  0  0  0  0  0
    6.0590   -0.4419    2.5296 C   0  0  0  0  0  0  0  0  0  0  0  0
    4.3271   -0.3155    3.7426 H   0  0  0  0  0  0  0  0  0  0  0  0
    6.4798   -1.4505    2.6548 H   0  0  0  0  0  0  0  0  0  0  0  0
    6.2351   -0.0965    1.5001 H   0  0  0  0  0  0  0  0  0  0  0  0
    6.5441    0.2479    3.2358 H   0  0  0  0  0  0  0  0  0  0  0  0
 22 24  2  0  0  0  0
 24 26  1  0  0  0  0
 25 26  1  0  0  0  0
 23 25  2  0  0  0  0
 21 22  1  0  0  0  0
 22 23  1  0  0  0  0
  1  3  1  0  0  0  0
  1  7  1  0  0  0  0
  1  2  2  0  0  0  0
 36 37  1  0  0  0  0
 37 45  1  0  0  0  0
 37 38  2  0  0  0  0
  8  9  1  0  0  0  0
  9 17  1  0  0  0  0
  9 10  2  0  0  0  0
 18 19  1  0  0  0  0
 19 35  1  0  0  0  0
 19 20  2  0  0  0  0
 36 39  1  0  0  0  0
  8 11  1  0  0  0  0
 45 46  1  0  0  0  0
 18 21  1  0  0  0  0
 35 36  1  0  0  0  0
  7  8  1  0  0  0  0
 17 18  1  0  0  0  0
 24 32  1  0  0  0  0
 25 33  1  0  0  0  0
  3  4  1  0  0  0  0
  3  5  1  0  0  0  0
  3  6  1  0  0  0  0
 39 42  1  0  0  0  0
 39 43  1  0  0  0  0
 39 44  1  0  0  0  0
 11 14  1  0  0  0  0
 11 15  1  0  0  0  0
 11 16  1  0  0  0  0
 46 48  1  0  0  0  0
 46 49  1  0  0  0  0
 46 50  1  0  0  0  0
 21 29  1  0  0  0  0
 21 30  1  0  0  0  0
 36 41  1  0  0  0  0
  8 13  1  0  0  0  0
 18 28  1  0  0  0  0
 26 34  1  0  0  0  0
 23 31  1  0  0  0  0
 45 47  1  0  0  0  0
  7 12  1  0  0  0  0
 35 40  1  0  0  0  0
 17 27  1  0  0  0  0
M  CHG  1  23   1
M  END
$$$$

  -OEChem-05262214473D

 50 50  0     1  0  0  0  0  0999 V2000
   -1.6938    0.4865    3.8080 C   0  0  0  0  0  0  0  0  0  0  0  0
   -0.7464   -0.1282    3.3323 O   0  0  0  0  0  0  0  0  0  0  0  0
   -2.1257    0.2041    5.2087 C   0  0  0  0  0  0  0  0  0  0  0  0
   -2.8853   -0.5922    5.2621 H   0  0  0  0  0  0  0  0  0  0  0  0
   -1.2944   -0.1435    5.8430 H   0  0  0  0  0  0  0  0  0  0  0  0
   -2.5637    1.0590    5.7483 H   0  0  0  0  0  0  0  0  0  0  0  0
   -2.4435    1.4589    3.1669 N   0  0  0  0  0  0  0  0  0  0  0  0
   -2.1966    1.8850    1.8145 C   0  0  2  0  0  0  0  0  0  0  0  0
   -0.8617    1.2996    1.3733 C   0  0  0  0  0  0  0  0  0  0  0  0
    0.0104    0.9468    2.1646 O   0  0  0  0  0  0  0  0  0  0  0  0
   -2.1879    3.4017    1.7050 C   0  0  0  0  0  0  0  0  0  0  0  0
   -3.2085    1.8948    3.6787 H   0  0  0  0  0  0  0  0  0  0  0  0
   -3.0007    1.4665    1.1994 H   0  0  0  0  0  0  0  0  0  0  0  0
   -1.3888    3.8390    2.3147 H   0  0  0  0  0  0  0  0  0  0  0  0
   -2.0284    3.7240    0.6708 H   0  0  0  0  0  0  0  0  0  0  0  0
   -3.1380    3.8230    2.0508 H   0  0  0  0  0  0  0  0  0  0  0  0
   -0.7390    1.2565   -0.0101 N   0  0  0  0  0  0  0  0  0  0  0  0
    0.4383    0.7557   -0.6738 C   0  0  2  0  0  0  0  0  0  0  0  0
    1.5475    0.6826    0.3696 C   0  0  0  0  0  0  0  0  0  0  0  0
    2.2891    1.6289    0.6252 O   0  0  0  0  0  0  0  0  0  0  0  0
    0.8663    1.6475   -1.8449 C   0  0  0  0  0  0  0  0  0  0  0  0
   -0.1601    1.6914   -2.9505 C   0  0  0  0  0  0  0  0  0  0  0  0
   -0.3375    0.6408   -3.8182 N   0  3  0  0  0  0  0  0  0  0  0  0
   -1.0503    2.6603   -3.3187 C   0  0  0  0  0  0  0  0  0  0  0  0
   -1.3012    0.9438   -4.6939 C   0  0  0  0  0  0  0  0  0  0  0  0
   -1.7427    2.1711   -4.4001 N   0  0  0  0  0  0  0  0  0  0  0  0
   -1.5221    1.5532   -0.5874 H   0  0  0  0  0  0  0  0  0  0  0  0
    0.1978   -0.2586   -1.0135 H   0  0  0  0  0  0  0  0  0  0  0  0
    1.8300    1.3087   -2.2487 H   0  0  0  0  0  0  0  0  0  0  0  0
    1.0440    2.6747   -1.4998 H   0  0  0  0  0  0  0  0  0  0  0  0
    0.1817   -0.2327   -3.8019 H   0  0  0  0  0  0  0  0  0  0  0  0
   -1.3033    3.6430   -2.9735 H   0  0  0  0  0  0  0  0  0  0  0  0
   -1.6567    0.3136   -5.4919 H   0  0  0  0  0  0  0  0  0  0  0  0
   -2.4766    2.6637   -4.9013 H   0  0  0  0  0  0  0  0  0  0  0  0
    1.5753   -0.5469    1.0130 N   0  0  0  0  0  0  0  0  0  0  0  0
    2.5149   -0.8727    2.0618 C   0  0  2  0  0  0  0  0  0  0  0  0
    3.9108   -0.5113    1.5716 C   0  0  0  0  0  0  0  0  0  0  0  0
    4.1994   -0.4149    0.3806 O   0  0  0  0  0  0  0  0  0  0  0  0
    2.4351   -2.3437    2.4389 C   0  0  0  0  0  0  0  0  0  0  0  0
    0.9015   -1.2534    0.7326 H   0  0  0  0  0  0  0  0  0  0  0  0
    2.2565   -0.2473    2.9233 H   0  0  0  0  0  0  0  0  0  0  0  0
    2.6907   -2.9860    1.5882 H   0  0  0  0  0  0  0  0  0  0  0  0
    3.1272   -2.5827    3.2531 H   0  0  0  0  0  0  0  0  0  0  0  0
    1.4228   -2.6087    2.7629 H   0  0  0  0  0  0  0  0  0  0  0  0
    4.8068   -0.3515    2.6193 N   0  0  0  0  0  0  0  0  0  0  0  0
    6.1970   -0.0191    2.4125 C   0  0  0  0  0  0  0  0  0  0  0  0
    4.4759   -0.4315    3.5763 H   0  0  0  0  0  0  0  0  0  0  0  0
    6.7915   -0.9430    2.3590 H   0  0  0  0  0  0  0  0  0  0  0  0
    6.3040    0.5406    1.4716 H   0  0  0  0  0  0  0  0  0  0  0  0
    6.5545    0.5989    3.2493 H   0  0  0  0  0  0  0  0  0  0  0  0
 22 24  2  0  0  0  0
 24 26  1  0  0  0  0
 25 26  1  0  0  0  0
 23 25  2  0  0  0  0
 21 22  1  0  0  0  0
 22 23  1  0  0  0  0
  1  3  1  0  0  0  0
  1  7  1  0  0  0  0
  1  2  2  0  0  0  0
 36 37  1  0  0  0  0
 37 45  1  0  0  0  0
 37 38  2  0  0  0  0
  8  9  1  0  0  0  0
  9 17  1  0  0  0  0
  9 10  2  0  0  0  0
 18 19  1  0  0  0  0
 19 35  1  0  0  0  0
 19 20  2  0  0  0  0
 36 39  1  0  0  0  0
  8 11  1  0  0  0  0
 45 46  1  0  0  0  0
 18 21  1  0  0  0  0
 35 36  1  0  0  0  0
  7  8  1  0  0  0  0
 17 18  1  0  0  0  0
 24 32  1  0  0  0  0
 25 33  1  0  0  0  0
  3  4  1  0  0  0  0
  3  5  1  0  0  0  0
  3  6  1  0  0  0  0
 39 42  1  0  0  0  0
 39 43  1  0  0  0  0
 39 44  1  0  0  0  0
 11 14  1  0  0  0  0
 11 15  1  0  0  0  0
 11 16  1  0  0  0  0
 46 48  1  0  0  0  0
 46 49  1  0  0  0  0
 46 50  1  0  0  0  0
 21 29  1  0  0  0  0
 21 30  1  0  0  0  0
 36 41  1  0  0  0  0
  8 13  1  0  0  0  0
 18 28  1  0  0  0  0
 26 34  1  0  0  0  0
 23 31  1  0  0  0  0
 45 47  1  0  0  0  0
  7 12  1  0  0  0  0
 35 40  1  0  0  0  0
 17 27  1  0  0  0  0
M  CHG  1  23   1
M  END
$$$$

  -OEChem-05262214473D

 50 50  0     1  0  0  0  0  0999 V2000
   -1.6938    0.4865    3.8080 C   0  0  0  0  0  0  0  0  0  0  0  0
   -0.7464   -0.1282    3.3323 O   0  0  0  0  0  0  0  0  0  0  0  0
   -2.1257    0.2041    5.2087 C   0  0  0  0  0  0  0  0  0  0  0  0
   -2.8853   -0.5922    5.2621 H   0  0  0  0  0  0  0  0  0  0  0  0
   -1.2944   -0.1435    5.8430 H   0  0  0  0  0  0  0  0  0  0  0  0
   -2.5637    1.0590    5.7483 H   0  0  0  0  0  0  0  0  0  0  0  0
   -2.4435    1.4589    3.1669 N   0  0  0  0  0  0  0  0  0  0  0  0
   -2.1966    1.8850    1.8145 C   0  0  2  0  0  0  0  0  0  0  0  0
   -0.8617    1.2996    1.3733 C   0  0  0  0  0  0  0  0  0  0  0  0
    0.0104    0.9468    2.1646 O   0  0  0  0  0  0  0  0  0  0  0  0
   -2.1879    3.4017    1.7050 C   0  0  0  0  0  0  0  0  0  0  0  0
   -3.2085    1.8948    3.6787 H   0  0  0  0  0  0  0  0  0  0  0  0
   -3.0007    1.4665    1.1994 H   0  0  0  0  0  0  0  0  0  0  0  0
   -1.3888    3.8390    2.3147 H   0  0  0  0  0  0  0  0  0  0  0  0
   -2.0284    3.7240    0.6708 H   0  0  0  0  0  0  0  0  0  0  0  0
   -3.1380    3.8230    2.0508 H   0  0  0  0  0  0  0  0  0  0  0  0
   -0.7390    1.2565   -0.0101 N   0  0  0  0  0  0  0  0  0  0  0  0
    0.4383    0.7557   -0.6738 C   0  0  2  0  0  0  0  0  0  0  0  0
    1.5475    0.6826    0.3696 C   0  0  0  0  0  0  0  0  0  0  0  0
    2.1097    1.6788    0.8195 O   0  0  0  0  0  0  0  0  0  0  0  0
    0.8663    1.6475   -1.8449 C   0  0  0  0  0  0  0  0  0  0  0  0
   -0.1601    1.6914   -2.9505 C   0  0  0  0  0  0  0  0  0  0  0  0
   -0.3375    0.6408   -3.8182 N   0  3  0  0  0  0  0  0  0  0  0  0
   -1.0503    2.6603   -3.3187 C   0  0  0  0  0  0  0  0  0  0  0  0
   -1.3012    0.9438   -4.6939 C   0  0  0  0  0  0  0  0  0  0  0  0
   -1.7427    2.1711   -4.4001 N   0  0  0  0  0  0  0  0  0  0  0  0
   -1.5221    1.5532   -0.5874 H   0  0  0  0  0  0  0  0  0  0  0  0
    0.1978   -0.2586   -1.0135 H   0  0  0  0  0  0  0  0  0  0  0  0
    1.8300    1.3087   -2.2487 H   0  0  0  0  0  0  0  0  0  0  0  0
    1.0440    2.6747   -1.4998 H   0  0  0  0  0  0  0  0  0  0  0  0
    0.1817   -0.2327   -3.8019 H   0  0  0  0  0  0  0  0  0  0  0  0
   -1.3033    3.6430   -2.9735 H   0  0  0  0  0  0  0  0  0  0  0  0
   -1.6567    0.3136   -5.4919 H   0  0  0  0  0  0  0  0  0  0  0  0
   -2.4766    2.6637   -4.9013 H   0  0  0  0  0  0  0  0  0  0  0  0
    1.7971   -0.6221    0.7720 N   0  0  0  0  0  0  0  0  0  0  0  0
    2.7844   -0.9701    1.7684 C   0  0  2  0  0  0  0  0  0  0  0  0
    4.0913   -0.2826    1.3957 C   0  0  0  0  0  0  0  0  0  0  0  0
    4.3527    0.0869    0.2528 O   0  0  0  0  0  0  0  0  0  0  0  0
    2.9699   -2.4767    1.8610 C   0  0  0  0  0  0  0  0  0  0  0  0
    1.2587   -1.3700    0.3447 H   0  0  0  0  0  0  0  0  0  0  0  0
    2.4225   -0.5747    2.7238 H   0  0  0  0  0  0  0  0  0  0  0  0
    3.3321   -2.8909    0.9130 H   0  0  0  0  0  0  0  0  0  0  0  0
    3.6972   -2.7400    2.6361 H   0  0  0  0  0  0  0  0  0  0  0  0
    2.0226   -2.9721    2.0999 H   0  0  0  0  0  0  0  0  0  0  0  0
    4.9492   -0.1691    2.4808 N   0  0  0  0  0  0  0  0  0  0  0  0
    6.2568    0.4359    2.3808 C   0  0  0  0  0  0  0  0  0  0  0  0
    4.6422   -0.4858    3.3958 H   0  0  0  0  0  0  0  0  0  0  0  0
    7.0063   -0.3420    2.1728 H   0  0  0  0  0  0  0  0  0  0  0  0
    6.2580    1.1735    1.5648 H   0  0  0  0  0  0  0  0  0  0  0  0
    6.5022    0.9372    3.3286 H   0  0  0  0  0  0  0  0  0  0  0  0
 22 24  2  0  0  0  0
 24 26  1  0  0  0  0
 25 26  1  0  0  0  0
 23 25  2  0  0  0  0
 21 22  1  0  0  0  0
 22 23  1  0  0  0  0
  1  3  1  0  0  0  0
  1  7  1  0  0  0  0
  1  2  2  0  0  0  0
 36 37  1  0  0  0  0
 37 45  1  0  0  0  0
 37 38  2  0  0  0  0
  8  9  1  0  0  0  0
  9 17  1  0  0  0  0
  9 10  2  0  0  0  0
 18 19  1  0  0  0  0
 19 35  1  0  0  0  0
 19 20  2  0  0  0  0
 36 39  1  0  0  0  0
  8 11  1  0  0  0  0
 45 46  1  0  0  0  0
 18 21  1  0  0  0  0
 35 36  1  0  0  0  0
  7  8  1  0  0  0  0
 17 18  1  0  0  0  0
 24 32  1  0  0  0  0
 25 33  1  0  0  0  0
  3  4  1  0  0  0  0
  3  5  1  0  0  0  0
  3  6  1  0  0  0  0
 39 42  1  0  0  0  0
 39 43  1  0  0  0  0
 39 44  1  0  0  0  0
 11 14  1  0  0  0  0
 11 15  1  0  0  0  0
 11 16  1  0  0  0  0
 46 48  1  0  0  0  0
 46 49  1  0  0  0  0
 46 50  1  0  0  0  0
 21 29  1  0  0  0  0
 21 30  1  0  0  0  0
 36 41  1  0  0  0  0
  8 13  1  0  0  0  0
 18 28  1  0  0  0  0
 26 34  1  0  0  0  0
 23 31  1  0  0  0  0
 45 47  1  0  0  0  0
  7 12  1  0  0  0  0
 35 40  1  0  0  0  0
 17 27  1  0  0  0  0
M  CHG  1  23   1
M  END
$$$$

  -OEChem-05262214473D

 50 50  0     1  0  0  0  0  0999 V2000
   -1.6938    0.4865    3.8080 C   0  0  0  0  0  0  0  0  0  0  0  0
   -0.7464   -0.1282    3.3323 O   0  0  0  0  0  0  0  0  0  0  0  0
   -2.1257    0.2041    5.2087 C   0  0  0  0  0  0  0  0  0  0  0  0
   -2.8853   -0.5922    5.2621 H   0  0  0  0  0  0  0  0  0  0  0  0
   -1.2944   -0.1435    5.8430 H   0  0  0  0  0  0  0  0  0  0  0  0
   -2.5637    1.0590    5.7483 H   0  0  0  0  0  0  0  0  0  0  0  0
   -2.4435    1.4589    3.1669 N   0  0  0  0  0  0  0  0  0  0  0  0
   -2.1966    1.8850    1.8145 C   0  0  2  0  0  0  0  0  0  0  0  0
   -0.8617    1.2996    1.3733 C   0  0  0  0  0  0  0  0  0  0  0  0
    0.0104    0.9468    2.1646 O   0  0  0  0  0  0  0  0  0  0  0  0
   -2.1879    3.4017    1.7050 C   0  0  0  0  0  0  0  0  0  0  0  0
   -3.2085    1.8948    3.6787 H   0  0  0  0  0  0  0  0  0  0  0  0
   -3.0007    1.4665    1.1994 H   0  0  0  0  0  0  0  0  0  0  0  0
   -1.3888    3.8390    2.3147 H   0  0  0  0  0  0  0  0  0  0  0  0
   -2.0284    3.7240    0.6708 H   0  0  0  0  0  0  0  0  0  0  0  0
   -3.1380    3.8230    2.0508 H   0  0  0  0  0  0  0  0  0  0  0  0
   -0.7390    1.2565   -0.0101 N   0  0  0  0  0  0  0  0  0  0  0  0
    0.4383    0.7557   -0.6738 C   0  0  2  0  0  0  0  0  0  0  0  0
    1.5475    0.6826    0.3696 C   0  0  0  0  0  0  0  0  0  0  0  0
    1.9250    1.6586    1.0143 O   0  0  0  0  0  0  0  0  0  0  0  0
    0.8663    1.6475   -1.8449 C   0  0  0  0  0  0  0  0  0  0  0  0
   -0.1601    1.6914   -2.9505 C   0  0  0  0  0  0  0  0  0  0  0  0
   -0.3375    0.6408   -3.8182 N   0  3  0  0  0  0  0  0  0  0  0  0
   -1.0503    2.6603   -3.3187 C   0  0  0  0  0  0  0  0  0  0  0  0
   -1.3012    0.9438   -4.6939 C   0  0  0  0  0  0  0  0  0  0  0  0
   -1.7427    2.1711   -4.4001 N   0  0  0  0  0  0  0  0  0  0  0  0
   -1.5221    1.5532   -0.5874 H   0  0  0  0  0  0  0  0  0  0  0  0
    0.1978   -0.2586   -1.0135 H   0  0  0  0  0  0  0  0  0  0  0  0
    1.8300    1.3087   -2.2487 H   0  0  0  0  0  0  0  0  0  0  0  0
    1.0440    2.6747   -1.4998 H   0  0  0  0  0  0  0  0  0  0  0  0
    0.1817   -0.2327   -3.8019 H   0  0  0  0  0  0  0  0  0  0  0  0
   -1.3033    3.6430   -2.9735 H   0  0  0  0  0  0  0  0  0  0  0  0
   -1.6567    0.3136   -5.4919 H   0  0  0  0  0  0  0  0  0  0  0  0
   -2.4766    2.6637   -4.9013 H   0  0  0  0  0  0  0  0  0  0  0  0
    2.0275   -0.6101    0.5278 N   0  0  0  0  0  0  0  0  0  0  0  0
    3.0656   -0.9613    1.4701 C   0  0  2  0  0  0  0  0  0  0  0  0
    4.2273    0.0034    1.2712 C   0  0  0  0  0  0  0  0  0  0  0  0
    4.4134    0.6228    0.2259 O   0  0  0  0  0  0  0  0  0  0  0  0
    3.5172   -2.4015    1.2844 C   0  0  0  0  0  0  0  0  0  0  0  0
    1.6292   -1.3463   -0.0475 H   0  0  0  0  0  0  0  0  0  0  0  0
    2.6434   -0.8239    2.4715 H   0  0  0  0  0  0  0  0  0  0  0  0
    3.9432   -2.5584    0.2867 H   0  0  0  0  0  0  0  0  0  0  0  0
    4.2834   -2.6747    2.0175 H   0  0  0  0  0  0  0  0  0  0  0  0
    2.6746   -3.0920    1.3984 H   0  0  0  0  0  0  0  0  0  0  0  0
    5.0561    0.0585    2.3831 N   0  0  0  0  0  0  0  0  0  0  0  0
    6.2345    0.8919    2.4365 C   0  0  0  0  0  0  0  0  0  0  0  0
    4.8147   -0.4748    3.2132 H   0  0  0  0  0  0  0  0  0  0  0  0
    7.1097    0.3117    2.1087 H   0  0  0  0  0  0  0  0  0  0  0  0
    6.1004    1.7592    1.7734 H   0  0  0  0  0  0  0  0  0  0  0  0
    6.3908    1.2398    3.4683 H   0  0  0  0  0  0  0  0  0  0  0  0
 22 24  2  0  0  0  0
 24 26  1  0  0  0  0
 25 26  1  0  0  0  0
 23 25  2  0  0  0  0
 21 22  1  0  0  0  0
 22 23  1  0  0  0  0
  1  3  1  0  0  0  0
  1  7  1  0  0  0  0
  1  2  2  0  0  0  0
 36 37  1  0  0  0  0
 37 45  1  0  0  0  0
 37 38  2  0  0  0  0
  8  9  1  0  0  0  0
  9 17  1  0  0  0  0
  9 10  2  0  0  0  0
 18 19  1  0  0  0  0
 19 35  1  0  0  0  0
 19 20  2  0  0  0  0
 36 39  1  0  0  0  0
  8 11  1  0  0  0  0
 45 46  1  0  0  0  0
 18 21  1  0  0  0  0
 35 36  1  0  0  0  0
  7  8  1  0  0  0  0
 17 18  1  0  0  0  0
 24 32  1  0  0  0  0
 25 33  1  0  0  0  0
  3  4  1  0  0  0  0
  3  5  1  0  0  0  0
  3  6  1  0  0  0  0
 39 42  1  0  0  0  0
 39 43  1  0  0  0  0
 39 44  1  0  0  0  0
 11 14  1  0  0  0  0
 11 15  1  0  0  0  0
 11 16  1  0  0  0  0
 46 48  1  0  0  0  0
 46 49  1  0  0  0  0
 46 50  1  0  0  0  0
 21 29  1  0  0  0  0
 21 30  1  0  0  0  0
 36 41  1  0  0  0  0
  8 13  1  0  0  0  0
 18 28  1  0  0  0  0
 26 34  1  0  0  0  0
 23 31  1  0  0  0  0
 45 47  1  0  0  0  0
  7 12  1  0  0  0  0
 35 40  1  0  0  0  0
 17 27  1  0  0  0  0
M  CHG  1  23   1
M  END
$$$$

  -OEChem-05262214473D

 50 50  0     1  0  0  0  0  0999 V2000
   -1.6938    0.4865    3.8080 C   0  0  0  0  0  0  0  0  0  0  0  0
   -0.7464   -0.1282    3.3323 O   0  0  0  0  0  0  0  0  0  0  0  0
   -2.1257    0.2041    5.2087 C   0  0  0  0  0  0  0  0  0  0  0  0
   -2.8853   -0.5922    5.2621 H   0  0  0  0  0  0  0  0  0  0  0  0
   -1.2944   -0.1435    5.8430 H   0  0  0  0  0  0  0  0  0  0  0  0
   -2.5637    1.0590    5.7483 H   0  0  0  0  0  0  0  0  0  0  0  0
   -2.4435    1.4589    3.1669 N   0  0  0  0  0  0  0  0  0  0  0  0
   -2.1966    1.8850    1.8145 C   0  0  2  0  0  0  0  0  0  0  0  0
   -0.8617    1.2996    1.3733 C   0  0  0  0  0  0  0  0  0  0  0  0
    0.0104    0.9468    2.1646 O   0  0  0  0  0  0  0  0  0  0  0  0
   -2.1879    3.4017    1.7050 C   0  0  0  0  0  0  0  0  0  0  0  0
   -3.2085    1.8948    3.6787 H   0  0  0  0  0  0  0  0  0  0  0  0
   -3.0007    1.4665    1.1994 H   0  0  0  0  0  0  0  0  0  0  0  0
   -1.3888    3.8390    2.3147 H   0  0  0  0  0  0  0  0  0  0  0  0
   -2.0284    3.7240    0.6708 H   0  0  0  0  0  0  0  0  0  0  0  0
   -3.1380    3.8230    2.0508 H   0  0  0  0  0  0  0  0  0  0  0  0
   -0.7390    1.2565   -0.0101 N   0  0  0  0  0  0  0  0  0  0  0  0
    0.4383    0.7557   -0.6738 C   0  0  2  0  0  0  0  0  0  0  0  0
    1.5475    0.6826    0.3696 C   0  0  0  0  0  0  0  0  0  0  0  0
    1.7479    1.5697    1.1964 O   0  0  0  0  0  0  0  0  0  0  0  0
    0.8663    1.6475   -1.8449 C   0  0  0  0  0  0  0  0  0  0  0  0
   -0.1601    1.6914   -2.9505 C   0  0  0  0  0  0  0  0  0  0  0  0
   -0.3375    0.6408   -3.8182 N   0  3  0  0  0  0  0  0  0  0  0  0
   -1.0503    2.6603   -3.3187 C   0  0  0  0  0  0  0  0  0  0  0  0
   -1.3012    0.9438   -4.6939 C   0  0  0  0  0  0  0  0  0  0  0  0
   -1.7427    2.1711   -4.4001 N   0  0  0  0  0  0  0  0  0  0  0  0
   -1.5221    1.5532   -0.5874 H   0  0  0  0  0  0  0  0  0  0  0  0
    0.1978   -0.2586   -1.0135 H   0  0  0  0  0  0  0  0  0  0  0  0
    1.8300    1.3087   -2.2487 H   0  0  0  0  0  0  0  0  0  0  0  0
    1.0440    2.6747   -1.4998 H   0  0  0  0  0  0  0  0  0  0  0  0
    0.1817   -0.2327   -3.8019 H   0  0  0  0  0  0  0  0  0  0  0  0
   -1.3033    3.6430   -2.9735 H   0  0  0  0  0  0  0  0  0  0  0  0
   -1.6567    0.3136   -5.4919 H   0  0  0  0  0  0  0  0  0  0  0  0
   -2.4766    2.6637   -4.9013 H   0  0  0  0  0  0  0  0  0  0  0  0
    2.2511   -0.5116    0.2971 N   0  0  0  0  0  0  0  0  0  0  0  0
    3.3394   -0.8467    1.1871 C   0  0  2  0  0  0  0  0  0  0  0  0
    4.3095    0.3272    1.2065 C   0  0  0  0  0  0  0  0  0  0  0  0
    4.3774    1.1563    0.3015 O   0  0  0  0  0  0  0  0  0  0  0  0
    4.0398   -2.1234    0.7484 C   0  0  0  0  0  0  0  0  0  0  0  0
    1.9878   -1.1839   -0.4174 H   0  0  0  0  0  0  0  0  0  0  0  0
    2.9040   -0.9780    2.1837 H   0  0  0  0  0  0  0  0  0  0  0  0
    4.4823   -2.0110   -0.2481 H   0  0  0  0  0  0  0  0  0  0  0  0
    4.8457   -2.3914    1.4396 H   0  0  0  0  0  0  0  0  0  0  0  0
    3.3342   -2.9602    0.7063 H   0  0  0  0  0  0  0  0  0  0  0  0
    5.1202    0.3156    2.3329 N   0  0  0  0  0  0  0  0  0  0  0  0
    6.1314    1.3179    2.5760 C   0  0  0  0  0  0  0  0  0  0  0  0
    4.9816   -0.3992    3.0410 H   0  0  0  0  0  0  0  0  0  0  0  0
    7.0945    0.9735    2.1712 H   0  0  0  0  0  0  0  0  0  0  0  0
    5.8417    2.2578    2.0833 H   0  0  0  0  0  0  0  0  0  0  0  0
    6.2279    1.4860    3.6587 H   0  0  0  0  0  0  0  0  0  0  0  0
 22 24  2  0  0  0  0
 24 26  1  0  0  0  0
 25 26  1  0  0  0  0
 23 25  2  0  0  0  0
 21 22  1  0  0  0  0
 22 23  1  0  0  0  0
  1  3  1  0  0  0  0
  1  7  1  0  0  0  0
  1  2  2  0  0  0  0
 36 37  1  0  0  0  0
 37 45  1  0  0  0  0
 37 38  2  0  0  0  0
  8  9  1  0  0  0  0
  9 17  1  0  0  0  0
  9 10  2  0  0  0  0
 18 19  1  0  0  0  0
 19 35  1  0  0  0  0
 19 20  2  0  0  0  0
 36 39  1  0  0  0  0
  8 11  1  0  0  0  0
 45 46  1  0  0  0  0
 18 21  1  0  0  0  0
 35 36  1  0  0  0  0
  7  8  1  0  0  0  0
 17 18  1  0  0  0  0
 24 32  1  0  0  0  0
 25 33  1  0  0  0  0
  3  4  1  0  0  0  0
  3  5  1  0  0  0  0
  3  6  1  0  0  0  0
 39 42  1  0  0  0  0
 39 43  1  0  0  0  0
 39 44  1  0  0  0  0
 11 14  1  0  0  0  0
 11 15  1  0  0  0  0
 11 16  1  0  0  0  0
 46 48  1  0  0  0  0
 46 49  1  0  0  0  0
 46 50  1  0  0  0  0
 21 29  1  0  0  0  0
 21 30  1  0  0  0  0
 36 41  1  0  0  0  0
  8 13  1  0  0  0  0
 18 28  1  0  0  0  0
 26 34  1  0  0  0  0
 23 31  1  0  0  0  0
 45 47  1  0  0  0  0
  7 12  1  0  0  0  0
 35 40  1  0  0  0  0
 17 27  1  0  0  0  0
M  CHG  1  23   1
M  END
$$$$

  -OEChem-05262214473D

 50 50  0     1  0  0  0  0  0999 V2000
   -1.6938    0.4865    3.8080 C   0  0  0  0  0  0  0  0  0  0  0  0
   -0.7464   -0.1282    3.3323 O   0  0  0  0  0  0  0  0  0  0  0  0
   -2.1257    0.2041    5.2087 C   0  0  0  0  0  0  0  0  0  0  0  0
   -2.8853   -0.5922    5.2621 H   0  0  0  0  0  0  0  0  0  0  0  0
   -1.2944   -0.1435    5.8430 H   0  0  0  0  0  0  0  0  0  0  0  0
   -2.5637    1.0590    5.7483 H   0  0  0  0  0  0  0  0  0  0  0  0
   -2.4435    1.4589    3.1669 N   0  0  0  0  0  0  0  0  0  0  0  0
   -2.1966    1.8850    1.8145 C   0  0  2  0  0  0  0  0  0  0  0  0
   -0.8617    1.2996    1.3733 C   0  0  0  0  0  0  0  0  0  0  0  0
    0.0104    0.9468    2.1646 O   0  0  0  0  0  0  0  0  0  0  0  0
   -2.1879    3.4017    1.7050 C   0  0  0  0  0  0  0  0  0  0  0  0
   -3.2085    1.8948    3.6787 H   0  0  0  0  0  0  0  0  0  0  0  0
   -3.0007    1.4665    1.1994 H   0  0  0  0  0  0  0  0  0  0  0  0
   -1.3888    3.8390    2.3147 H   0  0  0  0  0  0  0  0  0  0  0  0
   -2.0284    3.7240    0.6708 H   0  0  0  0  0  0  0  0  0  0  0  0
   -3.1380    3.8230    2.0508 H   0  0  0  0  0  0  0  0  0  0  0  0
   -0.7390    1.2565   -0.0101 N   0  0  0  0  0  0  0  0  0  0  0  0
    0.4383    0.7557   -0.6738 C   0  0  2  0  0  0  0  0  0  0  0  0
    1.5475    0.6826    0.3696 C   0  0  0  0  0  0  0  0  0  0  0  0
    1.5902    1.4182    1.3534 O   0  0  0  0  0  0  0  0  0  0  0  0
    0.8663    1.6475   -1.8449 C   0  0  0  0  0  0  0  0  0  0  0  0
   -0.1601    1.6914   -2.9505 C   0  0  0  0  0  0  0  0  0  0  0  0
   -0.3375    0.6408   -3.8182 N   0  3  0  0  0  0  0  0  0  0  0  0
   -1.0503    2.6603   -3.3187 C   0  0  0  0  0  0  0  0  0  0  0  0
   -1.3012    0.9438   -4.6939 C   0  0  0  0  0  0  0  0  0  0  0  0
   -1.7427    2.1711   -4.4001 N   0  0  0  0  0  0  0  0  0  0  0  0
   -1.5221    1.5532   -0.5874 H   0  0  0  0  0  0  0  0  0  0  0  0
    0.1978   -0.2586   -1.0135 H   0  0  0  0  0  0  0  0  0  0  0  0
    1.8300    1.3087   -2.2487 H   0  0  0  0  0  0  0  0  0  0  0  0
    1.0440    2.6747   -1.4998 H   0  0  0  0  0  0  0  0  0  0  0  0
    0.1817   -0.2327   -3.8019 H   0  0  0  0  0  0  0  0  0  0  0  0
   -1.3033    3.6430   -2.9735 H   0  0  0  0  0  0  0  0  0  0  0  0
   -1.6567    0.3136   -5.4919 H   0  0  0  0  0  0  0  0  0  0  0  0
   -2.4766    2.6637   -4.9013 H   0  0  0  0  0  0  0  0  0  0  0  0
    2.4524   -0.3335    0.0956 N   0  0  0  0  0  0  0  0  0  0  0  0
    3.5871   -0.6343    0.9386 C   0  0  2  0  0  0  0  0  0  0  0  0
    4.3324    0.6667    1.2060 C   0  0  0  0  0  0  0  0  0  0  0  0
    4.2472    1.6510    0.4745 O   0  0  0  0  0  0  0  0  0  0  0  0
    4.5019   -1.6613    0.2896 C   0  0  0  0  0  0  0  0  0  0  0  0
    2.3100   -0.8939   -0.7395 H   0  0  0  0  0  0  0  0  0  0  0  0
    3.1867   -1.0265    1.8798 H   0  0  0  0  0  0  0  0  0  0  0  0
    4.9127   -1.2861   -0.6548 H   0  0  0  0  0  0  0  0  0  0  0  0
    5.3458   -1.9093    0.9418 H   0  0  0  0  0  0  0  0  0  0  0  0
    3.9567   -2.5858    0.0709 H   0  0  0  0  0  0  0  0  0  0  0  0
    5.1373    0.5848    2.3336 N   0  0  0  0  0  0  0  0  0  0  0  0
    5.9546    1.6848    2.7896 C   0  0  0  0  0  0  0  0  0  0  0  0
    5.1316   -0.2643    2.8910 H   0  0  0  0  0  0  0  0  0  0  0  0
    6.9618    1.5983    2.3560 H   0  0  0  0  0  0  0  0  0  0  0  0
    5.4998    2.6351    2.4733 H   0  0  0  0  0  0  0  0  0  0  0  0
    6.0245    1.6592    3.8871 H   0  0  0  0  0  0  0  0  0  0  0  0
 22 24  2  0  0  0  0
 24 26  1  0  0  0  0
 25 26  1  0  0  0  0
 23 25  2  0  0  0  0
 21 22  1  0  0  0  0
 22 23  1  0  0  0  0
  1  3  1  0  0  0  0
  1  7  1  0  0  0  0
  1  2  2  0  0  0  0
 36 37  1  0  0  0  0
 37 45  1  0  0  0  0
 37 38  2  0  0  0  0
  8  9  1  0  0  0  0
  9 17  1  0  0  0  0
  9 10  2  0  0  0  0
 18 19  1  0  0  0  0
 19 35  1  0  0  0  0
 19 20  2  0  0  0  0
 36 39  1  0  0  0  0
  8 11  1  0  0  0  0
 45 46  1  0  0  0  0
 18 21  1  0  0  0  0
 35 36  1  0  0  0  0
  7  8  1  0  0  0  0
 17 18  1  0  0  0  0
 24 32  1  0  0  0  0
 25 33  1  0  0  0  0
  3  4  1  0  0  0  0
  3  5  1  0  0  0  0
  3  6  1  0  0  0  0
 39 42  1  0  0  0  0
 39 43  1  0  0  0  0
 39 44  1  0  0  0  0
 11 14  1  0  0  0  0
 11 15  1  0  0  0  0
 11 16  1  0  0  0  0
 46 48  1  0  0  0  0
 46 49  1  0  0  0  0
 46 50  1  0  0  0  0
 21 29  1  0  0  0  0
 21 30  1  0  0  0  0
 36 41  1  0  0  0  0
  8 13  1  0  0  0  0
 18 28  1  0  0  0  0
 26 34  1  0  0  0  0
 23 31  1  0  0  0  0
 45 47  1  0  0  0  0
  7 12  1  0  0  0  0
 35 40  1  0  0  0  0
 17 27  1  0  0  0  0
M  CHG  1  23   1
M  END
$$$$

  -OEChem-05262214473D

 50 50  0     1  0  0  0  0  0999 V2000
   -1.6938    0.4865    3.8080 C   0  0  0  0  0  0  0  0  0  0  0  0
   -0.7464   -0.1282    3.3323 O   0  0  0  0  0  0  0  0  0  0  0  0
   -2.1257    0.2041    5.2087 C   0  0  0  0  0  0  0  0  0  0  0  0
   -2.8853   -0.5922    5.2621 H   0  0  0  0  0  0  0  0  0  0  0  0
   -1.2944   -0.1435    5.8430 H   0  0  0  0  0  0  0  0  0  0  0  0
   -2.5637    1.0590    5.7483 H   0  0  0  0  0  0  0  0  0  0  0  0
   -2.4435    1.4589    3.1669 N   0  0  0  0  0  0  0  0  0  0  0  0
   -2.1966    1.8850    1.8145 C   0  0  2  0  0  0  0  0  0  0  0  0
   -0.8617    1.2996    1.3733 C   0  0  0  0  0  0  0  0  0  0  0  0
    0.0104    0.9468    2.1646 O   0  0  0  0  0  0  0  0  0  0  0  0
   -2.1879    3.4017    1.7050 C   0  0  0  0  0  0  0  0  0  0  0  0
   -3.2085    1.8948    3.6787 H   0  0  0  0  0  0  0  0  0  0  0  0
   -3.0007    1.4665    1.1994 H   0  0  0  0  0  0  0  0  0  0  0  0
   -1.3888    3.8390    2.3147 H   0  0  0  0  0  0  0  0  0  0  0  0
   -2.0284    3.7240    0.6708 H   0  0  0  0  0  0  0  0  0  0  0  0
   -3.1380    3.8230    2.0508 H   0  0  0  0  0  0  0  0  0  0  0  0
   -0.7390    1.2565   -0.0101 N   0  0  0  0  0  0  0  0  0  0  0  0
    0.4383    0.7557   -0.6738 C   0  0  2  0  0  0  0  0  0  0  0  0
    1.5475    0.6826    0.3696 C   0  0  0  0  0  0  0  0  0  0  0  0
    1.4628    1.2144    1.4745 O   0  0  0  0  0  0  0  0  0  0  0  0
    0.8663    1.6475   -1.8449 C   0  0  0  0  0  0  0  0  0  0  0  0
   -0.1601    1.6914   -2.9505 C   0  0  0  0  0  0  0  0  0  0  0  0
   -0.3375    0.6408   -3.8182 N   0  3  0  0  0  0  0  0  0  0  0  0
   -1.0503    2.6603   -3.3187 C   0  0  0  0  0  0  0  0  0  0  0  0
   -1.3012    0.9438   -4.6939 C   0  0  0  0  0  0  0  0  0  0  0  0
   -1.7427    2.1711   -4.4001 N   0  0  0  0  0  0  0  0  0  0  0  0
   -1.5221    1.5532   -0.5874 H   0  0  0  0  0  0  0  0  0  0  0  0
    0.1978   -0.2586   -1.0135 H   0  0  0  0  0  0  0  0  0  0  0  0
    1.8300    1.3087   -2.2487 H   0  0  0  0  0  0  0  0  0  0  0  0
    1.0440    2.6747   -1.4998 H   0  0  0  0  0  0  0  0  0  0  0  0
    0.1817   -0.2327   -3.8019 H   0  0  0  0  0  0  0  0  0  0  0  0
   -1.3033    3.6430   -2.9735 H   0  0  0  0  0  0  0  0  0  0  0  0
   -1.6567    0.3136   -5.4919 H   0  0  0  0  0  0  0  0  0  0  0  0
   -2.4766    2.6637   -4.9013 H   0  0  0  0  0  0  0  0  0  0  0  0
    2.6178   -0.0879   -0.0631 N   0  0  0  0  0  0  0  0  0  0  0  0
    3.7918   -0.3385    0.7417 C   0  0  2  0  0  0  0  0  0  0  0  0
    4.2944    0.9988    1.2696 C   0  0  0  0  0  0  0  0  0  0  0  0
    4.0317    2.0732    0.7332 O   0  0  0  0  0  0  0  0  0  0  0  0
    4.8721   -1.0466   -0.0609 C   0  0  0  0  0  0  0  0  0  0  0  0
    2.5739   -0.4961   -0.9922 H   0  0  0  0  0  0  0  0  0  0  0  0
    3.4720   -0.9661    1.5807 H   0  0  0  0  0  0  0  0  0  0  0  0
    5.2051   -0.4330   -0.9059 H   0  0  0  0  0  0  0  0  0  0  0  0
    5.7497   -1.2613    0.5578 H   0  0  0  0  0  0  0  0  0  0  0  0
    4.4995   -1.9942   -0.4647 H   0  0  0  0  0  0  0  0  0  0  0  0
    5.1061    0.8477    2.3852 N   0  0  0  0  0  0  0  0  0  0  0  0
    5.7162    1.9678    3.0628 C   0  0  0  0  0  0  0  0  0  0  0  0
    5.2544   -0.0791    2.7734 H   0  0  0  0  0  0  0  0  0  0  0  0
    6.7208    2.1435    2.6505 H   0  0  0  0  0  0  0  0  0  0  0  0
    5.0978    2.8657    2.9168 H   0  0  0  0  0  0  0  0  0  0  0  0
    5.7946    1.7474    4.1377 H   0  0  0  0  0  0  0  0  0  0  0  0
 22 24  2  0  0  0  0
 24 26  1  0  0  0  0
 25 26  1  0  0  0  0
 23 25  2  0  0  0  0
 21 22  1  0  0  0  0
 22 23  1  0  0  0  0
  1  3  1  0  0  0  0
  1  7  1  0  0  0  0
  1  2  2  0  0  0  0
 36 37  1  0  0  0  0
 37 45  1  0  0  0  0
 37 38  2  0  0  0  0
  8  9  1  0  0  0  0
  9 17  1  0  0  0  0
  9 10  2  0  0  0  0
 18 19  1  0  0  0  0
 19 35  1  0  0  0  0
 19 20  2  0  0  0  0
 36 39  1  0  0  0  0
  8 11  1  0  0  0  0
 45 46  1  0  0  0  0
 18 21  1  0  0  0  0
 35 36  1  0  0  0  0
  7  8  1  0  0  0  0
 17 18  1  0  0  0  0
 24 32  1  0  0  0  0
 25 33  1  0  0  0  0
  3  4  1  0  0  0  0
  3  5  1  0  0  0  0
  3  6  1  0  0  0  0
 39 42  1  0  0  0  0
 39 43  1  0  0  0  0
 39 44  1  0  0  0  0
 11 14  1  0  0  0  0
 11 15  1  0  0  0  0
 11 16  1  0  0  0  0
 46 48  1  0  0  0  0
 46 49  1  0  0  0  0
 46 50  1  0  0  0  0
 21 29  1  0  0  0  0
 21 30  1  0  0  0  0
 36 41  1  0  0  0  0
  8 13  1  0  0  0  0
 18 28  1  0  0  0  0
 26 34  1  0  0  0  0
 23 31  1  0  0  0  0
 45 47  1  0  0  0  0
  7 12  1  0  0  0  0
 35 40  1  0  0  0  0
 17 27  1  0  0  0  0
M  CHG  1  23   1
M  END
$$$$

  -OEChem-05262214473D

 50 50  0     1  0  0  0  0  0999 V2000
   -1.6938    0.4865    3.8080 C   0  0  0  0  0  0  0  0  0  0  0  0
   -0.7464   -0.1282    3.3323 O   0  0  0  0  0  0  0  0  0  0  0  0
   -2.1257    0.2041    5.2087 C   0  0  0  0  0  0  0  0  0  0  0  0
   -2.8853   -0.5922    5.2621 H   0  0  0  0  0  0  0  0  0  0  0  0
   -1.2944   -0.1435    5.8430 H   0  0  0  0  0  0  0  0  0  0  0  0
   -2.5637    1.0590    5.7483 H   0  0  0  0  0  0  0  0  0  0  0  0
   -2.4435    1.4589    3.1669 N   0  0  0  0  0  0  0  0  0  0  0  0
   -2.1966    1.8850    1.8145 C   0  0  2  0  0  0  0  0  0  0  0  0
   -0.8617    1.2996    1.3733 C   0  0  0  0  0  0  0  0  0  0  0  0
    0.0104    0.9468    2.1646 O   0  0  0  0  0  0  0  0  0  0  0  0
   -2.1879    3.4017    1.7050 C   0  0  0  0  0  0  0  0  0  0  0  0
   -3.2085    1.8948    3.6787 H   0  0  0  0  0  0  0  0  0  0  0  0
   -3.0007    1.4665    1.1994 H   0  0  0  0  0  0  0  0  0  0  0  0
   -1.3888    3.8390    2.3147 H   0  0  0  0  0  0  0  0  0  0  0  0
   -2.0284    3.7240    0.6708 H   0  0  0  0  0  0  0  0  0  0  0  0
   -3.1380    3.8230    2.0508 H   0  0  0  0  0  0  0  0  0  0  0  0
   -0.7390    1.2565   -0.0101 N   0  0  0  0  0  0  0  0  0  0  0  0
    0.4383    0.7557   -0.6738 C   0  0  2  0  0  0  0  0  0  0  0  0
    1.4197    0.3270    0.4113 C   0  0  0  0  0  0  0  0  0  0  0  0
    1.1588    0.3867    1.6110 O   0  0  0  0  0  0  0  0  0  0  0  0
    1.0794    1.8069   -1.5870 C   0  0  0  0  0  0  0  0  0  0  0  0
    0.1831    2.2094   -2.7326 C   0  0  0  0  0  0  0  0  0  0  0  0
   -0.0182    1.3919   -3.8185 N   0  3  0  0  0  0  0  0  0  0  0  0
   -0.5531    3.3398   -2.9495 C   0  0  0  0  0  0  0  0  0  0  0  0
   -0.8478    1.9903   -4.6793 C   0  0  0  0  0  0  0  0  0  0  0  0
   -1.1801    3.1772   -4.1613 N   0  0  0  0  0  0  0  0  0  0  0  0
   -1.5221    1.5532   -0.5874 H   0  0  0  0  0  0  0  0  0  0  0  0
    0.1244   -0.1272   -1.2429 H   0  0  0  0  0  0  0  0  0  0  0  0
    2.0366    1.4372   -1.9792 H   0  0  0  0  0  0  0  0  0  0  0  0
    1.3321    2.7093   -1.0148 H   0  0  0  0  0  0  0  0  0  0  0  0
    0.3978    0.4742   -3.9520 H   0  0  0  0  0  0  0  0  0  0  0  0
   -0.7311    4.2545   -2.4199 H   0  0  0  0  0  0  0  0  0  0  0  0
   -1.1863    1.5891   -5.6200 H   0  0  0  0  0  0  0  0  0  0  0  0
   -1.8003    3.8529   -4.5988 H   0  0  0  0  0  0  0  0  0  0  0  0
    2.5982   -0.1752   -0.1230 N   0  0  0  0  0  0  0  0  0  0  0  0
    3.6875   -0.6729    0.6859 C   0  0  2  0  0  0  0  0  0  0  0  0
    4.0027    0.3743    1.7459 C   0  0  0  0  0  0  0  0  0  0  0  0
    3.7093    1.5618    1.6237 O   0  0  0  0  0  0  0  0  0  0  0  0
    4.9135   -0.9743   -0.1619 C   0  0  0  0  0  0  0  0  0  0  0  0
    2.7001   -0.1939   -1.1335 H   0  0  0  0  0  0  0  0  0  0  0  0
    3.3293   -1.5876    1.1706 H   0  0  0  0  0  0  0  0  0  0  0  0
    5.2868   -0.0696   -0.6555 H   0  0  0  0  0  0  0  0  0  0  0  0
    5.7283   -1.3780    0.4482 H   0  0  0  0  0  0  0  0  0  0  0  0
    4.6774   -1.7055   -0.9425 H   0  0  0  0  0  0  0  0  0  0  0  0
    4.6885   -0.1654    2.8251 N   0  0  0  0  0  0  0  0  0  0  0  0
    5.1120    0.6279    3.9553 C   0  0  0  0  0  0  0  0  0  0  0  0
    4.8729   -1.1639    2.8511 H   0  0  0  0  0  0  0  0  0  0  0  0
    6.1381    0.9872    3.7878 H   0  0  0  0  0  0  0  0  0  0  0  0
    4.4369    1.4883    4.0728 H   0  0  0  0  0  0  0  0  0  0  0  0
    5.0834    0.0123    4.8664 H   0  0  0  0  0  0  0  0  0  0  0  0
 22 24  2  0  0  0  0
 24 26  1  0  0  0  0
 25 26  1  0  0  0  0
 23 25  2  0  0  0  0
 21 22  1  0  0  0  0
 22 23  1  0  0  0  0
  1  3  1  0  0  0  0
  1  7  1  0  0  0  0
  1  2  2  0  0  0  0
 36 37  1  0  0  0  0
 37 45  1  0  0  0  0
 37 38  2  0  0  0  0
  8  9  1  0  0  0  0
  9 17  1  0  0  0  0
  9 10  2  0  0  0  0
 18 19  1  0  0  0  0
 19 35  1  0  0  0  0
 19 20  2  0  0  0  0
 36 39  1  0  0  0  0
  8 11  1  0  0  0  0
 45 46  1  0  0  0  0
 18 21  1  0  0  0  0
 35 36  1  0  0  0  0
  7  8  1  0  0  0  0
 17 18  1  0  0  0  0
 24 32  1  0  0  0  0
 25 33  1  0  0  0  0
  3  4  1  0  0  0  0
  3  5  1  0  0  0  0
  3  6  1  0  0  0  0
 39 42  1  0  0  0  0
 39 43  1  0  0  0  0
 39 44  1  0  0  0  0
 11 14  1  0  0  0  0
 11 15  1  0  0  0  0
 11 16  1  0  0  0  0
 46 48  1  0  0  0  0
 46 49  1  0  0  0  0
 46 50  1  0  0  0  0
 21 29  1  0  0  0  0
 21 30  1  0  0  0  0
 36 41  1  0  0  0  0
  8 13  1  0  0  0  0
 18 28  1  0  0  0  0
 26 34  1  0  0  0  0
 23 31  1  0  0  0  0
 45 47  1  0  0  0  0
  7 12  1  0  0  0  0
 35 40  1  0  0  0  0
 17 27  1  0  0  0  0
M  CHG  1  23   1
M  END
$$$$

  -OEChem-05262214473D

 50 50  0     1  0  0  0  0  0999 V2000
   -1.6938    0.4865    3.8080 C   0  0  0  0  0  0  0  0  0  0  0  0
   -0.7464   -0.1282    3.3323 O   0  0  0  0  0  0  0  0  0  0  0  0
   -2.1257    0.2041    5.2087 C   0  0  0  0  0  0  0  0  0  0  0  0
   -2.8853   -0.5922    5.2621 H   0  0  0  0  0  0  0  0  0  0  0  0
   -1.2944   -0.1435    5.8430 H   0  0  0  0  0  0  0  0  0  0  0  0
   -2.5637    1.0590    5.7483 H   0  0  0  0  0  0  0  0  0  0  0  0
   -2.4435    1.4589    3.1669 N   0  0  0  0  0  0  0  0  0  0  0  0
   -2.1966    1.8850    1.8145 C   0  0  2  0  0  0  0  0  0  0  0  0
   -0.8617    1.2996    1.3733 C   0  0  0  0  0  0  0  0  0  0  0  0
    0.0104    0.9468    2.1646 O   0  0  0  0  0  0  0  0  0  0  0  0
   -2.1879    3.4017    1.7050 C   0  0  0  0  0  0  0  0  0  0  0  0
   -3.2085    1.8948    3.6787 H   0  0  0  0  0  0  0  0  0  0  0  0
   -3.0007    1.4665    1.1994 H   0  0  0  0  0  0  0  0  0  0  0  0
   -1.3888    3.8390    2.3147 H   0  0  0  0  0  0  0  0  0  0  0  0
   -2.0284    3.7240    0.6708 H   0  0  0  0  0  0  0  0  0  0  0  0
   -3.1380    3.8230    2.0508 H   0  0  0  0  0  0  0  0  0  0  0  0
   -0.7390    1.2565   -0.0101 N   0  0  0  0  0  0  0  0  0  0  0  0
    0.4383    0.7557   -0.6738 C   0  0  2  0  0  0  0  0  0  0  0  0
    1.4197    0.3270    0.4113 C   0  0  0  0  0  0  0  0  0  0  0  0
    1.0841    0.1303    1.5773 O   0  0  0  0  0  0  0  0  0  0  0  0
    1.0794    1.8069   -1.5870 C   0  0  0  0  0  0  0  0  0  0  0  0
    0.1831    2.2094   -2.7326 C   0  0  0  0  0  0  0  0  0  0  0  0
   -0.0182    1.3919   -3.8185 N   0  3  0  0  0  0  0  0  0  0  0  0
   -0.5531    3.3398   -2.9495 C   0  0  0  0  0  0  0  0  0  0  0  0
   -0.8478    1.9903   -4.6793 C   0  0  0  0  0  0  0  0  0  0  0  0
   -1.1801    3.1772   -4.1613 N   0  0  0  0  0  0  0  0  0  0  0  0
   -1.5221    1.5532   -0.5874 H   0  0  0  0  0  0  0  0  0  0  0  0
    0.1244   -0.1272   -1.2429 H   0  0  0  0  0  0  0  0  0  0  0  0
    2.0366    1.4372   -1.9792 H   0  0  0  0  0  0  0  0  0  0  0  0
    1.3321    2.7093   -1.0148 H   0  0  0  0  0  0  0  0  0  0  0  0
    0.3978    0.4742   -3.9520 H   0  0  0  0  0  0  0  0  0  0  0  0
   -0.7311    4.2545   -2.4199 H   0  0  0  0  0  0  0  0  0  0  0  0
   -1.1863    1.5891   -5.6200 H   0  0  0  0  0  0  0  0  0  0  0  0
   -1.8003    3.8529   -4.5988 H   0  0  0  0  0  0  0  0  0  0  0  0
    2.7008    0.1430   -0.0901 N   0  0  0  0  0  0  0  0  0  0  0  0
    3.8169   -0.2854    0.7220 C   0  0  2  0  0  0  0  0  0  0  0  0
    3.8658    0.6013    1.9594 C   0  0  0  0  0  0  0  0  0  0  0  0
    3.3592    1.7204    2.0031 O   0  0  0  0  0  0  0  0  0  0  0  0
    5.1243   -0.2120   -0.0513 C   0  0  0  0  0  0  0  0  0  0  0  0
    2.8620    0.3183   -1.0776 H   0  0  0  0  0  0  0  0  0  0  0  0
    3.6122   -1.3193    1.0207 H   0  0  0  0  0  0  0  0  0  0  0  0
    5.3462    0.8163   -0.3591 H   0  0  0  0  0  0  0  0  0  0  0  0
    5.9648   -0.5639    0.5560 H   0  0  0  0  0  0  0  0  0  0  0  0
    5.0767   -0.8269   -0.9565 H   0  0  0  0  0  0  0  0  0  0  0  0
    4.5790    0.0134    2.9948 N   0  0  0  0  0  0  0  0  0  0  0  0
    4.7784    0.6611    4.2702 C   0  0  0  0  0  0  0  0  0  0  0  0
    4.9483   -0.9255    2.8771 H   0  0  0  0  0  0  0  0  0  0  0  0
    5.7252    1.2210    4.2536 H   0  0  0  0  0  0  0  0  0  0  0  0
    3.9462    1.3540    4.4635 H   0  0  0  0  0  0  0  0  0  0  0  0
    4.8155   -0.0983    5.0651 H   0  0  0  0  0  0  0  0  0  0  0  0
 22 24  2  0  0  0  0
 24 26  1  0  0  0  0
 25 26  1  0  0  0  0
 23 25  2  0  0  0  0
 21 22  1  0  0  0  0
 22 23  1  0  0  0  0
  1  3  1  0  0  0  0
  1  7  1  0  0  0  0
  1  2  2  0  0  0  0
 36 37  1  0  0  0  0
 37 45  1  0  0  0  0
 37 38  2  0  0  0  0
  8  9  1  0  0  0  0
  9 17  1  0  0  0  0
  9 10  2  0  0  0  0
 18 19  1  0  0  0  0
 19 35  1  0  0  0  0
 19 20  2  0  0  0  0
 36 39  1  0  0  0  0
  8 11  1  0  0  0  0
 45 46  1  0  0  0  0
 18 21  1  0  0  0  0
 35 36  1  0  0  0  0
  7  8  1  0  0  0  0
 17 18  1  0  0  0  0
 24 32  1  0  0  0  0
 25 33  1  0  0  0  0
  3  4  1  0  0  0  0
  3  5  1  0  0  0  0
  3  6  1  0  0  0  0
 39 42  1  0  0  0  0
 39 43  1  0  0  0  0
 39 44  1  0  0  0  0
 11 14  1  0  0  0  0
 11 15  1  0  0  0  0
 11 16  1  0  0  0  0
 46 48  1  0  0  0  0
 46 49  1  0  0  0  0
 46 50  1  0  0  0  0
 21 29  1  0  0  0  0
 21 30  1  0  0  0  0
 36 41  1  0  0  0  0
  8 13  1  0  0  0  0
 18 28  1  0  0  0  0
 26 34  1  0  0  0  0
 23 31  1  0  0  0  0
 45 47  1  0  0  0  0
  7 12  1  0  0  0  0
 35 40  1  0  0  0  0
 17 27  1  0  0  0  0
M  CHG  1  23   1
M  END
$$$$

  -OEChem-05262214473D

 50 50  0     1  0  0  0  0  0999 V2000
   -1.6938    0.4865    3.8080 C   0  0  0  0  0  0  0  0  0  0  0  0
   -0.7464   -0.1282    3.3323 O   0  0  0  0  0  0  0  0  0  0  0  0
   -2.1257    0.2041    5.2087 C   0  0  0  0  0  0  0  0  0  0  0  0
   -2.8853   -0.5922    5.2621 H   0  0  0  0  0  0  0  0  0  0  0  0
   -1.2944   -0.1435    5.8430 H   0  0  0  0  0  0  0  0  0  0  0  0
   -2.5637    1.0590    5.7483 H   0  0  0  0  0  0  0  0  0  0  0  0
   -2.4435    1.4589    3.1669 N   0  0  0  0  0  0  0  0  0  0  0  0
   -2.1966    1.8850    1.8145 C   0  0  2  0  0  0  0  0  0  0  0  0
   -0.8617    1.2996    1.3733 C   0  0  0  0  0  0  0  0  0  0  0  0
    0.0104    0.9468    2.1646 O   0  0  0  0  0  0  0  0  0  0  0  0
   -2.1879    3.4017    1.7050 C   0  0  0  0  0  0  0  0  0  0  0  0
   -3.2085    1.8948    3.6787 H   0  0  0  0  0  0  0  0  0  0  0  0
   -3.0007    1.4665    1.1994 H   0  0  0  0  0  0  0  0  0  0  0  0
   -1.3888    3.8390    2.3147 H   0  0  0  0  0  0  0  0  0  0  0  0
   -2.0284    3.7240    0.6708 H   0  0  0  0  0  0  0  0  0  0  0  0
   -3.1380    3.8230    2.0508 H   0  0  0  0  0  0  0  0  0  0  0  0
   -0.7390    1.2565   -0.0101 N   0  0  0  0  0  0  0  0  0  0  0  0
    0.4383    0.7557   -0.6738 C   0  0  2  0  0  0  0  0  0  0  0  0
    1.4197    0.3270    0.4113 C   0  0  0  0  0  0  0  0  0  0  0  0
    1.0615   -0.1255    1.4966 O   0  0  0  0  0  0  0  0  0  0  0  0
    1.0794    1.8069   -1.5870 C   0  0  0  0  0  0  0  0  0  0  0  0
    0.1831    2.2094   -2.7326 C   0  0  0  0  0  0  0  0  0  0  0  0
   -0.0182    1.3919   -3.8185 N   0  3  0  0  0  0  0  0  0  0  0  0
   -0.5531    3.3398   -2.9495 C   0  0  0  0  0  0  0  0  0  0  0  0
   -0.8478    1.9903   -4.6793 C   0  0  0  0  0  0  0  0  0  0  0  0
   -1.1801    3.1772   -4.1613 N   0  0  0  0  0  0  0  0  0  0  0  0
   -1.5221    1.5532   -0.5874 H   0  0  0  0  0  0  0  0  0  0  0  0
    0.1244   -0.1272   -1.2429 H   0  0  0  0  0  0  0  0  0  0  0  0
    2.0366    1.4372   -1.9792 H   0  0  0  0  0  0  0  0  0  0  0  0
    1.3321    2.7093   -1.0148 H   0  0  0  0  0  0  0  0  0  0  0  0
    0.3978    0.4742   -3.9520 H   0  0  0  0  0  0  0  0  0  0  0  0
   -0.7311    4.2545   -2.4199 H   0  0  0  0  0  0  0  0  0  0  0  0
   -1.1863    1.5891   -5.6200 H   0  0  0  0  0  0  0  0  0  0  0  0
   -1.8003    3.8529   -4.5988 H   0  0  0  0  0  0  0  0  0  0  0  0
    2.7389    0.4638    0.0022 N   0  0  0  0  0  0  0  0  0  0  0  0
    3.8679    0.1067    0.8309 C   0  0  2  0  0  0  0  0  0  0  0  0
    3.6763    0.7597    2.1934 C   0  0  0  0  0  0  0  0  0  0  0  0
    2.9643    1.7459    2.3704 O   0  0  0  0  0  0  0  0  0  0  0  0
    5.1794    0.5446    0.1978 C   0  0  0  0  0  0  0  0  0  0  0  0
    2.9200    0.8335   -0.9264 H   0  0  0  0  0  0  0  0  0  0  0  0
    3.8470   -0.9830    0.9413 H   0  0  0  0  0  0  0  0  0  0  0  0
    5.2187    1.6336    0.0792 H   0  0  0  0  0  0  0  0  0  0  0  0
    6.0354    0.2482    0.8130 H   0  0  0  0  0  0  0  0  0  0  0  0
    5.3016    0.0976   -0.7946 H   0  0  0  0  0  0  0  0  0  0  0  0
    4.4279    0.1377    3.1805 N   0  0  0  0  0  0  0  0  0  0  0  0
    4.4271    0.5794    4.5556 C   0  0  0  0  0  0  0  0  0  0  0  0
    4.9753   -0.6856    2.9475 H   0  0  0  0  0  0  0  0  0  0  0  0
    5.2494    1.2931    4.7124 H   0  0  0  0  0  0  0  0  0  0  0  0
    3.4686    1.0688    4.7828 H   0  0  0  0  0  0  0  0  0  0  0  0
    4.5626   -0.2875    5.2191 H   0  0  0  0  0  0  0  0  0  0  0  0
 22 24  2  0  0  0  0
 24 26  1  0  0  0  0
 25 26  1  0  0  0  0
 23 25  2  0  0  0  0
 21 22  1  0  0  0  0
 22 23  1  0  0  0  0
  1  3  1  0  0  0  0
  1  7  1  0  0  0  0
  1  2  2  0  0  0  0
 36 37  1  0  0  0  0
 37 45  1  0  0  0  0
 37 38  2  0  0  0  0
  8  9  1  0  0  0  0
  9 17  1  0  0  0  0
  9 10  2  0  0  0  0
 18 19  1  0  0  0  0
 19 35  1  0  0  0  0
 19 20  2  0  0  0  0
 36 39  1  0  0  0  0
  8 11  1  0  0  0  0
 45 46  1  0  0  0  0
 18 21  1  0  0  0  0
 35 36  1  0  0  0  0
  7  8  1  0  0  0  0
 17 18  1  0  0  0  0
 24 32  1  0  0  0  0
 25 33  1  0  0  0  0
  3  4  1  0  0  0  0
  3  5  1  0  0  0  0
  3  6  1  0  0  0  0
 39 42  1  0  0  0  0
 39 43  1  0  0  0  0
 39 44  1  0  0  0  0
 11 14  1  0  0  0  0
 11 15  1  0  0  0  0
 11 16  1  0  0  0  0
 46 48  1  0  0  0  0
 46 49  1  0  0  0  0
 46 50  1  0  0  0  0
 21 29  1  0  0  0  0
 21 30  1  0  0  0  0
 36 41  1  0  0  0  0
  8 13  1  0  0  0  0
 18 28  1  0  0  0  0
 26 34  1  0  0  0  0
 23 31  1  0  0  0  0
 45 47  1  0  0  0  0
  7 12  1  0  0  0  0
 35 40  1  0  0  0  0
 17 27  1  0  0  0  0
M  CHG  1  23   1
M  END
$$$$

  -OEChem-05262214473D

 50 50  0     1  0  0  0  0  0999 V2000
   -1.6938    0.4865    3.8080 C   0  0  0  0  0  0  0  0  0  0  0  0
   -0.7464   -0.1282    3.3323 O   0  0  0  0  0  0  0  0  0  0  0  0
   -2.1257    0.2041    5.2087 C   0  0  0  0  0  0  0  0  0  0  0  0
   -2.8853   -0.5922    5.2621 H   0  0  0  0  0  0  0  0  0  0  0  0
   -1.2944   -0.1435    5.8430 H   0  0  0  0  0  0  0  0  0  0  0  0
   -2.5637    1.0590    5.7483 H   0  0  0  0  0  0  0  0  0  0  0  0
   -2.4435    1.4589    3.1669 N   0  0  0  0  0  0  0  0  0  0  0  0
   -2.1966    1.8850    1.8145 C   0  0  2  0  0  0  0  0  0  0  0  0
   -0.8617    1.2996    1.3733 C   0  0  0  0  0  0  0  0  0  0  0  0
    0.0104    0.9468    2.1646 O   0  0  0  0  0  0  0  0  0  0  0  0
   -2.1879    3.4017    1.7050 C   0  0  0  0  0  0  0  0  0  0  0  0
   -3.2085    1.8948    3.6787 H   0  0  0  0  0  0  0  0  0  0  0  0
   -3.0007    1.4665    1.1994 H   0  0  0  0  0  0  0  0  0  0  0  0
   -1.3888    3.8390    2.3147 H   0  0  0  0  0  0  0  0  0  0  0  0
   -2.0284    3.7240    0.6708 H   0  0  0  0  0  0  0  0  0  0  0  0
   -3.1380    3.8230    2.0508 H   0  0  0  0  0  0  0  0  0  0  0  0
   -0.7390    1.2565   -0.0101 N   0  0  0  0  0  0  0  0  0  0  0  0
    0.4383    0.7557   -0.6738 C   0  0  2  0  0  0  0  0  0  0  0  0
    1.4197    0.3270    0.4113 C   0  0  0  0  0  0  0  0  0  0  0  0
    1.0928   -0.3633    1.3744 O   0  0  0  0  0  0  0  0  0  0  0  0
    1.0794    1.8069   -1.5870 C   0  0  0  0  0  0  0  0  0  0  0  0
    0.1831    2.2094   -2.7326 C   0  0  0  0  0  0  0  0  0  0  0  0
   -0.0182    1.3919   -3.8185 N   0  3  0  0  0  0  0  0  0  0  0  0
   -0.5531    3.3398   -2.9495 C   0  0  0  0  0  0  0  0  0  0  0  0
   -0.8478    1.9903   -4.6793 C   0  0  0  0  0  0  0  0  0  0  0  0
   -1.1801    3.1772   -4.1613 N   0  0  0  0  0  0  0  0  0  0  0  0
   -1.5221    1.5532   -0.5874 H   0  0  0  0  0  0  0  0  0  0  0  0
    0.1244   -0.1272   -1.2429 H   0  0  0  0  0  0  0  0  0  0  0  0
    2.0366    1.4372   -1.9792 H   0  0  0  0  0  0  0  0  0  0  0  0
    1.3321    2.7093   -1.0148 H   0  0  0  0  0  0  0  0  0  0  0  0
    0.3978    0.4742   -3.9520 H   0  0  0  0  0  0  0  0  0  0  0  0
   -0.7311    4.2545   -2.4199 H   0  0  0  0  0  0  0  0  0  0  0  0
   -1.1863    1.5891   -5.6200 H   0  0  0  0  0  0  0  0  0  0  0  0
   -1.8003    3.8529   -4.5988 H   0  0  0  0  0  0  0  0  0  0  0  0
    2.7099    0.7653    0.1475 N   0  0  0  0  0  0  0  0  0  0  0  0
    3.8369    0.4767    1.0050 C   0  0  2  0  0  0  0  0  0  0  0  0
    3.4470    0.8388    2.4320 C   0  0  0  0  0  0  0  0  0  0  0  0
    2.5513    1.6366    2.7007 O   0  0  0  0  0  0  0  0  0  0  0  0
    5.0752    1.2442    0.5686 C   0  0  0  0  0  0  0  0  0  0  0  0
    2.8701    1.3168   -0.6903 H   0  0  0  0  0  0  0  0  0  0  0  0
    4.0176   -0.6016    0.9376 H   0  0  0  0  0  0  0  0  0  0  0  0
    4.9131    2.3266    0.6294 H   0  0  0  0  0  0  0  0  0  0  0  0
    5.9353    1.0027    1.2017 H   0  0  0  0  0  0  0  0  0  0  0  0
    5.3367    1.0050   -0.4679 H   0  0  0  0  0  0  0  0  0  0  0  0
    4.2456    0.1989    3.3696 N   0  0  0  0  0  0  0  0  0  0  0  0
    4.0821    0.3881    4.7921 C   0  0  0  0  0  0  0  0  0  0  0  0
    4.9521   -0.4607    3.0573 H   0  0  0  0  0  0  0  0  0  0  0  0
    4.7431    1.1986    5.1330 H   0  0  0  0  0  0  0  0  0  0  0  0
    3.0365    0.6522    5.0090 H   0  0  0  0  0  0  0  0  0  0  0  0
    4.3419   -0.5424    5.3179 H   0  0  0  0  0  0  0  0  0  0  0  0
 22 24  2  0  0  0  0
 24 26  1  0  0  0  0
 25 26  1  0  0  0  0
 23 25  2  0  0  0  0
 21 22  1  0  0  0  0
 22 23  1  0  0  0  0
  1  3  1  0  0  0  0
  1  7  1  0  0  0  0
  1  2  2  0  0  0  0
 36 37  1  0  0  0  0
 37 45  1  0  0  0  0
 37 38  2  0  0  0  0
  8  9  1  0  0  0  0
  9 17  1  0  0  0  0
  9 10  2  0  0  0  0
 18 19  1  0  0  0  0
 19 35  1  0  0  0  0
 19 20  2  0  0  0  0
 36 39  1  0  0  0  0
  8 11  1  0  0  0  0
 45 46  1  0  0  0  0
 18 21  1  0  0  0  0
 35 36  1  0  0  0  0
  7  8  1  0  0  0  0
 17 18  1  0  0  0  0
 24 32  1  0  0  0  0
 25 33  1  0  0  0  0
  3  4  1  0  0  0  0
  3  5  1  0  0  0  0
  3  6  1  0  0  0  0
 39 42  1  0  0  0  0
 39 43  1  0  0  0  0
 39 44  1  0  0  0  0
 11 14  1  0  0  0  0
 11 15  1  0  0  0  0
 11 16  1  0  0  0  0
 46 48  1  0  0  0  0
 46 49  1  0  0  0  0
 46 50  1  0  0  0  0
 21 29  1  0  0  0  0
 21 30  1  0  0  0  0
 36 41  1  0  0  0  0
  8 13  1  0  0  0  0
 18 28  1  0  0  0  0
 26 34  1  0  0  0  0
 23 31  1  0  0  0  0
 45 47  1  0  0  0  0
  7 12  1  0  0  0  0
 35 40  1  0  0  0  0
 17 27  1  0  0  0  0
M  CHG  1  23   1
M  END
$$$$

  -OEChem-05262214473D

 50 50  0     1  0  0  0  0  0999 V2000
   -1.6938    0.4865    3.8080 C   0  0  0  0  0  0  0  0  0  0  0  0
   -0.7464   -0.1282    3.3323 O   0  0  0  0  0  0  0  0  0  0  0  0
   -2.1257    0.2041    5.2087 C   0  0  0  0  0  0  0  0  0  0  0  0
   -2.8853   -0.5922    5.2621 H   0  0  0  0  0  0  0  0  0  0  0  0
   -1.2944   -0.1435    5.8430 H   0  0  0  0  0  0  0  0  0  0  0  0
   -2.5637    1.0590    5.7483 H   0  0  0  0  0  0  0  0  0  0  0  0
   -2.4435    1.4589    3.1669 N   0  0  0  0  0  0  0  0  0  0  0  0
   -2.1966    1.8850    1.8145 C   0  0  2  0  0  0  0  0  0  0  0  0
   -0.8617    1.2996    1.3733 C   0  0  0  0  0  0  0  0  0  0  0  0
    0.0104    0.9468    2.1646 O   0  0  0  0  0  0  0  0  0  0  0  0
   -2.1879    3.4017    1.7050 C   0  0  0  0  0  0  0  0  0  0  0  0
   -3.2085    1.8948    3.6787 H   0  0  0  0  0  0  0  0  0  0  0  0
   -3.0007    1.4665    1.1994 H   0  0  0  0  0  0  0  0  0  0  0  0
   -1.3888    3.8390    2.3147 H   0  0  0  0  0  0  0  0  0  0  0  0
   -2.0284    3.7240    0.6708 H   0  0  0  0  0  0  0  0  0  0  0  0
   -3.1380    3.8230    2.0508 H   0  0  0  0  0  0  0  0  0  0  0  0
   -0.7390    1.2565   -0.0101 N   0  0  0  0  0  0  0  0  0  0  0  0
    0.4383    0.7557   -0.6738 C   0  0  2  0  0  0  0  0  0  0  0  0
    1.4197    0.3270    0.4113 C   0  0  0  0  0  0  0  0  0  0  0  0
    1.1756   -0.5669    1.2190 O   0  0  0  0  0  0  0  0  0  0  0  0
    1.0794    1.8069   -1.5870 C   0  0  0  0  0  0  0  0  0  0  0  0
    0.1831    2.2094   -2.7326 C   0  0  0  0  0  0  0  0  0  0  0  0
   -0.0182    1.3919   -3.8185 N   0  3  0  0  0  0  0  0  0  0  0  0
   -0.5531    3.3398   -2.9495 C   0  0  0  0  0  0  0  0  0  0  0  0
   -0.8478    1.9903   -4.6793 C   0  0  0  0  0  0  0  0  0  0  0  0
   -1.1801    3.1772   -4.1613 N   0  0  0  0  0  0  0  0  0  0  0  0
   -1.5221    1.5532   -0.5874 H   0  0  0  0  0  0  0  0  0  0  0  0
    0.1244   -0.1272   -1.2429 H   0  0  0  0  0  0  0  0  0  0  0  0
    2.0366    1.4372   -1.9792 H   0  0  0  0  0  0  0  0  0  0  0  0
    1.3321    2.7093   -1.0148 H   0  0  0  0  0  0  0  0  0  0  0  0
    0.3978    0.4742   -3.9520 H   0  0  0  0  0  0  0  0  0  0  0  0
   -0.7311    4.2545   -2.4199 H   0  0  0  0  0  0  0  0  0  0  0  0
   -1.1863    1.5891   -5.6200 H   0  0  0  0  0  0  0  0  0  0  0  0
   -1.8003    3.8529   -4.5988 H   0  0  0  0  0  0  0  0  0  0  0  0
    2.6158    1.0270    0.3361 N   0  0  0  0  0  0  0  0  0  0  0  0
    3.7262    0.7994    1.2327 C   0  0  2  0  0  0  0  0  0  0  0  0
    3.1936    0.8332    2.6591 C   0  0  0  0  0  0  0  0  0  0  0  0
    2.1485    1.3999    2.9715 O   0  0  0  0  0  0  0  0  0  0  0  0
    4.8186    1.8389    1.0356 C   0  0  0  0  0  0  0  0  0  0  0  0
    2.7158    1.7350   -0.3854 H   0  0  0  0  0  0  0  0  0  0  0  0
    4.1125   -0.2013    1.0100 H   0  0  0  0  0  0  0  0  0  0  0  0
    4.4503    2.8479    1.2540 H   0  0  0  0  0  0  0  0  0  0  0  0
    5.6714    1.6483    1.6956 H   0  0  0  0  0  0  0  0  0  0  0  0
    5.1798    1.8336    0.0015 H   0  0  0  0  0  0  0  0  0  0  0  0
    4.0444    0.1930    3.5492 N   0  0  0  0  0  0  0  0  0  0  0  0
    3.7668    0.1005    4.9635 C   0  0  0  0  0  0  0  0  0  0  0  0
    4.8803   -0.2660    3.1992 H   0  0  0  0  0  0  0  0  0  0  0  0
    4.2408    0.9440    5.4867 H   0  0  0  0  0  0  0  0  0  0  0  0
    2.6795    0.1324    5.1265 H   0  0  0  0  0  0  0  0  0  0  0  0
    4.1686   -0.8459    5.3548 H   0  0  0  0  0  0  0  0  0  0  0  0
 22 24  2  0  0  0  0
 24 26  1  0  0  0  0
 25 26  1  0  0  0  0
 23 25  2  0  0  0  0
 21 22  1  0  0  0  0
 22 23  1  0  0  0  0
  1  3  1  0  0  0  0
  1  7  1  0  0  0  0
  1  2  2  0  0  0  0
 36 37  1  0  0  0  0
 37 45  1  0  0  0  0
 37 38  2  0  0  0  0
  8  9  1  0  0  0  0
  9 17  1  0  0  0  0
  9 10  2  0  0  0  0
 18 19  1  0  0  0  0
 19 35  1  0  0  0  0
 19 20  2  0  0  0  0
 36 39  1  0  0  0  0
  8 11  1  0  0  0  0
 45 46  1  0  0  0  0
 18 21  1  0  0  0  0
 35 36  1  0  0  0  0
  7  8  1  0  0  0  0
 17 18  1  0  0  0  0
 24 32  1  0  0  0  0
 25 33  1  0  0  0  0
  3  4  1  0  0  0  0
  3  5  1  0  0  0  0
  3  6  1  0  0  0  0
 39 42  1  0  0  0  0
 39 43  1  0  0  0  0
 39 44  1  0  0  0  0
 11 14  1  0  0  0  0
 11 15  1  0  0  0  0
 11 16  1  0  0  0  0
 46 48  1  0  0  0  0
 46 49  1  0  0  0  0
 46 50  1  0  0  0  0
 21 29  1  0  0  0  0
 21 30  1  0  0  0  0
 36 41  1  0  0  0  0
  8 13  1  0  0  0  0
 18 28  1  0  0  0  0
 26 34  1  0  0  0  0
 23 31  1  0  0  0  0
 45 47  1  0  0  0  0
  7 12  1  0  0  0  0
 35 40  1  0  0  0  0
 17 27  1  0  0  0  0
M  CHG  1  23   1
M  END
$$$$

  -OEChem-05262214473D

 50 50  0     1  0  0  0  0  0999 V2000
   -1.6938    0.4865    3.8080 C   0  0  0  0  0  0  0  0  0  0  0  0
   -0.7464   -0.1282    3.3323 O   0  0  0  0  0  0  0  0  0  0  0  0
   -2.1257    0.2041    5.2087 C   0  0  0  0  0  0  0  0  0  0  0  0
   -2.8853   -0.5922    5.2621 H   0  0  0  0  0  0  0  0  0  0  0  0
   -1.2944   -0.1435    5.8430 H   0  0  0  0  0  0  0  0  0  0  0  0
   -2.5637    1.0590    5.7483 H   0  0  0  0  0  0  0  0  0  0  0  0
   -2.4435    1.4589    3.1669 N   0  0  0  0  0  0  0  0  0  0  0  0
   -2.1966    1.8850    1.8145 C   0  0  2  0  0  0  0  0  0  0  0  0
   -0.8617    1.2996    1.3733 C   0  0  0  0  0  0  0  0  0  0  0  0
    0.0104    0.9468    2.1646 O   0  0  0  0  0  0  0  0  0  0  0  0
   -2.1879    3.4017    1.7050 C   0  0  0  0  0  0  0  0  0  0  0  0
   -3.2085    1.8948    3.6787 H   0  0  0  0  0  0  0  0  0  0  0  0
   -3.0007    1.4665    1.1994 H   0  0  0  0  0  0  0  0  0  0  0  0
   -1.3888    3.8390    2.3147 H   0  0  0  0  0  0  0  0  0  0  0  0
   -2.0284    3.7240    0.6708 H   0  0  0  0  0  0  0  0  0  0  0  0
   -3.1380    3.8230    2.0508 H   0  0  0  0  0  0  0  0  0  0  0  0
   -0.7390    1.2565   -0.0101 N   0  0  0  0  0  0  0  0  0  0  0  0
    0.4383    0.7557   -0.6738 C   0  0  2  0  0  0  0  0  0  0  0  0
    1.4197    0.3270    0.4113 C   0  0  0  0  0  0  0  0  0  0  0  0
    1.3045   -0.7224    1.0410 O   0  0  0  0  0  0  0  0  0  0  0  0
    1.0794    1.8069   -1.5870 C   0  0  0  0  0  0  0  0  0  0  0  0
    0.1831    2.2094   -2.7326 C   0  0  0  0  0  0  0  0  0  0  0  0
   -0.0182    1.3919   -3.8185 N   0  3  0  0  0  0  0  0  0  0  0  0
   -0.5531    3.3398   -2.9495 C   0  0  0  0  0  0  0  0  0  0  0  0
   -0.8478    1.9903   -4.6793 C   0  0  0  0  0  0  0  0  0  0  0  0
   -1.1801    3.1772   -4.1613 N   0  0  0  0  0  0  0  0  0  0  0  0
   -1.5221    1.5532   -0.5874 H   0  0  0  0  0  0  0  0  0  0  0  0
    0.1244   -0.1272   -1.2429 H   0  0  0  0  0  0  0  0  0  0  0  0
    2.0366    1.4372   -1.9792 H   0  0  0  0  0  0  0  0  0  0  0  0
    1.3321    2.7093   -1.0148 H   0  0  0  0  0  0  0  0  0  0  0  0
    0.3978    0.4742   -3.9520 H   0  0  0  0  0  0  0  0  0  0  0  0
   -0.7311    4.2545   -2.4199 H   0  0  0  0  0  0  0  0  0  0  0  0
   -1.1863    1.5891   -5.6200 H   0  0  0  0  0  0  0  0  0  0  0  0
   -1.8003    3.8529   -4.5988 H   0  0  0  0  0  0  0  0  0  0  0  0
    2.4630    1.2310    0.5549 N   0  0  0  0  0  0  0  0  0  0  0  0
    3.5433    1.0528    1.4982 C   0  0  2  0  0  0  0  0  0  0  0  0
    2.9333    0.7433    2.8590 C   0  0  0  0  0  0  0  0  0  0  0  0
    1.7833    1.0520    3.1644 O   0  0  0  0  0  0  0  0  0  0  0  0
    4.4272    2.2883    1.5672 C   0  0  0  0  0  0  0  0  0  0  0  0
    2.4674    2.0597   -0.0325 H   0  0  0  0  0  0  0  0  0  0  0  0
    4.1251    0.1909    1.1536 H   0  0  0  0  0  0  0  0  0  0  0  0
    3.8617    3.1622    1.9106 H   0  0  0  0  0  0  0  0  0  0  0  0
    5.2615    2.1411    2.2609 H   0  0  0  0  0  0  0  0  0  0  0  0
    4.8413    2.5268    0.5816 H   0  0  0  0  0  0  0  0  0  0  0  0
    3.8381    0.1202    3.7070 N   0  0  0  0  0  0  0  0  0  0  0  0
    3.5028   -0.2640    5.0583 C   0  0  0  0  0  0  0  0  0  0  0  0
    4.7647   -0.1148    3.3635 H   0  0  0  0  0  0  0  0  0  0  0  0
    3.7769    0.5467    5.7493 H   0  0  0  0  0  0  0  0  0  0  0  0
    2.4217   -0.4549    5.1275 H   0  0  0  0  0  0  0  0  0  0  0  0
    4.0543   -1.1770    5.3273 H   0  0  0  0  0  0  0  0  0  0  0  0
 22 24  2  0  0  0  0
 24 26  1  0  0  0  0
 25 26  1  0  0  0  0
 23 25  2  0  0  0  0
 21 22  1  0  0  0  0
 22 23  1  0  0  0  0
  1  3  1  0  0  0  0
  1  7  1  0  0  0  0
  1  2  2  0  0  0  0
 36 37  1  0  0  0  0
 37 45  1  0  0  0  0
 37 38  2  0  0  0  0
  8  9  1  0  0  0  0
  9 17  1  0  0  0  0
  9 10  2  0  0  0  0
 18 19  1  0  0  0  0
 19 35  1  0  0  0  0
 19 20  2  0  0  0  0
 36 39  1  0  0  0  0
  8 11  1  0  0  0  0
 45 46  1  0  0  0  0
 18 21  1  0  0  0  0
 35 36  1  0  0  0  0
  7  8  1  0  0  0  0
 17 18  1  0  0  0  0
 24 32  1  0  0  0  0
 25 33  1  0  0  0  0
  3  4  1  0  0  0  0
  3  5  1  0  0  0  0
  3  6  1  0  0  0  0
 39 42  1  0  0  0  0
 39 43  1  0  0  0  0
 39 44  1  0  0  0  0
 11 14  1  0  0  0  0
 11 15  1  0  0  0  0
 11 16  1  0  0  0  0
 46 48  1  0  0  0  0
 46 49  1  0  0  0  0
 46 50  1  0  0  0  0
 21 29  1  0  0  0  0
 21 30  1  0  0  0  0
 36 41  1  0  0  0  0
  8 13  1  0  0  0  0
 18 28  1  0  0  0  0
 26 34  1  0  0  0  0
 23 31  1  0  0  0  0
 45 47  1  0  0  0  0
  7 12  1  0  0  0  0
 35 40  1  0  0  0  0
 17 27  1  0  0  0  0
M  CHG  1  23   1
M  END
$$$$

  -OEChem-05262214473D

 50 50  0     1  0  0  0  0  0999 V2000
   -1.6938    0.4865    3.8080 C   0  0  0  0  0  0  0  0  0  0  0  0
   -0.7464   -0.1282    3.3323 O   0  0  0  0  0  0  0  0  0  0  0  0
   -2.1257    0.2041    5.2087 C   0  0  0  0  0  0  0  0  0  0  0  0
   -2.8853   -0.5922    5.2621 H   0  0  0  0  0  0  0  0  0  0  0  0
   -1.2944   -0.1435    5.8430 H   0  0  0  0  0  0  0  0  0  0  0  0
   -2.5637    1.0590    5.7483 H   0  0  0  0  0  0  0  0  0  0  0  0
   -2.4435    1.4589    3.1669 N   0  0  0  0  0  0  0  0  0  0  0  0
   -2.1966    1.8850    1.8145 C   0  0  2  0  0  0  0  0  0  0  0  0
   -0.8617    1.2996    1.3733 C   0  0  0  0  0  0  0  0  0  0  0  0
    0.0104    0.9468    2.1646 O   0  0  0  0  0  0  0  0  0  0  0  0
   -2.1879    3.4017    1.7050 C   0  0  0  0  0  0  0  0  0  0  0  0
   -3.2085    1.8948    3.6787 H   0  0  0  0  0  0  0  0  0  0  0  0
   -3.0007    1.4665    1.1994 H   0  0  0  0  0  0  0  0  0  0  0  0
   -1.3888    3.8390    2.3147 H   0  0  0  0  0  0  0  0  0  0  0  0
   -2.0284    3.7240    0.6708 H   0  0  0  0  0  0  0  0  0  0  0  0
   -3.1380    3.8230    2.0508 H   0  0  0  0  0  0  0  0  0  0  0  0
   -0.7390    1.2565   -0.0101 N   0  0  0  0  0  0  0  0  0  0  0  0
    0.4383    0.7557   -0.6738 C   0  0  2  0  0  0  0  0  0  0  0  0
    1.4197    0.3270    0.4113 C   0  0  0  0  0  0  0  0  0  0  0  0
    1.4705   -0.8192    0.8525 O   0  0  0  0  0  0  0  0  0  0  0  0
    1.0794    1.8069   -1.5870 C   0  0  0  0  0  0  0  0  0  0  0  0
    0.1831    2.2094   -2.7326 C   0  0  0  0  0  0  0  0  0  0  0  0
   -0.0182    1.3919   -3.8185 N   0  3  0  0  0  0  0  0  0  0  0  0
   -0.5531    3.3398   -2.9495 C   0  0  0  0  0  0  0  0  0  0  0  0
   -0.8478    1.9903   -4.6793 C   0  0  0  0  0  0  0  0  0  0  0  0
   -1.1801    3.1772   -4.1613 N   0  0  0  0  0  0  0  0  0  0  0  0
   -1.5221    1.5532   -0.5874 H   0  0  0  0  0  0  0  0  0  0  0  0
    0.1244   -0.1272   -1.2429 H   0  0  0  0  0  0  0  0  0  0  0  0
    2.0366    1.4372   -1.9792 H   0  0  0  0  0  0  0  0  0  0  0  0
    1.3321    2.7093   -1.0148 H   0  0  0  0  0  0  0  0  0  0  0  0
    0.3978    0.4742   -3.9520 H   0  0  0  0  0  0  0  0  0  0  0  0
   -0.7311    4.2545   -2.4199 H   0  0  0  0  0  0  0  0  0  0  0  0
   -1.1863    1.5891   -5.6200 H   0  0  0  0  0  0  0  0  0  0  0  0
   -1.8003    3.8529   -4.5988 H   0  0  0  0  0  0  0  0  0  0  0  0
    2.2618    1.3635    0.7892 N   0  0  0  0  0  0  0  0  0  0  0  0
    3.3006    1.2195    1.7837 C   0  0  2  0  0  0  0  0  0  0  0  0
    2.6839    0.5752    3.0181 C   0  0  0  0  0  0  0  0  0  0  0  0
    1.4806    0.6165    3.2661 O   0  0  0  0  0  0  0  0  0  0  0  0
    3.9277    2.5618    2.1270 C   0  0  0  0  0  0  0  0  0  0  0  0
    2.1420    2.2688    0.3445 H   0  0  0  0  0  0  0  0  0  0  0  0
    4.0545    0.5481    1.3585 H   0  0  0  0  0  0  0  0  0  0  0  0
    3.1875    3.2480    2.5543 H   0  0  0  0  0  0  0  0  0  0  0  0
    4.7338    2.4474    2.8593 H   0  0  0  0  0  0  0  0  0  0  0  0
    4.3445    3.0374    1.2327 H   0  0  0  0  0  0  0  0  0  0  0  0
    3.6408   -0.0143    3.8324 N   0  0  0  0  0  0  0  0  0  0  0  0
    3.3081   -0.6806    5.0699 C   0  0  0  0  0  0  0  0  0  0  0  0
    4.6132   -0.0174    3.5390 H   0  0  0  0  0  0  0  0  0  0  0  0
    3.3828    0.0337    5.9031 H   0  0  0  0  0  0  0  0  0  0  0  0
    2.2809   -1.0699    5.0119 H   0  0  0  0  0  0  0  0  0  0  0  0
    4.0070   -1.5133    5.2372 H   0  0  0  0  0  0  0  0  0  0  0  0
 22 24  2  0  0  0  0
 24 26  1  0  0  0  0
 25 26  1  0  0  0  0
 23 25  2  0  0  0  0
 21 22  1  0  0  0  0
 22 23  1  0  0  0  0
  1  3  1  0  0  0  0
  1  7  1  0  0  0  0
  1  2  2  0  0  0  0
 36 37  1  0  0  0  0
 37 45  1  0  0  0  0
 37 38  2  0  0  0  0
  8  9  1  0  0  0  0
  9 17  1  0  0  0  0
  9 10  2  0  0  0  0
 18 19  1  0  0  0  0
 19 35  1  0  0  0  0
 19 20  2  0  0  0  0
 36 39  1  0  0  0  0
  8 11  1  0  0  0  0
 45 46  1  0  0  0  0
 18 21  1  0  0  0  0
 35 36  1  0  0  0  0
  7  8  1  0  0  0  0
 17 18  1  0  0  0  0
 24 32  1  0  0  0  0
 25 33  1  0  0  0  0
  3  4  1  0  0  0  0
  3  5  1  0  0  0  0
  3  6  1  0  0  0  0
 39 42  1  0  0  0  0
 39 43  1  0  0  0  0
 39 44  1  0  0  0  0
 11 14  1  0  0  0  0
 11 15  1  0  0  0  0
 11 16  1  0  0  0  0
 46 48  1  0  0  0  0
 46 49  1  0  0  0  0
 46 50  1  0  0  0  0
 21 29  1  0  0  0  0
 21 30  1  0  0  0  0
 36 41  1  0  0  0  0
  8 13  1  0  0  0  0
 18 28  1  0  0  0  0
 26 34  1  0  0  0  0
 23 31  1  0  0  0  0
 45 47  1  0  0  0  0
  7 12  1  0  0  0  0
 35 40  1  0  0  0  0
 17 27  1  0  0  0  0
M  CHG  1  23   1
M  END
$$$$

  -OEChem-05262214473D

 50 50  0     1  0  0  0  0  0999 V2000
   -1.6938    0.4865    3.8080 C   0  0  0  0  0  0  0  0  0  0  0  0
   -0.7464   -0.1282    3.3323 O   0  0  0  0  0  0  0  0  0  0  0  0
   -2.1257    0.2041    5.2087 C   0  0  0  0  0  0  0  0  0  0  0  0
   -2.8853   -0.5922    5.2621 H   0  0  0  0  0  0  0  0  0  0  0  0
   -1.2944   -0.1435    5.8430 H   0  0  0  0  0  0  0  0  0  0  0  0
   -2.5637    1.0590    5.7483 H   0  0  0  0  0  0  0  0  0  0  0  0
   -2.4435    1.4589    3.1669 N   0  0  0  0  0  0  0  0  0  0  0  0
   -2.1966    1.8850    1.8145 C   0  0  2  0  0  0  0  0  0  0  0  0
   -0.8617    1.2996    1.3733 C   0  0  0  0  0  0  0  0  0  0  0  0
    0.0104    0.9468    2.1646 O   0  0  0  0  0  0  0  0  0  0  0  0
   -2.1879    3.4017    1.7050 C   0  0  0  0  0  0  0  0  0  0  0  0
   -3.2085    1.8948    3.6787 H   0  0  0  0  0  0  0  0  0  0  0  0
   -3.0007    1.4665    1.1994 H   0  0  0  0  0  0  0  0  0  0  0  0
   -1.3888    3.8390    2.3147 H   0  0  0  0  0  0  0  0  0  0  0  0
   -2.0284    3.7240    0.6708 H   0  0  0  0  0  0  0  0  0  0  0  0
   -3.1380    3.8230    2.0508 H   0  0  0  0  0  0  0  0  0  0  0  0
   -0.7390    1.2565   -0.0101 N   0  0  0  0  0  0  0  0  0  0  0  0
    0.4383    0.7557   -0.6738 C   0  0  2  0  0  0  0  0  0  0  0  0
    1.4197    0.3270    0.4113 C   0  0  0  0  0  0  0  0  0  0  0  0
    1.6625   -0.8507    0.6665 O   0  0  0  0  0  0  0  0  0  0  0  0
    1.0794    1.8069   -1.5870 C   0  0  0  0  0  0  0  0  0  0  0  0
    0.1831    2.2094   -2.7326 C   0  0  0  0  0  0  0  0  0  0  0  0
   -0.0182    1.3919   -3.8185 N   0  3  0  0  0  0  0  0  0  0  0  0
   -0.5531    3.3398   -2.9495 C   0  0  0  0  0  0  0  0  0  0  0  0
   -0.8478    1.9903   -4.6793 C   0  0  0  0  0  0  0  0  0  0  0  0
   -1.1801    3.1772   -4.1613 N   0  0  0  0  0  0  0  0  0  0  0  0
   -1.5221    1.5532   -0.5874 H   0  0  0  0  0  0  0  0  0  0  0  0
    0.1244   -0.1272   -1.2429 H   0  0  0  0  0  0  0  0  0  0  0  0
    2.0366    1.4372   -1.9792 H   0  0  0  0  0  0  0  0  0  0  0  0
    1.3321    2.7093   -1.0148 H   0  0  0  0  0  0  0  0  0  0  0  0
    0.3978    0.4742   -3.9520 H   0  0  0  0  0  0  0  0  0  0  0  0
   -0.7311    4.2545   -2.4199 H   0  0  0  0  0  0  0  0  0  0  0  0
   -1.1863    1.5891   -5.6200 H   0  0  0  0  0  0  0  0  0  0  0  0
   -1.8003    3.8529   -4.5988 H   0  0  0  0  0  0  0  0  0  0  0  0
    2.0261    1.4154    1.0229 N   0  0  0  0  0  0  0  0  0  0  0  0
    3.0147    1.2884    2.0695 C   0  0  2  0  0  0  0  0  0  0  0  0
    2.4623    0.3403    3.1257 C   0  0  0  0  0  0  0  0  0  0  0  0
    1.2610    0.1231    3.2697 O   0  0  0  0  0  0  0  0  0  0  0  0
    3.3542    2.6406    2.6770 C   0  0  0  0  0  0  0  0  0  0  0  0
    1.7617    2.3481    0.7197 H   0  0  0  0  0  0  0  0  0  0  0  0
    3.9057    0.8459    1.6109 H   0  0  0  0  0  0  0  0  0  0  0  0
    2.4736    3.0994    3.1413 H   0  0  0  0  0  0  0  0  0  0  0  0
    4.1240    2.5463    3.4500 H   0  0  0  0  0  0  0  0  0  0  0  0
    3.7232    3.3306    1.9105 H   0  0  0  0  0  0  0  0  0  0  0  0
    3.4658   -0.2015    3.9167 N   0  0  0  0  0  0  0  0  0  0  0  0
    3.1958   -1.1207    4.9975 C   0  0  0  0  0  0  0  0  0  0  0  0
    4.4362    0.0195    3.7137 H   0  0  0  0  0  0  0  0  0  0  0  0
    3.0854   -0.5600    5.9374 H   0  0  0  0  0  0  0  0  0  0  0  0
    2.2666   -1.6707    4.7874 H   0  0  0  0  0  0  0  0  0  0  0  0
    4.0298   -1.8319    5.0907 H   0  0  0  0  0  0  0  0  0  0  0  0
 22 24  2  0  0  0  0
 24 26  1  0  0  0  0
 25 26  1  0  0  0  0
 23 25  2  0  0  0  0
 21 22  1  0  0  0  0
 22 23  1  0  0  0  0
  1  3  1  0  0  0  0
  1  7  1  0  0  0  0
  1  2  2  0  0  0  0
 36 37  1  0  0  0  0
 37 45  1  0  0  0  0
 37 38  2  0  0  0  0
  8  9  1  0  0  0  0
  9 17  1  0  0  0  0
  9 10  2  0  0  0  0
 18 19  1  0  0  0  0
 19 35  1  0  0  0  0
 19 20  2  0  0  0  0
 36 39  1  0  0  0  0
  8 11  1  0  0  0  0
 45 46  1  0  0  0  0
 18 21  1  0  0  0  0
 35 36  1  0  0  0  0
  7  8  1  0  0  0  0
 17 18  1  0  0  0  0
 24 32  1  0  0  0  0
 25 33  1  0  0  0  0
  3  4  1  0  0  0  0
  3  5  1  0  0  0  0
  3  6  1  0  0  0  0
 39 42  1  0  0  0  0
 39 43  1  0  0  0  0
 39 44  1  0  0  0  0
 11 14  1  0  0  0  0
 11 15  1  0  0  0  0
 11 16  1  0  0  0  0
 46 48  1  0  0  0  0
 46 49  1  0  0  0  0
 46 50  1  0  0  0  0
 21 29  1  0  0  0  0
 21 30  1  0  0  0  0
 36 41  1  0  0  0  0
  8 13  1  0  0  0  0
 18 28  1  0  0  0  0
 26 34  1  0  0  0  0
 23 31  1  0  0  0  0
 45 47  1  0  0  0  0
  7 12  1  0  0  0  0
 35 40  1  0  0  0  0
 17 27  1  0  0  0  0
M  CHG  1  23   1
M  END
$$$$

  -OEChem-05262214473D

 50 50  0     1  0  0  0  0  0999 V2000
   -1.6938    0.4865    3.8080 C   0  0  0  0  0  0  0  0  0  0  0  0
   -0.7464   -0.1282    3.3323 O   0  0  0  0  0  0  0  0  0  0  0  0
   -2.1257    0.2041    5.2087 C   0  0  0  0  0  0  0  0  0  0  0  0
   -2.8853   -0.5922    5.2621 H   0  0  0  0  0  0  0  0  0  0  0  0
   -1.2944   -0.1435    5.8430 H   0  0  0  0  0  0  0  0  0  0  0  0
   -2.5637    1.0590    5.7483 H   0  0  0  0  0  0  0  0  0  0  0  0
   -2.4435    1.4589    3.1669 N   0  0  0  0  0  0  0  0  0  0  0  0
   -2.1966    1.8850    1.8145 C   0  0  2  0  0  0  0  0  0  0  0  0
   -0.8617    1.2996    1.3733 C   0  0  0  0  0  0  0  0  0  0  0  0
    0.0104    0.9468    2.1646 O   0  0  0  0  0  0  0  0  0  0  0  0
   -2.1879    3.4017    1.7050 C   0  0  0  0  0  0  0  0  0  0  0  0
   -3.2085    1.8948    3.6787 H   0  0  0  0  0  0  0  0  0  0  0  0
   -3.0007    1.4665    1.1994 H   0  0  0  0  0  0  0  0  0  0  0  0
   -1.3888    3.8390    2.3147 H   0  0  0  0  0  0  0  0  0  0  0  0
   -2.0284    3.7240    0.6708 H   0  0  0  0  0  0  0  0  0  0  0  0
   -3.1380    3.8230    2.0508 H   0  0  0  0  0  0  0  0  0  0  0  0
   -0.7390    1.2565   -0.0101 N   0  0  0  0  0  0  0  0  0  0  0  0
    0.4383    0.7557   -0.6738 C   0  0  2  0  0  0  0  0  0  0  0  0
    1.4197    0.3270    0.4113 C   0  0  0  0  0  0  0  0  0  0  0  0
    1.8672   -0.8148    0.4955 O   0  0  0  0  0  0  0  0  0  0  0  0
    1.0794    1.8069   -1.5870 C   0  0  0  0  0  0  0  0  0  0  0  0
    0.1831    2.2094   -2.7326 C   0  0  0  0  0  0  0  0  0  0  0  0
   -0.0182    1.3919   -3.8185 N   0  3  0  0  0  0  0  0  0  0  0  0
   -0.5531    3.3398   -2.9495 C   0  0  0  0  0  0  0  0  0  0  0  0
   -0.8478    1.9903   -4.6793 C   0  0  0  0  0  0  0  0  0  0  0  0
   -1.1801    3.1772   -4.1613 N   0  0  0  0  0  0  0  0  0  0  0  0
   -1.5221    1.5532   -0.5874 H   0  0  0  0  0  0  0  0  0  0  0  0
    0.1244   -0.1272   -1.2429 H   0  0  0  0  0  0  0  0  0  0  0  0
    2.0366    1.4372   -1.9792 H   0  0  0  0  0  0  0  0  0  0  0  0
    1.3321    2.7093   -1.0148 H   0  0  0  0  0  0  0  0  0  0  0  0
    0.3978    0.4742   -3.9520 H   0  0  0  0  0  0  0  0  0  0  0  0
   -0.7311    4.2545   -2.4199 H   0  0  0  0  0  0  0  0  0  0  0  0
   -1.1863    1.5891   -5.6200 H   0  0  0  0  0  0  0  0  0  0  0  0
   -1.8003    3.8529   -4.5988 H   0  0  0  0  0  0  0  0  0  0  0  0
    1.7718    1.3831    1.2401 N   0  0  0  0  0  0  0  0  0  0  0  0
    2.7050    1.2546    2.3362 C   0  0  2  0  0  0  0  0  0  0  0  0
    2.2838    0.0548    3.1744 C   0  0  0  0  0  0  0  0  0  0  0  0
    1.1395   -0.3945    3.1751 O   0  0  0  0  0  0  0  0  0  0  0  0
    2.7456    2.5194    3.1796 C   0  0  0  0  0  0  0  0  0  0  0  0
    1.3525    2.2921    1.0677 H   0  0  0  0  0  0  0  0  0  0  0  0
    3.6887    1.0642    1.8934 H   0  0  0  0  0  0  0  0  0  0  0  0
    1.7687    2.7266    3.6315 H   0  0  0  0  0  0  0  0  0  0  0  0
    3.4738    2.4311    3.9925 H   0  0  0  0  0  0  0  0  0  0  0  0
    3.0197    3.3864    2.5689 H   0  0  0  0  0  0  0  0  0  0  0  0
    3.3251   -0.4285    3.9542 N   0  0  0  0  0  0  0  0  0  0  0  0
    3.1737   -1.5544    4.8461 C   0  0  0  0  0  0  0  0  0  0  0  0
    4.2457   -0.0065    3.8757 H   0  0  0  0  0  0  0  0  0  0  0  0
    2.9051   -1.1940    5.8500 H   0  0  0  0  0  0  0  0  0  0  0  0
    2.3798   -2.2161    4.4695 H   0  0  0  0  0  0  0  0  0  0  0  0
    4.1211   -2.1110    4.8978 H   0  0  0  0  0  0  0  0  0  0  0  0
 22 24  2  0  0  0  0
 24 26  1  0  0  0  0
 25 26  1  0  0  0  0
 23 25  2  0  0  0  0
 21 22  1  0  0  0  0
 22 23  1  0  0  0  0
  1  3  1  0  0  0  0
  1  7  1  0  0  0  0
  1  2  2  0  0  0  0
 36 37  1  0  0  0  0
 37 45  1  0  0  0  0
 37 38  2  0  0  0  0
  8  9  1  0  0  0  0
  9 17  1  0  0  0  0
  9 10  2  0  0  0  0
 18 19  1  0  0  0  0
 19 35  1  0  0  0  0
 19 20  2  0  0  0  0
 36 39  1  0  0  0  0
  8 11  1  0  0  0  0
 45 46  1  0  0  0  0
 18 21  1  0  0  0  0
 35 36  1  0  0  0  0
  7  8  1  0  0  0  0
 17 18  1  0  0  0  0
 24 32  1  0  0  0  0
 25 33  1  0  0  0  0
  3  4  1  0  0  0  0
  3  5  1  0  0  0  0
  3  6  1  0  0  0  0
 39 42  1  0  0  0  0
 39 43  1  0  0  0  0
 39 44  1  0  0  0  0
 11 14  1  0  0  0  0
 11 15  1  0  0  0  0
 11 16  1  0  0  0  0
 46 48  1  0  0  0  0
 46 49  1  0  0  0  0
 46 50  1  0  0  0  0
 21 29  1  0  0  0  0
 21 30  1  0  0  0  0
 36 41  1  0  0  0  0
  8 13  1  0  0  0  0
 18 28  1  0  0  0  0
 26 34  1  0  0  0  0
 23 31  1  0  0  0  0
 45 47  1  0  0  0  0
  7 12  1  0  0  0  0
 35 40  1  0  0  0  0
 17 27  1  0  0  0  0
M  CHG  1  23   1
M  END
$$$$

  -OEChem-05262214473D

 50 50  0     1  0  0  0  0  0999 V2000
   -1.6938    0.4865    3.8080 C   0  0  0  0  0  0  0  0  0  0  0  0
   -0.7464   -0.1282    3.3323 O   0  0  0  0  0  0  0  0  0  0  0  0
   -2.1257    0.2041    5.2087 C   0  0  0  0  0  0  0  0  0  0  0  0
   -2.8853   -0.5922    5.2621 H   0  0  0  0  0  0  0  0  0  0  0  0
   -1.2944   -0.1435    5.8430 H   0  0  0  0  0  0  0  0  0  0  0  0
   -2.5637    1.0590    5.7483 H   0  0  0  0  0  0  0  0  0  0  0  0
   -2.4435    1.4589    3.1669 N   0  0  0  0  0  0  0  0  0  0  0  0
   -2.1966    1.8850    1.8145 C   0  0  2  0  0  0  0  0  0  0  0  0
   -0.8617    1.2996    1.3733 C   0  0  0  0  0  0  0  0  0  0  0  0
    0.0104    0.9468    2.1646 O   0  0  0  0  0  0  0  0  0  0  0  0
   -2.1879    3.4017    1.7050 C   0  0  0  0  0  0  0  0  0  0  0  0
   -3.2085    1.8948    3.6787 H   0  0  0  0  0  0  0  0  0  0  0  0
   -3.0007    1.4665    1.1994 H   0  0  0  0  0  0  0  0  0  0  0  0
   -1.3888    3.8390    2.3147 H   0  0  0  0  0  0  0  0  0  0  0  0
   -2.0284    3.7240    0.6708 H   0  0  0  0  0  0  0  0  0  0  0  0
   -3.1380    3.8230    2.0508 H   0  0  0  0  0  0  0  0  0  0  0  0
   -0.7390    1.2565   -0.0101 N   0  0  0  0  0  0  0  0  0  0  0  0
    0.4383    0.7557   -0.6738 C   0  0  2  0  0  0  0  0  0  0  0  0
    1.4197    0.3270    0.4113 C   0  0  0  0  0  0  0  0  0  0  0  0
    2.0708   -0.7139    0.3512 O   0  0  0  0  0  0  0  0  0  0  0  0
    1.0794    1.8069   -1.5870 C   0  0  0  0  0  0  0  0  0  0  0  0
    0.1831    2.2094   -2.7326 C   0  0  0  0  0  0  0  0  0  0  0  0
   -0.0182    1.3919   -3.8185 N   0  3  0  0  0  0  0  0  0  0  0  0
   -0.5531    3.3398   -2.9495 C   0  0  0  0  0  0  0  0  0  0  0  0
   -0.8478    1.9903   -4.6793 C   0  0  0  0  0  0  0  0  0  0  0  0
   -1.1801    3.1772   -4.1613 N   0  0  0  0  0  0  0  0  0  0  0  0
   -1.5221    1.5532   -0.5874 H   0  0  0  0  0  0  0  0  0  0  0  0
    0.1244   -0.1272   -1.2429 H   0  0  0  0  0  0  0  0  0  0  0  0
    2.0366    1.4372   -1.9792 H   0  0  0  0  0  0  0  0  0  0  0  0
    1.3321    2.7093   -1.0148 H   0  0  0  0  0  0  0  0  0  0  0  0
    0.3978    0.4742   -3.9520 H   0  0  0  0  0  0  0  0  0  0  0  0
   -0.7311    4.2545   -2.4199 H   0  0  0  0  0  0  0  0  0  0  0  0
   -1.1863    1.5891   -5.6200 H   0  0  0  0  0  0  0  0  0  0  0  0
   -1.8003    3.8529   -4.5988 H   0  0  0  0  0  0  0  0  0  0  0  0
    1.5163    1.2689    1.4261 N   0  0  0  0  0  0  0  0  0  0  0  0
    2.3927    1.1205    2.5657 C   0  0  2  0  0  0  0  0  0  0  0  0
    2.1604   -0.2620    3.1608 C   0  0  0  0  0  0  0  0  0  0  0  0
    1.1244   -0.9010    2.9885 O   0  0  0  0  0  0  0  0  0  0  0  0
    2.1434    2.2066    3.6006 C   0  0  0  0  0  0  0  0  0  0  0  0
    0.9422    2.1046    1.3647 H   0  0  0  0  0  0  0  0  0  0  0  0
    3.4183    1.1880    2.1868 H   0  0  0  0  0  0  0  0  0  0  0  0
    1.1208    2.1549    3.9917 H   0  0  0  0  0  0  0  0  0  0  0  0
    2.8275    2.1097    4.4501 H   0  0  0  0  0  0  0  0  0  0  0  0
    2.2820    3.2011    3.1629 H   0  0  0  0  0  0  0  0  0  0  0  0
    3.2284   -0.6800    3.9423 N   0  0  0  0  0  0  0  0  0  0  0  0
    3.2433   -1.9522    4.6259 C   0  0  0  0  0  0  0  0  0  0  0  0
    4.0547   -0.0938    4.0140 H   0  0  0  0  0  0  0  0  0  0  0  0
    2.8540   -1.8251    5.6468 H   0  0  0  0  0  0  0  0  0  0  0  0
    2.6127   -2.6692    4.0798 H   0  0  0  0  0  0  0  0  0  0  0  0
    4.2748   -2.3317    4.6716 H   0  0  0  0  0  0  0  0  0  0  0  0
 22 24  2  0  0  0  0
 24 26  1  0  0  0  0
 25 26  1  0  0  0  0
 23 25  2  0  0  0  0
 21 22  1  0  0  0  0
 22 23  1  0  0  0  0
  1  3  1  0  0  0  0
  1  7  1  0  0  0  0
  1  2  2  0  0  0  0
 36 37  1  0  0  0  0
 37 45  1  0  0  0  0
 37 38  2  0  0  0  0
  8  9  1  0  0  0  0
  9 17  1  0  0  0  0
  9 10  2  0  0  0  0
 18 19  1  0  0  0  0
 19 35  1  0  0  0  0
 19 20  2  0  0  0  0
 36 39  1  0  0  0  0
  8 11  1  0  0  0  0
 45 46  1  0  0  0  0
 18 21  1  0  0  0  0
 35 36  1  0  0  0  0
  7  8  1  0  0  0  0
 17 18  1  0  0  0  0
 24 32  1  0  0  0  0
 25 33  1  0  0  0  0
  3  4  1  0  0  0  0
  3  5  1  0  0  0  0
  3  6  1  0  0  0  0
 39 42  1  0  0  0  0
 39 43  1  0  0  0  0
 39 44  1  0  0  0  0
 11 14  1  0  0  0  0
 11 15  1  0  0  0  0
 11 16  1  0  0  0  0
 46 48  1  0  0  0  0
 46 49  1  0  0  0  0
 46 50  1  0  0  0  0
 21 29  1  0  0  0  0
 21 30  1  0  0  0  0
 36 41  1  0  0  0  0
  8 13  1  0  0  0  0
 18 28  1  0  0  0  0
 26 34  1  0  0  0  0
 23 31  1  0  0  0  0
 45 47  1  0  0  0  0
  7 12  1  0  0  0  0
 35 40  1  0  0  0  0
 17 27  1  0  0  0  0
M  CHG  1  23   1
M  END
$$$$

  -OEChem-05262214473D

 50 50  0     1  0  0  0  0  0999 V2000
   -1.6938    0.4865    3.8080 C   0  0  0  0  0  0  0  0  0  0  0  0
   -0.7464   -0.1282    3.3323 O   0  0  0  0  0  0  0  0  0  0  0  0
   -2.1257    0.2041    5.2087 C   0  0  0  0  0  0  0  0  0  0  0  0
   -2.8853   -0.5922    5.2621 H   0  0  0  0  0  0  0  0  0  0  0  0
   -1.2944   -0.1435    5.8430 H   0  0  0  0  0  0  0  0  0  0  0  0
   -2.5637    1.0590    5.7483 H   0  0  0  0  0  0  0  0  0  0  0  0
   -2.4435    1.4589    3.1669 N   0  0  0  0  0  0  0  0  0  0  0  0
   -2.1966    1.8850    1.8145 C   0  0  2  0  0  0  0  0  0  0  0  0
   -0.8617    1.2996    1.3733 C   0  0  0  0  0  0  0  0  0  0  0  0
    0.0104    0.9468    2.1646 O   0  0  0  0  0  0  0  0  0  0  0  0
   -2.1879    3.4017    1.7050 C   0  0  0  0  0  0  0  0  0  0  0  0
   -3.2085    1.8948    3.6787 H   0  0  0  0  0  0  0  0  0  0  0  0
   -3.0007    1.4665    1.1994 H   0  0  0  0  0  0  0  0  0  0  0  0
   -1.3888    3.8390    2.3147 H   0  0  0  0  0  0  0  0  0  0  0  0
   -2.0284    3.7240    0.6708 H   0  0  0  0  0  0  0  0  0  0  0  0
   -3.1380    3.8230    2.0508 H   0  0  0  0  0  0  0  0  0  0  0  0
   -0.7390    1.2565   -0.0101 N   0  0  0  0  0  0  0  0  0  0  0  0
    0.4383    0.7557   -0.6738 C   0  0  2  0  0  0  0  0  0  0  0  0
    1.4197    0.3270    0.4113 C   0  0  0  0  0  0  0  0  0  0  0  0
    2.2594   -0.5549    0.2435 O   0  0  0  0  0  0  0  0  0  0  0  0
    1.0794    1.8069   -1.5870 C   0  0  0  0  0  0  0  0  0  0  0  0
    0.1831    2.2094   -2.7326 C   0  0  0  0  0  0  0  0  0  0  0  0
   -0.0182    1.3919   -3.8185 N   0  3  0  0  0  0  0  0  0  0  0  0
   -0.5531    3.3398   -2.9495 C   0  0  0  0  0  0  0  0  0  0  0  0
   -0.8478    1.9903   -4.6793 C   0  0  0  0  0  0  0  0  0  0  0  0
   -1.1801    3.1772   -4.1613 N   0  0  0  0  0  0  0  0  0  0  0  0
   -1.5221    1.5532   -0.5874 H   0  0  0  0  0  0  0  0  0  0  0  0
    0.1244   -0.1272   -1.2429 H   0  0  0  0  0  0  0  0  0  0  0  0
    2.0366    1.4372   -1.9792 H   0  0  0  0  0  0  0  0  0  0  0  0
    1.3321    2.7093   -1.0148 H   0  0  0  0  0  0  0  0  0  0  0  0
    0.3978    0.4742   -3.9520 H   0  0  0  0  0  0  0  0  0  0  0  0
   -0.7311    4.2545   -2.4199 H   0  0  0  0  0  0  0  0  0  0  0  0
   -1.1863    1.5891   -5.6200 H   0  0  0  0  0  0  0  0  0  0  0  0
   -1.8003    3.8529   -4.5988 H   0  0  0  0  0  0  0  0  0  0  0  0
    1.2771    1.0805    1.5681 N   0  0  0  0  0  0  0  0  0  0  0  0
    2.0990    0.8952    2.7423 C   0  0  2  0  0  0  0  0  0  0  0  0
    2.1005   -0.5885    3.0859 C   0  0  0  0  0  0  0  0  0  0  0  0
    1.2167   -1.3620    2.7229 O   0  0  0  0  0  0  0  0  0  0  0  0
    1.5888    1.7233    3.9113 C   0  0  0  0  0  0  0  0  0  0  0  0
    0.5588    1.7984    1.5906 H   0  0  0  0  0  0  0  0  0  0  0  0
    3.1130    1.2089    2.4713 H   0  0  0  0  0  0  0  0  0  0  0  0
    0.5740    1.4234    4.1971 H   0  0  0  0  0  0  0  0  0  0  0  0
    2.2291    1.6039    4.7915 H   0  0  0  0  0  0  0  0  0  0  0  0
    1.5603    2.7872    3.6521 H   0  0  0  0  0  0  0  0  0  0  0  0
    3.1821   -0.9388    3.8819 N   0  0  0  0  0  0  0  0  0  0  0  0
    3.3999   -2.2870    4.3521 C   0  0  0  0  0  0  0  0  0  0  0  0
    3.8763   -0.2362    4.1191 H   0  0  0  0  0  0  0  0  0  0  0  0
    2.9357   -2.4102    5.3417 H   0  0  0  0  0  0  0  0  0  0  0  0
    2.9495   -2.9990    3.6448 H   0  0  0  0  0  0  0  0  0  0  0  0
    4.4804   -2.4788    4.4275 H   0  0  0  0  0  0  0  0  0  0  0  0
 22 24  2  0  0  0  0
 24 26  1  0  0  0  0
 25 26  1  0  0  0  0
 23 25  2  0  0  0  0
 21 22  1  0  0  0  0
 22 23  1  0  0  0  0
  1  3  1  0  0  0  0
  1  7  1  0  0  0  0
  1  2  2  0  0  0  0
 36 37  1  0  0  0  0
 37 45  1  0  0  0  0
 37 38  2  0  0  0  0
  8  9  1  0  0  0  0
  9 17  1  0  0  0  0
  9 10  2  0  0  0  0
 18 19  1  0  0  0  0
 19 35  1  0  0  0  0
 19 20  2  0  0  0  0
 36 39  1  0  0  0  0
  8 11  1  0  0  0  0
 45 46  1  0  0  0  0
 18 21  1  0  0  0  0
 35 36  1  0  0  0  0
  7  8  1  0  0  0  0
 17 18  1  0  0  0  0
 24 32  1  0  0  0  0
 25 33  1  0  0  0  0
  3  4  1  0  0  0  0
  3  5  1  0  0  0  0
  3  6  1  0  0  0  0
 39 42  1  0  0  0  0
 39 43  1  0  0  0  0
 39 44  1  0  0  0  0
 11 14  1  0  0  0  0
 11 15  1  0  0  0  0
 11 16  1  0  0  0  0
 46 48  1  0  0  0  0
 46 49  1  0  0  0  0
 46 50  1  0  0  0  0
 21 29  1  0  0  0  0
 21 30  1  0  0  0  0
 36 41  1  0  0  0  0
  8 13  1  0  0  0  0
 18 28  1  0  0  0  0
 26 34  1  0  0  0  0
 23 31  1  0  0  0  0
 45 47  1  0  0  0  0
  7 12  1  0  0  0  0
 35 40  1  0  0  0  0
 17 27  1  0  0  0  0
M  CHG  1  23   1
M  END
$$$$

  -OEChem-05262214473D

 50 50  0     1  0  0  0  0  0999 V2000
   -1.6938    0.4865    3.8080 C   0  0  0  0  0  0  0  0  0  0  0  0
   -0.7464   -0.1282    3.3323 O   0  0  0  0  0  0  0  0  0  0  0  0
   -2.1257    0.2041    5.2087 C   0  0  0  0  0  0  0  0  0  0  0  0
   -2.8853   -0.5922    5.2621 H   0  0  0  0  0  0  0  0  0  0  0  0
   -1.2944   -0.1435    5.8430 H   0  0  0  0  0  0  0  0  0  0  0  0
   -2.5637    1.0590    5.7483 H   0  0  0  0  0  0  0  0  0  0  0  0
   -2.4435    1.4589    3.1669 N   0  0  0  0  0  0  0  0  0  0  0  0
   -2.1966    1.8850    1.8145 C   0  0  2  0  0  0  0  0  0  0  0  0
   -0.8617    1.2996    1.3733 C   0  0  0  0  0  0  0  0  0  0  0  0
    0.0104    0.9468    2.1646 O   0  0  0  0  0  0  0  0  0  0  0  0
   -2.1879    3.4017    1.7050 C   0  0  0  0  0  0  0  0  0  0  0  0
   -3.2085    1.8948    3.6787 H   0  0  0  0  0  0  0  0  0  0  0  0
   -3.0007    1.4665    1.1994 H   0  0  0  0  0  0  0  0  0  0  0  0
   -1.3888    3.8390    2.3147 H   0  0  0  0  0  0  0  0  0  0  0  0
   -2.0284    3.7240    0.6708 H   0  0  0  0  0  0  0  0  0  0  0  0
   -3.1380    3.8230    2.0508 H   0  0  0  0  0  0  0  0  0  0  0  0
   -0.7390    1.2565   -0.0101 N   0  0  0  0  0  0  0  0  0  0  0  0
    0.4383    0.7557   -0.6738 C   0  0  2  0  0  0  0  0  0  0  0  0
    1.4197    0.3270    0.4113 C   0  0  0  0  0  0  0  0  0  0  0  0
    2.4201   -0.3486    0.1796 O   0  0  0  0  0  0  0  0  0  0  0  0
    1.0794    1.8069   -1.5870 C   0  0  0  0  0  0  0  0  0  0  0  0
    0.1831    2.2094   -2.7326 C   0  0  0  0  0  0  0  0  0  0  0  0
   -0.0182    1.3919   -3.8185 N   0  3  0  0  0  0  0  0  0  0  0  0
   -0.5531    3.3398   -2.9495 C   0  0  0  0  0  0  0  0  0  0  0  0
   -0.8478    1.9903   -4.6793 C   0  0  0  0  0  0  0  0  0  0  0  0
   -1.1801    3.1772   -4.1613 N   0  0  0  0  0  0  0  0  0  0  0  0
   -1.5221    1.5532   -0.5874 H   0  0  0  0  0  0  0  0  0  0  0  0
    0.1244   -0.1272   -1.2429 H   0  0  0  0  0  0  0  0  0  0  0  0
    2.0366    1.4372   -1.9792 H   0  0  0  0  0  0  0  0  0  0  0  0
    1.3321    2.7093   -1.0148 H   0  0  0  0  0  0  0  0  0  0  0  0
    0.3978    0.4742   -3.9520 H   0  0  0  0  0  0  0  0  0  0  0  0
   -0.7311    4.2545   -2.4199 H   0  0  0  0  0  0  0  0  0  0  0  0
   -1.1863    1.5891   -5.6200 H   0  0  0  0  0  0  0  0  0  0  0  0
   -1.8003    3.8529   -4.5988 H   0  0  0  0  0  0  0  0  0  0  0  0
    1.0703    0.8309    1.6564 N   0  0  0  0  0  0  0  0  0  0  0  0
    1.8440    0.5940    2.8539 C   0  0  2  0  0  0  0  0  0  0  0  0
    2.1083   -0.9025    2.9548 C   0  0  0  0  0  0  0  0  0  0  0  0
    1.4102   -1.7461    2.3962 O   0  0  0  0  0  0  0  0  0  0  0  0
    1.1195    1.1026    4.0905 C   0  0  0  0  0  0  0  0  0  0  0  0
    0.2284    1.3945    1.7297 H   0  0  0  0  0  0  0  0  0  0  0  0
    2.7936    1.1254    2.7272 H   0  0  0  0  0  0  0  0  0  0  0  0
    0.1657    0.5818    4.2339 H   0  0  0  0  0  0  0  0  0  0  0  0
    1.7194    0.9483    4.9934 H   0  0  0  0  0  0  0  0  0  0  0  0
    0.9038    2.1730    4.0032 H   0  0  0  0  0  0  0  0  0  0  0  0
    3.1894   -1.1873    3.7771 N   0  0  0  0  0  0  0  0  0  0  0  0
    3.6326   -2.5359    4.0432 C   0  0  0  0  0  0  0  0  0  0  0  0
    3.7224   -0.4243    4.1839 H   0  0  0  0  0  0  0  0  0  0  0  0
    3.1446   -2.9095    4.9555 H   0  0  0  0  0  0  0  0  0  0  0  0
    3.3673   -3.1831    3.1942 H   0  0  0  0  0  0  0  0  0  0  0  0
    4.7238   -2.5424    4.1822 H   0  0  0  0  0  0  0  0  0  0  0  0
 22 24  2  0  0  0  0
 24 26  1  0  0  0  0
 25 26  1  0  0  0  0
 23 25  2  0  0  0  0
 21 22  1  0  0  0  0
 22 23  1  0  0  0  0
  1  3  1  0  0  0  0
  1  7  1  0  0  0  0
  1  2  2  0  0  0  0
 36 37  1  0  0  0  0
 37 45  1  0  0  0  0
 37 38  2  0  0  0  0
  8  9  1  0  0  0  0
  9 17  1  0  0  0  0
  9 10  2  0  0  0  0
 18 19  1  0  0  0  0
 19 35  1  0  0  0  0
 19 20  2  0  0  0  0
 36 39  1  0  0  0  0
  8 11  1  0  0  0  0
 45 46  1  0  0  0  0
 18 21  1  0  0  0  0
 35 36  1  0  0  0  0
  7  8  1  0  0  0  0
 17 18  1  0  0  0  0
 24 32  1  0  0  0  0
 25 33  1  0  0  0  0
  3  4  1  0  0  0  0
  3  5  1  0  0  0  0
  3  6  1  0  0  0  0
 39 42  1  0  0  0  0
 39 43  1  0  0  0  0
 39 44  1  0  0  0  0
 11 14  1  0  0  0  0
 11 15  1  0  0  0  0
 11 16  1  0  0  0  0
 46 48  1  0  0  0  0
 46 49  1  0  0  0  0
 46 50  1  0  0  0  0
 21 29  1  0  0  0  0
 21 30  1  0  0  0  0
 36 41  1  0  0  0  0
  8 13  1  0  0  0  0
 18 28  1  0  0  0  0
 26 34  1  0  0  0  0
 23 31  1  0  0  0  0
 45 47  1  0  0  0  0
  7 12  1  0  0  0  0
 35 40  1  0  0  0  0
 17 27  1  0  0  0  0
M  CHG  1  23   1
M  END
$$$$

  -OEChem-05262214473D

 50 50  0     1  0  0  0  0  0999 V2000
   -1.6938    0.4865    3.8080 C   0  0  0  0  0  0  0  0  0  0  0  0
   -0.7464   -0.1282    3.3323 O   0  0  0  0  0  0  0  0  0  0  0  0
   -2.1257    0.2041    5.2087 C   0  0  0  0  0  0  0  0  0  0  0  0
   -2.8853   -0.5922    5.2621 H   0  0  0  0  0  0  0  0  0  0  0  0
   -1.2944   -0.1435    5.8430 H   0  0  0  0  0  0  0  0  0  0  0  0
   -2.5637    1.0590    5.7483 H   0  0  0  0  0  0  0  0  0  0  0  0
   -2.4435    1.4589    3.1669 N   0  0  0  0  0  0  0  0  0  0  0  0
   -2.1966    1.8850    1.8145 C   0  0  2  0  0  0  0  0  0  0  0  0
   -0.8617    1.2996    1.3733 C   0  0  0  0  0  0  0  0  0  0  0  0
    0.0104    0.9468    2.1646 O   0  0  0  0  0  0  0  0  0  0  0  0
   -2.1879    3.4017    1.7050 C   0  0  0  0  0  0  0  0  0  0  0  0
   -3.2085    1.8948    3.6787 H   0  0  0  0  0  0  0  0  0  0  0  0
   -3.0007    1.4665    1.1994 H   0  0  0  0  0  0  0  0  0  0  0  0
   -1.3888    3.8390    2.3147 H   0  0  0  0  0  0  0  0  0  0  0  0
   -2.0284    3.7240    0.6708 H   0  0  0  0  0  0  0  0  0  0  0  0
   -3.1380    3.8230    2.0508 H   0  0  0  0  0  0  0  0  0  0  0  0
   -0.7390    1.2565   -0.0101 N   0  0  0  0  0  0  0  0  0  0  0  0
    0.4383    0.7557   -0.6738 C   0  0  2  0  0  0  0  0  0  0  0  0
    1.4197    0.3270    0.4113 C   0  0  0  0  0  0  0  0  0  0  0  0
    2.5420   -0.1091    0.1640 O   0  0  0  0  0  0  0  0  0  0  0  0
    1.0794    1.8069   -1.5870 C   0  0  0  0  0  0  0  0  0  0  0  0
    0.1831    2.2094   -2.7326 C   0  0  0  0  0  0  0  0  0  0  0  0
   -0.0182    1.3919   -3.8185 N   0  3  0  0  0  0  0  0  0  0  0  0
   -0.5531    3.3398   -2.9495 C   0  0  0  0  0  0  0  0  0  0  0  0
   -0.8478    1.9903   -4.6793 C   0  0  0  0  0  0  0  0  0  0  0  0
   -1.1801    3.1772   -4.1613 N   0  0  0  0  0  0  0  0  0  0  0  0
   -1.5221    1.5532   -0.5874 H   0  0  0  0  0  0  0  0  0  0  0  0
    0.1244   -0.1272   -1.2429 H   0  0  0  0  0  0  0  0  0  0  0  0
    2.0366    1.4372   -1.9792 H   0  0  0  0  0  0  0  0  0  0  0  0
    1.3321    2.7093   -1.0148 H   0  0  0  0  0  0  0  0  0  0  0  0
    0.3978    0.4742   -3.9520 H   0  0  0  0  0  0  0  0  0  0  0  0
   -0.7311    4.2545   -2.4199 H   0  0  0  0  0  0  0  0  0  0  0  0
   -1.1863    1.5891   -5.6200 H   0  0  0  0  0  0  0  0  0  0  0  0
   -1.8003    3.8529   -4.5988 H   0  0  0  0  0  0  0  0  0  0  0  0
    0.9101    0.5369    1.6851 N   0  0  0  0  0  0  0  0  0  0  0  0
    1.6451    0.2376    2.8931 C   0  0  2  0  0  0  0  0  0  0  0  0
    2.1831   -1.1824    2.7765 C   0  0  0  0  0  0  0  0  0  0  0  0
    1.6915   -2.0269    2.0307 O   0  0  0  0  0  0  0  0  0  0  0  0
    0.7674    0.3868    4.1260 C   0  0  0  0  0  0  0  0  0  0  0  0
   -0.0264    0.9202    1.7728 H   0  0  0  0  0  0  0  0  0  0  0  0
    2.4817    0.9433    2.9373 H   0  0  0  0  0  0  0  0  0  0  0  0
   -0.0764   -0.3124    4.0995 H   0  0  0  0  0  0  0  0  0  0  0  0
    1.3331    0.1875    5.0422 H   0  0  0  0  0  0  0  0  0  0  0  0
    0.3573    1.4003    4.1922 H   0  0  0  0  0  0  0  0  0  0  0  0
    3.2499   -1.4084    3.6350 N   0  0  0  0  0  0  0  0  0  0  0  0
    3.9258   -2.6819    3.7203 C   0  0  0  0  0  0  0  0  0  0  0  0
    3.6038   -0.6450    4.2040 H   0  0  0  0  0  0  0  0  0  0  0  0
    3.4665   -3.2889    4.5144 H   0  0  0  0  0  0  0  0  0  0  0  0
    3.8375   -3.2089    2.7587 H   0  0  0  0  0  0  0  0  0  0  0  0
    4.9885   -2.5181    3.9524 H   0  0  0  0  0  0  0  0  0  0  0  0
 22 24  2  0  0  0  0
 24 26  1  0  0  0  0
 25 26  1  0  0  0  0
 23 25  2  0  0  0  0
 21 22  1  0  0  0  0
 22 23  1  0  0  0  0
  1  3  1  0  0  0  0
  1  7  1  0  0  0  0
  1  2  2  0  0  0  0
 36 37  1  0  0  0  0
 37 45  1  0  0  0  0
 37 38  2  0  0  0  0
  8  9  1  0  0  0  0
  9 17  1  0  0  0  0
  9 10  2  0  0  0  0
 18 19  1  0  0  0  0
 19 35  1  0  0  0  0
 19 20  2  0  0  0  0
 36 39  1  0  0  0  0
  8 11  1  0  0  0  0
 45 46  1  0  0  0  0
 18 21  1  0  0  0  0
 35 36  1  0  0  0  0
  7  8  1  0  0  0  0
 17 18  1  0  0  0  0
 24 32  1  0  0  0  0
 25 33  1  0  0  0  0
  3  4  1  0  0  0  0
  3  5  1  0  0  0  0
  3  6  1  0  0  0  0
 39 42  1  0  0  0  0
 39 43  1  0  0  0  0
 39 44  1  0  0  0  0
 11 14  1  0  0  0  0
 11 15  1  0  0  0  0
 11 16  1  0  0  0  0
 46 48  1  0  0  0  0
 46 49  1  0  0  0  0
 46 50  1  0  0  0  0
 21 29  1  0  0  0  0
 21 30  1  0  0  0  0
 36 41  1  0  0  0  0
  8 13  1  0  0  0  0
 18 28  1  0  0  0  0
 26 34  1  0  0  0  0
 23 31  1  0  0  0  0
 45 47  1  0  0  0  0
  7 12  1  0  0  0  0
 35 40  1  0  0  0  0
 17 27  1  0  0  0  0
M  CHG  1  23   1
M  END
$$$$

  -OEChem-05262214473D

 50 50  0     1  0  0  0  0  0999 V2000
   -1.6938    0.4865    3.8080 C   0  0  0  0  0  0  0  0  0  0  0  0
   -0.7464   -0.1282    3.3323 O   0  0  0  0  0  0  0  0  0  0  0  0
   -2.1257    0.2041    5.2087 C   0  0  0  0  0  0  0  0  0  0  0  0
   -2.8853   -0.5922    5.2621 H   0  0  0  0  0  0  0  0  0  0  0  0
   -1.2944   -0.1435    5.8430 H   0  0  0  0  0  0  0  0  0  0  0  0
   -2.5637    1.0590    5.7483 H   0  0  0  0  0  0  0  0  0  0  0  0
   -2.4435    1.4589    3.1669 N   0  0  0  0  0  0  0  0  0  0  0  0
   -2.1966    1.8850    1.8145 C   0  0  2  0  0  0  0  0  0  0  0  0
   -0.8617    1.2996    1.3733 C   0  0  0  0  0  0  0  0  0  0  0  0
    0.0104    0.9468    2.1646 O   0  0  0  0  0  0  0  0  0  0  0  0
   -2.1879    3.4017    1.7050 C   0  0  0  0  0  0  0  0  0  0  0  0
   -3.2085    1.8948    3.6787 H   0  0  0  0  0  0  0  0  0  0  0  0
   -3.0007    1.4665    1.1994 H   0  0  0  0  0  0  0  0  0  0  0  0
   -1.3888    3.8390    2.3147 H   0  0  0  0  0  0  0  0  0  0  0  0
   -2.0284    3.7240    0.6708 H   0  0  0  0  0  0  0  0  0  0  0  0
   -3.1380    3.8230    2.0508 H   0  0  0  0  0  0  0  0  0  0  0  0
   -0.7390    1.2565   -0.0101 N   0  0  0  0  0  0  0  0  0  0  0  0
    0.4383    0.7557   -0.6738 C   0  0  2  0  0  0  0  0  0  0  0  0
    1.4197    0.3270    0.4113 C   0  0  0  0  0  0  0  0  0  0  0  0
    2.6168    0.1473    0.1977 O   0  0  0  0  0  0  0  0  0  0  0  0
    1.0794    1.8069   -1.5870 C   0  0  0  0  0  0  0  0  0  0  0  0
    0.1831    2.2094   -2.7326 C   0  0  0  0  0  0  0  0  0  0  0  0
   -0.0182    1.3919   -3.8185 N   0  3  0  0  0  0  0  0  0  0  0  0
   -0.5531    3.3398   -2.9495 C   0  0  0  0  0  0  0  0  0  0  0  0
   -0.8478    1.9903   -4.6793 C   0  0  0  0  0  0  0  0  0  0  0  0
   -1.1801    3.1772   -4.1613 N   0  0  0  0  0  0  0  0  0  0  0  0
   -1.5221    1.5532   -0.5874 H   0  0  0  0  0  0  0  0  0  0  0  0
    0.1244   -0.1272   -1.2429 H   0  0  0  0  0  0  0  0  0  0  0  0
    2.0366    1.4372   -1.9792 H   0  0  0  0  0  0  0  0  0  0  0  0
    1.3321    2.7093   -1.0148 H   0  0  0  0  0  0  0  0  0  0  0  0
    0.3978    0.4742   -3.9520 H   0  0  0  0  0  0  0  0  0  0  0  0
   -0.7311    4.2545   -2.4199 H   0  0  0  0  0  0  0  0  0  0  0  0
   -1.1863    1.5891   -5.6200 H   0  0  0  0  0  0  0  0  0  0  0  0
   -1.8003    3.8529   -4.5988 H   0  0  0  0  0  0  0  0  0  0  0  0
    0.8075    0.2187    1.6522 N   0  0  0  0  0  0  0  0  0  0  0  0
    1.5157   -0.1499    2.8570 C   0  0  2  0  0  0  0  0  0  0  0  0
    2.3200   -1.4093    2.5630 C   0  0  0  0  0  0  0  0  0  0  0  0
    2.0416   -2.1856    1.6514 O   0  0  0  0  0  0  0  0  0  0  0  0
    0.5567   -0.3755    4.0155 C   0  0  0  0  0  0  0  0  0  0  0  0
   -0.1883    0.4080    1.7169 H   0  0  0  0  0  0  0  0  0  0  0  0
    2.1988    0.6749    3.0872 H   0  0  0  0  0  0  0  0  0  0  0  0
   -0.1357   -1.1983    3.8031 H   0  0  0  0  0  0  0  0  0  0  0  0
    1.0966   -0.6267    4.9344 H   0  0  0  0  0  0  0  0  0  0  0  0
   -0.0420    0.5218    4.2062 H   0  0  0  0  0  0  0  0  0  0  0  0
    3.3595   -1.5872    3.4653 N   0  0  0  0  0  0  0  0  0  0  0  0
    4.2594   -2.7152    3.4054 C   0  0  0  0  0  0  0  0  0  0  0  0
    3.5284   -0.8834    4.1780 H   0  0  0  0  0  0  0  0  0  0  0  0
    3.8794   -3.5226    4.0486 H   0  0  0  0  0  0  0  0  0  0  0  0
    4.3282   -3.0746    2.3680 H   0  0  0  0  0  0  0  0  0  0  0  0
    5.2564   -2.4076    3.7537 H   0  0  0  0  0  0  0  0  0  0  0  0
 22 24  2  0  0  0  0
 24 26  1  0  0  0  0
 25 26  1  0  0  0  0
 23 25  2  0  0  0  0
 21 22  1  0  0  0  0
 22 23  1  0  0  0  0
  1  3  1  0  0  0  0
  1  7  1  0  0  0  0
  1  2  2  0  0  0  0
 36 37  1  0  0  0  0
 37 45  1  0  0  0  0
 37 38  2  0  0  0  0
  8  9  1  0  0  0  0
  9 17  1  0  0  0  0
  9 10  2  0  0  0  0
 18 19  1  0  0  0  0
 19 35  1  0  0  0  0
 19 20  2  0  0  0  0
 36 39  1  0  0  0  0
  8 11  1  0  0  0  0
 45 46  1  0  0  0  0
 18 21  1  0  0  0  0
 35 36  1  0  0  0  0
  7  8  1  0  0  0  0
 17 18  1  0  0  0  0
 24 32  1  0  0  0  0
 25 33  1  0  0  0  0
  3  4  1  0  0  0  0
  3  5  1  0  0  0  0
  3  6  1  0  0  0  0
 39 42  1  0  0  0  0
 39 43  1  0  0  0  0
 39 44  1  0  0  0  0
 11 14  1  0  0  0  0
 11 15  1  0  0  0  0
 11 16  1  0  0  0  0
 46 48  1  0  0  0  0
 46 49  1  0  0  0  0
 46 50  1  0  0  0  0
 21 29  1  0  0  0  0
 21 30  1  0  0  0  0
 36 41  1  0  0  0  0
  8 13  1  0  0  0  0
 18 28  1  0  0  0  0
 26 34  1  0  0  0  0
 23 31  1  0  0  0  0
 45 47  1  0  0  0  0
  7 12  1  0  0  0  0
 35 40  1  0  0  0  0
 17 27  1  0  0  0  0
M  CHG  1  23   1
M  END
$$$$

  -OEChem-05262214473D

 50 50  0     1  0  0  0  0  0999 V2000
   -1.6938    0.4865    3.8080 C   0  0  0  0  0  0  0  0  0  0  0  0
   -0.7464   -0.1282    3.3323 O   0  0  0  0  0  0  0  0  0  0  0  0
   -2.1257    0.2041    5.2087 C   0  0  0  0  0  0  0  0  0  0  0  0
   -2.8853   -0.5922    5.2621 H   0  0  0  0  0  0  0  0  0  0  0  0
   -1.2944   -0.1435    5.8430 H   0  0  0  0  0  0  0  0  0  0  0  0
   -2.5637    1.0590    5.7483 H   0  0  0  0  0  0  0  0  0  0  0  0
   -2.4435    1.4589    3.1669 N   0  0  0  0  0  0  0  0  0  0  0  0
   -2.1966    1.8850    1.8145 C   0  0  2  0  0  0  0  0  0  0  0  0
   -0.8617    1.2996    1.3733 C   0  0  0  0  0  0  0  0  0  0  0  0
    0.0104    0.9468    2.1646 O   0  0  0  0  0  0  0  0  0  0  0  0
   -2.1879    3.4017    1.7050 C   0  0  0  0  0  0  0  0  0  0  0  0
   -3.2085    1.8948    3.6787 H   0  0  0  0  0  0  0  0  0  0  0  0
   -3.0007    1.4665    1.1994 H   0  0  0  0  0  0  0  0  0  0  0  0
   -1.3888    3.8390    2.3147 H   0  0  0  0  0  0  0  0  0  0  0  0
   -2.0284    3.7240    0.6708 H   0  0  0  0  0  0  0  0  0  0  0  0
   -3.1380    3.8230    2.0508 H   0  0  0  0  0  0  0  0  0  0  0  0
   -0.7390    1.2565   -0.0101 N   0  0  0  0  0  0  0  0  0  0  0  0
    0.4383    0.7557   -0.6738 C   0  0  2  0  0  0  0  0  0  0  0  0
    1.4197    0.3270    0.4113 C   0  0  0  0  0  0  0  0  0  0  0  0
    2.6393    0.4031    0.2784 O   0  0  0  0  0  0  0  0  0  0  0  0
    1.0794    1.8069   -1.5870 C   0  0  0  0  0  0  0  0  0  0  0  0
    0.1831    2.2094   -2.7326 C   0  0  0  0  0  0  0  0  0  0  0  0
   -0.0182    1.3919   -3.8185 N   0  3  0  0  0  0  0  0  0  0  0  0
   -0.5531    3.3398   -2.9495 C   0  0  0  0  0  0  0  0  0  0  0  0
   -0.8478    1.9903   -4.6793 C   0  0  0  0  0  0  0  0  0  0  0  0
   -1.1801    3.1772   -4.1613 N   0  0  0  0  0  0  0  0  0  0  0  0
   -1.5221    1.5532   -0.5874 H   0  0  0  0  0  0  0  0  0  0  0  0
    0.1244   -0.1272   -1.2429 H   0  0  0  0  0  0  0  0  0  0  0  0
    2.0366    1.4372   -1.9792 H   0  0  0  0  0  0  0  0  0  0  0  0
    1.3321    2.7093   -1.0148 H   0  0  0  0  0  0  0  0  0  0  0  0
    0.3978    0.4742   -3.9520 H   0  0  0  0  0  0  0  0  0  0  0  0
   -0.7311    4.2545   -2.4199 H   0  0  0  0  0  0  0  0  0  0  0  0
   -1.1863    1.5891   -5.6200 H   0  0  0  0  0  0  0  0  0  0  0  0
   -1.8003    3.8529   -4.5988 H   0  0  0  0  0  0  0  0  0  0  0  0
    0.7694   -0.1021    1.5599 N   0  0  0  0  0  0  0  0  0  0  0  0
    1.4647   -0.5420    2.7481 C   0  0  2  0  0  0  0  0  0  0  0  0
    2.5096   -1.5678    2.3290 C   0  0  0  0  0  0  0  0  0  0  0  0
    2.4366   -2.2111    1.2841 O   0  0  0  0  0  0  0  0  0  0  0  0
    0.5015   -1.1322    3.7663 C   0  0  0  0  0  0  0  0  0  0  0  0
   -0.2463   -0.1073    1.5658 H   0  0  0  0  0  0  0  0  0  0  0  0
    1.9640    0.3386    3.1667 H   0  0  0  0  0  0  0  0  0  0  0  0
   -0.0082   -2.0156    3.3648 H   0  0  0  0  0  0  0  0  0  0  0  0
    1.0260   -1.4387    4.6774 H   0  0  0  0  0  0  0  0  0  0  0  0
   -0.2669   -0.4027    4.0443 H   0  0  0  0  0  0  0  0  0  0  0  0
    3.5105   -1.7114    3.2796 N   0  0  0  0  0  0  0  0  0  0  0  0
    4.6107   -2.6335    3.1200 C   0  0  0  0  0  0  0  0  0  0  0  0
    3.5014   -1.1233    4.1077 H   0  0  0  0  0  0  0  0  0  0  0  0
    4.3552   -3.5947    3.5897 H   0  0  0  0  0  0  0  0  0  0  0  0
    4.8058   -2.7894    2.0487 H   0  0  0  0  0  0  0  0  0  0  0  0
    5.5093   -2.2184    3.5997 H   0  0  0  0  0  0  0  0  0  0  0  0
 22 24  2  0  0  0  0
 24 26  1  0  0  0  0
 25 26  1  0  0  0  0
 23 25  2  0  0  0  0
 21 22  1  0  0  0  0
 22 23  1  0  0  0  0
  1  3  1  0  0  0  0
  1  7  1  0  0  0  0
  1  2  2  0  0  0  0
 36 37  1  0  0  0  0
 37 45  1  0  0  0  0
 37 38  2  0  0  0  0
  8  9  1  0  0  0  0
  9 17  1  0  0  0  0
  9 10  2  0  0  0  0
 18 19  1  0  0  0  0
 19 35  1  0  0  0  0
 19 20  2  0  0  0  0
 36 39  1  0  0  0  0
  8 11  1  0  0  0  0
 45 46  1  0  0  0  0
 18 21  1  0  0  0  0
 35 36  1  0  0  0  0
  7  8  1  0  0  0  0
 17 18  1  0  0  0  0
 24 32  1  0  0  0  0
 25 33  1  0  0  0  0
  3  4  1  0  0  0  0
  3  5  1  0  0  0  0
  3  6  1  0  0  0  0
 39 42  1  0  0  0  0
 39 43  1  0  0  0  0
 39 44  1  0  0  0  0
 11 14  1  0  0  0  0
 11 15  1  0  0  0  0
 11 16  1  0  0  0  0
 46 48  1  0  0  0  0
 46 49  1  0  0  0  0
 46 50  1  0  0  0  0
 21 29  1  0  0  0  0
 21 30  1  0  0  0  0
 36 41  1  0  0  0  0
  8 13  1  0  0  0  0
 18 28  1  0  0  0  0
 26 34  1  0  0  0  0
 23 31  1  0  0  0  0
 45 47  1  0  0  0  0
  7 12  1  0  0  0  0
 35 40  1  0  0  0  0
 17 27  1  0  0  0  0
M  CHG  1  23   1
M  END
$$$$

  -OEChem-05262214473D

 50 50  0     1  0  0  0  0  0999 V2000
   -1.6938    0.4865    3.8080 C   0  0  0  0  0  0  0  0  0  0  0  0
   -0.7464   -0.1282    3.3323 O   0  0  0  0  0  0  0  0  0  0  0  0
   -2.1257    0.2041    5.2087 C   0  0  0  0  0  0  0  0  0  0  0  0
   -2.8853   -0.5922    5.2621 H   0  0  0  0  0  0  0  0  0  0  0  0
   -1.2944   -0.1435    5.8430 H   0  0  0  0  0  0  0  0  0  0  0  0
   -2.5637    1.0590    5.7483 H   0  0  0  0  0  0  0  0  0  0  0  0
   -2.4435    1.4589    3.1669 N   0  0  0  0  0  0  0  0  0  0  0  0
   -2.1966    1.8850    1.8145 C   0  0  2  0  0  0  0  0  0  0  0  0
   -0.8617    1.2996    1.3733 C   0  0  0  0  0  0  0  0  0  0  0  0
    0.0104    0.9468    2.1646 O   0  0  0  0  0  0  0  0  0  0  0  0
   -2.1879    3.4017    1.7050 C   0  0  0  0  0  0  0  0  0  0  0  0
   -3.2085    1.8948    3.6787 H   0  0  0  0  0  0  0  0  0  0  0  0
   -3.0007    1.4665    1.1994 H   0  0  0  0  0  0  0  0  0  0  0  0
   -1.3888    3.8390    2.3147 H   0  0  0  0  0  0  0  0  0  0  0  0
   -2.0284    3.7240    0.6708 H   0  0  0  0  0  0  0  0  0  0  0  0
   -3.1380    3.8230    2.0508 H   0  0  0  0  0  0  0  0  0  0  0  0
   -0.7390    1.2565   -0.0101 N   0  0  0  0  0  0  0  0  0  0  0  0
    0.4383    0.7557   -0.6738 C   0  0  2  0  0  0  0  0  0  0  0  0
    1.4197    0.3270    0.4113 C   0  0  0  0  0  0  0  0  0  0  0  0
    2.6081    0.6409    0.4006 O   0  0  0  0  0  0  0  0  0  0  0  0
    1.0794    1.8069   -1.5870 C   0  0  0  0  0  0  0  0  0  0  0  0
    0.1831    2.2094   -2.7326 C   0  0  0  0  0  0  0  0  0  0  0  0
   -0.0182    1.3919   -3.8185 N   0  3  0  0  0  0  0  0  0  0  0  0
   -0.5531    3.3398   -2.9495 C   0  0  0  0  0  0  0  0  0  0  0  0
   -0.8478    1.9903   -4.6793 C   0  0  0  0  0  0  0  0  0  0  0  0
   -1.1801    3.1772   -4.1613 N   0  0  0  0  0  0  0  0  0  0  0  0
   -1.5221    1.5532   -0.5874 H   0  0  0  0  0  0  0  0  0  0  0  0
    0.1244   -0.1272   -1.2429 H   0  0  0  0  0  0  0  0  0  0  0  0
    2.0366    1.4372   -1.9792 H   0  0  0  0  0  0  0  0  0  0  0  0
    1.3321    2.7093   -1.0148 H   0  0  0  0  0  0  0  0  0  0  0  0
    0.3978    0.4742   -3.9520 H   0  0  0  0  0  0  0  0  0  0  0  0
   -0.7311    4.2545   -2.4199 H   0  0  0  0  0  0  0  0  0  0  0  0
   -1.1863    1.5891   -5.6200 H   0  0  0  0  0  0  0  0  0  0  0  0
   -1.8003    3.8529   -4.5988 H   0  0  0  0  0  0  0  0  0  0  0  0
    0.7984   -0.4037    1.4146 N   0  0  0  0  0  0  0  0  0  0  0  0
    1.4956   -0.9120    2.5740 C   0  0  2  0  0  0  0  0  0  0  0  0
    2.7389   -1.6469    2.0903 C   0  0  0  0  0  0  0  0  0  0  0  0
    2.8496   -2.1018    0.9537 O   0  0  0  0  0  0  0  0  0  0  0  0
    0.6058   -1.8317    3.3956 C   0  0  0  0  0  0  0  0  0  0  0  0
   -0.1964   -0.5905    1.3297 H   0  0  0  0  0  0  0  0  0  0  0  0
    1.7933   -0.0427    3.1703 H   0  0  0  0  0  0  0  0  0  0  0  0
    0.2974   -2.7085    2.8146 H   0  0  0  0  0  0  0  0  0  0  0  0
    1.1261   -2.1933    4.2887 H   0  0  0  0  0  0  0  0  0  0  0  0
   -0.3021   -1.3102    3.7175 H   0  0  0  0  0  0  0  0  0  0  0  0
    3.6929   -1.7727    3.0904 N   0  0  0  0  0  0  0  0  0  0  0  0
    4.9557   -2.4422    2.8835 C   0  0  0  0  0  0  0  0  0  0  0  0
    3.5246   -1.3482    3.9978 H   0  0  0  0  0  0  0  0  0  0  0  0
    4.8615   -3.5003    3.1691 H   0  0  0  0  0  0  0  0  0  0  0  0
    5.2379   -2.3727    1.8226 H   0  0  0  0  0  0  0  0  0  0  0  0
    5.7300   -1.9634    3.5009 H   0  0  0  0  0  0  0  0  0  0  0  0
 22 24  2  0  0  0  0
 24 26  1  0  0  0  0
 25 26  1  0  0  0  0
 23 25  2  0  0  0  0
 21 22  1  0  0  0  0
 22 23  1  0  0  0  0
  1  3  1  0  0  0  0
  1  7  1  0  0  0  0
  1  2  2  0  0  0  0
 36 37  1  0  0  0  0
 37 45  1  0  0  0  0
 37 38  2  0  0  0  0
  8  9  1  0  0  0  0
  9 17  1  0  0  0  0
  9 10  2  0  0  0  0
 18 19  1  0  0  0  0
 19 35  1  0  0  0  0
 19 20  2  0  0  0  0
 36 39  1  0  0  0  0
  8 11  1  0  0  0  0
 45 46  1  0  0  0  0
 18 21  1  0  0  0  0
 35 36  1  0  0  0  0
  7  8  1  0  0  0  0
 17 18  1  0  0  0  0
 24 32  1  0  0  0  0
 25 33  1  0  0  0  0
  3  4  1  0  0  0  0
  3  5  1  0  0  0  0
  3  6  1  0  0  0  0
 39 42  1  0  0  0  0
 39 43  1  0  0  0  0
 39 44  1  0  0  0  0
 11 14  1  0  0  0  0
 11 15  1  0  0  0  0
 11 16  1  0  0  0  0
 46 48  1  0  0  0  0
 46 49  1  0  0  0  0
 46 50  1  0  0  0  0
 21 29  1  0  0  0  0
 21 30  1  0  0  0  0
 36 41  1  0  0  0  0
  8 13  1  0  0  0  0
 18 28  1  0  0  0  0
 26 34  1  0  0  0  0
 23 31  1  0  0  0  0
 45 47  1  0  0  0  0
  7 12  1  0  0  0  0
 35 40  1  0  0  0  0
 17 27  1  0  0  0  0
M  CHG  1  23   1
M  END
$$$$

  -OEChem-05262214473D

 50 50  0     1  0  0  0  0  0999 V2000
   -1.6938    0.4865    3.8080 C   0  0  0  0  0  0  0  0  0  0  0  0
   -0.7464   -0.1282    3.3323 O   0  0  0  0  0  0  0  0  0  0  0  0
   -2.1257    0.2041    5.2087 C   0  0  0  0  0  0  0  0  0  0  0  0
   -2.8853   -0.5922    5.2621 H   0  0  0  0  0  0  0  0  0  0  0  0
   -1.2944   -0.1435    5.8430 H   0  0  0  0  0  0  0  0  0  0  0  0
   -2.5637    1.0590    5.7483 H   0  0  0  0  0  0  0  0  0  0  0  0
   -2.4435    1.4589    3.1669 N   0  0  0  0  0  0  0  0  0  0  0  0
   -2.1966    1.8850    1.8145 C   0  0  2  0  0  0  0  0  0  0  0  0
   -0.8617    1.2996    1.3733 C   0  0  0  0  0  0  0  0  0  0  0  0
    0.0104    0.9468    2.1646 O   0  0  0  0  0  0  0  0  0  0  0  0
   -2.1879    3.4017    1.7050 C   0  0  0  0  0  0  0  0  0  0  0  0
   -3.2085    1.8948    3.6787 H   0  0  0  0  0  0  0  0  0  0  0  0
   -3.0007    1.4665    1.1994 H   0  0  0  0  0  0  0  0  0  0  0  0
   -1.3888    3.8390    2.3147 H   0  0  0  0  0  0  0  0  0  0  0  0
   -2.0284    3.7240    0.6708 H   0  0  0  0  0  0  0  0  0  0  0  0
   -3.1380    3.8230    2.0508 H   0  0  0  0  0  0  0  0  0  0  0  0
   -0.7390    1.2565   -0.0101 N   0  0  0  0  0  0  0  0  0  0  0  0
    0.4383    0.7557   -0.6738 C   0  0  2  0  0  0  0  0  0  0  0  0
    1.4197    0.3270    0.4113 C   0  0  0  0  0  0  0  0  0  0  0  0
    2.5252    0.8444    0.5560 O   0  0  0  0  0  0  0  0  0  0  0  0
    1.0794    1.8069   -1.5870 C   0  0  0  0  0  0  0  0  0  0  0  0
    0.1831    2.2094   -2.7326 C   0  0  0  0  0  0  0  0  0  0  0  0
   -0.0182    1.3919   -3.8185 N   0  3  0  0  0  0  0  0  0  0  0  0
   -0.5531    3.3398   -2.9495 C   0  0  0  0  0  0  0  0  0  0  0  0
   -0.8478    1.9903   -4.6793 C   0  0  0  0  0  0  0  0  0  0  0  0
   -1.1801    3.1772   -4.1613 N   0  0  0  0  0  0  0  0  0  0  0  0
   -1.5221    1.5532   -0.5874 H   0  0  0  0  0  0  0  0  0  0  0  0
    0.1244   -0.1272   -1.2429 H   0  0  0  0  0  0  0  0  0  0  0  0
    2.0366    1.4372   -1.9792 H   0  0  0  0  0  0  0  0  0  0  0  0
    1.3321    2.7093   -1.0148 H   0  0  0  0  0  0  0  0  0  0  0  0
    0.3978    0.4742   -3.9520 H   0  0  0  0  0  0  0  0  0  0  0  0
   -0.7311    4.2545   -2.4199 H   0  0  0  0  0  0  0  0  0  0  0  0
   -1.1863    1.5891   -5.6200 H   0  0  0  0  0  0  0  0  0  0  0  0
   -1.8003    3.8529   -4.5988 H   0  0  0  0  0  0  0  0  0  0  0  0
    0.8925   -0.6654    1.2260 N   0  0  0  0  0  0  0  0  0  0  0  0
    1.6063   -1.2347    2.3463 C   0  0  2  0  0  0  0  0  0  0  0  0
    2.9923   -1.6413    1.8633 C   0  0  0  0  0  0  0  0  0  0  0  0
    3.2524   -1.8651    0.6829 O   0  0  0  0  0  0  0  0  0  0  0  0
    0.8623   -2.4264    2.9285 C   0  0  0  0  0  0  0  0  0  0  0  0
   -0.0421   -1.0087    1.0248 H   0  0  0  0  0  0  0  0  0  0  0  0
    1.6985   -0.4431    3.0979 H   0  0  0  0  0  0  0  0  0  0  0  0
    0.7602   -3.2299    2.1900 H   0  0  0  0  0  0  0  0  0  0  0  0
    1.3900   -2.8389    3.7948 H   0  0  0  0  0  0  0  0  0  0  0  0
   -0.1451   -2.1387    3.2481 H   0  0  0  0  0  0  0  0  0  0  0  0
    3.8940   -1.7667    2.9108 N   0  0  0  0  0  0  0  0  0  0  0  0
    5.2710   -2.1545    2.7120 C   0  0  0  0  0  0  0  0  0  0  0  0
    3.5964   -1.5429    3.8559 H   0  0  0  0  0  0  0  0  0  0  0  0
    5.3637   -3.2457    2.8155 H   0  0  0  0  0  0  0  0  0  0  0  0
    5.5950   -1.8530    1.7050 H   0  0  0  0  0  0  0  0  0  0  0  0
    5.9033   -1.6600    3.4640 H   0  0  0  0  0  0  0  0  0  0  0  0
 22 24  2  0  0  0  0
 24 26  1  0  0  0  0
 25 26  1  0  0  0  0
 23 25  2  0  0  0  0
 21 22  1  0  0  0  0
 22 23  1  0  0  0  0
  1  3  1  0  0  0  0
  1  7  1  0  0  0  0
  1  2  2  0  0  0  0
 36 37  1  0  0  0  0
 37 45  1  0  0  0  0
 37 38  2  0  0  0  0
  8  9  1  0  0  0  0
  9 17  1  0  0  0  0
  9 10  2  0  0  0  0
 18 19  1  0  0  0  0
 19 35  1  0  0  0  0
 19 20  2  0  0  0  0
 36 39  1  0  0  0  0
  8 11  1  0  0  0  0
 45 46  1  0  0  0  0
 18 21  1  0  0  0  0
 35 36  1  0  0  0  0
  7  8  1  0  0  0  0
 17 18  1  0  0  0  0
 24 32  1  0  0  0  0
 25 33  1  0  0  0  0
  3  4  1  0  0  0  0
  3  5  1  0  0  0  0
  3  6  1  0  0  0  0
 39 42  1  0  0  0  0
 39 43  1  0  0  0  0
 39 44  1  0  0  0  0
 11 14  1  0  0  0  0
 11 15  1  0  0  0  0
 11 16  1  0  0  0  0
 46 48  1  0  0  0  0
 46 49  1  0  0  0  0
 46 50  1  0  0  0  0
 21 29  1  0  0  0  0
 21 30  1  0  0  0  0
 36 41  1  0  0  0  0
  8 13  1  0  0  0  0
 18 28  1  0  0  0  0
 26 34  1  0  0  0  0
 23 31  1  0  0  0  0
 45 47  1  0  0  0  0
  7 12  1  0  0  0  0
 35 40  1  0  0  0  0
 17 27  1  0  0  0  0
M  CHG  1  23   1
M  END
$$$$

  -OEChem-05262214473D

 50 50  0     1  0  0  0  0  0999 V2000
   -1.6938    0.4865    3.8080 C   0  0  0  0  0  0  0  0  0  0  0  0
   -0.7464   -0.1282    3.3323 O   0  0  0  0  0  0  0  0  0  0  0  0
   -2.1257    0.2041    5.2087 C   0  0  0  0  0  0  0  0  0  0  0  0
   -2.8853   -0.5922    5.2621 H   0  0  0  0  0  0  0  0  0  0  0  0
   -1.2944   -0.1435    5.8430 H   0  0  0  0  0  0  0  0  0  0  0  0
   -2.5637    1.0590    5.7483 H   0  0  0  0  0  0  0  0  0  0  0  0
   -2.4435    1.4589    3.1669 N   0  0  0  0  0  0  0  0  0  0  0  0
   -2.1966    1.8850    1.8145 C   0  0  2  0  0  0  0  0  0  0  0  0
   -0.8617    1.2996    1.3733 C   0  0  0  0  0  0  0  0  0  0  0  0
    0.0104    0.9468    2.1646 O   0  0  0  0  0  0  0  0  0  0  0  0
   -2.1879    3.4017    1.7050 C   0  0  0  0  0  0  0  0  0  0  0  0
   -3.2085    1.8948    3.6787 H   0  0  0  0  0  0  0  0  0  0  0  0
   -3.0007    1.4665    1.1994 H   0  0  0  0  0  0  0  0  0  0  0  0
   -1.3888    3.8390    2.3147 H   0  0  0  0  0  0  0  0  0  0  0  0
   -2.0284    3.7240    0.6708 H   0  0  0  0  0  0  0  0  0  0  0  0
   -3.1380    3.8230    2.0508 H   0  0  0  0  0  0  0  0  0  0  0  0
   -0.7390    1.2565   -0.0101 N   0  0  0  0  0  0  0  0  0  0  0  0
    0.4383    0.7557   -0.6738 C   0  0  2  0  0  0  0  0  0  0  0  0
    1.4197    0.3270    0.4113 C   0  0  0  0  0  0  0  0  0  0  0  0
    2.3964    0.9999    0.7339 O   0  0  0  0  0  0  0  0  0  0  0  0
    1.0794    1.8069   -1.5870 C   0  0  0  0  0  0  0  0  0  0  0  0
    0.1831    2.2094   -2.7326 C   0  0  0  0  0  0  0  0  0  0  0  0
   -0.0182    1.3919   -3.8185 N   0  3  0  0  0  0  0  0  0  0  0  0
   -0.5531    3.3398   -2.9495 C   0  0  0  0  0  0  0  0  0  0  0  0
   -0.8478    1.9903   -4.6793 C   0  0  0  0  0  0  0  0  0  0  0  0
   -1.1801    3.1772   -4.1613 N   0  0  0  0  0  0  0  0  0  0  0  0
   -1.5221    1.5532   -0.5874 H   0  0  0  0  0  0  0  0  0  0  0  0
    0.1244   -0.1272   -1.2429 H   0  0  0  0  0  0  0  0  0  0  0  0
    2.0366    1.4372   -1.9792 H   0  0  0  0  0  0  0  0  0  0  0  0
    1.3321    2.7093   -1.0148 H   0  0  0  0  0  0  0  0  0  0  0  0
    0.3978    0.4742   -3.9520 H   0  0  0  0  0  0  0  0  0  0  0  0
   -0.7311    4.2545   -2.4199 H   0  0  0  0  0  0  0  0  0  0  0  0
   -1.1863    1.5891   -5.6200 H   0  0  0  0  0  0  0  0  0  0  0  0
   -1.8003    3.8529   -4.5988 H   0  0  0  0  0  0  0  0  0  0  0  0
    1.0453   -0.8694    1.0072 N   0  0  0  0  0  0  0  0  0  0  0  0
    1.7892   -1.4881    2.0808 C   0  0  2  0  0  0  0  0  0  0  0  0
    3.2526   -1.5514    1.6634 C   0  0  0  0  0  0  0  0  0  0  0  0
    3.6176   -1.5171    0.4901 O   0  0  0  0  0  0  0  0  0  0  0  0
    1.2537   -2.8758    2.3970 C   0  0  0  0  0  0  0  0  0  0  0  0
    0.2063   -1.3334    0.6718 H   0  0  0  0  0  0  0  0  0  0  0  0
    1.6859   -0.8352    2.9543 H   0  0  0  0  0  0  0  0  0  0  0  0
    1.3488   -3.5442    1.5334 H   0  0  0  0  0  0  0  0  0  0  0  0
    1.7998   -3.3317    3.2294 H   0  0  0  0  0  0  0  0  0  0  0  0
    0.1933   -2.8319    2.6681 H   0  0  0  0  0  0  0  0  0  0  0  0
    4.1003   -1.6940    2.7530 N   0  0  0  0  0  0  0  0  0  0  0  0
    5.5350   -1.7900    2.6173 C   0  0  0  0  0  0  0  0  0  0  0  0
    3.7120   -1.6941    3.6916 H   0  0  0  0  0  0  0  0  0  0  0  0
    5.8277   -2.8484    2.5528 H   0  0  0  0  0  0  0  0  0  0  0  0
    5.8527   -1.2656    1.7040 H   0  0  0  0  0  0  0  0  0  0  0  0
    6.0176   -1.3288    3.4916 H   0  0  0  0  0  0  0  0  0  0  0  0
 22 24  2  0  0  0  0
 24 26  1  0  0  0  0
 25 26  1  0  0  0  0
 23 25  2  0  0  0  0
 21 22  1  0  0  0  0
 22 23  1  0  0  0  0
  1  3  1  0  0  0  0
  1  7  1  0  0  0  0
  1  2  2  0  0  0  0
 36 37  1  0  0  0  0
 37 45  1  0  0  0  0
 37 38  2  0  0  0  0
  8  9  1  0  0  0  0
  9 17  1  0  0  0  0
  9 10  2  0  0  0  0
 18 19  1  0  0  0  0
 19 35  1  0  0  0  0
 19 20  2  0  0  0  0
 36 39  1  0  0  0  0
  8 11  1  0  0  0  0
 45 46  1  0  0  0  0
 18 21  1  0  0  0  0
 35 36  1  0  0  0  0
  7  8  1  0  0  0  0
 17 18  1  0  0  0  0
 24 32  1  0  0  0  0
 25 33  1  0  0  0  0
  3  4  1  0  0  0  0
  3  5  1  0  0  0  0
  3  6  1  0  0  0  0
 39 42  1  0  0  0  0
 39 43  1  0  0  0  0
 39 44  1  0  0  0  0
 11 14  1  0  0  0  0
 11 15  1  0  0  0  0
 11 16  1  0  0  0  0
 46 48  1  0  0  0  0
 46 49  1  0  0  0  0
 46 50  1  0  0  0  0
 21 29  1  0  0  0  0
 21 30  1  0  0  0  0
 36 41  1  0  0  0  0
  8 13  1  0  0  0  0
 18 28  1  0  0  0  0
 26 34  1  0  0  0  0
 23 31  1  0  0  0  0
 45 47  1  0  0  0  0
  7 12  1  0  0  0  0
 35 40  1  0  0  0  0
 17 27  1  0  0  0  0
M  CHG  1  23   1
M  END
$$$$

  -OEChem-05262214473D

 50 50  0     1  0  0  0  0  0999 V2000
   -1.6938    0.4865    3.8080 C   0  0  0  0  0  0  0  0  0  0  0  0
   -0.7464   -0.1282    3.3323 O   0  0  0  0  0  0  0  0  0  0  0  0
   -2.1257    0.2041    5.2087 C   0  0  0  0  0  0  0  0  0  0  0  0
   -2.8853   -0.5922    5.2621 H   0  0  0  0  0  0  0  0  0  0  0  0
   -1.2944   -0.1435    5.8430 H   0  0  0  0  0  0  0  0  0  0  0  0
   -2.5637    1.0590    5.7483 H   0  0  0  0  0  0  0  0  0  0  0  0
   -2.4435    1.4589    3.1669 N   0  0  0  0  0  0  0  0  0  0  0  0
   -2.1966    1.8850    1.8145 C   0  0  2  0  0  0  0  0  0  0  0  0
   -0.8617    1.2996    1.3733 C   0  0  0  0  0  0  0  0  0  0  0  0
    0.0104    0.9468    2.1646 O   0  0  0  0  0  0  0  0  0  0  0  0
   -2.1879    3.4017    1.7050 C   0  0  0  0  0  0  0  0  0  0  0  0
   -3.2085    1.8948    3.6787 H   0  0  0  0  0  0  0  0  0  0  0  0
   -3.0007    1.4665    1.1994 H   0  0  0  0  0  0  0  0  0  0  0  0
   -1.3888    3.8390    2.3147 H   0  0  0  0  0  0  0  0  0  0  0  0
   -2.0284    3.7240    0.6708 H   0  0  0  0  0  0  0  0  0  0  0  0
   -3.1380    3.8230    2.0508 H   0  0  0  0  0  0  0  0  0  0  0  0
   -0.7390    1.2565   -0.0101 N   0  0  0  0  0  0  0  0  0  0  0  0
    0.4383    0.7557   -0.6738 C   0  0  2  0  0  0  0  0  0  0  0  0
    1.4197    0.3270    0.4113 C   0  0  0  0  0  0  0  0  0  0  0  0
    2.2303    1.0967    0.9224 O   0  0  0  0  0  0  0  0  0  0  0  0
    1.0794    1.8069   -1.5870 C   0  0  0  0  0  0  0  0  0  0  0  0
    0.1831    2.2094   -2.7326 C   0  0  0  0  0  0  0  0  0  0  0  0
   -0.0182    1.3919   -3.8185 N   0  3  0  0  0  0  0  0  0  0  0  0
   -0.5531    3.3398   -2.9495 C   0  0  0  0  0  0  0  0  0  0  0  0
   -0.8478    1.9903   -4.6793 C   0  0  0  0  0  0  0  0  0  0  0  0
   -1.1801    3.1772   -4.1613 N   0  0  0  0  0  0  0  0  0  0  0  0
   -1.5221    1.5532   -0.5874 H   0  0  0  0  0  0  0  0  0  0  0  0
    0.1244   -0.1272   -1.2429 H   0  0  0  0  0  0  0  0  0  0  0  0
    2.0366    1.4372   -1.9792 H   0  0  0  0  0  0  0  0  0  0  0  0
    1.3321    2.7093   -1.0148 H   0  0  0  0  0  0  0  0  0  0  0  0
    0.3978    0.4742   -3.9520 H   0  0  0  0  0  0  0  0  0  0  0  0
   -0.7311    4.2545   -2.4199 H   0  0  0  0  0  0  0  0  0  0  0  0
   -1.1863    1.5891   -5.6200 H   0  0  0  0  0  0  0  0  0  0  0  0
   -1.8003    3.8529   -4.5988 H   0  0  0  0  0  0  0  0  0  0  0  0
    1.2465   -1.0018    0.7729 N   0  0  0  0  0  0  0  0  0  0  0  0
    2.0319   -1.6549    1.7953 C   0  0  2  0  0  0  0  0  0  0  0  0
    3.5020   -1.3833    1.5043 C   0  0  0  0  0  0  0  0  0  0  0  0
    3.9203   -1.0816    0.3884 O   0  0  0  0  0  0  0  0  0  0  0  0
    1.7532   -3.1493    1.8371 C   0  0  0  0  0  0  0  0  0  0  0  0
    0.5317   -1.5425    0.2949 H   0  0  0  0  0  0  0  0  0  0  0  0
    1.7564   -1.1924    2.7494 H   0  0  0  0  0  0  0  0  0  0  0  0
    2.0230   -3.6300    0.8897 H   0  0  0  0  0  0  0  0  0  0  0  0
    2.3276   -3.6380    2.6310 H   0  0  0  0  0  0  0  0  0  0  0  0
    0.6901   -3.3426    2.0170 H   0  0  0  0  0  0  0  0  0  0  0  0
    4.2976   -1.5595    2.6277 N   0  0  0  0  0  0  0  0  0  0  0  0
    5.7298   -1.3735    2.6057 C   0  0  0  0  0  0  0  0  0  0  0  0
    3.8634   -1.7915    3.5161 H   0  0  0  0  0  0  0  0  0  0  0  0
    6.2218   -2.3354    2.3991 H   0  0  0  0  0  0  0  0  0  0  0  0
    5.9935   -0.6506    1.8196 H   0  0  0  0  0  0  0  0  0  0  0  0
    6.0649   -0.9925    3.5816 H   0  0  0  0  0  0  0  0  0  0  0  0
 22 24  2  0  0  0  0
 24 26  1  0  0  0  0
 25 26  1  0  0  0  0
 23 25  2  0  0  0  0
 21 22  1  0  0  0  0
 22 23  1  0  0  0  0
  1  3  1  0  0  0  0
  1  7  1  0  0  0  0
  1  2  2  0  0  0  0
 36 37  1  0  0  0  0
 37 45  1  0  0  0  0
 37 38  2  0  0  0  0
  8  9  1  0  0  0  0
  9 17  1  0  0  0  0
  9 10  2  0  0  0  0
 18 19  1  0  0  0  0
 19 35  1  0  0  0  0
 19 20  2  0  0  0  0
 36 39  1  0  0  0  0
  8 11  1  0  0  0  0
 45 46  1  0  0  0  0
 18 21  1  0  0  0  0
 35 36  1  0  0  0  0
  7  8  1  0  0  0  0
 17 18  1  0  0  0  0
 24 32  1  0  0  0  0
 25 33  1  0  0  0  0
  3  4  1  0  0  0  0
  3  5  1  0  0  0  0
  3  6  1  0  0  0  0
 39 42  1  0  0  0  0
 39 43  1  0  0  0  0
 39 44  1  0  0  0  0
 11 14  1  0  0  0  0
 11 15  1  0  0  0  0
 11 16  1  0  0  0  0
 46 48  1  0  0  0  0
 46 49  1  0  0  0  0
 46 50  1  0  0  0  0
 21 29  1  0  0  0  0
 21 30  1  0  0  0  0
 36 41  1  0  0  0  0
  8 13  1  0  0  0  0
 18 28  1  0  0  0  0
 26 34  1  0  0  0  0
 23 31  1  0  0  0  0
 45 47  1  0  0  0  0
  7 12  1  0  0  0  0
 35 40  1  0  0  0  0
 17 27  1  0  0  0  0
M  CHG  1  23   1
M  END
$$$$

  -OEChem-05262214473D

 50 50  0     1  0  0  0  0  0999 V2000
   -1.6938    0.4865    3.8080 C   0  0  0  0  0  0  0  0  0  0  0  0
   -0.7464   -0.1282    3.3323 O   0  0  0  0  0  0  0  0  0  0  0  0
   -2.1257    0.2041    5.2087 C   0  0  0  0  0  0  0  0  0  0  0  0
   -2.8853   -0.5922    5.2621 H   0  0  0  0  0  0  0  0  0  0  0  0
   -1.2944   -0.1435    5.8430 H   0  0  0  0  0  0  0  0  0  0  0  0
   -2.5637    1.0590    5.7483 H   0  0  0  0  0  0  0  0  0  0  0  0
   -2.4435    1.4589    3.1669 N   0  0  0  0  0  0  0  0  0  0  0  0
   -2.1966    1.8850    1.8145 C   0  0  2  0  0  0  0  0  0  0  0  0
   -0.8617    1.2996    1.3733 C   0  0  0  0  0  0  0  0  0  0  0  0
    0.0104    0.9468    2.1646 O   0  0  0  0  0  0  0  0  0  0  0  0
   -2.1879    3.4017    1.7050 C   0  0  0  0  0  0  0  0  0  0  0  0
   -3.2085    1.8948    3.6787 H   0  0  0  0  0  0  0  0  0  0  0  0
   -3.0007    1.4665    1.1994 H   0  0  0  0  0  0  0  0  0  0  0  0
   -1.3888    3.8390    2.3147 H   0  0  0  0  0  0  0  0  0  0  0  0
   -2.0284    3.7240    0.6708 H   0  0  0  0  0  0  0  0  0  0  0  0
   -3.1380    3.8230    2.0508 H   0  0  0  0  0  0  0  0  0  0  0  0
   -0.7390    1.2565   -0.0101 N   0  0  0  0  0  0  0  0  0  0  0  0
    0.4383    0.7557   -0.6738 C   0  0  2  0  0  0  0  0  0  0  0  0
    1.4197    0.3270    0.4113 C   0  0  0  0  0  0  0  0  0  0  0  0
    2.0384    1.1282    1.1084 O   0  0  0  0  0  0  0  0  0  0  0  0
    1.0794    1.8069   -1.5870 C   0  0  0  0  0  0  0  0  0  0  0  0
    0.1831    2.2094   -2.7326 C   0  0  0  0  0  0  0  0  0  0  0  0
   -0.0182    1.3919   -3.8185 N   0  3  0  0  0  0  0  0  0  0  0  0
   -0.5531    3.3398   -2.9495 C   0  0  0  0  0  0  0  0  0  0  0  0
   -0.8478    1.9903   -4.6793 C   0  0  0  0  0  0  0  0  0  0  0  0
   -1.1801    3.1772   -4.1613 N   0  0  0  0  0  0  0  0  0  0  0  0
   -1.5221    1.5532   -0.5874 H   0  0  0  0  0  0  0  0  0  0  0  0
    0.1244   -0.1272   -1.2429 H   0  0  0  0  0  0  0  0  0  0  0  0
    2.0366    1.4372   -1.9792 H   0  0  0  0  0  0  0  0  0  0  0  0
    1.3321    2.7093   -1.0148 H   0  0  0  0  0  0  0  0  0  0  0  0
    0.3978    0.4742   -3.9520 H   0  0  0  0  0  0  0  0  0  0  0  0
   -0.7311    4.2545   -2.4199 H   0  0  0  0  0  0  0  0  0  0  0  0
   -1.1863    1.5891   -5.6200 H   0  0  0  0  0  0  0  0  0  0  0  0
   -1.8003    3.8529   -4.5988 H   0  0  0  0  0  0  0  0  0  0  0  0
    1.4822   -1.0537    0.5392 N   0  0  0  0  0  0  0  0  0  0  0  0
    2.3179   -1.7237    1.5095 C   0  0  2  0  0  0  0  0  0  0  0  0
    3.7235   -1.1484    1.3967 C   0  0  0  0  0  0  0  0  0  0  0  0
    4.1398   -0.5883    0.3848 O   0  0  0  0  0  0  0  0  0  0  0  0
    2.3268   -3.2281    1.2872 C   0  0  0  0  0  0  0  0  0  0  0  0
    0.9120   -1.6218   -0.0804 H   0  0  0  0  0  0  0  0  0  0  0  0
    1.9053   -1.4903    2.4971 H   0  0  0  0  0  0  0  0  0  0  0  0
    2.7369   -3.4814    0.3027 H   0  0  0  0  0  0  0  0  0  0  0  0
    2.9374   -3.7369    2.0404 H   0  0  0  0  0  0  0  0  0  0  0  0
    1.3114   -3.6358    1.3391 H   0  0  0  0  0  0  0  0  0  0  0  0
    4.4726   -1.3723    2.5434 N   0  0  0  0  0  0  0  0  0  0  0  0
    5.8420   -0.9334    2.6781 C   0  0  0  0  0  0  0  0  0  0  0  0
    4.0404   -1.8284    3.3414 H   0  0  0  0  0  0  0  0  0  0  0  0
    6.5192   -1.7417    2.3648 H   0  0  0  0  0  0  0  0  0  0  0  0
    6.0078   -0.0499    2.0441 H   0  0  0  0  0  0  0  0  0  0  0  0
    6.0421   -0.6739    3.7281 H   0  0  0  0  0  0  0  0  0  0  0  0
 22 24  2  0  0  0  0
 24 26  1  0  0  0  0
 25 26  1  0  0  0  0
 23 25  2  0  0  0  0
 21 22  1  0  0  0  0
 22 23  1  0  0  0  0
  1  3  1  0  0  0  0
  1  7  1  0  0  0  0
  1  2  2  0  0  0  0
 36 37  1  0  0  0  0
 37 45  1  0  0  0  0
 37 38  2  0  0  0  0
  8  9  1  0  0  0  0
  9 17  1  0  0  0  0
  9 10  2  0  0  0  0
 18 19  1  0  0  0  0
 19 35  1  0  0  0  0
 19 20  2  0  0  0  0
 36 39  1  0  0  0  0
  8 11  1  0  0  0  0
 45 46  1  0  0  0  0
 18 21  1  0  0  0  0
 35 36  1  0  0  0  0
  7  8  1  0  0  0  0
 17 18  1  0  0  0  0
 24 32  1  0  0  0  0
 25 33  1  0  0  0  0
  3  4  1  0  0  0  0
  3  5  1  0  0  0  0
  3  6  1  0  0  0  0
 39 42  1  0  0  0  0
 39 43  1  0  0  0  0
 39 44  1  0  0  0  0
 11 14  1  0  0  0  0
 11 15  1  0  0  0  0
 11 16  1  0  0  0  0
 46 48  1  0  0  0  0
 46 49  1  0  0  0  0
 46 50  1  0  0  0  0
 21 29  1  0  0  0  0
 21 30  1  0  0  0  0
 36 41  1  0  0  0  0
  8 13  1  0  0  0  0
 18 28  1  0  0  0  0
 26 34  1  0  0  0  0
 23 31  1  0  0  0  0
 45 47  1  0  0  0  0
  7 12  1  0  0  0  0
 35 40  1  0  0  0  0
 17 27  1  0  0  0  0
M  CHG  1  23   1
M  END
$$$$

  -OEChem-05262214473D

 50 50  0     1  0  0  0  0  0999 V2000
   -1.6938    0.4865    3.8080 C   0  0  0  0  0  0  0  0  0  0  0  0
   -0.7464   -0.1282    3.3323 O   0  0  0  0  0  0  0  0  0  0  0  0
   -2.1257    0.2041    5.2087 C   0  0  0  0  0  0  0  0  0  0  0  0
   -2.8853   -0.5922    5.2621 H   0  0  0  0  0  0  0  0  0  0  0  0
   -1.2944   -0.1435    5.8430 H   0  0  0  0  0  0  0  0  0  0  0  0
   -2.5637    1.0590    5.7483 H   0  0  0  0  0  0  0  0  0  0  0  0
   -2.4435    1.4589    3.1669 N   0  0  0  0  0  0  0  0  0  0  0  0
   -2.1966    1.8850    1.8145 C   0  0  2  0  0  0  0  0  0  0  0  0
   -0.8617    1.2996    1.3733 C   0  0  0  0  0  0  0  0  0  0  0  0
    0.0104    0.9468    2.1646 O   0  0  0  0  0  0  0  0  0  0  0  0
   -2.1879    3.4017    1.7050 C   0  0  0  0  0  0  0  0  0  0  0  0
   -3.2085    1.8948    3.6787 H   0  0  0  0  0  0  0  0  0  0  0  0
   -3.0007    1.4665    1.1994 H   0  0  0  0  0  0  0  0  0  0  0  0
   -1.3888    3.8390    2.3147 H   0  0  0  0  0  0  0  0  0  0  0  0
   -2.0284    3.7240    0.6708 H   0  0  0  0  0  0  0  0  0  0  0  0
   -3.1380    3.8230    2.0508 H   0  0  0  0  0  0  0  0  0  0  0  0
   -0.7390    1.2565   -0.0101 N   0  0  0  0  0  0  0  0  0  0  0  0
    0.4383    0.7557   -0.6738 C   0  0  2  0  0  0  0  0  0  0  0  0
    1.4197    0.3270    0.4113 C   0  0  0  0  0  0  0  0  0  0  0  0
    1.8336    1.0923    1.2795 O   0  0  0  0  0  0  0  0  0  0  0  0
    1.0794    1.8069   -1.5870 C   0  0  0  0  0  0  0  0  0  0  0  0
    0.1831    2.2094   -2.7326 C   0  0  0  0  0  0  0  0  0  0  0  0
   -0.0182    1.3919   -3.8185 N   0  3  0  0  0  0  0  0  0  0  0  0
   -0.5531    3.3398   -2.9495 C   0  0  0  0  0  0  0  0  0  0  0  0
   -0.8478    1.9903   -4.6793 C   0  0  0  0  0  0  0  0  0  0  0  0
   -1.1801    3.1772   -4.1613 N   0  0  0  0  0  0  0  0  0  0  0  0
   -1.5221    1.5532   -0.5874 H   0  0  0  0  0  0  0  0  0  0  0  0
    0.1244   -0.1272   -1.2429 H   0  0  0  0  0  0  0  0  0  0  0  0
    2.0366    1.4372   -1.9792 H   0  0  0  0  0  0  0  0  0  0  0  0
    1.3321    2.7093   -1.0148 H   0  0  0  0  0  0  0  0  0  0  0  0
    0.3978    0.4742   -3.9520 H   0  0  0  0  0  0  0  0  0  0  0  0
   -0.7311    4.2545   -2.4199 H   0  0  0  0  0  0  0  0  0  0  0  0
   -1.1863    1.5891   -5.6200 H   0  0  0  0  0  0  0  0  0  0  0  0
   -1.8003    3.8529   -4.5988 H   0  0  0  0  0  0  0  0  0  0  0  0
    1.7365   -1.0214    0.3219 N   0  0  0  0  0  0  0  0  0  0  0  0
    2.6275   -1.6899    1.2428 C   0  0  2  0  0  0  0  0  0  0  0  0
    3.9021   -0.8629    1.3480 C   0  0  0  0  0  0  0  0  0  0  0  0
    4.2613   -0.0707    0.4794 O   0  0  0  0  0  0  0  0  0  0  0  0
    2.9354   -3.1070    0.7846 C   0  0  0  0  0  0  0  0  0  0  0  0
    1.3212   -1.5658   -0.4284 H   0  0  0  0  0  0  0  0  0  0  0  0
    2.1223   -1.7085    2.2146 H   0  0  0  0  0  0  0  0  0  0  0  0
    3.4418   -3.1085   -0.1875 H   0  0  0  0  0  0  0  0  0  0  0  0
    3.5876   -3.6217    1.4978 H   0  0  0  0  0  0  0  0  0  0  0  0
    2.0149   -3.6916    0.6808 H   0  0  0  0  0  0  0  0  0  0  0  0
    4.6133   -1.1452    2.5059 N   0  0  0  0  0  0  0  0  0  0  0  0
    5.8641   -0.4996    2.8295 C   0  0  0  0  0  0  0  0  0  0  0  0
    4.2309   -1.8024    3.1794 H   0  0  0  0  0  0  0  0  0  0  0  0
    6.6995   -1.1077    2.4522 H   0  0  0  0  0  0  0  0  0  0  0  0
    5.8946    0.4956    2.3620 H   0  0  0  0  0  0  0  0  0  0  0  0
    5.9508   -0.3948    3.9211 H   0  0  0  0  0  0  0  0  0  0  0  0
 22 24  2  0  0  0  0
 24 26  1  0  0  0  0
 25 26  1  0  0  0  0
 23 25  2  0  0  0  0
 21 22  1  0  0  0  0
 22 23  1  0  0  0  0
  1  3  1  0  0  0  0
  1  7  1  0  0  0  0
  1  2  2  0  0  0  0
 36 37  1  0  0  0  0
 37 45  1  0  0  0  0
 37 38  2  0  0  0  0
  8  9  1  0  0  0  0
  9 17  1  0  0  0  0
  9 10  2  0  0  0  0
 18 19  1  0  0  0  0
 19 35  1  0  0  0  0
 19 20  2  0  0  0  0
 36 39  1  0  0  0  0
  8 11  1  0  0  0  0
 45 46  1  0  0  0  0
 18 21  1  0  0  0  0
 35 36  1  0  0  0  0
  7  8  1  0  0  0  0
 17 18  1  0  0  0  0
 24 32  1  0  0  0  0
 25 33  1  0  0  0  0
  3  4  1  0  0  0  0
  3  5  1  0  0  0  0
  3  6  1  0  0  0  0
 39 42  1  0  0  0  0
 39 43  1  0  0  0  0
 39 44  1  0  0  0  0
 11 14  1  0  0  0  0
 11 15  1  0  0  0  0
 11 16  1  0  0  0  0
 46 48  1  0  0  0  0
 46 49  1  0  0  0  0
 46 50  1  0  0  0  0
 21 29  1  0  0  0  0
 21 30  1  0  0  0  0
 36 41  1  0  0  0  0
  8 13  1  0  0  0  0
 18 28  1  0  0  0  0
 26 34  1  0  0  0  0
 23 31  1  0  0  0  0
 45 47  1  0  0  0  0
  7 12  1  0  0  0  0
 35 40  1  0  0  0  0
 17 27  1  0  0  0  0
M  CHG  1  23   1
M  END
$$$$

  -OEChem-05262214473D

 50 50  0     1  0  0  0  0  0999 V2000
   -1.6938    0.4865    3.8080 C   0  0  0  0  0  0  0  0  0  0  0  0
   -0.7464   -0.1282    3.3323 O   0  0  0  0  0  0  0  0  0  0  0  0
   -2.1257    0.2041    5.2087 C   0  0  0  0  0  0  0  0  0  0  0  0
   -2.8853   -0.5922    5.2621 H   0  0  0  0  0  0  0  0  0  0  0  0
   -1.2944   -0.1435    5.8430 H   0  0  0  0  0  0  0  0  0  0  0  0
   -2.5637    1.0590    5.7483 H   0  0  0  0  0  0  0  0  0  0  0  0
   -2.4435    1.4589    3.1669 N   0  0  0  0  0  0  0  0  0  0  0  0
   -2.1966    1.8850    1.8145 C   0  0  2  0  0  0  0  0  0  0  0  0
   -0.8617    1.2996    1.3733 C   0  0  0  0  0  0  0  0  0  0  0  0
    0.0104    0.9468    2.1646 O   0  0  0  0  0  0  0  0  0  0  0  0
   -2.1879    3.4017    1.7050 C   0  0  0  0  0  0  0  0  0  0  0  0
   -3.2085    1.8948    3.6787 H   0  0  0  0  0  0  0  0  0  0  0  0
   -3.0007    1.4665    1.1994 H   0  0  0  0  0  0  0  0  0  0  0  0
   -1.3888    3.8390    2.3147 H   0  0  0  0  0  0  0  0  0  0  0  0
   -2.0284    3.7240    0.6708 H   0  0  0  0  0  0  0  0  0  0  0  0
   -3.1380    3.8230    2.0508 H   0  0  0  0  0  0  0  0  0  0  0  0
   -0.7390    1.2565   -0.0101 N   0  0  0  0  0  0  0  0  0  0  0  0
    0.4383    0.7557   -0.6738 C   0  0  2  0  0  0  0  0  0  0  0  0
    1.4197    0.3270    0.4113 C   0  0  0  0  0  0  0  0  0  0  0  0
    1.6300    0.9914    1.4237 O   0  0  0  0  0  0  0  0  0  0  0  0
    1.0794    1.8069   -1.5870 C   0  0  0  0  0  0  0  0  0  0  0  0
    0.1831    2.2094   -2.7326 C   0  0  0  0  0  0  0  0  0  0  0  0
   -0.0182    1.3919   -3.8185 N   0  3  0  0  0  0  0  0  0  0  0  0
   -0.5531    3.3398   -2.9495 C   0  0  0  0  0  0  0  0  0  0  0  0
   -0.8478    1.9903   -4.6793 C   0  0  0  0  0  0  0  0  0  0  0  0
   -1.1801    3.1772   -4.1613 N   0  0  0  0  0  0  0  0  0  0  0  0
   -1.5221    1.5532   -0.5874 H   0  0  0  0  0  0  0  0  0  0  0  0
    0.1244   -0.1272   -1.2429 H   0  0  0  0  0  0  0  0  0  0  0  0
    2.0366    1.4372   -1.9792 H   0  0  0  0  0  0  0  0  0  0  0  0
    1.3321    2.7093   -1.0148 H   0  0  0  0  0  0  0  0  0  0  0  0
    0.3978    0.4742   -3.9520 H   0  0  0  0  0  0  0  0  0  0  0  0
   -0.7311    4.2545   -2.4199 H   0  0  0  0  0  0  0  0  0  0  0  0
   -1.1863    1.5891   -5.6200 H   0  0  0  0  0  0  0  0  0  0  0  0
   -1.8003    3.8529   -4.5988 H   0  0  0  0  0  0  0  0  0  0  0  0
    1.9920   -0.9072    0.1360 N   0  0  0  0  0  0  0  0  0  0  0  0
    2.9398   -1.5558    1.0133 C   0  0  2  0  0  0  0  0  0  0  0  0
    4.0255   -0.5461    1.3616 C   0  0  0  0  0  0  0  0  0  0  0  0
    4.2764    0.4359    0.6659 O   0  0  0  0  0  0  0  0  0  0  0  0
    3.5375   -2.7941    0.3636 C   0  0  0  0  0  0  0  0  0  0  0  0
    1.7315   -1.3783   -0.7254 H   0  0  0  0  0  0  0  0  0  0  0  0
    2.3926   -1.8323    1.9211 H   0  0  0  0  0  0  0  0  0  0  0  0
    4.0897   -2.5369   -0.5477 H   0  0  0  0  0  0  0  0  0  0  0  0
    4.2339   -3.3003    1.0403 H   0  0  0  0  0  0  0  0  0  0  0  0
    2.7527   -3.5063    0.0867 H   0  0  0  0  0  0  0  0  0  0  0  0
    4.7100   -0.8937    2.5177 N   0  0  0  0  0  0  0  0  0  0  0  0
    5.7945   -0.1018    3.0496 C   0  0  0  0  0  0  0  0  0  0  0  0
    4.4219   -1.7151    3.0412 H   0  0  0  0  0  0  0  0  0  0  0  0
    6.7506   -0.4766    2.6553 H   0  0  0  0  0  0  0  0  0  0  0  0
    5.6617    0.9487    2.7517 H   0  0  0  0  0  0  0  0  0  0  0  0
    5.7971   -0.1742    4.1473 H   0  0  0  0  0  0  0  0  0  0  0  0
 22 24  2  0  0  0  0
 24 26  1  0  0  0  0
 25 26  1  0  0  0  0
 23 25  2  0  0  0  0
 21 22  1  0  0  0  0
 22 23  1  0  0  0  0
  1  3  1  0  0  0  0
  1  7  1  0  0  0  0
  1  2  2  0  0  0  0
 36 37  1  0  0  0  0
 37 45  1  0  0  0  0
 37 38  2  0  0  0  0
  8  9  1  0  0  0  0
  9 17  1  0  0  0  0
  9 10  2  0  0  0  0
 18 19  1  0  0  0  0
 19 35  1  0  0  0  0
 19 20  2  0  0  0  0
 36 39  1  0  0  0  0
  8 11  1  0  0  0  0
 45 46  1  0  0  0  0
 18 21  1  0  0  0  0
 35 36  1  0  0  0  0
  7  8  1  0  0  0  0
 17 18  1  0  0  0  0
 24 32  1  0  0  0  0
 25 33  1  0  0  0  0
  3  4  1  0  0  0  0
  3  5  1  0  0  0  0
  3  6  1  0  0  0  0
 39 42  1  0  0  0  0
 39 43  1  0  0  0  0
 39 44  1  0  0  0  0
 11 14  1  0  0  0  0
 11 15  1  0  0  0  0
 11 16  1  0  0  0  0
 46 48  1  0  0  0  0
 46 49  1  0  0  0  0
 46 50  1  0  0  0  0
 21 29  1  0  0  0  0
 21 30  1  0  0  0  0
 36 41  1  0  0  0  0
  8 13  1  0  0  0  0
 18 28  1  0  0  0  0
 26 34  1  0  0  0  0
 23 31  1  0  0  0  0
 45 47  1  0  0  0  0
  7 12  1  0  0  0  0
 35 40  1  0  0  0  0
 17 27  1  0  0  0  0
M  CHG  1  23   1
M  END
$$$$

  -OEChem-05262214473D

 50 50  0     1  0  0  0  0  0999 V2000
   -1.6938    0.4865    3.8080 C   0  0  0  0  0  0  0  0  0  0  0  0
   -0.7464   -0.1282    3.3323 O   0  0  0  0  0  0  0  0  0  0  0  0
   -2.1257    0.2041    5.2087 C   0  0  0  0  0  0  0  0  0  0  0  0
   -2.8853   -0.5922    5.2621 H   0  0  0  0  0  0  0  0  0  0  0  0
   -1.2944   -0.1435    5.8430 H   0  0  0  0  0  0  0  0  0  0  0  0
   -2.5637    1.0590    5.7483 H   0  0  0  0  0  0  0  0  0  0  0  0
   -2.4435    1.4589    3.1669 N   0  0  0  0  0  0  0  0  0  0  0  0
   -2.1966    1.8850    1.8145 C   0  0  2  0  0  0  0  0  0  0  0  0
   -0.8617    1.2996    1.3733 C   0  0  0  0  0  0  0  0  0  0  0  0
    0.0104    0.9468    2.1646 O   0  0  0  0  0  0  0  0  0  0  0  0
   -2.1879    3.4017    1.7050 C   0  0  0  0  0  0  0  0  0  0  0  0
   -3.2085    1.8948    3.6787 H   0  0  0  0  0  0  0  0  0  0  0  0
   -3.0007    1.4665    1.1994 H   0  0  0  0  0  0  0  0  0  0  0  0
   -1.3888    3.8390    2.3147 H   0  0  0  0  0  0  0  0  0  0  0  0
   -2.0284    3.7240    0.6708 H   0  0  0  0  0  0  0  0  0  0  0  0
   -3.1380    3.8230    2.0508 H   0  0  0  0  0  0  0  0  0  0  0  0
   -0.7390    1.2565   -0.0101 N   0  0  0  0  0  0  0  0  0  0  0  0
    0.4383    0.7557   -0.6738 C   0  0  2  0  0  0  0  0  0  0  0  0
    1.4197    0.3270    0.4113 C   0  0  0  0  0  0  0  0  0  0  0  0
    1.4414    0.8324    1.5315 O   0  0  0  0  0  0  0  0  0  0  0  0
    1.0794    1.8069   -1.5870 C   0  0  0  0  0  0  0  0  0  0  0  0
    0.1831    2.2094   -2.7326 C   0  0  0  0  0  0  0  0  0  0  0  0
   -0.0182    1.3919   -3.8185 N   0  3  0  0  0  0  0  0  0  0  0  0
   -0.5531    3.3398   -2.9495 C   0  0  0  0  0  0  0  0  0  0  0  0
   -0.8478    1.9903   -4.6793 C   0  0  0  0  0  0  0  0  0  0  0  0
   -1.1801    3.1772   -4.1613 N   0  0  0  0  0  0  0  0  0  0  0  0
   -1.5221    1.5532   -0.5874 H   0  0  0  0  0  0  0  0  0  0  0  0
    0.1244   -0.1272   -1.2429 H   0  0  0  0  0  0  0  0  0  0  0  0
    2.0366    1.4372   -1.9792 H   0  0  0  0  0  0  0  0  0  0  0  0
    1.3321    2.7093   -1.0148 H   0  0  0  0  0  0  0  0  0  0  0  0
    0.3978    0.4742   -3.9520 H   0  0  0  0  0  0  0  0  0  0  0  0
   -0.7311    4.2545   -2.4199 H   0  0  0  0  0  0  0  0  0  0  0  0
   -1.1863    1.5891   -5.6200 H   0  0  0  0  0  0  0  0  0  0  0  0
   -1.8003    3.8529   -4.5988 H   0  0  0  0  0  0  0  0  0  0  0  0
    2.2312   -0.7189   -0.0060 N   0  0  0  0  0  0  0  0  0  0  0  0
    3.2335   -1.3305    0.8367 C   0  0  2  0  0  0  0  0  0  0  0  0
    4.0853   -0.2196    1.4365 C   0  0  0  0  0  0  0  0  0  0  0  0
    4.1841    0.8969    0.9316 O   0  0  0  0  0  0  0  0  0  0  0  0
    4.0921   -2.3109    0.0529 C   0  0  0  0  0  0  0  0  0  0  0  0
    2.1149   -1.0721   -0.9512 H   0  0  0  0  0  0  0  0  0  0  0  0
    2.6980   -1.8532    1.6367 H   0  0  0  0  0  0  0  0  0  0  0  0
    4.6365   -1.8054   -0.7531 H   0  0  0  0  0  0  0  0  0  0  0  0
    4.8323   -2.7945    0.6989 H   0  0  0  0  0  0  0  0  0  0  0  0
    3.4744   -3.0924   -0.4025 H   0  0  0  0  0  0  0  0  0  0  0  0
    4.7563   -0.6349    2.5781 N   0  0  0  0  0  0  0  0  0  0  0  0
    5.6380    0.2329    3.3235 C   0  0  0  0  0  0  0  0  0  0  0  0
    4.6004   -1.5727    2.9360 H   0  0  0  0  0  0  0  0  0  0  0  0
    6.6689    0.1085    2.9604 H   0  0  0  0  0  0  0  0  0  0  0  0
    5.3249    1.2785    3.1867 H   0  0  0  0  0  0  0  0  0  0  0  0
    5.5915   -0.0270    4.3913 H   0  0  0  0  0  0  0  0  0  0  0  0
 22 24  2  0  0  0  0
 24 26  1  0  0  0  0
 25 26  1  0  0  0  0
 23 25  2  0  0  0  0
 21 22  1  0  0  0  0
 22 23  1  0  0  0  0
  1  3  1  0  0  0  0
  1  7  1  0  0  0  0
  1  2  2  0  0  0  0
 36 37  1  0  0  0  0
 37 45  1  0  0  0  0
 37 38  2  0  0  0  0
  8  9  1  0  0  0  0
  9 17  1  0  0  0  0
  9 10  2  0  0  0  0
 18 19  1  0  0  0  0
 19 35  1  0  0  0  0
 19 20  2  0  0  0  0
 36 39  1  0  0  0  0
  8 11  1  0  0  0  0
 45 46  1  0  0  0  0
 18 21  1  0  0  0  0
 35 36  1  0  0  0  0
  7  8  1  0  0  0  0
 17 18  1  0  0  0  0
 24 32  1  0  0  0  0
 25 33  1  0  0  0  0
  3  4  1  0  0  0  0
  3  5  1  0  0  0  0
  3  6  1  0  0  0  0
 39 42  1  0  0  0  0
 39 43  1  0  0  0  0
 39 44  1  0  0  0  0
 11 14  1  0  0  0  0
 11 15  1  0  0  0  0
 11 16  1  0  0  0  0
 46 48  1  0  0  0  0
 46 49  1  0  0  0  0
 46 50  1  0  0  0  0
 21 29  1  0  0  0  0
 21 30  1  0  0  0  0
 36 41  1  0  0  0  0
  8 13  1  0  0  0  0
 18 28  1  0  0  0  0
 26 34  1  0  0  0  0
 23 31  1  0  0  0  0
 45 47  1  0  0  0  0
  7 12  1  0  0  0  0
 35 40  1  0  0  0  0
 17 27  1  0  0  0  0
M  CHG  1  23   1
M  END
$$$$

  -OEChem-05262214473D

 50 50  0     1  0  0  0  0  0999 V2000
   -1.6938    0.4865    3.8080 C   0  0  0  0  0  0  0  0  0  0  0  0
   -0.7464   -0.1282    3.3323 O   0  0  0  0  0  0  0  0  0  0  0  0
   -2.1257    0.2041    5.2087 C   0  0  0  0  0  0  0  0  0  0  0  0
   -2.8853   -0.5922    5.2621 H   0  0  0  0  0  0  0  0  0  0  0  0
   -1.2944   -0.1435    5.8430 H   0  0  0  0  0  0  0  0  0  0  0  0
   -2.5637    1.0590    5.7483 H   0  0  0  0  0  0  0  0  0  0  0  0
   -2.4435    1.4589    3.1669 N   0  0  0  0  0  0  0  0  0  0  0  0
   -2.1966    1.8850    1.8145 C   0  0  2  0  0  0  0  0  0  0  0  0
   -0.8617    1.2996    1.3733 C   0  0  0  0  0  0  0  0  0  0  0  0
    0.0104    0.9468    2.1646 O   0  0  0  0  0  0  0  0  0  0  0  0
   -2.1879    3.4017    1.7050 C   0  0  0  0  0  0  0  0  0  0  0  0
   -3.2085    1.8948    3.6787 H   0  0  0  0  0  0  0  0  0  0  0  0
   -3.0007    1.4665    1.1994 H   0  0  0  0  0  0  0  0  0  0  0  0
   -1.3888    3.8390    2.3147 H   0  0  0  0  0  0  0  0  0  0  0  0
   -2.0284    3.7240    0.6708 H   0  0  0  0  0  0  0  0  0  0  0  0
   -3.1380    3.8230    2.0508 H   0  0  0  0  0  0  0  0  0  0  0  0
   -0.7390    1.2565   -0.0101 N   0  0  0  0  0  0  0  0  0  0  0  0
    0.4383    0.7557   -0.6738 C   0  0  2  0  0  0  0  0  0  0  0  0
    1.4197    0.3270    0.4113 C   0  0  0  0  0  0  0  0  0  0  0  0
    1.2807    0.6262    1.5953 O   0  0  0  0  0  0  0  0  0  0  0  0
    1.0794    1.8069   -1.5870 C   0  0  0  0  0  0  0  0  0  0  0  0
    0.1831    2.2094   -2.7326 C   0  0  0  0  0  0  0  0  0  0  0  0
   -0.0182    1.3919   -3.8185 N   0  3  0  0  0  0  0  0  0  0  0  0
   -0.5531    3.3398   -2.9495 C   0  0  0  0  0  0  0  0  0  0  0  0
   -0.8478    1.9903   -4.6793 C   0  0  0  0  0  0  0  0  0  0  0  0
   -1.1801    3.1772   -4.1613 N   0  0  0  0  0  0  0  0  0  0  0  0
   -1.5221    1.5532   -0.5874 H   0  0  0  0  0  0  0  0  0  0  0  0
    0.1244   -0.1272   -1.2429 H   0  0  0  0  0  0  0  0  0  0  0  0
    2.0366    1.4372   -1.9792 H   0  0  0  0  0  0  0  0  0  0  0  0
    1.3321    2.7093   -1.0148 H   0  0  0  0  0  0  0  0  0  0  0  0
    0.3978    0.4742   -3.9520 H   0  0  0  0  0  0  0  0  0  0  0  0
   -0.7311    4.2545   -2.4199 H   0  0  0  0  0  0  0  0  0  0  0  0
   -1.1863    1.5891   -5.6200 H   0  0  0  0  0  0  0  0  0  0  0  0
   -1.8003    3.8529   -4.5988 H   0  0  0  0  0  0  0  0  0  0  0  0
    2.4380   -0.4692   -0.0943 N   0  0  0  0  0  0  0  0  0  0  0  0
    3.4885   -1.0293    0.7250 C   0  0  2  0  0  0  0  0  0  0  0  0
    4.0776    0.0944    1.5675 C   0  0  0  0  0  0  0  0  0  0  0  0
    3.9907    1.2809    1.2583 O   0  0  0  0  0  0  0  0  0  0  0  0
    4.5615   -1.6902   -0.1263 C   0  0  0  0  0  0  0  0  0  0  0  0
    2.4453   -0.6682   -1.0904 H   0  0  0  0  0  0  0  0  0  0  0  0
    3.0174   -1.7697    1.3807 H   0  0  0  0  0  0  0  0  0  0  0  0
    5.0448   -0.9638   -0.7899 H   0  0  0  0  0  0  0  0  0  0  0  0
    5.3420   -2.1389    0.4969 H   0  0  0  0  0  0  0  0  0  0  0  0
    4.1309   -2.4782   -0.7535 H   0  0  0  0  0  0  0  0  0  0  0  0
    4.7490   -0.3865    2.6829 N   0  0  0  0  0  0  0  0  0  0  0  0
    5.4052    0.4818    3.6324 C   0  0  0  0  0  0  0  0  0  0  0  0
    4.7542   -1.3847    2.8712 H   0  0  0  0  0  0  0  0  0  0  0  0
    6.4599    0.6078    3.3467 H   0  0  0  0  0  0  0  0  0  0  0  0
    4.9071    1.4625    3.6373 H   0  0  0  0  0  0  0  0  0  0  0  0
    5.3481    0.0365    4.6366 H   0  0  0  0  0  0  0  0  0  0  0  0
 22 24  2  0  0  0  0
 24 26  1  0  0  0  0
 25 26  1  0  0  0  0
 23 25  2  0  0  0  0
 21 22  1  0  0  0  0
 22 23  1  0  0  0  0
  1  3  1  0  0  0  0
  1  7  1  0  0  0  0
  1  2  2  0  0  0  0
 36 37  1  0  0  0  0
 37 45  1  0  0  0  0
 37 38  2  0  0  0  0
  8  9  1  0  0  0  0
  9 17  1  0  0  0  0
  9 10  2  0  0  0  0
 18 19  1  0  0  0  0
 19 35  1  0  0  0  0
 19 20  2  0  0  0  0
 36 39  1  0  0  0  0
  8 11  1  0  0  0  0
 45 46  1  0  0  0  0
 18 21  1  0  0  0  0
 35 36  1  0  0  0  0
  7  8  1  0  0  0  0
 17 18  1  0  0  0  0
 24 32  1  0  0  0  0
 25 33  1  0  0  0  0
  3  4  1  0  0  0  0
  3  5  1  0  0  0  0
  3  6  1  0  0  0  0
 39 42  1  0  0  0  0
 39 43  1  0  0  0  0
 39 44  1  0  0  0  0
 11 14  1  0  0  0  0
 11 15  1  0  0  0  0
 11 16  1  0  0  0  0
 46 48  1  0  0  0  0
 46 49  1  0  0  0  0
 46 50  1  0  0  0  0
 21 29  1  0  0  0  0
 21 30  1  0  0  0  0
 36 41  1  0  0  0  0
  8 13  1  0  0  0  0
 18 28  1  0  0  0  0
 26 34  1  0  0  0  0
 23 31  1  0  0  0  0
 45 47  1  0  0  0  0
  7 12  1  0  0  0  0
 35 40  1  0  0  0  0
 17 27  1  0  0  0  0
M  CHG  1  23   1
M  END
$$$$

  -OEChem-05262214473D

 50 50  0     1  0  0  0  0  0999 V2000
   -1.6938    0.4865    3.8080 C   0  0  0  0  0  0  0  0  0  0  0  0
   -0.7464   -0.1282    3.3323 O   0  0  0  0  0  0  0  0  0  0  0  0
   -2.1257    0.2041    5.2087 C   0  0  0  0  0  0  0  0  0  0  0  0
   -2.8853   -0.5922    5.2621 H   0  0  0  0  0  0  0  0  0  0  0  0
   -1.2944   -0.1435    5.8430 H   0  0  0  0  0  0  0  0  0  0  0  0
   -2.5637    1.0590    5.7483 H   0  0  0  0  0  0  0  0  0  0  0  0
   -2.4435    1.4589    3.1669 N   0  0  0  0  0  0  0  0  0  0  0  0
   -2.1966    1.8850    1.8145 C   0  0  2  0  0  0  0  0  0  0  0  0
   -0.8617    1.2996    1.3733 C   0  0  0  0  0  0  0  0  0  0  0  0
    0.0104    0.9468    2.1646 O   0  0  0  0  0  0  0  0  0  0  0  0
   -2.1879    3.4017    1.7050 C   0  0  0  0  0  0  0  0  0  0  0  0
   -3.2085    1.8948    3.6787 H   0  0  0  0  0  0  0  0  0  0  0  0
   -3.0007    1.4665    1.1994 H   0  0  0  0  0  0  0  0  0  0  0  0
   -1.3888    3.8390    2.3147 H   0  0  0  0  0  0  0  0  0  0  0  0
   -2.0284    3.7240    0.6708 H   0  0  0  0  0  0  0  0  0  0  0  0
   -3.1380    3.8230    2.0508 H   0  0  0  0  0  0  0  0  0  0  0  0
   -0.7390    1.2565   -0.0101 N   0  0  0  0  0  0  0  0  0  0  0  0
    0.4383    0.7557   -0.6738 C   0  0  2  0  0  0  0  0  0  0  0  0
    1.2501   -0.0101    0.3648 C   0  0  0  0  0  0  0  0  0  0  0  0
    0.8755   -0.1657    1.5251 O   0  0  0  0  0  0  0  0  0  0  0  0
    1.2811    1.8809   -1.2851 C   0  0  0  0  0  0  0  0  0  0  0  0
    0.5567    2.6228   -2.3818 C   0  0  0  0  0  0  0  0  0  0  0  0
    0.3798    2.0793   -3.6313 N   0  3  0  0  0  0  0  0  0  0  0  0
   -0.0251    3.8588   -2.4044 C   0  0  0  0  0  0  0  0  0  0  0  0
   -0.2865    2.9440   -4.4032 C   0  0  0  0  0  0  0  0  0  0  0  0
   -0.5383    4.0315   -3.6673 N   0  0  0  0  0  0  0  0  0  0  0  0
   -1.5221    1.5532   -0.5874 H   0  0  0  0  0  0  0  0  0  0  0  0
    0.0897    0.0569   -1.4433 H   0  0  0  0  0  0  0  0  0  0  0  0
    2.2272    1.4797   -1.6731 H   0  0  0  0  0  0  0  0  0  0  0  0
    1.5710    2.6059   -0.5130 H   0  0  0  0  0  0  0  0  0  0  0  0
    0.7043    1.1631   -3.9282 H   0  0  0  0  0  0  0  0  0  0  0  0
   -0.1553    4.6600   -1.7045 H   0  0  0  0  0  0  0  0  0  0  0  0
   -0.5684    2.7922   -5.4317 H   0  0  0  0  0  0  0  0  0  0  0  0
   -1.0324    4.8569   -3.9943 H   0  0  0  0  0  0  0  0  0  0  0  0
    2.4151   -0.5391   -0.1732 N   0  0  0  0  0  0  0  0  0  0  0  0
    3.3545   -1.3288    0.5902 C   0  0  2  0  0  0  0  0  0  0  0  0
    3.6719   -0.5719    1.8731 C   0  0  0  0  0  0  0  0  0  0  0  0
    3.5245    0.6430    1.9891 O   0  0  0  0  0  0  0  0  0  0  0  0
    4.6207   -1.6045   -0.2057 C   0  0  0  0  0  0  0  0  0  0  0  0
    2.6177   -0.3622   -1.1527 H   0  0  0  0  0  0  0  0  0  0  0  0
    2.8504   -2.2698    0.8359 H   0  0  0  0  0  0  0  0  0  0  0  0
    5.1396   -0.6734   -0.4611 H   0  0  0  0  0  0  0  0  0  0  0  0
    5.3193   -2.2268    0.3633 H   0  0  0  0  0  0  0  0  0  0  0  0
    4.3874   -2.1226   -1.1421 H   0  0  0  0  0  0  0  0  0  0  0  0
    4.1799   -1.4060    2.8591 N   0  0  0  0  0  0  0  0  0  0  0  0
    4.5694   -0.9239    4.1637 C   0  0  0  0  0  0  0  0  0  0  0  0
    4.2502   -2.4038    2.6821 H   0  0  0  0  0  0  0  0  0  0  0  0
    5.6404   -0.6730    4.1577 H   0  0  0  0  0  0  0  0  0  0  0  0
    3.9841   -0.0265    4.4125 H   0  0  0  0  0  0  0  0  0  0  0  0
    4.3801   -1.7051    4.9147 H   0  0  0  0  0  0  0  0  0  0  0  0
 22 24  2  0  0  0  0
 24 26  1  0  0  0  0
 25 26  1  0  0  0  0
 23 25  2  0  0  0  0
 21 22  1  0  0  0  0
 22 23  1  0  0  0  0
  1  3  1  0  0  0  0
  1  7  1  0  0  0  0
  1  2  2  0  0  0  0
 36 37  1  0  0  0  0
 37 45  1  0  0  0  0
 37 38  2  0  0  0  0
  8  9  1  0  0  0  0
  9 17  1  0  0  0  0
  9 10  2  0  0  0  0
 18 19  1  0  0  0  0
 19 35  1  0  0  0  0
 19 20  2  0  0  0  0
 36 39  1  0  0  0  0
  8 11  1  0  0  0  0
 45 46  1  0  0  0  0
 18 21  1  0  0  0  0
 35 36  1  0  0  0  0
  7  8  1  0  0  0  0
 17 18  1  0  0  0  0
 24 32  1  0  0  0  0
 25 33  1  0  0  0  0
  3  4  1  0  0  0  0
  3  5  1  0  0  0  0
  3  6  1  0  0  0  0
 39 42  1  0  0  0  0
 39 43  1  0  0  0  0
 39 44  1  0  0  0  0
 11 14  1  0  0  0  0
 11 15  1  0  0  0  0
 11 16  1  0  0  0  0
 46 48  1  0  0  0  0
 46 49  1  0  0  0  0
 46 50  1  0  0  0  0
 21 29  1  0  0  0  0
 21 30  1  0  0  0  0
 36 41  1  0  0  0  0
  8 13  1  0  0  0  0
 18 28  1  0  0  0  0
 26 34  1  0  0  0  0
 23 31  1  0  0  0  0
 45 47  1  0  0  0  0
  7 12  1  0  0  0  0
 35 40  1  0  0  0  0
 17 27  1  0  0  0  0
M  CHG  1  23   1
M  END
$$$$

  -OEChem-05262214473D

 50 50  0     1  0  0  0  0  0999 V2000
   -1.6938    0.4865    3.8080 C   0  0  0  0  0  0  0  0  0  0  0  0
   -0.7464   -0.1282    3.3323 O   0  0  0  0  0  0  0  0  0  0  0  0
   -2.1257    0.2041    5.2087 C   0  0  0  0  0  0  0  0  0  0  0  0
   -2.8853   -0.5922    5.2621 H   0  0  0  0  0  0  0  0  0  0  0  0
   -1.2944   -0.1435    5.8430 H   0  0  0  0  0  0  0  0  0  0  0  0
   -2.5637    1.0590    5.7483 H   0  0  0  0  0  0  0  0  0  0  0  0
   -2.4435    1.4589    3.1669 N   0  0  0  0  0  0  0  0  0  0  0  0
   -2.1966    1.8850    1.8145 C   0  0  2  0  0  0  0  0  0  0  0  0
   -0.8617    1.2996    1.3733 C   0  0  0  0  0  0  0  0  0  0  0  0
    0.0104    0.9468    2.1646 O   0  0  0  0  0  0  0  0  0  0  0  0
   -2.1879    3.4017    1.7050 C   0  0  0  0  0  0  0  0  0  0  0  0
   -3.2085    1.8948    3.6787 H   0  0  0  0  0  0  0  0  0  0  0  0
   -3.0007    1.4665    1.1994 H   0  0  0  0  0  0  0  0  0  0  0  0
   -1.3888    3.8390    2.3147 H   0  0  0  0  0  0  0  0  0  0  0  0
   -2.0284    3.7240    0.6708 H   0  0  0  0  0  0  0  0  0  0  0  0
   -3.1380    3.8230    2.0508 H   0  0  0  0  0  0  0  0  0  0  0  0
   -0.7390    1.2565   -0.0101 N   0  0  0  0  0  0  0  0  0  0  0  0
    0.4383    0.7557   -0.6738 C   0  0  2  0  0  0  0  0  0  0  0  0
    1.2501   -0.0101    0.3648 C   0  0  0  0  0  0  0  0  0  0  0  0
    0.7770   -0.3978    1.4310 O   0  0  0  0  0  0  0  0  0  0  0  0
    1.2811    1.8809   -1.2851 C   0  0  0  0  0  0  0  0  0  0  0  0
    0.5567    2.6228   -2.3818 C   0  0  0  0  0  0  0  0  0  0  0  0
    0.3798    2.0793   -3.6313 N   0  3  0  0  0  0  0  0  0  0  0  0
   -0.0251    3.8588   -2.4044 C   0  0  0  0  0  0  0  0  0  0  0  0
   -0.2865    2.9440   -4.4032 C   0  0  0  0  0  0  0  0  0  0  0  0
   -0.5383    4.0315   -3.6673 N   0  0  0  0  0  0  0  0  0  0  0  0
   -1.5221    1.5532   -0.5874 H   0  0  0  0  0  0  0  0  0  0  0  0
    0.0897    0.0569   -1.4433 H   0  0  0  0  0  0  0  0  0  0  0  0
    2.2272    1.4797   -1.6731 H   0  0  0  0  0  0  0  0  0  0  0  0
    1.5710    2.6059   -0.5130 H   0  0  0  0  0  0  0  0  0  0  0  0
    0.7043    1.1631   -3.9282 H   0  0  0  0  0  0  0  0  0  0  0  0
   -0.1553    4.6600   -1.7045 H   0  0  0  0  0  0  0  0  0  0  0  0
   -0.5684    2.7922   -5.4317 H   0  0  0  0  0  0  0  0  0  0  0  0
   -1.0324    4.8569   -3.9943 H   0  0  0  0  0  0  0  0  0  0  0  0
    2.5481   -0.2504   -0.0642 N   0  0  0  0  0  0  0  0  0  0  0  0
    3.5212   -0.9770    0.7193 C   0  0  2  0  0  0  0  0  0  0  0  0
    3.5395   -0.3781    2.1195 C   0  0  0  0  0  0  0  0  0  0  0  0
    3.1567    0.7638    2.3657 O   0  0  0  0  0  0  0  0  0  0  0  0
    4.9012   -0.9150    0.0835 C   0  0  0  0  0  0  0  0  0  0  0  0
    2.8282    0.1023   -0.9747 H   0  0  0  0  0  0  0  0  0  0  0  0
    3.1749   -2.0151    0.7700 H   0  0  0  0  0  0  0  0  0  0  0  0
    5.2648    0.1173    0.0241 H   0  0  0  0  0  0  0  0  0  0  0  0
    5.6312   -1.4897    0.6630 H   0  0  0  0  0  0  0  0  0  0  0  0
    4.8798   -1.3189   -0.9345 H   0  0  0  0  0  0  0  0  0  0  0  0
    4.0738   -1.2534    3.0546 N   0  0  0  0  0  0  0  0  0  0  0  0
    4.2109   -0.9135    4.4516 C   0  0  0  0  0  0  0  0  0  0  0  0
    4.3482   -2.1876    2.7650 H   0  0  0  0  0  0  0  0  0  0  0  0
    5.2099   -0.4890    4.6299 H   0  0  0  0  0  0  0  0  0  0  0  0
    3.4441   -0.1740    4.7258 H   0  0  0  0  0  0  0  0  0  0  0  0
    4.0827   -1.8187    5.0634 H   0  0  0  0  0  0  0  0  0  0  0  0
 22 24  2  0  0  0  0
 24 26  1  0  0  0  0
 25 26  1  0  0  0  0
 23 25  2  0  0  0  0
 21 22  1  0  0  0  0
 22 23  1  0  0  0  0
  1  3  1  0  0  0  0
  1  7  1  0  0  0  0
  1  2  2  0  0  0  0
 36 37  1  0  0  0  0
 37 45  1  0  0  0  0
 37 38  2  0  0  0  0
  8  9  1  0  0  0  0
  9 17  1  0  0  0  0
  9 10  2  0  0  0  0
 18 19  1  0  0  0  0
 19 35  1  0  0  0  0
 19 20  2  0  0  0  0
 36 39  1  0  0  0  0
  8 11  1  0  0  0  0
 45 46  1  0  0  0  0
 18 21  1  0  0  0  0
 35 36  1  0  0  0  0
  7  8  1  0  0  0  0
 17 18  1  0  0  0  0
 24 32  1  0  0  0  0
 25 33  1  0  0  0  0
  3  4  1  0  0  0  0
  3  5  1  0  0  0  0
  3  6  1  0  0  0  0
 39 42  1  0  0  0  0
 39 43  1  0  0  0  0
 39 44  1  0  0  0  0
 11 14  1  0  0  0  0
 11 15  1  0  0  0  0
 11 16  1  0  0  0  0
 46 48  1  0  0  0  0
 46 49  1  0  0  0  0
 46 50  1  0  0  0  0
 21 29  1  0  0  0  0
 21 30  1  0  0  0  0
 36 41  1  0  0  0  0
  8 13  1  0  0  0  0
 18 28  1  0  0  0  0
 26 34  1  0  0  0  0
 23 31  1  0  0  0  0
 45 47  1  0  0  0  0
  7 12  1  0  0  0  0
 35 40  1  0  0  0  0
 17 27  1  0  0  0  0
M  CHG  1  23   1
M  END
$$$$

  -OEChem-05262214473D

 50 50  0     1  0  0  0  0  0999 V2000
   -1.6938    0.4865    3.8080 C   0  0  0  0  0  0  0  0  0  0  0  0
   -0.7464   -0.1282    3.3323 O   0  0  0  0  0  0  0  0  0  0  0  0
   -2.1257    0.2041    5.2087 C   0  0  0  0  0  0  0  0  0  0  0  0
   -2.8853   -0.5922    5.2621 H   0  0  0  0  0  0  0  0  0  0  0  0
   -1.2944   -0.1435    5.8430 H   0  0  0  0  0  0  0  0  0  0  0  0
   -2.5637    1.0590    5.7483 H   0  0  0  0  0  0  0  0  0  0  0  0
   -2.4435    1.4589    3.1669 N   0  0  0  0  0  0  0  0  0  0  0  0
   -2.1966    1.8850    1.8145 C   0  0  2  0  0  0  0  0  0  0  0  0
   -0.8617    1.2996    1.3733 C   0  0  0  0  0  0  0  0  0  0  0  0
    0.0104    0.9468    2.1646 O   0  0  0  0  0  0  0  0  0  0  0  0
   -2.1879    3.4017    1.7050 C   0  0  0  0  0  0  0  0  0  0  0  0
   -3.2085    1.8948    3.6787 H   0  0  0  0  0  0  0  0  0  0  0  0
   -3.0007    1.4665    1.1994 H   0  0  0  0  0  0  0  0  0  0  0  0
   -1.3888    3.8390    2.3147 H   0  0  0  0  0  0  0  0  0  0  0  0
   -2.0284    3.7240    0.6708 H   0  0  0  0  0  0  0  0  0  0  0  0
   -3.1380    3.8230    2.0508 H   0  0  0  0  0  0  0  0  0  0  0  0
   -0.7390    1.2565   -0.0101 N   0  0  0  0  0  0  0  0  0  0  0  0
    0.4383    0.7557   -0.6738 C   0  0  2  0  0  0  0  0  0  0  0  0
    1.2501   -0.0101    0.3648 C   0  0  0  0  0  0  0  0  0  0  0  0
    0.7350   -0.6264    1.2952 O   0  0  0  0  0  0  0  0  0  0  0  0
    1.2811    1.8809   -1.2851 C   0  0  0  0  0  0  0  0  0  0  0  0
    0.5567    2.6228   -2.3818 C   0  0  0  0  0  0  0  0  0  0  0  0
    0.3798    2.0793   -3.6313 N   0  3  0  0  0  0  0  0  0  0  0  0
   -0.0251    3.8588   -2.4044 C   0  0  0  0  0  0  0  0  0  0  0  0
   -0.2865    2.9440   -4.4032 C   0  0  0  0  0  0  0  0  0  0  0  0
   -0.5383    4.0315   -3.6673 N   0  0  0  0  0  0  0  0  0  0  0  0
   -1.5221    1.5532   -0.5874 H   0  0  0  0  0  0  0  0  0  0  0  0
    0.0897    0.0569   -1.4433 H   0  0  0  0  0  0  0  0  0  0  0  0
    2.2272    1.4797   -1.6731 H   0  0  0  0  0  0  0  0  0  0  0  0
    1.5710    2.6059   -0.5130 H   0  0  0  0  0  0  0  0  0  0  0  0
    0.7043    1.1631   -3.9282 H   0  0  0  0  0  0  0  0  0  0  0  0
   -0.1553    4.6600   -1.7045 H   0  0  0  0  0  0  0  0  0  0  0  0
   -0.5684    2.7922   -5.4317 H   0  0  0  0  0  0  0  0  0  0  0  0
   -1.0324    4.8569   -3.9943 H   0  0  0  0  0  0  0  0  0  0  0  0
    2.6114    0.0369    0.0981 N   0  0  0  0  0  0  0  0  0  0  0  0
    3.6033   -0.6256    0.9142 C   0  0  2  0  0  0  0  0  0  0  0  0
    3.3454   -0.2482    2.3670 C   0  0  0  0  0  0  0  0  0  0  0  0
    2.7313    0.7638    2.6982 O   0  0  0  0  0  0  0  0  0  0  0  0
    5.0130   -0.2394    0.4943 C   0  0  0  0  0  0  0  0  0  0  0  0
    2.9264    0.5635   -0.7114 H   0  0  0  0  0  0  0  0  0  0  0  0
    3.4520   -1.7027    0.7837 H   0  0  0  0  0  0  0  0  0  0  0  0
    5.1833    0.8363    0.6180 H   0  0  0  0  0  0  0  0  0  0  0  0
    5.7636   -0.7640    1.0946 H   0  0  0  0  0  0  0  0  0  0  0  0
    5.1868   -0.4844   -0.5591 H   0  0  0  0  0  0  0  0  0  0  0  0
    3.9190   -1.1517    3.2506 N   0  0  0  0  0  0  0  0  0  0  0  0
    3.8253   -1.0063    4.6845 C   0  0  0  0  0  0  0  0  0  0  0  0
    4.3939   -1.9729    2.8875 H   0  0  0  0  0  0  0  0  0  0  0  0
    4.7002   -0.4523    5.0554 H   0  0  0  0  0  0  0  0  0  0  0  0
    2.9079   -0.4549    4.9379 H   0  0  0  0  0  0  0  0  0  0  0  0
    3.7961   -2.0013    5.1527 H   0  0  0  0  0  0  0  0  0  0  0  0
 22 24  2  0  0  0  0
 24 26  1  0  0  0  0
 25 26  1  0  0  0  0
 23 25  2  0  0  0  0
 21 22  1  0  0  0  0
 22 23  1  0  0  0  0
  1  3  1  0  0  0  0
  1  7  1  0  0  0  0
  1  2  2  0  0  0  0
 36 37  1  0  0  0  0
 37 45  1  0  0  0  0
 37 38  2  0  0  0  0
  8  9  1  0  0  0  0
  9 17  1  0  0  0  0
  9 10  2  0  0  0  0
 18 19  1  0  0  0  0
 19 35  1  0  0  0  0
 19 20  2  0  0  0  0
 36 39  1  0  0  0  0
  8 11  1  0  0  0  0
 45 46  1  0  0  0  0
 18 21  1  0  0  0  0
 35 36  1  0  0  0  0
  7  8  1  0  0  0  0
 17 18  1  0  0  0  0
 24 32  1  0  0  0  0
 25 33  1  0  0  0  0
  3  4  1  0  0  0  0
  3  5  1  0  0  0  0
  3  6  1  0  0  0  0
 39 42  1  0  0  0  0
 39 43  1  0  0  0  0
 39 44  1  0  0  0  0
 11 14  1  0  0  0  0
 11 15  1  0  0  0  0
 11 16  1  0  0  0  0
 46 48  1  0  0  0  0
 46 49  1  0  0  0  0
 46 50  1  0  0  0  0
 21 29  1  0  0  0  0
 21 30  1  0  0  0  0
 36 41  1  0  0  0  0
  8 13  1  0  0  0  0
 18 28  1  0  0  0  0
 26 34  1  0  0  0  0
 23 31  1  0  0  0  0
 45 47  1  0  0  0  0
  7 12  1  0  0  0  0
 35 40  1  0  0  0  0
 17 27  1  0  0  0  0
M  CHG  1  23   1
M  END
$$$$

  -OEChem-05262214473D

 50 50  0     1  0  0  0  0  0999 V2000
   -1.6938    0.4865    3.8080 C   0  0  0  0  0  0  0  0  0  0  0  0
   -0.7464   -0.1282    3.3323 O   0  0  0  0  0  0  0  0  0  0  0  0
   -2.1257    0.2041    5.2087 C   0  0  0  0  0  0  0  0  0  0  0  0
   -2.8853   -0.5922    5.2621 H   0  0  0  0  0  0  0  0  0  0  0  0
   -1.2944   -0.1435    5.8430 H   0  0  0  0  0  0  0  0  0  0  0  0
   -2.5637    1.0590    5.7483 H   0  0  0  0  0  0  0  0  0  0  0  0
   -2.4435    1.4589    3.1669 N   0  0  0  0  0  0  0  0  0  0  0  0
   -2.1966    1.8850    1.8145 C   0  0  2  0  0  0  0  0  0  0  0  0
   -0.8617    1.2996    1.3733 C   0  0  0  0  0  0  0  0  0  0  0  0
    0.0104    0.9468    2.1646 O   0  0  0  0  0  0  0  0  0  0  0  0
   -2.1879    3.4017    1.7050 C   0  0  0  0  0  0  0  0  0  0  0  0
   -3.2085    1.8948    3.6787 H   0  0  0  0  0  0  0  0  0  0  0  0
   -3.0007    1.4665    1.1994 H   0  0  0  0  0  0  0  0  0  0  0  0
   -1.3888    3.8390    2.3147 H   0  0  0  0  0  0  0  0  0  0  0  0
   -2.0284    3.7240    0.6708 H   0  0  0  0  0  0  0  0  0  0  0  0
   -3.1380    3.8230    2.0508 H   0  0  0  0  0  0  0  0  0  0  0  0
   -0.7390    1.2565   -0.0101 N   0  0  0  0  0  0  0  0  0  0  0  0
    0.4383    0.7557   -0.6738 C   0  0  2  0  0  0  0  0  0  0  0  0
    1.2501   -0.0101    0.3648 C   0  0  0  0  0  0  0  0  0  0  0  0
    0.7524   -0.8359    1.1272 O   0  0  0  0  0  0  0  0  0  0  0  0
    1.2811    1.8809   -1.2851 C   0  0  0  0  0  0  0  0  0  0  0  0
    0.5567    2.6228   -2.3818 C   0  0  0  0  0  0  0  0  0  0  0  0
    0.3798    2.0793   -3.6313 N   0  3  0  0  0  0  0  0  0  0  0  0
   -0.0251    3.8588   -2.4044 C   0  0  0  0  0  0  0  0  0  0  0  0
   -0.2865    2.9440   -4.4032 C   0  0  0  0  0  0  0  0  0  0  0  0
   -0.5383    4.0315   -3.6673 N   0  0  0  0  0  0  0  0  0  0  0  0
   -1.5221    1.5532   -0.5874 H   0  0  0  0  0  0  0  0  0  0  0  0
    0.0897    0.0569   -1.4433 H   0  0  0  0  0  0  0  0  0  0  0  0
    2.2272    1.4797   -1.6731 H   0  0  0  0  0  0  0  0  0  0  0  0
    1.5710    2.6059   -0.5130 H   0  0  0  0  0  0  0  0  0  0  0  0
    0.7043    1.1631   -3.9282 H   0  0  0  0  0  0  0  0  0  0  0  0
   -0.1553    4.6600   -1.7045 H   0  0  0  0  0  0  0  0  0  0  0  0
   -0.5684    2.7922   -5.4317 H   0  0  0  0  0  0  0  0  0  0  0  0
   -1.0324    4.8569   -3.9943 H   0  0  0  0  0  0  0  0  0  0  0  0
    2.6008    0.3032    0.3027 N   0  0  0  0  0  0  0  0  0  0  0  0
    3.5954   -0.2986    1.1615 C   0  0  2  0  0  0  0  0  0  0  0  0
    3.1029   -0.1911    2.5987 C   0  0  0  0  0  0  0  0  0  0  0  0
    2.2771    0.6430    2.9641 O   0  0  0  0  0  0  0  0  0  0  0  0
    4.9484    0.3762    0.9987 C   0  0  0  0  0  0  0  0  0  0  0  0
    2.9057    0.9900   -0.3807 H   0  0  0  0  0  0  0  0  0  0  0  0
    3.6629   -1.3540    0.8760 H   0  0  0  0  0  0  0  0  0  0  0  0
    4.9005    1.4345    1.2801 H   0  0  0  0  0  0  0  0  0  0  0  0
    5.7073   -0.0993    1.6288 H   0  0  0  0  0  0  0  0  0  0  0  0
    5.2873    0.3240   -0.0416 H   0  0  0  0  0  0  0  0  0  0  0  0
    3.7260   -1.1078    3.4339 N   0  0  0  0  0  0  0  0  0  0  0  0
    3.4389   -1.1961    4.8466 C   0  0  0  0  0  0  0  0  0  0  0  0
    4.3844   -1.7743    3.0414 H   0  0  0  0  0  0  0  0  0  0  0  0
    4.1461   -0.5653    5.4051 H   0  0  0  0  0  0  0  0  0  0  0  0
    2.4118   -0.8499    5.0343 H   0  0  0  0  0  0  0  0  0  0  0  0
    3.5399   -2.2406    5.1765 H   0  0  0  0  0  0  0  0  0  0  0  0
 22 24  2  0  0  0  0
 24 26  1  0  0  0  0
 25 26  1  0  0  0  0
 23 25  2  0  0  0  0
 21 22  1  0  0  0  0
 22 23  1  0  0  0  0
  1  3  1  0  0  0  0
  1  7  1  0  0  0  0
  1  2  2  0  0  0  0
 36 37  1  0  0  0  0
 37 45  1  0  0  0  0
 37 38  2  0  0  0  0
  8  9  1  0  0  0  0
  9 17  1  0  0  0  0
  9 10  2  0  0  0  0
 18 19  1  0  0  0  0
 19 35  1  0  0  0  0
 19 20  2  0  0  0  0
 36 39  1  0  0  0  0
  8 11  1  0  0  0  0
 45 46  1  0  0  0  0
 18 21  1  0  0  0  0
 35 36  1  0  0  0  0
  7  8  1  0  0  0  0
 17 18  1  0  0  0  0
 24 32  1  0  0  0  0
 25 33  1  0  0  0  0
  3  4  1  0  0  0  0
  3  5  1  0  0  0  0
  3  6  1  0  0  0  0
 39 42  1  0  0  0  0
 39 43  1  0  0  0  0
 39 44  1  0  0  0  0
 11 14  1  0  0  0  0
 11 15  1  0  0  0  0
 11 16  1  0  0  0  0
 46 48  1  0  0  0  0
 46 49  1  0  0  0  0
 46 50  1  0  0  0  0
 21 29  1  0  0  0  0
 21 30  1  0  0  0  0
 36 41  1  0  0  0  0
  8 13  1  0  0  0  0
 18 28  1  0  0  0  0
 26 34  1  0  0  0  0
 23 31  1  0  0  0  0
 45 47  1  0  0  0  0
  7 12  1  0  0  0  0
 35 40  1  0  0  0  0
 17 27  1  0  0  0  0
M  CHG  1  23   1
M  END
$$$$

  -OEChem-05262214473D

 50 50  0     1  0  0  0  0  0999 V2000
   -1.6938    0.4865    3.8080 C   0  0  0  0  0  0  0  0  0  0  0  0
   -0.7464   -0.1282    3.3323 O   0  0  0  0  0  0  0  0  0  0  0  0
   -2.1257    0.2041    5.2087 C   0  0  0  0  0  0  0  0  0  0  0  0
   -2.8853   -0.5922    5.2621 H   0  0  0  0  0  0  0  0  0  0  0  0
   -1.2944   -0.1435    5.8430 H   0  0  0  0  0  0  0  0  0  0  0  0
   -2.5637    1.0590    5.7483 H   0  0  0  0  0  0  0  0  0  0  0  0
   -2.4435    1.4589    3.1669 N   0  0  0  0  0  0  0  0  0  0  0  0
   -2.1966    1.8850    1.8145 C   0  0  2  0  0  0  0  0  0  0  0  0
   -0.8617    1.2996    1.3733 C   0  0  0  0  0  0  0  0  0  0  0  0
    0.0104    0.9468    2.1646 O   0  0  0  0  0  0  0  0  0  0  0  0
   -2.1879    3.4017    1.7050 C   0  0  0  0  0  0  0  0  0  0  0  0
   -3.2085    1.8948    3.6787 H   0  0  0  0  0  0  0  0  0  0  0  0
   -3.0007    1.4665    1.1994 H   0  0  0  0  0  0  0  0  0  0  0  0
   -1.3888    3.8390    2.3147 H   0  0  0  0  0  0  0  0  0  0  0  0
   -2.0284    3.7240    0.6708 H   0  0  0  0  0  0  0  0  0  0  0  0
   -3.1380    3.8230    2.0508 H   0  0  0  0  0  0  0  0  0  0  0  0
   -0.7390    1.2565   -0.0101 N   0  0  0  0  0  0  0  0  0  0  0  0
    0.4383    0.7557   -0.6738 C   0  0  2  0  0  0  0  0  0  0  0  0
    1.2501   -0.0101    0.3648 C   0  0  0  0  0  0  0  0  0  0  0  0
    0.8280   -1.0121    0.9382 O   0  0  0  0  0  0  0  0  0  0  0  0
    1.2811    1.8809   -1.2851 C   0  0  0  0  0  0  0  0  0  0  0  0
    0.5567    2.6228   -2.3818 C   0  0  0  0  0  0  0  0  0  0  0  0
    0.3798    2.0793   -3.6313 N   0  3  0  0  0  0  0  0  0  0  0  0
   -0.0251    3.8588   -2.4044 C   0  0  0  0  0  0  0  0  0  0  0  0
   -0.2865    2.9440   -4.4032 C   0  0  0  0  0  0  0  0  0  0  0  0
   -0.5383    4.0315   -3.6673 N   0  0  0  0  0  0  0  0  0  0  0  0
   -1.5221    1.5532   -0.5874 H   0  0  0  0  0  0  0  0  0  0  0  0
    0.0897    0.0569   -1.4433 H   0  0  0  0  0  0  0  0  0  0  0  0
    2.2272    1.4797   -1.6731 H   0  0  0  0  0  0  0  0  0  0  0  0
    1.5710    2.6059   -0.5130 H   0  0  0  0  0  0  0  0  0  0  0  0
    0.7043    1.1631   -3.9282 H   0  0  0  0  0  0  0  0  0  0  0  0
   -0.1553    4.6600   -1.7045 H   0  0  0  0  0  0  0  0  0  0  0  0
   -0.5684    2.7922   -5.4317 H   0  0  0  0  0  0  0  0  0  0  0  0
   -1.0324    4.8569   -3.9943 H   0  0  0  0  0  0  0  0  0  0  0  0
    2.5171    0.5303    0.5357 N   0  0  0  0  0  0  0  0  0  0  0  0
    3.4979   -0.0182    1.4445 C   0  0  2  0  0  0  0  0  0  0  0  0
    2.8284   -0.2106    2.7988 C   0  0  0  0  0  0  0  0  0  0  0  0
    1.8251    0.4095    3.1453 O   0  0  0  0  0  0  0  0  0  0  0  0
    4.7119    0.8900    1.5624 C   0  0  0  0  0  0  0  0  0  0  0  0
    2.7676    1.3528   -0.0052 H   0  0  0  0  0  0  0  0  0  0  0  0
    3.7930   -0.9928    1.0406 H   0  0  0  0  0  0  0  0  0  0  0  0
    4.4358    1.8713    1.9654 H   0  0  0  0  0  0  0  0  0  0  0  0
    5.4663    0.4593    2.2291 H   0  0  0  0  0  0  0  0  0  0  0  0
    5.1746    1.0513    0.5828 H   0  0  0  0  0  0  0  0  0  0  0  0
    3.5080   -1.1246    3.5918 N   0  0  0  0  0  0  0  0  0  0  0  0
    3.0781   -1.4699    4.9268 C   0  0  0  0  0  0  0  0  0  0  0  0
    4.3201   -1.6054    3.2162 H   0  0  0  0  0  0  0  0  0  0  0  0
    3.5854   -0.8204    5.6554 H   0  0  0  0  0  0  0  0  0  0  0  0
    1.9898   -1.3323    5.0085 H   0  0  0  0  0  0  0  0  0  0  0  0
    3.3315   -2.5202    5.1333 H   0  0  0  0  0  0  0  0  0  0  0  0
 22 24  2  0  0  0  0
 24 26  1  0  0  0  0
 25 26  1  0  0  0  0
 23 25  2  0  0  0  0
 21 22  1  0  0  0  0
 22 23  1  0  0  0  0
  1  3  1  0  0  0  0
  1  7  1  0  0  0  0
  1  2  2  0  0  0  0
 36 37  1  0  0  0  0
 37 45  1  0  0  0  0
 37 38  2  0  0  0  0
  8  9  1  0  0  0  0
  9 17  1  0  0  0  0
  9 10  2  0  0  0  0
 18 19  1  0  0  0  0
 19 35  1  0  0  0  0
 19 20  2  0  0  0  0
 36 39  1  0  0  0  0
  8 11  1  0  0  0  0
 45 46  1  0  0  0  0
 18 21  1  0  0  0  0
 35 36  1  0  0  0  0
  7  8  1  0  0  0  0
 17 18  1  0  0  0  0
 24 32  1  0  0  0  0
 25 33  1  0  0  0  0
  3  4  1  0  0  0  0
  3  5  1  0  0  0  0
  3  6  1  0  0  0  0
 39 42  1  0  0  0  0
 39 43  1  0  0  0  0
 39 44  1  0  0  0  0
 11 14  1  0  0  0  0
 11 15  1  0  0  0  0
 11 16  1  0  0  0  0
 46 48  1  0  0  0  0
 46 49  1  0  0  0  0
 46 50  1  0  0  0  0
 21 29  1  0  0  0  0
 21 30  1  0  0  0  0
 36 41  1  0  0  0  0
  8 13  1  0  0  0  0
 18 28  1  0  0  0  0
 26 34  1  0  0  0  0
 23 31  1  0  0  0  0
 45 47  1  0  0  0  0
  7 12  1  0  0  0  0
 35 40  1  0  0  0  0
 17 27  1  0  0  0  0
M  CHG  1  23   1
M  END
$$$$

  -OEChem-05262214473D

 50 50  0     1  0  0  0  0  0999 V2000
   -1.6938    0.4865    3.8080 C   0  0  0  0  0  0  0  0  0  0  0  0
   -0.7464   -0.1282    3.3323 O   0  0  0  0  0  0  0  0  0  0  0  0
   -2.1257    0.2041    5.2087 C   0  0  0  0  0  0  0  0  0  0  0  0
   -2.8853   -0.5922    5.2621 H   0  0  0  0  0  0  0  0  0  0  0  0
   -1.2944   -0.1435    5.8430 H   0  0  0  0  0  0  0  0  0  0  0  0
   -2.5637    1.0590    5.7483 H   0  0  0  0  0  0  0  0  0  0  0  0
   -2.4435    1.4589    3.1669 N   0  0  0  0  0  0  0  0  0  0  0  0
   -2.1966    1.8850    1.8145 C   0  0  2  0  0  0  0  0  0  0  0  0
   -0.8617    1.2996    1.3733 C   0  0  0  0  0  0  0  0  0  0  0  0
    0.0104    0.9468    2.1646 O   0  0  0  0  0  0  0  0  0  0  0  0
   -2.1879    3.4017    1.7050 C   0  0  0  0  0  0  0  0  0  0  0  0
   -3.2085    1.8948    3.6787 H   0  0  0  0  0  0  0  0  0  0  0  0
   -3.0007    1.4665    1.1994 H   0  0  0  0  0  0  0  0  0  0  0  0
   -1.3888    3.8390    2.3147 H   0  0  0  0  0  0  0  0  0  0  0  0
   -2.0284    3.7240    0.6708 H   0  0  0  0  0  0  0  0  0  0  0  0
   -3.1380    3.8230    2.0508 H   0  0  0  0  0  0  0  0  0  0  0  0
   -0.7390    1.2565   -0.0101 N   0  0  0  0  0  0  0  0  0  0  0  0
    0.4383    0.7557   -0.6738 C   0  0  2  0  0  0  0  0  0  0  0  0
    1.2501   -0.0101    0.3648 C   0  0  0  0  0  0  0  0  0  0  0  0
    0.9566   -1.1428    0.7412 O   0  0  0  0  0  0  0  0  0  0  0  0
    1.2811    1.8809   -1.2851 C   0  0  0  0  0  0  0  0  0  0  0  0
    0.5567    2.6228   -2.3818 C   0  0  0  0  0  0  0  0  0  0  0  0
    0.3798    2.0793   -3.6313 N   0  3  0  0  0  0  0  0  0  0  0  0
   -0.0251    3.8588   -2.4044 C   0  0  0  0  0  0  0  0  0  0  0  0
   -0.2865    2.9440   -4.4032 C   0  0  0  0  0  0  0  0  0  0  0  0
   -0.5383    4.0315   -3.6673 N   0  0  0  0  0  0  0  0  0  0  0  0
   -1.5221    1.5532   -0.5874 H   0  0  0  0  0  0  0  0  0  0  0  0
    0.0897    0.0569   -1.4433 H   0  0  0  0  0  0  0  0  0  0  0  0
    2.2272    1.4797   -1.6731 H   0  0  0  0  0  0  0  0  0  0  0  0
    1.5710    2.6059   -0.5130 H   0  0  0  0  0  0  0  0  0  0  0  0
    0.7043    1.1631   -3.9282 H   0  0  0  0  0  0  0  0  0  0  0  0
   -0.1553    4.6600   -1.7045 H   0  0  0  0  0  0  0  0  0  0  0  0
   -0.5684    2.7922   -5.4317 H   0  0  0  0  0  0  0  0  0  0  0  0
   -1.0324    4.8569   -3.9943 H   0  0  0  0  0  0  0  0  0  0  0  0
    2.3658    0.7029    0.7811 N   0  0  0  0  0  0  0  0  0  0  0  0
    3.3175    0.1964    1.7438 C   0  0  2  0  0  0  0  0  0  0  0  0
    2.5406   -0.3055    2.9538 C   0  0  0  0  0  0  0  0  0  0  0  0
    1.4061    0.0793    3.2293 O   0  0  0  0  0  0  0  0  0  0  0  0
    4.3196    1.2669    2.1470 C   0  0  0  0  0  0  0  0  0  0  0  0
    2.5213    1.6271    0.3896 H   0  0  0  0  0  0  0  0  0  0  0  0
    3.8337   -0.6436    1.2664 H   0  0  0  0  0  0  0  0  0  0  0  0
    3.8209    2.1167    2.6271 H   0  0  0  0  0  0  0  0  0  0  0  0
    5.0570    0.8737    2.8545 H   0  0  0  0  0  0  0  0  0  0  0  0
    4.8564    1.6478    1.2715 H   0  0  0  0  0  0  0  0  0  0  0  0
    3.2799   -1.2011    3.7138 N   0  0  0  0  0  0  0  0  0  0  0  0
    2.7675   -1.8090    4.9196 C   0  0  0  0  0  0  0  0  0  0  0  0
    4.2055   -1.4777    3.4000 H   0  0  0  0  0  0  0  0  0  0  0  0
    3.0562   -1.2001    5.7890 H   0  0  0  0  0  0  0  0  0  0  0  0
    1.6706   -1.8691    4.8622 H   0  0  0  0  0  0  0  0  0  0  0  0
    3.1851   -2.8210    5.0258 H   0  0  0  0  0  0  0  0  0  0  0  0
 22 24  2  0  0  0  0
 24 26  1  0  0  0  0
 25 26  1  0  0  0  0
 23 25  2  0  0  0  0
 21 22  1  0  0  0  0
 22 23  1  0  0  0  0
  1  3  1  0  0  0  0
  1  7  1  0  0  0  0
  1  2  2  0  0  0  0
 36 37  1  0  0  0  0
 37 45  1  0  0  0  0
 37 38  2  0  0  0  0
  8  9  1  0  0  0  0
  9 17  1  0  0  0  0
  9 10  2  0  0  0  0
 18 19  1  0  0  0  0
 19 35  1  0  0  0  0
 19 20  2  0  0  0  0
 36 39  1  0  0  0  0
  8 11  1  0  0  0  0
 45 46  1  0  0  0  0
 18 21  1  0  0  0  0
 35 36  1  0  0  0  0
  7  8  1  0  0  0  0
 17 18  1  0  0  0  0
 24 32  1  0  0  0  0
 25 33  1  0  0  0  0
  3  4  1  0  0  0  0
  3  5  1  0  0  0  0
  3  6  1  0  0  0  0
 39 42  1  0  0  0  0
 39 43  1  0  0  0  0
 39 44  1  0  0  0  0
 11 14  1  0  0  0  0
 11 15  1  0  0  0  0
 11 16  1  0  0  0  0
 46 48  1  0  0  0  0
 46 49  1  0  0  0  0
 46 50  1  0  0  0  0
 21 29  1  0  0  0  0
 21 30  1  0  0  0  0
 36 41  1  0  0  0  0
  8 13  1  0  0  0  0
 18 28  1  0  0  0  0
 26 34  1  0  0  0  0
 23 31  1  0  0  0  0
 45 47  1  0  0  0  0
  7 12  1  0  0  0  0
 35 40  1  0  0  0  0
 17 27  1  0  0  0  0
M  CHG  1  23   1
M  END
$$$$

  -OEChem-05262214473D

 50 50  0     1  0  0  0  0  0999 V2000
   -1.6938    0.4865    3.8080 C   0  0  0  0  0  0  0  0  0  0  0  0
   -0.7464   -0.1282    3.3323 O   0  0  0  0  0  0  0  0  0  0  0  0
   -2.1257    0.2041    5.2087 C   0  0  0  0  0  0  0  0  0  0  0  0
   -2.8853   -0.5922    5.2621 H   0  0  0  0  0  0  0  0  0  0  0  0
   -1.2944   -0.1435    5.8430 H   0  0  0  0  0  0  0  0  0  0  0  0
   -2.5637    1.0590    5.7483 H   0  0  0  0  0  0  0  0  0  0  0  0
   -2.4435    1.4589    3.1669 N   0  0  0  0  0  0  0  0  0  0  0  0
   -2.1966    1.8850    1.8145 C   0  0  2  0  0  0  0  0  0  0  0  0
   -0.8617    1.2996    1.3733 C   0  0  0  0  0  0  0  0  0  0  0  0
    0.0104    0.9468    2.1646 O   0  0  0  0  0  0  0  0  0  0  0  0
   -2.1879    3.4017    1.7050 C   0  0  0  0  0  0  0  0  0  0  0  0
   -3.2085    1.8948    3.6787 H   0  0  0  0  0  0  0  0  0  0  0  0
   -3.0007    1.4665    1.1994 H   0  0  0  0  0  0  0  0  0  0  0  0
   -1.3888    3.8390    2.3147 H   0  0  0  0  0  0  0  0  0  0  0  0
   -2.0284    3.7240    0.6708 H   0  0  0  0  0  0  0  0  0  0  0  0
   -3.1380    3.8230    2.0508 H   0  0  0  0  0  0  0  0  0  0  0  0
   -0.7390    1.2565   -0.0101 N   0  0  0  0  0  0  0  0  0  0  0  0
    0.4383    0.7557   -0.6738 C   0  0  2  0  0  0  0  0  0  0  0  0
    1.2501   -0.0101    0.3648 C   0  0  0  0  0  0  0  0  0  0  0  0
    1.1295   -1.2193    0.5496 O   0  0  0  0  0  0  0  0  0  0  0  0
    1.2811    1.8809   -1.2851 C   0  0  0  0  0  0  0  0  0  0  0  0
    0.5567    2.6228   -2.3818 C   0  0  0  0  0  0  0  0  0  0  0  0
    0.3798    2.0793   -3.6313 N   0  3  0  0  0  0  0  0  0  0  0  0
   -0.0251    3.8588   -2.4044 C   0  0  0  0  0  0  0  0  0  0  0  0
   -0.2865    2.9440   -4.4032 C   0  0  0  0  0  0  0  0  0  0  0  0
   -0.5383    4.0315   -3.6673 N   0  0  0  0  0  0  0  0  0  0  0  0
   -1.5221    1.5532   -0.5874 H   0  0  0  0  0  0  0  0  0  0  0  0
    0.0897    0.0569   -1.4433 H   0  0  0  0  0  0  0  0  0  0  0  0
    2.2272    1.4797   -1.6731 H   0  0  0  0  0  0  0  0  0  0  0  0
    1.5710    2.6059   -0.5130 H   0  0  0  0  0  0  0  0  0  0  0  0
    0.7043    1.1631   -3.9282 H   0  0  0  0  0  0  0  0  0  0  0  0
   -0.1553    4.6600   -1.7045 H   0  0  0  0  0  0  0  0  0  0  0  0
   -0.5684    2.7922   -5.4317 H   0  0  0  0  0  0  0  0  0  0  0  0
   -1.0324    4.8569   -3.9943 H   0  0  0  0  0  0  0  0  0  0  0  0
    2.1574    0.8090    1.0223 N   0  0  0  0  0  0  0  0  0  0  0  0
    3.0665    0.3307    2.0390 C   0  0  2  0  0  0  0  0  0  0  0  0
    2.2593   -0.4692    3.0530 C   0  0  0  0  0  0  0  0  0  0  0  0
    1.0487   -0.3251    3.2105 O   0  0  0  0  0  0  0  0  0  0  0  0
    3.7982    1.4812    2.7126 C   0  0  0  0  0  0  0  0  0  0  0  0
    2.1838    1.7943    0.7766 H   0  0  0  0  0  0  0  0  0  0  0  0
    3.7820   -0.3302    1.5378 H   0  0  0  0  0  0  0  0  0  0  0  0
    3.0976    2.1542    3.2201 H   0  0  0  0  0  0  0  0  0  0  0  0
    4.5073    1.1155    3.4626 H   0  0  0  0  0  0  0  0  0  0  0  0
    4.3542    2.0731    1.9775 H   0  0  0  0  0  0  0  0  0  0  0  0
    3.0571   -1.3320    3.7914 N   0  0  0  0  0  0  0  0  0  0  0  0
    2.5281   -2.1903    4.8255 C   0  0  0  0  0  0  0  0  0  0  0  0
    4.0484   -1.3999    3.5802 H   0  0  0  0  0  0  0  0  0  0  0  0
    2.5946   -1.6786    5.7970 H   0  0  0  0  0  0  0  0  0  0  0  0
    1.4759   -2.4237    4.6054 H   0  0  0  0  0  0  0  0  0  0  0  0
    3.1107   -3.1226    4.8616 H   0  0  0  0  0  0  0  0  0  0  0  0
 22 24  2  0  0  0  0
 24 26  1  0  0  0  0
 25 26  1  0  0  0  0
 23 25  2  0  0  0  0
 21 22  1  0  0  0  0
 22 23  1  0  0  0  0
  1  3  1  0  0  0  0
  1  7  1  0  0  0  0
  1  2  2  0  0  0  0
 36 37  1  0  0  0  0
 37 45  1  0  0  0  0
 37 38  2  0  0  0  0
  8  9  1  0  0  0  0
  9 17  1  0  0  0  0
  9 10  2  0  0  0  0
 18 19  1  0  0  0  0
 19 35  1  0  0  0  0
 19 20  2  0  0  0  0
 36 39  1  0  0  0  0
  8 11  1  0  0  0  0
 45 46  1  0  0  0  0
 18 21  1  0  0  0  0
 35 36  1  0  0  0  0
  7  8  1  0  0  0  0
 17 18  1  0  0  0  0
 24 32  1  0  0  0  0
 25 33  1  0  0  0  0
  3  4  1  0  0  0  0
  3  5  1  0  0  0  0
  3  6  1  0  0  0  0
 39 42  1  0  0  0  0
 39 43  1  0  0  0  0
 39 44  1  0  0  0  0
 11 14  1  0  0  0  0
 11 15  1  0  0  0  0
 11 16  1  0  0  0  0
 46 48  1  0  0  0  0
 46 49  1  0  0  0  0
 46 50  1  0  0  0  0
 21 29  1  0  0  0  0
 21 30  1  0  0  0  0
 36 41  1  0  0  0  0
  8 13  1  0  0  0  0
 18 28  1  0  0  0  0
 26 34  1  0  0  0  0
 23 31  1  0  0  0  0
 45 47  1  0  0  0  0
  7 12  1  0  0  0  0
 35 40  1  0  0  0  0
 17 27  1  0  0  0  0
M  CHG  1  23   1
M  END
$$$$

  -OEChem-05262214473D

 50 50  0     1  0  0  0  0  0999 V2000
   -1.6938    0.4865    3.8080 C   0  0  0  0  0  0  0  0  0  0  0  0
   -0.7464   -0.1282    3.3323 O   0  0  0  0  0  0  0  0  0  0  0  0
   -2.1257    0.2041    5.2087 C   0  0  0  0  0  0  0  0  0  0  0  0
   -2.8853   -0.5922    5.2621 H   0  0  0  0  0  0  0  0  0  0  0  0
   -1.2944   -0.1435    5.8430 H   0  0  0  0  0  0  0  0  0  0  0  0
   -2.5637    1.0590    5.7483 H   0  0  0  0  0  0  0  0  0  0  0  0
   -2.4435    1.4589    3.1669 N   0  0  0  0  0  0  0  0  0  0  0  0
   -2.1966    1.8850    1.8145 C   0  0  2  0  0  0  0  0  0  0  0  0
   -0.8617    1.2996    1.3733 C   0  0  0  0  0  0  0  0  0  0  0  0
    0.0104    0.9468    2.1646 O   0  0  0  0  0  0  0  0  0  0  0  0
   -2.1879    3.4017    1.7050 C   0  0  0  0  0  0  0  0  0  0  0  0
   -3.2085    1.8948    3.6787 H   0  0  0  0  0  0  0  0  0  0  0  0
   -3.0007    1.4665    1.1994 H   0  0  0  0  0  0  0  0  0  0  0  0
   -1.3888    3.8390    2.3147 H   0  0  0  0  0  0  0  0  0  0  0  0
   -2.0284    3.7240    0.6708 H   0  0  0  0  0  0  0  0  0  0  0  0
   -3.1380    3.8230    2.0508 H   0  0  0  0  0  0  0  0  0  0  0  0
   -0.7390    1.2565   -0.0101 N   0  0  0  0  0  0  0  0  0  0  0  0
    0.4383    0.7557   -0.6738 C   0  0  2  0  0  0  0  0  0  0  0  0
    1.2501   -0.0101    0.3648 C   0  0  0  0  0  0  0  0  0  0  0  0
    1.3350   -1.2363    0.3765 O   0  0  0  0  0  0  0  0  0  0  0  0
    1.2811    1.8809   -1.2851 C   0  0  0  0  0  0  0  0  0  0  0  0
    0.5567    2.6228   -2.3818 C   0  0  0  0  0  0  0  0  0  0  0  0
    0.3798    2.0793   -3.6313 N   0  3  0  0  0  0  0  0  0  0  0  0
   -0.0251    3.8588   -2.4044 C   0  0  0  0  0  0  0  0  0  0  0  0
   -0.2865    2.9440   -4.4032 C   0  0  0  0  0  0  0  0  0  0  0  0
   -0.5383    4.0315   -3.6673 N   0  0  0  0  0  0  0  0  0  0  0  0
   -1.5221    1.5532   -0.5874 H   0  0  0  0  0  0  0  0  0  0  0  0
    0.0897    0.0569   -1.4433 H   0  0  0  0  0  0  0  0  0  0  0  0
    2.2272    1.4797   -1.6731 H   0  0  0  0  0  0  0  0  0  0  0  0
    1.5710    2.6059   -0.5130 H   0  0  0  0  0  0  0  0  0  0  0  0
    0.7043    1.1631   -3.9282 H   0  0  0  0  0  0  0  0  0  0  0  0
   -0.1553    4.6600   -1.7045 H   0  0  0  0  0  0  0  0  0  0  0  0
   -0.5684    2.7922   -5.4317 H   0  0  0  0  0  0  0  0  0  0  0  0
   -1.0324    4.8569   -3.9943 H   0  0  0  0  0  0  0  0  0  0  0  0
    1.9060    0.8416    1.2429 N   0  0  0  0  0  0  0  0  0  0  0  0
    2.7620    0.3755    2.3100 C   0  0  2  0  0  0  0  0  0  0  0  0
    2.0035   -0.6906    3.0897 C   0  0  0  0  0  0  0  0  0  0  0  0
    0.7772   -0.7761    3.0901 O   0  0  0  0  0  0  0  0  0  0  0  0
    3.1832    1.5183    3.2206 C   0  0  0  0  0  0  0  0  0  0  0  0
    1.7779    1.8428    1.1297 H   0  0  0  0  0  0  0  0  0  0  0  0
    3.6415   -0.0741    1.8365 H   0  0  0  0  0  0  0  0  0  0  0  0
    2.3152    1.9812    3.7041 H   0  0  0  0  0  0  0  0  0  0  0  0
    3.8546    1.1684    4.0118 H   0  0  0  0  0  0  0  0  0  0  0  0
    3.7024    2.2979    2.6528 H   0  0  0  0  0  0  0  0  0  0  0  0
    2.8550   -1.5083    3.8193 N   0  0  0  0  0  0  0  0  0  0  0  0
    2.3764   -2.5878    4.6509 C   0  0  0  0  0  0  0  0  0  0  0  0
    3.8595   -1.3772    3.7445 H   0  0  0  0  0  0  0  0  0  0  0  0
    2.2321   -2.2233    5.6787 H   0  0  0  0  0  0  0  0  0  0  0  0
    1.4191   -2.9583    4.2556 H   0  0  0  0  0  0  0  0  0  0  0  0
    3.1134   -3.4044    4.6517 H   0  0  0  0  0  0  0  0  0  0  0  0
 22 24  2  0  0  0  0
 24 26  1  0  0  0  0
 25 26  1  0  0  0  0
 23 25  2  0  0  0  0
 21 22  1  0  0  0  0
 22 23  1  0  0  0  0
  1  3  1  0  0  0  0
  1  7  1  0  0  0  0
  1  2  2  0  0  0  0
 36 37  1  0  0  0  0
 37 45  1  0  0  0  0
 37 38  2  0  0  0  0
  8  9  1  0  0  0  0
  9 17  1  0  0  0  0
  9 10  2  0  0  0  0
 18 19  1  0  0  0  0
 19 35  1  0  0  0  0
 19 20  2  0  0  0  0
 36 39  1  0  0  0  0
  8 11  1  0  0  0  0
 45 46  1  0  0  0  0
 18 21  1  0  0  0  0
 35 36  1  0  0  0  0
  7  8  1  0  0  0  0
 17 18  1  0  0  0  0
 24 32  1  0  0  0  0
 25 33  1  0  0  0  0
  3  4  1  0  0  0  0
  3  5  1  0  0  0  0
  3  6  1  0  0  0  0
 39 42  1  0  0  0  0
 39 43  1  0  0  0  0
 39 44  1  0  0  0  0
 11 14  1  0  0  0  0
 11 15  1  0  0  0  0
 11 16  1  0  0  0  0
 46 48  1  0  0  0  0
 46 49  1  0  0  0  0
 46 50  1  0  0  0  0
 21 29  1  0  0  0  0
 21 30  1  0  0  0  0
 36 41  1  0  0  0  0
  8 13  1  0  0  0  0
 18 28  1  0  0  0  0
 26 34  1  0  0  0  0
 23 31  1  0  0  0  0
 45 47  1  0  0  0  0
  7 12  1  0  0  0  0
 35 40  1  0  0  0  0
 17 27  1  0  0  0  0
M  CHG  1  23   1
M  END
$$$$

  -OEChem-05262214473D

 50 50  0     1  0  0  0  0  0999 V2000
   -1.6938    0.4865    3.8080 C   0  0  0  0  0  0  0  0  0  0  0  0
   -0.7464   -0.1282    3.3323 O   0  0  0  0  0  0  0  0  0  0  0  0
   -2.1257    0.2041    5.2087 C   0  0  0  0  0  0  0  0  0  0  0  0
   -2.8853   -0.5922    5.2621 H   0  0  0  0  0  0  0  0  0  0  0  0
   -1.2944   -0.1435    5.8430 H   0  0  0  0  0  0  0  0  0  0  0  0
   -2.5637    1.0590    5.7483 H   0  0  0  0  0  0  0  0  0  0  0  0
   -2.4435    1.4589    3.1669 N   0  0  0  0  0  0  0  0  0  0  0  0
   -2.1966    1.8850    1.8145 C   0  0  2  0  0  0  0  0  0  0  0  0
   -0.8617    1.2996    1.3733 C   0  0  0  0  0  0  0  0  0  0  0  0
    0.0104    0.9468    2.1646 O   0  0  0  0  0  0  0  0  0  0  0  0
   -2.1879    3.4017    1.7050 C   0  0  0  0  0  0  0  0  0  0  0  0
   -3.2085    1.8948    3.6787 H   0  0  0  0  0  0  0  0  0  0  0  0
   -3.0007    1.4665    1.1994 H   0  0  0  0  0  0  0  0  0  0  0  0
   -1.3888    3.8390    2.3147 H   0  0  0  0  0  0  0  0  0  0  0  0
   -2.0284    3.7240    0.6708 H   0  0  0  0  0  0  0  0  0  0  0  0
   -3.1380    3.8230    2.0508 H   0  0  0  0  0  0  0  0  0  0  0  0
   -0.7390    1.2565   -0.0101 N   0  0  0  0  0  0  0  0  0  0  0  0
    0.4383    0.7557   -0.6738 C   0  0  2  0  0  0  0  0  0  0  0  0
    1.2501   -0.0101    0.3648 C   0  0  0  0  0  0  0  0  0  0  0  0
    1.5589   -1.1926    0.2337 O   0  0  0  0  0  0  0  0  0  0  0  0
    1.2811    1.8809   -1.2851 C   0  0  0  0  0  0  0  0  0  0  0  0
    0.5567    2.6228   -2.3818 C   0  0  0  0  0  0  0  0  0  0  0  0
    0.3798    2.0793   -3.6313 N   0  3  0  0  0  0  0  0  0  0  0  0
   -0.0251    3.8588   -2.4044 C   0  0  0  0  0  0  0  0  0  0  0  0
   -0.2865    2.9440   -4.4032 C   0  0  0  0  0  0  0  0  0  0  0  0
   -0.5383    4.0315   -3.6673 N   0  0  0  0  0  0  0  0  0  0  0  0
   -1.5221    1.5532   -0.5874 H   0  0  0  0  0  0  0  0  0  0  0  0
    0.0897    0.0569   -1.4433 H   0  0  0  0  0  0  0  0  0  0  0  0
    2.2272    1.4797   -1.6731 H   0  0  0  0  0  0  0  0  0  0  0  0
    1.5710    2.6059   -0.5130 H   0  0  0  0  0  0  0  0  0  0  0  0
    0.7043    1.1631   -3.9282 H   0  0  0  0  0  0  0  0  0  0  0  0
   -0.1553    4.6600   -1.7045 H   0  0  0  0  0  0  0  0  0  0  0  0
   -0.5684    2.7922   -5.4317 H   0  0  0  0  0  0  0  0  0  0  0  0
   -1.0324    4.8569   -3.9943 H   0  0  0  0  0  0  0  0  0  0  0  0
    1.6287    0.7983    1.4276 N   0  0  0  0  0  0  0  0  0  0  0  0
    2.4247    0.3276    2.5384 C   0  0  2  0  0  0  0  0  0  0  0  0
    1.7907   -0.9546    3.0613 C   0  0  0  0  0  0  0  0  0  0  0  0
    0.6102   -1.2431    2.8764 O   0  0  0  0  0  0  0  0  0  0  0  0
    2.5166    1.3757    3.6365 C   0  0  0  0  0  0  0  0  0  0  0  0
    1.3314    1.7695    1.4246 H   0  0  0  0  0  0  0  0  0  0  0  0
    3.4219    0.1074    2.1420 H   0  0  0  0  0  0  0  0  0  0  0  0
    1.5271    1.6094    4.0459 H   0  0  0  0  0  0  0  0  0  0  0  0
    3.1434    1.0287    4.4647 H   0  0  0  0  0  0  0  0  0  0  0  0
    2.9454    2.3071    3.2514 H   0  0  0  0  0  0  0  0  0  0  0  0
    2.6872   -1.7182    3.7957 N   0  0  0  0  0  0  0  0  0  0  0  0
    2.3226   -2.9746    4.4078 C   0  0  0  0  0  0  0  0  0  0  0  0
    3.6516   -1.4113    3.8818 H   0  0  0  0  0  0  0  0  0  0  0  0
    1.9933   -2.7971    5.4422 H   0  0  0  0  0  0  0  0  0  0  0  0
    1.5039   -3.4366    3.8367 H   0  0  0  0  0  0  0  0  0  0  0  0
    3.1930   -3.6472    4.4105 H   0  0  0  0  0  0  0  0  0  0  0  0
 22 24  2  0  0  0  0
 24 26  1  0  0  0  0
 25 26  1  0  0  0  0
 23 25  2  0  0  0  0
 21 22  1  0  0  0  0
 22 23  1  0  0  0  0
  1  3  1  0  0  0  0
  1  7  1  0  0  0  0
  1  2  2  0  0  0  0
 36 37  1  0  0  0  0
 37 45  1  0  0  0  0
 37 38  2  0  0  0  0
  8  9  1  0  0  0  0
  9 17  1  0  0  0  0
  9 10  2  0  0  0  0
 18 19  1  0  0  0  0
 19 35  1  0  0  0  0
 19 20  2  0  0  0  0
 36 39  1  0  0  0  0
  8 11  1  0  0  0  0
 45 46  1  0  0  0  0
 18 21  1  0  0  0  0
 35 36  1  0  0  0  0
  7  8  1  0  0  0  0
 17 18  1  0  0  0  0
 24 32  1  0  0  0  0
 25 33  1  0  0  0  0
  3  4  1  0  0  0  0
  3  5  1  0  0  0  0
  3  6  1  0  0  0  0
 39 42  1  0  0  0  0
 39 43  1  0  0  0  0
 39 44  1  0  0  0  0
 11 14  1  0  0  0  0
 11 15  1  0  0  0  0
 11 16  1  0  0  0  0
 46 48  1  0  0  0  0
 46 49  1  0  0  0  0
 46 50  1  0  0  0  0
 21 29  1  0  0  0  0
 21 30  1  0  0  0  0
 36 41  1  0  0  0  0
  8 13  1  0  0  0  0
 18 28  1  0  0  0  0
 26 34  1  0  0  0  0
 23 31  1  0  0  0  0
 45 47  1  0  0  0  0
  7 12  1  0  0  0  0
 35 40  1  0  0  0  0
 17 27  1  0  0  0  0
M  CHG  1  23   1
M  END
$$$$

  -OEChem-05262214473D

 50 50  0     1  0  0  0  0  0999 V2000
   -1.6938    0.4865    3.8080 C   0  0  0  0  0  0  0  0  0  0  0  0
   -0.7464   -0.1282    3.3323 O   0  0  0  0  0  0  0  0  0  0  0  0
   -2.1257    0.2041    5.2087 C   0  0  0  0  0  0  0  0  0  0  0  0
   -2.8853   -0.5922    5.2621 H   0  0  0  0  0  0  0  0  0  0  0  0
   -1.2944   -0.1435    5.8430 H   0  0  0  0  0  0  0  0  0  0  0  0
   -2.5637    1.0590    5.7483 H   0  0  0  0  0  0  0  0  0  0  0  0
   -2.4435    1.4589    3.1669 N   0  0  0  0  0  0  0  0  0  0  0  0
   -2.1966    1.8850    1.8145 C   0  0  2  0  0  0  0  0  0  0  0  0
   -0.8617    1.2996    1.3733 C   0  0  0  0  0  0  0  0  0  0  0  0
    0.0104    0.9468    2.1646 O   0  0  0  0  0  0  0  0  0  0  0  0
   -2.1879    3.4017    1.7050 C   0  0  0  0  0  0  0  0  0  0  0  0
   -3.2085    1.8948    3.6787 H   0  0  0  0  0  0  0  0  0  0  0  0
   -3.0007    1.4665    1.1994 H   0  0  0  0  0  0  0  0  0  0  0  0
   -1.3888    3.8390    2.3147 H   0  0  0  0  0  0  0  0  0  0  0  0
   -2.0284    3.7240    0.6708 H   0  0  0  0  0  0  0  0  0  0  0  0
   -3.1380    3.8230    2.0508 H   0  0  0  0  0  0  0  0  0  0  0  0
   -0.7390    1.2565   -0.0101 N   0  0  0  0  0  0  0  0  0  0  0  0
    0.4383    0.7557   -0.6738 C   0  0  2  0  0  0  0  0  0  0  0  0
    1.2501   -0.0101    0.3648 C   0  0  0  0  0  0  0  0  0  0  0  0
    1.7861   -1.0913    0.1309 O   0  0  0  0  0  0  0  0  0  0  0  0
    1.2811    1.8809   -1.2851 C   0  0  0  0  0  0  0  0  0  0  0  0
    0.5567    2.6228   -2.3818 C   0  0  0  0  0  0  0  0  0  0  0  0
    0.3798    2.0793   -3.6313 N   0  3  0  0  0  0  0  0  0  0  0  0
   -0.0251    3.8588   -2.4044 C   0  0  0  0  0  0  0  0  0  0  0  0
   -0.2865    2.9440   -4.4032 C   0  0  0  0  0  0  0  0  0  0  0  0
   -0.5383    4.0315   -3.6673 N   0  0  0  0  0  0  0  0  0  0  0  0
   -1.5221    1.5532   -0.5874 H   0  0  0  0  0  0  0  0  0  0  0  0
    0.0897    0.0569   -1.4433 H   0  0  0  0  0  0  0  0  0  0  0  0
    2.2272    1.4797   -1.6731 H   0  0  0  0  0  0  0  0  0  0  0  0
    1.5710    2.6059   -0.5130 H   0  0  0  0  0  0  0  0  0  0  0  0
    0.7043    1.1631   -3.9282 H   0  0  0  0  0  0  0  0  0  0  0  0
   -0.1553    4.6600   -1.7045 H   0  0  0  0  0  0  0  0  0  0  0  0
   -0.5684    2.7922   -5.4317 H   0  0  0  0  0  0  0  0  0  0  0  0
   -1.0324    4.8569   -3.9943 H   0  0  0  0  0  0  0  0  0  0  0  0
    1.3445    0.6821    1.5641 N   0  0  0  0  0  0  0  0  0  0  0  0
    2.0777    0.1905    2.7085 C   0  0  2  0  0  0  0  0  0  0  0  0
    1.6354   -1.2432    2.9699 C   0  0  0  0  0  0  0  0  0  0  0  0
    0.5589   -1.6941    2.5838 O   0  0  0  0  0  0  0  0  0  0  0  0
    1.8438    1.0631    3.9319 C   0  0  0  0  0  0  0  0  0  0  0  0
    0.8748    1.5794    1.6414 H   0  0  0  0  0  0  0  0  0  0  0  0
    3.1380    0.2019    2.4336 H   0  0  0  0  0  0  0  0  0  0  0  0
    0.7869    1.0641    4.2225 H   0  0  0  0  0  0  0  0  0  0  0  0
    2.4222    0.7059    4.7904 H   0  0  0  0  0  0  0  0  0  0  0  0
    2.1347    2.1001    3.7324 H   0  0  0  0  0  0  0  0  0  0  0  0
    2.5652   -1.9473    3.7222 N   0  0  0  0  0  0  0  0  0  0  0  0
    2.3705   -3.3241    4.1127 C   0  0  0  0  0  0  0  0  0  0  0  0
    3.4391   -1.4998    3.9828 H   0  0  0  0  0  0  0  0  0  0  0  0
    1.8946   -3.3608    5.1037 H   0  0  0  0  0  0  0  0  0  0  0  0
    1.7246   -3.8259    3.3771 H   0  0  0  0  0  0  0  0  0  0  0  0
    3.3440   -3.8345    4.1544 H   0  0  0  0  0  0  0  0  0  0  0  0
 22 24  2  0  0  0  0
 24 26  1  0  0  0  0
 25 26  1  0  0  0  0
 23 25  2  0  0  0  0
 21 22  1  0  0  0  0
 22 23  1  0  0  0  0
  1  3  1  0  0  0  0
  1  7  1  0  0  0  0
  1  2  2  0  0  0  0
 36 37  1  0  0  0  0
 37 45  1  0  0  0  0
 37 38  2  0  0  0  0
  8  9  1  0  0  0  0
  9 17  1  0  0  0  0
  9 10  2  0  0  0  0
 18 19  1  0  0  0  0
 19 35  1  0  0  0  0
 19 20  2  0  0  0  0
 36 39  1  0  0  0  0
  8 11  1  0  0  0  0
 45 46  1  0  0  0  0
 18 21  1  0  0  0  0
 35 36  1  0  0  0  0
  7  8  1  0  0  0  0
 17 18  1  0  0  0  0
 24 32  1  0  0  0  0
 25 33  1  0  0  0  0
  3  4  1  0  0  0  0
  3  5  1  0  0  0  0
  3  6  1  0  0  0  0
 39 42  1  0  0  0  0
 39 43  1  0  0  0  0
 39 44  1  0  0  0  0
 11 14  1  0  0  0  0
 11 15  1  0  0  0  0
 11 16  1  0  0  0  0
 46 48  1  0  0  0  0
 46 49  1  0  0  0  0
 46 50  1  0  0  0  0
 21 29  1  0  0  0  0
 21 30  1  0  0  0  0
 36 41  1  0  0  0  0
  8 13  1  0  0  0  0
 18 28  1  0  0  0  0
 26 34  1  0  0  0  0
 23 31  1  0  0  0  0
 45 47  1  0  0  0  0
  7 12  1  0  0  0  0
 35 40  1  0  0  0  0
 17 27  1  0  0  0  0
M  CHG  1  23   1
M  END
$$$$

  -OEChem-05262214473D

 50 50  0     1  0  0  0  0  0999 V2000
   -1.6938    0.4865    3.8080 C   0  0  0  0  0  0  0  0  0  0  0  0
   -0.7464   -0.1282    3.3323 O   0  0  0  0  0  0  0  0  0  0  0  0
   -2.1257    0.2041    5.2087 C   0  0  0  0  0  0  0  0  0  0  0  0
   -2.8853   -0.5922    5.2621 H   0  0  0  0  0  0  0  0  0  0  0  0
   -1.2944   -0.1435    5.8430 H   0  0  0  0  0  0  0  0  0  0  0  0
   -2.5637    1.0590    5.7483 H   0  0  0  0  0  0  0  0  0  0  0  0
   -2.4435    1.4589    3.1669 N   0  0  0  0  0  0  0  0  0  0  0  0
   -2.1966    1.8850    1.8145 C   0  0  2  0  0  0  0  0  0  0  0  0
   -0.8617    1.2996    1.3733 C   0  0  0  0  0  0  0  0  0  0  0  0
    0.0104    0.9468    2.1646 O   0  0  0  0  0  0  0  0  0  0  0  0
   -2.1879    3.4017    1.7050 C   0  0  0  0  0  0  0  0  0  0  0  0
   -3.2085    1.8948    3.6787 H   0  0  0  0  0  0  0  0  0  0  0  0
   -3.0007    1.4665    1.1994 H   0  0  0  0  0  0  0  0  0  0  0  0
   -1.3888    3.8390    2.3147 H   0  0  0  0  0  0  0  0  0  0  0  0
   -2.0284    3.7240    0.6708 H   0  0  0  0  0  0  0  0  0  0  0  0
   -3.1380    3.8230    2.0508 H   0  0  0  0  0  0  0  0  0  0  0  0
   -0.7390    1.2565   -0.0101 N   0  0  0  0  0  0  0  0  0  0  0  0
    0.4383    0.7557   -0.6738 C   0  0  2  0  0  0  0  0  0  0  0  0
    1.2501   -0.0101    0.3648 C   0  0  0  0  0  0  0  0  0  0  0  0
    2.0010   -0.9392    0.0750 O   0  0  0  0  0  0  0  0  0  0  0  0
    1.2811    1.8809   -1.2851 C   0  0  0  0  0  0  0  0  0  0  0  0
    0.5567    2.6228   -2.3818 C   0  0  0  0  0  0  0  0  0  0  0  0
    0.3798    2.0793   -3.6313 N   0  3  0  0  0  0  0  0  0  0  0  0
   -0.0251    3.8588   -2.4044 C   0  0  0  0  0  0  0  0  0  0  0  0
   -0.2865    2.9440   -4.4032 C   0  0  0  0  0  0  0  0  0  0  0  0
   -0.5383    4.0315   -3.6673 N   0  0  0  0  0  0  0  0  0  0  0  0
   -1.5221    1.5532   -0.5874 H   0  0  0  0  0  0  0  0  0  0  0  0
    0.0897    0.0569   -1.4433 H   0  0  0  0  0  0  0  0  0  0  0  0
    2.2272    1.4797   -1.6731 H   0  0  0  0  0  0  0  0  0  0  0  0
    1.5710    2.6059   -0.5130 H   0  0  0  0  0  0  0  0  0  0  0  0
    0.7043    1.1631   -3.9282 H   0  0  0  0  0  0  0  0  0  0  0  0
   -0.1553    4.6600   -1.7045 H   0  0  0  0  0  0  0  0  0  0  0  0
   -0.5684    2.7922   -5.4317 H   0  0  0  0  0  0  0  0  0  0  0  0
   -1.0324    4.8569   -3.9943 H   0  0  0  0  0  0  0  0  0  0  0  0
    1.0728    0.5010    1.6430 N   0  0  0  0  0  0  0  0  0  0  0  0
    1.7445   -0.0266    2.8089 C   0  0  2  0  0  0  0  0  0  0  0  0
    1.5481   -1.5368    2.8216 C   0  0  0  0  0  0  0  0  0  0  0  0
    0.6270   -2.0985    2.2325 O   0  0  0  0  0  0  0  0  0  0  0  0
    1.2106    0.6018    4.0867 C   0  0  0  0  0  0  0  0  0  0  0  0
    0.4390    1.2853    1.7652 H   0  0  0  0  0  0  0  0  0  0  0  0
    2.8092    0.2029    2.6913 H   0  0  0  0  0  0  0  0  0  0  0  0
    0.1451    0.3827    4.2216 H   0  0  0  0  0  0  0  0  0  0  0  0
    1.7401    0.2221    4.9668 H   0  0  0  0  0  0  0  0  0  0  0  0
    1.3256    1.6908    4.0631 H   0  0  0  0  0  0  0  0  0  0  0  0
    2.4973   -2.1799    3.6037 N   0  0  0  0  0  0  0  0  0  0  0  0
    2.5167   -3.6126    3.7857 C   0  0  0  0  0  0  0  0  0  0  0  0
    3.2362   -1.6366    4.0404 H   0  0  0  0  0  0  0  0  0  0  0  0
    1.9427   -3.8761    4.6862 H   0  0  0  0  0  0  0  0  0  0  0  0
    2.0662   -4.0996    2.9083 H   0  0  0  0  0  0  0  0  0  0  0  0
    3.5562   -3.9534    3.9008 H   0  0  0  0  0  0  0  0  0  0  0  0
 22 24  2  0  0  0  0
 24 26  1  0  0  0  0
 25 26  1  0  0  0  0
 23 25  2  0  0  0  0
 21 22  1  0  0  0  0
 22 23  1  0  0  0  0
  1  3  1  0  0  0  0
  1  7  1  0  0  0  0
  1  2  2  0  0  0  0
 36 37  1  0  0  0  0
 37 45  1  0  0  0  0
 37 38  2  0  0  0  0
  8  9  1  0  0  0  0
  9 17  1  0  0  0  0
  9 10  2  0  0  0  0
 18 19  1  0  0  0  0
 19 35  1  0  0  0  0
 19 20  2  0  0  0  0
 36 39  1  0  0  0  0
  8 11  1  0  0  0  0
 45 46  1  0  0  0  0
 18 21  1  0  0  0  0
 35 36  1  0  0  0  0
  7  8  1  0  0  0  0
 17 18  1  0  0  0  0
 24 32  1  0  0  0  0
 25 33  1  0  0  0  0
  3  4  1  0  0  0  0
  3  5  1  0  0  0  0
  3  6  1  0  0  0  0
 39 42  1  0  0  0  0
 39 43  1  0  0  0  0
 39 44  1  0  0  0  0
 11 14  1  0  0  0  0
 11 15  1  0  0  0  0
 11 16  1  0  0  0  0
 46 48  1  0  0  0  0
 46 49  1  0  0  0  0
 46 50  1  0  0  0  0
 21 29  1  0  0  0  0
 21 30  1  0  0  0  0
 36 41  1  0  0  0  0
  8 13  1  0  0  0  0
 18 28  1  0  0  0  0
 26 34  1  0  0  0  0
 23 31  1  0  0  0  0
 45 47  1  0  0  0  0
  7 12  1  0  0  0  0
 35 40  1  0  0  0  0
 17 27  1  0  0  0  0
M  CHG  1  23   1
M  END
$$$$

  -OEChem-05262214473D

 50 50  0     1  0  0  0  0  0999 V2000
   -1.6938    0.4865    3.8080 C   0  0  0  0  0  0  0  0  0  0  0  0
   -0.7464   -0.1282    3.3323 O   0  0  0  0  0  0  0  0  0  0  0  0
   -2.1257    0.2041    5.2087 C   0  0  0  0  0  0  0  0  0  0  0  0
   -2.8853   -0.5922    5.2621 H   0  0  0  0  0  0  0  0  0  0  0  0
   -1.2944   -0.1435    5.8430 H   0  0  0  0  0  0  0  0  0  0  0  0
   -2.5637    1.0590    5.7483 H   0  0  0  0  0  0  0  0  0  0  0  0
   -2.4435    1.4589    3.1669 N   0  0  0  0  0  0  0  0  0  0  0  0
   -2.1966    1.8850    1.8145 C   0  0  2  0  0  0  0  0  0  0  0  0
   -0.8617    1.2996    1.3733 C   0  0  0  0  0  0  0  0  0  0  0  0
    0.0104    0.9468    2.1646 O   0  0  0  0  0  0  0  0  0  0  0  0
   -2.1879    3.4017    1.7050 C   0  0  0  0  0  0  0  0  0  0  0  0
   -3.2085    1.8948    3.6787 H   0  0  0  0  0  0  0  0  0  0  0  0
   -3.0007    1.4665    1.1994 H   0  0  0  0  0  0  0  0  0  0  0  0
   -1.3888    3.8390    2.3147 H   0  0  0  0  0  0  0  0  0  0  0  0
   -2.0284    3.7240    0.6708 H   0  0  0  0  0  0  0  0  0  0  0  0
   -3.1380    3.8230    2.0508 H   0  0  0  0  0  0  0  0  0  0  0  0
   -0.7390    1.2565   -0.0101 N   0  0  0  0  0  0  0  0  0  0  0  0
    0.4383    0.7557   -0.6738 C   0  0  2  0  0  0  0  0  0  0  0  0
    1.2501   -0.0101    0.3648 C   0  0  0  0  0  0  0  0  0  0  0  0
    2.1890   -0.7466    0.0700 O   0  0  0  0  0  0  0  0  0  0  0  0
    1.2811    1.8809   -1.2851 C   0  0  0  0  0  0  0  0  0  0  0  0
    0.5567    2.6228   -2.3818 C   0  0  0  0  0  0  0  0  0  0  0  0
    0.3798    2.0793   -3.6313 N   0  3  0  0  0  0  0  0  0  0  0  0
   -0.0251    3.8588   -2.4044 C   0  0  0  0  0  0  0  0  0  0  0  0
   -0.2865    2.9440   -4.4032 C   0  0  0  0  0  0  0  0  0  0  0  0
   -0.5383    4.0315   -3.6673 N   0  0  0  0  0  0  0  0  0  0  0  0
   -1.5221    1.5532   -0.5874 H   0  0  0  0  0  0  0  0  0  0  0  0
    0.0897    0.0569   -1.4433 H   0  0  0  0  0  0  0  0  0  0  0  0
    2.2272    1.4797   -1.6731 H   0  0  0  0  0  0  0  0  0  0  0  0
    1.5710    2.6059   -0.5130 H   0  0  0  0  0  0  0  0  0  0  0  0
    0.7043    1.1631   -3.9282 H   0  0  0  0  0  0  0  0  0  0  0  0
   -0.1553    4.6600   -1.7045 H   0  0  0  0  0  0  0  0  0  0  0  0
   -0.5684    2.7922   -5.4317 H   0  0  0  0  0  0  0  0  0  0  0  0
   -1.0324    4.8569   -3.9943 H   0  0  0  0  0  0  0  0  0  0  0  0
    0.8319    0.2672    1.6589 N   0  0  0  0  0  0  0  0  0  0  0  0
    1.4479   -0.3088    2.8326 C   0  0  2  0  0  0  0  0  0  0  0  0
    1.5349   -1.8153    2.6266 C   0  0  0  0  0  0  0  0  0  0  0  0
    0.8097   -2.4286    1.8462 O   0  0  0  0  0  0  0  0  0  0  0  0
    0.6602    0.0232    4.0903 C   0  0  0  0  0  0  0  0  0  0  0  0
    0.0538    0.9073    1.7876 H   0  0  0  0  0  0  0  0  0  0  0  0
    2.4579    0.1104    2.8977 H   0  0  0  0  0  0  0  0  0  0  0  0
   -0.3545   -0.3886    4.0434 H   0  0  0  0  0  0  0  0  0  0  0  0
    1.1436   -0.3898    4.9818 H   0  0  0  0  0  0  0  0  0  0  0  0
    0.5732    1.1073    4.2209 H   0  0  0  0  0  0  0  0  0  0  0  0
    2.4882   -2.4002    3.4484 N   0  0  0  0  0  0  0  0  0  0  0  0
    2.7513   -3.8204    3.4490 C   0  0  0  0  0  0  0  0  0  0  0  0
    3.0569   -1.8126    4.0508 H   0  0  0  0  0  0  0  0  0  0  0  0
    2.1342   -4.3078    4.2182 H   0  0  0  0  0  0  0  0  0  0  0  0
    2.5053   -4.2392    2.4621 H   0  0  0  0  0  0  0  0  0  0  0  0
    3.8151   -3.9959    3.6671 H   0  0  0  0  0  0  0  0  0  0  0  0
 22 24  2  0  0  0  0
 24 26  1  0  0  0  0
 25 26  1  0  0  0  0
 23 25  2  0  0  0  0
 21 22  1  0  0  0  0
 22 23  1  0  0  0  0
  1  3  1  0  0  0  0
  1  7  1  0  0  0  0
  1  2  2  0  0  0  0
 36 37  1  0  0  0  0
 37 45  1  0  0  0  0
 37 38  2  0  0  0  0
  8  9  1  0  0  0  0
  9 17  1  0  0  0  0
  9 10  2  0  0  0  0
 18 19  1  0  0  0  0
 19 35  1  0  0  0  0
 19 20  2  0  0  0  0
 36 39  1  0  0  0  0
  8 11  1  0  0  0  0
 45 46  1  0  0  0  0
 18 21  1  0  0  0  0
 35 36  1  0  0  0  0
  7  8  1  0  0  0  0
 17 18  1  0  0  0  0
 24 32  1  0  0  0  0
 25 33  1  0  0  0  0
  3  4  1  0  0  0  0
  3  5  1  0  0  0  0
  3  6  1  0  0  0  0
 39 42  1  0  0  0  0
 39 43  1  0  0  0  0
 39 44  1  0  0  0  0
 11 14  1  0  0  0  0
 11 15  1  0  0  0  0
 11 16  1  0  0  0  0
 46 48  1  0  0  0  0
 46 49  1  0  0  0  0
 46 50  1  0  0  0  0
 21 29  1  0  0  0  0
 21 30  1  0  0  0  0
 36 41  1  0  0  0  0
  8 13  1  0  0  0  0
 18 28  1  0  0  0  0
 26 34  1  0  0  0  0
 23 31  1  0  0  0  0
 45 47  1  0  0  0  0
  7 12  1  0  0  0  0
 35 40  1  0  0  0  0
 17 27  1  0  0  0  0
M  CHG  1  23   1
M  END
$$$$

  -OEChem-05262214473D

 50 50  0     1  0  0  0  0  0999 V2000
   -1.6938    0.4865    3.8080 C   0  0  0  0  0  0  0  0  0  0  0  0
   -0.7464   -0.1282    3.3323 O   0  0  0  0  0  0  0  0  0  0  0  0
   -2.1257    0.2041    5.2087 C   0  0  0  0  0  0  0  0  0  0  0  0
   -2.8853   -0.5922    5.2621 H   0  0  0  0  0  0  0  0  0  0  0  0
   -1.2944   -0.1435    5.8430 H   0  0  0  0  0  0  0  0  0  0  0  0
   -2.5637    1.0590    5.7483 H   0  0  0  0  0  0  0  0  0  0  0  0
   -2.4435    1.4589    3.1669 N   0  0  0  0  0  0  0  0  0  0  0  0
   -2.1966    1.8850    1.8145 C   0  0  2  0  0  0  0  0  0  0  0  0
   -0.8617    1.2996    1.3733 C   0  0  0  0  0  0  0  0  0  0  0  0
    0.0104    0.9468    2.1646 O   0  0  0  0  0  0  0  0  0  0  0  0
   -2.1879    3.4017    1.7050 C   0  0  0  0  0  0  0  0  0  0  0  0
   -3.2085    1.8948    3.6787 H   0  0  0  0  0  0  0  0  0  0  0  0
   -3.0007    1.4665    1.1994 H   0  0  0  0  0  0  0  0  0  0  0  0
   -1.3888    3.8390    2.3147 H   0  0  0  0  0  0  0  0  0  0  0  0
   -2.0284    3.7240    0.6708 H   0  0  0  0  0  0  0  0  0  0  0  0
   -3.1380    3.8230    2.0508 H   0  0  0  0  0  0  0  0  0  0  0  0
   -0.7390    1.2565   -0.0101 N   0  0  0  0  0  0  0  0  0  0  0  0
    0.4383    0.7557   -0.6738 C   0  0  2  0  0  0  0  0  0  0  0  0
    1.2501   -0.0101    0.3648 C   0  0  0  0  0  0  0  0  0  0  0  0
    2.3374   -0.5268    0.1162 O   0  0  0  0  0  0  0  0  0  0  0  0
    1.2811    1.8809   -1.2851 C   0  0  0  0  0  0  0  0  0  0  0  0
    0.5567    2.6228   -2.3818 C   0  0  0  0  0  0  0  0  0  0  0  0
    0.3798    2.0793   -3.6313 N   0  3  0  0  0  0  0  0  0  0  0  0
   -0.0251    3.8588   -2.4044 C   0  0  0  0  0  0  0  0  0  0  0  0
   -0.2865    2.9440   -4.4032 C   0  0  0  0  0  0  0  0  0  0  0  0
   -0.5383    4.0315   -3.6673 N   0  0  0  0  0  0  0  0  0  0  0  0
   -1.5221    1.5532   -0.5874 H   0  0  0  0  0  0  0  0  0  0  0  0
    0.0897    0.0569   -1.4433 H   0  0  0  0  0  0  0  0  0  0  0  0
    2.2272    1.4797   -1.6731 H   0  0  0  0  0  0  0  0  0  0  0  0
    1.5710    2.6059   -0.5130 H   0  0  0  0  0  0  0  0  0  0  0  0
    0.7043    1.1631   -3.9282 H   0  0  0  0  0  0  0  0  0  0  0  0
   -0.1553    4.6600   -1.7045 H   0  0  0  0  0  0  0  0  0  0  0  0
   -0.5684    2.7922   -5.4317 H   0  0  0  0  0  0  0  0  0  0  0  0
   -1.0324    4.8569   -3.9943 H   0  0  0  0  0  0  0  0  0  0  0  0
    0.6385   -0.0032    1.6107 N   0  0  0  0  0  0  0  0  0  0  0  0
    1.2082   -0.6370    2.7780 C   0  0  2  0  0  0  0  0  0  0  0  0
    1.5966   -2.0598    2.3981 C   0  0  0  0  0  0  0  0  0  0  0  0
    1.0947   -2.6621    1.4513 O   0  0  0  0  0  0  0  0  0  0  0  0
    0.2301   -0.6332    3.9425 C   0  0  0  0  0  0  0  0  0  0  0  0
   -0.2545    0.4713    1.7070 H   0  0  0  0  0  0  0  0  0  0  0  0
    2.1081   -0.0694    3.0386 H   0  0  0  0  0  0  0  0  0  0  0  0
   -0.6779   -1.1972    3.7000 H   0  0  0  0  0  0  0  0  0  0  0  0
    0.6734   -1.0881    4.8345 H   0  0  0  0  0  0  0  0  0  0  0  0
   -0.0712    0.3892    4.1950 H   0  0  0  0  0  0  0  0  0  0  0  0
    2.5384   -2.5933    3.2668 N   0  0  0  0  0  0  0  0  0  0  0  0
    3.0584   -3.9333    3.1257 C   0  0  0  0  0  0  0  0  0  0  0  0
    2.9133   -2.0155    4.0134 H   0  0  0  0  0  0  0  0  0  0  0  0
    2.4562   -4.6265    3.7315 H   0  0  0  0  0  0  0  0  0  0  0  0
    3.0122   -4.2350    2.0689 H   0  0  0  0  0  0  0  0  0  0  0  0
    4.1031   -3.9591    3.4691 H   0  0  0  0  0  0  0  0  0  0  0  0
 22 24  2  0  0  0  0
 24 26  1  0  0  0  0
 25 26  1  0  0  0  0
 23 25  2  0  0  0  0
 21 22  1  0  0  0  0
 22 23  1  0  0  0  0
  1  3  1  0  0  0  0
  1  7  1  0  0  0  0
  1  2  2  0  0  0  0
 36 37  1  0  0  0  0
 37 45  1  0  0  0  0
 37 38  2  0  0  0  0
  8  9  1  0  0  0  0
  9 17  1  0  0  0  0
  9 10  2  0  0  0  0
 18 19  1  0  0  0  0
 19 35  1  0  0  0  0
 19 20  2  0  0  0  0
 36 39  1  0  0  0  0
  8 11  1  0  0  0  0
 45 46  1  0  0  0  0
 18 21  1  0  0  0  0
 35 36  1  0  0  0  0
  7  8  1  0  0  0  0
 17 18  1  0  0  0  0
 24 32  1  0  0  0  0
 25 33  1  0  0  0  0
  3  4  1  0  0  0  0
  3  5  1  0  0  0  0
  3  6  1  0  0  0  0
 39 42  1  0  0  0  0
 39 43  1  0  0  0  0
 39 44  1  0  0  0  0
 11 14  1  0  0  0  0
 11 15  1  0  0  0  0
 11 16  1  0  0  0  0
 46 48  1  0  0  0  0
 46 49  1  0  0  0  0
 46 50  1  0  0  0  0
 21 29  1  0  0  0  0
 21 30  1  0  0  0  0
 36 41  1  0  0  0  0
  8 13  1  0  0  0  0
 18 28  1  0  0  0  0
 26 34  1  0  0  0  0
 23 31  1  0  0  0  0
 45 47  1  0  0  0  0
  7 12  1  0  0  0  0
 35 40  1  0  0  0  0
 17 27  1  0  0  0  0
M  CHG  1  23   1
M  END
$$$$

  -OEChem-05262214473D

 50 50  0     1  0  0  0  0  0999 V2000
   -1.6938    0.4865    3.8080 C   0  0  0  0  0  0  0  0  0  0  0  0
   -0.7464   -0.1282    3.3323 O   0  0  0  0  0  0  0  0  0  0  0  0
   -2.1257    0.2041    5.2087 C   0  0  0  0  0  0  0  0  0  0  0  0
   -2.8853   -0.5922    5.2621 H   0  0  0  0  0  0  0  0  0  0  0  0
   -1.2944   -0.1435    5.8430 H   0  0  0  0  0  0  0  0  0  0  0  0
   -2.5637    1.0590    5.7483 H   0  0  0  0  0  0  0  0  0  0  0  0
   -2.4435    1.4589    3.1669 N   0  0  0  0  0  0  0  0  0  0  0  0
   -2.1966    1.8850    1.8145 C   0  0  2  0  0  0  0  0  0  0  0  0
   -0.8617    1.2996    1.3733 C   0  0  0  0  0  0  0  0  0  0  0  0
    0.0104    0.9468    2.1646 O   0  0  0  0  0  0  0  0  0  0  0  0
   -2.1879    3.4017    1.7050 C   0  0  0  0  0  0  0  0  0  0  0  0
   -3.2085    1.8948    3.6787 H   0  0  0  0  0  0  0  0  0  0  0  0
   -3.0007    1.4665    1.1994 H   0  0  0  0  0  0  0  0  0  0  0  0
   -1.3888    3.8390    2.3147 H   0  0  0  0  0  0  0  0  0  0  0  0
   -2.0284    3.7240    0.6708 H   0  0  0  0  0  0  0  0  0  0  0  0
   -3.1380    3.8230    2.0508 H   0  0  0  0  0  0  0  0  0  0  0  0
   -0.7390    1.2565   -0.0101 N   0  0  0  0  0  0  0  0  0  0  0  0
    0.4383    0.7557   -0.6738 C   0  0  2  0  0  0  0  0  0  0  0  0
    1.2501   -0.0101    0.3648 C   0  0  0  0  0  0  0  0  0  0  0  0
    2.4359   -0.2947    0.2103 O   0  0  0  0  0  0  0  0  0  0  0  0
    1.2811    1.8809   -1.2851 C   0  0  0  0  0  0  0  0  0  0  0  0
    0.5567    2.6228   -2.3818 C   0  0  0  0  0  0  0  0  0  0  0  0
    0.3798    2.0793   -3.6313 N   0  3  0  0  0  0  0  0  0  0  0  0
   -0.0251    3.8588   -2.4044 C   0  0  0  0  0  0  0  0  0  0  0  0
   -0.2865    2.9440   -4.4032 C   0  0  0  0  0  0  0  0  0  0  0  0
   -0.5383    4.0315   -3.6673 N   0  0  0  0  0  0  0  0  0  0  0  0
   -1.5221    1.5532   -0.5874 H   0  0  0  0  0  0  0  0  0  0  0  0
    0.0897    0.0569   -1.4433 H   0  0  0  0  0  0  0  0  0  0  0  0
    2.2272    1.4797   -1.6731 H   0  0  0  0  0  0  0  0  0  0  0  0
    1.5710    2.6059   -0.5130 H   0  0  0  0  0  0  0  0  0  0  0  0
    0.7043    1.1631   -3.9282 H   0  0  0  0  0  0  0  0  0  0  0  0
   -0.1553    4.6600   -1.7045 H   0  0  0  0  0  0  0  0  0  0  0  0
   -0.5684    2.7922   -5.4317 H   0  0  0  0  0  0  0  0  0  0  0  0
   -1.0324    4.8569   -3.9943 H   0  0  0  0  0  0  0  0  0  0  0  0
    0.5055   -0.2919    1.5018 N   0  0  0  0  0  0  0  0  0  0  0  0
    1.0415   -0.9888    2.6488 C   0  0  2  0  0  0  0  0  0  0  0  0
    1.7290   -2.2536    2.1517 C   0  0  0  0  0  0  0  0  0  0  0  0
    1.4624   -2.7829    1.0748 O   0  0  0  0  0  0  0  0  0  0  0  0
   -0.0504   -1.3226    3.6534 C   0  0  0  0  0  0  0  0  0  0  0  0
   -0.4649    0.0068    1.5290 H   0  0  0  0  0  0  0  0  0  0  0  0
    1.7835   -0.3241    3.1045 H   0  0  0  0  0  0  0  0  0  0  0  0
   -0.8031   -1.9879    3.2149 H   0  0  0  0  0  0  0  0  0  0  0  0
    0.3615   -1.8252    4.5347 H   0  0  0  0  0  0  0  0  0  0  0  0
   -0.5636   -0.4144    3.9874 H   0  0  0  0  0  0  0  0  0  0  0  0
    2.6445   -2.7459    3.0713 N   0  0  0  0  0  0  0  0  0  0  0  0
    3.4169   -3.9437    2.8378 C   0  0  0  0  0  0  0  0  0  0  0  0
    2.8153   -2.2318    3.9305 H   0  0  0  0  0  0  0  0  0  0  0  0
    2.8867   -4.8105    3.2593 H   0  0  0  0  0  0  0  0  0  0  0  0
    3.5521   -4.0875    1.7557 H   0  0  0  0  0  0  0  0  0  0  0  0
    4.4005   -3.8455    3.3204 H   0  0  0  0  0  0  0  0  0  0  0  0
 22 24  2  0  0  0  0
 24 26  1  0  0  0  0
 25 26  1  0  0  0  0
 23 25  2  0  0  0  0
 21 22  1  0  0  0  0
 22 23  1  0  0  0  0
  1  3  1  0  0  0  0
  1  7  1  0  0  0  0
  1  2  2  0  0  0  0
 36 37  1  0  0  0  0
 37 45  1  0  0  0  0
 37 38  2  0  0  0  0
  8  9  1  0  0  0  0
  9 17  1  0  0  0  0
  9 10  2  0  0  0  0
 18 19  1  0  0  0  0
 19 35  1  0  0  0  0
 19 20  2  0  0  0  0
 36 39  1  0  0  0  0
  8 11  1  0  0  0  0
 45 46  1  0  0  0  0
 18 21  1  0  0  0  0
 35 36  1  0  0  0  0
  7  8  1  0  0  0  0
 17 18  1  0  0  0  0
 24 32  1  0  0  0  0
 25 33  1  0  0  0  0
  3  4  1  0  0  0  0
  3  5  1  0  0  0  0
  3  6  1  0  0  0  0
 39 42  1  0  0  0  0
 39 43  1  0  0  0  0
 39 44  1  0  0  0  0
 11 14  1  0  0  0  0
 11 15  1  0  0  0  0
 11 16  1  0  0  0  0
 46 48  1  0  0  0  0
 46 49  1  0  0  0  0
 46 50  1  0  0  0  0
 21 29  1  0  0  0  0
 21 30  1  0  0  0  0
 36 41  1  0  0  0  0
  8 13  1  0  0  0  0
 18 28  1  0  0  0  0
 26 34  1  0  0  0  0
 23 31  1  0  0  0  0
 45 47  1  0  0  0  0
  7 12  1  0  0  0  0
 35 40  1  0  0  0  0
 17 27  1  0  0  0  0
M  CHG  1  23   1
M  END
$$$$

  -OEChem-05262214473D

 50 50  0     1  0  0  0  0  0999 V2000
   -1.6938    0.4865    3.8080 C   0  0  0  0  0  0  0  0  0  0  0  0
   -0.7464   -0.1282    3.3323 O   0  0  0  0  0  0  0  0  0  0  0  0
   -2.1257    0.2041    5.2087 C   0  0  0  0  0  0  0  0  0  0  0  0
   -2.8853   -0.5922    5.2621 H   0  0  0  0  0  0  0  0  0  0  0  0
   -1.2944   -0.1435    5.8430 H   0  0  0  0  0  0  0  0  0  0  0  0
   -2.5637    1.0590    5.7483 H   0  0  0  0  0  0  0  0  0  0  0  0
   -2.4435    1.4589    3.1669 N   0  0  0  0  0  0  0  0  0  0  0  0
   -2.1966    1.8850    1.8145 C   0  0  2  0  0  0  0  0  0  0  0  0
   -0.8617    1.2996    1.3733 C   0  0  0  0  0  0  0  0  0  0  0  0
    0.0104    0.9468    2.1646 O   0  0  0  0  0  0  0  0  0  0  0  0
   -2.1879    3.4017    1.7050 C   0  0  0  0  0  0  0  0  0  0  0  0
   -3.2085    1.8948    3.6787 H   0  0  0  0  0  0  0  0  0  0  0  0
   -3.0007    1.4665    1.1994 H   0  0  0  0  0  0  0  0  0  0  0  0
   -1.3888    3.8390    2.3147 H   0  0  0  0  0  0  0  0  0  0  0  0
   -2.0284    3.7240    0.6708 H   0  0  0  0  0  0  0  0  0  0  0  0
   -3.1380    3.8230    2.0508 H   0  0  0  0  0  0  0  0  0  0  0  0
   -0.7390    1.2565   -0.0101 N   0  0  0  0  0  0  0  0  0  0  0  0
    0.4383    0.7557   -0.6738 C   0  0  2  0  0  0  0  0  0  0  0  0
    1.2501   -0.0101    0.3648 C   0  0  0  0  0  0  0  0  0  0  0  0
    2.4779   -0.0661    0.3461 O   0  0  0  0  0  0  0  0  0  0  0  0
    1.2811    1.8809   -1.2851 C   0  0  0  0  0  0  0  0  0  0  0  0
    0.5567    2.6228   -2.3818 C   0  0  0  0  0  0  0  0  0  0  0  0
    0.3798    2.0793   -3.6313 N   0  3  0  0  0  0  0  0  0  0  0  0
   -0.0251    3.8588   -2.4044 C   0  0  0  0  0  0  0  0  0  0  0  0
   -0.2865    2.9440   -4.4032 C   0  0  0  0  0  0  0  0  0  0  0  0
   -0.5383    4.0315   -3.6673 N   0  0  0  0  0  0  0  0  0  0  0  0
   -1.5221    1.5532   -0.5874 H   0  0  0  0  0  0  0  0  0  0  0  0
    0.0897    0.0569   -1.4433 H   0  0  0  0  0  0  0  0  0  0  0  0
    2.2272    1.4797   -1.6731 H   0  0  0  0  0  0  0  0  0  0  0  0
    1.5710    2.6059   -0.5130 H   0  0  0  0  0  0  0  0  0  0  0  0
    0.7043    1.1631   -3.9282 H   0  0  0  0  0  0  0  0  0  0  0  0
   -0.1553    4.6600   -1.7045 H   0  0  0  0  0  0  0  0  0  0  0  0
   -0.5684    2.7922   -5.4317 H   0  0  0  0  0  0  0  0  0  0  0  0
   -1.0324    4.8569   -3.9943 H   0  0  0  0  0  0  0  0  0  0  0  0
    0.4422   -0.5792    1.3394 N   0  0  0  0  0  0  0  0  0  0  0  0
    0.9594   -1.3402    2.4540 C   0  0  2  0  0  0  0  0  0  0  0  0
    1.9231   -2.3835    1.9042 C   0  0  0  0  0  0  0  0  0  0  0  0
    1.8879   -2.7829    0.7422 O   0  0  0  0  0  0  0  0  0  0  0  0
   -0.1621   -1.9982    3.2426 C   0  0  0  0  0  0  0  0  0  0  0  0
   -0.5632   -0.4544    1.2657 H   0  0  0  0  0  0  0  0  0  0  0  0
    1.5064   -0.6364    3.0908 H   0  0  0  0  0  0  0  0  0  0  0  0
   -0.7216   -2.7068    2.6210 H   0  0  0  0  0  0  0  0  0  0  0  0
    0.2292   -2.5509    4.1031 H   0  0  0  0  0  0  0  0  0  0  0  0
   -0.8705   -1.2489    3.6120 H   0  0  0  0  0  0  0  0  0  0  0  0
    2.7993   -2.8476    2.8753 N   0  0  0  0  0  0  0  0  0  0  0  0
    3.8025   -3.8509    2.6049 C   0  0  0  0  0  0  0  0  0  0  0  0
    2.7696   -2.4465    3.8080 H   0  0  0  0  0  0  0  0  0  0  0  0
    3.3964   -4.8472    2.8338 H   0  0  0  0  0  0  0  0  0  0  0  0
    4.0884   -3.8067    1.5436 H   0  0  0  0  0  0  0  0  0  0  0  0
    4.6871   -3.6629    3.2311 H   0  0  0  0  0  0  0  0  0  0  0  0
 22 24  2  0  0  0  0
 24 26  1  0  0  0  0
 25 26  1  0  0  0  0
 23 25  2  0  0  0  0
 21 22  1  0  0  0  0
 22 23  1  0  0  0  0
  1  3  1  0  0  0  0
  1  7  1  0  0  0  0
  1  2  2  0  0  0  0
 36 37  1  0  0  0  0
 37 45  1  0  0  0  0
 37 38  2  0  0  0  0
  8  9  1  0  0  0  0
  9 17  1  0  0  0  0
  9 10  2  0  0  0  0
 18 19  1  0  0  0  0
 19 35  1  0  0  0  0
 19 20  2  0  0  0  0
 36 39  1  0  0  0  0
  8 11  1  0  0  0  0
 45 46  1  0  0  0  0
 18 21  1  0  0  0  0
 35 36  1  0  0  0  0
  7  8  1  0  0  0  0
 17 18  1  0  0  0  0
 24 32  1  0  0  0  0
 25 33  1  0  0  0  0
  3  4  1  0  0  0  0
  3  5  1  0  0  0  0
  3  6  1  0  0  0  0
 39 42  1  0  0  0  0
 39 43  1  0  0  0  0
 39 44  1  0  0  0  0
 11 14  1  0  0  0  0
 11 15  1  0  0  0  0
 11 16  1  0  0  0  0
 46 48  1  0  0  0  0
 46 49  1  0  0  0  0
 46 50  1  0  0  0  0
 21 29  1  0  0  0  0
 21 30  1  0  0  0  0
 36 41  1  0  0  0  0
  8 13  1  0  0  0  0
 18 28  1  0  0  0  0
 26 34  1  0  0  0  0
 23 31  1  0  0  0  0
 45 47  1  0  0  0  0
  7 12  1  0  0  0  0
 35 40  1  0  0  0  0
 17 27  1  0  0  0  0
M  CHG  1  23   1
M  END
$$$$

  -OEChem-05262214473D

 50 50  0     1  0  0  0  0  0999 V2000
   -1.6938    0.4865    3.8080 C   0  0  0  0  0  0  0  0  0  0  0  0
   -0.7464   -0.1282    3.3323 O   0  0  0  0  0  0  0  0  0  0  0  0
   -2.1257    0.2041    5.2087 C   0  0  0  0  0  0  0  0  0  0  0  0
   -2.8853   -0.5922    5.2621 H   0  0  0  0  0  0  0  0  0  0  0  0
   -1.2944   -0.1435    5.8430 H   0  0  0  0  0  0  0  0  0  0  0  0
   -2.5637    1.0590    5.7483 H   0  0  0  0  0  0  0  0  0  0  0  0
   -2.4435    1.4589    3.1669 N   0  0  0  0  0  0  0  0  0  0  0  0
   -2.1966    1.8850    1.8145 C   0  0  2  0  0  0  0  0  0  0  0  0
   -0.8617    1.2996    1.3733 C   0  0  0  0  0  0  0  0  0  0  0  0
    0.0104    0.9468    2.1646 O   0  0  0  0  0  0  0  0  0  0  0  0
   -2.1879    3.4017    1.7050 C   0  0  0  0  0  0  0  0  0  0  0  0
   -3.2085    1.8948    3.6787 H   0  0  0  0  0  0  0  0  0  0  0  0
   -3.0007    1.4665    1.1994 H   0  0  0  0  0  0  0  0  0  0  0  0
   -1.3888    3.8390    2.3147 H   0  0  0  0  0  0  0  0  0  0  0  0
   -2.0284    3.7240    0.6708 H   0  0  0  0  0  0  0  0  0  0  0  0
   -3.1380    3.8230    2.0508 H   0  0  0  0  0  0  0  0  0  0  0  0
   -0.7390    1.2565   -0.0101 N   0  0  0  0  0  0  0  0  0  0  0  0
    0.4383    0.7557   -0.6738 C   0  0  2  0  0  0  0  0  0  0  0  0
    1.2501   -0.0101    0.3648 C   0  0  0  0  0  0  0  0  0  0  0  0
    2.4605    0.1434    0.5141 O   0  0  0  0  0  0  0  0  0  0  0  0
    1.2811    1.8809   -1.2851 C   0  0  0  0  0  0  0  0  0  0  0  0
    0.5567    2.6228   -2.3818 C   0  0  0  0  0  0  0  0  0  0  0  0
    0.3798    2.0793   -3.6313 N   0  3  0  0  0  0  0  0  0  0  0  0
   -0.0251    3.8588   -2.4044 C   0  0  0  0  0  0  0  0  0  0  0  0
   -0.2865    2.9440   -4.4032 C   0  0  0  0  0  0  0  0  0  0  0  0
   -0.5383    4.0315   -3.6673 N   0  0  0  0  0  0  0  0  0  0  0  0
   -1.5221    1.5532   -0.5874 H   0  0  0  0  0  0  0  0  0  0  0  0
    0.0897    0.0569   -1.4433 H   0  0  0  0  0  0  0  0  0  0  0  0
    2.2272    1.4797   -1.6731 H   0  0  0  0  0  0  0  0  0  0  0  0
    1.5710    2.6059   -0.5130 H   0  0  0  0  0  0  0  0  0  0  0  0
    0.7043    1.1631   -3.9282 H   0  0  0  0  0  0  0  0  0  0  0  0
   -0.1553    4.6600   -1.7045 H   0  0  0  0  0  0  0  0  0  0  0  0
   -0.5684    2.7922   -5.4317 H   0  0  0  0  0  0  0  0  0  0  0  0
   -1.0324    4.8569   -3.9943 H   0  0  0  0  0  0  0  0  0  0  0  0
    0.4528   -0.8454    1.1348 N   0  0  0  0  0  0  0  0  0  0  0  0
    0.9673   -1.6672    2.2066 C   0  0  2  0  0  0  0  0  0  0  0  0
    2.1657   -2.4406    1.6725 C   0  0  0  0  0  0  0  0  0  0  0  0
    2.3421   -2.6620    0.4763 O   0  0  0  0  0  0  0  0  0  0  0  0
   -0.0976   -2.6139    2.7381 C   0  0  0  0  0  0  0  0  0  0  0  0
   -0.5425   -0.8810    0.9350 H   0  0  0  0  0  0  0  0  0  0  0  0
    1.2956   -0.9851    2.9985 H   0  0  0  0  0  0  0  0  0  0  0  0
   -0.4388   -3.3051    1.9588 H   0  0  0  0  0  0  0  0  0  0  0  0
    0.2854   -3.2156    3.5689 H   0  0  0  0  0  0  0  0  0  0  0  0
   -0.9711   -2.0573    3.0945 H   0  0  0  0  0  0  0  0  0  0  0  0
    2.9923   -2.8915    2.6920 N   0  0  0  0  0  0  0  0  0  0  0  0
    4.1888   -3.6611    2.4428 C   0  0  0  0  0  0  0  0  0  0  0  0
    2.7792   -2.6450    3.6541 H   0  0  0  0  0  0  0  0  0  0  0  0
    3.9504   -4.7342    2.4841 H   0  0  0  0  0  0  0  0  0  0  0  0
    4.5844   -3.4116    1.4472 H   0  0  0  0  0  0  0  0  0  0  0  0
    4.9433   -3.4236    3.2072 H   0  0  0  0  0  0  0  0  0  0  0  0
 22 24  2  0  0  0  0
 24 26  1  0  0  0  0
 25 26  1  0  0  0  0
 23 25  2  0  0  0  0
 21 22  1  0  0  0  0
 22 23  1  0  0  0  0
  1  3  1  0  0  0  0
  1  7  1  0  0  0  0
  1  2  2  0  0  0  0
 36 37  1  0  0  0  0
 37 45  1  0  0  0  0
 37 38  2  0  0  0  0
  8  9  1  0  0  0  0
  9 17  1  0  0  0  0
  9 10  2  0  0  0  0
 18 19  1  0  0  0  0
 19 35  1  0  0  0  0
 19 20  2  0  0  0  0
 36 39  1  0  0  0  0
  8 11  1  0  0  0  0
 45 46  1  0  0  0  0
 18 21  1  0  0  0  0
 35 36  1  0  0  0  0
  7  8  1  0  0  0  0
 17 18  1  0  0  0  0
 24 32  1  0  0  0  0
 25 33  1  0  0  0  0
  3  4  1  0  0  0  0
  3  5  1  0  0  0  0
  3  6  1  0  0  0  0
 39 42  1  0  0  0  0
 39 43  1  0  0  0  0
 39 44  1  0  0  0  0
 11 14  1  0  0  0  0
 11 15  1  0  0  0  0
 11 16  1  0  0  0  0
 46 48  1  0  0  0  0
 46 49  1  0  0  0  0
 46 50  1  0  0  0  0
 21 29  1  0  0  0  0
 21 30  1  0  0  0  0
 36 41  1  0  0  0  0
  8 13  1  0  0  0  0
 18 28  1  0  0  0  0
 26 34  1  0  0  0  0
 23 31  1  0  0  0  0
 45 47  1  0  0  0  0
  7 12  1  0  0  0  0
 35 40  1  0  0  0  0
 17 27  1  0  0  0  0
M  CHG  1  23   1
M  END
$$$$

  -OEChem-05262214473D

 50 50  0     1  0  0  0  0  0999 V2000
   -1.6938    0.4865    3.8080 C   0  0  0  0  0  0  0  0  0  0  0  0
   -0.7464   -0.1282    3.3323 O   0  0  0  0  0  0  0  0  0  0  0  0
   -2.1257    0.2041    5.2087 C   0  0  0  0  0  0  0  0  0  0  0  0
   -2.8853   -0.5922    5.2621 H   0  0  0  0  0  0  0  0  0  0  0  0
   -1.2944   -0.1435    5.8430 H   0  0  0  0  0  0  0  0  0  0  0  0
   -2.5637    1.0590    5.7483 H   0  0  0  0  0  0  0  0  0  0  0  0
   -2.4435    1.4589    3.1669 N   0  0  0  0  0  0  0  0  0  0  0  0
   -2.1966    1.8850    1.8145 C   0  0  2  0  0  0  0  0  0  0  0  0
   -0.8617    1.2996    1.3733 C   0  0  0  0  0  0  0  0  0  0  0  0
    0.0104    0.9468    2.1646 O   0  0  0  0  0  0  0  0  0  0  0  0
   -2.1879    3.4017    1.7050 C   0  0  0  0  0  0  0  0  0  0  0  0
   -3.2085    1.8948    3.6787 H   0  0  0  0  0  0  0  0  0  0  0  0
   -3.0007    1.4665    1.1994 H   0  0  0  0  0  0  0  0  0  0  0  0
   -1.3888    3.8390    2.3147 H   0  0  0  0  0  0  0  0  0  0  0  0
   -2.0284    3.7240    0.6708 H   0  0  0  0  0  0  0  0  0  0  0  0
   -3.1380    3.8230    2.0508 H   0  0  0  0  0  0  0  0  0  0  0  0
   -0.7390    1.2565   -0.0101 N   0  0  0  0  0  0  0  0  0  0  0  0
    0.4383    0.7557   -0.6738 C   0  0  2  0  0  0  0  0  0  0  0  0
    1.2501   -0.0101    0.3648 C   0  0  0  0  0  0  0  0  0  0  0  0
    2.3849    0.3196    0.7031 O   0  0  0  0  0  0  0  0  0  0  0  0
    1.2811    1.8809   -1.2851 C   0  0  0  0  0  0  0  0  0  0  0  0
    0.5567    2.6228   -2.3818 C   0  0  0  0  0  0  0  0  0  0  0  0
    0.3798    2.0793   -3.6313 N   0  3  0  0  0  0  0  0  0  0  0  0
   -0.0251    3.8588   -2.4044 C   0  0  0  0  0  0  0  0  0  0  0  0
   -0.2865    2.9440   -4.4032 C   0  0  0  0  0  0  0  0  0  0  0  0
   -0.5383    4.0315   -3.6673 N   0  0  0  0  0  0  0  0  0  0  0  0
   -1.5221    1.5532   -0.5874 H   0  0  0  0  0  0  0  0  0  0  0  0
    0.0897    0.0569   -1.4433 H   0  0  0  0  0  0  0  0  0  0  0  0
    2.2272    1.4797   -1.6731 H   0  0  0  0  0  0  0  0  0  0  0  0
    1.5710    2.6059   -0.5130 H   0  0  0  0  0  0  0  0  0  0  0  0
    0.7043    1.1631   -3.9282 H   0  0  0  0  0  0  0  0  0  0  0  0
   -0.1553    4.6600   -1.7045 H   0  0  0  0  0  0  0  0  0  0  0  0
   -0.5684    2.7922   -5.4317 H   0  0  0  0  0  0  0  0  0  0  0  0
   -1.0324    4.8569   -3.9943 H   0  0  0  0  0  0  0  0  0  0  0  0
    0.5365   -1.0726    0.9019 N   0  0  0  0  0  0  0  0  0  0  0  0
    1.0648   -1.9476    1.9237 C   0  0  2  0  0  0  0  0  0  0  0  0
    2.4402   -2.4211    1.4723 C   0  0  0  0  0  0  0  0  0  0  0  0
    2.7941   -2.4286    0.2951 O   0  0  0  0  0  0  0  0  0  0  0  0
    0.1389   -3.1277    2.1744 C   0  0  0  0  0  0  0  0  0  0  0  0
   -0.4043   -1.2438    0.5595 H   0  0  0  0  0  0  0  0  0  0  0  0
    1.1654   -1.3464    2.8338 H   0  0  0  0  0  0  0  0  0  0  0  0
    0.0259   -3.7418    1.2736 H   0  0  0  0  0  0  0  0  0  0  0  0
    0.5264   -3.7742    2.9687 H   0  0  0  0  0  0  0  0  0  0  0  0
   -0.8584   -2.7846    2.4701 H   0  0  0  0  0  0  0  0  0  0  0  0
    3.2103   -2.8747    2.5341 N   0  0  0  0  0  0  0  0  0  0  0  0
    4.5496   -3.3874    2.3626 C   0  0  0  0  0  0  0  0  0  0  0  0
    2.8435   -2.8139    3.4793 H   0  0  0  0  0  0  0  0  0  0  0  0
    4.5112   -4.4791    2.2338 H   0  0  0  0  0  0  0  0  0  0  0  0
    5.0064   -2.9292    1.4730 H   0  0  0  0  0  0  0  0  0  0  0  0
    5.1517   -3.1440    3.2505 H   0  0  0  0  0  0  0  0  0  0  0  0
 22 24  2  0  0  0  0
 24 26  1  0  0  0  0
 25 26  1  0  0  0  0
 23 25  2  0  0  0  0
 21 22  1  0  0  0  0
 22 23  1  0  0  0  0
  1  3  1  0  0  0  0
  1  7  1  0  0  0  0
  1  2  2  0  0  0  0
 36 37  1  0  0  0  0
 37 45  1  0  0  0  0
 37 38  2  0  0  0  0
  8  9  1  0  0  0  0
  9 17  1  0  0  0  0
  9 10  2  0  0  0  0
 18 19  1  0  0  0  0
 19 35  1  0  0  0  0
 19 20  2  0  0  0  0
 36 39  1  0  0  0  0
  8 11  1  0  0  0  0
 45 46  1  0  0  0  0
 18 21  1  0  0  0  0
 35 36  1  0  0  0  0
  7  8  1  0  0  0  0
 17 18  1  0  0  0  0
 24 32  1  0  0  0  0
 25 33  1  0  0  0  0
  3  4  1  0  0  0  0
  3  5  1  0  0  0  0
  3  6  1  0  0  0  0
 39 42  1  0  0  0  0
 39 43  1  0  0  0  0
 39 44  1  0  0  0  0
 11 14  1  0  0  0  0
 11 15  1  0  0  0  0
 11 16  1  0  0  0  0
 46 48  1  0  0  0  0
 46 49  1  0  0  0  0
 46 50  1  0  0  0  0
 21 29  1  0  0  0  0
 21 30  1  0  0  0  0
 36 41  1  0  0  0  0
  8 13  1  0  0  0  0
 18 28  1  0  0  0  0
 26 34  1  0  0  0  0
 23 31  1  0  0  0  0
 45 47  1  0  0  0  0
  7 12  1  0  0  0  0
 35 40  1  0  0  0  0
 17 27  1  0  0  0  0
M  CHG  1  23   1
M  END
$$$$

  -OEChem-05262214473D

 50 50  0     1  0  0  0  0  0999 V2000
   -1.6938    0.4865    3.8080 C   0  0  0  0  0  0  0  0  0  0  0  0
   -0.7464   -0.1282    3.3323 O   0  0  0  0  0  0  0  0  0  0  0  0
   -2.1257    0.2041    5.2087 C   0  0  0  0  0  0  0  0  0  0  0  0
   -2.8853   -0.5922    5.2621 H   0  0  0  0  0  0  0  0  0  0  0  0
   -1.2944   -0.1435    5.8430 H   0  0  0  0  0  0  0  0  0  0  0  0
   -2.5637    1.0590    5.7483 H   0  0  0  0  0  0  0  0  0  0  0  0
   -2.4435    1.4589    3.1669 N   0  0  0  0  0  0  0  0  0  0  0  0
   -2.1966    1.8850    1.8145 C   0  0  2  0  0  0  0  0  0  0  0  0
   -0.8617    1.2996    1.3733 C   0  0  0  0  0  0  0  0  0  0  0  0
    0.0104    0.9468    2.1646 O   0  0  0  0  0  0  0  0  0  0  0  0
   -2.1879    3.4017    1.7050 C   0  0  0  0  0  0  0  0  0  0  0  0
   -3.2085    1.8948    3.6787 H   0  0  0  0  0  0  0  0  0  0  0  0
   -3.0007    1.4665    1.1994 H   0  0  0  0  0  0  0  0  0  0  0  0
   -1.3888    3.8390    2.3147 H   0  0  0  0  0  0  0  0  0  0  0  0
   -2.0284    3.7240    0.6708 H   0  0  0  0  0  0  0  0  0  0  0  0
   -3.1380    3.8230    2.0508 H   0  0  0  0  0  0  0  0  0  0  0  0
   -0.7390    1.2565   -0.0101 N   0  0  0  0  0  0  0  0  0  0  0  0
    0.4383    0.7557   -0.6738 C   0  0  2  0  0  0  0  0  0  0  0  0
    1.2501   -0.0101    0.3648 C   0  0  0  0  0  0  0  0  0  0  0  0
    2.2563    0.4504    0.9001 O   0  0  0  0  0  0  0  0  0  0  0  0
    1.2811    1.8809   -1.2851 C   0  0  0  0  0  0  0  0  0  0  0  0
    0.5567    2.6228   -2.3818 C   0  0  0  0  0  0  0  0  0  0  0  0
    0.3798    2.0793   -3.6313 N   0  3  0  0  0  0  0  0  0  0  0  0
   -0.0251    3.8588   -2.4044 C   0  0  0  0  0  0  0  0  0  0  0  0
   -0.2865    2.9440   -4.4032 C   0  0  0  0  0  0  0  0  0  0  0  0
   -0.5383    4.0315   -3.6673 N   0  0  0  0  0  0  0  0  0  0  0  0
   -1.5221    1.5532   -0.5874 H   0  0  0  0  0  0  0  0  0  0  0  0
    0.0897    0.0569   -1.4433 H   0  0  0  0  0  0  0  0  0  0  0  0
    2.2272    1.4797   -1.6731 H   0  0  0  0  0  0  0  0  0  0  0  0
    1.5710    2.6059   -0.5130 H   0  0  0  0  0  0  0  0  0  0  0  0
    0.7043    1.1631   -3.9282 H   0  0  0  0  0  0  0  0  0  0  0  0
   -0.1553    4.6600   -1.7045 H   0  0  0  0  0  0  0  0  0  0  0  0
   -0.5684    2.7922   -5.4317 H   0  0  0  0  0  0  0  0  0  0  0  0
   -1.0324    4.8569   -3.9943 H   0  0  0  0  0  0  0  0  0  0  0  0
    0.6878   -1.2451    0.6564 N   0  0  0  0  0  0  0  0  0  0  0  0
    1.2452   -2.1622    1.6244 C   0  0  2  0  0  0  0  0  0  0  0  0
    2.7279   -2.3262    1.3174 C   0  0  0  0  0  0  0  0  0  0  0  0
    3.2130   -2.0984    0.2111 O   0  0  0  0  0  0  0  0  0  0  0  0
    0.5313   -3.5046    1.5898 C   0  0  0  0  0  0  0  0  0  0  0  0
   -0.1581   -1.5181    0.1648 H   0  0  0  0  0  0  0  0  0  0  0  0
    1.1248   -1.6956    2.6081 H   0  0  0  0  0  0  0  0  0  0  0  0
    0.6408   -3.9873    0.6119 H   0  0  0  0  0  0  0  0  0  0  0  0
    0.9357   -4.1886    2.3432 H   0  0  0  0  0  0  0  0  0  0  0  0
   -0.5401   -3.3812    1.7814 H   0  0  0  0  0  0  0  0  0  0  0  0
    3.4384   -2.7982    2.4121 N   0  0  0  0  0  0  0  0  0  0  0  0
    4.8603   -3.0483    2.3698 C   0  0  0  0  0  0  0  0  0  0  0  0
    2.9581   -2.9416    3.2955 H   0  0  0  0  0  0  0  0  0  0  0  0
    5.0404   -4.0994    2.1002 H   0  0  0  0  0  0  0  0  0  0  0  0
    5.3256   -2.3924    1.6193 H   0  0  0  0  0  0  0  0  0  0  0  0
    5.2981   -2.8432    3.3579 H   0  0  0  0  0  0  0  0  0  0  0  0
 22 24  2  0  0  0  0
 24 26  1  0  0  0  0
 25 26  1  0  0  0  0
 23 25  2  0  0  0  0
 21 22  1  0  0  0  0
 22 23  1  0  0  0  0
  1  3  1  0  0  0  0
  1  7  1  0  0  0  0
  1  2  2  0  0  0  0
 36 37  1  0  0  0  0
 37 45  1  0  0  0  0
 37 38  2  0  0  0  0
  8  9  1  0  0  0  0
  9 17  1  0  0  0  0
  9 10  2  0  0  0  0
 18 19  1  0  0  0  0
 19 35  1  0  0  0  0
 19 20  2  0  0  0  0
 36 39  1  0  0  0  0
  8 11  1  0  0  0  0
 45 46  1  0  0  0  0
 18 21  1  0  0  0  0
 35 36  1  0  0  0  0
  7  8  1  0  0  0  0
 17 18  1  0  0  0  0
 24 32  1  0  0  0  0
 25 33  1  0  0  0  0
  3  4  1  0  0  0  0
  3  5  1  0  0  0  0
  3  6  1  0  0  0  0
 39 42  1  0  0  0  0
 39 43  1  0  0  0  0
 39 44  1  0  0  0  0
 11 14  1  0  0  0  0
 11 15  1  0  0  0  0
 11 16  1  0  0  0  0
 46 48  1  0  0  0  0
 46 49  1  0  0  0  0
 46 50  1  0  0  0  0
 21 29  1  0  0  0  0
 21 30  1  0  0  0  0
 36 41  1  0  0  0  0
  8 13  1  0  0  0  0
 18 28  1  0  0  0  0
 26 34  1  0  0  0  0
 23 31  1  0  0  0  0
 45 47  1  0  0  0  0
  7 12  1  0  0  0  0
 35 40  1  0  0  0  0
 17 27  1  0  0  0  0
M  CHG  1  23   1
M  END
$$$$

  -OEChem-05262214473D

 50 50  0     1  0  0  0  0  0999 V2000
   -1.6938    0.4865    3.8080 C   0  0  0  0  0  0  0  0  0  0  0  0
   -0.7464   -0.1282    3.3323 O   0  0  0  0  0  0  0  0  0  0  0  0
   -2.1257    0.2041    5.2087 C   0  0  0  0  0  0  0  0  0  0  0  0
   -2.8853   -0.5922    5.2621 H   0  0  0  0  0  0  0  0  0  0  0  0
   -1.2944   -0.1435    5.8430 H   0  0  0  0  0  0  0  0  0  0  0  0
   -2.5637    1.0590    5.7483 H   0  0  0  0  0  0  0  0  0  0  0  0
   -2.4435    1.4589    3.1669 N   0  0  0  0  0  0  0  0  0  0  0  0
   -2.1966    1.8850    1.8145 C   0  0  2  0  0  0  0  0  0  0  0  0
   -0.8617    1.2996    1.3733 C   0  0  0  0  0  0  0  0  0  0  0  0
    0.0104    0.9468    2.1646 O   0  0  0  0  0  0  0  0  0  0  0  0
   -2.1879    3.4017    1.7050 C   0  0  0  0  0  0  0  0  0  0  0  0
   -3.2085    1.8948    3.6787 H   0  0  0  0  0  0  0  0  0  0  0  0
   -3.0007    1.4665    1.1994 H   0  0  0  0  0  0  0  0  0  0  0  0
   -1.3888    3.8390    2.3147 H   0  0  0  0  0  0  0  0  0  0  0  0
   -2.0284    3.7240    0.6708 H   0  0  0  0  0  0  0  0  0  0  0  0
   -3.1380    3.8230    2.0508 H   0  0  0  0  0  0  0  0  0  0  0  0
   -0.7390    1.2565   -0.0101 N   0  0  0  0  0  0  0  0  0  0  0  0
    0.4383    0.7557   -0.6738 C   0  0  2  0  0  0  0  0  0  0  0  0
    1.2501   -0.0101    0.3648 C   0  0  0  0  0  0  0  0  0  0  0  0
    2.0833    0.5268    1.0917 O   0  0  0  0  0  0  0  0  0  0  0  0
    1.2811    1.8809   -1.2851 C   0  0  0  0  0  0  0  0  0  0  0  0
    0.5567    2.6228   -2.3818 C   0  0  0  0  0  0  0  0  0  0  0  0
    0.3798    2.0793   -3.6313 N   0  3  0  0  0  0  0  0  0  0  0  0
   -0.0251    3.8588   -2.4044 C   0  0  0  0  0  0  0  0  0  0  0  0
   -0.2865    2.9440   -4.4032 C   0  0  0  0  0  0  0  0  0  0  0  0
   -0.5383    4.0315   -3.6673 N   0  0  0  0  0  0  0  0  0  0  0  0
   -1.5221    1.5532   -0.5874 H   0  0  0  0  0  0  0  0  0  0  0  0
    0.0897    0.0569   -1.4433 H   0  0  0  0  0  0  0  0  0  0  0  0
    2.2272    1.4797   -1.6731 H   0  0  0  0  0  0  0  0  0  0  0  0
    1.5710    2.6059   -0.5130 H   0  0  0  0  0  0  0  0  0  0  0  0
    0.7043    1.1631   -3.9282 H   0  0  0  0  0  0  0  0  0  0  0  0
   -0.1553    4.6600   -1.7045 H   0  0  0  0  0  0  0  0  0  0  0  0
   -0.5684    2.7922   -5.4317 H   0  0  0  0  0  0  0  0  0  0  0  0
   -1.0324    4.8569   -3.9943 H   0  0  0  0  0  0  0  0  0  0  0  0
    0.8962   -1.3513    0.4152 N   0  0  0  0  0  0  0  0  0  0  0  0
    1.4962   -2.2965    1.3292 C   0  0  2  0  0  0  0  0  0  0  0  0
    3.0092   -2.1625    1.2182 C   0  0  0  0  0  0  0  0  0  0  0  0
    3.5704   -1.6940    0.2299 O   0  0  0  0  0  0  0  0  0  0  0  0
    1.0527   -3.7189    1.0243 C   0  0  0  0  0  0  0  0  0  0  0  0
    0.1794   -1.6852   -0.2223 H   0  0  0  0  0  0  0  0  0  0  0  0
    1.1764   -2.0089    2.3367 H   0  0  0  0  0  0  0  0  0  0  0  0
    1.3641   -4.0248    0.0188 H   0  0  0  0  0  0  0  0  0  0  0  0
    1.4855   -4.4304    1.7352 H   0  0  0  0  0  0  0  0  0  0  0  0
   -0.0380   -3.8064    1.0754 H   0  0  0  0  0  0  0  0  0  0  0  0
    3.6611   -2.6674    2.3345 N   0  0  0  0  0  0  0  0  0  0  0  0
    5.0996   -2.6670    2.4639 C   0  0  0  0  0  0  0  0  0  0  0  0
    3.1152   -3.0195    3.1154 H   0  0  0  0  0  0  0  0  0  0  0  0
    5.5020   -3.6209    2.0922 H   0  0  0  0  0  0  0  0  0  0  0  0
    5.5203   -1.8378    1.8761 H   0  0  0  0  0  0  0  0  0  0  0  0
    5.3724   -2.5416    3.5222 H   0  0  0  0  0  0  0  0  0  0  0  0
 22 24  2  0  0  0  0
 24 26  1  0  0  0  0
 25 26  1  0  0  0  0
 23 25  2  0  0  0  0
 21 22  1  0  0  0  0
 22 23  1  0  0  0  0
  1  3  1  0  0  0  0
  1  7  1  0  0  0  0
  1  2  2  0  0  0  0
 36 37  1  0  0  0  0
 37 45  1  0  0  0  0
 37 38  2  0  0  0  0
  8  9  1  0  0  0  0
  9 17  1  0  0  0  0
  9 10  2  0  0  0  0
 18 19  1  0  0  0  0
 19 35  1  0  0  0  0
 19 20  2  0  0  0  0
 36 39  1  0  0  0  0
  8 11  1  0  0  0  0
 45 46  1  0  0  0  0
 18 21  1  0  0  0  0
 35 36  1  0  0  0  0
  7  8  1  0  0  0  0
 17 18  1  0  0  0  0
 24 32  1  0  0  0  0
 25 33  1  0  0  0  0
  3  4  1  0  0  0  0
  3  5  1  0  0  0  0
  3  6  1  0  0  0  0
 39 42  1  0  0  0  0
 39 43  1  0  0  0  0
 39 44  1  0  0  0  0
 11 14  1  0  0  0  0
 11 15  1  0  0  0  0
 11 16  1  0  0  0  0
 46 48  1  0  0  0  0
 46 49  1  0  0  0  0
 46 50  1  0  0  0  0
 21 29  1  0  0  0  0
 21 30  1  0  0  0  0
 36 41  1  0  0  0  0
  8 13  1  0  0  0  0
 18 28  1  0  0  0  0
 26 34  1  0  0  0  0
 23 31  1  0  0  0  0
 45 47  1  0  0  0  0
  7 12  1  0  0  0  0
 35 40  1  0  0  0  0
 17 27  1  0  0  0  0
M  CHG  1  23   1
M  END
$$$$

  -OEChem-05262214473D

 50 50  0     1  0  0  0  0  0999 V2000
   -1.6938    0.4865    3.8080 C   0  0  0  0  0  0  0  0  0  0  0  0
   -0.7464   -0.1282    3.3323 O   0  0  0  0  0  0  0  0  0  0  0  0
   -2.1257    0.2041    5.2087 C   0  0  0  0  0  0  0  0  0  0  0  0
   -2.8853   -0.5922    5.2621 H   0  0  0  0  0  0  0  0  0  0  0  0
   -1.2944   -0.1435    5.8430 H   0  0  0  0  0  0  0  0  0  0  0  0
   -2.5637    1.0590    5.7483 H   0  0  0  0  0  0  0  0  0  0  0  0
   -2.4435    1.4589    3.1669 N   0  0  0  0  0  0  0  0  0  0  0  0
   -2.1966    1.8850    1.8145 C   0  0  2  0  0  0  0  0  0  0  0  0
   -0.8617    1.2996    1.3733 C   0  0  0  0  0  0  0  0  0  0  0  0
    0.0104    0.9468    2.1646 O   0  0  0  0  0  0  0  0  0  0  0  0
   -2.1879    3.4017    1.7050 C   0  0  0  0  0  0  0  0  0  0  0  0
   -3.2085    1.8948    3.6787 H   0  0  0  0  0  0  0  0  0  0  0  0
   -3.0007    1.4665    1.1994 H   0  0  0  0  0  0  0  0  0  0  0  0
   -1.3888    3.8390    2.3147 H   0  0  0  0  0  0  0  0  0  0  0  0
   -2.0284    3.7240    0.6708 H   0  0  0  0  0  0  0  0  0  0  0  0
   -3.1380    3.8230    2.0508 H   0  0  0  0  0  0  0  0  0  0  0  0
   -0.7390    1.2565   -0.0101 N   0  0  0  0  0  0  0  0  0  0  0  0
    0.4383    0.7557   -0.6738 C   0  0  2  0  0  0  0  0  0  0  0  0
    1.2501   -0.0101    0.3648 C   0  0  0  0  0  0  0  0  0  0  0  0
    1.8779    0.5438    1.2648 O   0  0  0  0  0  0  0  0  0  0  0  0
    1.2811    1.8809   -1.2851 C   0  0  0  0  0  0  0  0  0  0  0  0
    0.5567    2.6228   -2.3818 C   0  0  0  0  0  0  0  0  0  0  0  0
    0.3798    2.0793   -3.6313 N   0  3  0  0  0  0  0  0  0  0  0  0
   -0.0251    3.8588   -2.4044 C   0  0  0  0  0  0  0  0  0  0  0  0
   -0.2865    2.9440   -4.4032 C   0  0  0  0  0  0  0  0  0  0  0  0
   -0.5383    4.0315   -3.6673 N   0  0  0  0  0  0  0  0  0  0  0  0
   -1.5221    1.5532   -0.5874 H   0  0  0  0  0  0  0  0  0  0  0  0
    0.0897    0.0569   -1.4433 H   0  0  0  0  0  0  0  0  0  0  0  0
    2.2272    1.4797   -1.6731 H   0  0  0  0  0  0  0  0  0  0  0  0
    1.5710    2.6059   -0.5130 H   0  0  0  0  0  0  0  0  0  0  0  0
    0.7043    1.1631   -3.9282 H   0  0  0  0  0  0  0  0  0  0  0  0
   -0.1553    4.6600   -1.7045 H   0  0  0  0  0  0  0  0  0  0  0  0
   -0.5684    2.7922   -5.4317 H   0  0  0  0  0  0  0  0  0  0  0  0
   -1.0324    4.8569   -3.9943 H   0  0  0  0  0  0  0  0  0  0  0  0
    1.1476   -1.3838    0.1947 N   0  0  0  0  0  0  0  0  0  0  0  0
    1.8007   -2.3413    1.0581 C   0  0  2  0  0  0  0  0  0  0  0  0
    3.2650   -1.9411    1.1815 C   0  0  0  0  0  0  0  0  0  0  0  0
    3.8419   -1.2430    0.3503 O   0  0  0  0  0  0  0  0  0  0  0  0
    1.6676   -3.7560    0.5162 C   0  0  0  0  0  0  0  0  0  0  0  0
    0.5853   -1.7338   -0.5754 H   0  0  0  0  0  0  0  0  0  0  0  0
    1.3169   -2.2651    2.0380 H   0  0  0  0  0  0  0  0  0  0  0  0
    2.1465   -3.8517   -0.4651 H   0  0  0  0  0  0  0  0  0  0  0  0
    2.1382   -4.4833    1.1860 H   0  0  0  0  0  0  0  0  0  0  0  0
    0.6138   -4.0313    0.4001 H   0  0  0  0  0  0  0  0  0  0  0  0
    3.8633   -2.4910    2.3066 N   0  0  0  0  0  0  0  0  0  0  0  0
    5.2514   -2.2694    2.6385 C   0  0  0  0  0  0  0  0  0  0  0  0
    3.3041   -3.0421    2.9510 H   0  0  0  0  0  0  0  0  0  0  0  0
    5.8645   -3.0762    2.2105 H   0  0  0  0  0  0  0  0  0  0  0  0
    5.5772   -1.3032    2.2259 H   0  0  0  0  0  0  0  0  0  0  0  0
    5.3698   -2.2598    3.7320 H   0  0  0  0  0  0  0  0  0  0  0  0
 22 24  2  0  0  0  0
 24 26  1  0  0  0  0
 25 26  1  0  0  0  0
 23 25  2  0  0  0  0
 21 22  1  0  0  0  0
 22 23  1  0  0  0  0
  1  3  1  0  0  0  0
  1  7  1  0  0  0  0
  1  2  2  0  0  0  0
 36 37  1  0  0  0  0
 37 45  1  0  0  0  0
 37 38  2  0  0  0  0
  8  9  1  0  0  0  0
  9 17  1  0  0  0  0
  9 10  2  0  0  0  0
 18 19  1  0  0  0  0
 19 35  1  0  0  0  0
 19 20  2  0  0  0  0
 36 39  1  0  0  0  0
  8 11  1  0  0  0  0
 45 46  1  0  0  0  0
 18 21  1  0  0  0  0
 35 36  1  0  0  0  0
  7  8  1  0  0  0  0
 17 18  1  0  0  0  0
 24 32  1  0  0  0  0
 25 33  1  0  0  0  0
  3  4  1  0  0  0  0
  3  5  1  0  0  0  0
  3  6  1  0  0  0  0
 39 42  1  0  0  0  0
 39 43  1  0  0  0  0
 39 44  1  0  0  0  0
 11 14  1  0  0  0  0
 11 15  1  0  0  0  0
 11 16  1  0  0  0  0
 46 48  1  0  0  0  0
 46 49  1  0  0  0  0
 46 50  1  0  0  0  0
 21 29  1  0  0  0  0
 21 30  1  0  0  0  0
 36 41  1  0  0  0  0
  8 13  1  0  0  0  0
 18 28  1  0  0  0  0
 26 34  1  0  0  0  0
 23 31  1  0  0  0  0
 45 47  1  0  0  0  0
  7 12  1  0  0  0  0
 35 40  1  0  0  0  0
 17 27  1  0  0  0  0
M  CHG  1  23   1
M  END
$$$$

  -OEChem-05262214473D

 50 50  0     1  0  0  0  0  0999 V2000
   -1.6938    0.4865    3.8080 C   0  0  0  0  0  0  0  0  0  0  0  0
   -0.7464   -0.1282    3.3323 O   0  0  0  0  0  0  0  0  0  0  0  0
   -2.1257    0.2041    5.2087 C   0  0  0  0  0  0  0  0  0  0  0  0
   -2.8853   -0.5922    5.2621 H   0  0  0  0  0  0  0  0  0  0  0  0
   -1.2944   -0.1435    5.8430 H   0  0  0  0  0  0  0  0  0  0  0  0
   -2.5637    1.0590    5.7483 H   0  0  0  0  0  0  0  0  0  0  0  0
   -2.4435    1.4589    3.1669 N   0  0  0  0  0  0  0  0  0  0  0  0
   -2.1966    1.8850    1.8145 C   0  0  2  0  0  0  0  0  0  0  0  0
   -0.8617    1.2996    1.3733 C   0  0  0  0  0  0  0  0  0  0  0  0
    0.0104    0.9468    2.1646 O   0  0  0  0  0  0  0  0  0  0  0  0
   -2.1879    3.4017    1.7050 C   0  0  0  0  0  0  0  0  0  0  0  0
   -3.2085    1.8948    3.6787 H   0  0  0  0  0  0  0  0  0  0  0  0
   -3.0007    1.4665    1.1994 H   0  0  0  0  0  0  0  0  0  0  0  0
   -1.3888    3.8390    2.3147 H   0  0  0  0  0  0  0  0  0  0  0  0
   -2.0284    3.7240    0.6708 H   0  0  0  0  0  0  0  0  0  0  0  0
   -3.1380    3.8230    2.0508 H   0  0  0  0  0  0  0  0  0  0  0  0
   -0.7390    1.2565   -0.0101 N   0  0  0  0  0  0  0  0  0  0  0  0
    0.4383    0.7557   -0.6738 C   0  0  2  0  0  0  0  0  0  0  0  0
    1.2501   -0.0101    0.3648 C   0  0  0  0  0  0  0  0  0  0  0  0
    1.6540    0.5002    1.4076 O   0  0  0  0  0  0  0  0  0  0  0  0
    1.2811    1.8809   -1.2851 C   0  0  0  0  0  0  0  0  0  0  0  0
    0.5567    2.6228   -2.3818 C   0  0  0  0  0  0  0  0  0  0  0  0
    0.3798    2.0793   -3.6313 N   0  3  0  0  0  0  0  0  0  0  0  0
   -0.0251    3.8588   -2.4044 C   0  0  0  0  0  0  0  0  0  0  0  0
   -0.2865    2.9440   -4.4032 C   0  0  0  0  0  0  0  0  0  0  0  0
   -0.5383    4.0315   -3.6673 N   0  0  0  0  0  0  0  0  0  0  0  0
   -1.5221    1.5532   -0.5874 H   0  0  0  0  0  0  0  0  0  0  0  0
    0.0897    0.0569   -1.4433 H   0  0  0  0  0  0  0  0  0  0  0  0
    2.2272    1.4797   -1.6731 H   0  0  0  0  0  0  0  0  0  0  0  0
    1.5710    2.6059   -0.5130 H   0  0  0  0  0  0  0  0  0  0  0  0
    0.7043    1.1631   -3.9282 H   0  0  0  0  0  0  0  0  0  0  0  0
   -0.1553    4.6600   -1.7045 H   0  0  0  0  0  0  0  0  0  0  0  0
   -0.5684    2.7922   -5.4317 H   0  0  0  0  0  0  0  0  0  0  0  0
   -1.0324    4.8569   -3.9943 H   0  0  0  0  0  0  0  0  0  0  0  0
    1.4249   -1.3405    0.0099 N   0  0  0  0  0  0  0  0  0  0  0  0
    2.1380   -2.2935    0.8298 C   0  0  2  0  0  0  0  0  0  0  0  0
    3.4778   -1.6771    1.2098 C   0  0  0  0  0  0  0  0  0  0  0  0
    4.0090   -0.7760    0.5640 O   0  0  0  0  0  0  0  0  0  0  0  0
    2.3342   -3.6134    0.1003 C   0  0  0  0  0  0  0  0  0  0  0  0
    1.0318   -1.6605   -0.8703 H   0  0  0  0  0  0  0  0  0  0  0  0
    1.5366   -2.4466    1.7325 H   0  0  0  0  0  0  0  0  0  0  0  0
    2.9346   -3.4799   -0.8070 H   0  0  0  0  0  0  0  0  0  0  0  0
    2.8494   -4.3436    0.7331 H   0  0  0  0  0  0  0  0  0  0  0  0
    1.3709   -4.0405   -0.1985 H   0  0  0  0  0  0  0  0  0  0  0  0
    4.0311   -2.2811    2.3302 N   0  0  0  0  0  0  0  0  0  0  0  0
    5.3051   -1.8827    2.8816 C   0  0  0  0  0  0  0  0  0  0  0  0
    3.5119   -3.0080    2.8137 H   0  0  0  0  0  0  0  0  0  0  0  0
    6.1033   -2.5024    2.4470 H   0  0  0  0  0  0  0  0  0  0  0  0
    5.4923   -0.8249    2.6448 H   0  0  0  0  0  0  0  0  0  0  0  0
    5.2902   -2.0170    3.9733 H   0  0  0  0  0  0  0  0  0  0  0  0
 22 24  2  0  0  0  0
 24 26  1  0  0  0  0
 25 26  1  0  0  0  0
 23 25  2  0  0  0  0
 21 22  1  0  0  0  0
 22 23  1  0  0  0  0
  1  3  1  0  0  0  0
  1  7  1  0  0  0  0
  1  2  2  0  0  0  0
 36 37  1  0  0  0  0
 37 45  1  0  0  0  0
 37 38  2  0  0  0  0
  8  9  1  0  0  0  0
  9 17  1  0  0  0  0
  9 10  2  0  0  0  0
 18 19  1  0  0  0  0
 19 35  1  0  0  0  0
 19 20  2  0  0  0  0
 36 39  1  0  0  0  0
  8 11  1  0  0  0  0
 45 46  1  0  0  0  0
 18 21  1  0  0  0  0
 35 36  1  0  0  0  0
  7  8  1  0  0  0  0
 17 18  1  0  0  0  0
 24 32  1  0  0  0  0
 25 33  1  0  0  0  0
  3  4  1  0  0  0  0
  3  5  1  0  0  0  0
  3  6  1  0  0  0  0
 39 42  1  0  0  0  0
 39 43  1  0  0  0  0
 39 44  1  0  0  0  0
 11 14  1  0  0  0  0
 11 15  1  0  0  0  0
 11 16  1  0  0  0  0
 46 48  1  0  0  0  0
 46 49  1  0  0  0  0
 46 50  1  0  0  0  0
 21 29  1  0  0  0  0
 21 30  1  0  0  0  0
 36 41  1  0  0  0  0
  8 13  1  0  0  0  0
 18 28  1  0  0  0  0
 26 34  1  0  0  0  0
 23 31  1  0  0  0  0
 45 47  1  0  0  0  0
  7 12  1  0  0  0  0
 35 40  1  0  0  0  0
 17 27  1  0  0  0  0
M  CHG  1  23   1
M  END
$$$$

  -OEChem-05262214473D

 50 50  0     1  0  0  0  0  0999 V2000
   -1.6938    0.4865    3.8080 C   0  0  0  0  0  0  0  0  0  0  0  0
   -0.7464   -0.1282    3.3323 O   0  0  0  0  0  0  0  0  0  0  0  0
   -2.1257    0.2041    5.2087 C   0  0  0  0  0  0  0  0  0  0  0  0
   -2.8853   -0.5922    5.2621 H   0  0  0  0  0  0  0  0  0  0  0  0
   -1.2944   -0.1435    5.8430 H   0  0  0  0  0  0  0  0  0  0  0  0
   -2.5637    1.0590    5.7483 H   0  0  0  0  0  0  0  0  0  0  0  0
   -2.4435    1.4589    3.1669 N   0  0  0  0  0  0  0  0  0  0  0  0
   -2.1966    1.8850    1.8145 C   0  0  2  0  0  0  0  0  0  0  0  0
   -0.8617    1.2996    1.3733 C   0  0  0  0  0  0  0  0  0  0  0  0
    0.0104    0.9468    2.1646 O   0  0  0  0  0  0  0  0  0  0  0  0
   -2.1879    3.4017    1.7050 C   0  0  0  0  0  0  0  0  0  0  0  0
   -3.2085    1.8948    3.6787 H   0  0  0  0  0  0  0  0  0  0  0  0
   -3.0007    1.4665    1.1994 H   0  0  0  0  0  0  0  0  0  0  0  0
   -1.3888    3.8390    2.3147 H   0  0  0  0  0  0  0  0  0  0  0  0
   -2.0284    3.7240    0.6708 H   0  0  0  0  0  0  0  0  0  0  0  0
   -3.1380    3.8230    2.0508 H   0  0  0  0  0  0  0  0  0  0  0  0
   -0.7390    1.2565   -0.0101 N   0  0  0  0  0  0  0  0  0  0  0  0
    0.4383    0.7557   -0.6738 C   0  0  2  0  0  0  0  0  0  0  0  0
    1.2501   -0.0101    0.3648 C   0  0  0  0  0  0  0  0  0  0  0  0
    1.4268    0.3988    1.5104 O   0  0  0  0  0  0  0  0  0  0  0  0
    1.2811    1.8809   -1.2851 C   0  0  0  0  0  0  0  0  0  0  0  0
    0.5567    2.6228   -2.3818 C   0  0  0  0  0  0  0  0  0  0  0  0
    0.3798    2.0793   -3.6313 N   0  3  0  0  0  0  0  0  0  0  0  0
   -0.0251    3.8588   -2.4044 C   0  0  0  0  0  0  0  0  0  0  0  0
   -0.2865    2.9440   -4.4032 C   0  0  0  0  0  0  0  0  0  0  0  0
   -0.5383    4.0315   -3.6673 N   0  0  0  0  0  0  0  0  0  0  0  0
   -1.5221    1.5532   -0.5874 H   0  0  0  0  0  0  0  0  0  0  0  0
    0.0897    0.0569   -1.4433 H   0  0  0  0  0  0  0  0  0  0  0  0
    2.2272    1.4797   -1.6731 H   0  0  0  0  0  0  0  0  0  0  0  0
    1.5710    2.6059   -0.5130 H   0  0  0  0  0  0  0  0  0  0  0  0
    0.7043    1.1631   -3.9282 H   0  0  0  0  0  0  0  0  0  0  0  0
   -0.1553    4.6600   -1.7045 H   0  0  0  0  0  0  0  0  0  0  0  0
   -0.5684    2.7922   -5.4317 H   0  0  0  0  0  0  0  0  0  0  0  0
   -1.0324    4.8569   -3.9943 H   0  0  0  0  0  0  0  0  0  0  0  0
    1.7091   -1.2244   -0.1266 N   0  0  0  0  0  0  0  0  0  0  0  0
    2.4850   -2.1563    0.6596 C   0  0  2  0  0  0  0  0  0  0  0  0
    3.6331   -1.3885    1.3013 C   0  0  0  0  0  0  0  0  0  0  0  0
    4.0602   -0.3250    0.8566 O   0  0  0  0  0  0  0  0  0  0  0  0
    3.0071   -3.3007   -0.1951 C   0  0  0  0  0  0  0  0  0  0  0  0
    1.4884   -1.4703   -1.0871 H   0  0  0  0  0  0  0  0  0  0  0  0
    1.8205   -2.5410    1.4409 H   0  0  0  0  0  0  0  0  0  0  0  0
    3.6748   -2.9347   -0.9835 H   0  0  0  0  0  0  0  0  0  0  0  0
    3.5706   -4.0208    0.4073 H   0  0  0  0  0  0  0  0  0  0  0  0
    2.1816   -3.8334   -0.6795 H   0  0  0  0  0  0  0  0  0  0  0  0
    4.1531   -2.0520    2.4037 N   0  0  0  0  0  0  0  0  0  0  0  0
    5.2573   -1.5332    3.1767 C   0  0  0  0  0  0  0  0  0  0  0  0
    3.7245   -2.9195    2.7128 H   0  0  0  0  0  0  0  0  0  0  0  0
    6.2020   -1.9387    2.7855 H   0  0  0  0  0  0  0  0  0  0  0  0
    5.2716   -0.4357    3.1044 H   0  0  0  0  0  0  0  0  0  0  0  0
    5.1392   -1.8297    4.2294 H   0  0  0  0  0  0  0  0  0  0  0  0
 22 24  2  0  0  0  0
 24 26  1  0  0  0  0
 25 26  1  0  0  0  0
 23 25  2  0  0  0  0
 21 22  1  0  0  0  0
 22 23  1  0  0  0  0
  1  3  1  0  0  0  0
  1  7  1  0  0  0  0
  1  2  2  0  0  0  0
 36 37  1  0  0  0  0
 37 45  1  0  0  0  0
 37 38  2  0  0  0  0
  8  9  1  0  0  0  0
  9 17  1  0  0  0  0
  9 10  2  0  0  0  0
 18 19  1  0  0  0  0
 19 35  1  0  0  0  0
 19 20  2  0  0  0  0
 36 39  1  0  0  0  0
  8 11  1  0  0  0  0
 45 46  1  0  0  0  0
 18 21  1  0  0  0  0
 35 36  1  0  0  0  0
  7  8  1  0  0  0  0
 17 18  1  0  0  0  0
 24 32  1  0  0  0  0
 25 33  1  0  0  0  0
  3  4  1  0  0  0  0
  3  5  1  0  0  0  0
  3  6  1  0  0  0  0
 39 42  1  0  0  0  0
 39 43  1  0  0  0  0
 39 44  1  0  0  0  0
 11 14  1  0  0  0  0
 11 15  1  0  0  0  0
 11 16  1  0  0  0  0
 46 48  1  0  0  0  0
 46 49  1  0  0  0  0
 46 50  1  0  0  0  0
 21 29  1  0  0  0  0
 21 30  1  0  0  0  0
 36 41  1  0  0  0  0
  8 13  1  0  0  0  0
 18 28  1  0  0  0  0
 26 34  1  0  0  0  0
 23 31  1  0  0  0  0
 45 47  1  0  0  0  0
  7 12  1  0  0  0  0
 35 40  1  0  0  0  0
 17 27  1  0  0  0  0
M  CHG  1  23   1
M  END
$$$$

  -OEChem-05262214473D

 50 50  0     1  0  0  0  0  0999 V2000
   -1.6938    0.4865    3.8080 C   0  0  0  0  0  0  0  0  0  0  0  0
   -0.7464   -0.1282    3.3323 O   0  0  0  0  0  0  0  0  0  0  0  0
   -2.1257    0.2041    5.2087 C   0  0  0  0  0  0  0  0  0  0  0  0
   -2.8853   -0.5922    5.2621 H   0  0  0  0  0  0  0  0  0  0  0  0
   -1.2944   -0.1435    5.8430 H   0  0  0  0  0  0  0  0  0  0  0  0
   -2.5637    1.0590    5.7483 H   0  0  0  0  0  0  0  0  0  0  0  0
   -2.4435    1.4589    3.1669 N   0  0  0  0  0  0  0  0  0  0  0  0
   -2.1966    1.8850    1.8145 C   0  0  2  0  0  0  0  0  0  0  0  0
   -0.8617    1.2996    1.3733 C   0  0  0  0  0  0  0  0  0  0  0  0
    0.0104    0.9468    2.1646 O   0  0  0  0  0  0  0  0  0  0  0  0
   -2.1879    3.4017    1.7050 C   0  0  0  0  0  0  0  0  0  0  0  0
   -3.2085    1.8948    3.6787 H   0  0  0  0  0  0  0  0  0  0  0  0
   -3.0007    1.4665    1.1994 H   0  0  0  0  0  0  0  0  0  0  0  0
   -1.3888    3.8390    2.3147 H   0  0  0  0  0  0  0  0  0  0  0  0
   -2.0284    3.7240    0.6708 H   0  0  0  0  0  0  0  0  0  0  0  0
   -3.1380    3.8230    2.0508 H   0  0  0  0  0  0  0  0  0  0  0  0
   -0.7390    1.2565   -0.0101 N   0  0  0  0  0  0  0  0  0  0  0  0
    0.4383    0.7557   -0.6738 C   0  0  2  0  0  0  0  0  0  0  0  0
    1.2501   -0.0101    0.3648 C   0  0  0  0  0  0  0  0  0  0  0  0
    1.2119    0.2467    1.5663 O   0  0  0  0  0  0  0  0  0  0  0  0
    1.2811    1.8809   -1.2851 C   0  0  0  0  0  0  0  0  0  0  0  0
    0.5567    2.6228   -2.3818 C   0  0  0  0  0  0  0  0  0  0  0  0
    0.3798    2.0793   -3.6313 N   0  3  0  0  0  0  0  0  0  0  0  0
   -0.0251    3.8588   -2.4044 C   0  0  0  0  0  0  0  0  0  0  0  0
   -0.2865    2.9440   -4.4032 C   0  0  0  0  0  0  0  0  0  0  0  0
   -0.5383    4.0315   -3.6673 N   0  0  0  0  0  0  0  0  0  0  0  0
   -1.5221    1.5532   -0.5874 H   0  0  0  0  0  0  0  0  0  0  0  0
    0.0897    0.0569   -1.4433 H   0  0  0  0  0  0  0  0  0  0  0  0
    2.2272    1.4797   -1.6731 H   0  0  0  0  0  0  0  0  0  0  0  0
    1.5710    2.6059   -0.5130 H   0  0  0  0  0  0  0  0  0  0  0  0
    0.7043    1.1631   -3.9282 H   0  0  0  0  0  0  0  0  0  0  0  0
   -0.1553    4.6600   -1.7045 H   0  0  0  0  0  0  0  0  0  0  0  0
   -0.5684    2.7922   -5.4317 H   0  0  0  0  0  0  0  0  0  0  0  0
   -1.0324    4.8569   -3.9943 H   0  0  0  0  0  0  0  0  0  0  0  0
    1.9808   -1.0432   -0.2054 N   0  0  0  0  0  0  0  0  0  0  0  0
    2.8182   -1.9392    0.5593 C   0  0  2  0  0  0  0  0  0  0  0  0
    3.7204   -1.0949    1.4495 C   0  0  0  0  0  0  0  0  0  0  0  0
    3.9921    0.0794    1.2079 O   0  0  0  0  0  0  0  0  0  0  0  0
    3.6402   -2.8395   -0.3499 C   0  0  0  0  0  0  0  0  0  0  0  0
    1.9242   -1.1763   -1.2109 H   0  0  0  0  0  0  0  0  0  0  0  0
    2.1493   -2.5421    1.1831 H   0  0  0  0  0  0  0  0  0  0  0  0
    4.3165   -2.2532   -0.9826 H   0  0  0  0  0  0  0  0  0  0  0  0
    4.2527   -3.5370    0.2309 H   0  0  0  0  0  0  0  0  0  0  0  0
    2.9907   -3.4242   -1.0102 H   0  0  0  0  0  0  0  0  0  0  0  0
    4.2210   -1.8194    2.5222 N   0  0  0  0  0  0  0  0  0  0  0  0
    5.1111   -1.2447    3.5037 C   0  0  0  0  0  0  0  0  0  0  0  0
    3.9273   -2.7827    2.6551 H   0  0  0  0  0  0  0  0  0  0  0  0
    6.1539   -1.4234    3.2030 H   0  0  0  0  0  0  0  0  0  0  0  0
    4.9300   -0.1619    3.5732 H   0  0  0  0  0  0  0  0  0  0  0  0
    4.9270   -1.7108    4.4830 H   0  0  0  0  0  0  0  0  0  0  0  0
 22 24  2  0  0  0  0
 24 26  1  0  0  0  0
 25 26  1  0  0  0  0
 23 25  2  0  0  0  0
 21 22  1  0  0  0  0
 22 23  1  0  0  0  0
  1  3  1  0  0  0  0
  1  7  1  0  0  0  0
  1  2  2  0  0  0  0
 36 37  1  0  0  0  0
 37 45  1  0  0  0  0
 37 38  2  0  0  0  0
  8  9  1  0  0  0  0
  9 17  1  0  0  0  0
  9 10  2  0  0  0  0
 18 19  1  0  0  0  0
 19 35  1  0  0  0  0
 19 20  2  0  0  0  0
 36 39  1  0  0  0  0
  8 11  1  0  0  0  0
 45 46  1  0  0  0  0
 18 21  1  0  0  0  0
 35 36  1  0  0  0  0
  7  8  1  0  0  0  0
 17 18  1  0  0  0  0
 24 32  1  0  0  0  0
 25 33  1  0  0  0  0
  3  4  1  0  0  0  0
  3  5  1  0  0  0  0
  3  6  1  0  0  0  0
 39 42  1  0  0  0  0
 39 43  1  0  0  0  0
 39 44  1  0  0  0  0
 11 14  1  0  0  0  0
 11 15  1  0  0  0  0
 11 16  1  0  0  0  0
 46 48  1  0  0  0  0
 46 49  1  0  0  0  0
 46 50  1  0  0  0  0
 21 29  1  0  0  0  0
 21 30  1  0  0  0  0
 36 41  1  0  0  0  0
  8 13  1  0  0  0  0
 18 28  1  0  0  0  0
 26 34  1  0  0  0  0
 23 31  1  0  0  0  0
 45 47  1  0  0  0  0
  7 12  1  0  0  0  0
 35 40  1  0  0  0  0
 17 27  1  0  0  0  0
M  CHG  1  23   1
M  END
$$$$

  -OEChem-05262214473D

 50 50  0     1  0  0  0  0  0999 V2000
   -1.6938    0.4865    3.8080 C   0  0  0  0  0  0  0  0  0  0  0  0
   -0.7464   -0.1282    3.3323 O   0  0  0  0  0  0  0  0  0  0  0  0
   -2.1257    0.2041    5.2087 C   0  0  0  0  0  0  0  0  0  0  0  0
   -2.8853   -0.5922    5.2621 H   0  0  0  0  0  0  0  0  0  0  0  0
   -1.2944   -0.1435    5.8430 H   0  0  0  0  0  0  0  0  0  0  0  0
   -2.5637    1.0590    5.7483 H   0  0  0  0  0  0  0  0  0  0  0  0
   -2.4435    1.4589    3.1669 N   0  0  0  0  0  0  0  0  0  0  0  0
   -2.1966    1.8850    1.8145 C   0  0  2  0  0  0  0  0  0  0  0  0
   -0.8617    1.2996    1.3733 C   0  0  0  0  0  0  0  0  0  0  0  0
    0.0104    0.9468    2.1646 O   0  0  0  0  0  0  0  0  0  0  0  0
   -2.1879    3.4017    1.7050 C   0  0  0  0  0  0  0  0  0  0  0  0
   -3.2085    1.8948    3.6787 H   0  0  0  0  0  0  0  0  0  0  0  0
   -3.0007    1.4665    1.1994 H   0  0  0  0  0  0  0  0  0  0  0  0
   -1.3888    3.8390    2.3147 H   0  0  0  0  0  0  0  0  0  0  0  0
   -2.0284    3.7240    0.6708 H   0  0  0  0  0  0  0  0  0  0  0  0
   -3.1380    3.8230    2.0508 H   0  0  0  0  0  0  0  0  0  0  0  0
   -0.7390    1.2565   -0.0101 N   0  0  0  0  0  0  0  0  0  0  0  0
    0.4383    0.7557   -0.6738 C   0  0  2  0  0  0  0  0  0  0  0  0
    1.2501   -0.0101    0.3648 C   0  0  0  0  0  0  0  0  0  0  0  0
    1.0238    0.0541    1.5713 O   0  0  0  0  0  0  0  0  0  0  0  0
    1.2811    1.8809   -1.2851 C   0  0  0  0  0  0  0  0  0  0  0  0
    0.5567    2.6228   -2.3818 C   0  0  0  0  0  0  0  0  0  0  0  0
    0.3798    2.0793   -3.6313 N   0  3  0  0  0  0  0  0  0  0  0  0
   -0.0251    3.8588   -2.4044 C   0  0  0  0  0  0  0  0  0  0  0  0
   -0.2865    2.9440   -4.4032 C   0  0  0  0  0  0  0  0  0  0  0  0
   -0.5383    4.0315   -3.6673 N   0  0  0  0  0  0  0  0  0  0  0  0
   -1.5221    1.5532   -0.5874 H   0  0  0  0  0  0  0  0  0  0  0  0
    0.0897    0.0569   -1.4433 H   0  0  0  0  0  0  0  0  0  0  0  0
    2.2272    1.4797   -1.6731 H   0  0  0  0  0  0  0  0  0  0  0  0
    1.5710    2.6059   -0.5130 H   0  0  0  0  0  0  0  0  0  0  0  0
    0.7043    1.1631   -3.9282 H   0  0  0  0  0  0  0  0  0  0  0  0
   -0.1553    4.6600   -1.7045 H   0  0  0  0  0  0  0  0  0  0  0  0
   -0.5684    2.7922   -5.4317 H   0  0  0  0  0  0  0  0  0  0  0  0
   -1.0324    4.8569   -3.9943 H   0  0  0  0  0  0  0  0  0  0  0  0
    2.2217   -0.8095   -0.2213 N   0  0  0  0  0  0  0  0  0  0  0  0
    3.1147   -1.6570    0.5356 C   0  0  2  0  0  0  0  0  0  0  0  0
    3.7336   -0.8164    1.6446 C   0  0  0  0  0  0  0  0  0  0  0  0
    3.8094    0.4095    1.5942 O   0  0  0  0  0  0  0  0  0  0  0  0
    4.1906   -2.2609   -0.3535 C   0  0  0  0  0  0  0  0  0  0  0  0
    2.3094   -0.7983   -1.2332 H   0  0  0  0  0  0  0  0  0  0  0  0
    2.5005   -2.4495    0.9768 H   0  0  0  0  0  0  0  0  0  0  0  0
    4.8162   -1.4819   -0.8045 H   0  0  0  0  0  0  0  0  0  0  0  0
    4.8491   -2.9251    0.2159 H   0  0  0  0  0  0  0  0  0  0  0  0
    3.7430   -2.8406   -1.1680 H   0  0  0  0  0  0  0  0  0  0  0  0
    4.2301   -1.5991    2.6775 N   0  0  0  0  0  0  0  0  0  0  0  0
    4.8764   -1.0369    3.8404 C   0  0  0  0  0  0  0  0  0  0  0  0
    4.1066   -2.6068    2.6447 H   0  0  0  0  0  0  0  0  0  0  0  0
    5.9624   -0.9917    3.6710 H   0  0  0  0  0  0  0  0  0  0  0  0
    4.4909   -0.0223    4.0194 H   0  0  0  0  0  0  0  0  0  0  0  0
    4.6681   -1.6683    4.7167 H   0  0  0  0  0  0  0  0  0  0  0  0
 22 24  2  0  0  0  0
 24 26  1  0  0  0  0
 25 26  1  0  0  0  0
 23 25  2  0  0  0  0
 21 22  1  0  0  0  0
 22 23  1  0  0  0  0
  1  3  1  0  0  0  0
  1  7  1  0  0  0  0
  1  2  2  0  0  0  0
 36 37  1  0  0  0  0
 37 45  1  0  0  0  0
 37 38  2  0  0  0  0
  8  9  1  0  0  0  0
  9 17  1  0  0  0  0
  9 10  2  0  0  0  0
 18 19  1  0  0  0  0
 19 35  1  0  0  0  0
 19 20  2  0  0  0  0
 36 39  1  0  0  0  0
  8 11  1  0  0  0  0
 45 46  1  0  0  0  0
 18 21  1  0  0  0  0
 35 36  1  0  0  0  0
  7  8  1  0  0  0  0
 17 18  1  0  0  0  0
 24 32  1  0  0  0  0
 25 33  1  0  0  0  0
  3  4  1  0  0  0  0
  3  5  1  0  0  0  0
  3  6  1  0  0  0  0
 39 42  1  0  0  0  0
 39 43  1  0  0  0  0
 39 44  1  0  0  0  0
 11 14  1  0  0  0  0
 11 15  1  0  0  0  0
 11 16  1  0  0  0  0
 46 48  1  0  0  0  0
 46 49  1  0  0  0  0
 46 50  1  0  0  0  0
 21 29  1  0  0  0  0
 21 30  1  0  0  0  0
 36 41  1  0  0  0  0
  8 13  1  0  0  0  0
 18 28  1  0  0  0  0
 26 34  1  0  0  0  0
 23 31  1  0  0  0  0
 45 47  1  0  0  0  0
  7 12  1  0  0  0  0
 35 40  1  0  0  0  0
 17 27  1  0  0  0  0
M  CHG  1  23   1
M  END
$$$$

  -OEChem-05262214473D

 50 50  0     1  0  0  0  0  0999 V2000
   -1.6938    0.4865    3.8080 C   0  0  0  0  0  0  0  0  0  0  0  0
   -0.7464   -0.1282    3.3323 O   0  0  0  0  0  0  0  0  0  0  0  0
   -2.1257    0.2041    5.2087 C   0  0  0  0  0  0  0  0  0  0  0  0
   -2.8853   -0.5922    5.2621 H   0  0  0  0  0  0  0  0  0  0  0  0
   -1.2944   -0.1435    5.8430 H   0  0  0  0  0  0  0  0  0  0  0  0
   -2.5637    1.0590    5.7483 H   0  0  0  0  0  0  0  0  0  0  0  0
   -2.4435    1.4589    3.1669 N   0  0  0  0  0  0  0  0  0  0  0  0
   -2.1966    1.8850    1.8145 C   0  0  2  0  0  0  0  0  0  0  0  0
   -0.8617    1.2996    1.3733 C   0  0  0  0  0  0  0  0  0  0  0  0
    0.0104    0.9468    2.1646 O   0  0  0  0  0  0  0  0  0  0  0  0
   -2.1879    3.4017    1.7050 C   0  0  0  0  0  0  0  0  0  0  0  0
   -3.2085    1.8948    3.6787 H   0  0  0  0  0  0  0  0  0  0  0  0
   -3.0007    1.4665    1.1994 H   0  0  0  0  0  0  0  0  0  0  0  0
   -1.3888    3.8390    2.3147 H   0  0  0  0  0  0  0  0  0  0  0  0
   -2.0284    3.7240    0.6708 H   0  0  0  0  0  0  0  0  0  0  0  0
   -3.1380    3.8230    2.0508 H   0  0  0  0  0  0  0  0  0  0  0  0
   -0.7390    1.2565   -0.0101 N   0  0  0  0  0  0  0  0  0  0  0  0
    0.4383    0.7557   -0.6738 C   0  0  2  0  0  0  0  0  0  0  0  0
    1.0503   -0.3057    0.2335 C   0  0  0  0  0  0  0  0  0  0  0  0
    0.5437   -0.6473    1.3000 O   0  0  0  0  0  0  0  0  0  0  0  0
    1.4576    1.8645   -0.9597 C   0  0  0  0  0  0  0  0  0  0  0  0
    0.9354    2.9034   -1.9219 C   0  0  0  0  0  0  0  0  0  0  0  0
    0.8293    2.6564   -3.2694 N   0  3  0  0  0  0  0  0  0  0  0  0
    0.4978    4.1820   -1.7207 C   0  0  0  0  0  0  0  0  0  0  0  0
    0.3446    3.7400   -3.8844 C   0  0  0  0  0  0  0  0  0  0  0  0
    0.1391    4.6757   -2.9519 N   0  0  0  0  0  0  0  0  0  0  0  0
   -1.5221    1.5532   -0.5874 H   0  0  0  0  0  0  0  0  0  0  0  0
    0.0962    0.2813   -1.6011 H   0  0  0  0  0  0  0  0  0  0  0  0
    2.3889    1.4333   -1.3513 H   0  0  0  0  0  0  0  0  0  0  0  0
    1.7442    2.3714   -0.0288 H   0  0  0  0  0  0  0  0  0  0  0  0
    1.0802    1.7869   -3.7319 H   0  0  0  0  0  0  0  0  0  0  0  0
    0.3849    4.8318   -0.8758 H   0  0  0  0  0  0  0  0  0  0  0  0
    0.1549    3.8409   -4.9399 H   0  0  0  0  0  0  0  0  0  0  0  0
   -0.2255    5.6075   -3.1292 H   0  0  0  0  0  0  0  0  0  0  0  0
    2.1995   -0.8581   -0.3150 N   0  0  0  0  0  0  0  0  0  0  0  0
    2.9633   -1.9024    0.3291 C   0  0  2  0  0  0  0  0  0  0  0  0
    3.2282   -1.4733    1.7661 C   0  0  0  0  0  0  0  0  0  0  0  0
    3.2035   -0.2997    2.1312 O   0  0  0  0  0  0  0  0  0  0  0  0
    4.2667   -2.1691   -0.4076 C   0  0  0  0  0  0  0  0  0  0  0  0
    2.5198   -0.5109   -1.2142 H   0  0  0  0  0  0  0  0  0  0  0  0
    2.3366   -2.8009    0.3252 H   0  0  0  0  0  0  0  0  0  0  0  0
    4.9080   -1.2801   -0.4142 H   0  0  0  0  0  0  0  0  0  0  0  0
    4.8308   -2.9800    0.0650 H   0  0  0  0  0  0  0  0  0  0  0  0
    4.0756   -2.4487   -1.4492 H   0  0  0  0  0  0  0  0  0  0  0  0
    3.5378   -2.5510    2.5840 N   0  0  0  0  0  0  0  0  0  0  0  0
    3.8416   -2.4022    3.9881 C   0  0  0  0  0  0  0  0  0  0  0  0
    3.5162   -3.4915    2.2008 H   0  0  0  0  0  0  0  0  0  0  0  0
    4.9285   -2.2956    4.1193 H   0  0  0  0  0  0  0  0  0  0  0  0
    3.3356   -1.5075    4.3798 H   0  0  0  0  0  0  0  0  0  0  0  0
    3.4917   -3.2902    4.5349 H   0  0  0  0  0  0  0  0  0  0  0  0
 22 24  2  0  0  0  0
 24 26  1  0  0  0  0
 25 26  1  0  0  0  0
 23 25  2  0  0  0  0
 21 22  1  0  0  0  0
 22 23  1  0  0  0  0
  1  3  1  0  0  0  0
  1  7  1  0  0  0  0
  1  2  2  0  0  0  0
 36 37  1  0  0  0  0
 37 45  1  0  0  0  0
 37 38  2  0  0  0  0
  8  9  1  0  0  0  0
  9 17  1  0  0  0  0
  9 10  2  0  0  0  0
 18 19  1  0  0  0  0
 19 35  1  0  0  0  0
 19 20  2  0  0  0  0
 36 39  1  0  0  0  0
  8 11  1  0  0  0  0
 45 46  1  0  0  0  0
 18 21  1  0  0  0  0
 35 36  1  0  0  0  0
  7  8  1  0  0  0  0
 17 18  1  0  0  0  0
 24 32  1  0  0  0  0
 25 33  1  0  0  0  0
  3  4  1  0  0  0  0
  3  5  1  0  0  0  0
  3  6  1  0  0  0  0
 39 42  1  0  0  0  0
 39 43  1  0  0  0  0
 39 44  1  0  0  0  0
 11 14  1  0  0  0  0
 11 15  1  0  0  0  0
 11 16  1  0  0  0  0
 46 48  1  0  0  0  0
 46 49  1  0  0  0  0
 46 50  1  0  0  0  0
 21 29  1  0  0  0  0
 21 30  1  0  0  0  0
 36 41  1  0  0  0  0
  8 13  1  0  0  0  0
 18 28  1  0  0  0  0
 26 34  1  0  0  0  0
 23 31  1  0  0  0  0
 45 47  1  0  0  0  0
  7 12  1  0  0  0  0
 35 40  1  0  0  0  0
 17 27  1  0  0  0  0
M  CHG  1  23   1
M  END
$$$$

  -OEChem-05262214473D

 50 50  0     1  0  0  0  0  0999 V2000
   -1.6938    0.4865    3.8080 C   0  0  0  0  0  0  0  0  0  0  0  0
   -0.7464   -0.1282    3.3323 O   0  0  0  0  0  0  0  0  0  0  0  0
   -2.1257    0.2041    5.2087 C   0  0  0  0  0  0  0  0  0  0  0  0
   -2.8853   -0.5922    5.2621 H   0  0  0  0  0  0  0  0  0  0  0  0
   -1.2944   -0.1435    5.8430 H   0  0  0  0  0  0  0  0  0  0  0  0
   -2.5637    1.0590    5.7483 H   0  0  0  0  0  0  0  0  0  0  0  0
   -2.4435    1.4589    3.1669 N   0  0  0  0  0  0  0  0  0  0  0  0
   -2.1966    1.8850    1.8145 C   0  0  2  0  0  0  0  0  0  0  0  0
   -0.8617    1.2996    1.3733 C   0  0  0  0  0  0  0  0  0  0  0  0
    0.0104    0.9468    2.1646 O   0  0  0  0  0  0  0  0  0  0  0  0
   -2.1879    3.4017    1.7050 C   0  0  0  0  0  0  0  0  0  0  0  0
   -3.2085    1.8948    3.6787 H   0  0  0  0  0  0  0  0  0  0  0  0
   -3.0007    1.4665    1.1994 H   0  0  0  0  0  0  0  0  0  0  0  0
   -1.3888    3.8390    2.3147 H   0  0  0  0  0  0  0  0  0  0  0  0
   -2.0284    3.7240    0.6708 H   0  0  0  0  0  0  0  0  0  0  0  0
   -3.1380    3.8230    2.0508 H   0  0  0  0  0  0  0  0  0  0  0  0
   -0.7390    1.2565   -0.0101 N   0  0  0  0  0  0  0  0  0  0  0  0
    0.4383    0.7557   -0.6738 C   0  0  2  0  0  0  0  0  0  0  0  0
    1.0503   -0.3057    0.2335 C   0  0  0  0  0  0  0  0  0  0  0  0
    0.4306   -0.8404    1.1504 O   0  0  0  0  0  0  0  0  0  0  0  0
    1.4576    1.8645   -0.9597 C   0  0  0  0  0  0  0  0  0  0  0  0
    0.9354    2.9034   -1.9219 C   0  0  0  0  0  0  0  0  0  0  0  0
    0.8293    2.6564   -3.2694 N   0  3  0  0  0  0  0  0  0  0  0  0
    0.4978    4.1820   -1.7207 C   0  0  0  0  0  0  0  0  0  0  0  0
    0.3446    3.7400   -3.8844 C   0  0  0  0  0  0  0  0  0  0  0  0
    0.1391    4.6757   -2.9519 N   0  0  0  0  0  0  0  0  0  0  0  0
   -1.5221    1.5532   -0.5874 H   0  0  0  0  0  0  0  0  0  0  0  0
    0.0962    0.2813   -1.6011 H   0  0  0  0  0  0  0  0  0  0  0  0
    2.3889    1.4333   -1.3513 H   0  0  0  0  0  0  0  0  0  0  0  0
    1.7442    2.3714   -0.0288 H   0  0  0  0  0  0  0  0  0  0  0  0
    1.0802    1.7869   -3.7319 H   0  0  0  0  0  0  0  0  0  0  0  0
    0.3849    4.8318   -0.8758 H   0  0  0  0  0  0  0  0  0  0  0  0
    0.1549    3.8409   -4.9399 H   0  0  0  0  0  0  0  0  0  0  0  0
   -0.2255    5.6075   -3.1292 H   0  0  0  0  0  0  0  0  0  0  0  0
    2.3513   -0.6176   -0.1361 N   0  0  0  0  0  0  0  0  0  0  0  0
    3.1533   -1.6092    0.5439 C   0  0  2  0  0  0  0  0  0  0  0  0
    3.0932   -1.3190    2.0377 C   0  0  0  0  0  0  0  0  0  0  0  0
    2.8145   -0.2127    2.4954 O   0  0  0  0  0  0  0  0  0  0  0  0
    4.5899   -1.5960    0.0450 C   0  0  0  0  0  0  0  0  0  0  0  0
    2.7604   -0.1241   -0.9240 H   0  0  0  0  0  0  0  0  0  0  0  0
    2.6921   -2.5820    0.3414 H   0  0  0  0  0  0  0  0  0  0  0  0
    5.0685   -0.6292    0.2391 H   0  0  0  0  0  0  0  0  0  0  0  0
    5.1891   -2.3669    0.5406 H   0  0  0  0  0  0  0  0  0  0  0  0
    4.6291   -1.7754   -1.0349 H   0  0  0  0  0  0  0  0  0  0  0  0
    3.4295   -2.4296    2.7991 N   0  0  0  0  0  0  0  0  0  0  0  0
    3.4587   -2.4052    4.2429 C   0  0  0  0  0  0  0  0  0  0  0  0
    3.6282   -3.3114    2.3358 H   0  0  0  0  0  0  0  0  0  0  0  0
    4.4745   -2.1589    4.5855 H   0  0  0  0  0  0  0  0  0  0  0  0
    2.7534   -1.6455    4.6110 H   0  0  0  0  0  0  0  0  0  0  0  0
    3.1700   -3.3927    4.6321 H   0  0  0  0  0  0  0  0  0  0  0  0
 22 24  2  0  0  0  0
 24 26  1  0  0  0  0
 25 26  1  0  0  0  0
 23 25  2  0  0  0  0
 21 22  1  0  0  0  0
 22 23  1  0  0  0  0
  1  3  1  0  0  0  0
  1  7  1  0  0  0  0
  1  2  2  0  0  0  0
 36 37  1  0  0  0  0
 37 45  1  0  0  0  0
 37 38  2  0  0  0  0
  8  9  1  0  0  0  0
  9 17  1  0  0  0  0
  9 10  2  0  0  0  0
 18 19  1  0  0  0  0
 19 35  1  0  0  0  0
 19 20  2  0  0  0  0
 36 39  1  0  0  0  0
  8 11  1  0  0  0  0
 45 46  1  0  0  0  0
 18 21  1  0  0  0  0
 35 36  1  0  0  0  0
  7  8  1  0  0  0  0
 17 18  1  0  0  0  0
 24 32  1  0  0  0  0
 25 33  1  0  0  0  0
  3  4  1  0  0  0  0
  3  5  1  0  0  0  0
  3  6  1  0  0  0  0
 39 42  1  0  0  0  0
 39 43  1  0  0  0  0
 39 44  1  0  0  0  0
 11 14  1  0  0  0  0
 11 15  1  0  0  0  0
 11 16  1  0  0  0  0
 46 48  1  0  0  0  0
 46 49  1  0  0  0  0
 46 50  1  0  0  0  0
 21 29  1  0  0  0  0
 21 30  1  0  0  0  0
 36 41  1  0  0  0  0
  8 13  1  0  0  0  0
 18 28  1  0  0  0  0
 26 34  1  0  0  0  0
 23 31  1  0  0  0  0
 45 47  1  0  0  0  0
  7 12  1  0  0  0  0
 35 40  1  0  0  0  0
 17 27  1  0  0  0  0
M  CHG  1  23   1
M  END
$$$$

  -OEChem-05262214473D

 50 50  0     1  0  0  0  0  0999 V2000
   -1.6938    0.4865    3.8080 C   0  0  0  0  0  0  0  0  0  0  0  0
   -0.7464   -0.1282    3.3323 O   0  0  0  0  0  0  0  0  0  0  0  0
   -2.1257    0.2041    5.2087 C   0  0  0  0  0  0  0  0  0  0  0  0
   -2.8853   -0.5922    5.2621 H   0  0  0  0  0  0  0  0  0  0  0  0
   -1.2944   -0.1435    5.8430 H   0  0  0  0  0  0  0  0  0  0  0  0
   -2.5637    1.0590    5.7483 H   0  0  0  0  0  0  0  0  0  0  0  0
   -2.4435    1.4589    3.1669 N   0  0  0  0  0  0  0  0  0  0  0  0
   -2.1966    1.8850    1.8145 C   0  0  2  0  0  0  0  0  0  0  0  0
   -0.8617    1.2996    1.3733 C   0  0  0  0  0  0  0  0  0  0  0  0
    0.0104    0.9468    2.1646 O   0  0  0  0  0  0  0  0  0  0  0  0
   -2.1879    3.4017    1.7050 C   0  0  0  0  0  0  0  0  0  0  0  0
   -3.2085    1.8948    3.6787 H   0  0  0  0  0  0  0  0  0  0  0  0
   -3.0007    1.4665    1.1994 H   0  0  0  0  0  0  0  0  0  0  0  0
   -1.3888    3.8390    2.3147 H   0  0  0  0  0  0  0  0  0  0  0  0
   -2.0284    3.7240    0.6708 H   0  0  0  0  0  0  0  0  0  0  0  0
   -3.1380    3.8230    2.0508 H   0  0  0  0  0  0  0  0  0  0  0  0
   -0.7390    1.2565   -0.0101 N   0  0  0  0  0  0  0  0  0  0  0  0
    0.4383    0.7557   -0.6738 C   0  0  2  0  0  0  0  0  0  0  0  0
    1.0503   -0.3057    0.2335 C   0  0  0  0  0  0  0  0  0  0  0  0
    0.3779   -1.0288    0.9655 O   0  0  0  0  0  0  0  0  0  0  0  0
    1.4576    1.8645   -0.9597 C   0  0  0  0  0  0  0  0  0  0  0  0
    0.9354    2.9034   -1.9219 C   0  0  0  0  0  0  0  0  0  0  0  0
    0.8293    2.6564   -3.2694 N   0  3  0  0  0  0  0  0  0  0  0  0
    0.4978    4.1820   -1.7207 C   0  0  0  0  0  0  0  0  0  0  0  0
    0.3446    3.7400   -3.8844 C   0  0  0  0  0  0  0  0  0  0  0  0
    0.1391    4.6757   -2.9519 N   0  0  0  0  0  0  0  0  0  0  0  0
   -1.5221    1.5532   -0.5874 H   0  0  0  0  0  0  0  0  0  0  0  0
    0.0962    0.2813   -1.6011 H   0  0  0  0  0  0  0  0  0  0  0  0
    2.3889    1.4333   -1.3513 H   0  0  0  0  0  0  0  0  0  0  0  0
    1.7442    2.3714   -0.0288 H   0  0  0  0  0  0  0  0  0  0  0  0
    1.0802    1.7869   -3.7319 H   0  0  0  0  0  0  0  0  0  0  0  0
    0.3849    4.8318   -0.8758 H   0  0  0  0  0  0  0  0  0  0  0  0
    0.1549    3.8409   -4.9399 H   0  0  0  0  0  0  0  0  0  0  0  0
   -0.2255    5.6075   -3.1292 H   0  0  0  0  0  0  0  0  0  0  0  0
    2.4288   -0.3805    0.0891 N   0  0  0  0  0  0  0  0  0  0  0  0
    3.2530   -1.3191    0.8161 C   0  0  2  0  0  0  0  0  0  0  0  0
    2.8901   -1.2190    2.2918 C   0  0  0  0  0  0  0  0  0  0  0  0
    2.3597   -0.2264    2.7863 O   0  0  0  0  0  0  0  0  0  0  0  0
    4.7321   -1.0396    0.5999 C   0  0  0  0  0  0  0  0  0  0  0  0
    2.8810    0.2564   -0.5602 H   0  0  0  0  0  0  0  0  0  0  0  0
    2.9989   -2.3176    0.4438 H   0  0  0  0  0  0  0  0  0  0  0  0
    5.0056   -0.0436    0.9667 H   0  0  0  0  0  0  0  0  0  0  0  0
    5.3551   -1.7689    1.1282 H   0  0  0  0  0  0  0  0  0  0  0  0
    4.9854   -1.0828   -0.4649 H   0  0  0  0  0  0  0  0  0  0  0  0
    3.2674   -2.3513    3.0000 N   0  0  0  0  0  0  0  0  0  0  0  0
    3.0434   -2.4936    4.4197 C   0  0  0  0  0  0  0  0  0  0  0  0
    3.6844   -3.1343    2.5052 H   0  0  0  0  0  0  0  0  0  0  0  0
    3.9310   -2.1452    4.9682 H   0  0  0  0  0  0  0  0  0  0  0  0
    2.1707   -1.8926    4.7151 H   0  0  0  0  0  0  0  0  0  0  0  0
    2.8575   -3.5514    4.6573 H   0  0  0  0  0  0  0  0  0  0  0  0
 22 24  2  0  0  0  0
 24 26  1  0  0  0  0
 25 26  1  0  0  0  0
 23 25  2  0  0  0  0
 21 22  1  0  0  0  0
 22 23  1  0  0  0  0
  1  3  1  0  0  0  0
  1  7  1  0  0  0  0
  1  2  2  0  0  0  0
 36 37  1  0  0  0  0
 37 45  1  0  0  0  0
 37 38  2  0  0  0  0
  8  9  1  0  0  0  0
  9 17  1  0  0  0  0
  9 10  2  0  0  0  0
 18 19  1  0  0  0  0
 19 35  1  0  0  0  0
 19 20  2  0  0  0  0
 36 39  1  0  0  0  0
  8 11  1  0  0  0  0
 45 46  1  0  0  0  0
 18 21  1  0  0  0  0
 35 36  1  0  0  0  0
  7  8  1  0  0  0  0
 17 18  1  0  0  0  0
 24 32  1  0  0  0  0
 25 33  1  0  0  0  0
  3  4  1  0  0  0  0
  3  5  1  0  0  0  0
  3  6  1  0  0  0  0
 39 42  1  0  0  0  0
 39 43  1  0  0  0  0
 39 44  1  0  0  0  0
 11 14  1  0  0  0  0
 11 15  1  0  0  0  0
 11 16  1  0  0  0  0
 46 48  1  0  0  0  0
 46 49  1  0  0  0  0
 46 50  1  0  0  0  0
 21 29  1  0  0  0  0
 21 30  1  0  0  0  0
 36 41  1  0  0  0  0
  8 13  1  0  0  0  0
 18 28  1  0  0  0  0
 26 34  1  0  0  0  0
 23 31  1  0  0  0  0
 45 47  1  0  0  0  0
  7 12  1  0  0  0  0
 35 40  1  0  0  0  0
 17 27  1  0  0  0  0
M  CHG  1  23   1
M  END
$$$$

  -OEChem-05262214473D

 50 50  0     1  0  0  0  0  0999 V2000
   -1.6938    0.4865    3.8080 C   0  0  0  0  0  0  0  0  0  0  0  0
   -0.7464   -0.1282    3.3323 O   0  0  0  0  0  0  0  0  0  0  0  0
   -2.1257    0.2041    5.2087 C   0  0  0  0  0  0  0  0  0  0  0  0
   -2.8853   -0.5922    5.2621 H   0  0  0  0  0  0  0  0  0  0  0  0
   -1.2944   -0.1435    5.8430 H   0  0  0  0  0  0  0  0  0  0  0  0
   -2.5637    1.0590    5.7483 H   0  0  0  0  0  0  0  0  0  0  0  0
   -2.4435    1.4589    3.1669 N   0  0  0  0  0  0  0  0  0  0  0  0
   -2.1966    1.8850    1.8145 C   0  0  2  0  0  0  0  0  0  0  0  0
   -0.8617    1.2996    1.3733 C   0  0  0  0  0  0  0  0  0  0  0  0
    0.0104    0.9468    2.1646 O   0  0  0  0  0  0  0  0  0  0  0  0
   -2.1879    3.4017    1.7050 C   0  0  0  0  0  0  0  0  0  0  0  0
   -3.2085    1.8948    3.6787 H   0  0  0  0  0  0  0  0  0  0  0  0
   -3.0007    1.4665    1.1994 H   0  0  0  0  0  0  0  0  0  0  0  0
   -1.3888    3.8390    2.3147 H   0  0  0  0  0  0  0  0  0  0  0  0
   -2.0284    3.7240    0.6708 H   0  0  0  0  0  0  0  0  0  0  0  0
   -3.1380    3.8230    2.0508 H   0  0  0  0  0  0  0  0  0  0  0  0
   -0.7390    1.2565   -0.0101 N   0  0  0  0  0  0  0  0  0  0  0  0
    0.4383    0.7557   -0.6738 C   0  0  2  0  0  0  0  0  0  0  0  0
    1.0503   -0.3057    0.2335 C   0  0  0  0  0  0  0  0  0  0  0  0
    0.3895   -1.1996    0.7579 O   0  0  0  0  0  0  0  0  0  0  0  0
    1.4576    1.8645   -0.9597 C   0  0  0  0  0  0  0  0  0  0  0  0
    0.9354    2.9034   -1.9219 C   0  0  0  0  0  0  0  0  0  0  0  0
    0.8293    2.6564   -3.2694 N   0  3  0  0  0  0  0  0  0  0  0  0
    0.4978    4.1820   -1.7207 C   0  0  0  0  0  0  0  0  0  0  0  0
    0.3446    3.7400   -3.8844 C   0  0  0  0  0  0  0  0  0  0  0  0
    0.1391    4.6757   -2.9519 N   0  0  0  0  0  0  0  0  0  0  0  0
   -1.5221    1.5532   -0.5874 H   0  0  0  0  0  0  0  0  0  0  0  0
    0.0962    0.2813   -1.6011 H   0  0  0  0  0  0  0  0  0  0  0  0
    2.3889    1.4333   -1.3513 H   0  0  0  0  0  0  0  0  0  0  0  0
    1.7442    2.3714   -0.0288 H   0  0  0  0  0  0  0  0  0  0  0  0
    1.0802    1.7869   -3.7319 H   0  0  0  0  0  0  0  0  0  0  0  0
    0.3849    4.8318   -0.8758 H   0  0  0  0  0  0  0  0  0  0  0  0
    0.1549    3.8409   -4.9399 H   0  0  0  0  0  0  0  0  0  0  0  0
   -0.2255    5.6075   -3.1292 H   0  0  0  0  0  0  0  0  0  0  0  0
    2.4264   -0.1630    0.3451 N   0  0  0  0  0  0  0  0  0  0  0  0
    3.2555   -1.0518    1.1271 C   0  0  2  0  0  0  0  0  0  0  0  0
    2.6327   -1.1800    2.5110 C   0  0  0  0  0  0  0  0  0  0  0  0
    1.8701   -0.3399    2.9838 O   0  0  0  0  0  0  0  0  0  0  0  0
    4.6839   -0.5380    1.2193 C   0  0  0  0  0  0  0  0  0  0  0  0
    2.8733    0.6047   -0.1475 H   0  0  0  0  0  0  0  0  0  0  0  0
    3.2360   -2.0255    0.6255 H   0  0  0  0  0  0  0  0  0  0  0  0
    4.7235    0.4368    1.7190 H   0  0  0  0  0  0  0  0  0  0  0  0
    5.3174   -1.2268    1.7879 H   0  0  0  0  0  0  0  0  0  0  0  0
    5.1201   -0.4181    0.2217 H   0  0  0  0  0  0  0  0  0  0  0  0
    3.0626   -2.3216    3.1730 N   0  0  0  0  0  0  0  0  0  0  0  0
    2.6240   -2.6613    4.5065 C   0  0  0  0  0  0  0  0  0  0  0  0
    3.6808   -2.9721    2.6973 H   0  0  0  0  0  0  0  0  0  0  0  0
    3.3349   -2.2555    5.2414 H   0  0  0  0  0  0  0  0  0  0  0  0
    1.6271   -2.2318    4.6850 H   0  0  0  0  0  0  0  0  0  0  0  0
    2.5755   -3.7554    4.6088 H   0  0  0  0  0  0  0  0  0  0  0  0
 22 24  2  0  0  0  0
 24 26  1  0  0  0  0
 25 26  1  0  0  0  0
 23 25  2  0  0  0  0
 21 22  1  0  0  0  0
 22 23  1  0  0  0  0
  1  3  1  0  0  0  0
  1  7  1  0  0  0  0
  1  2  2  0  0  0  0
 36 37  1  0  0  0  0
 37 45  1  0  0  0  0
 37 38  2  0  0  0  0
  8  9  1  0  0  0  0
  9 17  1  0  0  0  0
  9 10  2  0  0  0  0
 18 19  1  0  0  0  0
 19 35  1  0  0  0  0
 19 20  2  0  0  0  0
 36 39  1  0  0  0  0
  8 11  1  0  0  0  0
 45 46  1  0  0  0  0
 18 21  1  0  0  0  0
 35 36  1  0  0  0  0
  7  8  1  0  0  0  0
 17 18  1  0  0  0  0
 24 32  1  0  0  0  0
 25 33  1  0  0  0  0
  3  4  1  0  0  0  0
  3  5  1  0  0  0  0
  3  6  1  0  0  0  0
 39 42  1  0  0  0  0
 39 43  1  0  0  0  0
 39 44  1  0  0  0  0
 11 14  1  0  0  0  0
 11 15  1  0  0  0  0
 11 16  1  0  0  0  0
 46 48  1  0  0  0  0
 46 49  1  0  0  0  0
 46 50  1  0  0  0  0
 21 29  1  0  0  0  0
 21 30  1  0  0  0  0
 36 41  1  0  0  0  0
  8 13  1  0  0  0  0
 18 28  1  0  0  0  0
 26 34  1  0  0  0  0
 23 31  1  0  0  0  0
 45 47  1  0  0  0  0
  7 12  1  0  0  0  0
 35 40  1  0  0  0  0
 17 27  1  0  0  0  0
M  CHG  1  23   1
M  END
$$$$

  -OEChem-05262214473D

 50 50  0     1  0  0  0  0  0999 V2000
   -1.6938    0.4865    3.8080 C   0  0  0  0  0  0  0  0  0  0  0  0
   -0.7464   -0.1282    3.3323 O   0  0  0  0  0  0  0  0  0  0  0  0
   -2.1257    0.2041    5.2087 C   0  0  0  0  0  0  0  0  0  0  0  0
   -2.8853   -0.5922    5.2621 H   0  0  0  0  0  0  0  0  0  0  0  0
   -1.2944   -0.1435    5.8430 H   0  0  0  0  0  0  0  0  0  0  0  0
   -2.5637    1.0590    5.7483 H   0  0  0  0  0  0  0  0  0  0  0  0
   -2.4435    1.4589    3.1669 N   0  0  0  0  0  0  0  0  0  0  0  0
   -2.1966    1.8850    1.8145 C   0  0  2  0  0  0  0  0  0  0  0  0
   -0.8617    1.2996    1.3733 C   0  0  0  0  0  0  0  0  0  0  0  0
    0.0104    0.9468    2.1646 O   0  0  0  0  0  0  0  0  0  0  0  0
   -2.1879    3.4017    1.7050 C   0  0  0  0  0  0  0  0  0  0  0  0
   -3.2085    1.8948    3.6787 H   0  0  0  0  0  0  0  0  0  0  0  0
   -3.0007    1.4665    1.1994 H   0  0  0  0  0  0  0  0  0  0  0  0
   -1.3888    3.8390    2.3147 H   0  0  0  0  0  0  0  0  0  0  0  0
   -2.0284    3.7240    0.6708 H   0  0  0  0  0  0  0  0  0  0  0  0
   -3.1380    3.8230    2.0508 H   0  0  0  0  0  0  0  0  0  0  0  0
   -0.7390    1.2565   -0.0101 N   0  0  0  0  0  0  0  0  0  0  0  0
    0.4383    0.7557   -0.6738 C   0  0  2  0  0  0  0  0  0  0  0  0
    1.0503   -0.3057    0.2335 C   0  0  0  0  0  0  0  0  0  0  0  0
    0.4643   -1.3413    0.5416 O   0  0  0  0  0  0  0  0  0  0  0  0
    1.4576    1.8645   -0.9597 C   0  0  0  0  0  0  0  0  0  0  0  0
    0.9354    2.9034   -1.9219 C   0  0  0  0  0  0  0  0  0  0  0  0
    0.8293    2.6564   -3.2694 N   0  3  0  0  0  0  0  0  0  0  0  0
    0.4978    4.1820   -1.7207 C   0  0  0  0  0  0  0  0  0  0  0  0
    0.3446    3.7400   -3.8844 C   0  0  0  0  0  0  0  0  0  0  0  0
    0.1391    4.6757   -2.9519 N   0  0  0  0  0  0  0  0  0  0  0  0
   -1.5221    1.5532   -0.5874 H   0  0  0  0  0  0  0  0  0  0  0  0
    0.0962    0.2813   -1.6011 H   0  0  0  0  0  0  0  0  0  0  0  0
    2.3889    1.4333   -1.3513 H   0  0  0  0  0  0  0  0  0  0  0  0
    1.7442    2.3714   -0.0288 H   0  0  0  0  0  0  0  0  0  0  0  0
    1.0802    1.7869   -3.7319 H   0  0  0  0  0  0  0  0  0  0  0  0
    0.3849    4.8318   -0.8758 H   0  0  0  0  0  0  0  0  0  0  0  0
    0.1549    3.8409   -4.9399 H   0  0  0  0  0  0  0  0  0  0  0  0
   -0.2255    5.6075   -3.1292 H   0  0  0  0  0  0  0  0  0  0  0  0
    2.3446    0.0201    0.6147 N   0  0  0  0  0  0  0  0  0  0  0  0
    3.1608   -0.8255    1.4557 C   0  0  2  0  0  0  0  0  0  0  0  0
    2.3386   -1.2048    2.6803 C   0  0  0  0  0  0  0  0  0  0  0  0
    1.3790   -0.5454    3.0746 O   0  0  0  0  0  0  0  0  0  0  0  0
    4.4484   -0.1253    1.8611 C   0  0  0  0  0  0  0  0  0  0  0  0
    2.7378    0.8971    0.2860 H   0  0  0  0  0  0  0  0  0  0  0  0
    3.3874   -1.7258    0.8741 H   0  0  0  0  0  0  0  0  0  0  0  0
    4.2415    0.7792    2.4447 H   0  0  0  0  0  0  0  0  0  0  0  0
    5.0786   -0.7775    2.4746 H   0  0  0  0  0  0  0  0  0  0  0  0
    5.0242    0.1733    0.9784 H   0  0  0  0  0  0  0  0  0  0  0  0
    2.8290   -2.3424    3.3063 N   0  0  0  0  0  0  0  0  0  0  0  0
    2.2290   -2.8968    4.4973 C   0  0  0  0  0  0  0  0  0  0  0  0
    3.6178   -2.8360    2.8991 H   0  0  0  0  0  0  0  0  0  0  0  0
    2.7268   -2.4822    5.3863 H   0  0  0  0  0  0  0  0  0  0  0  0
    1.1598   -2.6400    4.5227 H   0  0  0  0  0  0  0  0  0  0  0  0
    2.3433   -3.9909    4.4900 H   0  0  0  0  0  0  0  0  0  0  0  0
 22 24  2  0  0  0  0
 24 26  1  0  0  0  0
 25 26  1  0  0  0  0
 23 25  2  0  0  0  0
 21 22  1  0  0  0  0
 22 23  1  0  0  0  0
  1  3  1  0  0  0  0
  1  7  1  0  0  0  0
  1  2  2  0  0  0  0
 36 37  1  0  0  0  0
 37 45  1  0  0  0  0
 37 38  2  0  0  0  0
  8  9  1  0  0  0  0
  9 17  1  0  0  0  0
  9 10  2  0  0  0  0
 18 19  1  0  0  0  0
 19 35  1  0  0  0  0
 19 20  2  0  0  0  0
 36 39  1  0  0  0  0
  8 11  1  0  0  0  0
 45 46  1  0  0  0  0
 18 21  1  0  0  0  0
 35 36  1  0  0  0  0
  7  8  1  0  0  0  0
 17 18  1  0  0  0  0
 24 32  1  0  0  0  0
 25 33  1  0  0  0  0
  3  4  1  0  0  0  0
  3  5  1  0  0  0  0
  3  6  1  0  0  0  0
 39 42  1  0  0  0  0
 39 43  1  0  0  0  0
 39 44  1  0  0  0  0
 11 14  1  0  0  0  0
 11 15  1  0  0  0  0
 11 16  1  0  0  0  0
 46 48  1  0  0  0  0
 46 49  1  0  0  0  0
 46 50  1  0  0  0  0
 21 29  1  0  0  0  0
 21 30  1  0  0  0  0
 36 41  1  0  0  0  0
  8 13  1  0  0  0  0
 18 28  1  0  0  0  0
 26 34  1  0  0  0  0
 23 31  1  0  0  0  0
 45 47  1  0  0  0  0
  7 12  1  0  0  0  0
 35 40  1  0  0  0  0
 17 27  1  0  0  0  0
M  CHG  1  23   1
M  END
$$$$

  -OEChem-05262214473D

 50 50  0     1  0  0  0  0  0999 V2000
   -1.6938    0.4865    3.8080 C   0  0  0  0  0  0  0  0  0  0  0  0
   -0.7464   -0.1282    3.3323 O   0  0  0  0  0  0  0  0  0  0  0  0
   -2.1257    0.2041    5.2087 C   0  0  0  0  0  0  0  0  0  0  0  0
   -2.8853   -0.5922    5.2621 H   0  0  0  0  0  0  0  0  0  0  0  0
   -1.2944   -0.1435    5.8430 H   0  0  0  0  0  0  0  0  0  0  0  0
   -2.5637    1.0590    5.7483 H   0  0  0  0  0  0  0  0  0  0  0  0
   -2.4435    1.4589    3.1669 N   0  0  0  0  0  0  0  0  0  0  0  0
   -2.1966    1.8850    1.8145 C   0  0  2  0  0  0  0  0  0  0  0  0
   -0.8617    1.2996    1.3733 C   0  0  0  0  0  0  0  0  0  0  0  0
    0.0104    0.9468    2.1646 O   0  0  0  0  0  0  0  0  0  0  0  0
   -2.1879    3.4017    1.7050 C   0  0  0  0  0  0  0  0  0  0  0  0
   -3.2085    1.8948    3.6787 H   0  0  0  0  0  0  0  0  0  0  0  0
   -3.0007    1.4665    1.1994 H   0  0  0  0  0  0  0  0  0  0  0  0
   -1.3888    3.8390    2.3147 H   0  0  0  0  0  0  0  0  0  0  0  0
   -2.0284    3.7240    0.6708 H   0  0  0  0  0  0  0  0  0  0  0  0
   -3.1380    3.8230    2.0508 H   0  0  0  0  0  0  0  0  0  0  0  0
   -0.7390    1.2565   -0.0101 N   0  0  0  0  0  0  0  0  0  0  0  0
    0.4383    0.7557   -0.6738 C   0  0  2  0  0  0  0  0  0  0  0  0
    1.0503   -0.3057    0.2335 C   0  0  0  0  0  0  0  0  0  0  0  0
    0.5974   -1.4442    0.3314 O   0  0  0  0  0  0  0  0  0  0  0  0
    1.4576    1.8645   -0.9597 C   0  0  0  0  0  0  0  0  0  0  0  0
    0.9354    2.9034   -1.9219 C   0  0  0  0  0  0  0  0  0  0  0  0
    0.8293    2.6564   -3.2694 N   0  3  0  0  0  0  0  0  0  0  0  0
    0.4978    4.1820   -1.7207 C   0  0  0  0  0  0  0  0  0  0  0  0
    0.3446    3.7400   -3.8844 C   0  0  0  0  0  0  0  0  0  0  0  0
    0.1391    4.6757   -2.9519 N   0  0  0  0  0  0  0  0  0  0  0  0
   -1.5221    1.5532   -0.5874 H   0  0  0  0  0  0  0  0  0  0  0  0
    0.0962    0.2813   -1.6011 H   0  0  0  0  0  0  0  0  0  0  0  0
    2.3889    1.4333   -1.3513 H   0  0  0  0  0  0  0  0  0  0  0  0
    1.7442    2.3714   -0.0288 H   0  0  0  0  0  0  0  0  0  0  0  0
    1.0802    1.7869   -3.7319 H   0  0  0  0  0  0  0  0  0  0  0  0
    0.3849    4.8318   -0.8758 H   0  0  0  0  0  0  0  0  0  0  0  0
    0.1549    3.8409   -4.9399 H   0  0  0  0  0  0  0  0  0  0  0  0
   -0.2255    5.6075   -3.1292 H   0  0  0  0  0  0  0  0  0  0  0  0
    2.1887    0.1564    0.8793 N   0  0  0  0  0  0  0  0  0  0  0  0
    2.9752   -0.6557    1.7796 C   0  0  2  0  0  0  0  0  0  0  0  0
    2.0279   -1.2917    2.7884 C   0  0  0  0  0  0  0  0  0  0  0  0
    0.9200   -0.8290    3.0524 O   0  0  0  0  0  0  0  0  0  0  0  0
    4.0417    0.1705    2.4814 C   0  0  0  0  0  0  0  0  0  0  0  0
    2.4839    1.1136    0.7106 H   0  0  0  0  0  0  0  0  0  0  0  0
    3.4426   -1.4388    1.1726 H   0  0  0  0  0  0  0  0  0  0  0  0
    3.5924    0.9603    3.0945 H   0  0  0  0  0  0  0  0  0  0  0  0
    4.6551   -0.4517    3.1416 H   0  0  0  0  0  0  0  0  0  0  0  0
    4.7041    0.6512    1.7534 H   0  0  0  0  0  0  0  0  0  0  0  0
    2.5826   -2.4122    3.3907 N   0  0  0  0  0  0  0  0  0  0  0  0
    1.8855   -3.1842    4.3928 C   0  0  0  0  0  0  0  0  0  0  0  0
    3.4996   -2.7352    3.0967 H   0  0  0  0  0  0  0  0  0  0  0  0
    2.1483   -2.8099    5.3932 H   0  0  0  0  0  0  0  0  0  0  0  0
    0.8004   -3.0894    4.2393 H   0  0  0  0  0  0  0  0  0  0  0  0
    2.1767   -4.2417    4.3090 H   0  0  0  0  0  0  0  0  0  0  0  0
 22 24  2  0  0  0  0
 24 26  1  0  0  0  0
 25 26  1  0  0  0  0
 23 25  2  0  0  0  0
 21 22  1  0  0  0  0
 22 23  1  0  0  0  0
  1  3  1  0  0  0  0
  1  7  1  0  0  0  0
  1  2  2  0  0  0  0
 36 37  1  0  0  0  0
 37 45  1  0  0  0  0
 37 38  2  0  0  0  0
  8  9  1  0  0  0  0
  9 17  1  0  0  0  0
  9 10  2  0  0  0  0
 18 19  1  0  0  0  0
 19 35  1  0  0  0  0
 19 20  2  0  0  0  0
 36 39  1  0  0  0  0
  8 11  1  0  0  0  0
 45 46  1  0  0  0  0
 18 21  1  0  0  0  0
 35 36  1  0  0  0  0
  7  8  1  0  0  0  0
 17 18  1  0  0  0  0
 24 32  1  0  0  0  0
 25 33  1  0  0  0  0
  3  4  1  0  0  0  0
  3  5  1  0  0  0  0
  3  6  1  0  0  0  0
 39 42  1  0  0  0  0
 39 43  1  0  0  0  0
 39 44  1  0  0  0  0
 11 14  1  0  0  0  0
 11 15  1  0  0  0  0
 11 16  1  0  0  0  0
 46 48  1  0  0  0  0
 46 49  1  0  0  0  0
 46 50  1  0  0  0  0
 21 29  1  0  0  0  0
 21 30  1  0  0  0  0
 36 41  1  0  0  0  0
  8 13  1  0  0  0  0
 18 28  1  0  0  0  0
 26 34  1  0  0  0  0
 23 31  1  0  0  0  0
 45 47  1  0  0  0  0
  7 12  1  0  0  0  0
 35 40  1  0  0  0  0
 17 27  1  0  0  0  0
M  CHG  1  23   1
M  END
$$$$

  -OEChem-05262214473D

 50 50  0     1  0  0  0  0  0999 V2000
   -1.6938    0.4865    3.8080 C   0  0  0  0  0  0  0  0  0  0  0  0
   -0.7464   -0.1282    3.3323 O   0  0  0  0  0  0  0  0  0  0  0  0
   -2.1257    0.2041    5.2087 C   0  0  0  0  0  0  0  0  0  0  0  0
   -2.8853   -0.5922    5.2621 H   0  0  0  0  0  0  0  0  0  0  0  0
   -1.2944   -0.1435    5.8430 H   0  0  0  0  0  0  0  0  0  0  0  0
   -2.5637    1.0590    5.7483 H   0  0  0  0  0  0  0  0  0  0  0  0
   -2.4435    1.4589    3.1669 N   0  0  0  0  0  0  0  0  0  0  0  0
   -2.1966    1.8850    1.8145 C   0  0  2  0  0  0  0  0  0  0  0  0
   -0.8617    1.2996    1.3733 C   0  0  0  0  0  0  0  0  0  0  0  0
    0.0104    0.9468    2.1646 O   0  0  0  0  0  0  0  0  0  0  0  0
   -2.1879    3.4017    1.7050 C   0  0  0  0  0  0  0  0  0  0  0  0
   -3.2085    1.8948    3.6787 H   0  0  0  0  0  0  0  0  0  0  0  0
   -3.0007    1.4665    1.1994 H   0  0  0  0  0  0  0  0  0  0  0  0
   -1.3888    3.8390    2.3147 H   0  0  0  0  0  0  0  0  0  0  0  0
   -2.0284    3.7240    0.6708 H   0  0  0  0  0  0  0  0  0  0  0  0
   -3.1380    3.8230    2.0508 H   0  0  0  0  0  0  0  0  0  0  0  0
   -0.7390    1.2565   -0.0101 N   0  0  0  0  0  0  0  0  0  0  0  0
    0.4383    0.7557   -0.6738 C   0  0  2  0  0  0  0  0  0  0  0  0
    1.0503   -0.3057    0.2335 C   0  0  0  0  0  0  0  0  0  0  0  0
    0.7797   -1.5012    0.1418 O   0  0  0  0  0  0  0  0  0  0  0  0
    1.4576    1.8645   -0.9597 C   0  0  0  0  0  0  0  0  0  0  0  0
    0.9354    2.9034   -1.9219 C   0  0  0  0  0  0  0  0  0  0  0  0
    0.8293    2.6564   -3.2694 N   0  3  0  0  0  0  0  0  0  0  0  0
    0.4978    4.1820   -1.7207 C   0  0  0  0  0  0  0  0  0  0  0  0
    0.3446    3.7400   -3.8844 C   0  0  0  0  0  0  0  0  0  0  0  0
    0.1391    4.6757   -2.9519 N   0  0  0  0  0  0  0  0  0  0  0  0
   -1.5221    1.5532   -0.5874 H   0  0  0  0  0  0  0  0  0  0  0  0
    0.0962    0.2813   -1.6011 H   0  0  0  0  0  0  0  0  0  0  0  0
    2.3889    1.4333   -1.3513 H   0  0  0  0  0  0  0  0  0  0  0  0
    1.7442    2.3714   -0.0288 H   0  0  0  0  0  0  0  0  0  0  0  0
    1.0802    1.7869   -3.7319 H   0  0  0  0  0  0  0  0  0  0  0  0
    0.3849    4.8318   -0.8758 H   0  0  0  0  0  0  0  0  0  0  0  0
    0.1549    3.8409   -4.9399 H   0  0  0  0  0  0  0  0  0  0  0  0
   -0.2255    5.6075   -3.1292 H   0  0  0  0  0  0  0  0  0  0  0  0
    1.9695    0.2366    1.1209 N   0  0  0  0  0  0  0  0  0  0  0  0
    2.7114   -0.5539    2.0767 C   0  0  2  0  0  0  0  0  0  0  0  0
    1.7216   -1.4347    2.8277 C   0  0  0  0  0  0  0  0  0  0  0  0
    0.5243   -1.1714    2.9189 O   0  0  0  0  0  0  0  0  0  0  0  0
    3.4916    0.3291    3.0381 C   0  0  0  0  0  0  0  0  0  0  0  0
    2.1287    1.2395    1.0975 H   0  0  0  0  0  0  0  0  0  0  0  0
    3.3979   -1.1841    1.5008 H   0  0  0  0  0  0  0  0  0  0  0  0
    2.8205    0.9677    3.6239 H   0  0  0  0  0  0  0  0  0  0  0  0
    4.0756   -0.2715    3.7433 H   0  0  0  0  0  0  0  0  0  0  0  0
    4.1817    0.9829    2.4940 H   0  0  0  0  0  0  0  0  0  0  0  0
    2.3401   -2.5265    3.4207 N   0  0  0  0  0  0  0  0  0  0  0  0
    1.6168   -3.5039    4.2001 C   0  0  0  0  0  0  0  0  0  0  0  0
    3.3343   -2.6766    3.2769 H   0  0  0  0  0  0  0  0  0  0  0  0
    1.6387   -3.2163    5.2616 H   0  0  0  0  0  0  0  0  0  0  0  0
    0.5736   -3.5494    3.8542 H   0  0  0  0  0  0  0  0  0  0  0  0
    2.0870   -4.4908    4.0780 H   0  0  0  0  0  0  0  0  0  0  0  0
 22 24  2  0  0  0  0
 24 26  1  0  0  0  0
 25 26  1  0  0  0  0
 23 25  2  0  0  0  0
 21 22  1  0  0  0  0
 22 23  1  0  0  0  0
  1  3  1  0  0  0  0
  1  7  1  0  0  0  0
  1  2  2  0  0  0  0
 36 37  1  0  0  0  0
 37 45  1  0  0  0  0
 37 38  2  0  0  0  0
  8  9  1  0  0  0  0
  9 17  1  0  0  0  0
  9 10  2  0  0  0  0
 18 19  1  0  0  0  0
 19 35  1  0  0  0  0
 19 20  2  0  0  0  0
 36 39  1  0  0  0  0
  8 11  1  0  0  0  0
 45 46  1  0  0  0  0
 18 21  1  0  0  0  0
 35 36  1  0  0  0  0
  7  8  1  0  0  0  0
 17 18  1  0  0  0  0
 24 32  1  0  0  0  0
 25 33  1  0  0  0  0
  3  4  1  0  0  0  0
  3  5  1  0  0  0  0
  3  6  1  0  0  0  0
 39 42  1  0  0  0  0
 39 43  1  0  0  0  0
 39 44  1  0  0  0  0
 11 14  1  0  0  0  0
 11 15  1  0  0  0  0
 11 16  1  0  0  0  0
 46 48  1  0  0  0  0
 46 49  1  0  0  0  0
 46 50  1  0  0  0  0
 21 29  1  0  0  0  0
 21 30  1  0  0  0  0
 36 41  1  0  0  0  0
  8 13  1  0  0  0  0
 18 28  1  0  0  0  0
 26 34  1  0  0  0  0
 23 31  1  0  0  0  0
 45 47  1  0  0  0  0
  7 12  1  0  0  0  0
 35 40  1  0  0  0  0
 17 27  1  0  0  0  0
M  CHG  1  23   1
M  END
$$$$

  -OEChem-05262214473D

 50 50  0     1  0  0  0  0  0999 V2000
   -1.6938    0.4865    3.8080 C   0  0  0  0  0  0  0  0  0  0  0  0
   -0.7464   -0.1282    3.3323 O   0  0  0  0  0  0  0  0  0  0  0  0
   -2.1257    0.2041    5.2087 C   0  0  0  0  0  0  0  0  0  0  0  0
   -2.8853   -0.5922    5.2621 H   0  0  0  0  0  0  0  0  0  0  0  0
   -1.2944   -0.1435    5.8430 H   0  0  0  0  0  0  0  0  0  0  0  0
   -2.5637    1.0590    5.7483 H   0  0  0  0  0  0  0  0  0  0  0  0
   -2.4435    1.4589    3.1669 N   0  0  0  0  0  0  0  0  0  0  0  0
   -2.1966    1.8850    1.8145 C   0  0  2  0  0  0  0  0  0  0  0  0
   -0.8617    1.2996    1.3733 C   0  0  0  0  0  0  0  0  0  0  0  0
    0.0104    0.9468    2.1646 O   0  0  0  0  0  0  0  0  0  0  0  0
   -2.1879    3.4017    1.7050 C   0  0  0  0  0  0  0  0  0  0  0  0
   -3.2085    1.8948    3.6787 H   0  0  0  0  0  0  0  0  0  0  0  0
   -3.0007    1.4665    1.1994 H   0  0  0  0  0  0  0  0  0  0  0  0
   -1.3888    3.8390    2.3147 H   0  0  0  0  0  0  0  0  0  0  0  0
   -2.0284    3.7240    0.6708 H   0  0  0  0  0  0  0  0  0  0  0  0
   -3.1380    3.8230    2.0508 H   0  0  0  0  0  0  0  0  0  0  0  0
   -0.7390    1.2565   -0.0101 N   0  0  0  0  0  0  0  0  0  0  0  0
    0.4383    0.7557   -0.6738 C   0  0  2  0  0  0  0  0  0  0  0  0
    1.0503   -0.3057    0.2335 C   0  0  0  0  0  0  0  0  0  0  0  0
    0.9987   -1.5085   -0.0145 O   0  0  0  0  0  0  0  0  0  0  0  0
    1.4576    1.8645   -0.9597 C   0  0  0  0  0  0  0  0  0  0  0  0
    0.9354    2.9034   -1.9219 C   0  0  0  0  0  0  0  0  0  0  0  0
    0.8293    2.6564   -3.2694 N   0  3  0  0  0  0  0  0  0  0  0  0
    0.4978    4.1820   -1.7207 C   0  0  0  0  0  0  0  0  0  0  0  0
    0.3446    3.7400   -3.8844 C   0  0  0  0  0  0  0  0  0  0  0  0
    0.1391    4.6757   -2.9519 N   0  0  0  0  0  0  0  0  0  0  0  0
   -1.5221    1.5532   -0.5874 H   0  0  0  0  0  0  0  0  0  0  0  0
    0.0962    0.2813   -1.6011 H   0  0  0  0  0  0  0  0  0  0  0  0
    2.3889    1.4333   -1.3513 H   0  0  0  0  0  0  0  0  0  0  0  0
    1.7442    2.3714   -0.0288 H   0  0  0  0  0  0  0  0  0  0  0  0
    1.0802    1.7869   -3.7319 H   0  0  0  0  0  0  0  0  0  0  0  0
    0.3849    4.8318   -0.8758 H   0  0  0  0  0  0  0  0  0  0  0  0
    0.1549    3.8409   -4.9399 H   0  0  0  0  0  0  0  0  0  0  0  0
   -0.2255    5.6075   -3.1292 H   0  0  0  0  0  0  0  0  0  0  0  0
    1.7018    0.2551    1.3232 N   0  0  0  0  0  0  0  0  0  0  0  0
    2.3874   -0.5271    2.3266 C   0  0  2  0  0  0  0  0  0  0  0  0
    1.4407   -1.6240    2.7957 C   0  0  0  0  0  0  0  0  0  0  0  0
    0.2189   -1.5491    2.6830 O   0  0  0  0  0  0  0  0  0  0  0  0
    2.8355    0.3396    3.4931 C   0  0  0  0  0  0  0  0  0  0  0  0
    1.6965    1.2662    1.4203 H   0  0  0  0  0  0  0  0  0  0  0  0
    3.2564   -0.9790    1.8361 H   0  0  0  0  0  0  0  0  0  0  0  0
    1.9783    0.8009    3.9970 H   0  0  0  0  0  0  0  0  0  0  0  0
    3.3796   -0.2492    4.2389 H   0  0  0  0  0  0  0  0  0  0  0  0
    3.4925    1.1460    3.1497 H   0  0  0  0  0  0  0  0  0  0  0  0
    2.1180   -2.6773    3.3940 N   0  0  0  0  0  0  0  0  0  0  0  0
    1.4412   -3.8341    3.9323 C   0  0  0  0  0  0  0  0  0  0  0  0
    3.1331   -2.6641    3.4271 H   0  0  0  0  0  0  0  0  0  0  0  0
    1.2328   -3.6736    5.0004 H   0  0  0  0  0  0  0  0  0  0  0  0
    0.4947   -3.9887    3.3934 H   0  0  0  0  0  0  0  0  0  0  0  0
    2.0803   -4.7213    3.8128 H   0  0  0  0  0  0  0  0  0  0  0  0
 22 24  2  0  0  0  0
 24 26  1  0  0  0  0
 25 26  1  0  0  0  0
 23 25  2  0  0  0  0
 21 22  1  0  0  0  0
 22 23  1  0  0  0  0
  1  3  1  0  0  0  0
  1  7  1  0  0  0  0
  1  2  2  0  0  0  0
 36 37  1  0  0  0  0
 37 45  1  0  0  0  0
 37 38  2  0  0  0  0
  8  9  1  0  0  0  0
  9 17  1  0  0  0  0
  9 10  2  0  0  0  0
 18 19  1  0  0  0  0
 19 35  1  0  0  0  0
 19 20  2  0  0  0  0
 36 39  1  0  0  0  0
  8 11  1  0  0  0  0
 45 46  1  0  0  0  0
 18 21  1  0  0  0  0
 35 36  1  0  0  0  0
  7  8  1  0  0  0  0
 17 18  1  0  0  0  0
 24 32  1  0  0  0  0
 25 33  1  0  0  0  0
  3  4  1  0  0  0  0
  3  5  1  0  0  0  0
  3  6  1  0  0  0  0
 39 42  1  0  0  0  0
 39 43  1  0  0  0  0
 39 44  1  0  0  0  0
 11 14  1  0  0  0  0
 11 15  1  0  0  0  0
 11 16  1  0  0  0  0
 46 48  1  0  0  0  0
 46 49  1  0  0  0  0
 46 50  1  0  0  0  0
 21 29  1  0  0  0  0
 21 30  1  0  0  0  0
 36 41  1  0  0  0  0
  8 13  1  0  0  0  0
 18 28  1  0  0  0  0
 26 34  1  0  0  0  0
 23 31  1  0  0  0  0
 45 47  1  0  0  0  0
  7 12  1  0  0  0  0
 35 40  1  0  0  0  0
 17 27  1  0  0  0  0
M  CHG  1  23   1
M  END
$$$$

  -OEChem-05262214473D

 50 50  0     1  0  0  0  0  0999 V2000
   -1.6938    0.4865    3.8080 C   0  0  0  0  0  0  0  0  0  0  0  0
   -0.7464   -0.1282    3.3323 O   0  0  0  0  0  0  0  0  0  0  0  0
   -2.1257    0.2041    5.2087 C   0  0  0  0  0  0  0  0  0  0  0  0
   -2.8853   -0.5922    5.2621 H   0  0  0  0  0  0  0  0  0  0  0  0
   -1.2944   -0.1435    5.8430 H   0  0  0  0  0  0  0  0  0  0  0  0
   -2.5637    1.0590    5.7483 H   0  0  0  0  0  0  0  0  0  0  0  0
   -2.4435    1.4589    3.1669 N   0  0  0  0  0  0  0  0  0  0  0  0
   -2.1966    1.8850    1.8145 C   0  0  2  0  0  0  0  0  0  0  0  0
   -0.8617    1.2996    1.3733 C   0  0  0  0  0  0  0  0  0  0  0  0
    0.0104    0.9468    2.1646 O   0  0  0  0  0  0  0  0  0  0  0  0
   -2.1879    3.4017    1.7050 C   0  0  0  0  0  0  0  0  0  0  0  0
   -3.2085    1.8948    3.6787 H   0  0  0  0  0  0  0  0  0  0  0  0
   -3.0007    1.4665    1.1994 H   0  0  0  0  0  0  0  0  0  0  0  0
   -1.3888    3.8390    2.3147 H   0  0  0  0  0  0  0  0  0  0  0  0
   -2.0284    3.7240    0.6708 H   0  0  0  0  0  0  0  0  0  0  0  0
   -3.1380    3.8230    2.0508 H   0  0  0  0  0  0  0  0  0  0  0  0
   -0.7390    1.2565   -0.0101 N   0  0  0  0  0  0  0  0  0  0  0  0
    0.4383    0.7557   -0.6738 C   0  0  2  0  0  0  0  0  0  0  0  0
    1.0503   -0.3057    0.2335 C   0  0  0  0  0  0  0  0  0  0  0  0
    1.2396   -1.4656   -0.1268 O   0  0  0  0  0  0  0  0  0  0  0  0
    1.4576    1.8645   -0.9597 C   0  0  0  0  0  0  0  0  0  0  0  0
    0.9354    2.9034   -1.9219 C   0  0  0  0  0  0  0  0  0  0  0  0
    0.8293    2.6564   -3.2694 N   0  3  0  0  0  0  0  0  0  0  0  0
    0.4978    4.1820   -1.7207 C   0  0  0  0  0  0  0  0  0  0  0  0
    0.3446    3.7400   -3.8844 C   0  0  0  0  0  0  0  0  0  0  0  0
    0.1391    4.6757   -2.9519 N   0  0  0  0  0  0  0  0  0  0  0  0
   -1.5221    1.5532   -0.5874 H   0  0  0  0  0  0  0  0  0  0  0  0
    0.0962    0.2813   -1.6011 H   0  0  0  0  0  0  0  0  0  0  0  0
    2.3889    1.4333   -1.3513 H   0  0  0  0  0  0  0  0  0  0  0  0
    1.7442    2.3714   -0.0288 H   0  0  0  0  0  0  0  0  0  0  0  0
    1.0802    1.7869   -3.7319 H   0  0  0  0  0  0  0  0  0  0  0  0
    0.3849    4.8318   -0.8758 H   0  0  0  0  0  0  0  0  0  0  0  0
    0.1549    3.8409   -4.9399 H   0  0  0  0  0  0  0  0  0  0  0  0
   -0.2255    5.6075   -3.1292 H   0  0  0  0  0  0  0  0  0  0  0  0
    1.4040    0.2108    1.4723 N   0  0  0  0  0  0  0  0  0  0  0  0
    2.0252   -0.5771    2.5125 C   0  0  2  0  0  0  0  0  0  0  0  0
    1.2043   -1.8469    2.6944 C   0  0  0  0  0  0  0  0  0  0  0  0
    0.0246   -1.9365    2.3608 O   0  0  0  0  0  0  0  0  0  0  0  0
    2.1181    0.2015    3.8155 C   0  0  0  0  0  0  0  0  0  0  0  0
    1.2167    1.1919    1.6570 H   0  0  0  0  0  0  0  0  0  0  0  0
    3.0277   -0.8376    2.1559 H   0  0  0  0  0  0  0  0  0  0  0  0
    1.1233    0.4714    4.1883 H   0  0  0  0  0  0  0  0  0  0  0  0
    2.6147   -0.3864    4.5945 H   0  0  0  0  0  0  0  0  0  0  0  0
    2.6835    1.1292    3.6758 H   0  0  0  0  0  0  0  0  0  0  0  0
    1.9316   -2.8544    3.3126 N   0  0  0  0  0  0  0  0  0  0  0  0
    1.3706   -4.1522    3.6077 C   0  0  0  0  0  0  0  0  0  0  0  0
    2.9098   -2.6987    3.5374 H   0  0  0  0  0  0  0  0  0  0  0  0
    0.9582   -4.1507    4.6275 H   0  0  0  0  0  0  0  0  0  0  0  0
    0.5693   -4.3773    2.8886 H   0  0  0  0  0  0  0  0  0  0  0  0
    2.1572   -4.9174    3.5316 H   0  0  0  0  0  0  0  0  0  0  0  0
 22 24  2  0  0  0  0
 24 26  1  0  0  0  0
 25 26  1  0  0  0  0
 23 25  2  0  0  0  0
 21 22  1  0  0  0  0
 22 23  1  0  0  0  0
  1  3  1  0  0  0  0
  1  7  1  0  0  0  0
  1  2  2  0  0  0  0
 36 37  1  0  0  0  0
 37 45  1  0  0  0  0
 37 38  2  0  0  0  0
  8  9  1  0  0  0  0
  9 17  1  0  0  0  0
  9 10  2  0  0  0  0
 18 19  1  0  0  0  0
 19 35  1  0  0  0  0
 19 20  2  0  0  0  0
 36 39  1  0  0  0  0
  8 11  1  0  0  0  0
 45 46  1  0  0  0  0
 18 21  1  0  0  0  0
 35 36  1  0  0  0  0
  7  8  1  0  0  0  0
 17 18  1  0  0  0  0
 24 32  1  0  0  0  0
 25 33  1  0  0  0  0
  3  4  1  0  0  0  0
  3  5  1  0  0  0  0
  3  6  1  0  0  0  0
 39 42  1  0  0  0  0
 39 43  1  0  0  0  0
 39 44  1  0  0  0  0
 11 14  1  0  0  0  0
 11 15  1  0  0  0  0
 11 16  1  0  0  0  0
 46 48  1  0  0  0  0
 46 49  1  0  0  0  0
 46 50  1  0  0  0  0
 21 29  1  0  0  0  0
 21 30  1  0  0  0  0
 36 41  1  0  0  0  0
  8 13  1  0  0  0  0
 18 28  1  0  0  0  0
 26 34  1  0  0  0  0
 23 31  1  0  0  0  0
 45 47  1  0  0  0  0
  7 12  1  0  0  0  0
 35 40  1  0  0  0  0
 17 27  1  0  0  0  0
M  CHG  1  23   1
M  END
$$$$

  -OEChem-05262214473D

 50 50  0     1  0  0  0  0  0999 V2000
   -1.6938    0.4865    3.8080 C   0  0  0  0  0  0  0  0  0  0  0  0
   -0.7464   -0.1282    3.3323 O   0  0  0  0  0  0  0  0  0  0  0  0
   -2.1257    0.2041    5.2087 C   0  0  0  0  0  0  0  0  0  0  0  0
   -2.8853   -0.5922    5.2621 H   0  0  0  0  0  0  0  0  0  0  0  0
   -1.2944   -0.1435    5.8430 H   0  0  0  0  0  0  0  0  0  0  0  0
   -2.5637    1.0590    5.7483 H   0  0  0  0  0  0  0  0  0  0  0  0
   -2.4435    1.4589    3.1669 N   0  0  0  0  0  0  0  0  0  0  0  0
   -2.1966    1.8850    1.8145 C   0  0  2  0  0  0  0  0  0  0  0  0
   -0.8617    1.2996    1.3733 C   0  0  0  0  0  0  0  0  0  0  0  0
    0.0104    0.9468    2.1646 O   0  0  0  0  0  0  0  0  0  0  0  0
   -2.1879    3.4017    1.7050 C   0  0  0  0  0  0  0  0  0  0  0  0
   -3.2085    1.8948    3.6787 H   0  0  0  0  0  0  0  0  0  0  0  0
   -3.0007    1.4665    1.1994 H   0  0  0  0  0  0  0  0  0  0  0  0
   -1.3888    3.8390    2.3147 H   0  0  0  0  0  0  0  0  0  0  0  0
   -2.0284    3.7240    0.6708 H   0  0  0  0  0  0  0  0  0  0  0  0
   -3.1380    3.8230    2.0508 H   0  0  0  0  0  0  0  0  0  0  0  0
   -0.7390    1.2565   -0.0101 N   0  0  0  0  0  0  0  0  0  0  0  0
    0.4383    0.7557   -0.6738 C   0  0  2  0  0  0  0  0  0  0  0  0
    1.0503   -0.3057    0.2335 C   0  0  0  0  0  0  0  0  0  0  0  0
    1.4858   -1.3753   -0.1874 O   0  0  0  0  0  0  0  0  0  0  0  0
    1.4576    1.8645   -0.9597 C   0  0  0  0  0  0  0  0  0  0  0  0
    0.9354    2.9034   -1.9219 C   0  0  0  0  0  0  0  0  0  0  0  0
    0.8293    2.6564   -3.2694 N   0  3  0  0  0  0  0  0  0  0  0  0
    0.4978    4.1820   -1.7207 C   0  0  0  0  0  0  0  0  0  0  0  0
    0.3446    3.7400   -3.8844 C   0  0  0  0  0  0  0  0  0  0  0  0
    0.1391    4.6757   -2.9519 N   0  0  0  0  0  0  0  0  0  0  0  0
   -1.5221    1.5532   -0.5874 H   0  0  0  0  0  0  0  0  0  0  0  0
    0.0962    0.2813   -1.6011 H   0  0  0  0  0  0  0  0  0  0  0  0
    2.3889    1.4333   -1.3513 H   0  0  0  0  0  0  0  0  0  0  0  0
    1.7442    2.3714   -0.0288 H   0  0  0  0  0  0  0  0  0  0  0  0
    1.0802    1.7869   -3.7319 H   0  0  0  0  0  0  0  0  0  0  0  0
    0.3849    4.8318   -0.8758 H   0  0  0  0  0  0  0  0  0  0  0  0
    0.1549    3.8409   -4.9399 H   0  0  0  0  0  0  0  0  0  0  0  0
   -0.2255    5.6075   -3.1292 H   0  0  0  0  0  0  0  0  0  0  0  0
    1.0963    0.1066    1.5580 N   0  0  0  0  0  0  0  0  0  0  0  0
    1.6496   -0.7004    2.6216 C   0  0  2  0  0  0  0  0  0  0  0  0
    1.0285   -2.0880    2.5309 C   0  0  0  0  0  0  0  0  0  0  0  0
   -0.0454   -2.3072    1.9744 O   0  0  0  0  0  0  0  0  0  0  0  0
    1.3883   -0.0758    3.9833 C   0  0  0  0  0  0  0  0  0  0  0  0
    0.7221    1.0216    1.7915 H   0  0  0  0  0  0  0  0  0  0  0  0
    2.7274   -0.7694    2.4382 H   0  0  0  0  0  0  0  0  0  0  0  0
    0.3136    0.0015    4.1848 H   0  0  0  0  0  0  0  0  0  0  0  0
    1.8328   -0.6736    4.7859 H   0  0  0  0  0  0  0  0  0  0  0  0
    1.8099    0.9337    4.0365 H   0  0  0  0  0  0  0  0  0  0  0  0
    1.7934   -3.0457    3.1820 N   0  0  0  0  0  0  0  0  0  0  0  0
    1.4100   -4.4366    3.2484 C   0  0  0  0  0  0  0  0  0  0  0  0
    2.6796   -2.7779    3.6000 H   0  0  0  0  0  0  0  0  0  0  0  0
    0.8337   -4.6151    4.1682 H   0  0  0  0  0  0  0  0  0  0  0  0
    0.7921   -4.6887    2.3739 H   0  0  0  0  0  0  0  0  0  0  0  0
    2.3123   -5.0657    3.2533 H   0  0  0  0  0  0  0  0  0  0  0  0
 22 24  2  0  0  0  0
 24 26  1  0  0  0  0
 25 26  1  0  0  0  0
 23 25  2  0  0  0  0
 21 22  1  0  0  0  0
 22 23  1  0  0  0  0
  1  3  1  0  0  0  0
  1  7  1  0  0  0  0
  1  2  2  0  0  0  0
 36 37  1  0  0  0  0
 37 45  1  0  0  0  0
 37 38  2  0  0  0  0
  8  9  1  0  0  0  0
  9 17  1  0  0  0  0
  9 10  2  0  0  0  0
 18 19  1  0  0  0  0
 19 35  1  0  0  0  0
 19 20  2  0  0  0  0
 36 39  1  0  0  0  0
  8 11  1  0  0  0  0
 45 46  1  0  0  0  0
 18 21  1  0  0  0  0
 35 36  1  0  0  0  0
  7  8  1  0  0  0  0
 17 18  1  0  0  0  0
 24 32  1  0  0  0  0
 25 33  1  0  0  0  0
  3  4  1  0  0  0  0
  3  5  1  0  0  0  0
  3  6  1  0  0  0  0
 39 42  1  0  0  0  0
 39 43  1  0  0  0  0
 39 44  1  0  0  0  0
 11 14  1  0  0  0  0
 11 15  1  0  0  0  0
 11 16  1  0  0  0  0
 46 48  1  0  0  0  0
 46 49  1  0  0  0  0
 46 50  1  0  0  0  0
 21 29  1  0  0  0  0
 21 30  1  0  0  0  0
 36 41  1  0  0  0  0
  8 13  1  0  0  0  0
 18 28  1  0  0  0  0
 26 34  1  0  0  0  0
 23 31  1  0  0  0  0
 45 47  1  0  0  0  0
  7 12  1  0  0  0  0
 35 40  1  0  0  0  0
 17 27  1  0  0  0  0
M  CHG  1  23   1
M  END
$$$$

  -OEChem-05262214473D

 50 50  0     1  0  0  0  0  0999 V2000
   -1.6938    0.4865    3.8080 C   0  0  0  0  0  0  0  0  0  0  0  0
   -0.7464   -0.1282    3.3323 O   0  0  0  0  0  0  0  0  0  0  0  0
   -2.1257    0.2041    5.2087 C   0  0  0  0  0  0  0  0  0  0  0  0
   -2.8853   -0.5922    5.2621 H   0  0  0  0  0  0  0  0  0  0  0  0
   -1.2944   -0.1435    5.8430 H   0  0  0  0  0  0  0  0  0  0  0  0
   -2.5637    1.0590    5.7483 H   0  0  0  0  0  0  0  0  0  0  0  0
   -2.4435    1.4589    3.1669 N   0  0  0  0  0  0  0  0  0  0  0  0
   -2.1966    1.8850    1.8145 C   0  0  2  0  0  0  0  0  0  0  0  0
   -0.8617    1.2996    1.3733 C   0  0  0  0  0  0  0  0  0  0  0  0
    0.0104    0.9468    2.1646 O   0  0  0  0  0  0  0  0  0  0  0  0
   -2.1879    3.4017    1.7050 C   0  0  0  0  0  0  0  0  0  0  0  0
   -3.2085    1.8948    3.6787 H   0  0  0  0  0  0  0  0  0  0  0  0
   -3.0007    1.4665    1.1994 H   0  0  0  0  0  0  0  0  0  0  0  0
   -1.3888    3.8390    2.3147 H   0  0  0  0  0  0  0  0  0  0  0  0
   -2.0284    3.7240    0.6708 H   0  0  0  0  0  0  0  0  0  0  0  0
   -3.1380    3.8230    2.0508 H   0  0  0  0  0  0  0  0  0  0  0  0
   -0.7390    1.2565   -0.0101 N   0  0  0  0  0  0  0  0  0  0  0  0
    0.4383    0.7557   -0.6738 C   0  0  2  0  0  0  0  0  0  0  0  0
    1.0503   -0.3057    0.2335 C   0  0  0  0  0  0  0  0  0  0  0  0
    1.7207   -1.2440   -0.1921 O   0  0  0  0  0  0  0  0  0  0  0  0
    1.4576    1.8645   -0.9597 C   0  0  0  0  0  0  0  0  0  0  0  0
    0.9354    2.9034   -1.9219 C   0  0  0  0  0  0  0  0  0  0  0  0
    0.8293    2.6564   -3.2694 N   0  3  0  0  0  0  0  0  0  0  0  0
    0.4978    4.1820   -1.7207 C   0  0  0  0  0  0  0  0  0  0  0  0
    0.3446    3.7400   -3.8844 C   0  0  0  0  0  0  0  0  0  0  0  0
    0.1391    4.6757   -2.9519 N   0  0  0  0  0  0  0  0  0  0  0  0
   -1.5221    1.5532   -0.5874 H   0  0  0  0  0  0  0  0  0  0  0  0
    0.0962    0.2813   -1.6011 H   0  0  0  0  0  0  0  0  0  0  0  0
    2.3889    1.4333   -1.3513 H   0  0  0  0  0  0  0  0  0  0  0  0
    1.7442    2.3714   -0.0288 H   0  0  0  0  0  0  0  0  0  0  0  0
    1.0802    1.7869   -3.7319 H   0  0  0  0  0  0  0  0  0  0  0  0
    0.3849    4.8318   -0.8758 H   0  0  0  0  0  0  0  0  0  0  0  0
    0.1549    3.8409   -4.9399 H   0  0  0  0  0  0  0  0  0  0  0  0
   -0.2255    5.6075   -3.1292 H   0  0  0  0  0  0  0  0  0  0  0  0
    0.7996   -0.0503    1.5745 N   0  0  0  0  0  0  0  0  0  0  0  0
    1.2862   -0.8887    2.6465 C   0  0  2  0  0  0  0  0  0  0  0  0
    0.9254   -2.3310    2.3162 C   0  0  0  0  0  0  0  0  0  0  0  0
    0.0137   -2.6358    1.5500 O   0  0  0  0  0  0  0  0  0  0  0  0
    0.6959   -0.4736    3.9851 C   0  0  0  0  0  0  0  0  0  0  0  0
    0.2464    0.7670    1.8146 H   0  0  0  0  0  0  0  0  0  0  0  0
    2.3760   -0.7791    2.6639 H   0  0  0  0  0  0  0  0  0  0  0  0
   -0.3954   -0.5767    3.9867 H   0  0  0  0  0  0  0  0  0  0  0  0
    1.0874   -1.0914    4.8000 H   0  0  0  0  0  0  0  0  0  0  0  0
    0.9312    0.5729    4.2071 H   0  0  0  0  0  0  0  0  0  0  0  0
    1.7130   -3.2382    3.0110 N   0  0  0  0  0  0  0  0  0  0  0  0
    1.5566   -4.6680    2.8789 C   0  0  0  0  0  0  0  0  0  0  0  0
    2.4581   -2.8964    3.6108 H   0  0  0  0  0  0  0  0  0  0  0  0
    0.8677   -5.0351    3.6538 H   0  0  0  0  0  0  0  0  0  0  0  0
    1.1480   -4.9016    1.8847 H   0  0  0  0  0  0  0  0  0  0  0  0
    2.5351   -5.1562    2.9972 H   0  0  0  0  0  0  0  0  0  0  0  0
 22 24  2  0  0  0  0
 24 26  1  0  0  0  0
 25 26  1  0  0  0  0
 23 25  2  0  0  0  0
 21 22  1  0  0  0  0
 22 23  1  0  0  0  0
  1  3  1  0  0  0  0
  1  7  1  0  0  0  0
  1  2  2  0  0  0  0
 36 37  1  0  0  0  0
 37 45  1  0  0  0  0
 37 38  2  0  0  0  0
  8  9  1  0  0  0  0
  9 17  1  0  0  0  0
  9 10  2  0  0  0  0
 18 19  1  0  0  0  0
 19 35  1  0  0  0  0
 19 20  2  0  0  0  0
 36 39  1  0  0  0  0
  8 11  1  0  0  0  0
 45 46  1  0  0  0  0
 18 21  1  0  0  0  0
 35 36  1  0  0  0  0
  7  8  1  0  0  0  0
 17 18  1  0  0  0  0
 24 32  1  0  0  0  0
 25 33  1  0  0  0  0
  3  4  1  0  0  0  0
  3  5  1  0  0  0  0
  3  6  1  0  0  0  0
 39 42  1  0  0  0  0
 39 43  1  0  0  0  0
 39 44  1  0  0  0  0
 11 14  1  0  0  0  0
 11 15  1  0  0  0  0
 11 16  1  0  0  0  0
 46 48  1  0  0  0  0
 46 49  1  0  0  0  0
 46 50  1  0  0  0  0
 21 29  1  0  0  0  0
 21 30  1  0  0  0  0
 36 41  1  0  0  0  0
  8 13  1  0  0  0  0
 18 28  1  0  0  0  0
 26 34  1  0  0  0  0
 23 31  1  0  0  0  0
 45 47  1  0  0  0  0
  7 12  1  0  0  0  0
 35 40  1  0  0  0  0
 17 27  1  0  0  0  0
M  CHG  1  23   1
M  END
$$$$

  -OEChem-05262214473D

 50 50  0     1  0  0  0  0  0999 V2000
   -1.6938    0.4865    3.8080 C   0  0  0  0  0  0  0  0  0  0  0  0
   -0.7464   -0.1282    3.3323 O   0  0  0  0  0  0  0  0  0  0  0  0
   -2.1257    0.2041    5.2087 C   0  0  0  0  0  0  0  0  0  0  0  0
   -2.8853   -0.5922    5.2621 H   0  0  0  0  0  0  0  0  0  0  0  0
   -1.2944   -0.1435    5.8430 H   0  0  0  0  0  0  0  0  0  0  0  0
   -2.5637    1.0590    5.7483 H   0  0  0  0  0  0  0  0  0  0  0  0
   -2.4435    1.4589    3.1669 N   0  0  0  0  0  0  0  0  0  0  0  0
   -2.1966    1.8850    1.8145 C   0  0  2  0  0  0  0  0  0  0  0  0
   -0.8617    1.2996    1.3733 C   0  0  0  0  0  0  0  0  0  0  0  0
    0.0104    0.9468    2.1646 O   0  0  0  0  0  0  0  0  0  0  0  0
   -2.1879    3.4017    1.7050 C   0  0  0  0  0  0  0  0  0  0  0  0
   -3.2085    1.8948    3.6787 H   0  0  0  0  0  0  0  0  0  0  0  0
   -3.0007    1.4665    1.1994 H   0  0  0  0  0  0  0  0  0  0  0  0
   -1.3888    3.8390    2.3147 H   0  0  0  0  0  0  0  0  0  0  0  0
   -2.0284    3.7240    0.6708 H   0  0  0  0  0  0  0  0  0  0  0  0
   -3.1380    3.8230    2.0508 H   0  0  0  0  0  0  0  0  0  0  0  0
   -0.7390    1.2565   -0.0101 N   0  0  0  0  0  0  0  0  0  0  0  0
    0.4383    0.7557   -0.6738 C   0  0  2  0  0  0  0  0  0  0  0  0
    1.0503   -0.3057    0.2335 C   0  0  0  0  0  0  0  0  0  0  0  0
    1.9282   -1.0804   -0.1407 O   0  0  0  0  0  0  0  0  0  0  0  0
    1.4576    1.8645   -0.9597 C   0  0  0  0  0  0  0  0  0  0  0  0
    0.9354    2.9034   -1.9219 C   0  0  0  0  0  0  0  0  0  0  0  0
    0.8293    2.6564   -3.2694 N   0  3  0  0  0  0  0  0  0  0  0  0
    0.4978    4.1820   -1.7207 C   0  0  0  0  0  0  0  0  0  0  0  0
    0.3446    3.7400   -3.8844 C   0  0  0  0  0  0  0  0  0  0  0  0
    0.1391    4.6757   -2.9519 N   0  0  0  0  0  0  0  0  0  0  0  0
   -1.5221    1.5532   -0.5874 H   0  0  0  0  0  0  0  0  0  0  0  0
    0.0962    0.2813   -1.6011 H   0  0  0  0  0  0  0  0  0  0  0  0
    2.3889    1.4333   -1.3513 H   0  0  0  0  0  0  0  0  0  0  0  0
    1.7442    2.3714   -0.0288 H   0  0  0  0  0  0  0  0  0  0  0  0
    1.0802    1.7869   -3.7319 H   0  0  0  0  0  0  0  0  0  0  0  0
    0.3849    4.8318   -0.8758 H   0  0  0  0  0  0  0  0  0  0  0  0
    0.1549    3.8409   -4.9399 H   0  0  0  0  0  0  0  0  0  0  0  0
   -0.2255    5.6075   -3.1292 H   0  0  0  0  0  0  0  0  0  0  0  0
    0.5343   -0.2493    1.5207 N   0  0  0  0  0  0  0  0  0  0  0  0
    0.9596   -1.1292    2.5854 C   0  0  2  0  0  0  0  0  0  0  0  0
    0.9018   -2.5593    2.0650 C   0  0  0  0  0  0  0  0  0  0  0  0
    0.1979   -2.9001    1.1166 O   0  0  0  0  0  0  0  0  0  0  0  0
    0.0880   -0.9647    3.8207 C   0  0  0  0  0  0  0  0  0  0  0  0
   -0.1781    0.4454    1.7247 H   0  0  0  0  0  0  0  0  0  0  0  0
    1.9974   -0.8661    2.8176 H   0  0  0  0  0  0  0  0  0  0  0  0
   -0.9555   -1.2238    3.6075 H   0  0  0  0  0  0  0  0  0  0  0  0
    0.4291   -1.6112    4.6360 H   0  0  0  0  0  0  0  0  0  0  0  0
    0.1073    0.0713    4.1761 H   0  0  0  0  0  0  0  0  0  0  0  0
    1.6958   -3.4188    2.8114 N   0  0  0  0  0  0  0  0  0  0  0  0
    1.8004   -4.8304    2.5243 C   0  0  0  0  0  0  0  0  0  0  0  0
    2.2605   -3.0461    3.5689 H   0  0  0  0  0  0  0  0  0  0  0  0
    1.0579   -5.3822    3.1195 H   0  0  0  0  0  0  0  0  0  0  0  0
    1.6127   -5.0017    1.4540 H   0  0  0  0  0  0  0  0  0  0  0  0
    2.8105   -5.1827    2.7804 H   0  0  0  0  0  0  0  0  0  0  0  0
 22 24  2  0  0  0  0
 24 26  1  0  0  0  0
 25 26  1  0  0  0  0
 23 25  2  0  0  0  0
 21 22  1  0  0  0  0
 22 23  1  0  0  0  0
  1  3  1  0  0  0  0
  1  7  1  0  0  0  0
  1  2  2  0  0  0  0
 36 37  1  0  0  0  0
 37 45  1  0  0  0  0
 37 38  2  0  0  0  0
  8  9  1  0  0  0  0
  9 17  1  0  0  0  0
  9 10  2  0  0  0  0
 18 19  1  0  0  0  0
 19 35  1  0  0  0  0
 19 20  2  0  0  0  0
 36 39  1  0  0  0  0
  8 11  1  0  0  0  0
 45 46  1  0  0  0  0
 18 21  1  0  0  0  0
 35 36  1  0  0  0  0
  7  8  1  0  0  0  0
 17 18  1  0  0  0  0
 24 32  1  0  0  0  0
 25 33  1  0  0  0  0
  3  4  1  0  0  0  0
  3  5  1  0  0  0  0
  3  6  1  0  0  0  0
 39 42  1  0  0  0  0
 39 43  1  0  0  0  0
 39 44  1  0  0  0  0
 11 14  1  0  0  0  0
 11 15  1  0  0  0  0
 11 16  1  0  0  0  0
 46 48  1  0  0  0  0
 46 49  1  0  0  0  0
 46 50  1  0  0  0  0
 21 29  1  0  0  0  0
 21 30  1  0  0  0  0
 36 41  1  0  0  0  0
  8 13  1  0  0  0  0
 18 28  1  0  0  0  0
 26 34  1  0  0  0  0
 23 31  1  0  0  0  0
 45 47  1  0  0  0  0
  7 12  1  0  0  0  0
 35 40  1  0  0  0  0
 17 27  1  0  0  0  0
M  CHG  1  23   1
M  END
$$$$

  -OEChem-05262214473D

 50 50  0     1  0  0  0  0  0999 V2000
   -1.6938    0.4865    3.8080 C   0  0  0  0  0  0  0  0  0  0  0  0
   -0.7464   -0.1282    3.3323 O   0  0  0  0  0  0  0  0  0  0  0  0
   -2.1257    0.2041    5.2087 C   0  0  0  0  0  0  0  0  0  0  0  0
   -2.8853   -0.5922    5.2621 H   0  0  0  0  0  0  0  0  0  0  0  0
   -1.2944   -0.1435    5.8430 H   0  0  0  0  0  0  0  0  0  0  0  0
   -2.5637    1.0590    5.7483 H   0  0  0  0  0  0  0  0  0  0  0  0
   -2.4435    1.4589    3.1669 N   0  0  0  0  0  0  0  0  0  0  0  0
   -2.1966    1.8850    1.8145 C   0  0  2  0  0  0  0  0  0  0  0  0
   -0.8617    1.2996    1.3733 C   0  0  0  0  0  0  0  0  0  0  0  0
    0.0104    0.9468    2.1646 O   0  0  0  0  0  0  0  0  0  0  0  0
   -2.1879    3.4017    1.7050 C   0  0  0  0  0  0  0  0  0  0  0  0
   -3.2085    1.8948    3.6787 H   0  0  0  0  0  0  0  0  0  0  0  0
   -3.0007    1.4665    1.1994 H   0  0  0  0  0  0  0  0  0  0  0  0
   -1.3888    3.8390    2.3147 H   0  0  0  0  0  0  0  0  0  0  0  0
   -2.0284    3.7240    0.6708 H   0  0  0  0  0  0  0  0  0  0  0  0
   -3.1380    3.8230    2.0508 H   0  0  0  0  0  0  0  0  0  0  0  0
   -0.7390    1.2565   -0.0101 N   0  0  0  0  0  0  0  0  0  0  0  0
    0.4383    0.7557   -0.6738 C   0  0  2  0  0  0  0  0  0  0  0  0
    1.0503   -0.3057    0.2335 C   0  0  0  0  0  0  0  0  0  0  0  0
    2.0942   -0.8958   -0.0367 O   0  0  0  0  0  0  0  0  0  0  0  0
    1.4576    1.8645   -0.9597 C   0  0  0  0  0  0  0  0  0  0  0  0
    0.9354    2.9034   -1.9219 C   0  0  0  0  0  0  0  0  0  0  0  0
    0.8293    2.6564   -3.2694 N   0  3  0  0  0  0  0  0  0  0  0  0
    0.4978    4.1820   -1.7207 C   0  0  0  0  0  0  0  0  0  0  0  0
    0.3446    3.7400   -3.8844 C   0  0  0  0  0  0  0  0  0  0  0  0
    0.1391    4.6757   -2.9519 N   0  0  0  0  0  0  0  0  0  0  0  0
   -1.5221    1.5532   -0.5874 H   0  0  0  0  0  0  0  0  0  0  0  0
    0.0962    0.2813   -1.6011 H   0  0  0  0  0  0  0  0  0  0  0  0
    2.3889    1.4333   -1.3513 H   0  0  0  0  0  0  0  0  0  0  0  0
    1.7442    2.3714   -0.0288 H   0  0  0  0  0  0  0  0  0  0  0  0
    1.0802    1.7869   -3.7319 H   0  0  0  0  0  0  0  0  0  0  0  0
    0.3849    4.8318   -0.8758 H   0  0  0  0  0  0  0  0  0  0  0  0
    0.1549    3.8409   -4.9399 H   0  0  0  0  0  0  0  0  0  0  0  0
   -0.2255    5.6075   -3.1292 H   0  0  0  0  0  0  0  0  0  0  0  0
    0.3184   -0.4768    1.4002 N   0  0  0  0  0  0  0  0  0  0  0  0
    0.6923   -1.4054    2.4426 C   0  0  2  0  0  0  0  0  0  0  0  0
    0.9595   -2.7574    1.7943 C   0  0  0  0  0  0  0  0  0  0  0  0
    0.4946   -3.0819    0.7037 O   0  0  0  0  0  0  0  0  0  0  0  0
   -0.3939   -1.5155    3.5013 C   0  0  0  0  0  0  0  0  0  0  0  0
   -0.5224    0.0787    1.5280 H   0  0  0  0  0  0  0  0  0  0  0  0
    1.6173   -1.0244    2.8888 H   0  0  0  0  0  0  0  0  0  0  0  0
   -1.3285   -1.8957    3.0730 H   0  0  0  0  0  0  0  0  0  0  0  0
   -0.0971   -2.1976    4.3048 H   0  0  0  0  0  0  0  0  0  0  0  0
   -0.6058   -0.5370    3.9456 H   0  0  0  0  0  0  0  0  0  0  0  0
    1.7429   -3.5751    2.5967 N   0  0  0  0  0  0  0  0  0  0  0  0
    2.1248   -4.9130    2.2089 C   0  0  0  0  0  0  0  0  0  0  0  0
    2.1002   -3.2168    3.4774 H   0  0  0  0  0  0  0  0  0  0  0  0
    1.3913   -5.6326    2.6016 H   0  0  0  0  0  0  0  0  0  0  0  0
    2.1547   -4.9821    1.1114 H   0  0  0  0  0  0  0  0  0  0  0  0
    3.1195   -5.1434    2.6180 H   0  0  0  0  0  0  0  0  0  0  0  0
 22 24  2  0  0  0  0
 24 26  1  0  0  0  0
 25 26  1  0  0  0  0
 23 25  2  0  0  0  0
 21 22  1  0  0  0  0
 22 23  1  0  0  0  0
  1  3  1  0  0  0  0
  1  7  1  0  0  0  0
  1  2  2  0  0  0  0
 36 37  1  0  0  0  0
 37 45  1  0  0  0  0
 37 38  2  0  0  0  0
  8  9  1  0  0  0  0
  9 17  1  0  0  0  0
  9 10  2  0  0  0  0
 18 19  1  0  0  0  0
 19 35  1  0  0  0  0
 19 20  2  0  0  0  0
 36 39  1  0  0  0  0
  8 11  1  0  0  0  0
 45 46  1  0  0  0  0
 18 21  1  0  0  0  0
 35 36  1  0  0  0  0
  7  8  1  0  0  0  0
 17 18  1  0  0  0  0
 24 32  1  0  0  0  0
 25 33  1  0  0  0  0
  3  4  1  0  0  0  0
  3  5  1  0  0  0  0
  3  6  1  0  0  0  0
 39 42  1  0  0  0  0
 39 43  1  0  0  0  0
 39 44  1  0  0  0  0
 11 14  1  0  0  0  0
 11 15  1  0  0  0  0
 11 16  1  0  0  0  0
 46 48  1  0  0  0  0
 46 49  1  0  0  0  0
 46 50  1  0  0  0  0
 21 29  1  0  0  0  0
 21 30  1  0  0  0  0
 36 41  1  0  0  0  0
  8 13  1  0  0  0  0
 18 28  1  0  0  0  0
 26 34  1  0  0  0  0
 23 31  1  0  0  0  0
 45 47  1  0  0  0  0
  7 12  1  0  0  0  0
 35 40  1  0  0  0  0
 17 27  1  0  0  0  0
M  CHG  1  23   1
M  END
$$$$

  -OEChem-05262214473D

 50 50  0     1  0  0  0  0  0999 V2000
   -1.6938    0.4865    3.8080 C   0  0  0  0  0  0  0  0  0  0  0  0
   -0.7464   -0.1282    3.3323 O   0  0  0  0  0  0  0  0  0  0  0  0
   -2.1257    0.2041    5.2087 C   0  0  0  0  0  0  0  0  0  0  0  0
   -2.8853   -0.5922    5.2621 H   0  0  0  0  0  0  0  0  0  0  0  0
   -1.2944   -0.1435    5.8430 H   0  0  0  0  0  0  0  0  0  0  0  0
   -2.5637    1.0590    5.7483 H   0  0  0  0  0  0  0  0  0  0  0  0
   -2.4435    1.4589    3.1669 N   0  0  0  0  0  0  0  0  0  0  0  0
   -2.1966    1.8850    1.8145 C   0  0  2  0  0  0  0  0  0  0  0  0
   -0.8617    1.2996    1.3733 C   0  0  0  0  0  0  0  0  0  0  0  0
    0.0104    0.9468    2.1646 O   0  0  0  0  0  0  0  0  0  0  0  0
   -2.1879    3.4017    1.7050 C   0  0  0  0  0  0  0  0  0  0  0  0
   -3.2085    1.8948    3.6787 H   0  0  0  0  0  0  0  0  0  0  0  0
   -3.0007    1.4665    1.1994 H   0  0  0  0  0  0  0  0  0  0  0  0
   -1.3888    3.8390    2.3147 H   0  0  0  0  0  0  0  0  0  0  0  0
   -2.0284    3.7240    0.6708 H   0  0  0  0  0  0  0  0  0  0  0  0
   -3.1380    3.8230    2.0508 H   0  0  0  0  0  0  0  0  0  0  0  0
   -0.7390    1.2565   -0.0101 N   0  0  0  0  0  0  0  0  0  0  0  0
    0.4383    0.7557   -0.6738 C   0  0  2  0  0  0  0  0  0  0  0  0
    1.0503   -0.3057    0.2335 C   0  0  0  0  0  0  0  0  0  0  0  0
    2.2074   -0.7027    0.1128 O   0  0  0  0  0  0  0  0  0  0  0  0
    1.4576    1.8645   -0.9597 C   0  0  0  0  0  0  0  0  0  0  0  0
    0.9354    2.9034   -1.9219 C   0  0  0  0  0  0  0  0  0  0  0  0
    0.8293    2.6564   -3.2694 N   0  3  0  0  0  0  0  0  0  0  0  0
    0.4978    4.1820   -1.7207 C   0  0  0  0  0  0  0  0  0  0  0  0
    0.3446    3.7400   -3.8844 C   0  0  0  0  0  0  0  0  0  0  0  0
    0.1391    4.6757   -2.9519 N   0  0  0  0  0  0  0  0  0  0  0  0
   -1.5221    1.5532   -0.5874 H   0  0  0  0  0  0  0  0  0  0  0  0
    0.0962    0.2813   -1.6011 H   0  0  0  0  0  0  0  0  0  0  0  0
    2.3889    1.4333   -1.3513 H   0  0  0  0  0  0  0  0  0  0  0  0
    1.7442    2.3714   -0.0288 H   0  0  0  0  0  0  0  0  0  0  0  0
    1.0802    1.7869   -3.7319 H   0  0  0  0  0  0  0  0  0  0  0  0
    0.3849    4.8318   -0.8758 H   0  0  0  0  0  0  0  0  0  0  0  0
    0.1549    3.8409   -4.9399 H   0  0  0  0  0  0  0  0  0  0  0  0
   -0.2255    5.6075   -3.1292 H   0  0  0  0  0  0  0  0  0  0  0  0
    0.1665   -0.7172    1.2214 N   0  0  0  0  0  0  0  0  0  0  0  0
    0.5022   -1.6986    2.2278 C   0  0  2  0  0  0  0  0  0  0  0  0
    1.0945   -2.9117    1.5228 C   0  0  0  0  0  0  0  0  0  0  0  0
    0.8836   -3.1690    0.3394 O   0  0  0  0  0  0  0  0  0  0  0  0
   -0.7170   -2.0886    3.0488 C   0  0  0  0  0  0  0  0  0  0  0  0
   -0.7630   -0.3081    1.2378 H   0  0  0  0  0  0  0  0  0  0  0  0
    1.2618   -1.2433    2.8726 H   0  0  0  0  0  0  0  0  0  0  0  0
   -1.4890   -2.5466    2.4197 H   0  0  0  0  0  0  0  0  0  0  0  0
   -0.4554   -2.8107    3.8293 H   0  0  0  0  0  0  0  0  0  0  0  0
   -1.1593   -1.2103    3.5312 H   0  0  0  0  0  0  0  0  0  0  0  0
    1.8512   -3.6966    2.3815 N   0  0  0  0  0  0  0  0  0  0  0  0
    2.5077   -4.9100    1.9541 C   0  0  0  0  0  0  0  0  0  0  0  0
    1.9882   -3.3968    3.3423 H   0  0  0  0  0  0  0  0  0  0  0  0
    1.8453   -5.7693    2.1354 H   0  0  0  0  0  0  0  0  0  0  0  0
    2.7368   -4.8440    0.8802 H   0  0  0  0  0  0  0  0  0  0  0  0
    3.4413   -5.0409    2.5208 H   0  0  0  0  0  0  0  0  0  0  0  0
 22 24  2  0  0  0  0
 24 26  1  0  0  0  0
 25 26  1  0  0  0  0
 23 25  2  0  0  0  0
 21 22  1  0  0  0  0
 22 23  1  0  0  0  0
  1  3  1  0  0  0  0
  1  7  1  0  0  0  0
  1  2  2  0  0  0  0
 36 37  1  0  0  0  0
 37 45  1  0  0  0  0
 37 38  2  0  0  0  0
  8  9  1  0  0  0  0
  9 17  1  0  0  0  0
  9 10  2  0  0  0  0
 18 19  1  0  0  0  0
 19 35  1  0  0  0  0
 19 20  2  0  0  0  0
 36 39  1  0  0  0  0
  8 11  1  0  0  0  0
 45 46  1  0  0  0  0
 18 21  1  0  0  0  0
 35 36  1  0  0  0  0
  7  8  1  0  0  0  0
 17 18  1  0  0  0  0
 24 32  1  0  0  0  0
 25 33  1  0  0  0  0
  3  4  1  0  0  0  0
  3  5  1  0  0  0  0
  3  6  1  0  0  0  0
 39 42  1  0  0  0  0
 39 43  1  0  0  0  0
 39 44  1  0  0  0  0
 11 14  1  0  0  0  0
 11 15  1  0  0  0  0
 11 16  1  0  0  0  0
 46 48  1  0  0  0  0
 46 49  1  0  0  0  0
 46 50  1  0  0  0  0
 21 29  1  0  0  0  0
 21 30  1  0  0  0  0
 36 41  1  0  0  0  0
  8 13  1  0  0  0  0
 18 28  1  0  0  0  0
 26 34  1  0  0  0  0
 23 31  1  0  0  0  0
 45 47  1  0  0  0  0
  7 12  1  0  0  0  0
 35 40  1  0  0  0  0
 17 27  1  0  0  0  0
M  CHG  1  23   1
M  END
$$$$

  -OEChem-05262214473D

 50 50  0     1  0  0  0  0  0999 V2000
   -1.6938    0.4865    3.8080 C   0  0  0  0  0  0  0  0  0  0  0  0
   -0.7464   -0.1282    3.3323 O   0  0  0  0  0  0  0  0  0  0  0  0
   -2.1257    0.2041    5.2087 C   0  0  0  0  0  0  0  0  0  0  0  0
   -2.8853   -0.5922    5.2621 H   0  0  0  0  0  0  0  0  0  0  0  0
   -1.2944   -0.1435    5.8430 H   0  0  0  0  0  0  0  0  0  0  0  0
   -2.5637    1.0590    5.7483 H   0  0  0  0  0  0  0  0  0  0  0  0
   -2.4435    1.4589    3.1669 N   0  0  0  0  0  0  0  0  0  0  0  0
   -2.1966    1.8850    1.8145 C   0  0  2  0  0  0  0  0  0  0  0  0
   -0.8617    1.2996    1.3733 C   0  0  0  0  0  0  0  0  0  0  0  0
    0.0104    0.9468    2.1646 O   0  0  0  0  0  0  0  0  0  0  0  0
   -2.1879    3.4017    1.7050 C   0  0  0  0  0  0  0  0  0  0  0  0
   -3.2085    1.8948    3.6787 H   0  0  0  0  0  0  0  0  0  0  0  0
   -3.0007    1.4665    1.1994 H   0  0  0  0  0  0  0  0  0  0  0  0
   -1.3888    3.8390    2.3147 H   0  0  0  0  0  0  0  0  0  0  0  0
   -2.0284    3.7240    0.6708 H   0  0  0  0  0  0  0  0  0  0  0  0
   -3.1380    3.8230    2.0508 H   0  0  0  0  0  0  0  0  0  0  0  0
   -0.7390    1.2565   -0.0101 N   0  0  0  0  0  0  0  0  0  0  0  0
    0.4383    0.7557   -0.6738 C   0  0  2  0  0  0  0  0  0  0  0  0
    1.0503   -0.3057    0.2335 C   0  0  0  0  0  0  0  0  0  0  0  0
    2.2600   -0.5143    0.2977 O   0  0  0  0  0  0  0  0  0  0  0  0
    1.4576    1.8645   -0.9597 C   0  0  0  0  0  0  0  0  0  0  0  0
    0.9354    2.9034   -1.9219 C   0  0  0  0  0  0  0  0  0  0  0  0
    0.8293    2.6564   -3.2694 N   0  3  0  0  0  0  0  0  0  0  0  0
    0.4978    4.1820   -1.7207 C   0  0  0  0  0  0  0  0  0  0  0  0
    0.3446    3.7400   -3.8844 C   0  0  0  0  0  0  0  0  0  0  0  0
    0.1391    4.6757   -2.9519 N   0  0  0  0  0  0  0  0  0  0  0  0
   -1.5221    1.5532   -0.5874 H   0  0  0  0  0  0  0  0  0  0  0  0
    0.0962    0.2813   -1.6011 H   0  0  0  0  0  0  0  0  0  0  0  0
    2.3889    1.4333   -1.3513 H   0  0  0  0  0  0  0  0  0  0  0  0
    1.7442    2.3714   -0.0288 H   0  0  0  0  0  0  0  0  0  0  0  0
    1.0802    1.7869   -3.7319 H   0  0  0  0  0  0  0  0  0  0  0  0
    0.3849    4.8318   -0.8758 H   0  0  0  0  0  0  0  0  0  0  0  0
    0.1549    3.8409   -4.9399 H   0  0  0  0  0  0  0  0  0  0  0  0
   -0.2255    5.6075   -3.1292 H   0  0  0  0  0  0  0  0  0  0  0  0
    0.0891   -0.9543    0.9962 N   0  0  0  0  0  0  0  0  0  0  0  0
    0.4026   -1.9887    1.9556 C   0  0  2  0  0  0  0  0  0  0  0  0
    1.2976   -3.0117    1.2687 C   0  0  0  0  0  0  0  0  0  0  0  0
    1.3384   -3.1553    0.0486 O   0  0  0  0  0  0  0  0  0  0  0  0
   -0.8593   -2.6450    2.4939 C   0  0  0  0  0  0  0  0  0  0  0  0
   -0.8836   -0.6886    0.8739 H   0  0  0  0  0  0  0  0  0  0  0  0
    0.9551   -1.5077    2.7701 H   0  0  0  0  0  0  0  0  0  0  0  0
   -1.4261   -3.1322    1.6922 H   0  0  0  0  0  0  0  0  0  0  0  0
   -0.6213   -3.4087    3.2416 H   0  0  0  0  0  0  0  0  0  0  0  0
   -1.5156   -1.9029    2.9613 H   0  0  0  0  0  0  0  0  0  0  0  0
    2.0133   -3.7748    2.1806 N   0  0  0  0  0  0  0  0  0  0  0  0
    2.9230   -4.8216    1.7772 C   0  0  0  0  0  0  0  0  0  0  0  0
    1.9320   -3.5740    3.1730 H   0  0  0  0  0  0  0  0  0  0  0  0
    2.3889   -5.7829    1.7527 H   0  0  0  0  0  0  0  0  0  0  0  0
    3.3195   -4.5970    0.7761 H   0  0  0  0  0  0  0  0  0  0  0  0
    3.7538   -4.8822    2.4956 H   0  0  0  0  0  0  0  0  0  0  0  0
 22 24  2  0  0  0  0
 24 26  1  0  0  0  0
 25 26  1  0  0  0  0
 23 25  2  0  0  0  0
 21 22  1  0  0  0  0
 22 23  1  0  0  0  0
  1  3  1  0  0  0  0
  1  7  1  0  0  0  0
  1  2  2  0  0  0  0
 36 37  1  0  0  0  0
 37 45  1  0  0  0  0
 37 38  2  0  0  0  0
  8  9  1  0  0  0  0
  9 17  1  0  0  0  0
  9 10  2  0  0  0  0
 18 19  1  0  0  0  0
 19 35  1  0  0  0  0
 19 20  2  0  0  0  0
 36 39  1  0  0  0  0
  8 11  1  0  0  0  0
 45 46  1  0  0  0  0
 18 21  1  0  0  0  0
 35 36  1  0  0  0  0
  7  8  1  0  0  0  0
 17 18  1  0  0  0  0
 24 32  1  0  0  0  0
 25 33  1  0  0  0  0
  3  4  1  0  0  0  0
  3  5  1  0  0  0  0
  3  6  1  0  0  0  0
 39 42  1  0  0  0  0
 39 43  1  0  0  0  0
 39 44  1  0  0  0  0
 11 14  1  0  0  0  0
 11 15  1  0  0  0  0
 11 16  1  0  0  0  0
 46 48  1  0  0  0  0
 46 49  1  0  0  0  0
 46 50  1  0  0  0  0
 21 29  1  0  0  0  0
 21 30  1  0  0  0  0
 36 41  1  0  0  0  0
  8 13  1  0  0  0  0
 18 28  1  0  0  0  0
 26 34  1  0  0  0  0
 23 31  1  0  0  0  0
 45 47  1  0  0  0  0
  7 12  1  0  0  0  0
 35 40  1  0  0  0  0
 17 27  1  0  0  0  0
M  CHG  1  23   1
M  END
$$$$

  -OEChem-05262214473D

 50 50  0     1  0  0  0  0  0999 V2000
   -1.6938    0.4865    3.8080 C   0  0  0  0  0  0  0  0  0  0  0  0
   -0.7464   -0.1282    3.3323 O   0  0  0  0  0  0  0  0  0  0  0  0
   -2.1257    0.2041    5.2087 C   0  0  0  0  0  0  0  0  0  0  0  0
   -2.8853   -0.5922    5.2621 H   0  0  0  0  0  0  0  0  0  0  0  0
   -1.2944   -0.1435    5.8430 H   0  0  0  0  0  0  0  0  0  0  0  0
   -2.5637    1.0590    5.7483 H   0  0  0  0  0  0  0  0  0  0  0  0
   -2.4435    1.4589    3.1669 N   0  0  0  0  0  0  0  0  0  0  0  0
   -2.1966    1.8850    1.8145 C   0  0  2  0  0  0  0  0  0  0  0  0
   -0.8617    1.2996    1.3733 C   0  0  0  0  0  0  0  0  0  0  0  0
    0.0104    0.9468    2.1646 O   0  0  0  0  0  0  0  0  0  0  0  0
   -2.1879    3.4017    1.7050 C   0  0  0  0  0  0  0  0  0  0  0  0
   -3.2085    1.8948    3.6787 H   0  0  0  0  0  0  0  0  0  0  0  0
   -3.0007    1.4665    1.1994 H   0  0  0  0  0  0  0  0  0  0  0  0
   -1.3888    3.8390    2.3147 H   0  0  0  0  0  0  0  0  0  0  0  0
   -2.0284    3.7240    0.6708 H   0  0  0  0  0  0  0  0  0  0  0  0
   -3.1380    3.8230    2.0508 H   0  0  0  0  0  0  0  0  0  0  0  0
   -0.7390    1.2565   -0.0101 N   0  0  0  0  0  0  0  0  0  0  0  0
    0.4383    0.7557   -0.6738 C   0  0  2  0  0  0  0  0  0  0  0  0
    1.0503   -0.3057    0.2335 C   0  0  0  0  0  0  0  0  0  0  0  0
    2.2485   -0.3434    0.5054 O   0  0  0  0  0  0  0  0  0  0  0  0
    1.4576    1.8645   -0.9597 C   0  0  0  0  0  0  0  0  0  0  0  0
    0.9354    2.9034   -1.9219 C   0  0  0  0  0  0  0  0  0  0  0  0
    0.8293    2.6564   -3.2694 N   0  3  0  0  0  0  0  0  0  0  0  0
    0.4978    4.1820   -1.7207 C   0  0  0  0  0  0  0  0  0  0  0  0
    0.3446    3.7400   -3.8844 C   0  0  0  0  0  0  0  0  0  0  0  0
    0.1391    4.6757   -2.9519 N   0  0  0  0  0  0  0  0  0  0  0  0
   -1.5221    1.5532   -0.5874 H   0  0  0  0  0  0  0  0  0  0  0  0
    0.0962    0.2813   -1.6011 H   0  0  0  0  0  0  0  0  0  0  0  0
    2.3889    1.4333   -1.3513 H   0  0  0  0  0  0  0  0  0  0  0  0
    1.7442    2.3714   -0.0288 H   0  0  0  0  0  0  0  0  0  0  0  0
    1.0802    1.7869   -3.7319 H   0  0  0  0  0  0  0  0  0  0  0  0
    0.3849    4.8318   -0.8758 H   0  0  0  0  0  0  0  0  0  0  0  0
    0.1549    3.8409   -4.9399 H   0  0  0  0  0  0  0  0  0  0  0  0
   -0.2255    5.6075   -3.1292 H   0  0  0  0  0  0  0  0  0  0  0  0
    0.0914   -1.1718    0.7402 N   0  0  0  0  0  0  0  0  0  0  0  0
    0.4000   -2.2560    1.6446 C   0  0  2  0  0  0  0  0  0  0  0  0
    1.5550   -3.0507    1.0495 C   0  0  0  0  0  0  0  0  0  0  0  0
    1.8281   -3.0418   -0.1490 O   0  0  0  0  0  0  0  0  0  0  0  0
   -0.8111   -3.1466    1.8744 C   0  0  0  0  0  0  0  0  0  0  0  0
   -0.8759   -1.0369    0.4612 H   0  0  0  0  0  0  0  0  0  0  0  0
    0.7179   -1.7998    2.5884 H   0  0  0  0  0  0  0  0  0  0  0  0
   -1.1441   -3.6126    0.9399 H   0  0  0  0  0  0  0  0  0  0  0  0
   -0.5836   -3.9508    2.5820 H   0  0  0  0  0  0  0  0  0  0  0  0
   -1.6503   -2.5676    2.2746 H   0  0  0  0  0  0  0  0  0  0  0  0
    2.2181   -3.8046    2.0076 N   0  0  0  0  0  0  0  0  0  0  0  0
    3.3424   -4.6540    1.6905 C   0  0  0  0  0  0  0  0  0  0  0  0
    1.9356   -3.7361    2.9809 H   0  0  0  0  0  0  0  0  0  0  0  0
    2.9850   -5.6727    1.4795 H   0  0  0  0  0  0  0  0  0  0  0  0
    3.8631   -4.2578    0.8062 H   0  0  0  0  0  0  0  0  0  0  0  0
    4.0358   -4.6782    2.5441 H   0  0  0  0  0  0  0  0  0  0  0  0
 22 24  2  0  0  0  0
 24 26  1  0  0  0  0
 25 26  1  0  0  0  0
 23 25  2  0  0  0  0
 21 22  1  0  0  0  0
 22 23  1  0  0  0  0
  1  3  1  0  0  0  0
  1  7  1  0  0  0  0
  1  2  2  0  0  0  0
 36 37  1  0  0  0  0
 37 45  1  0  0  0  0
 37 38  2  0  0  0  0
  8  9  1  0  0  0  0
  9 17  1  0  0  0  0
  9 10  2  0  0  0  0
 18 19  1  0  0  0  0
 19 35  1  0  0  0  0
 19 20  2  0  0  0  0
 36 39  1  0  0  0  0
  8 11  1  0  0  0  0
 45 46  1  0  0  0  0
 18 21  1  0  0  0  0
 35 36  1  0  0  0  0
  7  8  1  0  0  0  0
 17 18  1  0  0  0  0
 24 32  1  0  0  0  0
 25 33  1  0  0  0  0
  3  4  1  0  0  0  0
  3  5  1  0  0  0  0
  3  6  1  0  0  0  0
 39 42  1  0  0  0  0
 39 43  1  0  0  0  0
 39 44  1  0  0  0  0
 11 14  1  0  0  0  0
 11 15  1  0  0  0  0
 11 16  1  0  0  0  0
 46 48  1  0  0  0  0
 46 49  1  0  0  0  0
 46 50  1  0  0  0  0
 21 29  1  0  0  0  0
 21 30  1  0  0  0  0
 36 41  1  0  0  0  0
  8 13  1  0  0  0  0
 18 28  1  0  0  0  0
 26 34  1  0  0  0  0
 23 31  1  0  0  0  0
 45 47  1  0  0  0  0
  7 12  1  0  0  0  0
 35 40  1  0  0  0  0
 17 27  1  0  0  0  0
M  CHG  1  23   1
M  END
$$$$

  -OEChem-05262214473D

 50 50  0     1  0  0  0  0  0999 V2000
   -1.6938    0.4865    3.8080 C   0  0  0  0  0  0  0  0  0  0  0  0
   -0.7464   -0.1282    3.3323 O   0  0  0  0  0  0  0  0  0  0  0  0
   -2.1257    0.2041    5.2087 C   0  0  0  0  0  0  0  0  0  0  0  0
   -2.8853   -0.5922    5.2621 H   0  0  0  0  0  0  0  0  0  0  0  0
   -1.2944   -0.1435    5.8430 H   0  0  0  0  0  0  0  0  0  0  0  0
   -2.5637    1.0590    5.7483 H   0  0  0  0  0  0  0  0  0  0  0  0
   -2.4435    1.4589    3.1669 N   0  0  0  0  0  0  0  0  0  0  0  0
   -2.1966    1.8850    1.8145 C   0  0  2  0  0  0  0  0  0  0  0  0
   -0.8617    1.2996    1.3733 C   0  0  0  0  0  0  0  0  0  0  0  0
    0.0104    0.9468    2.1646 O   0  0  0  0  0  0  0  0  0  0  0  0
   -2.1879    3.4017    1.7050 C   0  0  0  0  0  0  0  0  0  0  0  0
   -3.2085    1.8948    3.6787 H   0  0  0  0  0  0  0  0  0  0  0  0
   -3.0007    1.4665    1.1994 H   0  0  0  0  0  0  0  0  0  0  0  0
   -1.3888    3.8390    2.3147 H   0  0  0  0  0  0  0  0  0  0  0  0
   -2.0284    3.7240    0.6708 H   0  0  0  0  0  0  0  0  0  0  0  0
   -3.1380    3.8230    2.0508 H   0  0  0  0  0  0  0  0  0  0  0  0
   -0.7390    1.2565   -0.0101 N   0  0  0  0  0  0  0  0  0  0  0  0
    0.4383    0.7557   -0.6738 C   0  0  2  0  0  0  0  0  0  0  0  0
    1.0503   -0.3057    0.2335 C   0  0  0  0  0  0  0  0  0  0  0  0
    2.1736   -0.2017    0.7217 O   0  0  0  0  0  0  0  0  0  0  0  0
    1.4576    1.8645   -0.9597 C   0  0  0  0  0  0  0  0  0  0  0  0
    0.9354    2.9034   -1.9219 C   0  0  0  0  0  0  0  0  0  0  0  0
    0.8293    2.6564   -3.2694 N   0  3  0  0  0  0  0  0  0  0  0  0
    0.4978    4.1820   -1.7207 C   0  0  0  0  0  0  0  0  0  0  0  0
    0.3446    3.7400   -3.8844 C   0  0  0  0  0  0  0  0  0  0  0  0
    0.1391    4.6757   -2.9519 N   0  0  0  0  0  0  0  0  0  0  0  0
   -1.5221    1.5532   -0.5874 H   0  0  0  0  0  0  0  0  0  0  0  0
    0.0962    0.2813   -1.6011 H   0  0  0  0  0  0  0  0  0  0  0  0
    2.3889    1.4333   -1.3513 H   0  0  0  0  0  0  0  0  0  0  0  0
    1.7442    2.3714   -0.0288 H   0  0  0  0  0  0  0  0  0  0  0  0
    1.0802    1.7869   -3.7319 H   0  0  0  0  0  0  0  0  0  0  0  0
    0.3849    4.8318   -0.8758 H   0  0  0  0  0  0  0  0  0  0  0  0
    0.1549    3.8409   -4.9399 H   0  0  0  0  0  0  0  0  0  0  0  0
   -0.2255    5.6075   -3.1292 H   0  0  0  0  0  0  0  0  0  0  0  0
    0.1733   -1.3550    0.4706 N   0  0  0  0  0  0  0  0  0  0  0  0
    0.4948   -2.4823    1.3160 C   0  0  2  0  0  0  0  0  0  0  0  0
    1.8491   -3.0259    0.8801 C   0  0  0  0  0  0  0  0  0  0  0  0
    2.3191   -2.8363   -0.2398 O   0  0  0  0  0  0  0  0  0  0  0  0
   -0.5756   -3.5594    1.2327 C   0  0  0  0  0  0  0  0  0  0  0  0
   -0.7405   -1.3293    0.0278 H   0  0  0  0  0  0  0  0  0  0  0  0
    0.5666   -2.0995    2.3399 H   0  0  0  0  0  0  0  0  0  0  0  0
   -0.6621   -3.9550    0.2141 H   0  0  0  0  0  0  0  0  0  0  0  0
   -0.3449   -4.4001    1.8953 H   0  0  0  0  0  0  0  0  0  0  0  0
   -1.5544   -3.1590    1.5179 H   0  0  0  0  0  0  0  0  0  0  0  0
    2.4517   -3.7838    1.8744 N   0  0  0  0  0  0  0  0  0  0  0  0
    3.7373   -4.4184    1.6996 C   0  0  0  0  0  0  0  0  0  0  0  0
    1.9986   -3.8723    2.7791 H   0  0  0  0  0  0  0  0  0  0  0  0
    3.5930   -5.4460    1.3346 H   0  0  0  0  0  0  0  0  0  0  0  0
    4.3305   -3.8496    0.9685 H   0  0  0  0  0  0  0  0  0  0  0  0
    4.2680   -4.4427    2.6629 H   0  0  0  0  0  0  0  0  0  0  0  0
 22 24  2  0  0  0  0
 24 26  1  0  0  0  0
 25 26  1  0  0  0  0
 23 25  2  0  0  0  0
 21 22  1  0  0  0  0
 22 23  1  0  0  0  0
  1  3  1  0  0  0  0
  1  7  1  0  0  0  0
  1  2  2  0  0  0  0
 36 37  1  0  0  0  0
 37 45  1  0  0  0  0
 37 38  2  0  0  0  0
  8  9  1  0  0  0  0
  9 17  1  0  0  0  0
  9 10  2  0  0  0  0
 18 19  1  0  0  0  0
 19 35  1  0  0  0  0
 19 20  2  0  0  0  0
 36 39  1  0  0  0  0
  8 11  1  0  0  0  0
 45 46  1  0  0  0  0
 18 21  1  0  0  0  0
 35 36  1  0  0  0  0
  7  8  1  0  0  0  0
 17 18  1  0  0  0  0
 24 32  1  0  0  0  0
 25 33  1  0  0  0  0
  3  4  1  0  0  0  0
  3  5  1  0  0  0  0
  3  6  1  0  0  0  0
 39 42  1  0  0  0  0
 39 43  1  0  0  0  0
 39 44  1  0  0  0  0
 11 14  1  0  0  0  0
 11 15  1  0  0  0  0
 11 16  1  0  0  0  0
 46 48  1  0  0  0  0
 46 49  1  0  0  0  0
 46 50  1  0  0  0  0
 21 29  1  0  0  0  0
 21 30  1  0  0  0  0
 36 41  1  0  0  0  0
  8 13  1  0  0  0  0
 18 28  1  0  0  0  0
 26 34  1  0  0  0  0
 23 31  1  0  0  0  0
 45 47  1  0  0  0  0
  7 12  1  0  0  0  0
 35 40  1  0  0  0  0
 17 27  1  0  0  0  0
M  CHG  1  23   1
M  END
$$$$

  -OEChem-05262214473D

 50 50  0     1  0  0  0  0  0999 V2000
   -1.6938    0.4865    3.8080 C   0  0  0  0  0  0  0  0  0  0  0  0
   -0.7464   -0.1282    3.3323 O   0  0  0  0  0  0  0  0  0  0  0  0
   -2.1257    0.2041    5.2087 C   0  0  0  0  0  0  0  0  0  0  0  0
   -2.8853   -0.5922    5.2621 H   0  0  0  0  0  0  0  0  0  0  0  0
   -1.2944   -0.1435    5.8430 H   0  0  0  0  0  0  0  0  0  0  0  0
   -2.5637    1.0590    5.7483 H   0  0  0  0  0  0  0  0  0  0  0  0
   -2.4435    1.4589    3.1669 N   0  0  0  0  0  0  0  0  0  0  0  0
   -2.1966    1.8850    1.8145 C   0  0  2  0  0  0  0  0  0  0  0  0
   -0.8617    1.2996    1.3733 C   0  0  0  0  0  0  0  0  0  0  0  0
    0.0104    0.9468    2.1646 O   0  0  0  0  0  0  0  0  0  0  0  0
   -2.1879    3.4017    1.7050 C   0  0  0  0  0  0  0  0  0  0  0  0
   -3.2085    1.8948    3.6787 H   0  0  0  0  0  0  0  0  0  0  0  0
   -3.0007    1.4665    1.1994 H   0  0  0  0  0  0  0  0  0  0  0  0
   -1.3888    3.8390    2.3147 H   0  0  0  0  0  0  0  0  0  0  0  0
   -2.0284    3.7240    0.6708 H   0  0  0  0  0  0  0  0  0  0  0  0
   -3.1380    3.8230    2.0508 H   0  0  0  0  0  0  0  0  0  0  0  0
   -0.7390    1.2565   -0.0101 N   0  0  0  0  0  0  0  0  0  0  0  0
    0.4383    0.7557   -0.6738 C   0  0  2  0  0  0  0  0  0  0  0  0
    1.0503   -0.3057    0.2335 C   0  0  0  0  0  0  0  0  0  0  0  0
    2.0405   -0.0989    0.9318 O   0  0  0  0  0  0  0  0  0  0  0  0
    1.4576    1.8645   -0.9597 C   0  0  0  0  0  0  0  0  0  0  0  0
    0.9354    2.9034   -1.9219 C   0  0  0  0  0  0  0  0  0  0  0  0
    0.8293    2.6564   -3.2694 N   0  3  0  0  0  0  0  0  0  0  0  0
    0.4978    4.1820   -1.7207 C   0  0  0  0  0  0  0  0  0  0  0  0
    0.3446    3.7400   -3.8844 C   0  0  0  0  0  0  0  0  0  0  0  0
    0.1391    4.6757   -2.9519 N   0  0  0  0  0  0  0  0  0  0  0  0
   -1.5221    1.5532   -0.5874 H   0  0  0  0  0  0  0  0  0  0  0  0
    0.0962    0.2813   -1.6011 H   0  0  0  0  0  0  0  0  0  0  0  0
    2.3889    1.4333   -1.3513 H   0  0  0  0  0  0  0  0  0  0  0  0
    1.7442    2.3714   -0.0288 H   0  0  0  0  0  0  0  0  0  0  0  0
    1.0802    1.7869   -3.7319 H   0  0  0  0  0  0  0  0  0  0  0  0
    0.3849    4.8318   -0.8758 H   0  0  0  0  0  0  0  0  0  0  0  0
    0.1549    3.8409   -4.9399 H   0  0  0  0  0  0  0  0  0  0  0  0
   -0.2255    5.6075   -3.1292 H   0  0  0  0  0  0  0  0  0  0  0  0
    0.3292   -1.4913    0.2060 N   0  0  0  0  0  0  0  0  0  0  0  0
    0.6804   -2.6521    0.9921 C   0  0  2  0  0  0  0  0  0  0  0  0
    2.1598   -2.9390    0.7721 C   0  0  0  0  0  0  0  0  0  0  0  0
    2.7781   -2.5527   -0.2176 O   0  0  0  0  0  0  0  0  0  0  0  0
   -0.1689   -3.8551    0.6123 C   0  0  0  0  0  0  0  0  0  0  0  0
   -0.4865   -1.5458   -0.3969 H   0  0  0  0  0  0  0  0  0  0  0  0
    0.5114   -2.3865    2.0413 H   0  0  0  0  0  0  0  0  0  0  0  0
   -0.0130   -4.1361   -0.4356 H   0  0  0  0  0  0  0  0  0  0  0  0
    0.0787   -4.7259    1.2283 H   0  0  0  0  0  0  0  0  0  0  0  0
   -1.2343   -3.6369    0.7429 H   0  0  0  0  0  0  0  0  0  0  0  0
    2.6982   -3.7139    1.7899 N   0  0  0  0  0  0  0  0  0  0  0  0
    4.0809   -4.1310    1.8042 C   0  0  0  0  0  0  0  0  0  0  0  0
    2.1168   -3.9731    2.5814 H   0  0  0  0  0  0  0  0  0  0  0  0
    4.1715   -5.1183    1.3277 H   0  0  0  0  0  0  0  0  0  0  0  0
    4.6899   -3.4001    1.2519 H   0  0  0  0  0  0  0  0  0  0  0  0
    4.4346   -4.1919    2.8439 H   0  0  0  0  0  0  0  0  0  0  0  0
 22 24  2  0  0  0  0
 24 26  1  0  0  0  0
 25 26  1  0  0  0  0
 23 25  2  0  0  0  0
 21 22  1  0  0  0  0
 22 23  1  0  0  0  0
  1  3  1  0  0  0  0
  1  7  1  0  0  0  0
  1  2  2  0  0  0  0
 36 37  1  0  0  0  0
 37 45  1  0  0  0  0
 37 38  2  0  0  0  0
  8  9  1  0  0  0  0
  9 17  1  0  0  0  0
  9 10  2  0  0  0  0
 18 19  1  0  0  0  0
 19 35  1  0  0  0  0
 19 20  2  0  0  0  0
 36 39  1  0  0  0  0
  8 11  1  0  0  0  0
 45 46  1  0  0  0  0
 18 21  1  0  0  0  0
 35 36  1  0  0  0  0
  7  8  1  0  0  0  0
 17 18  1  0  0  0  0
 24 32  1  0  0  0  0
 25 33  1  0  0  0  0
  3  4  1  0  0  0  0
  3  5  1  0  0  0  0
  3  6  1  0  0  0  0
 39 42  1  0  0  0  0
 39 43  1  0  0  0  0
 39 44  1  0  0  0  0
 11 14  1  0  0  0  0
 11 15  1  0  0  0  0
 11 16  1  0  0  0  0
 46 48  1  0  0  0  0
 46 49  1  0  0  0  0
 46 50  1  0  0  0  0
 21 29  1  0  0  0  0
 21 30  1  0  0  0  0
 36 41  1  0  0  0  0
  8 13  1  0  0  0  0
 18 28  1  0  0  0  0
 26 34  1  0  0  0  0
 23 31  1  0  0  0  0
 45 47  1  0  0  0  0
  7 12  1  0  0  0  0
 35 40  1  0  0  0  0
 17 27  1  0  0  0  0
M  CHG  1  23   1
M  END
$$$$

  -OEChem-05262214473D

 50 50  0     1  0  0  0  0  0999 V2000
   -1.6938    0.4865    3.8080 C   0  0  0  0  0  0  0  0  0  0  0  0
   -0.7464   -0.1282    3.3323 O   0  0  0  0  0  0  0  0  0  0  0  0
   -2.1257    0.2041    5.2087 C   0  0  0  0  0  0  0  0  0  0  0  0
   -2.8853   -0.5922    5.2621 H   0  0  0  0  0  0  0  0  0  0  0  0
   -1.2944   -0.1435    5.8430 H   0  0  0  0  0  0  0  0  0  0  0  0
   -2.5637    1.0590    5.7483 H   0  0  0  0  0  0  0  0  0  0  0  0
   -2.4435    1.4589    3.1669 N   0  0  0  0  0  0  0  0  0  0  0  0
   -2.1966    1.8850    1.8145 C   0  0  2  0  0  0  0  0  0  0  0  0
   -0.8617    1.2996    1.3733 C   0  0  0  0  0  0  0  0  0  0  0  0
    0.0104    0.9468    2.1646 O   0  0  0  0  0  0  0  0  0  0  0  0
   -2.1879    3.4017    1.7050 C   0  0  0  0  0  0  0  0  0  0  0  0
   -3.2085    1.8948    3.6787 H   0  0  0  0  0  0  0  0  0  0  0  0
   -3.0007    1.4665    1.1994 H   0  0  0  0  0  0  0  0  0  0  0  0
   -1.3888    3.8390    2.3147 H   0  0  0  0  0  0  0  0  0  0  0  0
   -2.0284    3.7240    0.6708 H   0  0  0  0  0  0  0  0  0  0  0  0
   -3.1380    3.8230    2.0508 H   0  0  0  0  0  0  0  0  0  0  0  0
   -0.7390    1.2565   -0.0101 N   0  0  0  0  0  0  0  0  0  0  0  0
    0.4383    0.7557   -0.6738 C   0  0  2  0  0  0  0  0  0  0  0  0
    1.0503   -0.3057    0.2335 C   0  0  0  0  0  0  0  0  0  0  0  0
    1.8582   -0.0419    1.1215 O   0  0  0  0  0  0  0  0  0  0  0  0
    1.4576    1.8645   -0.9597 C   0  0  0  0  0  0  0  0  0  0  0  0
    0.9354    2.9034   -1.9219 C   0  0  0  0  0  0  0  0  0  0  0  0
    0.8293    2.6564   -3.2694 N   0  3  0  0  0  0  0  0  0  0  0  0
    0.4978    4.1820   -1.7207 C   0  0  0  0  0  0  0  0  0  0  0  0
    0.3446    3.7400   -3.8844 C   0  0  0  0  0  0  0  0  0  0  0  0
    0.1391    4.6757   -2.9519 N   0  0  0  0  0  0  0  0  0  0  0  0
   -1.5221    1.5532   -0.5874 H   0  0  0  0  0  0  0  0  0  0  0  0
    0.0962    0.2813   -1.6011 H   0  0  0  0  0  0  0  0  0  0  0  0
    2.3889    1.4333   -1.3513 H   0  0  0  0  0  0  0  0  0  0  0  0
    1.7442    2.3714   -0.0288 H   0  0  0  0  0  0  0  0  0  0  0  0
    1.0802    1.7869   -3.7319 H   0  0  0  0  0  0  0  0  0  0  0  0
    0.3849    4.8318   -0.8758 H   0  0  0  0  0  0  0  0  0  0  0  0
    0.1549    3.8409   -4.9399 H   0  0  0  0  0  0  0  0  0  0  0  0
   -0.2255    5.6075   -3.1292 H   0  0  0  0  0  0  0  0  0  0  0  0
    0.5484   -1.5714   -0.0356 N   0  0  0  0  0  0  0  0  0  0  0  0
    0.9442   -2.7539    0.6950 C   0  0  2  0  0  0  0  0  0  0  0  0
    2.4661   -2.7960    0.7328 C   0  0  0  0  0  0  0  0  0  0  0  0
    3.1738   -2.2103   -0.0841 O   0  0  0  0  0  0  0  0  0  0  0  0
    0.3812   -4.0137    0.0557 C   0  0  0  0  0  0  0  0  0  0  0  0
   -0.1313   -1.6717   -0.7838 H   0  0  0  0  0  0  0  0  0  0  0  0
    0.5560   -2.6412    1.7132 H   0  0  0  0  0  0  0  0  0  0  0  0
    0.7590   -4.1435   -0.9651 H   0  0  0  0  0  0  0  0  0  0  0  0
    0.6582   -4.9061    0.6265 H   0  0  0  0  0  0  0  0  0  0  0  0
   -0.7119   -3.9686    0.0023 H   0  0  0  0  0  0  0  0  0  0  0  0
    2.9407   -3.5997    1.7599 N   0  0  0  0  0  0  0  0  0  0  0  0
    4.3496   -3.8113    1.9969 C   0  0  0  0  0  0  0  0  0  0  0  0
    2.2821   -4.0317    2.4013 H   0  0  0  0  0  0  0  0  0  0  0  0
    4.6811   -4.7119    1.4593 H   0  0  0  0  0  0  0  0  0  0  0  0
    4.9167   -2.9401    1.6371 H   0  0  0  0  0  0  0  0  0  0  0  0
    4.5243   -3.9428    3.0749 H   0  0  0  0  0  0  0  0  0  0  0  0
 22 24  2  0  0  0  0
 24 26  1  0  0  0  0
 25 26  1  0  0  0  0
 23 25  2  0  0  0  0
 21 22  1  0  0  0  0
 22 23  1  0  0  0  0
  1  3  1  0  0  0  0
  1  7  1  0  0  0  0
  1  2  2  0  0  0  0
 36 37  1  0  0  0  0
 37 45  1  0  0  0  0
 37 38  2  0  0  0  0
  8  9  1  0  0  0  0
  9 17  1  0  0  0  0
  9 10  2  0  0  0  0
 18 19  1  0  0  0  0
 19 35  1  0  0  0  0
 19 20  2  0  0  0  0
 36 39  1  0  0  0  0
  8 11  1  0  0  0  0
 45 46  1  0  0  0  0
 18 21  1  0  0  0  0
 35 36  1  0  0  0  0
  7  8  1  0  0  0  0
 17 18  1  0  0  0  0
 24 32  1  0  0  0  0
 25 33  1  0  0  0  0
  3  4  1  0  0  0  0
  3  5  1  0  0  0  0
  3  6  1  0  0  0  0
 39 42  1  0  0  0  0
 39 43  1  0  0  0  0
 39 44  1  0  0  0  0
 11 14  1  0  0  0  0
 11 15  1  0  0  0  0
 11 16  1  0  0  0  0
 46 48  1  0  0  0  0
 46 49  1  0  0  0  0
 46 50  1  0  0  0  0
 21 29  1  0  0  0  0
 21 30  1  0  0  0  0
 36 41  1  0  0  0  0
  8 13  1  0  0  0  0
 18 28  1  0  0  0  0
 26 34  1  0  0  0  0
 23 31  1  0  0  0  0
 45 47  1  0  0  0  0
  7 12  1  0  0  0  0
 35 40  1  0  0  0  0
 17 27  1  0  0  0  0
M  CHG  1  23   1
M  END
$$$$

  -OEChem-05262214473D

 50 50  0     1  0  0  0  0  0999 V2000
   -1.6938    0.4865    3.8080 C   0  0  0  0  0  0  0  0  0  0  0  0
   -0.7464   -0.1282    3.3323 O   0  0  0  0  0  0  0  0  0  0  0  0
   -2.1257    0.2041    5.2087 C   0  0  0  0  0  0  0  0  0  0  0  0
   -2.8853   -0.5922    5.2621 H   0  0  0  0  0  0  0  0  0  0  0  0
   -1.2944   -0.1435    5.8430 H   0  0  0  0  0  0  0  0  0  0  0  0
   -2.5637    1.0590    5.7483 H   0  0  0  0  0  0  0  0  0  0  0  0
   -2.4435    1.4589    3.1669 N   0  0  0  0  0  0  0  0  0  0  0  0
   -2.1966    1.8850    1.8145 C   0  0  2  0  0  0  0  0  0  0  0  0
   -0.8617    1.2996    1.3733 C   0  0  0  0  0  0  0  0  0  0  0  0
    0.0104    0.9468    2.1646 O   0  0  0  0  0  0  0  0  0  0  0  0
   -2.1879    3.4017    1.7050 C   0  0  0  0  0  0  0  0  0  0  0  0
   -3.2085    1.8948    3.6787 H   0  0  0  0  0  0  0  0  0  0  0  0
   -3.0007    1.4665    1.1994 H   0  0  0  0  0  0  0  0  0  0  0  0
   -1.3888    3.8390    2.3147 H   0  0  0  0  0  0  0  0  0  0  0  0
   -2.0284    3.7240    0.6708 H   0  0  0  0  0  0  0  0  0  0  0  0
   -3.1380    3.8230    2.0508 H   0  0  0  0  0  0  0  0  0  0  0  0
   -0.7390    1.2565   -0.0101 N   0  0  0  0  0  0  0  0  0  0  0  0
    0.4383    0.7557   -0.6738 C   0  0  2  0  0  0  0  0  0  0  0  0
    1.0503   -0.3057    0.2335 C   0  0  0  0  0  0  0  0  0  0  0  0
    1.6392   -0.0346    1.2778 O   0  0  0  0  0  0  0  0  0  0  0  0
    1.4576    1.8645   -0.9597 C   0  0  0  0  0  0  0  0  0  0  0  0
    0.9354    2.9034   -1.9219 C   0  0  0  0  0  0  0  0  0  0  0  0
    0.8293    2.6564   -3.2694 N   0  3  0  0  0  0  0  0  0  0  0  0
    0.4978    4.1820   -1.7207 C   0  0  0  0  0  0  0  0  0  0  0  0
    0.3446    3.7400   -3.8844 C   0  0  0  0  0  0  0  0  0  0  0  0
    0.1391    4.6757   -2.9519 N   0  0  0  0  0  0  0  0  0  0  0  0
   -1.5221    1.5532   -0.5874 H   0  0  0  0  0  0  0  0  0  0  0  0
    0.0962    0.2813   -1.6011 H   0  0  0  0  0  0  0  0  0  0  0  0
    2.3889    1.4333   -1.3513 H   0  0  0  0  0  0  0  0  0  0  0  0
    1.7442    2.3714   -0.0288 H   0  0  0  0  0  0  0  0  0  0  0  0
    1.0802    1.7869   -3.7319 H   0  0  0  0  0  0  0  0  0  0  0  0
    0.3849    4.8318   -0.8758 H   0  0  0  0  0  0  0  0  0  0  0  0
    0.1549    3.8409   -4.9399 H   0  0  0  0  0  0  0  0  0  0  0  0
   -0.2255    5.6075   -3.1292 H   0  0  0  0  0  0  0  0  0  0  0  0
    0.8161   -1.5900   -0.2379 N   0  0  0  0  0  0  0  0  0  0  0  0
    1.2682   -2.7807    0.4451 C   0  0  2  0  0  0  0  0  0  0  0  0
    2.7470   -2.6067    0.7648 C   0  0  0  0  0  0  0  0  0  0  0  0
    3.4792   -1.8326    0.1518 O   0  0  0  0  0  0  0  0  0  0  0  0
    1.0374   -4.0243   -0.3994 C   0  0  0  0  0  0  0  0  0  0  0  0
    0.3009   -1.6984   -1.1066 H   0  0  0  0  0  0  0  0  0  0  0  0
    0.6975   -2.8463    1.3778 H   0  0  0  0  0  0  0  0  0  0  0  0
    1.6011   -3.9768   -1.3382 H   0  0  0  0  0  0  0  0  0  0  0  0
    1.3541   -4.9284    0.1310 H   0  0  0  0  0  0  0  0  0  0  0  0
   -0.0227   -4.1317   -0.6534 H   0  0  0  0  0  0  0  0  0  0  0  0
    3.1627   -3.4489    1.7866 N   0  0  0  0  0  0  0  0  0  0  0  0
    4.5252   -3.4811    2.2646 C   0  0  0  0  0  0  0  0  0  0  0  0
    2.4832   -4.0442    2.2510 H   0  0  0  0  0  0  0  0  0  0  0  0
    5.0870   -4.2546    1.7205 H   0  0  0  0  0  0  0  0  0  0  0  0
    4.9955   -2.5008    2.0978 H   0  0  0  0  0  0  0  0  0  0  0  0
    4.5309   -3.7123    3.3401 H   0  0  0  0  0  0  0  0  0  0  0  0
 22 24  2  0  0  0  0
 24 26  1  0  0  0  0
 25 26  1  0  0  0  0
 23 25  2  0  0  0  0
 21 22  1  0  0  0  0
 22 23  1  0  0  0  0
  1  3  1  0  0  0  0
  1  7  1  0  0  0  0
  1  2  2  0  0  0  0
 36 37  1  0  0  0  0
 37 45  1  0  0  0  0
 37 38  2  0  0  0  0
  8  9  1  0  0  0  0
  9 17  1  0  0  0  0
  9 10  2  0  0  0  0
 18 19  1  0  0  0  0
 19 35  1  0  0  0  0
 19 20  2  0  0  0  0
 36 39  1  0  0  0  0
  8 11  1  0  0  0  0
 45 46  1  0  0  0  0
 18 21  1  0  0  0  0
 35 36  1  0  0  0  0
  7  8  1  0  0  0  0
 17 18  1  0  0  0  0
 24 32  1  0  0  0  0
 25 33  1  0  0  0  0
  3  4  1  0  0  0  0
  3  5  1  0  0  0  0
  3  6  1  0  0  0  0
 39 42  1  0  0  0  0
 39 43  1  0  0  0  0
 39 44  1  0  0  0  0
 11 14  1  0  0  0  0
 11 15  1  0  0  0  0
 11 16  1  0  0  0  0
 46 48  1  0  0  0  0
 46 49  1  0  0  0  0
 46 50  1  0  0  0  0
 21 29  1  0  0  0  0
 21 30  1  0  0  0  0
 36 41  1  0  0  0  0
  8 13  1  0  0  0  0
 18 28  1  0  0  0  0
 26 34  1  0  0  0  0
 23 31  1  0  0  0  0
 45 47  1  0  0  0  0
  7 12  1  0  0  0  0
 35 40  1  0  0  0  0
 17 27  1  0  0  0  0
M  CHG  1  23   1
M  END
$$$$

  -OEChem-05262214473D

 50 50  0     1  0  0  0  0  0999 V2000
   -1.6938    0.4865    3.8080 C   0  0  0  0  0  0  0  0  0  0  0  0
   -0.7464   -0.1282    3.3323 O   0  0  0  0  0  0  0  0  0  0  0  0
   -2.1257    0.2041    5.2087 C   0  0  0  0  0  0  0  0  0  0  0  0
   -2.8853   -0.5922    5.2621 H   0  0  0  0  0  0  0  0  0  0  0  0
   -1.2944   -0.1435    5.8430 H   0  0  0  0  0  0  0  0  0  0  0  0
   -2.5637    1.0590    5.7483 H   0  0  0  0  0  0  0  0  0  0  0  0
   -2.4435    1.4589    3.1669 N   0  0  0  0  0  0  0  0  0  0  0  0
   -2.1966    1.8850    1.8145 C   0  0  2  0  0  0  0  0  0  0  0  0
   -0.8617    1.2996    1.3733 C   0  0  0  0  0  0  0  0  0  0  0  0
    0.0104    0.9468    2.1646 O   0  0  0  0  0  0  0  0  0  0  0  0
   -2.1879    3.4017    1.7050 C   0  0  0  0  0  0  0  0  0  0  0  0
   -3.2085    1.8948    3.6787 H   0  0  0  0  0  0  0  0  0  0  0  0
   -3.0007    1.4665    1.1994 H   0  0  0  0  0  0  0  0  0  0  0  0
   -1.3888    3.8390    2.3147 H   0  0  0  0  0  0  0  0  0  0  0  0
   -2.0284    3.7240    0.6708 H   0  0  0  0  0  0  0  0  0  0  0  0
   -3.1380    3.8230    2.0508 H   0  0  0  0  0  0  0  0  0  0  0  0
   -0.7390    1.2565   -0.0101 N   0  0  0  0  0  0  0  0  0  0  0  0
    0.4383    0.7557   -0.6738 C   0  0  2  0  0  0  0  0  0  0  0  0
    1.0503   -0.3057    0.2335 C   0  0  0  0  0  0  0  0  0  0  0  0
    1.3983   -0.0775    1.3901 O   0  0  0  0  0  0  0  0  0  0  0  0
    1.4576    1.8645   -0.9597 C   0  0  0  0  0  0  0  0  0  0  0  0
    0.9354    2.9034   -1.9219 C   0  0  0  0  0  0  0  0  0  0  0  0
    0.8293    2.6564   -3.2694 N   0  3  0  0  0  0  0  0  0  0  0  0
    0.4978    4.1820   -1.7207 C   0  0  0  0  0  0  0  0  0  0  0  0
    0.3446    3.7400   -3.8844 C   0  0  0  0  0  0  0  0  0  0  0  0
    0.1391    4.6757   -2.9519 N   0  0  0  0  0  0  0  0  0  0  0  0
   -1.5221    1.5532   -0.5874 H   0  0  0  0  0  0  0  0  0  0  0  0
    0.0962    0.2813   -1.6011 H   0  0  0  0  0  0  0  0  0  0  0  0
    2.3889    1.4333   -1.3513 H   0  0  0  0  0  0  0  0  0  0  0  0
    1.7442    2.3714   -0.0288 H   0  0  0  0  0  0  0  0  0  0  0  0
    1.0802    1.7869   -3.7319 H   0  0  0  0  0  0  0  0  0  0  0  0
    0.3849    4.8318   -0.8758 H   0  0  0  0  0  0  0  0  0  0  0  0
    0.1549    3.8409   -4.9399 H   0  0  0  0  0  0  0  0  0  0  0  0
   -0.2255    5.6075   -3.1292 H   0  0  0  0  0  0  0  0  0  0  0  0
    1.1139   -1.5456   -0.3870 N   0  0  0  0  0  0  0  0  0  0  0  0
    1.6303   -2.7308    0.2592 C   0  0  2  0  0  0  0  0  0  0  0  0
    2.9834   -2.3838    0.8660 C   0  0  0  0  0  0  0  0  0  0  0  0
    3.6736   -1.4452    0.4740 O   0  0  0  0  0  0  0  0  0  0  0  0
    1.7548   -3.8862   -0.7218 C   0  0  0  0  0  0  0  0  0  0  0  0
    0.7806   -1.6241   -1.3433 H   0  0  0  0  0  0  0  0  0  0  0  0
    0.9262   -2.9877    1.0581 H   0  0  0  0  0  0  0  0  0  0  0  0
    2.4562   -3.6472   -1.5295 H   0  0  0  0  0  0  0  0  0  0  0  0
    2.1191   -4.7913   -0.2246 H   0  0  0  0  0  0  0  0  0  0  0  0
    0.7862   -4.1149   -1.1795 H   0  0  0  0  0  0  0  0  0  0  0  0
    3.3491   -3.2717    1.8680 N   0  0  0  0  0  0  0  0  0  0  0  0
    4.5957   -3.1630    2.5893 C   0  0  0  0  0  0  0  0  0  0  0  0
    2.7065   -4.0096    2.1408 H   0  0  0  0  0  0  0  0  0  0  0  0
    5.3616   -3.7775    2.0934 H   0  0  0  0  0  0  0  0  0  0  0  0
    4.9210   -2.1123    2.6027 H   0  0  0  0  0  0  0  0  0  0  0  0
    4.4541   -3.5162    3.6213 H   0  0  0  0  0  0  0  0  0  0  0  0
 22 24  2  0  0  0  0
 24 26  1  0  0  0  0
 25 26  1  0  0  0  0
 23 25  2  0  0  0  0
 21 22  1  0  0  0  0
 22 23  1  0  0  0  0
  1  3  1  0  0  0  0
  1  7  1  0  0  0  0
  1  2  2  0  0  0  0
 36 37  1  0  0  0  0
 37 45  1  0  0  0  0
 37 38  2  0  0  0  0
  8  9  1  0  0  0  0
  9 17  1  0  0  0  0
  9 10  2  0  0  0  0
 18 19  1  0  0  0  0
 19 35  1  0  0  0  0
 19 20  2  0  0  0  0
 36 39  1  0  0  0  0
  8 11  1  0  0  0  0
 45 46  1  0  0  0  0
 18 21  1  0  0  0  0
 35 36  1  0  0  0  0
  7  8  1  0  0  0  0
 17 18  1  0  0  0  0
 24 32  1  0  0  0  0
 25 33  1  0  0  0  0
  3  4  1  0  0  0  0
  3  5  1  0  0  0  0
  3  6  1  0  0  0  0
 39 42  1  0  0  0  0
 39 43  1  0  0  0  0
 39 44  1  0  0  0  0
 11 14  1  0  0  0  0
 11 15  1  0  0  0  0
 11 16  1  0  0  0  0
 46 48  1  0  0  0  0
 46 49  1  0  0  0  0
 46 50  1  0  0  0  0
 21 29  1  0  0  0  0
 21 30  1  0  0  0  0
 36 41  1  0  0  0  0
  8 13  1  0  0  0  0
 18 28  1  0  0  0  0
 26 34  1  0  0  0  0
 23 31  1  0  0  0  0
 45 47  1  0  0  0  0
  7 12  1  0  0  0  0
 35 40  1  0  0  0  0
 17 27  1  0  0  0  0
M  CHG  1  23   1
M  END
$$$$

  -OEChem-05262214473D

 50 50  0     1  0  0  0  0  0999 V2000
   -1.6938    0.4865    3.8080 C   0  0  0  0  0  0  0  0  0  0  0  0
   -0.7464   -0.1282    3.3323 O   0  0  0  0  0  0  0  0  0  0  0  0
   -2.1257    0.2041    5.2087 C   0  0  0  0  0  0  0  0  0  0  0  0
   -2.8853   -0.5922    5.2621 H   0  0  0  0  0  0  0  0  0  0  0  0
   -1.2944   -0.1435    5.8430 H   0  0  0  0  0  0  0  0  0  0  0  0
   -2.5637    1.0590    5.7483 H   0  0  0  0  0  0  0  0  0  0  0  0
   -2.4435    1.4589    3.1669 N   0  0  0  0  0  0  0  0  0  0  0  0
   -2.1966    1.8850    1.8145 C   0  0  2  0  0  0  0  0  0  0  0  0
   -0.8617    1.2996    1.3733 C   0  0  0  0  0  0  0  0  0  0  0  0
    0.0104    0.9468    2.1646 O   0  0  0  0  0  0  0  0  0  0  0  0
   -2.1879    3.4017    1.7050 C   0  0  0  0  0  0  0  0  0  0  0  0
   -3.2085    1.8948    3.6787 H   0  0  0  0  0  0  0  0  0  0  0  0
   -3.0007    1.4665    1.1994 H   0  0  0  0  0  0  0  0  0  0  0  0
   -1.3888    3.8390    2.3147 H   0  0  0  0  0  0  0  0  0  0  0  0
   -2.0284    3.7240    0.6708 H   0  0  0  0  0  0  0  0  0  0  0  0
   -3.1380    3.8230    2.0508 H   0  0  0  0  0  0  0  0  0  0  0  0
   -0.7390    1.2565   -0.0101 N   0  0  0  0  0  0  0  0  0  0  0  0
    0.4383    0.7557   -0.6738 C   0  0  2  0  0  0  0  0  0  0  0  0
    1.0503   -0.3057    0.2335 C   0  0  0  0  0  0  0  0  0  0  0  0
    1.1521   -0.1677    1.4506 O   0  0  0  0  0  0  0  0  0  0  0  0
    1.4576    1.8645   -0.9597 C   0  0  0  0  0  0  0  0  0  0  0  0
    0.9354    2.9034   -1.9219 C   0  0  0  0  0  0  0  0  0  0  0  0
    0.8293    2.6564   -3.2694 N   0  3  0  0  0  0  0  0  0  0  0  0
    0.4978    4.1820   -1.7207 C   0  0  0  0  0  0  0  0  0  0  0  0
    0.3446    3.7400   -3.8844 C   0  0  0  0  0  0  0  0  0  0  0  0
    0.1391    4.6757   -2.9519 N   0  0  0  0  0  0  0  0  0  0  0  0
   -1.5221    1.5532   -0.5874 H   0  0  0  0  0  0  0  0  0  0  0  0
    0.0962    0.2813   -1.6011 H   0  0  0  0  0  0  0  0  0  0  0  0
    2.3889    1.4333   -1.3513 H   0  0  0  0  0  0  0  0  0  0  0  0
    1.7442    2.3714   -0.0288 H   0  0  0  0  0  0  0  0  0  0  0  0
    1.0802    1.7869   -3.7319 H   0  0  0  0  0  0  0  0  0  0  0  0
    0.3849    4.8318   -0.8758 H   0  0  0  0  0  0  0  0  0  0  0  0
    0.1549    3.8409   -4.9399 H   0  0  0  0  0  0  0  0  0  0  0  0
   -0.2255    5.6075   -3.1292 H   0  0  0  0  0  0  0  0  0  0  0  0
    1.4216   -1.4415   -0.4727 N   0  0  0  0  0  0  0  0  0  0  0  0
    2.0059   -2.6074    0.1501 C   0  0  2  0  0  0  0  0  0  0  0  0
    3.1592   -2.1427    1.0296 C   0  0  0  0  0  0  0  0  0  0  0  0
    3.7435   -1.0745    0.8604 O   0  0  0  0  0  0  0  0  0  0  0  0
    2.4845   -3.6088   -0.8896 C   0  0  0  0  0  0  0  0  0  0  0  0
    1.2752   -1.4538   -1.4778 H   0  0  0  0  0  0  0  0  0  0  0  0
    1.2265   -3.0559    0.7757 H   0  0  0  0  0  0  0  0  0  0  0  0
    3.2658   -3.1773   -1.5259 H   0  0  0  0  0  0  0  0  0  0  0  0
    2.9009   -4.5040   -0.4160 H   0  0  0  0  0  0  0  0  0  0  0  0
    1.6599   -3.9194   -1.5401 H   0  0  0  0  0  0  0  0  0  0  0  0
    3.4873   -3.0804    1.9987 N   0  0  0  0  0  0  0  0  0  0  0  0
    4.5564   -2.8786    2.9486 C   0  0  0  0  0  0  0  0  0  0  0  0
    2.9368   -3.9304    2.0782 H   0  0  0  0  0  0  0  0  0  0  0  0
    5.4862   -3.3131    2.5527 H   0  0  0  0  0  0  0  0  0  0  0  0
    4.6982   -1.8009    3.1173 H   0  0  0  0  0  0  0  0  0  0  0  0
    4.2990   -3.3678    3.8995 H   0  0  0  0  0  0  0  0  0  0  0  0
 22 24  2  0  0  0  0
 24 26  1  0  0  0  0
 25 26  1  0  0  0  0
 23 25  2  0  0  0  0
 21 22  1  0  0  0  0
 22 23  1  0  0  0  0
  1  3  1  0  0  0  0
  1  7  1  0  0  0  0
  1  2  2  0  0  0  0
 36 37  1  0  0  0  0
 37 45  1  0  0  0  0
 37 38  2  0  0  0  0
  8  9  1  0  0  0  0
  9 17  1  0  0  0  0
  9 10  2  0  0  0  0
 18 19  1  0  0  0  0
 19 35  1  0  0  0  0
 19 20  2  0  0  0  0
 36 39  1  0  0  0  0
  8 11  1  0  0  0  0
 45 46  1  0  0  0  0
 18 21  1  0  0  0  0
 35 36  1  0  0  0  0
  7  8  1  0  0  0  0
 17 18  1  0  0  0  0
 24 32  1  0  0  0  0
 25 33  1  0  0  0  0
  3  4  1  0  0  0  0
  3  5  1  0  0  0  0
  3  6  1  0  0  0  0
 39 42  1  0  0  0  0
 39 43  1  0  0  0  0
 39 44  1  0  0  0  0
 11 14  1  0  0  0  0
 11 15  1  0  0  0  0
 11 16  1  0  0  0  0
 46 48  1  0  0  0  0
 46 49  1  0  0  0  0
 46 50  1  0  0  0  0
 21 29  1  0  0  0  0
 21 30  1  0  0  0  0
 36 41  1  0  0  0  0
  8 13  1  0  0  0  0
 18 28  1  0  0  0  0
 26 34  1  0  0  0  0
 23 31  1  0  0  0  0
 45 47  1  0  0  0  0
  7 12  1  0  0  0  0
 35 40  1  0  0  0  0
 17 27  1  0  0  0  0
M  CHG  1  23   1
M  END
$$$$

  -OEChem-05262214473D

 50 50  0     1  0  0  0  0  0999 V2000
   -1.6938    0.4865    3.8080 C   0  0  0  0  0  0  0  0  0  0  0  0
   -0.7464   -0.1282    3.3323 O   0  0  0  0  0  0  0  0  0  0  0  0
   -2.1257    0.2041    5.2087 C   0  0  0  0  0  0  0  0  0  0  0  0
   -2.8853   -0.5922    5.2621 H   0  0  0  0  0  0  0  0  0  0  0  0
   -1.2944   -0.1435    5.8430 H   0  0  0  0  0  0  0  0  0  0  0  0
   -2.5637    1.0590    5.7483 H   0  0  0  0  0  0  0  0  0  0  0  0
   -2.4435    1.4589    3.1669 N   0  0  0  0  0  0  0  0  0  0  0  0
   -2.1966    1.8850    1.8145 C   0  0  2  0  0  0  0  0  0  0  0  0
   -0.8617    1.2996    1.3733 C   0  0  0  0  0  0  0  0  0  0  0  0
    0.0104    0.9468    2.1646 O   0  0  0  0  0  0  0  0  0  0  0  0
   -2.1879    3.4017    1.7050 C   0  0  0  0  0  0  0  0  0  0  0  0
   -3.2085    1.8948    3.6787 H   0  0  0  0  0  0  0  0  0  0  0  0
   -3.0007    1.4665    1.1994 H   0  0  0  0  0  0  0  0  0  0  0  0
   -1.3888    3.8390    2.3147 H   0  0  0  0  0  0  0  0  0  0  0  0
   -2.0284    3.7240    0.6708 H   0  0  0  0  0  0  0  0  0  0  0  0
   -3.1380    3.8230    2.0508 H   0  0  0  0  0  0  0  0  0  0  0  0
   -0.7390    1.2565   -0.0101 N   0  0  0  0  0  0  0  0  0  0  0  0
    0.4383    0.7557   -0.6738 C   0  0  2  0  0  0  0  0  0  0  0  0
    1.0503   -0.3057    0.2335 C   0  0  0  0  0  0  0  0  0  0  0  0
    0.9172   -0.2991    1.4554 O   0  0  0  0  0  0  0  0  0  0  0  0
    1.4576    1.8645   -0.9597 C   0  0  0  0  0  0  0  0  0  0  0  0
    0.9354    2.9034   -1.9219 C   0  0  0  0  0  0  0  0  0  0  0  0
    0.8293    2.6564   -3.2694 N   0  3  0  0  0  0  0  0  0  0  0  0
    0.4978    4.1820   -1.7207 C   0  0  0  0  0  0  0  0  0  0  0  0
    0.3446    3.7400   -3.8844 C   0  0  0  0  0  0  0  0  0  0  0  0
    0.1391    4.6757   -2.9519 N   0  0  0  0  0  0  0  0  0  0  0  0
   -1.5221    1.5532   -0.5874 H   0  0  0  0  0  0  0  0  0  0  0  0
    0.0962    0.2813   -1.6011 H   0  0  0  0  0  0  0  0  0  0  0  0
    2.3889    1.4333   -1.3513 H   0  0  0  0  0  0  0  0  0  0  0  0
    1.7442    2.3714   -0.0288 H   0  0  0  0  0  0  0  0  0  0  0  0
    1.0802    1.7869   -3.7319 H   0  0  0  0  0  0  0  0  0  0  0  0
    0.3849    4.8318   -0.8758 H   0  0  0  0  0  0  0  0  0  0  0  0
    0.1549    3.8409   -4.9399 H   0  0  0  0  0  0  0  0  0  0  0  0
   -0.2255    5.6075   -3.1292 H   0  0  0  0  0  0  0  0  0  0  0  0
    1.7182   -1.2845   -0.4892 N   0  0  0  0  0  0  0  0  0  0  0  0
    2.3694   -2.4191    0.1252 C   0  0  2  0  0  0  0  0  0  0  0  0
    3.2623   -1.8997    1.2443 C   0  0  0  0  0  0  0  0  0  0  0  0
    3.6844   -0.7458    1.2848 O   0  0  0  0  0  0  0  0  0  0  0  0
    3.1770   -3.2110   -0.8913 C   0  0  0  0  0  0  0  0  0  0  0  0
    1.7510   -1.1992   -1.5008 H   0  0  0  0  0  0  0  0  0  0  0  0
    1.5779   -3.0462    0.5500 H   0  0  0  0  0  0  0  0  0  0  0  0
    3.9748   -2.5992   -1.3278 H   0  0  0  0  0  0  0  0  0  0  0  0
    3.6464   -4.0862   -0.4302 H   0  0  0  0  0  0  0  0  0  0  0  0
    2.5386   -3.5585   -1.7108 H   0  0  0  0  0  0  0  0  0  0  0  0
    3.5677   -2.8879    2.1696 N   0  0  0  0  0  0  0  0  0  0  0  0
    4.4098   -2.6473    3.3181 C   0  0  0  0  0  0  0  0  0  0  0  0
    3.1583   -3.8119    2.0674 H   0  0  0  0  0  0  0  0  0  0  0  0
    5.4522   -2.8931    3.0671 H   0  0  0  0  0  0  0  0  0  0  0  0
    4.3423   -1.5879    3.6066 H   0  0  0  0  0  0  0  0  0  0  0  0
    4.0761   -3.2774    4.1557 H   0  0  0  0  0  0  0  0  0  0  0  0
 22 24  2  0  0  0  0
 24 26  1  0  0  0  0
 25 26  1  0  0  0  0
 23 25  2  0  0  0  0
 21 22  1  0  0  0  0
 22 23  1  0  0  0  0
  1  3  1  0  0  0  0
  1  7  1  0  0  0  0
  1  2  2  0  0  0  0
 36 37  1  0  0  0  0
 37 45  1  0  0  0  0
 37 38  2  0  0  0  0
  8  9  1  0  0  0  0
  9 17  1  0  0  0  0
  9 10  2  0  0  0  0
 18 19  1  0  0  0  0
 19 35  1  0  0  0  0
 19 20  2  0  0  0  0
 36 39  1  0  0  0  0
  8 11  1  0  0  0  0
 45 46  1  0  0  0  0
 18 21  1  0  0  0  0
 35 36  1  0  0  0  0
  7  8  1  0  0  0  0
 17 18  1  0  0  0  0
 24 32  1  0  0  0  0
 25 33  1  0  0  0  0
  3  4  1  0  0  0  0
  3  5  1  0  0  0  0
  3  6  1  0  0  0  0
 39 42  1  0  0  0  0
 39 43  1  0  0  0  0
 39 44  1  0  0  0  0
 11 14  1  0  0  0  0
 11 15  1  0  0  0  0
 11 16  1  0  0  0  0
 46 48  1  0  0  0  0
 46 49  1  0  0  0  0
 46 50  1  0  0  0  0
 21 29  1  0  0  0  0
 21 30  1  0  0  0  0
 36 41  1  0  0  0  0
  8 13  1  0  0  0  0
 18 28  1  0  0  0  0
 26 34  1  0  0  0  0
 23 31  1  0  0  0  0
 45 47  1  0  0  0  0
  7 12  1  0  0  0  0
 35 40  1  0  0  0  0
 17 27  1  0  0  0  0
M  CHG  1  23   1
M  END
$$$$

  -OEChem-05262214473D

 50 50  0     1  0  0  0  0  0999 V2000
   -1.6938    0.4865    3.8080 C   0  0  0  0  0  0  0  0  0  0  0  0
   -0.7464   -0.1282    3.3323 O   0  0  0  0  0  0  0  0  0  0  0  0
   -2.1257    0.2041    5.2087 C   0  0  0  0  0  0  0  0  0  0  0  0
   -2.8853   -0.5922    5.2621 H   0  0  0  0  0  0  0  0  0  0  0  0
   -1.2944   -0.1435    5.8430 H   0  0  0  0  0  0  0  0  0  0  0  0
   -2.5637    1.0590    5.7483 H   0  0  0  0  0  0  0  0  0  0  0  0
   -2.4435    1.4589    3.1669 N   0  0  0  0  0  0  0  0  0  0  0  0
   -2.1966    1.8850    1.8145 C   0  0  2  0  0  0  0  0  0  0  0  0
   -0.8617    1.2996    1.3733 C   0  0  0  0  0  0  0  0  0  0  0  0
    0.0104    0.9468    2.1646 O   0  0  0  0  0  0  0  0  0  0  0  0
   -2.1879    3.4017    1.7050 C   0  0  0  0  0  0  0  0  0  0  0  0
   -3.2085    1.8948    3.6787 H   0  0  0  0  0  0  0  0  0  0  0  0
   -3.0007    1.4665    1.1994 H   0  0  0  0  0  0  0  0  0  0  0  0
   -1.3888    3.8390    2.3147 H   0  0  0  0  0  0  0  0  0  0  0  0
   -2.0284    3.7240    0.6708 H   0  0  0  0  0  0  0  0  0  0  0  0
   -3.1380    3.8230    2.0508 H   0  0  0  0  0  0  0  0  0  0  0  0
   -0.7390    1.2565   -0.0101 N   0  0  0  0  0  0  0  0  0  0  0  0
    0.4383    0.7557   -0.6738 C   0  0  2  0  0  0  0  0  0  0  0  0
    1.0503   -0.3057    0.2335 C   0  0  0  0  0  0  0  0  0  0  0  0
    0.7097   -0.4627    1.4040 O   0  0  0  0  0  0  0  0  0  0  0  0
    1.4576    1.8645   -0.9597 C   0  0  0  0  0  0  0  0  0  0  0  0
    0.9354    2.9034   -1.9219 C   0  0  0  0  0  0  0  0  0  0  0  0
    0.8293    2.6564   -3.2694 N   0  3  0  0  0  0  0  0  0  0  0  0
    0.4978    4.1820   -1.7207 C   0  0  0  0  0  0  0  0  0  0  0  0
    0.3446    3.7400   -3.8844 C   0  0  0  0  0  0  0  0  0  0  0  0
    0.1391    4.6757   -2.9519 N   0  0  0  0  0  0  0  0  0  0  0  0
   -1.5221    1.5532   -0.5874 H   0  0  0  0  0  0  0  0  0  0  0  0
    0.0962    0.2813   -1.6011 H   0  0  0  0  0  0  0  0  0  0  0  0
    2.3889    1.4333   -1.3513 H   0  0  0  0  0  0  0  0  0  0  0  0
    1.7442    2.3714   -0.0288 H   0  0  0  0  0  0  0  0  0  0  0  0
    1.0802    1.7869   -3.7319 H   0  0  0  0  0  0  0  0  0  0  0  0
    0.3849    4.8318   -0.8758 H   0  0  0  0  0  0  0  0  0  0  0  0
    0.1549    3.8409   -4.9399 H   0  0  0  0  0  0  0  0  0  0  0  0
   -0.2255    5.6075   -3.1292 H   0  0  0  0  0  0  0  0  0  0  0  0
    1.9836   -1.0856   -0.4354 N   0  0  0  0  0  0  0  0  0  0  0  0
    2.6959   -2.1786    0.1863 C   0  0  2  0  0  0  0  0  0  0  0  0
    3.2859   -1.6714    1.4955 C   0  0  0  0  0  0  0  0  0  0  0  0
    3.5002   -0.4816    1.7182 O   0  0  0  0  0  0  0  0  0  0  0  0
    3.7848   -2.7200   -0.7269 C   0  0  0  0  0  0  0  0  0  0  0  0
    2.1755   -0.8776   -1.4109 H   0  0  0  0  0  0  0  0  0  0  0  0
    1.9566   -2.9592    0.3964 H   0  0  0  0  0  0  0  0  0  0  0  0
    4.5349   -1.9521   -0.9486 H   0  0  0  0  0  0  0  0  0  0  0  0
    4.3046   -3.5664   -0.2661 H   0  0  0  0  0  0  0  0  0  0  0  0
    3.3625   -3.0569   -1.6798 H   0  0  0  0  0  0  0  0  0  0  0  0
    3.5849   -2.7073    2.3693 N   0  0  0  0  0  0  0  0  0  0  0  0
    4.1660   -2.4848    3.6727 C   0  0  0  0  0  0  0  0  0  0  0  0
    3.3559   -3.6622    2.1092 H   0  0  0  0  0  0  0  0  0  0  0  0
    5.2620   -2.5460    3.6014 H   0  0  0  0  0  0  0  0  0  0  0  0
    3.8775   -1.4878    4.0372 H   0  0  0  0  0  0  0  0  0  0  0  0
    3.8008   -3.2509    4.3724 H   0  0  0  0  0  0  0  0  0  0  0  0
 22 24  2  0  0  0  0
 24 26  1  0  0  0  0
 25 26  1  0  0  0  0
 23 25  2  0  0  0  0
 21 22  1  0  0  0  0
 22 23  1  0  0  0  0
  1  3  1  0  0  0  0
  1  7  1  0  0  0  0
  1  2  2  0  0  0  0
 36 37  1  0  0  0  0
 37 45  1  0  0  0  0
 37 38  2  0  0  0  0
  8  9  1  0  0  0  0
  9 17  1  0  0  0  0
  9 10  2  0  0  0  0
 18 19  1  0  0  0  0
 19 35  1  0  0  0  0
 19 20  2  0  0  0  0
 36 39  1  0  0  0  0
  8 11  1  0  0  0  0
 45 46  1  0  0  0  0
 18 21  1  0  0  0  0
 35 36  1  0  0  0  0
  7  8  1  0  0  0  0
 17 18  1  0  0  0  0
 24 32  1  0  0  0  0
 25 33  1  0  0  0  0
  3  4  1  0  0  0  0
  3  5  1  0  0  0  0
  3  6  1  0  0  0  0
 39 42  1  0  0  0  0
 39 43  1  0  0  0  0
 39 44  1  0  0  0  0
 11 14  1  0  0  0  0
 11 15  1  0  0  0  0
 11 16  1  0  0  0  0
 46 48  1  0  0  0  0
 46 49  1  0  0  0  0
 46 50  1  0  0  0  0
 21 29  1  0  0  0  0
 21 30  1  0  0  0  0
 36 41  1  0  0  0  0
  8 13  1  0  0  0  0
 18 28  1  0  0  0  0
 26 34  1  0  0  0  0
 23 31  1  0  0  0  0
 45 47  1  0  0  0  0
  7 12  1  0  0  0  0
 35 40  1  0  0  0  0
 17 27  1  0  0  0  0
M  CHG  1  23   1
M  END
$$$$

  -OEChem-05262214473D

 50 50  0     1  0  0  0  0  0999 V2000
   -1.6938    0.4865    3.8080 C   0  0  0  0  0  0  0  0  0  0  0  0
   -0.7464   -0.1282    3.3323 O   0  0  0  0  0  0  0  0  0  0  0  0
   -2.1257    0.2041    5.2087 C   0  0  0  0  0  0  0  0  0  0  0  0
   -2.8853   -0.5922    5.2621 H   0  0  0  0  0  0  0  0  0  0  0  0
   -1.2944   -0.1435    5.8430 H   0  0  0  0  0  0  0  0  0  0  0  0
   -2.5637    1.0590    5.7483 H   0  0  0  0  0  0  0  0  0  0  0  0
   -2.4435    1.4589    3.1669 N   0  0  0  0  0  0  0  0  0  0  0  0
   -2.1966    1.8850    1.8145 C   0  0  2  0  0  0  0  0  0  0  0  0
   -0.8617    1.2996    1.3733 C   0  0  0  0  0  0  0  0  0  0  0  0
    0.0104    0.9468    2.1646 O   0  0  0  0  0  0  0  0  0  0  0  0
   -2.1879    3.4017    1.7050 C   0  0  0  0  0  0  0  0  0  0  0  0
   -3.2085    1.8948    3.6787 H   0  0  0  0  0  0  0  0  0  0  0  0
   -3.0007    1.4665    1.1994 H   0  0  0  0  0  0  0  0  0  0  0  0
   -1.3888    3.8390    2.3147 H   0  0  0  0  0  0  0  0  0  0  0  0
   -2.0284    3.7240    0.6708 H   0  0  0  0  0  0  0  0  0  0  0  0
   -3.1380    3.8230    2.0508 H   0  0  0  0  0  0  0  0  0  0  0  0
   -0.7390    1.2565   -0.0101 N   0  0  0  0  0  0  0  0  0  0  0  0
    0.4383    0.7557   -0.6738 C   0  0  2  0  0  0  0  0  0  0  0  0
    0.8340   -0.5396    0.0261 C   0  0  0  0  0  0  0  0  0  0  0  0
    0.1861   -1.0254    0.9509 O   0  0  0  0  0  0  0  0  0  0  0  0
    1.5968    1.7588   -0.6330 C   0  0  0  0  0  0  0  0  0  0  0  0
    1.2931    3.0320   -1.3843 C   0  0  0  0  0  0  0  0  0  0  0  0
    1.2997    3.0836   -2.7573 N   0  3  0  0  0  0  0  0  0  0  0  0
    0.9799    4.2873   -0.9450 C   0  0  0  0  0  0  0  0  0  0  0  0
    1.0023    4.3239   -3.1582 C   0  0  0  0  0  0  0  0  0  0  0  0
    0.8058    5.0660   -2.0636 N   0  0  0  0  0  0  0  0  0  0  0  0
   -1.5221    1.5532   -0.5874 H   0  0  0  0  0  0  0  0  0  0  0  0
    0.1434    0.5306   -1.7054 H   0  0  0  0  0  0  0  0  0  0  0  0
    2.5106    1.3012   -1.0357 H   0  0  0  0  0  0  0  0  0  0  0  0
    1.8401    2.0218    0.4050 H   0  0  0  0  0  0  0  0  0  0  0  0
    1.5001    2.3032   -3.3767 H   0  0  0  0  0  0  0  0  0  0  0  0
    0.8527    4.7582    0.0094 H   0  0  0  0  0  0  0  0  0  0  0  0
    0.9343    4.6637   -4.1782 H   0  0  0  0  0  0  0  0  0  0  0  0
    0.5657    6.0533   -2.0623 H   0  0  0  0  0  0  0  0  0  0  0  0
    1.9659   -1.1106   -0.5388 N   0  0  0  0  0  0  0  0  0  0  0  0
    2.5406   -2.3547   -0.0796 C   0  0  2  0  0  0  0  0  0  0  0  0
    2.7018   -2.2685    1.4324 C   0  0  0  0  0  0  0  0  0  0  0  0
    2.7684   -1.2021    2.0402 O   0  0  0  0  0  0  0  0  0  0  0  0
    3.8757   -2.6296   -0.7538 C   0  0  0  0  0  0  0  0  0  0  0  0
    2.4130   -0.6298   -1.3139 H   0  0  0  0  0  0  0  0  0  0  0  0
    1.8230   -3.1447   -0.3265 H   0  0  0  0  0  0  0  0  0  0  0  0
    4.6077   -1.8485   -0.5180 H   0  0  0  0  0  0  0  0  0  0  0  0
    4.2960   -3.5862   -0.4262 H   0  0  0  0  0  0  0  0  0  0  0  0
    3.7631   -2.6616   -1.8429 H   0  0  0  0  0  0  0  0  0  0  0  0
    2.8058   -3.5223    2.0184 N   0  0  0  0  0  0  0  0  0  0  0  0
    2.9782   -3.7063    3.4405 C   0  0  0  0  0  0  0  0  0  0  0  0
    2.7208   -4.3529    1.4399 H   0  0  0  0  0  0  0  0  0  0  0  0
    4.0510   -3.7700    3.6751 H   0  0  0  0  0  0  0  0  0  0  0  0
    2.5357   -2.8538    3.9767 H   0  0  0  0  0  0  0  0  0  0  0  0
    2.4789   -4.6353    3.7531 H   0  0  0  0  0  0  0  0  0  0  0  0
 22 24  2  0  0  0  0
 24 26  1  0  0  0  0
 25 26  1  0  0  0  0
 23 25  2  0  0  0  0
 21 22  1  0  0  0  0
 22 23  1  0  0  0  0
  1  3  1  0  0  0  0
  1  7  1  0  0  0  0
  1  2  2  0  0  0  0
 36 37  1  0  0  0  0
 37 45  1  0  0  0  0
 37 38  2  0  0  0  0
  8  9  1  0  0  0  0
  9 17  1  0  0  0  0
  9 10  2  0  0  0  0
 18 19  1  0  0  0  0
 19 35  1  0  0  0  0
 19 20  2  0  0  0  0
 36 39  1  0  0  0  0
  8 11  1  0  0  0  0
 45 46  1  0  0  0  0
 18 21  1  0  0  0  0
 35 36  1  0  0  0  0
  7  8  1  0  0  0  0
 17 18  1  0  0  0  0
 24 32  1  0  0  0  0
 25 33  1  0  0  0  0
  3  4  1  0  0  0  0
  3  5  1  0  0  0  0
  3  6  1  0  0  0  0
 39 42  1  0  0  0  0
 39 43  1  0  0  0  0
 39 44  1  0  0  0  0
 11 14  1  0  0  0  0
 11 15  1  0  0  0  0
 11 16  1  0  0  0  0
 46 48  1  0  0  0  0
 46 49  1  0  0  0  0
 46 50  1  0  0  0  0
 21 29  1  0  0  0  0
 21 30  1  0  0  0  0
 36 41  1  0  0  0  0
  8 13  1  0  0  0  0
 18 28  1  0  0  0  0
 26 34  1  0  0  0  0
 23 31  1  0  0  0  0
 45 47  1  0  0  0  0
  7 12  1  0  0  0  0
 35 40  1  0  0  0  0
 17 27  1  0  0  0  0
M  CHG  1  23   1
M  END
$$$$

  -OEChem-05262214473D

 50 50  0     1  0  0  0  0  0999 V2000
   -1.6938    0.4865    3.8080 C   0  0  0  0  0  0  0  0  0  0  0  0
   -0.7464   -0.1282    3.3323 O   0  0  0  0  0  0  0  0  0  0  0  0
   -2.1257    0.2041    5.2087 C   0  0  0  0  0  0  0  0  0  0  0  0
   -2.8853   -0.5922    5.2621 H   0  0  0  0  0  0  0  0  0  0  0  0
   -1.2944   -0.1435    5.8430 H   0  0  0  0  0  0  0  0  0  0  0  0
   -2.5637    1.0590    5.7483 H   0  0  0  0  0  0  0  0  0  0  0  0
   -2.4435    1.4589    3.1669 N   0  0  0  0  0  0  0  0  0  0  0  0
   -2.1966    1.8850    1.8145 C   0  0  2  0  0  0  0  0  0  0  0  0
   -0.8617    1.2996    1.3733 C   0  0  0  0  0  0  0  0  0  0  0  0
    0.0104    0.9468    2.1646 O   0  0  0  0  0  0  0  0  0  0  0  0
   -2.1879    3.4017    1.7050 C   0  0  0  0  0  0  0  0  0  0  0  0
   -3.2085    1.8948    3.6787 H   0  0  0  0  0  0  0  0  0  0  0  0
   -3.0007    1.4665    1.1994 H   0  0  0  0  0  0  0  0  0  0  0  0
   -1.3888    3.8390    2.3147 H   0  0  0  0  0  0  0  0  0  0  0  0
   -2.0284    3.7240    0.6708 H   0  0  0  0  0  0  0  0  0  0  0  0
   -3.1380    3.8230    2.0508 H   0  0  0  0  0  0  0  0  0  0  0  0
   -0.7390    1.2565   -0.0101 N   0  0  0  0  0  0  0  0  0  0  0  0
    0.4383    0.7557   -0.6738 C   0  0  2  0  0  0  0  0  0  0  0  0
    0.8340   -0.5396    0.0261 C   0  0  0  0  0  0  0  0  0  0  0  0
    0.0684   -1.1673    0.7547 O   0  0  0  0  0  0  0  0  0  0  0  0
    1.5968    1.7588   -0.6330 C   0  0  0  0  0  0  0  0  0  0  0  0
    1.2931    3.0320   -1.3843 C   0  0  0  0  0  0  0  0  0  0  0  0
    1.2997    3.0836   -2.7573 N   0  3  0  0  0  0  0  0  0  0  0  0
    0.9799    4.2873   -0.9450 C   0  0  0  0  0  0  0  0  0  0  0  0
    1.0023    4.3239   -3.1582 C   0  0  0  0  0  0  0  0  0  0  0  0
    0.8058    5.0660   -2.0636 N   0  0  0  0  0  0  0  0  0  0  0  0
   -1.5221    1.5532   -0.5874 H   0  0  0  0  0  0  0  0  0  0  0  0
    0.1434    0.5306   -1.7054 H   0  0  0  0  0  0  0  0  0  0  0  0
    2.5106    1.3012   -1.0357 H   0  0  0  0  0  0  0  0  0  0  0  0
    1.8401    2.0218    0.4050 H   0  0  0  0  0  0  0  0  0  0  0  0
    1.5001    2.3032   -3.3767 H   0  0  0  0  0  0  0  0  0  0  0  0
    0.8527    4.7582    0.0094 H   0  0  0  0  0  0  0  0  0  0  0  0
    0.9343    4.6637   -4.1782 H   0  0  0  0  0  0  0  0  0  0  0  0
    0.5657    6.0533   -2.0623 H   0  0  0  0  0  0  0  0  0  0  0  0
    2.1240   -0.9337   -0.3008 N   0  0  0  0  0  0  0  0  0  0  0  0
    2.7384   -2.1390    0.2077 C   0  0  2  0  0  0  0  0  0  0  0  0
    2.5573   -2.1574    1.7197 C   0  0  0  0  0  0  0  0  0  0  0  0
    2.3559   -1.1426    2.3836 O   0  0  0  0  0  0  0  0  0  0  0  0
    4.2114   -2.2085   -0.1642 C   0  0  0  0  0  0  0  0  0  0  0  0
    2.6635   -0.3454   -0.9290 H   0  0  0  0  0  0  0  0  0  0  0  0
    2.1967   -2.9815   -0.2359 H   0  0  0  0  0  0  0  0  0  0  0  0
    4.7705   -1.3723    0.2713 H   0  0  0  0  0  0  0  0  0  0  0  0
    4.6685   -3.1356    0.1972 H   0  0  0  0  0  0  0  0  0  0  0  0
    4.3415   -2.1651   -1.2509 H   0  0  0  0  0  0  0  0  0  0  0  0
    2.6899   -3.4349    2.2457 N   0  0  0  0  0  0  0  0  0  0  0  0
    2.5731   -3.7124    3.6583 C   0  0  0  0  0  0  0  0  0  0  0  0
    2.8374   -4.2205    1.6190 H   0  0  0  0  0  0  0  0  0  0  0  0
    3.5692   -3.6749    4.1235 H   0  0  0  0  0  0  0  0  0  0  0  0
    1.9212   -2.9604    4.1269 H   0  0  0  0  0  0  0  0  0  0  0  0
    2.1396   -4.7132    3.8006 H   0  0  0  0  0  0  0  0  0  0  0  0
 22 24  2  0  0  0  0
 24 26  1  0  0  0  0
 25 26  1  0  0  0  0
 23 25  2  0  0  0  0
 21 22  1  0  0  0  0
 22 23  1  0  0  0  0
  1  3  1  0  0  0  0
  1  7  1  0  0  0  0
  1  2  2  0  0  0  0
 36 37  1  0  0  0  0
 37 45  1  0  0  0  0
 37 38  2  0  0  0  0
  8  9  1  0  0  0  0
  9 17  1  0  0  0  0
  9 10  2  0  0  0  0
 18 19  1  0  0  0  0
 19 35  1  0  0  0  0
 19 20  2  0  0  0  0
 36 39  1  0  0  0  0
  8 11  1  0  0  0  0
 45 46  1  0  0  0  0
 18 21  1  0  0  0  0
 35 36  1  0  0  0  0
  7  8  1  0  0  0  0
 17 18  1  0  0  0  0
 24 32  1  0  0  0  0
 25 33  1  0  0  0  0
  3  4  1  0  0  0  0
  3  5  1  0  0  0  0
  3  6  1  0  0  0  0
 39 42  1  0  0  0  0
 39 43  1  0  0  0  0
 39 44  1  0  0  0  0
 11 14  1  0  0  0  0
 11 15  1  0  0  0  0
 11 16  1  0  0  0  0
 46 48  1  0  0  0  0
 46 49  1  0  0  0  0
 46 50  1  0  0  0  0
 21 29  1  0  0  0  0
 21 30  1  0  0  0  0
 36 41  1  0  0  0  0
  8 13  1  0  0  0  0
 18 28  1  0  0  0  0
 26 34  1  0  0  0  0
 23 31  1  0  0  0  0
 45 47  1  0  0  0  0
  7 12  1  0  0  0  0
 35 40  1  0  0  0  0
 17 27  1  0  0  0  0
M  CHG  1  23   1
M  END
$$$$

  -OEChem-05262214473D

 50 50  0     1  0  0  0  0  0999 V2000
   -1.6938    0.4865    3.8080 C   0  0  0  0  0  0  0  0  0  0  0  0
   -0.7464   -0.1282    3.3323 O   0  0  0  0  0  0  0  0  0  0  0  0
   -2.1257    0.2041    5.2087 C   0  0  0  0  0  0  0  0  0  0  0  0
   -2.8853   -0.5922    5.2621 H   0  0  0  0  0  0  0  0  0  0  0  0
   -1.2944   -0.1435    5.8430 H   0  0  0  0  0  0  0  0  0  0  0  0
   -2.5637    1.0590    5.7483 H   0  0  0  0  0  0  0  0  0  0  0  0
   -2.4435    1.4589    3.1669 N   0  0  0  0  0  0  0  0  0  0  0  0
   -2.1966    1.8850    1.8145 C   0  0  2  0  0  0  0  0  0  0  0  0
   -0.8617    1.2996    1.3733 C   0  0  0  0  0  0  0  0  0  0  0  0
    0.0104    0.9468    2.1646 O   0  0  0  0  0  0  0  0  0  0  0  0
   -2.1879    3.4017    1.7050 C   0  0  0  0  0  0  0  0  0  0  0  0
   -3.2085    1.8948    3.6787 H   0  0  0  0  0  0  0  0  0  0  0  0
   -3.0007    1.4665    1.1994 H   0  0  0  0  0  0  0  0  0  0  0  0
   -1.3888    3.8390    2.3147 H   0  0  0  0  0  0  0  0  0  0  0  0
   -2.0284    3.7240    0.6708 H   0  0  0  0  0  0  0  0  0  0  0  0
   -3.1380    3.8230    2.0508 H   0  0  0  0  0  0  0  0  0  0  0  0
   -0.7390    1.2565   -0.0101 N   0  0  0  0  0  0  0  0  0  0  0  0
    0.4383    0.7557   -0.6738 C   0  0  2  0  0  0  0  0  0  0  0  0
    0.8340   -0.5396    0.0261 C   0  0  0  0  0  0  0  0  0  0  0  0
    0.0148   -1.3052    0.5299 O   0  0  0  0  0  0  0  0  0  0  0  0
    1.5968    1.7588   -0.6330 C   0  0  0  0  0  0  0  0  0  0  0  0
    1.2931    3.0320   -1.3843 C   0  0  0  0  0  0  0  0  0  0  0  0
    1.2997    3.0836   -2.7573 N   0  3  0  0  0  0  0  0  0  0  0  0
    0.9799    4.2873   -0.9450 C   0  0  0  0  0  0  0  0  0  0  0  0
    1.0023    4.3239   -3.1582 C   0  0  0  0  0  0  0  0  0  0  0  0
    0.8058    5.0660   -2.0636 N   0  0  0  0  0  0  0  0  0  0  0  0
   -1.5221    1.5532   -0.5874 H   0  0  0  0  0  0  0  0  0  0  0  0
    0.1434    0.5306   -1.7054 H   0  0  0  0  0  0  0  0  0  0  0  0
    2.5106    1.3012   -1.0357 H   0  0  0  0  0  0  0  0  0  0  0  0
    1.8401    2.0218    0.4050 H   0  0  0  0  0  0  0  0  0  0  0  0
    1.5001    2.3032   -3.3767 H   0  0  0  0  0  0  0  0  0  0  0  0
    0.8527    4.7582    0.0094 H   0  0  0  0  0  0  0  0  0  0  0  0
    0.9343    4.6637   -4.1782 H   0  0  0  0  0  0  0  0  0  0  0  0
    0.5657    6.0533   -2.0623 H   0  0  0  0  0  0  0  0  0  0  0  0
    2.2034   -0.7601   -0.0243 N   0  0  0  0  0  0  0  0  0  0  0  0
    2.8408   -1.9265    0.5431 C   0  0  2  0  0  0  0  0  0  0  0  0
    2.3413   -2.0865    1.9730 C   0  0  0  0  0  0  0  0  0  0  0  0
    1.8749   -1.1572    2.6285 O   0  0  0  0  0  0  0  0  0  0  0  0
    4.3560   -1.8014    0.5074 C   0  0  0  0  0  0  0  0  0  0  0  0
    2.7869   -0.0668   -0.4832 H   0  0  0  0  0  0  0  0  0  0  0  0
    2.5185   -2.7856   -0.0552 H   0  0  0  0  0  0  0  0  0  0  0  0
    4.6977   -0.9460    1.1015 H   0  0  0  0  0  0  0  0  0  0  0  0
    4.8377   -2.6979    0.9115 H   0  0  0  0  0  0  0  0  0  0  0  0
    4.7110   -1.6566   -0.5186 H   0  0  0  0  0  0  0  0  0  0  0  0
    2.5176   -3.3794    2.4457 N   0  0  0  0  0  0  0  0  0  0  0  0
    2.1347   -3.7810    3.7792 C   0  0  0  0  0  0  0  0  0  0  0  0
    2.8950   -4.0908    1.8265 H   0  0  0  0  0  0  0  0  0  0  0  0
    2.9940   -3.6704    4.4569 H   0  0  0  0  0  0  0  0  0  0  0  0
    1.3074   -3.1464    4.1297 H   0  0  0  0  0  0  0  0  0  0  0  0
    1.8106   -4.8321    3.7666 H   0  0  0  0  0  0  0  0  0  0  0  0
 22 24  2  0  0  0  0
 24 26  1  0  0  0  0
 25 26  1  0  0  0  0
 23 25  2  0  0  0  0
 21 22  1  0  0  0  0
 22 23  1  0  0  0  0
  1  3  1  0  0  0  0
  1  7  1  0  0  0  0
  1  2  2  0  0  0  0
 36 37  1  0  0  0  0
 37 45  1  0  0  0  0
 37 38  2  0  0  0  0
  8  9  1  0  0  0  0
  9 17  1  0  0  0  0
  9 10  2  0  0  0  0
 18 19  1  0  0  0  0
 19 35  1  0  0  0  0
 19 20  2  0  0  0  0
 36 39  1  0  0  0  0
  8 11  1  0  0  0  0
 45 46  1  0  0  0  0
 18 21  1  0  0  0  0
 35 36  1  0  0  0  0
  7  8  1  0  0  0  0
 17 18  1  0  0  0  0
 24 32  1  0  0  0  0
 25 33  1  0  0  0  0
  3  4  1  0  0  0  0
  3  5  1  0  0  0  0
  3  6  1  0  0  0  0
 39 42  1  0  0  0  0
 39 43  1  0  0  0  0
 39 44  1  0  0  0  0
 11 14  1  0  0  0  0
 11 15  1  0  0  0  0
 11 16  1  0  0  0  0
 46 48  1  0  0  0  0
 46 49  1  0  0  0  0
 46 50  1  0  0  0  0
 21 29  1  0  0  0  0
 21 30  1  0  0  0  0
 36 41  1  0  0  0  0
  8 13  1  0  0  0  0
 18 28  1  0  0  0  0
 26 34  1  0  0  0  0
 23 31  1  0  0  0  0
 45 47  1  0  0  0  0
  7 12  1  0  0  0  0
 35 40  1  0  0  0  0
 17 27  1  0  0  0  0
M  CHG  1  23   1
M  END
$$$$

  -OEChem-05262214473D

 50 50  0     1  0  0  0  0  0999 V2000
   -1.6938    0.4865    3.8080 C   0  0  0  0  0  0  0  0  0  0  0  0
   -0.7464   -0.1282    3.3323 O   0  0  0  0  0  0  0  0  0  0  0  0
   -2.1257    0.2041    5.2087 C   0  0  0  0  0  0  0  0  0  0  0  0
   -2.8853   -0.5922    5.2621 H   0  0  0  0  0  0  0  0  0  0  0  0
   -1.2944   -0.1435    5.8430 H   0  0  0  0  0  0  0  0  0  0  0  0
   -2.5637    1.0590    5.7483 H   0  0  0  0  0  0  0  0  0  0  0  0
   -2.4435    1.4589    3.1669 N   0  0  0  0  0  0  0  0  0  0  0  0
   -2.1966    1.8850    1.8145 C   0  0  2  0  0  0  0  0  0  0  0  0
   -0.8617    1.2996    1.3733 C   0  0  0  0  0  0  0  0  0  0  0  0
    0.0104    0.9468    2.1646 O   0  0  0  0  0  0  0  0  0  0  0  0
   -2.1879    3.4017    1.7050 C   0  0  0  0  0  0  0  0  0  0  0  0
   -3.2085    1.8948    3.6787 H   0  0  0  0  0  0  0  0  0  0  0  0
   -3.0007    1.4665    1.1994 H   0  0  0  0  0  0  0  0  0  0  0  0
   -1.3888    3.8390    2.3147 H   0  0  0  0  0  0  0  0  0  0  0  0
   -2.0284    3.7240    0.6708 H   0  0  0  0  0  0  0  0  0  0  0  0
   -3.1380    3.8230    2.0508 H   0  0  0  0  0  0  0  0  0  0  0  0
   -0.7390    1.2565   -0.0101 N   0  0  0  0  0  0  0  0  0  0  0  0
    0.4383    0.7557   -0.6738 C   0  0  2  0  0  0  0  0  0  0  0  0
    0.8340   -0.5396    0.0261 C   0  0  0  0  0  0  0  0  0  0  0  0
    0.0288   -1.4296    0.2916 O   0  0  0  0  0  0  0  0  0  0  0  0
    1.5968    1.7588   -0.6330 C   0  0  0  0  0  0  0  0  0  0  0  0
    1.2931    3.0320   -1.3843 C   0  0  0  0  0  0  0  0  0  0  0  0
    1.2997    3.0836   -2.7573 N   0  3  0  0  0  0  0  0  0  0  0  0
    0.9799    4.2873   -0.9450 C   0  0  0  0  0  0  0  0  0  0  0  0
    1.0023    4.3239   -3.1582 C   0  0  0  0  0  0  0  0  0  0  0  0
    0.8058    5.0660   -2.0636 N   0  0  0  0  0  0  0  0  0  0  0  0
   -1.5221    1.5532   -0.5874 H   0  0  0  0  0  0  0  0  0  0  0  0
    0.1434    0.5306   -1.7054 H   0  0  0  0  0  0  0  0  0  0  0  0
    2.5106    1.3012   -1.0357 H   0  0  0  0  0  0  0  0  0  0  0  0
    1.8401    2.0218    0.4050 H   0  0  0  0  0  0  0  0  0  0  0  0
    1.5001    2.3032   -3.3767 H   0  0  0  0  0  0  0  0  0  0  0  0
    0.8527    4.7582    0.0094 H   0  0  0  0  0  0  0  0  0  0  0  0
    0.9343    4.6637   -4.1782 H   0  0  0  0  0  0  0  0  0  0  0  0
    0.5657    6.0533   -2.0623 H   0  0  0  0  0  0  0  0  0  0  0  0
    2.1986   -0.6015    0.2719 N   0  0  0  0  0  0  0  0  0  0  0  0
    2.8406   -1.7316    0.9040 C   0  0  2  0  0  0  0  0  0  0  0  0
    2.0686   -2.0607    2.1749 C   0  0  0  0  0  0  0  0  0  0  0  0
    1.3581   -1.2448    2.7584 O   0  0  0  0  0  0  0  0  0  0  0  0
    4.2996   -1.4362    1.2153 C   0  0  0  0  0  0  0  0  0  0  0  0
    2.7751    0.1871   -0.0066 H   0  0  0  0  0  0  0  0  0  0  0  0
    2.7662   -2.5703    0.2032 H   0  0  0  0  0  0  0  0  0  0  0  0
    4.3941   -0.5986    1.9160 H   0  0  0  0  0  0  0  0  0  0  0  0
    4.7920   -2.3031    1.6681 H   0  0  0  0  0  0  0  0  0  0  0  0
    4.8465   -1.1706    0.3042 H   0  0  0  0  0  0  0  0  0  0  0  0
    2.3006   -3.3598    2.6047 N   0  0  0  0  0  0  0  0  0  0  0  0
    1.6928   -3.9074    3.7949 C   0  0  0  0  0  0  0  0  0  0  0  0
    2.8895   -3.9726    2.0484 H   0  0  0  0  0  0  0  0  0  0  0  0
    2.3645   -3.7568    4.6529 H   0  0  0  0  0  0  0  0  0  0  0  0
    0.7359   -3.3991    3.9849 H   0  0  0  0  0  0  0  0  0  0  0  0
    1.5145   -4.9836    3.6535 H   0  0  0  0  0  0  0  0  0  0  0  0
 22 24  2  0  0  0  0
 24 26  1  0  0  0  0
 25 26  1  0  0  0  0
 23 25  2  0  0  0  0
 21 22  1  0  0  0  0
 22 23  1  0  0  0  0
  1  3  1  0  0  0  0
  1  7  1  0  0  0  0
  1  2  2  0  0  0  0
 36 37  1  0  0  0  0
 37 45  1  0  0  0  0
 37 38  2  0  0  0  0
  8  9  1  0  0  0  0
  9 17  1  0  0  0  0
  9 10  2  0  0  0  0
 18 19  1  0  0  0  0
 19 35  1  0  0  0  0
 19 20  2  0  0  0  0
 36 39  1  0  0  0  0
  8 11  1  0  0  0  0
 45 46  1  0  0  0  0
 18 21  1  0  0  0  0
 35 36  1  0  0  0  0
  7  8  1  0  0  0  0
 17 18  1  0  0  0  0
 24 32  1  0  0  0  0
 25 33  1  0  0  0  0
  3  4  1  0  0  0  0
  3  5  1  0  0  0  0
  3  6  1  0  0  0  0
 39 42  1  0  0  0  0
 39 43  1  0  0  0  0
 39 44  1  0  0  0  0
 11 14  1  0  0  0  0
 11 15  1  0  0  0  0
 11 16  1  0  0  0  0
 46 48  1  0  0  0  0
 46 49  1  0  0  0  0
 46 50  1  0  0  0  0
 21 29  1  0  0  0  0
 21 30  1  0  0  0  0
 36 41  1  0  0  0  0
  8 13  1  0  0  0  0
 18 28  1  0  0  0  0
 26 34  1  0  0  0  0
 23 31  1  0  0  0  0
 45 47  1  0  0  0  0
  7 12  1  0  0  0  0
 35 40  1  0  0  0  0
 17 27  1  0  0  0  0
M  CHG  1  23   1
M  END
$$$$

  -OEChem-05262214473D

 50 50  0     1  0  0  0  0  0999 V2000
   -1.6938    0.4865    3.8080 C   0  0  0  0  0  0  0  0  0  0  0  0
   -0.7464   -0.1282    3.3323 O   0  0  0  0  0  0  0  0  0  0  0  0
   -2.1257    0.2041    5.2087 C   0  0  0  0  0  0  0  0  0  0  0  0
   -2.8853   -0.5922    5.2621 H   0  0  0  0  0  0  0  0  0  0  0  0
   -1.2944   -0.1435    5.8430 H   0  0  0  0  0  0  0  0  0  0  0  0
   -2.5637    1.0590    5.7483 H   0  0  0  0  0  0  0  0  0  0  0  0
   -2.4435    1.4589    3.1669 N   0  0  0  0  0  0  0  0  0  0  0  0
   -2.1966    1.8850    1.8145 C   0  0  2  0  0  0  0  0  0  0  0  0
   -0.8617    1.2996    1.3733 C   0  0  0  0  0  0  0  0  0  0  0  0
    0.0104    0.9468    2.1646 O   0  0  0  0  0  0  0  0  0  0  0  0
   -2.1879    3.4017    1.7050 C   0  0  0  0  0  0  0  0  0  0  0  0
   -3.2085    1.8948    3.6787 H   0  0  0  0  0  0  0  0  0  0  0  0
   -3.0007    1.4665    1.1994 H   0  0  0  0  0  0  0  0  0  0  0  0
   -1.3888    3.8390    2.3147 H   0  0  0  0  0  0  0  0  0  0  0  0
   -2.0284    3.7240    0.6708 H   0  0  0  0  0  0  0  0  0  0  0  0
   -3.1380    3.8230    2.0508 H   0  0  0  0  0  0  0  0  0  0  0  0
   -0.7390    1.2565   -0.0101 N   0  0  0  0  0  0  0  0  0  0  0  0
    0.4383    0.7557   -0.6738 C   0  0  2  0  0  0  0  0  0  0  0  0
    0.8340   -0.5396    0.0261 C   0  0  0  0  0  0  0  0  0  0  0  0
    0.1095   -1.5322    0.0562 O   0  0  0  0  0  0  0  0  0  0  0  0
    1.5968    1.7588   -0.6330 C   0  0  0  0  0  0  0  0  0  0  0  0
    1.2931    3.0320   -1.3843 C   0  0  0  0  0  0  0  0  0  0  0  0
    1.2997    3.0836   -2.7573 N   0  3  0  0  0  0  0  0  0  0  0  0
    0.9799    4.2873   -0.9450 C   0  0  0  0  0  0  0  0  0  0  0  0
    1.0023    4.3239   -3.1582 C   0  0  0  0  0  0  0  0  0  0  0  0
    0.8058    5.0660   -2.0636 N   0  0  0  0  0  0  0  0  0  0  0  0
   -1.5221    1.5532   -0.5874 H   0  0  0  0  0  0  0  0  0  0  0  0
    0.1434    0.5306   -1.7054 H   0  0  0  0  0  0  0  0  0  0  0  0
    2.5106    1.3012   -1.0357 H   0  0  0  0  0  0  0  0  0  0  0  0
    1.8401    2.0218    0.4050 H   0  0  0  0  0  0  0  0  0  0  0  0
    1.5001    2.3032   -3.3767 H   0  0  0  0  0  0  0  0  0  0  0  0
    0.8527    4.7582    0.0094 H   0  0  0  0  0  0  0  0  0  0  0  0
    0.9343    4.6637   -4.1782 H   0  0  0  0  0  0  0  0  0  0  0  0
    0.5657    6.0533   -2.0623 H   0  0  0  0  0  0  0  0  0  0  0  0
    2.1100   -0.4688    0.5675 N   0  0  0  0  0  0  0  0  0  0  0  0
    2.7380   -1.5676    1.2656 C   0  0  2  0  0  0  0  0  0  0  0  0
    1.7578   -2.0818    2.3117 C   0  0  0  0  0  0  0  0  0  0  0  0
    0.8408   -1.3997    2.7643 O   0  0  0  0  0  0  0  0  0  0  0  0
    4.0460   -1.1376    1.9112 C   0  0  0  0  0  0  0  0  0  0  0  0
    2.6286    0.3989    0.4682 H   0  0  0  0  0  0  0  0  0  0  0  0
    2.9231   -2.3502    0.5218 H   0  0  0  0  0  0  0  0  0  0  0  0
    3.8805   -0.3539    2.6594 H   0  0  0  0  0  0  0  0  0  0  0  0
    4.5346   -1.9779    2.4154 H   0  0  0  0  0  0  0  0  0  0  0  0
    4.7387   -0.7404    1.1614 H   0  0  0  0  0  0  0  0  0  0  0  0
    2.0537   -3.3773    2.7119 N   0  0  0  0  0  0  0  0  0  0  0  0
    1.2774   -4.0832    3.7045 C   0  0  0  0  0  0  0  0  0  0  0  0
    2.8213   -3.8740    2.2694 H   0  0  0  0  0  0  0  0  0  0  0  0
    1.7236   -3.9282    4.6979 H   0  0  0  0  0  0  0  0  0  0  0  0
    0.2458   -3.7015    3.7024 H   0  0  0  0  0  0  0  0  0  0  0  0
    1.2713   -5.1576    3.4689 H   0  0  0  0  0  0  0  0  0  0  0  0
 22 24  2  0  0  0  0
 24 26  1  0  0  0  0
 25 26  1  0  0  0  0
 23 25  2  0  0  0  0
 21 22  1  0  0  0  0
 22 23  1  0  0  0  0
  1  3  1  0  0  0  0
  1  7  1  0  0  0  0
  1  2  2  0  0  0  0
 36 37  1  0  0  0  0
 37 45  1  0  0  0  0
 37 38  2  0  0  0  0
  8  9  1  0  0  0  0
  9 17  1  0  0  0  0
  9 10  2  0  0  0  0
 18 19  1  0  0  0  0
 19 35  1  0  0  0  0
 19 20  2  0  0  0  0
 36 39  1  0  0  0  0
  8 11  1  0  0  0  0
 45 46  1  0  0  0  0
 18 21  1  0  0  0  0
 35 36  1  0  0  0  0
  7  8  1  0  0  0  0
 17 18  1  0  0  0  0
 24 32  1  0  0  0  0
 25 33  1  0  0  0  0
  3  4  1  0  0  0  0
  3  5  1  0  0  0  0
  3  6  1  0  0  0  0
 39 42  1  0  0  0  0
 39 43  1  0  0  0  0
 39 44  1  0  0  0  0
 11 14  1  0  0  0  0
 11 15  1  0  0  0  0
 11 16  1  0  0  0  0
 46 48  1  0  0  0  0
 46 49  1  0  0  0  0
 46 50  1  0  0  0  0
 21 29  1  0  0  0  0
 21 30  1  0  0  0  0
 36 41  1  0  0  0  0
  8 13  1  0  0  0  0
 18 28  1  0  0  0  0
 26 34  1  0  0  0  0
 23 31  1  0  0  0  0
 45 47  1  0  0  0  0
  7 12  1  0  0  0  0
 35 40  1  0  0  0  0
 17 27  1  0  0  0  0
M  CHG  1  23   1
M  END
$$$$

  -OEChem-05262214473D

 50 50  0     1  0  0  0  0  0999 V2000
   -1.6938    0.4865    3.8080 C   0  0  0  0  0  0  0  0  0  0  0  0
   -0.7464   -0.1282    3.3323 O   0  0  0  0  0  0  0  0  0  0  0  0
   -2.1257    0.2041    5.2087 C   0  0  0  0  0  0  0  0  0  0  0  0
   -2.8853   -0.5922    5.2621 H   0  0  0  0  0  0  0  0  0  0  0  0
   -1.2944   -0.1435    5.8430 H   0  0  0  0  0  0  0  0  0  0  0  0
   -2.5637    1.0590    5.7483 H   0  0  0  0  0  0  0  0  0  0  0  0
   -2.4435    1.4589    3.1669 N   0  0  0  0  0  0  0  0  0  0  0  0
   -2.1966    1.8850    1.8145 C   0  0  2  0  0  0  0  0  0  0  0  0
   -0.8617    1.2996    1.3733 C   0  0  0  0  0  0  0  0  0  0  0  0
    0.0104    0.9468    2.1646 O   0  0  0  0  0  0  0  0  0  0  0  0
   -2.1879    3.4017    1.7050 C   0  0  0  0  0  0  0  0  0  0  0  0
   -3.2085    1.8948    3.6787 H   0  0  0  0  0  0  0  0  0  0  0  0
   -3.0007    1.4665    1.1994 H   0  0  0  0  0  0  0  0  0  0  0  0
   -1.3888    3.8390    2.3147 H   0  0  0  0  0  0  0  0  0  0  0  0
   -2.0284    3.7240    0.6708 H   0  0  0  0  0  0  0  0  0  0  0  0
   -3.1380    3.8230    2.0508 H   0  0  0  0  0  0  0  0  0  0  0  0
   -0.7390    1.2565   -0.0101 N   0  0  0  0  0  0  0  0  0  0  0  0
    0.4383    0.7557   -0.6738 C   0  0  2  0  0  0  0  0  0  0  0  0
    0.8340   -0.5396    0.0261 C   0  0  0  0  0  0  0  0  0  0  0  0
    0.2514   -1.6058   -0.1604 O   0  0  0  0  0  0  0  0  0  0  0  0
    1.5968    1.7588   -0.6330 C   0  0  0  0  0  0  0  0  0  0  0  0
    1.2931    3.0320   -1.3843 C   0  0  0  0  0  0  0  0  0  0  0  0
    1.2997    3.0836   -2.7573 N   0  3  0  0  0  0  0  0  0  0  0  0
    0.9799    4.2873   -0.9450 C   0  0  0  0  0  0  0  0  0  0  0  0
    1.0023    4.3239   -3.1582 C   0  0  0  0  0  0  0  0  0  0  0  0
    0.8058    5.0660   -2.0636 N   0  0  0  0  0  0  0  0  0  0  0  0
   -1.5221    1.5532   -0.5874 H   0  0  0  0  0  0  0  0  0  0  0  0
    0.1434    0.5306   -1.7054 H   0  0  0  0  0  0  0  0  0  0  0  0
    2.5106    1.3012   -1.0357 H   0  0  0  0  0  0  0  0  0  0  0  0
    1.8401    2.0218    0.4050 H   0  0  0  0  0  0  0  0  0  0  0  0
    1.5001    2.3032   -3.3767 H   0  0  0  0  0  0  0  0  0  0  0  0
    0.8527    4.7582    0.0094 H   0  0  0  0  0  0  0  0  0  0  0  0
    0.9343    4.6637   -4.1782 H   0  0  0  0  0  0  0  0  0  0  0  0
    0.5657    6.0533   -2.0623 H   0  0  0  0  0  0  0  0  0  0  0  0
    1.9437   -0.3710    0.8426 N   0  0  0  0  0  0  0  0  0  0  0  0
    2.5398   -1.4456    1.6033 C   0  0  2  0  0  0  0  0  0  0  0  0
    1.4299   -2.1482    2.3740 C   0  0  0  0  0  0  0  0  0  0  0  0
    0.3582   -1.6111    2.6459 O   0  0  0  0  0  0  0  0  0  0  0  0
    3.6126   -0.9261    2.5477 C   0  0  0  0  0  0  0  0  0  0  0  0
    2.3576    0.5542    0.9088 H   0  0  0  0  0  0  0  0  0  0  0  0
    2.9785   -2.1404    0.8788 H   0  0  0  0  0  0  0  0  0  0  0  0
    3.1919   -0.2284    3.2809 H   0  0  0  0  0  0  0  0  0  0  0  0
    4.0830   -1.7447    3.1024 H   0  0  0  0  0  0  0  0  0  0  0  0
    4.3949   -0.3952    1.9945 H   0  0  0  0  0  0  0  0  0  0  0  0
    1.7937   -3.4308    2.7599 N   0  0  0  0  0  0  0  0  0  0  0  0
    0.9171   -4.2962    3.5139 C   0  0  0  0  0  0  0  0  0  0  0  0
    2.6952   -3.8017    2.4745 H   0  0  0  0  0  0  0  0  0  0  0  0
    1.1151   -4.1730    4.5889 H   0  0  0  0  0  0  0  0  0  0  0  0
   -0.1296   -4.0328    3.3015 H   0  0  0  0  0  0  0  0  0  0  0  0
    1.0977   -5.3422    3.2255 H   0  0  0  0  0  0  0  0  0  0  0  0
 22 24  2  0  0  0  0
 24 26  1  0  0  0  0
 25 26  1  0  0  0  0
 23 25  2  0  0  0  0
 21 22  1  0  0  0  0
 22 23  1  0  0  0  0
  1  3  1  0  0  0  0
  1  7  1  0  0  0  0
  1  2  2  0  0  0  0
 36 37  1  0  0  0  0
 37 45  1  0  0  0  0
 37 38  2  0  0  0  0
  8  9  1  0  0  0  0
  9 17  1  0  0  0  0
  9 10  2  0  0  0  0
 18 19  1  0  0  0  0
 19 35  1  0  0  0  0
 19 20  2  0  0  0  0
 36 39  1  0  0  0  0
  8 11  1  0  0  0  0
 45 46  1  0  0  0  0
 18 21  1  0  0  0  0
 35 36  1  0  0  0  0
  7  8  1  0  0  0  0
 17 18  1  0  0  0  0
 24 32  1  0  0  0  0
 25 33  1  0  0  0  0
  3  4  1  0  0  0  0
  3  5  1  0  0  0  0
  3  6  1  0  0  0  0
 39 42  1  0  0  0  0
 39 43  1  0  0  0  0
 39 44  1  0  0  0  0
 11 14  1  0  0  0  0
 11 15  1  0  0  0  0
 11 16  1  0  0  0  0
 46 48  1  0  0  0  0
 46 49  1  0  0  0  0
 46 50  1  0  0  0  0
 21 29  1  0  0  0  0
 21 30  1  0  0  0  0
 36 41  1  0  0  0  0
  8 13  1  0  0  0  0
 18 28  1  0  0  0  0
 26 34  1  0  0  0  0
 23 31  1  0  0  0  0
 45 47  1  0  0  0  0
  7 12  1  0  0  0  0
 35 40  1  0  0  0  0
 17 27  1  0  0  0  0
M  CHG  1  23   1
M  END
$$$$

  -OEChem-05262214473D

 50 50  0     1  0  0  0  0  0999 V2000
   -1.6938    0.4865    3.8080 C   0  0  0  0  0  0  0  0  0  0  0  0
   -0.7464   -0.1282    3.3323 O   0  0  0  0  0  0  0  0  0  0  0  0
   -2.1257    0.2041    5.2087 C   0  0  0  0  0  0  0  0  0  0  0  0
   -2.8853   -0.5922    5.2621 H   0  0  0  0  0  0  0  0  0  0  0  0
   -1.2944   -0.1435    5.8430 H   0  0  0  0  0  0  0  0  0  0  0  0
   -2.5637    1.0590    5.7483 H   0  0  0  0  0  0  0  0  0  0  0  0
   -2.4435    1.4589    3.1669 N   0  0  0  0  0  0  0  0  0  0  0  0
   -2.1966    1.8850    1.8145 C   0  0  2  0  0  0  0  0  0  0  0  0
   -0.8617    1.2996    1.3733 C   0  0  0  0  0  0  0  0  0  0  0  0
    0.0104    0.9468    2.1646 O   0  0  0  0  0  0  0  0  0  0  0  0
   -2.1879    3.4017    1.7050 C   0  0  0  0  0  0  0  0  0  0  0  0
   -3.2085    1.8948    3.6787 H   0  0  0  0  0  0  0  0  0  0  0  0
   -3.0007    1.4665    1.1994 H   0  0  0  0  0  0  0  0  0  0  0  0
   -1.3888    3.8390    2.3147 H   0  0  0  0  0  0  0  0  0  0  0  0
   -2.0284    3.7240    0.6708 H   0  0  0  0  0  0  0  0  0  0  0  0
   -3.1380    3.8230    2.0508 H   0  0  0  0  0  0  0  0  0  0  0  0
   -0.7390    1.2565   -0.0101 N   0  0  0  0  0  0  0  0  0  0  0  0
    0.4383    0.7557   -0.6738 C   0  0  2  0  0  0  0  0  0  0  0  0
    0.8340   -0.5396    0.0261 C   0  0  0  0  0  0  0  0  0  0  0  0
    0.4449   -1.6455   -0.3432 O   0  0  0  0  0  0  0  0  0  0  0  0
    1.5968    1.7588   -0.6330 C   0  0  0  0  0  0  0  0  0  0  0  0
    1.2931    3.0320   -1.3843 C   0  0  0  0  0  0  0  0  0  0  0  0
    1.2997    3.0836   -2.7573 N   0  3  0  0  0  0  0  0  0  0  0  0
    0.9799    4.2873   -0.9450 C   0  0  0  0  0  0  0  0  0  0  0  0
    1.0023    4.3239   -3.1582 C   0  0  0  0  0  0  0  0  0  0  0  0
    0.8058    5.0660   -2.0636 N   0  0  0  0  0  0  0  0  0  0  0  0
   -1.5221    1.5532   -0.5874 H   0  0  0  0  0  0  0  0  0  0  0  0
    0.1434    0.5306   -1.7054 H   0  0  0  0  0  0  0  0  0  0  0  0
    2.5106    1.3012   -1.0357 H   0  0  0  0  0  0  0  0  0  0  0  0
    1.8401    2.0218    0.4050 H   0  0  0  0  0  0  0  0  0  0  0  0
    1.5001    2.3032   -3.3767 H   0  0  0  0  0  0  0  0  0  0  0  0
    0.8527    4.7582    0.0094 H   0  0  0  0  0  0  0  0  0  0  0  0
    0.9343    4.6637   -4.1782 H   0  0  0  0  0  0  0  0  0  0  0  0
    0.5657    6.0533   -2.0623 H   0  0  0  0  0  0  0  0  0  0  0  0
    1.7109   -0.3148    1.0782 N   0  0  0  0  0  0  0  0  0  0  0  0
    2.2596   -1.3741    1.8941 C   0  0  2  0  0  0  0  0  0  0  0  0
    1.1074   -2.2556    2.3577 C   0  0  0  0  0  0  0  0  0  0  0  0
   -0.0568   -1.8647    2.4111 O   0  0  0  0  0  0  0  0  0  0  0  0
    3.0289   -0.8161    3.0813 C   0  0  0  0  0  0  0  0  0  0  0  0
    1.9805    0.6424    1.2852 H   0  0  0  0  0  0  0  0  0  0  0  0
    2.9285   -1.9552    1.2499 H   0  0  0  0  0  0  0  0  0  0  0  0
    2.3751   -0.2308    3.7382 H   0  0  0  0  0  0  0  0  0  0  0  0
    3.4680   -1.6191    3.6825 H   0  0  0  0  0  0  0  0  0  0  0  0
    3.8386   -0.1586    2.7469 H   0  0  0  0  0  0  0  0  0  0  0  0
    1.5384   -3.5165    2.7456 N   0  0  0  0  0  0  0  0  0  0  0  0
    0.6362   -4.5320    3.2363 C   0  0  0  0  0  0  0  0  0  0  0  0
    2.5197   -3.7606    2.6498 H   0  0  0  0  0  0  0  0  0  0  0  0
    0.5803   -4.4744    4.3334 H   0  0  0  0  0  0  0  0  0  0  0  0
   -0.3646   -4.3705    2.8094 H   0  0  0  0  0  0  0  0  0  0  0  0
    1.0055   -5.5248    2.9397 H   0  0  0  0  0  0  0  0  0  0  0  0
 22 24  2  0  0  0  0
 24 26  1  0  0  0  0
 25 26  1  0  0  0  0
 23 25  2  0  0  0  0
 21 22  1  0  0  0  0
 22 23  1  0  0  0  0
  1  3  1  0  0  0  0
  1  7  1  0  0  0  0
  1  2  2  0  0  0  0
 36 37  1  0  0  0  0
 37 45  1  0  0  0  0
 37 38  2  0  0  0  0
  8  9  1  0  0  0  0
  9 17  1  0  0  0  0
  9 10  2  0  0  0  0
 18 19  1  0  0  0  0
 19 35  1  0  0  0  0
 19 20  2  0  0  0  0
 36 39  1  0  0  0  0
  8 11  1  0  0  0  0
 45 46  1  0  0  0  0
 18 21  1  0  0  0  0
 35 36  1  0  0  0  0
  7  8  1  0  0  0  0
 17 18  1  0  0  0  0
 24 32  1  0  0  0  0
 25 33  1  0  0  0  0
  3  4  1  0  0  0  0
  3  5  1  0  0  0  0
  3  6  1  0  0  0  0
 39 42  1  0  0  0  0
 39 43  1  0  0  0  0
 39 44  1  0  0  0  0
 11 14  1  0  0  0  0
 11 15  1  0  0  0  0
 11 16  1  0  0  0  0
 46 48  1  0  0  0  0
 46 49  1  0  0  0  0
 46 50  1  0  0  0  0
 21 29  1  0  0  0  0
 21 30  1  0  0  0  0
 36 41  1  0  0  0  0
  8 13  1  0  0  0  0
 18 28  1  0  0  0  0
 26 34  1  0  0  0  0
 23 31  1  0  0  0  0
 45 47  1  0  0  0  0
  7 12  1  0  0  0  0
 35 40  1  0  0  0  0
 17 27  1  0  0  0  0
M  CHG  1  23   1
M  END
$$$$

  -OEChem-05262214473D

 50 50  0     1  0  0  0  0  0999 V2000
   -1.6938    0.4865    3.8080 C   0  0  0  0  0  0  0  0  0  0  0  0
   -0.7464   -0.1282    3.3323 O   0  0  0  0  0  0  0  0  0  0  0  0
   -2.1257    0.2041    5.2087 C   0  0  0  0  0  0  0  0  0  0  0  0
   -2.8853   -0.5922    5.2621 H   0  0  0  0  0  0  0  0  0  0  0  0
   -1.2944   -0.1435    5.8430 H   0  0  0  0  0  0  0  0  0  0  0  0
   -2.5637    1.0590    5.7483 H   0  0  0  0  0  0  0  0  0  0  0  0
   -2.4435    1.4589    3.1669 N   0  0  0  0  0  0  0  0  0  0  0  0
   -2.1966    1.8850    1.8145 C   0  0  2  0  0  0  0  0  0  0  0  0
   -0.8617    1.2996    1.3733 C   0  0  0  0  0  0  0  0  0  0  0  0
    0.0104    0.9468    2.1646 O   0  0  0  0  0  0  0  0  0  0  0  0
   -2.1879    3.4017    1.7050 C   0  0  0  0  0  0  0  0  0  0  0  0
   -3.2085    1.8948    3.6787 H   0  0  0  0  0  0  0  0  0  0  0  0
   -3.0007    1.4665    1.1994 H   0  0  0  0  0  0  0  0  0  0  0  0
   -1.3888    3.8390    2.3147 H   0  0  0  0  0  0  0  0  0  0  0  0
   -2.0284    3.7240    0.6708 H   0  0  0  0  0  0  0  0  0  0  0  0
   -3.1380    3.8230    2.0508 H   0  0  0  0  0  0  0  0  0  0  0  0
   -0.7390    1.2565   -0.0101 N   0  0  0  0  0  0  0  0  0  0  0  0
    0.4383    0.7557   -0.6738 C   0  0  2  0  0  0  0  0  0  0  0  0
    0.8340   -0.5396    0.0261 C   0  0  0  0  0  0  0  0  0  0  0  0
    0.6767   -1.6486   -0.4800 O   0  0  0  0  0  0  0  0  0  0  0  0
    1.5968    1.7588   -0.6330 C   0  0  0  0  0  0  0  0  0  0  0  0
    1.2931    3.0320   -1.3843 C   0  0  0  0  0  0  0  0  0  0  0  0
    1.2997    3.0836   -2.7573 N   0  3  0  0  0  0  0  0  0  0  0  0
    0.9799    4.2873   -0.9450 C   0  0  0  0  0  0  0  0  0  0  0  0
    1.0023    4.3239   -3.1582 C   0  0  0  0  0  0  0  0  0  0  0  0
    0.8058    5.0660   -2.0636 N   0  0  0  0  0  0  0  0  0  0  0  0
   -1.5221    1.5532   -0.5874 H   0  0  0  0  0  0  0  0  0  0  0  0
    0.1434    0.5306   -1.7054 H   0  0  0  0  0  0  0  0  0  0  0  0
    2.5106    1.3012   -1.0357 H   0  0  0  0  0  0  0  0  0  0  0  0
    1.8401    2.0218    0.4050 H   0  0  0  0  0  0  0  0  0  0  0  0
    1.5001    2.3032   -3.3767 H   0  0  0  0  0  0  0  0  0  0  0  0
    0.8527    4.7582    0.0094 H   0  0  0  0  0  0  0  0  0  0  0  0
    0.9343    4.6637   -4.1782 H   0  0  0  0  0  0  0  0  0  0  0  0
    0.5657    6.0533   -2.0623 H   0  0  0  0  0  0  0  0  0  0  0  0
    1.4275   -0.3040    1.2584 N   0  0  0  0  0  0  0  0  0  0  0  0
    1.9165   -1.3578    2.1182 C   0  0  2  0  0  0  0  0  0  0  0  0
    0.8123   -2.3965    2.2637 C   0  0  0  0  0  0  0  0  0  0  0  0
   -0.3759   -2.1432    2.0761 O   0  0  0  0  0  0  0  0  0  0  0  0
    2.3346   -0.8150    3.4759 C   0  0  0  0  0  0  0  0  0  0  0  0
    1.5230    0.6575    1.5719 H   0  0  0  0  0  0  0  0  0  0  0  0
    2.7766   -1.8071    1.6099 H   0  0  0  0  0  0  0  0  0  0  0  0
    1.4859   -0.3608    4.0002 H   0  0  0  0  0  0  0  0  0  0  0  0
    2.7315   -1.6099    4.1159 H   0  0  0  0  0  0  0  0  0  0  0  0
    3.1078   -0.0467    3.3672 H   0  0  0  0  0  0  0  0  0  0  0  0
    1.3051   -3.6287    2.6698 N   0  0  0  0  0  0  0  0  0  0  0  0
    0.4539   -4.7745    2.8906 C   0  0  0  0  0  0  0  0  0  0  0  0
    2.3067   -3.7535    2.7832 H   0  0  0  0  0  0  0  0  0  0  0  0
    0.1557   -4.8119    3.9488 H   0  0  0  0  0  0  0  0  0  0  0  0
   -0.4433   -4.6915    2.2597 H   0  0  0  0  0  0  0  0  0  0  0  0
    1.0010   -5.6929    2.6312 H   0  0  0  0  0  0  0  0  0  0  0  0
 22 24  2  0  0  0  0
 24 26  1  0  0  0  0
 25 26  1  0  0  0  0
 23 25  2  0  0  0  0
 21 22  1  0  0  0  0
 22 23  1  0  0  0  0
  1  3  1  0  0  0  0
  1  7  1  0  0  0  0
  1  2  2  0  0  0  0
 36 37  1  0  0  0  0
 37 45  1  0  0  0  0
 37 38  2  0  0  0  0
  8  9  1  0  0  0  0
  9 17  1  0  0  0  0
  9 10  2  0  0  0  0
 18 19  1  0  0  0  0
 19 35  1  0  0  0  0
 19 20  2  0  0  0  0
 36 39  1  0  0  0  0
  8 11  1  0  0  0  0
 45 46  1  0  0  0  0
 18 21  1  0  0  0  0
 35 36  1  0  0  0  0
  7  8  1  0  0  0  0
 17 18  1  0  0  0  0
 24 32  1  0  0  0  0
 25 33  1  0  0  0  0
  3  4  1  0  0  0  0
  3  5  1  0  0  0  0
  3  6  1  0  0  0  0
 39 42  1  0  0  0  0
 39 43  1  0  0  0  0
 39 44  1  0  0  0  0
 11 14  1  0  0  0  0
 11 15  1  0  0  0  0
 11 16  1  0  0  0  0
 46 48  1  0  0  0  0
 46 49  1  0  0  0  0
 46 50  1  0  0  0  0
 21 29  1  0  0  0  0
 21 30  1  0  0  0  0
 36 41  1  0  0  0  0
  8 13  1  0  0  0  0
 18 28  1  0  0  0  0
 26 34  1  0  0  0  0
 23 31  1  0  0  0  0
 45 47  1  0  0  0  0
  7 12  1  0  0  0  0
 35 40  1  0  0  0  0
 17 27  1  0  0  0  0
M  CHG  1  23   1
M  END
$$$$

  -OEChem-05262214473D

 50 50  0     1  0  0  0  0  0999 V2000
   -1.6938    0.4865    3.8080 C   0  0  0  0  0  0  0  0  0  0  0  0
   -0.7464   -0.1282    3.3323 O   0  0  0  0  0  0  0  0  0  0  0  0
   -2.1257    0.2041    5.2087 C   0  0  0  0  0  0  0  0  0  0  0  0
   -2.8853   -0.5922    5.2621 H   0  0  0  0  0  0  0  0  0  0  0  0
   -1.2944   -0.1435    5.8430 H   0  0  0  0  0  0  0  0  0  0  0  0
   -2.5637    1.0590    5.7483 H   0  0  0  0  0  0  0  0  0  0  0  0
   -2.4435    1.4589    3.1669 N   0  0  0  0  0  0  0  0  0  0  0  0
   -2.1966    1.8850    1.8145 C   0  0  2  0  0  0  0  0  0  0  0  0
   -0.8617    1.2996    1.3733 C   0  0  0  0  0  0  0  0  0  0  0  0
    0.0104    0.9468    2.1646 O   0  0  0  0  0  0  0  0  0  0  0  0
   -2.1879    3.4017    1.7050 C   0  0  0  0  0  0  0  0  0  0  0  0
   -3.2085    1.8948    3.6787 H   0  0  0  0  0  0  0  0  0  0  0  0
   -3.0007    1.4665    1.1994 H   0  0  0  0  0  0  0  0  0  0  0  0
   -1.3888    3.8390    2.3147 H   0  0  0  0  0  0  0  0  0  0  0  0
   -2.0284    3.7240    0.6708 H   0  0  0  0  0  0  0  0  0  0  0  0
   -3.1380    3.8230    2.0508 H   0  0  0  0  0  0  0  0  0  0  0  0
   -0.7390    1.2565   -0.0101 N   0  0  0  0  0  0  0  0  0  0  0  0
    0.4383    0.7557   -0.6738 C   0  0  2  0  0  0  0  0  0  0  0  0
    0.8340   -0.5396    0.0261 C   0  0  0  0  0  0  0  0  0  0  0  0
    0.9311   -1.6149   -0.5614 O   0  0  0  0  0  0  0  0  0  0  0  0
    1.5968    1.7588   -0.6330 C   0  0  0  0  0  0  0  0  0  0  0  0
    1.2931    3.0320   -1.3843 C   0  0  0  0  0  0  0  0  0  0  0  0
    1.2997    3.0836   -2.7573 N   0  3  0  0  0  0  0  0  0  0  0  0
    0.9799    4.2873   -0.9450 C   0  0  0  0  0  0  0  0  0  0  0  0
    1.0023    4.3239   -3.1582 C   0  0  0  0  0  0  0  0  0  0  0  0
    0.8058    5.0660   -2.0636 N   0  0  0  0  0  0  0  0  0  0  0  0
   -1.5221    1.5532   -0.5874 H   0  0  0  0  0  0  0  0  0  0  0  0
    0.1434    0.5306   -1.7054 H   0  0  0  0  0  0  0  0  0  0  0  0
    2.5106    1.3012   -1.0357 H   0  0  0  0  0  0  0  0  0  0  0  0
    1.8401    2.0218    0.4050 H   0  0  0  0  0  0  0  0  0  0  0  0
    1.5001    2.3032   -3.3767 H   0  0  0  0  0  0  0  0  0  0  0  0
    0.8527    4.7582    0.0094 H   0  0  0  0  0  0  0  0  0  0  0  0
    0.9343    4.6637   -4.1782 H   0  0  0  0  0  0  0  0  0  0  0  0
    0.5657    6.0533   -2.0623 H   0  0  0  0  0  0  0  0  0  0  0  0
    1.1129   -0.3393    1.3709 N   0  0  0  0  0  0  0  0  0  0  0  0
    1.5339   -1.3979    2.2603 C   0  0  2  0  0  0  0  0  0  0  0  0
    0.5646   -2.5613    2.0987 C   0  0  0  0  0  0  0  0  0  0  0  0
   -0.5773   -2.4276    1.6636 O   0  0  0  0  0  0  0  0  0  0  0  0
    1.5771   -0.9229    3.7043 C   0  0  0  0  0  0  0  0  0  0  0  0
    1.0162    0.5985    1.7491 H   0  0  0  0  0  0  0  0  0  0  0  0
    2.5332   -1.7063    1.9341 H   0  0  0  0  0  0  0  0  0  0  0  0
    0.5848   -0.6097    4.0489 H   0  0  0  0  0  0  0  0  0  0  0  0
    1.9236   -1.7176    4.3732 H   0  0  0  0  0  0  0  0  0  0  0  0
    2.2521   -0.0671    3.8131 H   0  0  0  0  0  0  0  0  0  0  0  0
    1.1097   -3.7597    2.5378 N   0  0  0  0  0  0  0  0  0  0  0  0
    0.3827   -5.0071    2.5003 C   0  0  0  0  0  0  0  0  0  0  0  0
    2.0708   -3.7810    2.8657 H   0  0  0  0  0  0  0  0  0  0  0  0
   -0.1297   -5.1626    3.4612 H   0  0  0  0  0  0  0  0  0  0  0  0
   -0.3603   -4.9741    1.6898 H   0  0  0  0  0  0  0  0  0  0  0  0
    1.0844   -5.8351    2.3209 H   0  0  0  0  0  0  0  0  0  0  0  0
 22 24  2  0  0  0  0
 24 26  1  0  0  0  0
 25 26  1  0  0  0  0
 23 25  2  0  0  0  0
 21 22  1  0  0  0  0
 22 23  1  0  0  0  0
  1  3  1  0  0  0  0
  1  7  1  0  0  0  0
  1  2  2  0  0  0  0
 36 37  1  0  0  0  0
 37 45  1  0  0  0  0
 37 38  2  0  0  0  0
  8  9  1  0  0  0  0
  9 17  1  0  0  0  0
  9 10  2  0  0  0  0
 18 19  1  0  0  0  0
 19 35  1  0  0  0  0
 19 20  2  0  0  0  0
 36 39  1  0  0  0  0
  8 11  1  0  0  0  0
 45 46  1  0  0  0  0
 18 21  1  0  0  0  0
 35 36  1  0  0  0  0
  7  8  1  0  0  0  0
 17 18  1  0  0  0  0
 24 32  1  0  0  0  0
 25 33  1  0  0  0  0
  3  4  1  0  0  0  0
  3  5  1  0  0  0  0
  3  6  1  0  0  0  0
 39 42  1  0  0  0  0
 39 43  1  0  0  0  0
 39 44  1  0  0  0  0
 11 14  1  0  0  0  0
 11 15  1  0  0  0  0
 11 16  1  0  0  0  0
 46 48  1  0  0  0  0
 46 49  1  0  0  0  0
 46 50  1  0  0  0  0
 21 29  1  0  0  0  0
 21 30  1  0  0  0  0
 36 41  1  0  0  0  0
  8 13  1  0  0  0  0
 18 28  1  0  0  0  0
 26 34  1  0  0  0  0
 23 31  1  0  0  0  0
 45 47  1  0  0  0  0
  7 12  1  0  0  0  0
 35 40  1  0  0  0  0
 17 27  1  0  0  0  0
M  CHG  1  23   1
M  END
$$$$

  -OEChem-05262214473D

 50 50  0     1  0  0  0  0  0999 V2000
   -1.6938    0.4865    3.8080 C   0  0  0  0  0  0  0  0  0  0  0  0
   -0.7464   -0.1282    3.3323 O   0  0  0  0  0  0  0  0  0  0  0  0
   -2.1257    0.2041    5.2087 C   0  0  0  0  0  0  0  0  0  0  0  0
   -2.8853   -0.5922    5.2621 H   0  0  0  0  0  0  0  0  0  0  0  0
   -1.2944   -0.1435    5.8430 H   0  0  0  0  0  0  0  0  0  0  0  0
   -2.5637    1.0590    5.7483 H   0  0  0  0  0  0  0  0  0  0  0  0
   -2.4435    1.4589    3.1669 N   0  0  0  0  0  0  0  0  0  0  0  0
   -2.1966    1.8850    1.8145 C   0  0  2  0  0  0  0  0  0  0  0  0
   -0.8617    1.2996    1.3733 C   0  0  0  0  0  0  0  0  0  0  0  0
    0.0104    0.9468    2.1646 O   0  0  0  0  0  0  0  0  0  0  0  0
   -2.1879    3.4017    1.7050 C   0  0  0  0  0  0  0  0  0  0  0  0
   -3.2085    1.8948    3.6787 H   0  0  0  0  0  0  0  0  0  0  0  0
   -3.0007    1.4665    1.1994 H   0  0  0  0  0  0  0  0  0  0  0  0
   -1.3888    3.8390    2.3147 H   0  0  0  0  0  0  0  0  0  0  0  0
   -2.0284    3.7240    0.6708 H   0  0  0  0  0  0  0  0  0  0  0  0
   -3.1380    3.8230    2.0508 H   0  0  0  0  0  0  0  0  0  0  0  0
   -0.7390    1.2565   -0.0101 N   0  0  0  0  0  0  0  0  0  0  0  0
    0.4383    0.7557   -0.6738 C   0  0  2  0  0  0  0  0  0  0  0  0
    0.8340   -0.5396    0.0261 C   0  0  0  0  0  0  0  0  0  0  0  0
    1.1906   -1.5466   -0.5818 O   0  0  0  0  0  0  0  0  0  0  0  0
    1.5968    1.7588   -0.6330 C   0  0  0  0  0  0  0  0  0  0  0  0
    1.2931    3.0320   -1.3843 C   0  0  0  0  0  0  0  0  0  0  0  0
    1.2997    3.0836   -2.7573 N   0  3  0  0  0  0  0  0  0  0  0  0
    0.9799    4.2873   -0.9450 C   0  0  0  0  0  0  0  0  0  0  0  0
    1.0023    4.3239   -3.1582 C   0  0  0  0  0  0  0  0  0  0  0  0
    0.8058    5.0660   -2.0636 N   0  0  0  0  0  0  0  0  0  0  0  0
   -1.5221    1.5532   -0.5874 H   0  0  0  0  0  0  0  0  0  0  0  0
    0.1434    0.5306   -1.7054 H   0  0  0  0  0  0  0  0  0  0  0  0
    2.5106    1.3012   -1.0357 H   0  0  0  0  0  0  0  0  0  0  0  0
    1.8401    2.0218    0.4050 H   0  0  0  0  0  0  0  0  0  0  0  0
    1.5001    2.3032   -3.3767 H   0  0  0  0  0  0  0  0  0  0  0  0
    0.8527    4.7582    0.0094 H   0  0  0  0  0  0  0  0  0  0  0  0
    0.9343    4.6637   -4.1782 H   0  0  0  0  0  0  0  0  0  0  0  0
    0.5657    6.0533   -2.0623 H   0  0  0  0  0  0  0  0  0  0  0  0
    0.7884   -0.4184    1.4080 N   0  0  0  0  0  0  0  0  0  0  0  0
    1.1379   -1.4916    2.3107 C   0  0  2  0  0  0  0  0  0  0  0  0
    0.3812   -2.7389    1.8737 C   0  0  0  0  0  0  0  0  0  0  0  0
   -0.6474   -2.6985    1.2018 O   0  0  0  0  0  0  0  0  0  0  0  0
    0.8080   -1.1325    3.7512 C   0  0  0  0  0  0  0  0  0  0  0  0
    0.4947    0.4693    1.8049 H   0  0  0  0  0  0  0  0  0  0  0  0
    2.2147   -1.6596    2.2005 H   0  0  0  0  0  0  0  0  0  0  0  0
   -0.2667   -0.9605    3.8812 H   0  0  0  0  0  0  0  0  0  0  0  0
    1.0995   -1.9350    4.4369 H   0  0  0  0  0  0  0  0  0  0  0  0
    1.3299   -0.2185    4.0544 H   0  0  0  0  0  0  0  0  0  0  0  0
    0.9656   -3.9006    2.3585 N   0  0  0  0  0  0  0  0  0  0  0  0
    0.4274   -5.2141    2.0920 C   0  0  0  0  0  0  0  0  0  0  0  0
    1.8281   -3.8411    2.8917 H   0  0  0  0  0  0  0  0  0  0  0  0
   -0.2565   -5.5024    2.9039 H   0  0  0  0  0  0  0  0  0  0  0  0
   -0.1213   -5.1988    1.1387 H   0  0  0  0  0  0  0  0  0  0  0  0
    1.2501   -5.9416    2.0299 H   0  0  0  0  0  0  0  0  0  0  0  0
 22 24  2  0  0  0  0
 24 26  1  0  0  0  0
 25 26  1  0  0  0  0
 23 25  2  0  0  0  0
 21 22  1  0  0  0  0
 22 23  1  0  0  0  0
  1  3  1  0  0  0  0
  1  7  1  0  0  0  0
  1  2  2  0  0  0  0
 36 37  1  0  0  0  0
 37 45  1  0  0  0  0
 37 38  2  0  0  0  0
  8  9  1  0  0  0  0
  9 17  1  0  0  0  0
  9 10  2  0  0  0  0
 18 19  1  0  0  0  0
 19 35  1  0  0  0  0
 19 20  2  0  0  0  0
 36 39  1  0  0  0  0
  8 11  1  0  0  0  0
 45 46  1  0  0  0  0
 18 21  1  0  0  0  0
 35 36  1  0  0  0  0
  7  8  1  0  0  0  0
 17 18  1  0  0  0  0
 24 32  1  0  0  0  0
 25 33  1  0  0  0  0
  3  4  1  0  0  0  0
  3  5  1  0  0  0  0
  3  6  1  0  0  0  0
 39 42  1  0  0  0  0
 39 43  1  0  0  0  0
 39 44  1  0  0  0  0
 11 14  1  0  0  0  0
 11 15  1  0  0  0  0
 11 16  1  0  0  0  0
 46 48  1  0  0  0  0
 46 49  1  0  0  0  0
 46 50  1  0  0  0  0
 21 29  1  0  0  0  0
 21 30  1  0  0  0  0
 36 41  1  0  0  0  0
  8 13  1  0  0  0  0
 18 28  1  0  0  0  0
 26 34  1  0  0  0  0
 23 31  1  0  0  0  0
 45 47  1  0  0  0  0
  7 12  1  0  0  0  0
 35 40  1  0  0  0  0
 17 27  1  0  0  0  0
M  CHG  1  23   1
M  END
$$$$

  -OEChem-05262214473D

 50 50  0     1  0  0  0  0  0999 V2000
   -1.6938    0.4865    3.8080 C   0  0  0  0  0  0  0  0  0  0  0  0
   -0.7464   -0.1282    3.3323 O   0  0  0  0  0  0  0  0  0  0  0  0
   -2.1257    0.2041    5.2087 C   0  0  0  0  0  0  0  0  0  0  0  0
   -2.8853   -0.5922    5.2621 H   0  0  0  0  0  0  0  0  0  0  0  0
   -1.2944   -0.1435    5.8430 H   0  0  0  0  0  0  0  0  0  0  0  0
   -2.5637    1.0590    5.7483 H   0  0  0  0  0  0  0  0  0  0  0  0
   -2.4435    1.4589    3.1669 N   0  0  0  0  0  0  0  0  0  0  0  0
   -2.1966    1.8850    1.8145 C   0  0  2  0  0  0  0  0  0  0  0  0
   -0.8617    1.2996    1.3733 C   0  0  0  0  0  0  0  0  0  0  0  0
    0.0104    0.9468    2.1646 O   0  0  0  0  0  0  0  0  0  0  0  0
   -2.1879    3.4017    1.7050 C   0  0  0  0  0  0  0  0  0  0  0  0
   -3.2085    1.8948    3.6787 H   0  0  0  0  0  0  0  0  0  0  0  0
   -3.0007    1.4665    1.1994 H   0  0  0  0  0  0  0  0  0  0  0  0
   -1.3888    3.8390    2.3147 H   0  0  0  0  0  0  0  0  0  0  0  0
   -2.0284    3.7240    0.6708 H   0  0  0  0  0  0  0  0  0  0  0  0
   -3.1380    3.8230    2.0508 H   0  0  0  0  0  0  0  0  0  0  0  0
   -0.7390    1.2565   -0.0101 N   0  0  0  0  0  0  0  0  0  0  0  0
    0.4383    0.7557   -0.6738 C   0  0  2  0  0  0  0  0  0  0  0  0
    0.8340   -0.5396    0.0261 C   0  0  0  0  0  0  0  0  0  0  0  0
    1.4377   -1.4485   -0.5398 O   0  0  0  0  0  0  0  0  0  0  0  0
    1.5968    1.7588   -0.6330 C   0  0  0  0  0  0  0  0  0  0  0  0
    1.2931    3.0320   -1.3843 C   0  0  0  0  0  0  0  0  0  0  0  0
    1.2997    3.0836   -2.7573 N   0  3  0  0  0  0  0  0  0  0  0  0
    0.9799    4.2873   -0.9450 C   0  0  0  0  0  0  0  0  0  0  0  0
    1.0023    4.3239   -3.1582 C   0  0  0  0  0  0  0  0  0  0  0  0
    0.8058    5.0660   -2.0636 N   0  0  0  0  0  0  0  0  0  0  0  0
   -1.5221    1.5532   -0.5874 H   0  0  0  0  0  0  0  0  0  0  0  0
    0.1434    0.5306   -1.7054 H   0  0  0  0  0  0  0  0  0  0  0  0
    2.5106    1.3012   -1.0357 H   0  0  0  0  0  0  0  0  0  0  0  0
    1.8401    2.0218    0.4050 H   0  0  0  0  0  0  0  0  0  0  0  0
    1.5001    2.3032   -3.3767 H   0  0  0  0  0  0  0  0  0  0  0  0
    0.8527    4.7582    0.0094 H   0  0  0  0  0  0  0  0  0  0  0  0
    0.9343    4.6637   -4.1782 H   0  0  0  0  0  0  0  0  0  0  0  0
    0.5657    6.0533   -2.0623 H   0  0  0  0  0  0  0  0  0  0  0  0
    0.4763   -0.5358    1.3672 N   0  0  0  0  0  0  0  0  0  0  0  0
    0.7554   -1.6326    2.2661 C   0  0  2  0  0  0  0  0  0  0  0  0
    0.2746   -2.9171    1.6041 C   0  0  0  0  0  0  0  0  0  0  0  0
   -0.5814   -2.9375    0.7220 O   0  0  0  0  0  0  0  0  0  0  0  0
    0.0797   -1.4295    3.6133 C   0  0  0  0  0  0  0  0  0  0  0  0
   -0.0059    0.2789    1.7354 H   0  0  0  0  0  0  0  0  0  0  0  0
    1.8430   -1.6703    2.3909 H   0  0  0  0  0  0  0  0  0  0  0  0
   -1.0107   -1.3892    3.5083 H   0  0  0  0  0  0  0  0  0  0  0  0
    0.3153   -2.2471    4.3025 H   0  0  0  0  0  0  0  0  0  0  0  0
    0.4041   -0.4904    4.0744 H   0  0  0  0  0  0  0  0  0  0  0  0
    0.8826   -4.0418    2.1442 N   0  0  0  0  0  0  0  0  0  0  0  0
    0.5849   -5.3813    1.6935 C   0  0  0  0  0  0  0  0  0  0  0  0
    1.5951   -3.9297    2.8595 H   0  0  0  0  0  0  0  0  0  0  0  0
   -0.2160   -5.8083    2.3149 H   0  0  0  0  0  0  0  0  0  0  0  0
    0.2575   -5.3505    0.6438 H   0  0  0  0  0  0  0  0  0  0  0  0
    1.4868   -6.0054    1.7782 H   0  0  0  0  0  0  0  0  0  0  0  0
 22 24  2  0  0  0  0
 24 26  1  0  0  0  0
 25 26  1  0  0  0  0
 23 25  2  0  0  0  0
 21 22  1  0  0  0  0
 22 23  1  0  0  0  0
  1  3  1  0  0  0  0
  1  7  1  0  0  0  0
  1  2  2  0  0  0  0
 36 37  1  0  0  0  0
 37 45  1  0  0  0  0
 37 38  2  0  0  0  0
  8  9  1  0  0  0  0
  9 17  1  0  0  0  0
  9 10  2  0  0  0  0
 18 19  1  0  0  0  0
 19 35  1  0  0  0  0
 19 20  2  0  0  0  0
 36 39  1  0  0  0  0
  8 11  1  0  0  0  0
 45 46  1  0  0  0  0
 18 21  1  0  0  0  0
 35 36  1  0  0  0  0
  7  8  1  0  0  0  0
 17 18  1  0  0  0  0
 24 32  1  0  0  0  0
 25 33  1  0  0  0  0
  3  4  1  0  0  0  0
  3  5  1  0  0  0  0
  3  6  1  0  0  0  0
 39 42  1  0  0  0  0
 39 43  1  0  0  0  0
 39 44  1  0  0  0  0
 11 14  1  0  0  0  0
 11 15  1  0  0  0  0
 11 16  1  0  0  0  0
 46 48  1  0  0  0  0
 46 49  1  0  0  0  0
 46 50  1  0  0  0  0
 21 29  1  0  0  0  0
 21 30  1  0  0  0  0
 36 41  1  0  0  0  0
  8 13  1  0  0  0  0
 18 28  1  0  0  0  0
 26 34  1  0  0  0  0
 23 31  1  0  0  0  0
 45 47  1  0  0  0  0
  7 12  1  0  0  0  0
 35 40  1  0  0  0  0
 17 27  1  0  0  0  0
M  CHG  1  23   1
M  END
$$$$

  -OEChem-05262214473D

 50 50  0     1  0  0  0  0  0999 V2000
   -1.6938    0.4865    3.8080 C   0  0  0  0  0  0  0  0  0  0  0  0
   -0.7464   -0.1282    3.3323 O   0  0  0  0  0  0  0  0  0  0  0  0
   -2.1257    0.2041    5.2087 C   0  0  0  0  0  0  0  0  0  0  0  0
   -2.8853   -0.5922    5.2621 H   0  0  0  0  0  0  0  0  0  0  0  0
   -1.2944   -0.1435    5.8430 H   0  0  0  0  0  0  0  0  0  0  0  0
   -2.5637    1.0590    5.7483 H   0  0  0  0  0  0  0  0  0  0  0  0
   -2.4435    1.4589    3.1669 N   0  0  0  0  0  0  0  0  0  0  0  0
   -2.1966    1.8850    1.8145 C   0  0  2  0  0  0  0  0  0  0  0  0
   -0.8617    1.2996    1.3733 C   0  0  0  0  0  0  0  0  0  0  0  0
    0.0104    0.9468    2.1646 O   0  0  0  0  0  0  0  0  0  0  0  0
   -2.1879    3.4017    1.7050 C   0  0  0  0  0  0  0  0  0  0  0  0
   -3.2085    1.8948    3.6787 H   0  0  0  0  0  0  0  0  0  0  0  0
   -3.0007    1.4665    1.1994 H   0  0  0  0  0  0  0  0  0  0  0  0
   -1.3888    3.8390    2.3147 H   0  0  0  0  0  0  0  0  0  0  0  0
   -2.0284    3.7240    0.6708 H   0  0  0  0  0  0  0  0  0  0  0  0
   -3.1380    3.8230    2.0508 H   0  0  0  0  0  0  0  0  0  0  0  0
   -0.7390    1.2565   -0.0101 N   0  0  0  0  0  0  0  0  0  0  0  0
    0.4383    0.7557   -0.6738 C   0  0  2  0  0  0  0  0  0  0  0  0
    0.8340   -0.5396    0.0261 C   0  0  0  0  0  0  0  0  0  0  0  0
    1.6555   -1.3271   -0.4384 O   0  0  0  0  0  0  0  0  0  0  0  0
    1.5968    1.7588   -0.6330 C   0  0  0  0  0  0  0  0  0  0  0  0
    1.2931    3.0320   -1.3843 C   0  0  0  0  0  0  0  0  0  0  0  0
    1.2997    3.0836   -2.7573 N   0  3  0  0  0  0  0  0  0  0  0  0
    0.9799    4.2873   -0.9450 C   0  0  0  0  0  0  0  0  0  0  0  0
    1.0023    4.3239   -3.1582 C   0  0  0  0  0  0  0  0  0  0  0  0
    0.8058    5.0660   -2.0636 N   0  0  0  0  0  0  0  0  0  0  0  0
   -1.5221    1.5532   -0.5874 H   0  0  0  0  0  0  0  0  0  0  0  0
    0.1434    0.5306   -1.7054 H   0  0  0  0  0  0  0  0  0  0  0  0
    2.5106    1.3012   -1.0357 H   0  0  0  0  0  0  0  0  0  0  0  0
    1.8401    2.0218    0.4050 H   0  0  0  0  0  0  0  0  0  0  0  0
    1.5001    2.3032   -3.3767 H   0  0  0  0  0  0  0  0  0  0  0  0
    0.8527    4.7582    0.0094 H   0  0  0  0  0  0  0  0  0  0  0  0
    0.9343    4.6637   -4.1782 H   0  0  0  0  0  0  0  0  0  0  0  0
    0.5657    6.0533   -2.0623 H   0  0  0  0  0  0  0  0  0  0  0  0
    0.1977   -0.6835    1.2512 N   0  0  0  0  0  0  0  0  0  0  0  0
    0.4124   -1.8112    2.1293 C   0  0  2  0  0  0  0  0  0  0  0  0
    0.2522   -3.0838    1.3083 C   0  0  0  0  0  0  0  0  0  0  0  0
   -0.3837   -3.1283    0.2572 O   0  0  0  0  0  0  0  0  0  0  0  0
   -0.5582   -1.7937    3.2999 C   0  0  0  0  0  0  0  0  0  0  0  0
   -0.4515    0.0401    1.5455 H   0  0  0  0  0  0  0  0  0  0  0  0
    1.4434   -1.7375    2.4924 H   0  0  0  0  0  0  0  0  0  0  0  0
   -1.5963   -1.8666    2.9557 H   0  0  0  0  0  0  0  0  0  0  0  0
   -0.3755   -2.6327    3.9794 H   0  0  0  0  0  0  0  0  0  0  0  0
   -0.4622   -0.8645    3.8719 H   0  0  0  0  0  0  0  0  0  0  0  0
    0.8663   -4.1736    1.9094 N   0  0  0  0  0  0  0  0  0  0  0  0
    0.8446   -5.4973    1.3320 C   0  0  0  0  0  0  0  0  0  0  0  0
    1.3876   -4.0408    2.7711 H   0  0  0  0  0  0  0  0  0  0  0  0
   -0.0111   -6.0594    1.7343 H   0  0  0  0  0  0  0  0  0  0  0  0
    0.7503   -5.4188    0.2389 H   0  0  0  0  0  0  0  0  0  0  0  0
    1.7784   -6.0219    1.5828 H   0  0  0  0  0  0  0  0  0  0  0  0
 22 24  2  0  0  0  0
 24 26  1  0  0  0  0
 25 26  1  0  0  0  0
 23 25  2  0  0  0  0
 21 22  1  0  0  0  0
 22 23  1  0  0  0  0
  1  3  1  0  0  0  0
  1  7  1  0  0  0  0
  1  2  2  0  0  0  0
 36 37  1  0  0  0  0
 37 45  1  0  0  0  0
 37 38  2  0  0  0  0
  8  9  1  0  0  0  0
  9 17  1  0  0  0  0
  9 10  2  0  0  0  0
 18 19  1  0  0  0  0
 19 35  1  0  0  0  0
 19 20  2  0  0  0  0
 36 39  1  0  0  0  0
  8 11  1  0  0  0  0
 45 46  1  0  0  0  0
 18 21  1  0  0  0  0
 35 36  1  0  0  0  0
  7  8  1  0  0  0  0
 17 18  1  0  0  0  0
 24 32  1  0  0  0  0
 25 33  1  0  0  0  0
  3  4  1  0  0  0  0
  3  5  1  0  0  0  0
  3  6  1  0  0  0  0
 39 42  1  0  0  0  0
 39 43  1  0  0  0  0
 39 44  1  0  0  0  0
 11 14  1  0  0  0  0
 11 15  1  0  0  0  0
 11 16  1  0  0  0  0
 46 48  1  0  0  0  0
 46 49  1  0  0  0  0
 46 50  1  0  0  0  0
 21 29  1  0  0  0  0
 21 30  1  0  0  0  0
 36 41  1  0  0  0  0
  8 13  1  0  0  0  0
 18 28  1  0  0  0  0
 26 34  1  0  0  0  0
 23 31  1  0  0  0  0
 45 47  1  0  0  0  0
  7 12  1  0  0  0  0
 35 40  1  0  0  0  0
 17 27  1  0  0  0  0
M  CHG  1  23   1
M  END
$$$$

  -OEChem-05262214473D

 50 50  0     1  0  0  0  0  0999 V2000
   -1.6938    0.4865    3.8080 C   0  0  0  0  0  0  0  0  0  0  0  0
   -0.7464   -0.1282    3.3323 O   0  0  0  0  0  0  0  0  0  0  0  0
   -2.1257    0.2041    5.2087 C   0  0  0  0  0  0  0  0  0  0  0  0
   -2.8853   -0.5922    5.2621 H   0  0  0  0  0  0  0  0  0  0  0  0
   -1.2944   -0.1435    5.8430 H   0  0  0  0  0  0  0  0  0  0  0  0
   -2.5637    1.0590    5.7483 H   0  0  0  0  0  0  0  0  0  0  0  0
   -2.4435    1.4589    3.1669 N   0  0  0  0  0  0  0  0  0  0  0  0
   -2.1966    1.8850    1.8145 C   0  0  2  0  0  0  0  0  0  0  0  0
   -0.8617    1.2996    1.3733 C   0  0  0  0  0  0  0  0  0  0  0  0
    0.0104    0.9468    2.1646 O   0  0  0  0  0  0  0  0  0  0  0  0
   -2.1879    3.4017    1.7050 C   0  0  0  0  0  0  0  0  0  0  0  0
   -3.2085    1.8948    3.6787 H   0  0  0  0  0  0  0  0  0  0  0  0
   -3.0007    1.4665    1.1994 H   0  0  0  0  0  0  0  0  0  0  0  0
   -1.3888    3.8390    2.3147 H   0  0  0  0  0  0  0  0  0  0  0  0
   -2.0284    3.7240    0.6708 H   0  0  0  0  0  0  0  0  0  0  0  0
   -3.1380    3.8230    2.0508 H   0  0  0  0  0  0  0  0  0  0  0  0
   -0.7390    1.2565   -0.0101 N   0  0  0  0  0  0  0  0  0  0  0  0
    0.4383    0.7557   -0.6738 C   0  0  2  0  0  0  0  0  0  0  0  0
    0.8340   -0.5396    0.0261 C   0  0  0  0  0  0  0  0  0  0  0  0
    1.8291   -1.1909   -0.2843 O   0  0  0  0  0  0  0  0  0  0  0  0
    1.5968    1.7588   -0.6330 C   0  0  0  0  0  0  0  0  0  0  0  0
    1.2931    3.0320   -1.3843 C   0  0  0  0  0  0  0  0  0  0  0  0
    1.2997    3.0836   -2.7573 N   0  3  0  0  0  0  0  0  0  0  0  0
    0.9799    4.2873   -0.9450 C   0  0  0  0  0  0  0  0  0  0  0  0
    1.0023    4.3239   -3.1582 C   0  0  0  0  0  0  0  0  0  0  0  0
    0.8058    5.0660   -2.0636 N   0  0  0  0  0  0  0  0  0  0  0  0
   -1.5221    1.5532   -0.5874 H   0  0  0  0  0  0  0  0  0  0  0  0
    0.1434    0.5306   -1.7054 H   0  0  0  0  0  0  0  0  0  0  0  0
    2.5106    1.3012   -1.0357 H   0  0  0  0  0  0  0  0  0  0  0  0
    1.8401    2.0218    0.4050 H   0  0  0  0  0  0  0  0  0  0  0  0
    1.5001    2.3032   -3.3767 H   0  0  0  0  0  0  0  0  0  0  0  0
    0.8527    4.7582    0.0094 H   0  0  0  0  0  0  0  0  0  0  0  0
    0.9343    4.6637   -4.1782 H   0  0  0  0  0  0  0  0  0  0  0  0
    0.5657    6.0533   -2.0623 H   0  0  0  0  0  0  0  0  0  0  0  0
   -0.0283   -0.8516    1.0680 N   0  0  0  0  0  0  0  0  0  0  0  0
    0.1325   -2.0153    1.9099 C   0  0  2  0  0  0  0  0  0  0  0  0
    0.3153   -3.2276    1.0064 C   0  0  0  0  0  0  0  0  0  0  0  0
   -0.0678   -3.2579   -0.1612 O   0  0  0  0  0  0  0  0  0  0  0  0
   -1.0622   -2.2002    2.8325 C   0  0  0  0  0  0  0  0  0  0  0  0
   -0.8119   -0.2307    1.2479 H   0  0  0  0  0  0  0  0  0  0  0  0
    1.0430   -1.8568    2.4980 H   0  0  0  0  0  0  0  0  0  0  0  0
   -1.9838   -2.3603    2.2612 H   0  0  0  0  0  0  0  0  0  0  0  0
   -0.9260   -3.0656    3.4894 H   0  0  0  0  0  0  0  0  0  0  0  0
   -1.2101   -1.3151    3.4607 H   0  0  0  0  0  0  0  0  0  0  0  0
    0.9179   -4.2871    1.6702 N   0  0  0  0  0  0  0  0  0  0  0  0
    1.1887   -5.5542    1.0322 C   0  0  0  0  0  0  0  0  0  0  0  0
    1.2198   -4.1669    2.6326 H   0  0  0  0  0  0  0  0  0  0  0  0
    0.3444   -6.2386    1.2017 H   0  0  0  0  0  0  0  0  0  0  0  0
    1.3234   -5.3990   -0.0485 H   0  0  0  0  0  0  0  0  0  0  0  0
    2.1049   -5.9901    1.4571 H   0  0  0  0  0  0  0  0  0  0  0  0
 22 24  2  0  0  0  0
 24 26  1  0  0  0  0
 25 26  1  0  0  0  0
 23 25  2  0  0  0  0
 21 22  1  0  0  0  0
 22 23  1  0  0  0  0
  1  3  1  0  0  0  0
  1  7  1  0  0  0  0
  1  2  2  0  0  0  0
 36 37  1  0  0  0  0
 37 45  1  0  0  0  0
 37 38  2  0  0  0  0
  8  9  1  0  0  0  0
  9 17  1  0  0  0  0
  9 10  2  0  0  0  0
 18 19  1  0  0  0  0
 19 35  1  0  0  0  0
 19 20  2  0  0  0  0
 36 39  1  0  0  0  0
  8 11  1  0  0  0  0
 45 46  1  0  0  0  0
 18 21  1  0  0  0  0
 35 36  1  0  0  0  0
  7  8  1  0  0  0  0
 17 18  1  0  0  0  0
 24 32  1  0  0  0  0
 25 33  1  0  0  0  0
  3  4  1  0  0  0  0
  3  5  1  0  0  0  0
  3  6  1  0  0  0  0
 39 42  1  0  0  0  0
 39 43  1  0  0  0  0
 39 44  1  0  0  0  0
 11 14  1  0  0  0  0
 11 15  1  0  0  0  0
 11 16  1  0  0  0  0
 46 48  1  0  0  0  0
 46 49  1  0  0  0  0
 46 50  1  0  0  0  0
 21 29  1  0  0  0  0
 21 30  1  0  0  0  0
 36 41  1  0  0  0  0
  8 13  1  0  0  0  0
 18 28  1  0  0  0  0
 26 34  1  0  0  0  0
 23 31  1  0  0  0  0
 45 47  1  0  0  0  0
  7 12  1  0  0  0  0
 35 40  1  0  0  0  0
 17 27  1  0  0  0  0
M  CHG  1  23   1
M  END
$$$$

  -OEChem-05262214473D

 50 50  0     1  0  0  0  0  0999 V2000
   -1.6938    0.4865    3.8080 C   0  0  0  0  0  0  0  0  0  0  0  0
   -0.7464   -0.1282    3.3323 O   0  0  0  0  0  0  0  0  0  0  0  0
   -2.1257    0.2041    5.2087 C   0  0  0  0  0  0  0  0  0  0  0  0
   -2.8853   -0.5922    5.2621 H   0  0  0  0  0  0  0  0  0  0  0  0
   -1.2944   -0.1435    5.8430 H   0  0  0  0  0  0  0  0  0  0  0  0
   -2.5637    1.0590    5.7483 H   0  0  0  0  0  0  0  0  0  0  0  0
   -2.4435    1.4589    3.1669 N   0  0  0  0  0  0  0  0  0  0  0  0
   -2.1966    1.8850    1.8145 C   0  0  2  0  0  0  0  0  0  0  0  0
   -0.8617    1.2996    1.3733 C   0  0  0  0  0  0  0  0  0  0  0  0
    0.0104    0.9468    2.1646 O   0  0  0  0  0  0  0  0  0  0  0  0
   -2.1879    3.4017    1.7050 C   0  0  0  0  0  0  0  0  0  0  0  0
   -3.2085    1.8948    3.6787 H   0  0  0  0  0  0  0  0  0  0  0  0
   -3.0007    1.4665    1.1994 H   0  0  0  0  0  0  0  0  0  0  0  0
   -1.3888    3.8390    2.3147 H   0  0  0  0  0  0  0  0  0  0  0  0
   -2.0284    3.7240    0.6708 H   0  0  0  0  0  0  0  0  0  0  0  0
   -3.1380    3.8230    2.0508 H   0  0  0  0  0  0  0  0  0  0  0  0
   -0.7390    1.2565   -0.0101 N   0  0  0  0  0  0  0  0  0  0  0  0
    0.4383    0.7557   -0.6738 C   0  0  2  0  0  0  0  0  0  0  0  0
    0.8340   -0.5396    0.0261 C   0  0  0  0  0  0  0  0  0  0  0  0
    1.9468   -1.0489   -0.0882 O   0  0  0  0  0  0  0  0  0  0  0  0
    1.5968    1.7588   -0.6330 C   0  0  0  0  0  0  0  0  0  0  0  0
    1.2931    3.0320   -1.3843 C   0  0  0  0  0  0  0  0  0  0  0  0
    1.2997    3.0836   -2.7573 N   0  3  0  0  0  0  0  0  0  0  0  0
    0.9799    4.2873   -0.9450 C   0  0  0  0  0  0  0  0  0  0  0  0
    1.0023    4.3239   -3.1582 C   0  0  0  0  0  0  0  0  0  0  0  0
    0.8058    5.0660   -2.0636 N   0  0  0  0  0  0  0  0  0  0  0  0
   -1.5221    1.5532   -0.5874 H   0  0  0  0  0  0  0  0  0  0  0  0
    0.1434    0.5306   -1.7054 H   0  0  0  0  0  0  0  0  0  0  0  0
    2.5106    1.3012   -1.0357 H   0  0  0  0  0  0  0  0  0  0  0  0
    1.8401    2.0218    0.4050 H   0  0  0  0  0  0  0  0  0  0  0  0
    1.5001    2.3032   -3.3767 H   0  0  0  0  0  0  0  0  0  0  0  0
    0.8527    4.7582    0.0094 H   0  0  0  0  0  0  0  0  0  0  0  0
    0.9343    4.6637   -4.1782 H   0  0  0  0  0  0  0  0  0  0  0  0
    0.5657    6.0533   -2.0623 H   0  0  0  0  0  0  0  0  0  0  0  0
   -0.1864   -1.0284    0.8301 N   0  0  0  0  0  0  0  0  0  0  0  0
   -0.0654   -2.2309    1.6226 C   0  0  2  0  0  0  0  0  0  0  0  0
    0.4598   -3.3388    0.7190 C   0  0  0  0  0  0  0  0  0  0  0  0
    0.3447   -3.3175   -0.5046 O   0  0  0  0  0  0  0  0  0  0  0  0
   -1.3979   -2.6213    2.2429 C   0  0  0  0  0  0  0  0  0  0  0  0
   -1.0623   -0.5151    0.8631 H   0  0  0  0  0  0  0  0  0  0  0  0
    0.6692   -2.0199    2.4074 H   0  0  0  0  0  0  0  0  0  0  0  0
   -2.1467   -2.8365    1.4719 H   0  0  0  0  0  0  0  0  0  0  0  0
   -1.2985   -3.5162    2.8660 H   0  0  0  0  0  0  0  0  0  0  0  0
   -1.7885   -1.8116    2.8687 H   0  0  0  0  0  0  0  0  0  0  0  0
    1.0337   -4.3745    1.4429 N   0  0  0  0  0  0  0  0  0  0  0  0
    1.5938   -5.5481    0.8144 C   0  0  0  0  0  0  0  0  0  0  0  0
    1.1032   -4.2993    2.4535 H   0  0  0  0  0  0  0  0  0  0  0  0
    0.8262   -6.3336    0.7534 H   0  0  0  0  0  0  0  0  0  0  0  0
    1.9379   -5.2925   -0.1986 H   0  0  0  0  0  0  0  0  0  0  0  0
    2.4442   -5.9121    1.4096 H   0  0  0  0  0  0  0  0  0  0  0  0
 22 24  2  0  0  0  0
 24 26  1  0  0  0  0
 25 26  1  0  0  0  0
 23 25  2  0  0  0  0
 21 22  1  0  0  0  0
 22 23  1  0  0  0  0
  1  3  1  0  0  0  0
  1  7  1  0  0  0  0
  1  2  2  0  0  0  0
 36 37  1  0  0  0  0
 37 45  1  0  0  0  0
 37 38  2  0  0  0  0
  8  9  1  0  0  0  0
  9 17  1  0  0  0  0
  9 10  2  0  0  0  0
 18 19  1  0  0  0  0
 19 35  1  0  0  0  0
 19 20  2  0  0  0  0
 36 39  1  0  0  0  0
  8 11  1  0  0  0  0
 45 46  1  0  0  0  0
 18 21  1  0  0  0  0
 35 36  1  0  0  0  0
  7  8  1  0  0  0  0
 17 18  1  0  0  0  0
 24 32  1  0  0  0  0
 25 33  1  0  0  0  0
  3  4  1  0  0  0  0
  3  5  1  0  0  0  0
  3  6  1  0  0  0  0
 39 42  1  0  0  0  0
 39 43  1  0  0  0  0
 39 44  1  0  0  0  0
 11 14  1  0  0  0  0
 11 15  1  0  0  0  0
 11 16  1  0  0  0  0
 46 48  1  0  0  0  0
 46 49  1  0  0  0  0
 46 50  1  0  0  0  0
 21 29  1  0  0  0  0
 21 30  1  0  0  0  0
 36 41  1  0  0  0  0
  8 13  1  0  0  0  0
 18 28  1  0  0  0  0
 26 34  1  0  0  0  0
 23 31  1  0  0  0  0
 45 47  1  0  0  0  0
  7 12  1  0  0  0  0
 35 40  1  0  0  0  0
 17 27  1  0  0  0  0
M  CHG  1  23   1
M  END
$$$$

  -OEChem-05262214473D

 50 50  0     1  0  0  0  0  0999 V2000
   -1.6938    0.4865    3.8080 C   0  0  0  0  0  0  0  0  0  0  0  0
   -0.7464   -0.1282    3.3323 O   0  0  0  0  0  0  0  0  0  0  0  0
   -2.1257    0.2041    5.2087 C   0  0  0  0  0  0  0  0  0  0  0  0
   -2.8853   -0.5922    5.2621 H   0  0  0  0  0  0  0  0  0  0  0  0
   -1.2944   -0.1435    5.8430 H   0  0  0  0  0  0  0  0  0  0  0  0
   -2.5637    1.0590    5.7483 H   0  0  0  0  0  0  0  0  0  0  0  0
   -2.4435    1.4589    3.1669 N   0  0  0  0  0  0  0  0  0  0  0  0
   -2.1966    1.8850    1.8145 C   0  0  2  0  0  0  0  0  0  0  0  0
   -0.8617    1.2996    1.3733 C   0  0  0  0  0  0  0  0  0  0  0  0
    0.0104    0.9468    2.1646 O   0  0  0  0  0  0  0  0  0  0  0  0
   -2.1879    3.4017    1.7050 C   0  0  0  0  0  0  0  0  0  0  0  0
   -3.2085    1.8948    3.6787 H   0  0  0  0  0  0  0  0  0  0  0  0
   -3.0007    1.4665    1.1994 H   0  0  0  0  0  0  0  0  0  0  0  0
   -1.3888    3.8390    2.3147 H   0  0  0  0  0  0  0  0  0  0  0  0
   -2.0284    3.7240    0.6708 H   0  0  0  0  0  0  0  0  0  0  0  0
   -3.1380    3.8230    2.0508 H   0  0  0  0  0  0  0  0  0  0  0  0
   -0.7390    1.2565   -0.0101 N   0  0  0  0  0  0  0  0  0  0  0  0
    0.4383    0.7557   -0.6738 C   0  0  2  0  0  0  0  0  0  0  0  0
    0.8340   -0.5396    0.0261 C   0  0  0  0  0  0  0  0  0  0  0  0
    2.0004   -0.9111    0.1367 O   0  0  0  0  0  0  0  0  0  0  0  0
    1.5968    1.7588   -0.6330 C   0  0  0  0  0  0  0  0  0  0  0  0
    1.2931    3.0320   -1.3843 C   0  0  0  0  0  0  0  0  0  0  0  0
    1.2997    3.0836   -2.7573 N   0  3  0  0  0  0  0  0  0  0  0  0
    0.9799    4.2873   -0.9450 C   0  0  0  0  0  0  0  0  0  0  0  0
    1.0023    4.3239   -3.1582 C   0  0  0  0  0  0  0  0  0  0  0  0
    0.8058    5.0660   -2.0636 N   0  0  0  0  0  0  0  0  0  0  0  0
   -1.5221    1.5532   -0.5874 H   0  0  0  0  0  0  0  0  0  0  0  0
    0.1434    0.5306   -1.7054 H   0  0  0  0  0  0  0  0  0  0  0  0
    2.5106    1.3012   -1.0357 H   0  0  0  0  0  0  0  0  0  0  0  0
    1.8401    2.0218    0.4050 H   0  0  0  0  0  0  0  0  0  0  0  0
    1.5001    2.3032   -3.3767 H   0  0  0  0  0  0  0  0  0  0  0  0
    0.8527    4.7582    0.0094 H   0  0  0  0  0  0  0  0  0  0  0  0
    0.9343    4.6637   -4.1782 H   0  0  0  0  0  0  0  0  0  0  0  0
    0.5657    6.0533   -2.0623 H   0  0  0  0  0  0  0  0  0  0  0  0
   -0.2658   -1.2020    0.5536 N   0  0  0  0  0  0  0  0  0  0  0  0
   -0.1677   -2.4435    1.2871 C   0  0  2  0  0  0  0  0  0  0  0  0
    0.6757   -3.4096    0.4658 C   0  0  0  0  0  0  0  0  0  0  0  0
    0.8257   -3.3029   -0.7496 O   0  0  0  0  0  0  0  0  0  0  0  0
   -1.5424   -3.0283    1.5713 C   0  0  0  0  0  0  0  0  0  0  0  0
   -1.1858   -0.7938    0.4172 H   0  0  0  0  0  0  0  0  0  0  0  0
    0.3475   -2.2158    2.2267 H   0  0  0  0  0  0  0  0  0  0  0  0
   -2.0738   -3.2628    0.6417 H   0  0  0  0  0  0  0  0  0  0  0  0
   -1.4676   -3.9538    2.1517 H   0  0  0  0  0  0  0  0  0  0  0  0
   -2.1580   -2.3202    2.1364 H   0  0  0  0  0  0  0  0  0  0  0  0
    1.2061   -4.4299    1.2429 N   0  0  0  0  0  0  0  0  0  0  0  0
    2.0322   -5.4795    0.6935 C   0  0  0  0  0  0  0  0  0  0  0  0
    1.0457   -4.4290    2.2459 H   0  0  0  0  0  0  0  0  0  0  0  0
    1.4014   -6.3381    0.4199 H   0  0  0  0  0  0  0  0  0  0  0  0
    2.5517   -5.1065   -0.2014 H   0  0  0  0  0  0  0  0  0  0  0  0
    2.7732   -5.7933    1.4435 H   0  0  0  0  0  0  0  0  0  0  0  0
 22 24  2  0  0  0  0
 24 26  1  0  0  0  0
 25 26  1  0  0  0  0
 23 25  2  0  0  0  0
 21 22  1  0  0  0  0
 22 23  1  0  0  0  0
  1  3  1  0  0  0  0
  1  7  1  0  0  0  0
  1  2  2  0  0  0  0
 36 37  1  0  0  0  0
 37 45  1  0  0  0  0
 37 38  2  0  0  0  0
  8  9  1  0  0  0  0
  9 17  1  0  0  0  0
  9 10  2  0  0  0  0
 18 19  1  0  0  0  0
 19 35  1  0  0  0  0
 19 20  2  0  0  0  0
 36 39  1  0  0  0  0
  8 11  1  0  0  0  0
 45 46  1  0  0  0  0
 18 21  1  0  0  0  0
 35 36  1  0  0  0  0
  7  8  1  0  0  0  0
 17 18  1  0  0  0  0
 24 32  1  0  0  0  0
 25 33  1  0  0  0  0
  3  4  1  0  0  0  0
  3  5  1  0  0  0  0
  3  6  1  0  0  0  0
 39 42  1  0  0  0  0
 39 43  1  0  0  0  0
 39 44  1  0  0  0  0
 11 14  1  0  0  0  0
 11 15  1  0  0  0  0
 11 16  1  0  0  0  0
 46 48  1  0  0  0  0
 46 49  1  0  0  0  0
 46 50  1  0  0  0  0
 21 29  1  0  0  0  0
 21 30  1  0  0  0  0
 36 41  1  0  0  0  0
  8 13  1  0  0  0  0
 18 28  1  0  0  0  0
 26 34  1  0  0  0  0
 23 31  1  0  0  0  0
 45 47  1  0  0  0  0
  7 12  1  0  0  0  0
 35 40  1  0  0  0  0
 17 27  1  0  0  0  0
M  CHG  1  23   1
M  END
$$$$

  -OEChem-05262214473D

 50 50  0     1  0  0  0  0  0999 V2000
   -1.6938    0.4865    3.8080 C   0  0  0  0  0  0  0  0  0  0  0  0
   -0.7464   -0.1282    3.3323 O   0  0  0  0  0  0  0  0  0  0  0  0
   -2.1257    0.2041    5.2087 C   0  0  0  0  0  0  0  0  0  0  0  0
   -2.8853   -0.5922    5.2621 H   0  0  0  0  0  0  0  0  0  0  0  0
   -1.2944   -0.1435    5.8430 H   0  0  0  0  0  0  0  0  0  0  0  0
   -2.5637    1.0590    5.7483 H   0  0  0  0  0  0  0  0  0  0  0  0
   -2.4435    1.4589    3.1669 N   0  0  0  0  0  0  0  0  0  0  0  0
   -2.1966    1.8850    1.8145 C   0  0  2  0  0  0  0  0  0  0  0  0
   -0.8617    1.2996    1.3733 C   0  0  0  0  0  0  0  0  0  0  0  0
    0.0104    0.9468    2.1646 O   0  0  0  0  0  0  0  0  0  0  0  0
   -2.1879    3.4017    1.7050 C   0  0  0  0  0  0  0  0  0  0  0  0
   -3.2085    1.8948    3.6787 H   0  0  0  0  0  0  0  0  0  0  0  0
   -3.0007    1.4665    1.1994 H   0  0  0  0  0  0  0  0  0  0  0  0
   -1.3888    3.8390    2.3147 H   0  0  0  0  0  0  0  0  0  0  0  0
   -2.0284    3.7240    0.6708 H   0  0  0  0  0  0  0  0  0  0  0  0
   -3.1380    3.8230    2.0508 H   0  0  0  0  0  0  0  0  0  0  0  0
   -0.7390    1.2565   -0.0101 N   0  0  0  0  0  0  0  0  0  0  0  0
    0.4383    0.7557   -0.6738 C   0  0  2  0  0  0  0  0  0  0  0  0
    0.8340   -0.5396    0.0261 C   0  0  0  0  0  0  0  0  0  0  0  0
    1.9864   -0.7866    0.3750 O   0  0  0  0  0  0  0  0  0  0  0  0
    1.5968    1.7588   -0.6330 C   0  0  0  0  0  0  0  0  0  0  0  0
    1.2931    3.0320   -1.3843 C   0  0  0  0  0  0  0  0  0  0  0  0
    1.2997    3.0836   -2.7573 N   0  3  0  0  0  0  0  0  0  0  0  0
    0.9799    4.2873   -0.9450 C   0  0  0  0  0  0  0  0  0  0  0  0
    1.0023    4.3239   -3.1582 C   0  0  0  0  0  0  0  0  0  0  0  0
    0.8058    5.0660   -2.0636 N   0  0  0  0  0  0  0  0  0  0  0  0
   -1.5221    1.5532   -0.5874 H   0  0  0  0  0  0  0  0  0  0  0  0
    0.1434    0.5306   -1.7054 H   0  0  0  0  0  0  0  0  0  0  0  0
    2.5106    1.3012   -1.0357 H   0  0  0  0  0  0  0  0  0  0  0  0
    1.8401    2.0218    0.4050 H   0  0  0  0  0  0  0  0  0  0  0  0
    1.5001    2.3032   -3.3767 H   0  0  0  0  0  0  0  0  0  0  0  0
    0.8527    4.7582    0.0094 H   0  0  0  0  0  0  0  0  0  0  0  0
    0.9343    4.6637   -4.1782 H   0  0  0  0  0  0  0  0  0  0  0  0
    0.5657    6.0533   -2.0623 H   0  0  0  0  0  0  0  0  0  0  0  0
   -0.2610   -1.3606    0.2574 N   0  0  0  0  0  0  0  0  0  0  0  0
   -0.1675   -2.6384    0.9263 C   0  0  2  0  0  0  0  0  0  0  0  0
    0.9484   -3.4354    0.2639 C   0  0  0  0  0  0  0  0  0  0  0  0
    1.3425   -3.2152   -0.8795 O   0  0  0  0  0  0  0  0  0  0  0  0
   -1.4860   -3.3936    0.8634 C   0  0  0  0  0  0  0  0  0  0  0  0
   -1.1739   -1.0476   -0.0593 H   0  0  0  0  0  0  0  0  0  0  0  0
    0.0997   -2.4311    1.9682 H   0  0  0  0  0  0  0  0  0  0  0  0
   -1.7703   -3.6102   -0.1728 H   0  0  0  0  0  0  0  0  0  0  0  0
   -1.4220   -4.3487    1.3951 H   0  0  0  0  0  0  0  0  0  0  0  0
   -2.2935   -2.8061    1.3136 H   0  0  0  0  0  0  0  0  0  0  0  0
    1.4231   -4.4496    1.0839 N   0  0  0  0  0  0  0  0  0  0  0  0
    2.4741   -5.3530    0.6778 C   0  0  0  0  0  0  0  0  0  0  0  0
    1.0512   -4.5472    2.0241 H   0  0  0  0  0  0  0  0  0  0  0  0
    2.0309   -6.2517    0.2240 H   0  0  0  0  0  0  0  0  0  0  0  0
    3.1232   -4.8537   -0.0567 H   0  0  0  0  0  0  0  0  0  0  0  0
    3.0693   -5.6417    1.5567 H   0  0  0  0  0  0  0  0  0  0  0  0
 22 24  2  0  0  0  0
 24 26  1  0  0  0  0
 25 26  1  0  0  0  0
 23 25  2  0  0  0  0
 21 22  1  0  0  0  0
 22 23  1  0  0  0  0
  1  3  1  0  0  0  0
  1  7  1  0  0  0  0
  1  2  2  0  0  0  0
 36 37  1  0  0  0  0
 37 45  1  0  0  0  0
 37 38  2  0  0  0  0
  8  9  1  0  0  0  0
  9 17  1  0  0  0  0
  9 10  2  0  0  0  0
 18 19  1  0  0  0  0
 19 35  1  0  0  0  0
 19 20  2  0  0  0  0
 36 39  1  0  0  0  0
  8 11  1  0  0  0  0
 45 46  1  0  0  0  0
 18 21  1  0  0  0  0
 35 36  1  0  0  0  0
  7  8  1  0  0  0  0
 17 18  1  0  0  0  0
 24 32  1  0  0  0  0
 25 33  1  0  0  0  0
  3  4  1  0  0  0  0
  3  5  1  0  0  0  0
  3  6  1  0  0  0  0
 39 42  1  0  0  0  0
 39 43  1  0  0  0  0
 39 44  1  0  0  0  0
 11 14  1  0  0  0  0
 11 15  1  0  0  0  0
 11 16  1  0  0  0  0
 46 48  1  0  0  0  0
 46 49  1  0  0  0  0
 46 50  1  0  0  0  0
 21 29  1  0  0  0  0
 21 30  1  0  0  0  0
 36 41  1  0  0  0  0
  8 13  1  0  0  0  0
 18 28  1  0  0  0  0
 26 34  1  0  0  0  0
 23 31  1  0  0  0  0
 45 47  1  0  0  0  0
  7 12  1  0  0  0  0
 35 40  1  0  0  0  0
 17 27  1  0  0  0  0
M  CHG  1  23   1
M  END
$$$$

  -OEChem-05262214473D

 50 50  0     1  0  0  0  0  0999 V2000
   -1.6938    0.4865    3.8080 C   0  0  0  0  0  0  0  0  0  0  0  0
   -0.7464   -0.1282    3.3323 O   0  0  0  0  0  0  0  0  0  0  0  0
   -2.1257    0.2041    5.2087 C   0  0  0  0  0  0  0  0  0  0  0  0
   -2.8853   -0.5922    5.2621 H   0  0  0  0  0  0  0  0  0  0  0  0
   -1.2944   -0.1435    5.8430 H   0  0  0  0  0  0  0  0  0  0  0  0
   -2.5637    1.0590    5.7483 H   0  0  0  0  0  0  0  0  0  0  0  0
   -2.4435    1.4589    3.1669 N   0  0  0  0  0  0  0  0  0  0  0  0
   -2.1966    1.8850    1.8145 C   0  0  2  0  0  0  0  0  0  0  0  0
   -0.8617    1.2996    1.3733 C   0  0  0  0  0  0  0  0  0  0  0  0
    0.0104    0.9468    2.1646 O   0  0  0  0  0  0  0  0  0  0  0  0
   -2.1879    3.4017    1.7050 C   0  0  0  0  0  0  0  0  0  0  0  0
   -3.2085    1.8948    3.6787 H   0  0  0  0  0  0  0  0  0  0  0  0
   -3.0007    1.4665    1.1994 H   0  0  0  0  0  0  0  0  0  0  0  0
   -1.3888    3.8390    2.3147 H   0  0  0  0  0  0  0  0  0  0  0  0
   -2.0284    3.7240    0.6708 H   0  0  0  0  0  0  0  0  0  0  0  0
   -3.1380    3.8230    2.0508 H   0  0  0  0  0  0  0  0  0  0  0  0
   -0.7390    1.2565   -0.0101 N   0  0  0  0  0  0  0  0  0  0  0  0
    0.4383    0.7557   -0.6738 C   0  0  2  0  0  0  0  0  0  0  0  0
    0.8340   -0.5396    0.0261 C   0  0  0  0  0  0  0  0  0  0  0  0
    1.9057   -0.6841    0.6104 O   0  0  0  0  0  0  0  0  0  0  0  0
    1.5968    1.7588   -0.6330 C   0  0  0  0  0  0  0  0  0  0  0  0
    1.2931    3.0320   -1.3843 C   0  0  0  0  0  0  0  0  0  0  0  0
    1.2997    3.0836   -2.7573 N   0  3  0  0  0  0  0  0  0  0  0  0
    0.9799    4.2873   -0.9450 C   0  0  0  0  0  0  0  0  0  0  0  0
    1.0023    4.3239   -3.1582 C   0  0  0  0  0  0  0  0  0  0  0  0
    0.8058    5.0660   -2.0636 N   0  0  0  0  0  0  0  0  0  0  0  0
   -1.5221    1.5532   -0.5874 H   0  0  0  0  0  0  0  0  0  0  0  0
    0.1434    0.5306   -1.7054 H   0  0  0  0  0  0  0  0  0  0  0  0
    2.5106    1.3012   -1.0357 H   0  0  0  0  0  0  0  0  0  0  0  0
    1.8401    2.0218    0.4050 H   0  0  0  0  0  0  0  0  0  0  0  0
    1.5001    2.3032   -3.3767 H   0  0  0  0  0  0  0  0  0  0  0  0
    0.8527    4.7582    0.0094 H   0  0  0  0  0  0  0  0  0  0  0  0
    0.9343    4.6637   -4.1782 H   0  0  0  0  0  0  0  0  0  0  0  0
    0.5657    6.0533   -2.0623 H   0  0  0  0  0  0  0  0  0  0  0  0
   -0.1724   -1.4933   -0.0383 N   0  0  0  0  0  0  0  0  0  0  0  0
   -0.0649   -2.8024    0.5647 C   0  0  2  0  0  0  0  0  0  0  0  0
    1.2593   -3.4144    0.1271 C   0  0  0  0  0  0  0  0  0  0  0  0
    1.8598   -3.0604   -0.8854 O   0  0  0  0  0  0  0  0  0  0  0  0
   -1.2325   -3.6921    0.1675 C   0  0  0  0  0  0  0  0  0  0  0  0
   -1.0275   -1.2594   -0.5341 H   0  0  0  0  0  0  0  0  0  0  0  0
   -0.0572   -2.6512    1.6496 H   0  0  0  0  0  0  0  0  0  0  0  0
   -1.2567   -3.8549   -0.9162 H   0  0  0  0  0  0  0  0  0  0  0  0
   -1.1646   -4.6738    0.6478 H   0  0  0  0  0  0  0  0  0  0  0  0
   -2.1857   -3.2363    0.4564 H   0  0  0  0  0  0  0  0  0  0  0  0
    1.6700   -4.4321    0.9767 N   0  0  0  0  0  0  0  0  0  0  0  0
    2.8895   -5.1773    0.7682 C   0  0  0  0  0  0  0  0  0  0  0  0
    1.1193   -4.6458    1.8031 H   0  0  0  0  0  0  0  0  0  0  0  0
    2.6718   -6.0803    0.1790 H   0  0  0  0  0  0  0  0  0  0  0  0
    3.6133   -4.5513    0.2258 H   0  0  0  0  0  0  0  0  0  0  0  0
    3.3125   -5.4677    1.7412 H   0  0  0  0  0  0  0  0  0  0  0  0
 22 24  2  0  0  0  0
 24 26  1  0  0  0  0
 25 26  1  0  0  0  0
 23 25  2  0  0  0  0
 21 22  1  0  0  0  0
 22 23  1  0  0  0  0
  1  3  1  0  0  0  0
  1  7  1  0  0  0  0
  1  2  2  0  0  0  0
 36 37  1  0  0  0  0
 37 45  1  0  0  0  0
 37 38  2  0  0  0  0
  8  9  1  0  0  0  0
  9 17  1  0  0  0  0
  9 10  2  0  0  0  0
 18 19  1  0  0  0  0
 19 35  1  0  0  0  0
 19 20  2  0  0  0  0
 36 39  1  0  0  0  0
  8 11  1  0  0  0  0
 45 46  1  0  0  0  0
 18 21  1  0  0  0  0
 35 36  1  0  0  0  0
  7  8  1  0  0  0  0
 17 18  1  0  0  0  0
 24 32  1  0  0  0  0
 25 33  1  0  0  0  0
  3  4  1  0  0  0  0
  3  5  1  0  0  0  0
  3  6  1  0  0  0  0
 39 42  1  0  0  0  0
 39 43  1  0  0  0  0
 39 44  1  0  0  0  0
 11 14  1  0  0  0  0
 11 15  1  0  0  0  0
 11 16  1  0  0  0  0
 46 48  1  0  0  0  0
 46 49  1  0  0  0  0
 46 50  1  0  0  0  0
 21 29  1  0  0  0  0
 21 30  1  0  0  0  0
 36 41  1  0  0  0  0
  8 13  1  0  0  0  0
 18 28  1  0  0  0  0
 26 34  1  0  0  0  0
 23 31  1  0  0  0  0
 45 47  1  0  0  0  0
  7 12  1  0  0  0  0
 35 40  1  0  0  0  0
 17 27  1  0  0  0  0
M  CHG  1  23   1
M  END
$$$$

  -OEChem-05262214473D

 50 50  0     1  0  0  0  0  0999 V2000
   -1.6938    0.4865    3.8080 C   0  0  0  0  0  0  0  0  0  0  0  0
   -0.7464   -0.1282    3.3323 O   0  0  0  0  0  0  0  0  0  0  0  0
   -2.1257    0.2041    5.2087 C   0  0  0  0  0  0  0  0  0  0  0  0
   -2.8853   -0.5922    5.2621 H   0  0  0  0  0  0  0  0  0  0  0  0
   -1.2944   -0.1435    5.8430 H   0  0  0  0  0  0  0  0  0  0  0  0
   -2.5637    1.0590    5.7483 H   0  0  0  0  0  0  0  0  0  0  0  0
   -2.4435    1.4589    3.1669 N   0  0  0  0  0  0  0  0  0  0  0  0
   -2.1966    1.8850    1.8145 C   0  0  2  0  0  0  0  0  0  0  0  0
   -0.8617    1.2996    1.3733 C   0  0  0  0  0  0  0  0  0  0  0  0
    0.0104    0.9468    2.1646 O   0  0  0  0  0  0  0  0  0  0  0  0
   -2.1879    3.4017    1.7050 C   0  0  0  0  0  0  0  0  0  0  0  0
   -3.2085    1.8948    3.6787 H   0  0  0  0  0  0  0  0  0  0  0  0
   -3.0007    1.4665    1.1994 H   0  0  0  0  0  0  0  0  0  0  0  0
   -1.3888    3.8390    2.3147 H   0  0  0  0  0  0  0  0  0  0  0  0
   -2.0284    3.7240    0.6708 H   0  0  0  0  0  0  0  0  0  0  0  0
   -3.1380    3.8230    2.0508 H   0  0  0  0  0  0  0  0  0  0  0  0
   -0.7390    1.2565   -0.0101 N   0  0  0  0  0  0  0  0  0  0  0  0
    0.4383    0.7557   -0.6738 C   0  0  2  0  0  0  0  0  0  0  0  0
    0.8340   -0.5396    0.0261 C   0  0  0  0  0  0  0  0  0  0  0  0
    1.7638   -0.6104    0.8269 O   0  0  0  0  0  0  0  0  0  0  0  0
    1.5968    1.7588   -0.6330 C   0  0  0  0  0  0  0  0  0  0  0  0
    1.2931    3.0320   -1.3843 C   0  0  0  0  0  0  0  0  0  0  0  0
    1.2997    3.0836   -2.7573 N   0  3  0  0  0  0  0  0  0  0  0  0
    0.9799    4.2873   -0.9450 C   0  0  0  0  0  0  0  0  0  0  0  0
    1.0023    4.3239   -3.1582 C   0  0  0  0  0  0  0  0  0  0  0  0
    0.8058    5.0660   -2.0636 N   0  0  0  0  0  0  0  0  0  0  0  0
   -1.5221    1.5532   -0.5874 H   0  0  0  0  0  0  0  0  0  0  0  0
    0.1434    0.5306   -1.7054 H   0  0  0  0  0  0  0  0  0  0  0  0
    2.5106    1.3012   -1.0357 H   0  0  0  0  0  0  0  0  0  0  0  0
    1.8401    2.0218    0.4050 H   0  0  0  0  0  0  0  0  0  0  0  0
    1.5001    2.3032   -3.3767 H   0  0  0  0  0  0  0  0  0  0  0  0
    0.8527    4.7582    0.0094 H   0  0  0  0  0  0  0  0  0  0  0  0
    0.9343    4.6637   -4.1782 H   0  0  0  0  0  0  0  0  0  0  0  0
    0.5657    6.0533   -2.0623 H   0  0  0  0  0  0  0  0  0  0  0  0
   -0.0060   -1.5911   -0.3133 N   0  0  0  0  0  0  0  0  0  0  0  0
    0.1333   -2.9243    0.2270 C   0  0  2  0  0  0  0  0  0  0  0  0
    1.5872   -3.3479    0.0648 C   0  0  0  0  0  0  0  0  0  0  0  0
    2.3424   -2.8490   -0.7669 O   0  0  0  0  0  0  0  0  0  0  0  0
   -0.7991   -3.9036   -0.4690 C   0  0  0  0  0  0  0  0  0  0  0  0
   -0.7565   -1.4147   -0.9747 H   0  0  0  0  0  0  0  0  0  0  0  0
   -0.1125   -2.8610    1.2926 H   0  0  0  0  0  0  0  0  0  0  0  0
   -0.5680   -3.9804   -1.5377 H   0  0  0  0  0  0  0  0  0  0  0  0
   -0.7129   -4.9071   -0.0393 H   0  0  0  0  0  0  0  0  0  0  0  0
   -1.8419   -3.5815   -0.3767 H   0  0  0  0  0  0  0  0  0  0  0  0
    1.9299   -4.3786    0.9287 N   0  0  0  0  0  0  0  0  0  0  0  0
    3.2498   -4.9643    0.9588 C   0  0  0  0  0  0  0  0  0  0  0  0
    1.2454   -4.7181    1.5980 H   0  0  0  0  0  0  0  0  0  0  0  0
    3.2803   -5.8355    0.2880 H   0  0  0  0  0  0  0  0  0  0  0  0
    3.9887   -4.2200    0.6268 H   0  0  0  0  0  0  0  0  0  0  0  0
    3.4861   -5.2831    1.9847 H   0  0  0  0  0  0  0  0  0  0  0  0
 22 24  2  0  0  0  0
 24 26  1  0  0  0  0
 25 26  1  0  0  0  0
 23 25  2  0  0  0  0
 21 22  1  0  0  0  0
 22 23  1  0  0  0  0
  1  3  1  0  0  0  0
  1  7  1  0  0  0  0
  1  2  2  0  0  0  0
 36 37  1  0  0  0  0
 37 45  1  0  0  0  0
 37 38  2  0  0  0  0
  8  9  1  0  0  0  0
  9 17  1  0  0  0  0
  9 10  2  0  0  0  0
 18 19  1  0  0  0  0
 19 35  1  0  0  0  0
 19 20  2  0  0  0  0
 36 39  1  0  0  0  0
  8 11  1  0  0  0  0
 45 46  1  0  0  0  0
 18 21  1  0  0  0  0
 35 36  1  0  0  0  0
  7  8  1  0  0  0  0
 17 18  1  0  0  0  0
 24 32  1  0  0  0  0
 25 33  1  0  0  0  0
  3  4  1  0  0  0  0
  3  5  1  0  0  0  0
  3  6  1  0  0  0  0
 39 42  1  0  0  0  0
 39 43  1  0  0  0  0
 39 44  1  0  0  0  0
 11 14  1  0  0  0  0
 11 15  1  0  0  0  0
 11 16  1  0  0  0  0
 46 48  1  0  0  0  0
 46 49  1  0  0  0  0
 46 50  1  0  0  0  0
 21 29  1  0  0  0  0
 21 30  1  0  0  0  0
 36 41  1  0  0  0  0
  8 13  1  0  0  0  0
 18 28  1  0  0  0  0
 26 34  1  0  0  0  0
 23 31  1  0  0  0  0
 45 47  1  0  0  0  0
  7 12  1  0  0  0  0
 35 40  1  0  0  0  0
 17 27  1  0  0  0  0
M  CHG  1  23   1
M  END
$$$$

  -OEChem-05262214473D

 50 50  0     1  0  0  0  0  0999 V2000
   -1.6938    0.4865    3.8080 C   0  0  0  0  0  0  0  0  0  0  0  0
   -0.7464   -0.1282    3.3323 O   0  0  0  0  0  0  0  0  0  0  0  0
   -2.1257    0.2041    5.2087 C   0  0  0  0  0  0  0  0  0  0  0  0
   -2.8853   -0.5922    5.2621 H   0  0  0  0  0  0  0  0  0  0  0  0
   -1.2944   -0.1435    5.8430 H   0  0  0  0  0  0  0  0  0  0  0  0
   -2.5637    1.0590    5.7483 H   0  0  0  0  0  0  0  0  0  0  0  0
   -2.4435    1.4589    3.1669 N   0  0  0  0  0  0  0  0  0  0  0  0
   -2.1966    1.8850    1.8145 C   0  0  2  0  0  0  0  0  0  0  0  0
   -0.8617    1.2996    1.3733 C   0  0  0  0  0  0  0  0  0  0  0  0
    0.0104    0.9468    2.1646 O   0  0  0  0  0  0  0  0  0  0  0  0
   -2.1879    3.4017    1.7050 C   0  0  0  0  0  0  0  0  0  0  0  0
   -3.2085    1.8948    3.6787 H   0  0  0  0  0  0  0  0  0  0  0  0
   -3.0007    1.4665    1.1994 H   0  0  0  0  0  0  0  0  0  0  0  0
   -1.3888    3.8390    2.3147 H   0  0  0  0  0  0  0  0  0  0  0  0
   -2.0284    3.7240    0.6708 H   0  0  0  0  0  0  0  0  0  0  0  0
   -3.1380    3.8230    2.0508 H   0  0  0  0  0  0  0  0  0  0  0  0
   -0.7390    1.2565   -0.0101 N   0  0  0  0  0  0  0  0  0  0  0  0
    0.4383    0.7557   -0.6738 C   0  0  2  0  0  0  0  0  0  0  0  0
    0.8340   -0.5396    0.0261 C   0  0  0  0  0  0  0  0  0  0  0  0
    1.5703   -0.5707    1.0098 O   0  0  0  0  0  0  0  0  0  0  0  0
    1.5968    1.7588   -0.6330 C   0  0  0  0  0  0  0  0  0  0  0  0
    1.2931    3.0320   -1.3843 C   0  0  0  0  0  0  0  0  0  0  0  0
    1.2997    3.0836   -2.7573 N   0  3  0  0  0  0  0  0  0  0  0  0
    0.9799    4.2873   -0.9450 C   0  0  0  0  0  0  0  0  0  0  0  0
    1.0023    4.3239   -3.1582 C   0  0  0  0  0  0  0  0  0  0  0  0
    0.8058    5.0660   -2.0636 N   0  0  0  0  0  0  0  0  0  0  0  0
   -1.5221    1.5532   -0.5874 H   0  0  0  0  0  0  0  0  0  0  0  0
    0.1434    0.5306   -1.7054 H   0  0  0  0  0  0  0  0  0  0  0  0
    2.5106    1.3012   -1.0357 H   0  0  0  0  0  0  0  0  0  0  0  0
    1.8401    2.0218    0.4050 H   0  0  0  0  0  0  0  0  0  0  0  0
    1.5001    2.3032   -3.3767 H   0  0  0  0  0  0  0  0  0  0  0  0
    0.8527    4.7582    0.0094 H   0  0  0  0  0  0  0  0  0  0  0  0
    0.9343    4.6637   -4.1782 H   0  0  0  0  0  0  0  0  0  0  0  0
    0.5657    6.0533   -2.0623 H   0  0  0  0  0  0  0  0  0  0  0  0
    0.2268   -1.6473   -0.5490 N   0  0  0  0  0  0  0  0  0  0  0  0
    0.4135   -2.9959   -0.0638 C   0  0  2  0  0  0  0  0  0  0  0  0
    1.9097   -3.2406    0.0811 C   0  0  0  0  0  0  0  0  0  0  0  0
    2.7574   -2.5954   -0.5322 O   0  0  0  0  0  0  0  0  0  0  0  0
   -0.2153   -4.0137   -1.0026 C   0  0  0  0  0  0  0  0  0  0  0  0
   -0.3794   -1.5029   -1.3512 H   0  0  0  0  0  0  0  0  0  0  0  0
   -0.0626   -3.0463    0.9215 H   0  0  0  0  0  0  0  0  0  0  0  0
    0.2488   -3.9780   -1.9950 H   0  0  0  0  0  0  0  0  0  0  0  0
   -0.0979   -5.0326   -0.6193 H   0  0  0  0  0  0  0  0  0  0  0  0
   -1.2857   -3.8181   -1.1291 H   0  0  0  0  0  0  0  0  0  0  0  0
    2.1853   -4.2929    0.9430 N   0  0  0  0  0  0  0  0  0  0  0  0
    3.5307   -4.7285    1.2363 C   0  0  0  0  0  0  0  0  0  0  0  0
    1.4210   -4.7592    1.4227 H   0  0  0  0  0  0  0  0  0  0  0  0
    3.8151   -5.5341    0.5435 H   0  0  0  0  0  0  0  0  0  0  0  0
    4.2237   -3.8824    1.1189 H   0  0  0  0  0  0  0  0  0  0  0  0
    3.5783   -5.1006    2.2704 H   0  0  0  0  0  0  0  0  0  0  0  0
 22 24  2  0  0  0  0
 24 26  1  0  0  0  0
 25 26  1  0  0  0  0
 23 25  2  0  0  0  0
 21 22  1  0  0  0  0
 22 23  1  0  0  0  0
  1  3  1  0  0  0  0
  1  7  1  0  0  0  0
  1  2  2  0  0  0  0
 36 37  1  0  0  0  0
 37 45  1  0  0  0  0
 37 38  2  0  0  0  0
  8  9  1  0  0  0  0
  9 17  1  0  0  0  0
  9 10  2  0  0  0  0
 18 19  1  0  0  0  0
 19 35  1  0  0  0  0
 19 20  2  0  0  0  0
 36 39  1  0  0  0  0
  8 11  1  0  0  0  0
 45 46  1  0  0  0  0
 18 21  1  0  0  0  0
 35 36  1  0  0  0  0
  7  8  1  0  0  0  0
 17 18  1  0  0  0  0
 24 32  1  0  0  0  0
 25 33  1  0  0  0  0
  3  4  1  0  0  0  0
  3  5  1  0  0  0  0
  3  6  1  0  0  0  0
 39 42  1  0  0  0  0
 39 43  1  0  0  0  0
 39 44  1  0  0  0  0
 11 14  1  0  0  0  0
 11 15  1  0  0  0  0
 11 16  1  0  0  0  0
 46 48  1  0  0  0  0
 46 49  1  0  0  0  0
 46 50  1  0  0  0  0
 21 29  1  0  0  0  0
 21 30  1  0  0  0  0
 36 41  1  0  0  0  0
  8 13  1  0  0  0  0
 18 28  1  0  0  0  0
 26 34  1  0  0  0  0
 23 31  1  0  0  0  0
 45 47  1  0  0  0  0
  7 12  1  0  0  0  0
 35 40  1  0  0  0  0
 17 27  1  0  0  0  0
M  CHG  1  23   1
M  END
$$$$

  -OEChem-05262214473D

 50 50  0     1  0  0  0  0  0999 V2000
   -1.6938    0.4865    3.8080 C   0  0  0  0  0  0  0  0  0  0  0  0
   -0.7464   -0.1282    3.3323 O   0  0  0  0  0  0  0  0  0  0  0  0
   -2.1257    0.2041    5.2087 C   0  0  0  0  0  0  0  0  0  0  0  0
   -2.8853   -0.5922    5.2621 H   0  0  0  0  0  0  0  0  0  0  0  0
   -1.2944   -0.1435    5.8430 H   0  0  0  0  0  0  0  0  0  0  0  0
   -2.5637    1.0590    5.7483 H   0  0  0  0  0  0  0  0  0  0  0  0
   -2.4435    1.4589    3.1669 N   0  0  0  0  0  0  0  0  0  0  0  0
   -2.1966    1.8850    1.8145 C   0  0  2  0  0  0  0  0  0  0  0  0
   -0.8617    1.2996    1.3733 C   0  0  0  0  0  0  0  0  0  0  0  0
    0.0104    0.9468    2.1646 O   0  0  0  0  0  0  0  0  0  0  0  0
   -2.1879    3.4017    1.7050 C   0  0  0  0  0  0  0  0  0  0  0  0
   -3.2085    1.8948    3.6787 H   0  0  0  0  0  0  0  0  0  0  0  0
   -3.0007    1.4665    1.1994 H   0  0  0  0  0  0  0  0  0  0  0  0
   -1.3888    3.8390    2.3147 H   0  0  0  0  0  0  0  0  0  0  0  0
   -2.0284    3.7240    0.6708 H   0  0  0  0  0  0  0  0  0  0  0  0
   -3.1380    3.8230    2.0508 H   0  0  0  0  0  0  0  0  0  0  0  0
   -0.7390    1.2565   -0.0101 N   0  0  0  0  0  0  0  0  0  0  0  0
    0.4383    0.7557   -0.6738 C   0  0  2  0  0  0  0  0  0  0  0  0
    0.8340   -0.5396    0.0261 C   0  0  0  0  0  0  0  0  0  0  0  0
    1.3385   -0.5676    1.1466 O   0  0  0  0  0  0  0  0  0  0  0  0
    1.5968    1.7588   -0.6330 C   0  0  0  0  0  0  0  0  0  0  0  0
    1.2931    3.0320   -1.3843 C   0  0  0  0  0  0  0  0  0  0  0  0
    1.2997    3.0836   -2.7573 N   0  3  0  0  0  0  0  0  0  0  0  0
    0.9799    4.2873   -0.9450 C   0  0  0  0  0  0  0  0  0  0  0  0
    1.0023    4.3239   -3.1582 C   0  0  0  0  0  0  0  0  0  0  0  0
    0.8058    5.0660   -2.0636 N   0  0  0  0  0  0  0  0  0  0  0  0
   -1.5221    1.5532   -0.5874 H   0  0  0  0  0  0  0  0  0  0  0  0
    0.1434    0.5306   -1.7054 H   0  0  0  0  0  0  0  0  0  0  0  0
    2.5106    1.3012   -1.0357 H   0  0  0  0  0  0  0  0  0  0  0  0
    1.8401    2.0218    0.4050 H   0  0  0  0  0  0  0  0  0  0  0  0
    1.5001    2.3032   -3.3767 H   0  0  0  0  0  0  0  0  0  0  0  0
    0.8527    4.7582    0.0094 H   0  0  0  0  0  0  0  0  0  0  0  0
    0.9343    4.6637   -4.1782 H   0  0  0  0  0  0  0  0  0  0  0  0
    0.5657    6.0533   -2.0623 H   0  0  0  0  0  0  0  0  0  0  0  0
    0.5101   -1.6581   -0.7292 N   0  0  0  0  0  0  0  0  0  0  0  0
    0.7565   -3.0122   -0.2879 C   0  0  2  0  0  0  0  0  0  0  0  0
    2.2048   -3.0997    0.1750 C   0  0  0  0  0  0  0  0  0  0  0  0
    3.0765   -2.3169   -0.1971 O   0  0  0  0  0  0  0  0  0  0  0  0
    0.4789   -4.0148   -1.3972 C   0  0  0  0  0  0  0  0  0  0  0  0
    0.0782   -1.5180   -1.6378 H   0  0  0  0  0  0  0  0  0  0  0  0
    0.0893   -3.1943    0.5616 H   0  0  0  0  0  0  0  0  0  0  0  0
    1.1380   -3.8480   -2.2570 H   0  0  0  0  0  0  0  0  0  0  0  0
    0.6386   -5.0419   -1.0527 H   0  0  0  0  0  0  0  0  0  0  0  0
   -0.5548   -3.9300   -1.7494 H   0  0  0  0  0  0  0  0  0  0  0  0
    2.4186   -4.1807    1.0188 N   0  0  0  0  0  0  0  0  0  0  0  0
    3.7130   -4.4860    1.5821 C   0  0  0  0  0  0  0  0  0  0  0  0
    1.6339   -4.7662    1.2893 H   0  0  0  0  0  0  0  0  0  0  0  0
    4.2397   -5.1966    0.9281 H   0  0  0  0  0  0  0  0  0  0  0  0
    4.3024   -3.5613    1.6686 H   0  0  0  0  0  0  0  0  0  0  0  0
    3.5828   -4.9325    2.5789 H   0  0  0  0  0  0  0  0  0  0  0  0
 22 24  2  0  0  0  0
 24 26  1  0  0  0  0
 25 26  1  0  0  0  0
 23 25  2  0  0  0  0
 21 22  1  0  0  0  0
 22 23  1  0  0  0  0
  1  3  1  0  0  0  0
  1  7  1  0  0  0  0
  1  2  2  0  0  0  0
 36 37  1  0  0  0  0
 37 45  1  0  0  0  0
 37 38  2  0  0  0  0
  8  9  1  0  0  0  0
  9 17  1  0  0  0  0
  9 10  2  0  0  0  0
 18 19  1  0  0  0  0
 19 35  1  0  0  0  0
 19 20  2  0  0  0  0
 36 39  1  0  0  0  0
  8 11  1  0  0  0  0
 45 46  1  0  0  0  0
 18 21  1  0  0  0  0
 35 36  1  0  0  0  0
  7  8  1  0  0  0  0
 17 18  1  0  0  0  0
 24 32  1  0  0  0  0
 25 33  1  0  0  0  0
  3  4  1  0  0  0  0
  3  5  1  0  0  0  0
  3  6  1  0  0  0  0
 39 42  1  0  0  0  0
 39 43  1  0  0  0  0
 39 44  1  0  0  0  0
 11 14  1  0  0  0  0
 11 15  1  0  0  0  0
 11 16  1  0  0  0  0
 46 48  1  0  0  0  0
 46 49  1  0  0  0  0
 46 50  1  0  0  0  0
 21 29  1  0  0  0  0
 21 30  1  0  0  0  0
 36 41  1  0  0  0  0
  8 13  1  0  0  0  0
 18 28  1  0  0  0  0
 26 34  1  0  0  0  0
 23 31  1  0  0  0  0
 45 47  1  0  0  0  0
  7 12  1  0  0  0  0
 35 40  1  0  0  0  0
 17 27  1  0  0  0  0
M  CHG  1  23   1
M  END
$$$$

  -OEChem-05262214473D

 50 50  0     1  0  0  0  0  0999 V2000
   -1.6938    0.4865    3.8080 C   0  0  0  0  0  0  0  0  0  0  0  0
   -0.7464   -0.1282    3.3323 O   0  0  0  0  0  0  0  0  0  0  0  0
   -2.1257    0.2041    5.2087 C   0  0  0  0  0  0  0  0  0  0  0  0
   -2.8853   -0.5922    5.2621 H   0  0  0  0  0  0  0  0  0  0  0  0
   -1.2944   -0.1435    5.8430 H   0  0  0  0  0  0  0  0  0  0  0  0
   -2.5637    1.0590    5.7483 H   0  0  0  0  0  0  0  0  0  0  0  0
   -2.4435    1.4589    3.1669 N   0  0  0  0  0  0  0  0  0  0  0  0
   -2.1966    1.8850    1.8145 C   0  0  2  0  0  0  0  0  0  0  0  0
   -0.8617    1.2996    1.3733 C   0  0  0  0  0  0  0  0  0  0  0  0
    0.0104    0.9468    2.1646 O   0  0  0  0  0  0  0  0  0  0  0  0
   -2.1879    3.4017    1.7050 C   0  0  0  0  0  0  0  0  0  0  0  0
   -3.2085    1.8948    3.6787 H   0  0  0  0  0  0  0  0  0  0  0  0
   -3.0007    1.4665    1.1994 H   0  0  0  0  0  0  0  0  0  0  0  0
   -1.3888    3.8390    2.3147 H   0  0  0  0  0  0  0  0  0  0  0  0
   -2.0284    3.7240    0.6708 H   0  0  0  0  0  0  0  0  0  0  0  0
   -3.1380    3.8230    2.0508 H   0  0  0  0  0  0  0  0  0  0  0  0
   -0.7390    1.2565   -0.0101 N   0  0  0  0  0  0  0  0  0  0  0  0
    0.4383    0.7557   -0.6738 C   0  0  2  0  0  0  0  0  0  0  0  0
    0.8340   -0.5396    0.0261 C   0  0  0  0  0  0  0  0  0  0  0  0
    1.0842   -0.6013    1.2280 O   0  0  0  0  0  0  0  0  0  0  0  0
    1.5968    1.7588   -0.6330 C   0  0  0  0  0  0  0  0  0  0  0  0
    1.2931    3.0320   -1.3843 C   0  0  0  0  0  0  0  0  0  0  0  0
    1.2997    3.0836   -2.7573 N   0  3  0  0  0  0  0  0  0  0  0  0
    0.9799    4.2873   -0.9450 C   0  0  0  0  0  0  0  0  0  0  0  0
    1.0023    4.3239   -3.1582 C   0  0  0  0  0  0  0  0  0  0  0  0
    0.8058    5.0660   -2.0636 N   0  0  0  0  0  0  0  0  0  0  0  0
   -1.5221    1.5532   -0.5874 H   0  0  0  0  0  0  0  0  0  0  0  0
    0.1434    0.5306   -1.7054 H   0  0  0  0  0  0  0  0  0  0  0  0
    2.5106    1.3012   -1.0357 H   0  0  0  0  0  0  0  0  0  0  0  0
    1.8401    2.0218    0.4050 H   0  0  0  0  0  0  0  0  0  0  0  0
    1.5001    2.3032   -3.3767 H   0  0  0  0  0  0  0  0  0  0  0  0
    0.8527    4.7582    0.0094 H   0  0  0  0  0  0  0  0  0  0  0  0
    0.9343    4.6637   -4.1782 H   0  0  0  0  0  0  0  0  0  0  0  0
    0.5657    6.0533   -2.0623 H   0  0  0  0  0  0  0  0  0  0  0  0
    0.8247   -1.6228   -0.8417 N   0  0  0  0  0  0  0  0  0  0  0  0
    1.1391   -2.9721   -0.4300 C   0  0  2  0  0  0  0  0  0  0  0  0
    2.4525   -2.9348    0.3401 C   0  0  0  0  0  0  0  0  0  0  0  0
    3.2779   -2.0325    0.2153 O   0  0  0  0  0  0  0  0  0  0  0  0
    1.2364   -3.9068   -1.6256 C   0  0  0  0  0  0  0  0  0  0  0  0
    0.5849   -1.4590   -1.8150 H   0  0  0  0  0  0  0  0  0  0  0  0
    0.3328   -3.2951    0.2374 H   0  0  0  0  0  0  0  0  0  0  0  0
    2.0391   -3.5991   -2.3057 H   0  0  0  0  0  0  0  0  0  0  0  0
    1.4465   -4.9341   -1.3100 H   0  0  0  0  0  0  0  0  0  0  0  0
    0.3009   -3.9096   -2.1953 H   0  0  0  0  0  0  0  0  0  0  0  0
    2.6139   -4.0497    1.1508 N   0  0  0  0  0  0  0  0  0  0  0  0
    3.7842   -4.2533    1.9724 C   0  0  0  0  0  0  0  0  0  0  0  0
    1.8698   -4.7388    1.2067 H   0  0  0  0  0  0  0  0  0  0  0  0
    4.5251   -4.8460    1.4157 H   0  0  0  0  0  0  0  0  0  0  0  0
    4.2194   -3.2788    2.2384 H   0  0  0  0  0  0  0  0  0  0  0  0
    3.4994   -4.7903    2.8893 H   0  0  0  0  0  0  0  0  0  0  0  0
 22 24  2  0  0  0  0
 24 26  1  0  0  0  0
 25 26  1  0  0  0  0
 23 25  2  0  0  0  0
 21 22  1  0  0  0  0
 22 23  1  0  0  0  0
  1  3  1  0  0  0  0
  1  7  1  0  0  0  0
  1  2  2  0  0  0  0
 36 37  1  0  0  0  0
 37 45  1  0  0  0  0
 37 38  2  0  0  0  0
  8  9  1  0  0  0  0
  9 17  1  0  0  0  0
  9 10  2  0  0  0  0
 18 19  1  0  0  0  0
 19 35  1  0  0  0  0
 19 20  2  0  0  0  0
 36 39  1  0  0  0  0
  8 11  1  0  0  0  0
 45 46  1  0  0  0  0
 18 21  1  0  0  0  0
 35 36  1  0  0  0  0
  7  8  1  0  0  0  0
 17 18  1  0  0  0  0
 24 32  1  0  0  0  0
 25 33  1  0  0  0  0
  3  4  1  0  0  0  0
  3  5  1  0  0  0  0
  3  6  1  0  0  0  0
 39 42  1  0  0  0  0
 39 43  1  0  0  0  0
 39 44  1  0  0  0  0
 11 14  1  0  0  0  0
 11 15  1  0  0  0  0
 11 16  1  0  0  0  0
 46 48  1  0  0  0  0
 46 49  1  0  0  0  0
 46 50  1  0  0  0  0
 21 29  1  0  0  0  0
 21 30  1  0  0  0  0
 36 41  1  0  0  0  0
  8 13  1  0  0  0  0
 18 28  1  0  0  0  0
 26 34  1  0  0  0  0
 23 31  1  0  0  0  0
 45 47  1  0  0  0  0
  7 12  1  0  0  0  0
 35 40  1  0  0  0  0
 17 27  1  0  0  0  0
M  CHG  1  23   1
M  END
$$$$

  -OEChem-05262214473D

 50 50  0     1  0  0  0  0  0999 V2000
   -1.6938    0.4865    3.8080 C   0  0  0  0  0  0  0  0  0  0  0  0
   -0.7464   -0.1282    3.3323 O   0  0  0  0  0  0  0  0  0  0  0  0
   -2.1257    0.2041    5.2087 C   0  0  0  0  0  0  0  0  0  0  0  0
   -2.8853   -0.5922    5.2621 H   0  0  0  0  0  0  0  0  0  0  0  0
   -1.2944   -0.1435    5.8430 H   0  0  0  0  0  0  0  0  0  0  0  0
   -2.5637    1.0590    5.7483 H   0  0  0  0  0  0  0  0  0  0  0  0
   -2.4435    1.4589    3.1669 N   0  0  0  0  0  0  0  0  0  0  0  0
   -2.1966    1.8850    1.8145 C   0  0  2  0  0  0  0  0  0  0  0  0
   -0.8617    1.2996    1.3733 C   0  0  0  0  0  0  0  0  0  0  0  0
    0.0104    0.9468    2.1646 O   0  0  0  0  0  0  0  0  0  0  0  0
   -2.1879    3.4017    1.7050 C   0  0  0  0  0  0  0  0  0  0  0  0
   -3.2085    1.8948    3.6787 H   0  0  0  0  0  0  0  0  0  0  0  0
   -3.0007    1.4665    1.1994 H   0  0  0  0  0  0  0  0  0  0  0  0
   -1.3888    3.8390    2.3147 H   0  0  0  0  0  0  0  0  0  0  0  0
   -2.0284    3.7240    0.6708 H   0  0  0  0  0  0  0  0  0  0  0  0
   -3.1380    3.8230    2.0508 H   0  0  0  0  0  0  0  0  0  0  0  0
   -0.7390    1.2565   -0.0101 N   0  0  0  0  0  0  0  0  0  0  0  0
    0.4383    0.7557   -0.6738 C   0  0  2  0  0  0  0  0  0  0  0  0
    0.8340   -0.5396    0.0261 C   0  0  0  0  0  0  0  0  0  0  0  0
    0.8246   -0.6696    1.2484 O   0  0  0  0  0  0  0  0  0  0  0  0
    1.5968    1.7588   -0.6330 C   0  0  0  0  0  0  0  0  0  0  0  0
    1.2931    3.0320   -1.3843 C   0  0  0  0  0  0  0  0  0  0  0  0
    1.2997    3.0836   -2.7573 N   0  3  0  0  0  0  0  0  0  0  0  0
    0.9799    4.2873   -0.9450 C   0  0  0  0  0  0  0  0  0  0  0  0
    1.0023    4.3239   -3.1582 C   0  0  0  0  0  0  0  0  0  0  0  0
    0.8058    5.0660   -2.0636 N   0  0  0  0  0  0  0  0  0  0  0  0
   -1.5221    1.5532   -0.5874 H   0  0  0  0  0  0  0  0  0  0  0  0
    0.1434    0.5306   -1.7054 H   0  0  0  0  0  0  0  0  0  0  0  0
    2.5106    1.3012   -1.0357 H   0  0  0  0  0  0  0  0  0  0  0  0
    1.8401    2.0218    0.4050 H   0  0  0  0  0  0  0  0  0  0  0  0
    1.5001    2.3032   -3.3767 H   0  0  0  0  0  0  0  0  0  0  0  0
    0.8527    4.7582    0.0094 H   0  0  0  0  0  0  0  0  0  0  0  0
    0.9343    4.6637   -4.1782 H   0  0  0  0  0  0  0  0  0  0  0  0
    0.5657    6.0533   -2.0623 H   0  0  0  0  0  0  0  0  0  0  0  0
    1.1492   -1.5438   -0.8787 N   0  0  0  0  0  0  0  0  0  0  0  0
    1.5352   -2.8784   -0.4805 C   0  0  2  0  0  0  0  0  0  0  0  0
    2.6359   -2.7572    0.5651 C   0  0  0  0  0  0  0  0  0  0  0  0
    3.3480   -1.7615    0.6772 O   0  0  0  0  0  0  0  0  0  0  0  0
    2.0056   -3.6972   -1.6725 C   0  0  0  0  0  0  0  0  0  0  0  0
    1.1064   -1.3299   -1.8708 H   0  0  0  0  0  0  0  0  0  0  0  0
    0.6512   -3.3418   -0.0290 H   0  0  0  0  0  0  0  0  0  0  0  0
    2.8906   -3.2483   -2.1380 H   0  0  0  0  0  0  0  0  0  0  0  0
    2.2706   -4.7168   -1.3737 H   0  0  0  0  0  0  0  0  0  0  0  0
    1.2231   -3.7583   -2.4366 H   0  0  0  0  0  0  0  0  0  0  0  0
    2.7580   -3.9088    1.3301 N   0  0  0  0  0  0  0  0  0  0  0  0
    3.7395   -4.0464    2.3807 C   0  0  0  0  0  0  0  0  0  0  0  0
    2.1125   -4.6787    1.1807 H   0  0  0  0  0  0  0  0  0  0  0  0
    4.6518   -4.5061    1.9730 H   0  0  0  0  0  0  0  0  0  0  0  0
    3.9804   -3.0540    2.7896 H   0  0  0  0  0  0  0  0  0  0  0  0
    3.3337   -4.6837    3.1802 H   0  0  0  0  0  0  0  0  0  0  0  0
 22 24  2  0  0  0  0
 24 26  1  0  0  0  0
 25 26  1  0  0  0  0
 23 25  2  0  0  0  0
 21 22  1  0  0  0  0
 22 23  1  0  0  0  0
  1  3  1  0  0  0  0
  1  7  1  0  0  0  0
  1  2  2  0  0  0  0
 36 37  1  0  0  0  0
 37 45  1  0  0  0  0
 37 38  2  0  0  0  0
  8  9  1  0  0  0  0
  9 17  1  0  0  0  0
  9 10  2  0  0  0  0
 18 19  1  0  0  0  0
 19 35  1  0  0  0  0
 19 20  2  0  0  0  0
 36 39  1  0  0  0  0
  8 11  1  0  0  0  0
 45 46  1  0  0  0  0
 18 21  1  0  0  0  0
 35 36  1  0  0  0  0
  7  8  1  0  0  0  0
 17 18  1  0  0  0  0
 24 32  1  0  0  0  0
 25 33  1  0  0  0  0
  3  4  1  0  0  0  0
  3  5  1  0  0  0  0
  3  6  1  0  0  0  0
 39 42  1  0  0  0  0
 39 43  1  0  0  0  0
 39 44  1  0  0  0  0
 11 14  1  0  0  0  0
 11 15  1  0  0  0  0
 11 16  1  0  0  0  0
 46 48  1  0  0  0  0
 46 49  1  0  0  0  0
 46 50  1  0  0  0  0
 21 29  1  0  0  0  0
 21 30  1  0  0  0  0
 36 41  1  0  0  0  0
  8 13  1  0  0  0  0
 18 28  1  0  0  0  0
 26 34  1  0  0  0  0
 23 31  1  0  0  0  0
 45 47  1  0  0  0  0
  7 12  1  0  0  0  0
 35 40  1  0  0  0  0
 17 27  1  0  0  0  0
M  CHG  1  23   1
M  END
$$$$

  -OEChem-05262214473D

 50 50  0     1  0  0  0  0  0999 V2000
   -1.6938    0.4865    3.8080 C   0  0  0  0  0  0  0  0  0  0  0  0
   -0.7464   -0.1282    3.3323 O   0  0  0  0  0  0  0  0  0  0  0  0
   -2.1257    0.2041    5.2087 C   0  0  0  0  0  0  0  0  0  0  0  0
   -2.8853   -0.5922    5.2621 H   0  0  0  0  0  0  0  0  0  0  0  0
   -1.2944   -0.1435    5.8430 H   0  0  0  0  0  0  0  0  0  0  0  0
   -2.5637    1.0590    5.7483 H   0  0  0  0  0  0  0  0  0  0  0  0
   -2.4435    1.4589    3.1669 N   0  0  0  0  0  0  0  0  0  0  0  0
   -2.1966    1.8850    1.8145 C   0  0  2  0  0  0  0  0  0  0  0  0
   -0.8617    1.2996    1.3733 C   0  0  0  0  0  0  0  0  0  0  0  0
    0.0104    0.9468    2.1646 O   0  0  0  0  0  0  0  0  0  0  0  0
   -2.1879    3.4017    1.7050 C   0  0  0  0  0  0  0  0  0  0  0  0
   -3.2085    1.8948    3.6787 H   0  0  0  0  0  0  0  0  0  0  0  0
   -3.0007    1.4665    1.1994 H   0  0  0  0  0  0  0  0  0  0  0  0
   -1.3888    3.8390    2.3147 H   0  0  0  0  0  0  0  0  0  0  0  0
   -2.0284    3.7240    0.6708 H   0  0  0  0  0  0  0  0  0  0  0  0
   -3.1380    3.8230    2.0508 H   0  0  0  0  0  0  0  0  0  0  0  0
   -0.7390    1.2565   -0.0101 N   0  0  0  0  0  0  0  0  0  0  0  0
    0.4383    0.7557   -0.6738 C   0  0  2  0  0  0  0  0  0  0  0  0
    0.8340   -0.5396    0.0261 C   0  0  0  0  0  0  0  0  0  0  0  0
    0.5775   -0.7677    1.2064 O   0  0  0  0  0  0  0  0  0  0  0  0
    1.5968    1.7588   -0.6330 C   0  0  0  0  0  0  0  0  0  0  0  0
    1.2931    3.0320   -1.3843 C   0  0  0  0  0  0  0  0  0  0  0  0
    1.2997    3.0836   -2.7573 N   0  3  0  0  0  0  0  0  0  0  0  0
    0.9799    4.2873   -0.9450 C   0  0  0  0  0  0  0  0  0  0  0  0
    1.0023    4.3239   -3.1582 C   0  0  0  0  0  0  0  0  0  0  0  0
    0.8058    5.0660   -2.0636 N   0  0  0  0  0  0  0  0  0  0  0  0
   -1.5221    1.5532   -0.5874 H   0  0  0  0  0  0  0  0  0  0  0  0
    0.1434    0.5306   -1.7054 H   0  0  0  0  0  0  0  0  0  0  0  0
    2.5106    1.3012   -1.0357 H   0  0  0  0  0  0  0  0  0  0  0  0
    1.8401    2.0218    0.4050 H   0  0  0  0  0  0  0  0  0  0  0  0
    1.5001    2.3032   -3.3767 H   0  0  0  0  0  0  0  0  0  0  0  0
    0.8527    4.7582    0.0094 H   0  0  0  0  0  0  0  0  0  0  0  0
    0.9343    4.6637   -4.1782 H   0  0  0  0  0  0  0  0  0  0  0  0
    0.5657    6.0533   -2.0623 H   0  0  0  0  0  0  0  0  0  0  0  0
    1.4613   -1.4264   -0.8379 N   0  0  0  0  0  0  0  0  0  0  0  0
    1.9177   -2.7374   -0.4358 C   0  0  2  0  0  0  0  0  0  0  0  0
    2.7425   -2.5790    0.8347 C   0  0  0  0  0  0  0  0  0  0  0  0
    3.2820   -1.5225    1.1569 O   0  0  0  0  0  0  0  0  0  0  0  0
    2.7339   -3.4002   -1.5346 C   0  0  0  0  0  0  0  0  0  0  0  0
    1.6070   -1.1394   -1.8014 H   0  0  0  0  0  0  0  0  0  0  0  0
    1.0229   -3.3312   -0.2194 H   0  0  0  0  0  0  0  0  0  0  0  0
    3.6345   -2.8196   -1.7651 H   0  0  0  0  0  0  0  0  0  0  0  0
    3.0548   -4.4047   -1.2394 H   0  0  0  0  0  0  0  0  0  0  0  0
    2.1489   -3.4863   -2.4566 H   0  0  0  0  0  0  0  0  0  0  0  0
    2.8411   -3.7676    1.5444 N   0  0  0  0  0  0  0  0  0  0  0  0
    3.5820   -3.8792    2.7792 C   0  0  0  0  0  0  0  0  0  0  0  0
    2.3456   -4.5901    1.2130 H   0  0  0  0  0  0  0  0  0  0  0  0
    4.6114   -4.2002    2.5620 H   0  0  0  0  0  0  0  0  0  0  0  0
    3.6016   -2.9023    3.2844 H   0  0  0  0  0  0  0  0  0  0  0  0
    3.0970   -4.6200    3.4320 H   0  0  0  0  0  0  0  0  0  0  0  0
 22 24  2  0  0  0  0
 24 26  1  0  0  0  0
 25 26  1  0  0  0  0
 23 25  2  0  0  0  0
 21 22  1  0  0  0  0
 22 23  1  0  0  0  0
  1  3  1  0  0  0  0
  1  7  1  0  0  0  0
  1  2  2  0  0  0  0
 36 37  1  0  0  0  0
 37 45  1  0  0  0  0
 37 38  2  0  0  0  0
  8  9  1  0  0  0  0
  9 17  1  0  0  0  0
  9 10  2  0  0  0  0
 18 19  1  0  0  0  0
 19 35  1  0  0  0  0
 19 20  2  0  0  0  0
 36 39  1  0  0  0  0
  8 11  1  0  0  0  0
 45 46  1  0  0  0  0
 18 21  1  0  0  0  0
 35 36  1  0  0  0  0
  7  8  1  0  0  0  0
 17 18  1  0  0  0  0
 24 32  1  0  0  0  0
 25 33  1  0  0  0  0
  3  4  1  0  0  0  0
  3  5  1  0  0  0  0
  3  6  1  0  0  0  0
 39 42  1  0  0  0  0
 39 43  1  0  0  0  0
 39 44  1  0  0  0  0
 11 14  1  0  0  0  0
 11 15  1  0  0  0  0
 11 16  1  0  0  0  0
 46 48  1  0  0  0  0
 46 49  1  0  0  0  0
 46 50  1  0  0  0  0
 21 29  1  0  0  0  0
 21 30  1  0  0  0  0
 36 41  1  0  0  0  0
  8 13  1  0  0  0  0
 18 28  1  0  0  0  0
 26 34  1  0  0  0  0
 23 31  1  0  0  0  0
 45 47  1  0  0  0  0
  7 12  1  0  0  0  0
 35 40  1  0  0  0  0
 17 27  1  0  0  0  0
M  CHG  1  23   1
M  END
$$$$

  -OEChem-05262214473D

 50 50  0     1  0  0  0  0  0999 V2000
   -1.6938    0.4865    3.8080 C   0  0  0  0  0  0  0  0  0  0  0  0
   -0.7464   -0.1282    3.3323 O   0  0  0  0  0  0  0  0  0  0  0  0
   -2.1257    0.2041    5.2087 C   0  0  0  0  0  0  0  0  0  0  0  0
   -2.8853   -0.5922    5.2621 H   0  0  0  0  0  0  0  0  0  0  0  0
   -1.2944   -0.1435    5.8430 H   0  0  0  0  0  0  0  0  0  0  0  0
   -2.5637    1.0590    5.7483 H   0  0  0  0  0  0  0  0  0  0  0  0
   -2.4435    1.4589    3.1669 N   0  0  0  0  0  0  0  0  0  0  0  0
   -2.1966    1.8850    1.8145 C   0  0  2  0  0  0  0  0  0  0  0  0
   -0.8617    1.2996    1.3733 C   0  0  0  0  0  0  0  0  0  0  0  0
    0.0104    0.9468    2.1646 O   0  0  0  0  0  0  0  0  0  0  0  0
   -2.1879    3.4017    1.7050 C   0  0  0  0  0  0  0  0  0  0  0  0
   -3.2085    1.8948    3.6787 H   0  0  0  0  0  0  0  0  0  0  0  0
   -3.0007    1.4665    1.1994 H   0  0  0  0  0  0  0  0  0  0  0  0
   -1.3888    3.8390    2.3147 H   0  0  0  0  0  0  0  0  0  0  0  0
   -2.0284    3.7240    0.6708 H   0  0  0  0  0  0  0  0  0  0  0  0
   -3.1380    3.8230    2.0508 H   0  0  0  0  0  0  0  0  0  0  0  0
   -0.7390    1.2565   -0.0101 N   0  0  0  0  0  0  0  0  0  0  0  0
    0.4383    0.7557   -0.6738 C   0  0  2  0  0  0  0  0  0  0  0  0
    0.8340   -0.5396    0.0261 C   0  0  0  0  0  0  0  0  0  0  0  0
    0.3597   -0.8891    1.1049 O   0  0  0  0  0  0  0  0  0  0  0  0
    1.5968    1.7588   -0.6330 C   0  0  0  0  0  0  0  0  0  0  0  0
    1.2931    3.0320   -1.3843 C   0  0  0  0  0  0  0  0  0  0  0  0
    1.2997    3.0836   -2.7573 N   0  3  0  0  0  0  0  0  0  0  0  0
    0.9799    4.2873   -0.9450 C   0  0  0  0  0  0  0  0  0  0  0  0
    1.0023    4.3239   -3.1582 C   0  0  0  0  0  0  0  0  0  0  0  0
    0.8058    5.0660   -2.0636 N   0  0  0  0  0  0  0  0  0  0  0  0
   -1.5221    1.5532   -0.5874 H   0  0  0  0  0  0  0  0  0  0  0  0
    0.1434    0.5306   -1.7054 H   0  0  0  0  0  0  0  0  0  0  0  0
    2.5106    1.3012   -1.0357 H   0  0  0  0  0  0  0  0  0  0  0  0
    1.8401    2.0218    0.4050 H   0  0  0  0  0  0  0  0  0  0  0  0
    1.5001    2.3032   -3.3767 H   0  0  0  0  0  0  0  0  0  0  0  0
    0.8527    4.7582    0.0094 H   0  0  0  0  0  0  0  0  0  0  0  0
    0.9343    4.6637   -4.1782 H   0  0  0  0  0  0  0  0  0  0  0  0
    0.5657    6.0533   -2.0623 H   0  0  0  0  0  0  0  0  0  0  0  0
    1.7399   -1.2786   -0.7220 N   0  0  0  0  0  0  0  0  0  0  0  0
    2.2606   -2.5588   -0.2991 C   0  0  2  0  0  0  0  0  0  0  0  0
    2.7649   -2.4123    1.1305 C   0  0  0  0  0  0  0  0  0  0  0  0
    3.0843   -1.3317    1.6218 O   0  0  0  0  0  0  0  0  0  0  0  0
    3.3717   -3.0361   -1.2212 C   0  0  0  0  0  0  0  0  0  0  0  0
    2.0527   -0.9007   -1.6114 H   0  0  0  0  0  0  0  0  0  0  0  0
    1.4226   -3.2639   -0.3209 H   0  0  0  0  0  0  0  0  0  0  0  0
    4.2202   -2.3422   -1.2126 H   0  0  0  0  0  0  0  0  0  0  0  0
    3.7456   -4.0191   -0.9162 H   0  0  0  0  0  0  0  0  0  0  0  0
    3.0152   -3.1123   -2.2541 H   0  0  0  0  0  0  0  0  0  0  0  0
    2.8574   -3.6358    1.7792 N   0  0  0  0  0  0  0  0  0  0  0  0
    3.3223   -3.7632    3.1407 C   0  0  0  0  0  0  0  0  0  0  0  0
    2.5531   -4.4789    1.3014 H   0  0  0  0  0  0  0  0  0  0  0  0
    4.4065   -3.9492    3.1425 H   0  0  0  0  0  0  0  0  0  0  0  0
    3.1088   -2.8340    3.6894 H   0  0  0  0  0  0  0  0  0  0  0  0
    2.8054   -4.6034    3.6274 H   0  0  0  0  0  0  0  0  0  0  0  0
 22 24  2  0  0  0  0
 24 26  1  0  0  0  0
 25 26  1  0  0  0  0
 23 25  2  0  0  0  0
 21 22  1  0  0  0  0
 22 23  1  0  0  0  0
  1  3  1  0  0  0  0
  1  7  1  0  0  0  0
  1  2  2  0  0  0  0
 36 37  1  0  0  0  0
 37 45  1  0  0  0  0
 37 38  2  0  0  0  0
  8  9  1  0  0  0  0
  9 17  1  0  0  0  0
  9 10  2  0  0  0  0
 18 19  1  0  0  0  0
 19 35  1  0  0  0  0
 19 20  2  0  0  0  0
 36 39  1  0  0  0  0
  8 11  1  0  0  0  0
 45 46  1  0  0  0  0
 18 21  1  0  0  0  0
 35 36  1  0  0  0  0
  7  8  1  0  0  0  0
 17 18  1  0  0  0  0
 24 32  1  0  0  0  0
 25 33  1  0  0  0  0
  3  4  1  0  0  0  0
  3  5  1  0  0  0  0
  3  6  1  0  0  0  0
 39 42  1  0  0  0  0
 39 43  1  0  0  0  0
 39 44  1  0  0  0  0
 11 14  1  0  0  0  0
 11 15  1  0  0  0  0
 11 16  1  0  0  0  0
 46 48  1  0  0  0  0
 46 49  1  0  0  0  0
 46 50  1  0  0  0  0
 21 29  1  0  0  0  0
 21 30  1  0  0  0  0
 36 41  1  0  0  0  0
  8 13  1  0  0  0  0
 18 28  1  0  0  0  0
 26 34  1  0  0  0  0
 23 31  1  0  0  0  0
 45 47  1  0  0  0  0
  7 12  1  0  0  0  0
 35 40  1  0  0  0  0
 17 27  1  0  0  0  0
M  CHG  1  23   1
M  END
$$$$

  -OEChem-05262214473D

 50 50  0     1  0  0  0  0  0999 V2000
   -1.6938    0.4865    3.8080 C   0  0  0  0  0  0  0  0  0  0  0  0
   -0.7464   -0.1282    3.3323 O   0  0  0  0  0  0  0  0  0  0  0  0
   -2.1257    0.2041    5.2087 C   0  0  0  0  0  0  0  0  0  0  0  0
   -2.8853   -0.5922    5.2621 H   0  0  0  0  0  0  0  0  0  0  0  0
   -1.2944   -0.1435    5.8430 H   0  0  0  0  0  0  0  0  0  0  0  0
   -2.5637    1.0590    5.7483 H   0  0  0  0  0  0  0  0  0  0  0  0
   -2.4435    1.4589    3.1669 N   0  0  0  0  0  0  0  0  0  0  0  0
   -2.1966    1.8850    1.8145 C   0  0  2  0  0  0  0  0  0  0  0  0
   -0.8617    1.2996    1.3733 C   0  0  0  0  0  0  0  0  0  0  0  0
    0.0104    0.9468    2.1646 O   0  0  0  0  0  0  0  0  0  0  0  0
   -2.1879    3.4017    1.7050 C   0  0  0  0  0  0  0  0  0  0  0  0
   -3.2085    1.8948    3.6787 H   0  0  0  0  0  0  0  0  0  0  0  0
   -3.0007    1.4665    1.1994 H   0  0  0  0  0  0  0  0  0  0  0  0
   -1.3888    3.8390    2.3147 H   0  0  0  0  0  0  0  0  0  0  0  0
   -2.0284    3.7240    0.6708 H   0  0  0  0  0  0  0  0  0  0  0  0
   -3.1380    3.8230    2.0508 H   0  0  0  0  0  0  0  0  0  0  0  0
   -0.7390    1.2565   -0.0101 N   0  0  0  0  0  0  0  0  0  0  0  0
    0.4383    0.7557   -0.6738 C   0  0  2  0  0  0  0  0  0  0  0  0
    0.6157   -0.6959   -0.2431 C   0  0  0  0  0  0  0  0  0  0  0  0
   -0.1730   -1.2741    0.5015 O   0  0  0  0  0  0  0  0  0  0  0  0
    1.6894    1.5711   -0.3272 C   0  0  0  0  0  0  0  0  0  0  0  0
    1.6057    3.0000   -0.8056 C   0  0  0  0  0  0  0  0  0  0  0  0
    1.7589    3.3320   -2.1301 N   0  3  0  0  0  0  0  0  0  0  0  0
    1.3884    4.1676   -0.1300 C   0  0  0  0  0  0  0  0  0  0  0  0
    1.6419    4.6560   -2.2742 C   0  0  0  0  0  0  0  0  0  0  0  0
    1.4165    5.1758   -1.0632 N   0  0  0  0  0  0  0  0  0  0  0  0
   -1.5221    1.5532   -0.5874 H   0  0  0  0  0  0  0  0  0  0  0  0
    0.2281    0.7878   -1.7493 H   0  0  0  0  0  0  0  0  0  0  0  0
    2.5840    1.0924   -0.7479 H   0  0  0  0  0  0  0  0  0  0  0  0
    1.8520    1.5811    0.7587 H   0  0  0  0  0  0  0  0  0  0  0  0
    1.9352    2.6767   -2.8866 H   0  0  0  0  0  0  0  0  0  0  0  0
    1.2161    4.4442    0.8911 H   0  0  0  0  0  0  0  0  0  0  0  0
    1.7167    5.2045   -3.1983 H   0  0  0  0  0  0  0  0  0  0  0  0
    1.2870    6.1642   -0.8663 H   0  0  0  0  0  0  0  0  0  0  0  0
    1.7304   -1.2793   -0.8293 N   0  0  0  0  0  0  0  0  0  0  0  0
    2.1151   -2.6547   -0.6080 C   0  0  2  0  0  0  0  0  0  0  0  0
    2.1285   -2.9034    0.8945 C   0  0  0  0  0  0  0  0  0  0  0  0
    2.2487   -2.0027    1.7224 O   0  0  0  0  0  0  0  0  0  0  0  0
    3.4742   -2.9546   -1.2207 C   0  0  0  0  0  0  0  0  0  0  0  0
    2.3047   -0.7109   -1.4449 H   0  0  0  0  0  0  0  0  0  0  0  0
    1.3445   -3.2777   -1.0749 H   0  0  0  0  0  0  0  0  0  0  0  0
    4.2592   -2.3398   -0.7654 H   0  0  0  0  0  0  0  0  0  0  0  0
    3.7514   -4.0042   -1.0770 H   0  0  0  0  0  0  0  0  0  0  0  0
    3.4713   -2.7469   -2.2962 H   0  0  0  0  0  0  0  0  0  0  0  0
    2.0339   -4.2537    1.2009 N   0  0  0  0  0  0  0  0  0  0  0  0
    2.0380   -4.7473    2.5582 C   0  0  0  0  0  0  0  0  0  0  0  0
    1.9183   -4.9292    0.4513 H   0  0  0  0  0  0  0  0  0  0  0  0
    3.0676   -4.9956    2.8555 H   0  0  0  0  0  0  0  0  0  0  0  0
    1.6388   -3.9738    3.2308 H   0  0  0  0  0  0  0  0  0  0  0  0
    1.4105   -5.6484    2.6225 H   0  0  0  0  0  0  0  0  0  0  0  0
 22 24  2  0  0  0  0
 24 26  1  0  0  0  0
 25 26  1  0  0  0  0
 23 25  2  0  0  0  0
 21 22  1  0  0  0  0
 22 23  1  0  0  0  0
  1  3  1  0  0  0  0
  1  7  1  0  0  0  0
  1  2  2  0  0  0  0
 36 37  1  0  0  0  0
 37 45  1  0  0  0  0
 37 38  2  0  0  0  0
  8  9  1  0  0  0  0
  9 17  1  0  0  0  0
  9 10  2  0  0  0  0
 18 19  1  0  0  0  0
 19 35  1  0  0  0  0
 19 20  2  0  0  0  0
 36 39  1  0  0  0  0
  8 11  1  0  0  0  0
 45 46  1  0  0  0  0
 18 21  1  0  0  0  0
 35 36  1  0  0  0  0
  7  8  1  0  0  0  0
 17 18  1  0  0  0  0
 24 32  1  0  0  0  0
 25 33  1  0  0  0  0
  3  4  1  0  0  0  0
  3  5  1  0  0  0  0
  3  6  1  0  0  0  0
 39 42  1  0  0  0  0
 39 43  1  0  0  0  0
 39 44  1  0  0  0  0
 11 14  1  0  0  0  0
 11 15  1  0  0  0  0
 11 16  1  0  0  0  0
 46 48  1  0  0  0  0
 46 49  1  0  0  0  0
 46 50  1  0  0  0  0
 21 29  1  0  0  0  0
 21 30  1  0  0  0  0
 36 41  1  0  0  0  0
  8 13  1  0  0  0  0
 18 28  1  0  0  0  0
 26 34  1  0  0  0  0
 23 31  1  0  0  0  0
 45 47  1  0  0  0  0
  7 12  1  0  0  0  0
 35 40  1  0  0  0  0
 17 27  1  0  0  0  0
M  CHG  1  23   1
M  END
$$$$

  -OEChem-05262214473D

 50 50  0     1  0  0  0  0  0999 V2000
   -1.6938    0.4865    3.8080 C   0  0  0  0  0  0  0  0  0  0  0  0
   -0.7464   -0.1282    3.3323 O   0  0  0  0  0  0  0  0  0  0  0  0
   -2.1257    0.2041    5.2087 C   0  0  0  0  0  0  0  0  0  0  0  0
   -2.8853   -0.5922    5.2621 H   0  0  0  0  0  0  0  0  0  0  0  0
   -1.2944   -0.1435    5.8430 H   0  0  0  0  0  0  0  0  0  0  0  0
   -2.5637    1.0590    5.7483 H   0  0  0  0  0  0  0  0  0  0  0  0
   -2.4435    1.4589    3.1669 N   0  0  0  0  0  0  0  0  0  0  0  0
   -2.1966    1.8850    1.8145 C   0  0  2  0  0  0  0  0  0  0  0  0
   -0.8617    1.2996    1.3733 C   0  0  0  0  0  0  0  0  0  0  0  0
    0.0104    0.9468    2.1646 O   0  0  0  0  0  0  0  0  0  0  0  0
   -2.1879    3.4017    1.7050 C   0  0  0  0  0  0  0  0  0  0  0  0
   -3.2085    1.8948    3.6787 H   0  0  0  0  0  0  0  0  0  0  0  0
   -3.0007    1.4665    1.1994 H   0  0  0  0  0  0  0  0  0  0  0  0
   -1.3888    3.8390    2.3147 H   0  0  0  0  0  0  0  0  0  0  0  0
   -2.0284    3.7240    0.6708 H   0  0  0  0  0  0  0  0  0  0  0  0
   -3.1380    3.8230    2.0508 H   0  0  0  0  0  0  0  0  0  0  0  0
   -0.7390    1.2565   -0.0101 N   0  0  0  0  0  0  0  0  0  0  0  0
    0.4383    0.7557   -0.6738 C   0  0  2  0  0  0  0  0  0  0  0  0
    0.6157   -0.6959   -0.2431 C   0  0  0  0  0  0  0  0  0  0  0  0
   -0.2847   -1.3562    0.2708 O   0  0  0  0  0  0  0  0  0  0  0  0
    1.6894    1.5711   -0.3272 C   0  0  0  0  0  0  0  0  0  0  0  0
    1.6057    3.0000   -0.8056 C   0  0  0  0  0  0  0  0  0  0  0  0
    1.7589    3.3320   -2.1301 N   0  3  0  0  0  0  0  0  0  0  0  0
    1.3884    4.1676   -0.1300 C   0  0  0  0  0  0  0  0  0  0  0  0
    1.6419    4.6560   -2.2742 C   0  0  0  0  0  0  0  0  0  0  0  0
    1.4165    5.1758   -1.0632 N   0  0  0  0  0  0  0  0  0  0  0  0
   -1.5221    1.5532   -0.5874 H   0  0  0  0  0  0  0  0  0  0  0  0
    0.2281    0.7878   -1.7493 H   0  0  0  0  0  0  0  0  0  0  0  0
    2.5840    1.0924   -0.7479 H   0  0  0  0  0  0  0  0  0  0  0  0
    1.8520    1.5811    0.7587 H   0  0  0  0  0  0  0  0  0  0  0  0
    1.9352    2.6767   -2.8866 H   0  0  0  0  0  0  0  0  0  0  0  0
    1.2161    4.4442    0.8911 H   0  0  0  0  0  0  0  0  0  0  0  0
    1.7167    5.2045   -3.1983 H   0  0  0  0  0  0  0  0  0  0  0  0
    1.2870    6.1642   -0.8663 H   0  0  0  0  0  0  0  0  0  0  0  0
    1.8816   -1.1771   -0.5472 N   0  0  0  0  0  0  0  0  0  0  0  0
    2.3048   -2.5302   -0.2664 C   0  0  2  0  0  0  0  0  0  0  0  0
    1.9683   -2.8361    1.1871 C   0  0  0  0  0  0  0  0  0  0  0  0
    1.8121   -1.9625    2.0377 O   0  0  0  0  0  0  0  0  0  0  0  0
    3.7917   -2.7108   -0.5297 C   0  0  0  0  0  0  0  0  0  0  0  0
    2.5439   -0.5466   -0.9894 H   0  0  0  0  0  0  0  0  0  0  0  0
    1.7226   -3.1863   -0.9225 H   0  0  0  0  0  0  0  0  0  0  0  0
    4.3913   -2.0614    0.1185 H   0  0  0  0  0  0  0  0  0  0  0  0
    4.1050   -3.7434   -0.3439 H   0  0  0  0  0  0  0  0  0  0  0  0
    4.0367   -2.4617   -1.5679 H   0  0  0  0  0  0  0  0  0  0  0  0
    1.9055   -4.2007    1.4322 N   0  0  0  0  0  0  0  0  0  0  0  0
    1.6145   -4.7458    2.7376 C   0  0  0  0  0  0  0  0  0  0  0  0
    2.0297   -4.8527    0.6633 H   0  0  0  0  0  0  0  0  0  0  0  0
    2.5556   -4.9336    3.2752 H   0  0  0  0  0  0  0  0  0  0  0  0
    1.0042   -4.0289    3.3065 H   0  0  0  0  0  0  0  0  0  0  0  0
    1.0617   -5.6901    2.6256 H   0  0  0  0  0  0  0  0  0  0  0  0
 22 24  2  0  0  0  0
 24 26  1  0  0  0  0
 25 26  1  0  0  0  0
 23 25  2  0  0  0  0
 21 22  1  0  0  0  0
 22 23  1  0  0  0  0
  1  3  1  0  0  0  0
  1  7  1  0  0  0  0
  1  2  2  0  0  0  0
 36 37  1  0  0  0  0
 37 45  1  0  0  0  0
 37 38  2  0  0  0  0
  8  9  1  0  0  0  0
  9 17  1  0  0  0  0
  9 10  2  0  0  0  0
 18 19  1  0  0  0  0
 19 35  1  0  0  0  0
 19 20  2  0  0  0  0
 36 39  1  0  0  0  0
  8 11  1  0  0  0  0
 45 46  1  0  0  0  0
 18 21  1  0  0  0  0
 35 36  1  0  0  0  0
  7  8  1  0  0  0  0
 17 18  1  0  0  0  0
 24 32  1  0  0  0  0
 25 33  1  0  0  0  0
  3  4  1  0  0  0  0
  3  5  1  0  0  0  0
  3  6  1  0  0  0  0
 39 42  1  0  0  0  0
 39 43  1  0  0  0  0
 39 44  1  0  0  0  0
 11 14  1  0  0  0  0
 11 15  1  0  0  0  0
 11 16  1  0  0  0  0
 46 48  1  0  0  0  0
 46 49  1  0  0  0  0
 46 50  1  0  0  0  0
 21 29  1  0  0  0  0
 21 30  1  0  0  0  0
 36 41  1  0  0  0  0
  8 13  1  0  0  0  0
 18 28  1  0  0  0  0
 26 34  1  0  0  0  0
 23 31  1  0  0  0  0
 45 47  1  0  0  0  0
  7 12  1  0  0  0  0
 35 40  1  0  0  0  0
 17 27  1  0  0  0  0
M  CHG  1  23   1
M  END
$$$$

  -OEChem-05262214473D

 50 50  0     1  0  0  0  0  0999 V2000
   -1.6938    0.4865    3.8080 C   0  0  0  0  0  0  0  0  0  0  0  0
   -0.7464   -0.1282    3.3323 O   0  0  0  0  0  0  0  0  0  0  0  0
   -2.1257    0.2041    5.2087 C   0  0  0  0  0  0  0  0  0  0  0  0
   -2.8853   -0.5922    5.2621 H   0  0  0  0  0  0  0  0  0  0  0  0
   -1.2944   -0.1435    5.8430 H   0  0  0  0  0  0  0  0  0  0  0  0
   -2.5637    1.0590    5.7483 H   0  0  0  0  0  0  0  0  0  0  0  0
   -2.4435    1.4589    3.1669 N   0  0  0  0  0  0  0  0  0  0  0  0
   -2.1966    1.8850    1.8145 C   0  0  2  0  0  0  0  0  0  0  0  0
   -0.8617    1.2996    1.3733 C   0  0  0  0  0  0  0  0  0  0  0  0
    0.0104    0.9468    2.1646 O   0  0  0  0  0  0  0  0  0  0  0  0
   -2.1879    3.4017    1.7050 C   0  0  0  0  0  0  0  0  0  0  0  0
   -3.2085    1.8948    3.6787 H   0  0  0  0  0  0  0  0  0  0  0  0
   -3.0007    1.4665    1.1994 H   0  0  0  0  0  0  0  0  0  0  0  0
   -1.3888    3.8390    2.3147 H   0  0  0  0  0  0  0  0  0  0  0  0
   -2.0284    3.7240    0.6708 H   0  0  0  0  0  0  0  0  0  0  0  0
   -3.1380    3.8230    2.0508 H   0  0  0  0  0  0  0  0  0  0  0  0
   -0.7390    1.2565   -0.0101 N   0  0  0  0  0  0  0  0  0  0  0  0
    0.4383    0.7557   -0.6738 C   0  0  2  0  0  0  0  0  0  0  0  0
    0.6157   -0.6959   -0.2431 C   0  0  0  0  0  0  0  0  0  0  0  0
   -0.3298   -1.4368    0.0180 O   0  0  0  0  0  0  0  0  0  0  0  0
    1.6894    1.5711   -0.3272 C   0  0  0  0  0  0  0  0  0  0  0  0
    1.6057    3.0000   -0.8056 C   0  0  0  0  0  0  0  0  0  0  0  0
    1.7589    3.3320   -2.1301 N   0  3  0  0  0  0  0  0  0  0  0  0
    1.3884    4.1676   -0.1300 C   0  0  0  0  0  0  0  0  0  0  0  0
    1.6419    4.6560   -2.2742 C   0  0  0  0  0  0  0  0  0  0  0  0
    1.4165    5.1758   -1.0632 N   0  0  0  0  0  0  0  0  0  0  0  0
   -1.5221    1.5532   -0.5874 H   0  0  0  0  0  0  0  0  0  0  0  0
    0.2281    0.7878   -1.7493 H   0  0  0  0  0  0  0  0  0  0  0  0
    2.5840    1.0924   -0.7479 H   0  0  0  0  0  0  0  0  0  0  0  0
    1.8520    1.5811    0.7587 H   0  0  0  0  0  0  0  0  0  0  0  0
    1.9352    2.6767   -2.8866 H   0  0  0  0  0  0  0  0  0  0  0  0
    1.2161    4.4442    0.8911 H   0  0  0  0  0  0  0  0  0  0  0  0
    1.7167    5.2045   -3.1983 H   0  0  0  0  0  0  0  0  0  0  0  0
    1.2870    6.1642   -0.8663 H   0  0  0  0  0  0  0  0  0  0  0  0
    1.9506   -1.0759   -0.2344 N   0  0  0  0  0  0  0  0  0  0  0  0
    2.3948   -2.4063    0.1141 C   0  0  2  0  0  0  0  0  0  0  0  0
    1.7366   -2.7917    1.4323 C   0  0  0  0  0  0  0  0  0  0  0  0
    1.3098   -1.9651    2.2358 O   0  0  0  0  0  0  0  0  0  0  0  0
    3.9102   -2.4729    0.2233 C   0  0  0  0  0  0  0  0  0  0  0  0
    2.6507   -0.3840   -0.4855 H   0  0  0  0  0  0  0  0  0  0  0  0
    2.0435   -3.0749   -0.6794 H   0  0  0  0  0  0  0  0  0  0  0  0
    4.2807   -1.8095    1.0133 H   0  0  0  0  0  0  0  0  0  0  0  0
    4.2467   -3.4878    0.4592 H   0  0  0  0  0  0  0  0  0  0  0  0
    4.3825   -2.1668   -0.7164 H   0  0  0  0  0  0  0  0  0  0  0  0
    1.7207   -4.1660    1.6255 N   0  0  0  0  0  0  0  0  0  0  0  0
    1.1611   -4.7808    2.8066 C   0  0  0  0  0  0  0  0  0  0  0  0
    2.0795   -4.7771    0.8978 H   0  0  0  0  0  0  0  0  0  0  0  0
    1.9532   -4.9238    3.5564 H   0  0  0  0  0  0  0  0  0  0  0  0
    0.3767   -4.1308    3.2215 H   0  0  0  0  0  0  0  0  0  0  0  0
    0.7269   -5.7560    2.5414 H   0  0  0  0  0  0  0  0  0  0  0  0
 22 24  2  0  0  0  0
 24 26  1  0  0  0  0
 25 26  1  0  0  0  0
 23 25  2  0  0  0  0
 21 22  1  0  0  0  0
 22 23  1  0  0  0  0
  1  3  1  0  0  0  0
  1  7  1  0  0  0  0
  1  2  2  0  0  0  0
 36 37  1  0  0  0  0
 37 45  1  0  0  0  0
 37 38  2  0  0  0  0
  8  9  1  0  0  0  0
  9 17  1  0  0  0  0
  9 10  2  0  0  0  0
 18 19  1  0  0  0  0
 19 35  1  0  0  0  0
 19 20  2  0  0  0  0
 36 39  1  0  0  0  0
  8 11  1  0  0  0  0
 45 46  1  0  0  0  0
 18 21  1  0  0  0  0
 35 36  1  0  0  0  0
  7  8  1  0  0  0  0
 17 18  1  0  0  0  0
 24 32  1  0  0  0  0
 25 33  1  0  0  0  0
  3  4  1  0  0  0  0
  3  5  1  0  0  0  0
  3  6  1  0  0  0  0
 39 42  1  0  0  0  0
 39 43  1  0  0  0  0
 39 44  1  0  0  0  0
 11 14  1  0  0  0  0
 11 15  1  0  0  0  0
 11 16  1  0  0  0  0
 46 48  1  0  0  0  0
 46 49  1  0  0  0  0
 46 50  1  0  0  0  0
 21 29  1  0  0  0  0
 21 30  1  0  0  0  0
 36 41  1  0  0  0  0
  8 13  1  0  0  0  0
 18 28  1  0  0  0  0
 26 34  1  0  0  0  0
 23 31  1  0  0  0  0
 45 47  1  0  0  0  0
  7 12  1  0  0  0  0
 35 40  1  0  0  0  0
 17 27  1  0  0  0  0
M  CHG  1  23   1
M  END
$$$$

  -OEChem-05262214473D

 50 50  0     1  0  0  0  0  0999 V2000
   -1.6938    0.4865    3.8080 C   0  0  0  0  0  0  0  0  0  0  0  0
   -0.7464   -0.1282    3.3323 O   0  0  0  0  0  0  0  0  0  0  0  0
   -2.1257    0.2041    5.2087 C   0  0  0  0  0  0  0  0  0  0  0  0
   -2.8853   -0.5922    5.2621 H   0  0  0  0  0  0  0  0  0  0  0  0
   -1.2944   -0.1435    5.8430 H   0  0  0  0  0  0  0  0  0  0  0  0
   -2.5637    1.0590    5.7483 H   0  0  0  0  0  0  0  0  0  0  0  0
   -2.4435    1.4589    3.1669 N   0  0  0  0  0  0  0  0  0  0  0  0
   -2.1966    1.8850    1.8145 C   0  0  2  0  0  0  0  0  0  0  0  0
   -0.8617    1.2996    1.3733 C   0  0  0  0  0  0  0  0  0  0  0  0
    0.0104    0.9468    2.1646 O   0  0  0  0  0  0  0  0  0  0  0  0
   -2.1879    3.4017    1.7050 C   0  0  0  0  0  0  0  0  0  0  0  0
   -3.2085    1.8948    3.6787 H   0  0  0  0  0  0  0  0  0  0  0  0
   -3.0007    1.4665    1.1994 H   0  0  0  0  0  0  0  0  0  0  0  0
   -1.3888    3.8390    2.3147 H   0  0  0  0  0  0  0  0  0  0  0  0
   -2.0284    3.7240    0.6708 H   0  0  0  0  0  0  0  0  0  0  0  0
   -3.1380    3.8230    2.0508 H   0  0  0  0  0  0  0  0  0  0  0  0
   -0.7390    1.2565   -0.0101 N   0  0  0  0  0  0  0  0  0  0  0  0
    0.4383    0.7557   -0.6738 C   0  0  2  0  0  0  0  0  0  0  0  0
    0.6157   -0.6959   -0.2431 C   0  0  0  0  0  0  0  0  0  0  0  0
   -0.3051   -1.5102   -0.2398 O   0  0  0  0  0  0  0  0  0  0  0  0
    1.6894    1.5711   -0.3272 C   0  0  0  0  0  0  0  0  0  0  0  0
    1.6057    3.0000   -0.8056 C   0  0  0  0  0  0  0  0  0  0  0  0
    1.7589    3.3320   -2.1301 N   0  3  0  0  0  0  0  0  0  0  0  0
    1.3884    4.1676   -0.1300 C   0  0  0  0  0  0  0  0  0  0  0  0
    1.6419    4.6560   -2.2742 C   0  0  0  0  0  0  0  0  0  0  0  0
    1.4165    5.1758   -1.0632 N   0  0  0  0  0  0  0  0  0  0  0  0
   -1.5221    1.5532   -0.5874 H   0  0  0  0  0  0  0  0  0  0  0  0
    0.2281    0.7878   -1.7493 H   0  0  0  0  0  0  0  0  0  0  0  0
    2.5840    1.0924   -0.7479 H   0  0  0  0  0  0  0  0  0  0  0  0
    1.8520    1.5811    0.7587 H   0  0  0  0  0  0  0  0  0  0  0  0
    1.9352    2.6767   -2.8866 H   0  0  0  0  0  0  0  0  0  0  0  0
    1.2161    4.4442    0.8911 H   0  0  0  0  0  0  0  0  0  0  0  0
    1.7167    5.2045   -3.1983 H   0  0  0  0  0  0  0  0  0  0  0  0
    1.2870    6.1642   -0.8663 H   0  0  0  0  0  0  0  0  0  0  0  0
    1.9329   -0.9824    0.0879 N   0  0  0  0  0  0  0  0  0  0  0  0
    2.3789   -2.2915    0.5075 C   0  0  2  0  0  0  0  0  0  0  0  0
    1.4491   -2.7731    1.6133 C   0  0  0  0  0  0  0  0  0  0  0  0
    0.7759   -2.0103    2.3033 O   0  0  0  0  0  0  0  0  0  0  0  0
    3.8217   -2.2571    0.9870 C   0  0  0  0  0  0  0  0  0  0  0  0
    2.6178   -0.2344    0.0324 H   0  0  0  0  0  0  0  0  0  0  0  0
    2.2855   -2.9512   -0.3621 H   0  0  0  0  0  0  0  0  0  0  0  0
    3.9349   -1.6011    1.8578 H   0  0  0  0  0  0  0  0  0  0  0  0
    4.1671   -3.2548    1.2776 H   0  0  0  0  0  0  0  0  0  0  0  0
    4.4851   -1.8823    0.2001 H   0  0  0  0  0  0  0  0  0  0  0  0
    1.4920   -4.1517    1.7678 N   0  0  0  0  0  0  0  0  0  0  0  0
    0.7087   -4.8498    2.7604 C   0  0  0  0  0  0  0  0  0  0  0  0
    2.0642   -4.7074    1.1389 H   0  0  0  0  0  0  0  0  0  0  0  0
    1.3012   -4.9669    3.6798 H   0  0  0  0  0  0  0  0  0  0  0  0
   -0.2011   -4.2725    2.9817 H   0  0  0  0  0  0  0  0  0  0  0  0
    0.4292   -5.8416    2.3756 H   0  0  0  0  0  0  0  0  0  0  0  0
 22 24  2  0  0  0  0
 24 26  1  0  0  0  0
 25 26  1  0  0  0  0
 23 25  2  0  0  0  0
 21 22  1  0  0  0  0
 22 23  1  0  0  0  0
  1  3  1  0  0  0  0
  1  7  1  0  0  0  0
  1  2  2  0  0  0  0
 36 37  1  0  0  0  0
 37 45  1  0  0  0  0
 37 38  2  0  0  0  0
  8  9  1  0  0  0  0
  9 17  1  0  0  0  0
  9 10  2  0  0  0  0
 18 19  1  0  0  0  0
 19 35  1  0  0  0  0
 19 20  2  0  0  0  0
 36 39  1  0  0  0  0
  8 11  1  0  0  0  0
 45 46  1  0  0  0  0
 18 21  1  0  0  0  0
 35 36  1  0  0  0  0
  7  8  1  0  0  0  0
 17 18  1  0  0  0  0
 24 32  1  0  0  0  0
 25 33  1  0  0  0  0
  3  4  1  0  0  0  0
  3  5  1  0  0  0  0
  3  6  1  0  0  0  0
 39 42  1  0  0  0  0
 39 43  1  0  0  0  0
 39 44  1  0  0  0  0
 11 14  1  0  0  0  0
 11 15  1  0  0  0  0
 11 16  1  0  0  0  0
 46 48  1  0  0  0  0
 46 49  1  0  0  0  0
 46 50  1  0  0  0  0
 21 29  1  0  0  0  0
 21 30  1  0  0  0  0
 36 41  1  0  0  0  0
  8 13  1  0  0  0  0
 18 28  1  0  0  0  0
 26 34  1  0  0  0  0
 23 31  1  0  0  0  0
 45 47  1  0  0  0  0
  7 12  1  0  0  0  0
 35 40  1  0  0  0  0
 17 27  1  0  0  0  0
M  CHG  1  23   1
M  END
$$$$

  -OEChem-05262214473D

 50 50  0     1  0  0  0  0  0999 V2000
   -1.6938    0.4865    3.8080 C   0  0  0  0  0  0  0  0  0  0  0  0
   -0.7464   -0.1282    3.3323 O   0  0  0  0  0  0  0  0  0  0  0  0
   -2.1257    0.2041    5.2087 C   0  0  0  0  0  0  0  0  0  0  0  0
   -2.8853   -0.5922    5.2621 H   0  0  0  0  0  0  0  0  0  0  0  0
   -1.2944   -0.1435    5.8430 H   0  0  0  0  0  0  0  0  0  0  0  0
   -2.5637    1.0590    5.7483 H   0  0  0  0  0  0  0  0  0  0  0  0
   -2.4435    1.4589    3.1669 N   0  0  0  0  0  0  0  0  0  0  0  0
   -2.1966    1.8850    1.8145 C   0  0  2  0  0  0  0  0  0  0  0  0
   -0.8617    1.2996    1.3733 C   0  0  0  0  0  0  0  0  0  0  0  0
    0.0104    0.9468    2.1646 O   0  0  0  0  0  0  0  0  0  0  0  0
   -2.1879    3.4017    1.7050 C   0  0  0  0  0  0  0  0  0  0  0  0
   -3.2085    1.8948    3.6787 H   0  0  0  0  0  0  0  0  0  0  0  0
   -3.0007    1.4665    1.1994 H   0  0  0  0  0  0  0  0  0  0  0  0
   -1.3888    3.8390    2.3147 H   0  0  0  0  0  0  0  0  0  0  0  0
   -2.0284    3.7240    0.6708 H   0  0  0  0  0  0  0  0  0  0  0  0
   -3.1380    3.8230    2.0508 H   0  0  0  0  0  0  0  0  0  0  0  0
   -0.7390    1.2565   -0.0101 N   0  0  0  0  0  0  0  0  0  0  0  0
    0.4383    0.7557   -0.6738 C   0  0  2  0  0  0  0  0  0  0  0  0
    0.6157   -0.6959   -0.2431 C   0  0  0  0  0  0  0  0  0  0  0  0
   -0.2123   -1.5716   -0.4849 O   0  0  0  0  0  0  0  0  0  0  0  0
    1.6894    1.5711   -0.3272 C   0  0  0  0  0  0  0  0  0  0  0  0
    1.6057    3.0000   -0.8056 C   0  0  0  0  0  0  0  0  0  0  0  0
    1.7589    3.3320   -2.1301 N   0  3  0  0  0  0  0  0  0  0  0  0
    1.3884    4.1676   -0.1300 C   0  0  0  0  0  0  0  0  0  0  0  0
    1.6419    4.6560   -2.2742 C   0  0  0  0  0  0  0  0  0  0  0  0
    1.4165    5.1758   -1.0632 N   0  0  0  0  0  0  0  0  0  0  0  0
   -1.5221    1.5532   -0.5874 H   0  0  0  0  0  0  0  0  0  0  0  0
    0.2281    0.7878   -1.7493 H   0  0  0  0  0  0  0  0  0  0  0  0
    2.5840    1.0924   -0.7479 H   0  0  0  0  0  0  0  0  0  0  0  0
    1.8520    1.5811    0.7587 H   0  0  0  0  0  0  0  0  0  0  0  0
    1.9352    2.6767   -2.8866 H   0  0  0  0  0  0  0  0  0  0  0  0
    1.2161    4.4442    0.8911 H   0  0  0  0  0  0  0  0  0  0  0  0
    1.7167    5.2045   -3.1983 H   0  0  0  0  0  0  0  0  0  0  0  0
    1.2870    6.1642   -0.8663 H   0  0  0  0  0  0  0  0  0  0  0  0
    1.8294   -0.9032    0.3976 N   0  0  0  0  0  0  0  0  0  0  0  0
    2.2582   -2.1937    0.8870 C   0  0  2  0  0  0  0  0  0  0  0  0
    1.1253   -2.7817    1.7179 C   0  0  0  0  0  0  0  0  0  0  0  0
    0.2469   -2.0951    2.2356 O   0  0  0  0  0  0  0  0  0  0  0  0
    3.5322   -2.0782    1.7094 C   0  0  0  0  0  0  0  0  0  0  0  0
    2.4474   -0.1078    0.5290 H   0  0  0  0  0  0  0  0  0  0  0  0
    2.4320   -2.8236    0.0078 H   0  0  0  0  0  0  0  0  0  0  0  0
    3.3775   -1.4506    2.5947 H   0  0  0  0  0  0  0  0  0  0  0  0
    3.8714   -3.0601    2.0555 H   0  0  0  0  0  0  0  0  0  0  0  0
    4.3375   -1.6277    1.1193 H   0  0  0  0  0  0  0  0  0  0  0  0
    1.2349   -4.1590    1.8492 N   0  0  0  0  0  0  0  0  0  0  0  0
    0.2882   -4.9481    2.6022 C   0  0  0  0  0  0  0  0  0  0  0  0
    1.9849   -4.6485    1.3701 H   0  0  0  0  0  0  0  0  0  0  0  0
    0.6442   -5.0599    3.6370 H   0  0  0  0  0  0  0  0  0  0  0  0
   -0.6898   -4.4445    2.6035 H   0  0  0  0  0  0  0  0  0  0  0  0
    0.1887   -5.9411    2.1395 H   0  0  0  0  0  0  0  0  0  0  0  0
 22 24  2  0  0  0  0
 24 26  1  0  0  0  0
 25 26  1  0  0  0  0
 23 25  2  0  0  0  0
 21 22  1  0  0  0  0
 22 23  1  0  0  0  0
  1  3  1  0  0  0  0
  1  7  1  0  0  0  0
  1  2  2  0  0  0  0
 36 37  1  0  0  0  0
 37 45  1  0  0  0  0
 37 38  2  0  0  0  0
  8  9  1  0  0  0  0
  9 17  1  0  0  0  0
  9 10  2  0  0  0  0
 18 19  1  0  0  0  0
 19 35  1  0  0  0  0
 19 20  2  0  0  0  0
 36 39  1  0  0  0  0
  8 11  1  0  0  0  0
 45 46  1  0  0  0  0
 18 21  1  0  0  0  0
 35 36  1  0  0  0  0
  7  8  1  0  0  0  0
 17 18  1  0  0  0  0
 24 32  1  0  0  0  0
 25 33  1  0  0  0  0
  3  4  1  0  0  0  0
  3  5  1  0  0  0  0
  3  6  1  0  0  0  0
 39 42  1  0  0  0  0
 39 43  1  0  0  0  0
 39 44  1  0  0  0  0
 11 14  1  0  0  0  0
 11 15  1  0  0  0  0
 11 16  1  0  0  0  0
 46 48  1  0  0  0  0
 46 49  1  0  0  0  0
 46 50  1  0  0  0  0
 21 29  1  0  0  0  0
 21 30  1  0  0  0  0
 36 41  1  0  0  0  0
  8 13  1  0  0  0  0
 18 28  1  0  0  0  0
 26 34  1  0  0  0  0
 23 31  1  0  0  0  0
 45 47  1  0  0  0  0
  7 12  1  0  0  0  0
 35 40  1  0  0  0  0
 17 27  1  0  0  0  0
M  CHG  1  23   1
M  END
$$$$

  -OEChem-05262214473D

 50 50  0     1  0  0  0  0  0999 V2000
   -1.6938    0.4865    3.8080 C   0  0  0  0  0  0  0  0  0  0  0  0
   -0.7464   -0.1282    3.3323 O   0  0  0  0  0  0  0  0  0  0  0  0
   -2.1257    0.2041    5.2087 C   0  0  0  0  0  0  0  0  0  0  0  0
   -2.8853   -0.5922    5.2621 H   0  0  0  0  0  0  0  0  0  0  0  0
   -1.2944   -0.1435    5.8430 H   0  0  0  0  0  0  0  0  0  0  0  0
   -2.5637    1.0590    5.7483 H   0  0  0  0  0  0  0  0  0  0  0  0
   -2.4435    1.4589    3.1669 N   0  0  0  0  0  0  0  0  0  0  0  0
   -2.1966    1.8850    1.8145 C   0  0  2  0  0  0  0  0  0  0  0  0
   -0.8617    1.2996    1.3733 C   0  0  0  0  0  0  0  0  0  0  0  0
    0.0104    0.9468    2.1646 O   0  0  0  0  0  0  0  0  0  0  0  0
   -2.1879    3.4017    1.7050 C   0  0  0  0  0  0  0  0  0  0  0  0
   -3.2085    1.8948    3.6787 H   0  0  0  0  0  0  0  0  0  0  0  0
   -3.0007    1.4665    1.1994 H   0  0  0  0  0  0  0  0  0  0  0  0
   -1.3888    3.8390    2.3147 H   0  0  0  0  0  0  0  0  0  0  0  0
   -2.0284    3.7240    0.6708 H   0  0  0  0  0  0  0  0  0  0  0  0
   -3.1380    3.8230    2.0508 H   0  0  0  0  0  0  0  0  0  0  0  0
   -0.7390    1.2565   -0.0101 N   0  0  0  0  0  0  0  0  0  0  0  0
    0.4383    0.7557   -0.6738 C   0  0  2  0  0  0  0  0  0  0  0  0
    0.6157   -0.6959   -0.2431 C   0  0  0  0  0  0  0  0  0  0  0  0
   -0.0578   -1.6167   -0.7007 O   0  0  0  0  0  0  0  0  0  0  0  0
    1.6894    1.5711   -0.3272 C   0  0  0  0  0  0  0  0  0  0  0  0
    1.6057    3.0000   -0.8056 C   0  0  0  0  0  0  0  0  0  0  0  0
    1.7589    3.3320   -2.1301 N   0  3  0  0  0  0  0  0  0  0  0  0
    1.3884    4.1676   -0.1300 C   0  0  0  0  0  0  0  0  0  0  0  0
    1.6419    4.6560   -2.2742 C   0  0  0  0  0  0  0  0  0  0  0  0
    1.4165    5.1758   -1.0632 N   0  0  0  0  0  0  0  0  0  0  0  0
   -1.5221    1.5532   -0.5874 H   0  0  0  0  0  0  0  0  0  0  0  0
    0.2281    0.7878   -1.7493 H   0  0  0  0  0  0  0  0  0  0  0  0
    2.5840    1.0924   -0.7479 H   0  0  0  0  0  0  0  0  0  0  0  0
    1.8520    1.5811    0.7587 H   0  0  0  0  0  0  0  0  0  0  0  0
    1.9352    2.6767   -2.8866 H   0  0  0  0  0  0  0  0  0  0  0  0
    1.2161    4.4442    0.8911 H   0  0  0  0  0  0  0  0  0  0  0  0
    1.7167    5.2045   -3.1983 H   0  0  0  0  0  0  0  0  0  0  0  0
    1.2870    6.1642   -0.8663 H   0  0  0  0  0  0  0  0  0  0  0  0
    1.6474   -0.8435    0.6736 N   0  0  0  0  0  0  0  0  0  0  0  0
    2.0409   -2.1194    1.2268 C   0  0  2  0  0  0  0  0  0  0  0  0
    0.7875   -2.8167    1.7389 C   0  0  0  0  0  0  0  0  0  0  0  0
   -0.2412   -2.2136    2.0373 O   0  0  0  0  0  0  0  0  0  0  0  0
    3.0615   -1.9483    2.3412 C   0  0  0  0  0  0  0  0  0  0  0  0
    2.1512   -0.0130    0.9706 H   0  0  0  0  0  0  0  0  0  0  0  0
    2.4730   -2.7007    0.4050 H   0  0  0  0  0  0  0  0  0  0  0  0
    2.6466   -1.3682    3.1736 H   0  0  0  0  0  0  0  0  0  0  0  0
    3.3799   -2.9171    2.7399 H   0  0  0  0  0  0  0  0  0  0  0  0
    3.9499   -1.4201    1.9784 H   0  0  0  0  0  0  0  0  0  0  0  0
    0.9671   -4.1872    1.8644 N   0  0  0  0  0  0  0  0  0  0  0  0
   -0.0719   -5.0690    2.3428 C   0  0  0  0  0  0  0  0  0  0  0  0
    1.8471   -4.6044    1.5757 H   0  0  0  0  0  0  0  0  0  0  0  0
    0.0269   -5.1965    3.4309 H   0  0  0  0  0  0  0  0  0  0  0  0
   -1.0560   -4.6349    2.1125 H   0  0  0  0  0  0  0  0  0  0  0  0
    0.0219   -6.0476    1.8492 H   0  0  0  0  0  0  0  0  0  0  0  0
 22 24  2  0  0  0  0
 24 26  1  0  0  0  0
 25 26  1  0  0  0  0
 23 25  2  0  0  0  0
 21 22  1  0  0  0  0
 22 23  1  0  0  0  0
  1  3  1  0  0  0  0
  1  7  1  0  0  0  0
  1  2  2  0  0  0  0
 36 37  1  0  0  0  0
 37 45  1  0  0  0  0
 37 38  2  0  0  0  0
  8  9  1  0  0  0  0
  9 17  1  0  0  0  0
  9 10  2  0  0  0  0
 18 19  1  0  0  0  0
 19 35  1  0  0  0  0
 19 20  2  0  0  0  0
 36 39  1  0  0  0  0
  8 11  1  0  0  0  0
 45 46  1  0  0  0  0
 18 21  1  0  0  0  0
 35 36  1  0  0  0  0
  7  8  1  0  0  0  0
 17 18  1  0  0  0  0
 24 32  1  0  0  0  0
 25 33  1  0  0  0  0
  3  4  1  0  0  0  0
  3  5  1  0  0  0  0
  3  6  1  0  0  0  0
 39 42  1  0  0  0  0
 39 43  1  0  0  0  0
 39 44  1  0  0  0  0
 11 14  1  0  0  0  0
 11 15  1  0  0  0  0
 11 16  1  0  0  0  0
 46 48  1  0  0  0  0
 46 49  1  0  0  0  0
 46 50  1  0  0  0  0
 21 29  1  0  0  0  0
 21 30  1  0  0  0  0
 36 41  1  0  0  0  0
  8 13  1  0  0  0  0
 18 28  1  0  0  0  0
 26 34  1  0  0  0  0
 23 31  1  0  0  0  0
 45 47  1  0  0  0  0
  7 12  1  0  0  0  0
 35 40  1  0  0  0  0
 17 27  1  0  0  0  0
M  CHG  1  23   1
M  END
$$$$

  -OEChem-05262214473D

 50 50  0     1  0  0  0  0  0999 V2000
   -1.6938    0.4865    3.8080 C   0  0  0  0  0  0  0  0  0  0  0  0
   -0.7464   -0.1282    3.3323 O   0  0  0  0  0  0  0  0  0  0  0  0
   -2.1257    0.2041    5.2087 C   0  0  0  0  0  0  0  0  0  0  0  0
   -2.8853   -0.5922    5.2621 H   0  0  0  0  0  0  0  0  0  0  0  0
   -1.2944   -0.1435    5.8430 H   0  0  0  0  0  0  0  0  0  0  0  0
   -2.5637    1.0590    5.7483 H   0  0  0  0  0  0  0  0  0  0  0  0
   -2.4435    1.4589    3.1669 N   0  0  0  0  0  0  0  0  0  0  0  0
   -2.1966    1.8850    1.8145 C   0  0  2  0  0  0  0  0  0  0  0  0
   -0.8617    1.2996    1.3733 C   0  0  0  0  0  0  0  0  0  0  0  0
    0.0104    0.9468    2.1646 O   0  0  0  0  0  0  0  0  0  0  0  0
   -2.1879    3.4017    1.7050 C   0  0  0  0  0  0  0  0  0  0  0  0
   -3.2085    1.8948    3.6787 H   0  0  0  0  0  0  0  0  0  0  0  0
   -3.0007    1.4665    1.1994 H   0  0  0  0  0  0  0  0  0  0  0  0
   -1.3888    3.8390    2.3147 H   0  0  0  0  0  0  0  0  0  0  0  0
   -2.0284    3.7240    0.6708 H   0  0  0  0  0  0  0  0  0  0  0  0
   -3.1380    3.8230    2.0508 H   0  0  0  0  0  0  0  0  0  0  0  0
   -0.7390    1.2565   -0.0101 N   0  0  0  0  0  0  0  0  0  0  0  0
    0.4383    0.7557   -0.6738 C   0  0  2  0  0  0  0  0  0  0  0  0
    0.6157   -0.6959   -0.2431 C   0  0  0  0  0  0  0  0  0  0  0  0
    0.1479   -1.6425   -0.8724 O   0  0  0  0  0  0  0  0  0  0  0  0
    1.6894    1.5711   -0.3272 C   0  0  0  0  0  0  0  0  0  0  0  0
    1.6057    3.0000   -0.8056 C   0  0  0  0  0  0  0  0  0  0  0  0
    1.7589    3.3320   -2.1301 N   0  3  0  0  0  0  0  0  0  0  0  0
    1.3884    4.1676   -0.1300 C   0  0  0  0  0  0  0  0  0  0  0  0
    1.6419    4.6560   -2.2742 C   0  0  0  0  0  0  0  0  0  0  0  0
    1.4165    5.1758   -1.0632 N   0  0  0  0  0  0  0  0  0  0  0  0
   -1.5221    1.5532   -0.5874 H   0  0  0  0  0  0  0  0  0  0  0  0
    0.2281    0.7878   -1.7493 H   0  0  0  0  0  0  0  0  0  0  0  0
    2.5840    1.0924   -0.7479 H   0  0  0  0  0  0  0  0  0  0  0  0
    1.8520    1.5811    0.7587 H   0  0  0  0  0  0  0  0  0  0  0  0
    1.9352    2.6767   -2.8866 H   0  0  0  0  0  0  0  0  0  0  0  0
    1.2161    4.4442    0.8911 H   0  0  0  0  0  0  0  0  0  0  0  0
    1.7167    5.2045   -3.1983 H   0  0  0  0  0  0  0  0  0  0  0  0
    1.2870    6.1642   -0.8663 H   0  0  0  0  0  0  0  0  0  0  0  0
    1.3992   -0.8075    0.8972 N   0  0  0  0  0  0  0  0  0  0  0  0
    1.7419   -2.0738    1.5037 C   0  0  2  0  0  0  0  0  0  0  0  0
    0.4586   -2.8759    1.6748 C   0  0  0  0  0  0  0  0  0  0  0  0
   -0.6551   -2.3577    1.7218 O   0  0  0  0  0  0  0  0  0  0  0  0
    2.4416   -1.8762    2.8394 C   0  0  0  0  0  0  0  0  0  0  0  0
    1.7493    0.0436    1.3270 H   0  0  0  0  0  0  0  0  0  0  0  0
    2.4058   -2.5910    0.8024 H   0  0  0  0  0  0  0  0  0  0  0  0
    1.7918   -1.3595    3.5552 H   0  0  0  0  0  0  0  0  0  0  0  0
    2.7260   -2.8356    3.2841 H   0  0  0  0  0  0  0  0  0  0  0  0
    3.3485   -1.2739    2.7190 H   0  0  0  0  0  0  0  0  0  0  0  0
    0.7067   -4.2345    1.8121 N   0  0  0  0  0  0  0  0  0  0  0  0
   -0.3469   -5.2044    1.9999 C   0  0  0  0  0  0  0  0  0  0  0  0
    1.6600   -4.5780    1.7416 H   0  0  0  0  0  0  0  0  0  0  0  0
   -0.5085   -5.3673    3.0757 H   0  0  0  0  0  0  0  0  0  0  0  0
   -1.2748   -4.8308    1.5422 H   0  0  0  0  0  0  0  0  0  0  0  0
   -0.0600   -6.1539    1.5244 H   0  0  0  0  0  0  0  0  0  0  0  0
 22 24  2  0  0  0  0
 24 26  1  0  0  0  0
 25 26  1  0  0  0  0
 23 25  2  0  0  0  0
 21 22  1  0  0  0  0
 22 23  1  0  0  0  0
  1  3  1  0  0  0  0
  1  7  1  0  0  0  0
  1  2  2  0  0  0  0
 36 37  1  0  0  0  0
 37 45  1  0  0  0  0
 37 38  2  0  0  0  0
  8  9  1  0  0  0  0
  9 17  1  0  0  0  0
  9 10  2  0  0  0  0
 18 19  1  0  0  0  0
 19 35  1  0  0  0  0
 19 20  2  0  0  0  0
 36 39  1  0  0  0  0
  8 11  1  0  0  0  0
 45 46  1  0  0  0  0
 18 21  1  0  0  0  0
 35 36  1  0  0  0  0
  7  8  1  0  0  0  0
 17 18  1  0  0  0  0
 24 32  1  0  0  0  0
 25 33  1  0  0  0  0
  3  4  1  0  0  0  0
  3  5  1  0  0  0  0
  3  6  1  0  0  0  0
 39 42  1  0  0  0  0
 39 43  1  0  0  0  0
 39 44  1  0  0  0  0
 11 14  1  0  0  0  0
 11 15  1  0  0  0  0
 11 16  1  0  0  0  0
 46 48  1  0  0  0  0
 46 49  1  0  0  0  0
 46 50  1  0  0  0  0
 21 29  1  0  0  0  0
 21 30  1  0  0  0  0
 36 41  1  0  0  0  0
  8 13  1  0  0  0  0
 18 28  1  0  0  0  0
 26 34  1  0  0  0  0
 23 31  1  0  0  0  0
 45 47  1  0  0  0  0
  7 12  1  0  0  0  0
 35 40  1  0  0  0  0
 17 27  1  0  0  0  0
M  CHG  1  23   1
M  END
$$$$

  -OEChem-05262214473D

 50 50  0     1  0  0  0  0  0999 V2000
   -1.6938    0.4865    3.8080 C   0  0  0  0  0  0  0  0  0  0  0  0
   -0.7464   -0.1282    3.3323 O   0  0  0  0  0  0  0  0  0  0  0  0
   -2.1257    0.2041    5.2087 C   0  0  0  0  0  0  0  0  0  0  0  0
   -2.8853   -0.5922    5.2621 H   0  0  0  0  0  0  0  0  0  0  0  0
   -1.2944   -0.1435    5.8430 H   0  0  0  0  0  0  0  0  0  0  0  0
   -2.5637    1.0590    5.7483 H   0  0  0  0  0  0  0  0  0  0  0  0
   -2.4435    1.4589    3.1669 N   0  0  0  0  0  0  0  0  0  0  0  0
   -2.1966    1.8850    1.8145 C   0  0  2  0  0  0  0  0  0  0  0  0
   -0.8617    1.2996    1.3733 C   0  0  0  0  0  0  0  0  0  0  0  0
    0.0104    0.9468    2.1646 O   0  0  0  0  0  0  0  0  0  0  0  0
   -2.1879    3.4017    1.7050 C   0  0  0  0  0  0  0  0  0  0  0  0
   -3.2085    1.8948    3.6787 H   0  0  0  0  0  0  0  0  0  0  0  0
   -3.0007    1.4665    1.1994 H   0  0  0  0  0  0  0  0  0  0  0  0
   -1.3888    3.8390    2.3147 H   0  0  0  0  0  0  0  0  0  0  0  0
   -2.0284    3.7240    0.6708 H   0  0  0  0  0  0  0  0  0  0  0  0
   -3.1380    3.8230    2.0508 H   0  0  0  0  0  0  0  0  0  0  0  0
   -0.7390    1.2565   -0.0101 N   0  0  0  0  0  0  0  0  0  0  0  0
    0.4383    0.7557   -0.6738 C   0  0  2  0  0  0  0  0  0  0  0  0
    0.6157   -0.6959   -0.2431 C   0  0  0  0  0  0  0  0  0  0  0  0
    0.3908   -1.6472   -0.9883 O   0  0  0  0  0  0  0  0  0  0  0  0
    1.6894    1.5711   -0.3272 C   0  0  0  0  0  0  0  0  0  0  0  0
    1.6057    3.0000   -0.8056 C   0  0  0  0  0  0  0  0  0  0  0  0
    1.7589    3.3320   -2.1301 N   0  3  0  0  0  0  0  0  0  0  0  0
    1.3884    4.1676   -0.1300 C   0  0  0  0  0  0  0  0  0  0  0  0
    1.6419    4.6560   -2.2742 C   0  0  0  0  0  0  0  0  0  0  0  0
    1.4165    5.1758   -1.0632 N   0  0  0  0  0  0  0  0  0  0  0  0
   -1.5221    1.5532   -0.5874 H   0  0  0  0  0  0  0  0  0  0  0  0
    0.2281    0.7878   -1.7493 H   0  0  0  0  0  0  0  0  0  0  0  0
    2.5840    1.0924   -0.7479 H   0  0  0  0  0  0  0  0  0  0  0  0
    1.8520    1.5811    0.7587 H   0  0  0  0  0  0  0  0  0  0  0  0
    1.9352    2.6767   -2.8866 H   0  0  0  0  0  0  0  0  0  0  0  0
    1.2161    4.4442    0.8911 H   0  0  0  0  0  0  0  0  0  0  0  0
    1.7167    5.2045   -3.1983 H   0  0  0  0  0  0  0  0  0  0  0  0
    1.2870    6.1642   -0.8663 H   0  0  0  0  0  0  0  0  0  0  0  0
    1.1017   -0.7977    1.0530 N   0  0  0  0  0  0  0  0  0  0  0  0
    1.3815   -2.0600    1.6989 C   0  0  2  0  0  0  0  0  0  0  0  0
    0.1610   -2.9552    1.5301 C   0  0  0  0  0  0  0  0  0  0  0  0
   -0.9666   -2.5178    1.3108 O   0  0  0  0  0  0  0  0  0  0  0  0
    1.7147   -1.8669    3.1700 C   0  0  0  0  0  0  0  0  0  0  0  0
    1.2692    0.0582    1.5739 H   0  0  0  0  0  0  0  0  0  0  0  0
    2.2348   -2.5019    1.1731 H   0  0  0  0  0  0  0  0  0  0  0  0
    0.8715   -1.4250    3.7133 H   0  0  0  0  0  0  0  0  0  0  0  0
    1.9543   -2.8210    3.6511 H   0  0  0  0  0  0  0  0  0  0  0  0
    2.5744   -1.1989    3.2905 H   0  0  0  0  0  0  0  0  0  0  0  0
    0.4716   -4.2977    1.6961 N   0  0  0  0  0  0  0  0  0  0  0  0
   -0.5181   -5.3449    1.5968 C   0  0  0  0  0  0  0  0  0  0  0  0
    1.4366   -4.5712    1.8566 H   0  0  0  0  0  0  0  0  0  0  0  0
   -0.9257   -5.5608    2.5954 H   0  0  0  0  0  0  0  0  0  0  0  0
   -1.3313   -5.0189    0.9316 H   0  0  0  0  0  0  0  0  0  0  0  0
   -0.0512   -6.2529    1.1874 H   0  0  0  0  0  0  0  0  0  0  0  0
 22 24  2  0  0  0  0
 24 26  1  0  0  0  0
 25 26  1  0  0  0  0
 23 25  2  0  0  0  0
 21 22  1  0  0  0  0
 22 23  1  0  0  0  0
  1  3  1  0  0  0  0
  1  7  1  0  0  0  0
  1  2  2  0  0  0  0
 36 37  1  0  0  0  0
 37 45  1  0  0  0  0
 37 38  2  0  0  0  0
  8  9  1  0  0  0  0
  9 17  1  0  0  0  0
  9 10  2  0  0  0  0
 18 19  1  0  0  0  0
 19 35  1  0  0  0  0
 19 20  2  0  0  0  0
 36 39  1  0  0  0  0
  8 11  1  0  0  0  0
 45 46  1  0  0  0  0
 18 21  1  0  0  0  0
 35 36  1  0  0  0  0
  7  8  1  0  0  0  0
 17 18  1  0  0  0  0
 24 32  1  0  0  0  0
 25 33  1  0  0  0  0
  3  4  1  0  0  0  0
  3  5  1  0  0  0  0
  3  6  1  0  0  0  0
 39 42  1  0  0  0  0
 39 43  1  0  0  0  0
 39 44  1  0  0  0  0
 11 14  1  0  0  0  0
 11 15  1  0  0  0  0
 11 16  1  0  0  0  0
 46 48  1  0  0  0  0
 46 49  1  0  0  0  0
 46 50  1  0  0  0  0
 21 29  1  0  0  0  0
 21 30  1  0  0  0  0
 36 41  1  0  0  0  0
  8 13  1  0  0  0  0
 18 28  1  0  0  0  0
 26 34  1  0  0  0  0
 23 31  1  0  0  0  0
 45 47  1  0  0  0  0
  7 12  1  0  0  0  0
 35 40  1  0  0  0  0
 17 27  1  0  0  0  0
M  CHG  1  23   1
M  END
$$$$

  -OEChem-05262214473D

 50 50  0     1  0  0  0  0  0999 V2000
   -1.6938    0.4865    3.8080 C   0  0  0  0  0  0  0  0  0  0  0  0
   -0.7464   -0.1282    3.3323 O   0  0  0  0  0  0  0  0  0  0  0  0
   -2.1257    0.2041    5.2087 C   0  0  0  0  0  0  0  0  0  0  0  0
   -2.8853   -0.5922    5.2621 H   0  0  0  0  0  0  0  0  0  0  0  0
   -1.2944   -0.1435    5.8430 H   0  0  0  0  0  0  0  0  0  0  0  0
   -2.5637    1.0590    5.7483 H   0  0  0  0  0  0  0  0  0  0  0  0
   -2.4435    1.4589    3.1669 N   0  0  0  0  0  0  0  0  0  0  0  0
   -2.1966    1.8850    1.8145 C   0  0  2  0  0  0  0  0  0  0  0  0
   -0.8617    1.2996    1.3733 C   0  0  0  0  0  0  0  0  0  0  0  0
    0.0104    0.9468    2.1646 O   0  0  0  0  0  0  0  0  0  0  0  0
   -2.1879    3.4017    1.7050 C   0  0  0  0  0  0  0  0  0  0  0  0
   -3.2085    1.8948    3.6787 H   0  0  0  0  0  0  0  0  0  0  0  0
   -3.0007    1.4665    1.1994 H   0  0  0  0  0  0  0  0  0  0  0  0
   -1.3888    3.8390    2.3147 H   0  0  0  0  0  0  0  0  0  0  0  0
   -2.0284    3.7240    0.6708 H   0  0  0  0  0  0  0  0  0  0  0  0
   -3.1380    3.8230    2.0508 H   0  0  0  0  0  0  0  0  0  0  0  0
   -0.7390    1.2565   -0.0101 N   0  0  0  0  0  0  0  0  0  0  0  0
    0.4383    0.7557   -0.6738 C   0  0  2  0  0  0  0  0  0  0  0  0
    0.6157   -0.6959   -0.2431 C   0  0  0  0  0  0  0  0  0  0  0  0
    0.6543   -1.6305   -1.0405 O   0  0  0  0  0  0  0  0  0  0  0  0
    1.6894    1.5711   -0.3272 C   0  0  0  0  0  0  0  0  0  0  0  0
    1.6057    3.0000   -0.8056 C   0  0  0  0  0  0  0  0  0  0  0  0
    1.7589    3.3320   -2.1301 N   0  3  0  0  0  0  0  0  0  0  0  0
    1.3884    4.1676   -0.1300 C   0  0  0  0  0  0  0  0  0  0  0  0
    1.6419    4.6560   -2.2742 C   0  0  0  0  0  0  0  0  0  0  0  0
    1.4165    5.1758   -1.0632 N   0  0  0  0  0  0  0  0  0  0  0  0
   -1.5221    1.5532   -0.5874 H   0  0  0  0  0  0  0  0  0  0  0  0
    0.2281    0.7878   -1.7493 H   0  0  0  0  0  0  0  0  0  0  0  0
    2.5840    1.0924   -0.7479 H   0  0  0  0  0  0  0  0  0  0  0  0
    1.8520    1.5811    0.7587 H   0  0  0  0  0  0  0  0  0  0  0  0
    1.9352    2.6767   -2.8866 H   0  0  0  0  0  0  0  0  0  0  0  0
    1.2161    4.4442    0.8911 H   0  0  0  0  0  0  0  0  0  0  0  0
    1.7167    5.2045   -3.1983 H   0  0  0  0  0  0  0  0  0  0  0  0
    1.2870    6.1642   -0.8663 H   0  0  0  0  0  0  0  0  0  0  0  0
    0.7752   -0.8146    1.1306 N   0  0  0  0  0  0  0  0  0  0  0  0
    0.9842   -2.0788    1.7990 C   0  0  2  0  0  0  0  0  0  0  0  0
   -0.0850   -3.0492    1.3146 C   0  0  0  0  0  0  0  0  0  0  0  0
   -1.1546   -2.6827    0.8322 O   0  0  0  0  0  0  0  0  0  0  0  0
    0.9305   -1.9211    3.3106 C   0  0  0  0  0  0  0  0  0  0  0  0
    0.7435    0.0297    1.6945 H   0  0  0  0  0  0  0  0  0  0  0  0
    1.9719   -2.4396    1.4917 H   0  0  0  0  0  0  0  0  0  0  0  0
   -0.0516   -1.5604    3.6373 H   0  0  0  0  0  0  0  0  0  0  0  0
    1.1174   -2.8744    3.8159 H   0  0  0  0  0  0  0  0  0  0  0  0
    1.6804   -1.2003    3.6541 H   0  0  0  0  0  0  0  0  0  0  0  0
    0.2777   -4.3724    1.5241 N   0  0  0  0  0  0  0  0  0  0  0  0
   -0.5739   -5.4810    1.1610 C   0  0  0  0  0  0  0  0  0  0  0  0
    1.1919   -4.5844    1.9127 H   0  0  0  0  0  0  0  0  0  0  0  0
   -1.1962   -5.7637    2.0229 H   0  0  0  0  0  0  0  0  0  0  0  0
   -1.2216   -5.1863    0.3222 H   0  0  0  0  0  0  0  0  0  0  0  0
    0.0476   -6.3376    0.8610 H   0  0  0  0  0  0  0  0  0  0  0  0
 22 24  2  0  0  0  0
 24 26  1  0  0  0  0
 25 26  1  0  0  0  0
 23 25  2  0  0  0  0
 21 22  1  0  0  0  0
 22 23  1  0  0  0  0
  1  3  1  0  0  0  0
  1  7  1  0  0  0  0
  1  2  2  0  0  0  0
 36 37  1  0  0  0  0
 37 45  1  0  0  0  0
 37 38  2  0  0  0  0
  8  9  1  0  0  0  0
  9 17  1  0  0  0  0
  9 10  2  0  0  0  0
 18 19  1  0  0  0  0
 19 35  1  0  0  0  0
 19 20  2  0  0  0  0
 36 39  1  0  0  0  0
  8 11  1  0  0  0  0
 45 46  1  0  0  0  0
 18 21  1  0  0  0  0
 35 36  1  0  0  0  0
  7  8  1  0  0  0  0
 17 18  1  0  0  0  0
 24 32  1  0  0  0  0
 25 33  1  0  0  0  0
  3  4  1  0  0  0  0
  3  5  1  0  0  0  0
  3  6  1  0  0  0  0
 39 42  1  0  0  0  0
 39 43  1  0  0  0  0
 39 44  1  0  0  0  0
 11 14  1  0  0  0  0
 11 15  1  0  0  0  0
 11 16  1  0  0  0  0
 46 48  1  0  0  0  0
 46 49  1  0  0  0  0
 46 50  1  0  0  0  0
 21 29  1  0  0  0  0
 21 30  1  0  0  0  0
 36 41  1  0  0  0  0
  8 13  1  0  0  0  0
 18 28  1  0  0  0  0
 26 34  1  0  0  0  0
 23 31  1  0  0  0  0
 45 47  1  0  0  0  0
  7 12  1  0  0  0  0
 35 40  1  0  0  0  0
 17 27  1  0  0  0  0
M  CHG  1  23   1
M  END
$$$$

  -OEChem-05262214473D

 50 50  0     1  0  0  0  0  0999 V2000
   -1.6938    0.4865    3.8080 C   0  0  0  0  0  0  0  0  0  0  0  0
   -0.7464   -0.1282    3.3323 O   0  0  0  0  0  0  0  0  0  0  0  0
   -2.1257    0.2041    5.2087 C   0  0  0  0  0  0  0  0  0  0  0  0
   -2.8853   -0.5922    5.2621 H   0  0  0  0  0  0  0  0  0  0  0  0
   -1.2944   -0.1435    5.8430 H   0  0  0  0  0  0  0  0  0  0  0  0
   -2.5637    1.0590    5.7483 H   0  0  0  0  0  0  0  0  0  0  0  0
   -2.4435    1.4589    3.1669 N   0  0  0  0  0  0  0  0  0  0  0  0
   -2.1966    1.8850    1.8145 C   0  0  2  0  0  0  0  0  0  0  0  0
   -0.8617    1.2996    1.3733 C   0  0  0  0  0  0  0  0  0  0  0  0
    0.0104    0.9468    2.1646 O   0  0  0  0  0  0  0  0  0  0  0  0
   -2.1879    3.4017    1.7050 C   0  0  0  0  0  0  0  0  0  0  0  0
   -3.2085    1.8948    3.6787 H   0  0  0  0  0  0  0  0  0  0  0  0
   -3.0007    1.4665    1.1994 H   0  0  0  0  0  0  0  0  0  0  0  0
   -1.3888    3.8390    2.3147 H   0  0  0  0  0  0  0  0  0  0  0  0
   -2.0284    3.7240    0.6708 H   0  0  0  0  0  0  0  0  0  0  0  0
   -3.1380    3.8230    2.0508 H   0  0  0  0  0  0  0  0  0  0  0  0
   -0.7390    1.2565   -0.0101 N   0  0  0  0  0  0  0  0  0  0  0  0
    0.4383    0.7557   -0.6738 C   0  0  2  0  0  0  0  0  0  0  0  0
    0.6157   -0.6959   -0.2431 C   0  0  0  0  0  0  0  0  0  0  0  0
    0.9205   -1.5935   -1.0256 O   0  0  0  0  0  0  0  0  0  0  0  0
    1.6894    1.5711   -0.3272 C   0  0  0  0  0  0  0  0  0  0  0  0
    1.6057    3.0000   -0.8056 C   0  0  0  0  0  0  0  0  0  0  0  0
    1.7589    3.3320   -2.1301 N   0  3  0  0  0  0  0  0  0  0  0  0
    1.3884    4.1676   -0.1300 C   0  0  0  0  0  0  0  0  0  0  0  0
    1.6419    4.6560   -2.2742 C   0  0  0  0  0  0  0  0  0  0  0  0
    1.4165    5.1758   -1.0632 N   0  0  0  0  0  0  0  0  0  0  0  0
   -1.5221    1.5532   -0.5874 H   0  0  0  0  0  0  0  0  0  0  0  0
    0.2281    0.7878   -1.7493 H   0  0  0  0  0  0  0  0  0  0  0  0
    2.5840    1.0924   -0.7479 H   0  0  0  0  0  0  0  0  0  0  0  0
    1.8520    1.5811    0.7587 H   0  0  0  0  0  0  0  0  0  0  0  0
    1.9352    2.6767   -2.8866 H   0  0  0  0  0  0  0  0  0  0  0  0
    1.2161    4.4442    0.8911 H   0  0  0  0  0  0  0  0  0  0  0  0
    1.7167    5.2045   -3.1983 H   0  0  0  0  0  0  0  0  0  0  0  0
    1.2870    6.1642   -0.8663 H   0  0  0  0  0  0  0  0  0  0  0  0
    0.4420   -0.8571    1.1245 N   0  0  0  0  0  0  0  0  0  0  0  0
    0.5772   -2.1291    1.7972 C   0  0  2  0  0  0  0  0  0  0  0  0
   -0.2626   -3.1515    1.0430 C   0  0  0  0  0  0  0  0  0  0  0  0
   -1.2061   -2.8414    0.3186 O   0  0  0  0  0  0  0  0  0  0  0  0
    0.1424   -2.0350    3.2514 C   0  0  0  0  0  0  0  0  0  0  0  0
    0.2081   -0.0399    1.6806 H   0  0  0  0  0  0  0  0  0  0  0  0
    1.6348   -2.4081    1.7365 H   0  0  0  0  0  0  0  0  0  0  0  0
   -0.9147   -1.7564    3.3323 H   0  0  0  0  0  0  0  0  0  0  0  0
    0.2723   -2.9921    3.7671 H   0  0  0  0  0  0  0  0  0  0  0  0
    0.7273   -1.2780    3.7849 H   0  0  0  0  0  0  0  0  0  0  0  0
    0.1382   -4.4536    1.3080 N   0  0  0  0  0  0  0  0  0  0  0  0
   -0.5104   -5.6035    0.7222 C   0  0  0  0  0  0  0  0  0  0  0  0
    0.9426   -4.6168    1.9063 H   0  0  0  0  0  0  0  0  0  0  0  0
   -1.3015   -5.9622    1.3971 H   0  0  0  0  0  0  0  0  0  0  0  0
   -0.9532   -5.3216   -0.2445 H   0  0  0  0  0  0  0  0  0  0  0  0
    0.2297   -6.4024    0.5675 H   0  0  0  0  0  0  0  0  0  0  0  0
 22 24  2  0  0  0  0
 24 26  1  0  0  0  0
 25 26  1  0  0  0  0
 23 25  2  0  0  0  0
 21 22  1  0  0  0  0
 22 23  1  0  0  0  0
  1  3  1  0  0  0  0
  1  7  1  0  0  0  0
  1  2  2  0  0  0  0
 36 37  1  0  0  0  0
 37 45  1  0  0  0  0
 37 38  2  0  0  0  0
  8  9  1  0  0  0  0
  9 17  1  0  0  0  0
  9 10  2  0  0  0  0
 18 19  1  0  0  0  0
 19 35  1  0  0  0  0
 19 20  2  0  0  0  0
 36 39  1  0  0  0  0
  8 11  1  0  0  0  0
 45 46  1  0  0  0  0
 18 21  1  0  0  0  0
 35 36  1  0  0  0  0
  7  8  1  0  0  0  0
 17 18  1  0  0  0  0
 24 32  1  0  0  0  0
 25 33  1  0  0  0  0
  3  4  1  0  0  0  0
  3  5  1  0  0  0  0
  3  6  1  0  0  0  0
 39 42  1  0  0  0  0
 39 43  1  0  0  0  0
 39 44  1  0  0  0  0
 11 14  1  0  0  0  0
 11 15  1  0  0  0  0
 11 16  1  0  0  0  0
 46 48  1  0  0  0  0
 46 49  1  0  0  0  0
 46 50  1  0  0  0  0
 21 29  1  0  0  0  0
 21 30  1  0  0  0  0
 36 41  1  0  0  0  0
  8 13  1  0  0  0  0
 18 28  1  0  0  0  0
 26 34  1  0  0  0  0
 23 31  1  0  0  0  0
 45 47  1  0  0  0  0
  7 12  1  0  0  0  0
 35 40  1  0  0  0  0
 17 27  1  0  0  0  0
M  CHG  1  23   1
M  END
$$$$

  -OEChem-05262214473D

 50 50  0     1  0  0  0  0  0999 V2000
   -1.6938    0.4865    3.8080 C   0  0  0  0  0  0  0  0  0  0  0  0
   -0.7464   -0.1282    3.3323 O   0  0  0  0  0  0  0  0  0  0  0  0
   -2.1257    0.2041    5.2087 C   0  0  0  0  0  0  0  0  0  0  0  0
   -2.8853   -0.5922    5.2621 H   0  0  0  0  0  0  0  0  0  0  0  0
   -1.2944   -0.1435    5.8430 H   0  0  0  0  0  0  0  0  0  0  0  0
   -2.5637    1.0590    5.7483 H   0  0  0  0  0  0  0  0  0  0  0  0
   -2.4435    1.4589    3.1669 N   0  0  0  0  0  0  0  0  0  0  0  0
   -2.1966    1.8850    1.8145 C   0  0  2  0  0  0  0  0  0  0  0  0
   -0.8617    1.2996    1.3733 C   0  0  0  0  0  0  0  0  0  0  0  0
    0.0104    0.9468    2.1646 O   0  0  0  0  0  0  0  0  0  0  0  0
   -2.1879    3.4017    1.7050 C   0  0  0  0  0  0  0  0  0  0  0  0
   -3.2085    1.8948    3.6787 H   0  0  0  0  0  0  0  0  0  0  0  0
   -3.0007    1.4665    1.1994 H   0  0  0  0  0  0  0  0  0  0  0  0
   -1.3888    3.8390    2.3147 H   0  0  0  0  0  0  0  0  0  0  0  0
   -2.0284    3.7240    0.6708 H   0  0  0  0  0  0  0  0  0  0  0  0
   -3.1380    3.8230    2.0508 H   0  0  0  0  0  0  0  0  0  0  0  0
   -0.7390    1.2565   -0.0101 N   0  0  0  0  0  0  0  0  0  0  0  0
    0.4383    0.7557   -0.6738 C   0  0  2  0  0  0  0  0  0  0  0  0
    0.6157   -0.6959   -0.2431 C   0  0  0  0  0  0  0  0  0  0  0  0
    1.1713   -1.5388   -0.9444 O   0  0  0  0  0  0  0  0  0  0  0  0
    1.6894    1.5711   -0.3272 C   0  0  0  0  0  0  0  0  0  0  0  0
    1.6057    3.0000   -0.8056 C   0  0  0  0  0  0  0  0  0  0  0  0
    1.7589    3.3320   -2.1301 N   0  3  0  0  0  0  0  0  0  0  0  0
    1.3884    4.1676   -0.1300 C   0  0  0  0  0  0  0  0  0  0  0  0
    1.6419    4.6560   -2.2742 C   0  0  0  0  0  0  0  0  0  0  0  0
    1.4165    5.1758   -1.0632 N   0  0  0  0  0  0  0  0  0  0  0  0
   -1.5221    1.5532   -0.5874 H   0  0  0  0  0  0  0  0  0  0  0  0
    0.2281    0.7878   -1.7493 H   0  0  0  0  0  0  0  0  0  0  0  0
    2.5840    1.0924   -0.7479 H   0  0  0  0  0  0  0  0  0  0  0  0
    1.8520    1.5811    0.7587 H   0  0  0  0  0  0  0  0  0  0  0  0
    1.9352    2.6767   -2.8866 H   0  0  0  0  0  0  0  0  0  0  0  0
    1.2161    4.4442    0.8911 H   0  0  0  0  0  0  0  0  0  0  0  0
    1.7167    5.2045   -3.1983 H   0  0  0  0  0  0  0  0  0  0  0  0
    1.2870    6.1642   -0.8663 H   0  0  0  0  0  0  0  0  0  0  0  0
    0.1247   -0.9223    1.0352 N   0  0  0  0  0  0  0  0  0  0  0  0
    0.1882   -2.2074    1.6937 C   0  0  2  0  0  0  0  0  0  0  0  0
   -0.3598   -3.2552    0.7338 C   0  0  0  0  0  0  0  0  0  0  0  0
   -1.1176   -2.9830   -0.1950 O   0  0  0  0  0  0  0  0  0  0  0  0
   -0.5960   -2.2008    2.9966 C   0  0  0  0  0  0  0  0  0  0  0  0
   -0.3006   -0.1458    1.5331 H   0  0  0  0  0  0  0  0  0  0  0  0
    1.2466   -2.4098    1.8908 H   0  0  0  0  0  0  0  0  0  0  0  0
   -1.6588   -1.9996    2.8191 H   0  0  0  0  0  0  0  0  0  0  0  0
   -0.5234   -3.1662    3.5083 H   0  0  0  0  0  0  0  0  0  0  0  0
   -0.2198   -1.4266    3.6740 H   0  0  0  0  0  0  0  0  0  0  0  0
    0.0627   -4.5357    1.0624 N   0  0  0  0  0  0  0  0  0  0  0  0
   -0.3320   -5.7039    0.3103 C   0  0  0  0  0  0  0  0  0  0  0  0
    0.7058   -4.6661    1.8377 H   0  0  0  0  0  0  0  0  0  0  0  0
   -1.2345   -6.1429    0.7607 H   0  0  0  0  0  0  0  0  0  0  0  0
   -0.5445   -5.4157   -0.7297 H   0  0  0  0  0  0  0  0  0  0  0  0
    0.4826   -6.4429    0.3270 H   0  0  0  0  0  0  0  0  0  0  0  0
 22 24  2  0  0  0  0
 24 26  1  0  0  0  0
 25 26  1  0  0  0  0
 23 25  2  0  0  0  0
 21 22  1  0  0  0  0
 22 23  1  0  0  0  0
  1  3  1  0  0  0  0
  1  7  1  0  0  0  0
  1  2  2  0  0  0  0
 36 37  1  0  0  0  0
 37 45  1  0  0  0  0
 37 38  2  0  0  0  0
  8  9  1  0  0  0  0
  9 17  1  0  0  0  0
  9 10  2  0  0  0  0
 18 19  1  0  0  0  0
 19 35  1  0  0  0  0
 19 20  2  0  0  0  0
 36 39  1  0  0  0  0
  8 11  1  0  0  0  0
 45 46  1  0  0  0  0
 18 21  1  0  0  0  0
 35 36  1  0  0  0  0
  7  8  1  0  0  0  0
 17 18  1  0  0  0  0
 24 32  1  0  0  0  0
 25 33  1  0  0  0  0
  3  4  1  0  0  0  0
  3  5  1  0  0  0  0
  3  6  1  0  0  0  0
 39 42  1  0  0  0  0
 39 43  1  0  0  0  0
 39 44  1  0  0  0  0
 11 14  1  0  0  0  0
 11 15  1  0  0  0  0
 11 16  1  0  0  0  0
 46 48  1  0  0  0  0
 46 49  1  0  0  0  0
 46 50  1  0  0  0  0
 21 29  1  0  0  0  0
 21 30  1  0  0  0  0
 36 41  1  0  0  0  0
  8 13  1  0  0  0  0
 18 28  1  0  0  0  0
 26 34  1  0  0  0  0
 23 31  1  0  0  0  0
 45 47  1  0  0  0  0
  7 12  1  0  0  0  0
 35 40  1  0  0  0  0
 17 27  1  0  0  0  0
M  CHG  1  23   1
M  END
$$$$

  -OEChem-05262214473D

 50 50  0     1  0  0  0  0  0999 V2000
   -1.6938    0.4865    3.8080 C   0  0  0  0  0  0  0  0  0  0  0  0
   -0.7464   -0.1282    3.3323 O   0  0  0  0  0  0  0  0  0  0  0  0
   -2.1257    0.2041    5.2087 C   0  0  0  0  0  0  0  0  0  0  0  0
   -2.8853   -0.5922    5.2621 H   0  0  0  0  0  0  0  0  0  0  0  0
   -1.2944   -0.1435    5.8430 H   0  0  0  0  0  0  0  0  0  0  0  0
   -2.5637    1.0590    5.7483 H   0  0  0  0  0  0  0  0  0  0  0  0
   -2.4435    1.4589    3.1669 N   0  0  0  0  0  0  0  0  0  0  0  0
   -2.1966    1.8850    1.8145 C   0  0  2  0  0  0  0  0  0  0  0  0
   -0.8617    1.2996    1.3733 C   0  0  0  0  0  0  0  0  0  0  0  0
    0.0104    0.9468    2.1646 O   0  0  0  0  0  0  0  0  0  0  0  0
   -2.1879    3.4017    1.7050 C   0  0  0  0  0  0  0  0  0  0  0  0
   -3.2085    1.8948    3.6787 H   0  0  0  0  0  0  0  0  0  0  0  0
   -3.0007    1.4665    1.1994 H   0  0  0  0  0  0  0  0  0  0  0  0
   -1.3888    3.8390    2.3147 H   0  0  0  0  0  0  0  0  0  0  0  0
   -2.0284    3.7240    0.6708 H   0  0  0  0  0  0  0  0  0  0  0  0
   -3.1380    3.8230    2.0508 H   0  0  0  0  0  0  0  0  0  0  0  0
   -0.7390    1.2565   -0.0101 N   0  0  0  0  0  0  0  0  0  0  0  0
    0.4383    0.7557   -0.6738 C   0  0  2  0  0  0  0  0  0  0  0  0
    0.6157   -0.6959   -0.2431 C   0  0  0  0  0  0  0  0  0  0  0  0
    1.3894   -1.4701   -0.8025 O   0  0  0  0  0  0  0  0  0  0  0  0
    1.6894    1.5711   -0.3272 C   0  0  0  0  0  0  0  0  0  0  0  0
    1.6057    3.0000   -0.8056 C   0  0  0  0  0  0  0  0  0  0  0  0
    1.7589    3.3320   -2.1301 N   0  3  0  0  0  0  0  0  0  0  0  0
    1.3884    4.1676   -0.1300 C   0  0  0  0  0  0  0  0  0  0  0  0
    1.6419    4.6560   -2.2742 C   0  0  0  0  0  0  0  0  0  0  0  0
    1.4165    5.1758   -1.0632 N   0  0  0  0  0  0  0  0  0  0  0  0
   -1.5221    1.5532   -0.5874 H   0  0  0  0  0  0  0  0  0  0  0  0
    0.2281    0.7878   -1.7493 H   0  0  0  0  0  0  0  0  0  0  0  0
    2.5840    1.0924   -0.7479 H   0  0  0  0  0  0  0  0  0  0  0  0
    1.8520    1.5811    0.7587 H   0  0  0  0  0  0  0  0  0  0  0  0
    1.9352    2.6767   -2.8866 H   0  0  0  0  0  0  0  0  0  0  0  0
    1.2161    4.4442    0.8911 H   0  0  0  0  0  0  0  0  0  0  0  0
    1.7167    5.2045   -3.1983 H   0  0  0  0  0  0  0  0  0  0  0  0
    1.2870    6.1642   -0.8663 H   0  0  0  0  0  0  0  0  0  0  0  0
   -0.1550   -1.0059    0.8689 N   0  0  0  0  0  0  0  0  0  0  0  0
   -0.1564   -2.3083    1.4954 C   0  0  2  0  0  0  0  0  0  0  0  0
   -0.3698   -3.3530    0.4080 C   0  0  0  0  0  0  0  0  0  0  0  0
   -0.8953   -3.0978   -0.6735 O   0  0  0  0  0  0  0  0  0  0  0  0
   -1.2344   -2.4073    2.5635 C   0  0  0  0  0  0  0  0  0  0  0  0
   -0.7478   -0.2809    1.2621 H   0  0  0  0  0  0  0  0  0  0  0  0
    0.8336   -2.4444    1.9442 H   0  0  0  0  0  0  0  0  0  0  0  0
   -2.2333   -2.2735    2.1327 H   0  0  0  0  0  0  0  0  0  0  0  0
   -1.2155   -3.3847    3.0569 H   0  0  0  0  0  0  0  0  0  0  0  0
   -1.0965   -1.6361    3.3291 H   0  0  0  0  0  0  0  0  0  0  0  0
    0.0562   -4.6131    0.8041 N   0  0  0  0  0  0  0  0  0  0  0  0
   -0.0508   -5.7754   -0.0466 C   0  0  0  0  0  0  0  0  0  0  0  0
    0.4976   -4.7290    1.7116 H   0  0  0  0  0  0  0  0  0  0  0  0
   -0.9997   -6.2933    0.1571 H   0  0  0  0  0  0  0  0  0  0  0  0
   -0.0232   -5.4620   -1.1006 H   0  0  0  0  0  0  0  0  0  0  0  0
    0.7891   -6.4563    0.1557 H   0  0  0  0  0  0  0  0  0  0  0  0
 22 24  2  0  0  0  0
 24 26  1  0  0  0  0
 25 26  1  0  0  0  0
 23 25  2  0  0  0  0
 21 22  1  0  0  0  0
 22 23  1  0  0  0  0
  1  3  1  0  0  0  0
  1  7  1  0  0  0  0
  1  2  2  0  0  0  0
 36 37  1  0  0  0  0
 37 45  1  0  0  0  0
 37 38  2  0  0  0  0
  8  9  1  0  0  0  0
  9 17  1  0  0  0  0
  9 10  2  0  0  0  0
 18 19  1  0  0  0  0
 19 35  1  0  0  0  0
 19 20  2  0  0  0  0
 36 39  1  0  0  0  0
  8 11  1  0  0  0  0
 45 46  1  0  0  0  0
 18 21  1  0  0  0  0
 35 36  1  0  0  0  0
  7  8  1  0  0  0  0
 17 18  1  0  0  0  0
 24 32  1  0  0  0  0
 25 33  1  0  0  0  0
  3  4  1  0  0  0  0
  3  5  1  0  0  0  0
  3  6  1  0  0  0  0
 39 42  1  0  0  0  0
 39 43  1  0  0  0  0
 39 44  1  0  0  0  0
 11 14  1  0  0  0  0
 11 15  1  0  0  0  0
 11 16  1  0  0  0  0
 46 48  1  0  0  0  0
 46 49  1  0  0  0  0
 46 50  1  0  0  0  0
 21 29  1  0  0  0  0
 21 30  1  0  0  0  0
 36 41  1  0  0  0  0
  8 13  1  0  0  0  0
 18 28  1  0  0  0  0
 26 34  1  0  0  0  0
 23 31  1  0  0  0  0
 45 47  1  0  0  0  0
  7 12  1  0  0  0  0
 35 40  1  0  0  0  0
 17 27  1  0  0  0  0
M  CHG  1  23   1
M  END
$$$$

  -OEChem-05262214473D

 50 50  0     1  0  0  0  0  0999 V2000
   -1.6938    0.4865    3.8080 C   0  0  0  0  0  0  0  0  0  0  0  0
   -0.7464   -0.1282    3.3323 O   0  0  0  0  0  0  0  0  0  0  0  0
   -2.1257    0.2041    5.2087 C   0  0  0  0  0  0  0  0  0  0  0  0
   -2.8853   -0.5922    5.2621 H   0  0  0  0  0  0  0  0  0  0  0  0
   -1.2944   -0.1435    5.8430 H   0  0  0  0  0  0  0  0  0  0  0  0
   -2.5637    1.0590    5.7483 H   0  0  0  0  0  0  0  0  0  0  0  0
   -2.4435    1.4589    3.1669 N   0  0  0  0  0  0  0  0  0  0  0  0
   -2.1966    1.8850    1.8145 C   0  0  2  0  0  0  0  0  0  0  0  0
   -0.8617    1.2996    1.3733 C   0  0  0  0  0  0  0  0  0  0  0  0
    0.0104    0.9468    2.1646 O   0  0  0  0  0  0  0  0  0  0  0  0
   -2.1879    3.4017    1.7050 C   0  0  0  0  0  0  0  0  0  0  0  0
   -3.2085    1.8948    3.6787 H   0  0  0  0  0  0  0  0  0  0  0  0
   -3.0007    1.4665    1.1994 H   0  0  0  0  0  0  0  0  0  0  0  0
   -1.3888    3.8390    2.3147 H   0  0  0  0  0  0  0  0  0  0  0  0
   -2.0284    3.7240    0.6708 H   0  0  0  0  0  0  0  0  0  0  0  0
   -3.1380    3.8230    2.0508 H   0  0  0  0  0  0  0  0  0  0  0  0
   -0.7390    1.2565   -0.0101 N   0  0  0  0  0  0  0  0  0  0  0  0
    0.4383    0.7557   -0.6738 C   0  0  2  0  0  0  0  0  0  0  0  0
    0.6157   -0.6959   -0.2431 C   0  0  0  0  0  0  0  0  0  0  0  0
    1.5602   -1.3920   -0.6096 O   0  0  0  0  0  0  0  0  0  0  0  0
    1.6894    1.5711   -0.3272 C   0  0  0  0  0  0  0  0  0  0  0  0
    1.6057    3.0000   -0.8056 C   0  0  0  0  0  0  0  0  0  0  0  0
    1.7589    3.3320   -2.1301 N   0  3  0  0  0  0  0  0  0  0  0  0
    1.3884    4.1676   -0.1300 C   0  0  0  0  0  0  0  0  0  0  0  0
    1.6419    4.6560   -2.2742 C   0  0  0  0  0  0  0  0  0  0  0  0
    1.4165    5.1758   -1.0632 N   0  0  0  0  0  0  0  0  0  0  0  0
   -1.5221    1.5532   -0.5874 H   0  0  0  0  0  0  0  0  0  0  0  0
    0.2281    0.7878   -1.7493 H   0  0  0  0  0  0  0  0  0  0  0  0
    2.5840    1.0924   -0.7479 H   0  0  0  0  0  0  0  0  0  0  0  0
    1.8520    1.5811    0.7587 H   0  0  0  0  0  0  0  0  0  0  0  0
    1.9352    2.6767   -2.8866 H   0  0  0  0  0  0  0  0  0  0  0  0
    1.2161    4.4442    0.8911 H   0  0  0  0  0  0  0  0  0  0  0  0
    1.7167    5.2045   -3.1983 H   0  0  0  0  0  0  0  0  0  0  0  0
    1.2870    6.1642   -0.8663 H   0  0  0  0  0  0  0  0  0  0  0  0
   -0.3780   -1.1020    0.6367 N   0  0  0  0  0  0  0  0  0  0  0  0
   -0.4329   -2.4250    1.2160 C   0  0  2  0  0  0  0  0  0  0  0  0
   -0.2921   -3.4385    0.0879 C   0  0  0  0  0  0  0  0  0  0  0  0
   -0.5542   -3.1780   -1.0845 O   0  0  0  0  0  0  0  0  0  0  0  0
   -1.7291   -2.6404    1.9816 C   0  0  0  0  0  0  0  0  0  0  0  0
   -1.1032   -0.4359    0.8860 H   0  0  0  0  0  0  0  0  0  0  0  0
    0.4242   -2.5097    1.8929 H   0  0  0  0  0  0  0  0  0  0  0  0
   -2.5991   -2.5593    1.3198 H   0  0  0  0  0  0  0  0  0  0  0  0
   -1.7567   -3.6328    2.4437 H   0  0  0  0  0  0  0  0  0  0  0  0
   -1.8430   -1.8922    2.7735 H   0  0  0  0  0  0  0  0  0  0  0  0
    0.1194   -4.6806    0.5507 N   0  0  0  0  0  0  0  0  0  0  0  0
    0.3139   -5.8132   -0.3242 C   0  0  0  0  0  0  0  0  0  0  0  0
    0.3322   -4.8011    1.5365 H   0  0  0  0  0  0  0  0  0  0  0  0
   -0.6132   -6.4032   -0.3727 H   0  0  0  0  0  0  0  0  0  0  0  0
    0.5752   -5.4574   -1.3317 H   0  0  0  0  0  0  0  0  0  0  0  0
    1.1284   -6.4416    0.0654 H   0  0  0  0  0  0  0  0  0  0  0  0
 22 24  2  0  0  0  0
 24 26  1  0  0  0  0
 25 26  1  0  0  0  0
 23 25  2  0  0  0  0
 21 22  1  0  0  0  0
 22 23  1  0  0  0  0
  1  3  1  0  0  0  0
  1  7  1  0  0  0  0
  1  2  2  0  0  0  0
 36 37  1  0  0  0  0
 37 45  1  0  0  0  0
 37 38  2  0  0  0  0
  8  9  1  0  0  0  0
  9 17  1  0  0  0  0
  9 10  2  0  0  0  0
 18 19  1  0  0  0  0
 19 35  1  0  0  0  0
 19 20  2  0  0  0  0
 36 39  1  0  0  0  0
  8 11  1  0  0  0  0
 45 46  1  0  0  0  0
 18 21  1  0  0  0  0
 35 36  1  0  0  0  0
  7  8  1  0  0  0  0
 17 18  1  0  0  0  0
 24 32  1  0  0  0  0
 25 33  1  0  0  0  0
  3  4  1  0  0  0  0
  3  5  1  0  0  0  0
  3  6  1  0  0  0  0
 39 42  1  0  0  0  0
 39 43  1  0  0  0  0
 39 44  1  0  0  0  0
 11 14  1  0  0  0  0
 11 15  1  0  0  0  0
 11 16  1  0  0  0  0
 46 48  1  0  0  0  0
 46 49  1  0  0  0  0
 46 50  1  0  0  0  0
 21 29  1  0  0  0  0
 21 30  1  0  0  0  0
 36 41  1  0  0  0  0
  8 13  1  0  0  0  0
 18 28  1  0  0  0  0
 26 34  1  0  0  0  0
 23 31  1  0  0  0  0
 45 47  1  0  0  0  0
  7 12  1  0  0  0  0
 35 40  1  0  0  0  0
 17 27  1  0  0  0  0
M  CHG  1  23   1
M  END
$$$$

  -OEChem-05262214473D

 50 50  0     1  0  0  0  0  0999 V2000
   -1.6938    0.4865    3.8080 C   0  0  0  0  0  0  0  0  0  0  0  0
   -0.7464   -0.1282    3.3323 O   0  0  0  0  0  0  0  0  0  0  0  0
   -2.1257    0.2041    5.2087 C   0  0  0  0  0  0  0  0  0  0  0  0
   -2.8853   -0.5922    5.2621 H   0  0  0  0  0  0  0  0  0  0  0  0
   -1.2944   -0.1435    5.8430 H   0  0  0  0  0  0  0  0  0  0  0  0
   -2.5637    1.0590    5.7483 H   0  0  0  0  0  0  0  0  0  0  0  0
   -2.4435    1.4589    3.1669 N   0  0  0  0  0  0  0  0  0  0  0  0
   -2.1966    1.8850    1.8145 C   0  0  2  0  0  0  0  0  0  0  0  0
   -0.8617    1.2996    1.3733 C   0  0  0  0  0  0  0  0  0  0  0  0
    0.0104    0.9468    2.1646 O   0  0  0  0  0  0  0  0  0  0  0  0
   -2.1879    3.4017    1.7050 C   0  0  0  0  0  0  0  0  0  0  0  0
   -3.2085    1.8948    3.6787 H   0  0  0  0  0  0  0  0  0  0  0  0
   -3.0007    1.4665    1.1994 H   0  0  0  0  0  0  0  0  0  0  0  0
   -1.3888    3.8390    2.3147 H   0  0  0  0  0  0  0  0  0  0  0  0
   -2.0284    3.7240    0.6708 H   0  0  0  0  0  0  0  0  0  0  0  0
   -3.1380    3.8230    2.0508 H   0  0  0  0  0  0  0  0  0  0  0  0
   -0.7390    1.2565   -0.0101 N   0  0  0  0  0  0  0  0  0  0  0  0
    0.4383    0.7557   -0.6738 C   0  0  2  0  0  0  0  0  0  0  0  0
    0.6157   -0.6959   -0.2431 C   0  0  0  0  0  0  0  0  0  0  0  0
    1.6719   -1.3099   -0.3789 O   0  0  0  0  0  0  0  0  0  0  0  0
    1.6894    1.5711   -0.3272 C   0  0  0  0  0  0  0  0  0  0  0  0
    1.6057    3.0000   -0.8056 C   0  0  0  0  0  0  0  0  0  0  0  0
    1.7589    3.3320   -2.1301 N   0  3  0  0  0  0  0  0  0  0  0  0
    1.3884    4.1676   -0.1300 C   0  0  0  0  0  0  0  0  0  0  0  0
    1.6419    4.6560   -2.2742 C   0  0  0  0  0  0  0  0  0  0  0  0
    1.4165    5.1758   -1.0632 N   0  0  0  0  0  0  0  0  0  0  0  0
   -1.5221    1.5532   -0.5874 H   0  0  0  0  0  0  0  0  0  0  0  0
    0.2281    0.7878   -1.7493 H   0  0  0  0  0  0  0  0  0  0  0  0
    2.5840    1.0924   -0.7479 H   0  0  0  0  0  0  0  0  0  0  0  0
    1.8520    1.5811    0.7587 H   0  0  0  0  0  0  0  0  0  0  0  0
    1.9352    2.6767   -2.8866 H   0  0  0  0  0  0  0  0  0  0  0  0
    1.2161    4.4442    0.8911 H   0  0  0  0  0  0  0  0  0  0  0  0
    1.7167    5.2045   -3.1983 H   0  0  0  0  0  0  0  0  0  0  0  0
    1.2870    6.1642   -0.8663 H   0  0  0  0  0  0  0  0  0  0  0  0
   -0.5292   -1.2042    0.3546 N   0  0  0  0  0  0  0  0  0  0  0  0
   -0.6227   -2.5495    0.8744 C   0  0  2  0  0  0  0  0  0  0  0  0
   -0.1319   -3.5057   -0.2046 C   0  0  0  0  0  0  0  0  0  0  0  0
   -0.1177   -3.2182   -1.3997 O   0  0  0  0  0  0  0  0  0  0  0  0
   -2.0465   -2.8842    1.2906 C   0  0  0  0  0  0  0  0  0  0  0  0
   -1.3424   -0.6002    0.4305 H   0  0  0  0  0  0  0  0  0  0  0  0
    0.0461   -2.6011    1.7405 H   0  0  0  0  0  0  0  0  0  0  0  0
   -2.7312   -2.8377    0.4359 H   0  0  0  0  0  0  0  0  0  0  0  0
   -2.1103   -3.8935    1.7106 H   0  0  0  0  0  0  0  0  0  0  0  0
   -2.4084   -2.1774    2.0451 H   0  0  0  0  0  0  0  0  0  0  0  0
    0.2477   -4.7335    0.3194 N   0  0  0  0  0  0  0  0  0  0  0  0
    0.7375   -5.8146   -0.5036 C   0  0  0  0  0  0  0  0  0  0  0  0
    0.2208   -4.8776    1.3245 H   0  0  0  0  0  0  0  0  0  0  0  0
   -0.1012   -6.4652   -0.7924 H   0  0  0  0  0  0  0  0  0  0  0  0
    1.2097   -5.4023   -1.4074 H   0  0  0  0  0  0  0  0  0  0  0  0
    1.4773   -6.3999    0.0623 H   0  0  0  0  0  0  0  0  0  0  0  0
 22 24  2  0  0  0  0
 24 26  1  0  0  0  0
 25 26  1  0  0  0  0
 23 25  2  0  0  0  0
 21 22  1  0  0  0  0
 22 23  1  0  0  0  0
  1  3  1  0  0  0  0
  1  7  1  0  0  0  0
  1  2  2  0  0  0  0
 36 37  1  0  0  0  0
 37 45  1  0  0  0  0
 37 38  2  0  0  0  0
  8  9  1  0  0  0  0
  9 17  1  0  0  0  0
  9 10  2  0  0  0  0
 18 19  1  0  0  0  0
 19 35  1  0  0  0  0
 19 20  2  0  0  0  0
 36 39  1  0  0  0  0
  8 11  1  0  0  0  0
 45 46  1  0  0  0  0
 18 21  1  0  0  0  0
 35 36  1  0  0  0  0
  7  8  1  0  0  0  0
 17 18  1  0  0  0  0
 24 32  1  0  0  0  0
 25 33  1  0  0  0  0
  3  4  1  0  0  0  0
  3  5  1  0  0  0  0
  3  6  1  0  0  0  0
 39 42  1  0  0  0  0
 39 43  1  0  0  0  0
 39 44  1  0  0  0  0
 11 14  1  0  0  0  0
 11 15  1  0  0  0  0
 11 16  1  0  0  0  0
 46 48  1  0  0  0  0
 46 49  1  0  0  0  0
 46 50  1  0  0  0  0
 21 29  1  0  0  0  0
 21 30  1  0  0  0  0
 36 41  1  0  0  0  0
  8 13  1  0  0  0  0
 18 28  1  0  0  0  0
 26 34  1  0  0  0  0
 23 31  1  0  0  0  0
 45 47  1  0  0  0  0
  7 12  1  0  0  0  0
 35 40  1  0  0  0  0
 17 27  1  0  0  0  0
M  CHG  1  23   1
M  END
$$$$

  -OEChem-05262214473D

 50 50  0     1  0  0  0  0  0999 V2000
   -1.6938    0.4865    3.8080 C   0  0  0  0  0  0  0  0  0  0  0  0
   -0.7464   -0.1282    3.3323 O   0  0  0  0  0  0  0  0  0  0  0  0
   -2.1257    0.2041    5.2087 C   0  0  0  0  0  0  0  0  0  0  0  0
   -2.8853   -0.5922    5.2621 H   0  0  0  0  0  0  0  0  0  0  0  0
   -1.2944   -0.1435    5.8430 H   0  0  0  0  0  0  0  0  0  0  0  0
   -2.5637    1.0590    5.7483 H   0  0  0  0  0  0  0  0  0  0  0  0
   -2.4435    1.4589    3.1669 N   0  0  0  0  0  0  0  0  0  0  0  0
   -2.1966    1.8850    1.8145 C   0  0  2  0  0  0  0  0  0  0  0  0
   -0.8617    1.2996    1.3733 C   0  0  0  0  0  0  0  0  0  0  0  0
    0.0104    0.9468    2.1646 O   0  0  0  0  0  0  0  0  0  0  0  0
   -2.1879    3.4017    1.7050 C   0  0  0  0  0  0  0  0  0  0  0  0
   -3.2085    1.8948    3.6787 H   0  0  0  0  0  0  0  0  0  0  0  0
   -3.0007    1.4665    1.1994 H   0  0  0  0  0  0  0  0  0  0  0  0
   -1.3888    3.8390    2.3147 H   0  0  0  0  0  0  0  0  0  0  0  0
   -2.0284    3.7240    0.6708 H   0  0  0  0  0  0  0  0  0  0  0  0
   -3.1380    3.8230    2.0508 H   0  0  0  0  0  0  0  0  0  0  0  0
   -0.7390    1.2565   -0.0101 N   0  0  0  0  0  0  0  0  0  0  0  0
    0.4383    0.7557   -0.6738 C   0  0  2  0  0  0  0  0  0  0  0  0
    0.6157   -0.6959   -0.2431 C   0  0  0  0  0  0  0  0  0  0  0  0
    1.7169   -1.2293   -0.1261 O   0  0  0  0  0  0  0  0  0  0  0  0
    1.6894    1.5711   -0.3272 C   0  0  0  0  0  0  0  0  0  0  0  0
    1.6057    3.0000   -0.8056 C   0  0  0  0  0  0  0  0  0  0  0  0
    1.7589    3.3320   -2.1301 N   0  3  0  0  0  0  0  0  0  0  0  0
    1.3884    4.1676   -0.1300 C   0  0  0  0  0  0  0  0  0  0  0  0
    1.6419    4.6560   -2.2742 C   0  0  0  0  0  0  0  0  0  0  0  0
    1.4165    5.1758   -1.0632 N   0  0  0  0  0  0  0  0  0  0  0  0
   -1.5221    1.5532   -0.5874 H   0  0  0  0  0  0  0  0  0  0  0  0
    0.2281    0.7878   -1.7493 H   0  0  0  0  0  0  0  0  0  0  0  0
    2.5840    1.0924   -0.7479 H   0  0  0  0  0  0  0  0  0  0  0  0
    1.8520    1.5811    0.7587 H   0  0  0  0  0  0  0  0  0  0  0  0
    1.9352    2.6767   -2.8866 H   0  0  0  0  0  0  0  0  0  0  0  0
    1.2161    4.4442    0.8911 H   0  0  0  0  0  0  0  0  0  0  0  0
    1.7167    5.2045   -3.1983 H   0  0  0  0  0  0  0  0  0  0  0  0
    1.2870    6.1642   -0.8663 H   0  0  0  0  0  0  0  0  0  0  0  0
   -0.5983   -1.3055    0.0418 N   0  0  0  0  0  0  0  0  0  0  0  0
   -0.7127   -2.6734    0.4939 C   0  0  2  0  0  0  0  0  0  0  0  0
    0.0998   -3.5501   -0.4498 C   0  0  0  0  0  0  0  0  0  0  0  0
    0.3847   -3.2156   -1.5979 O   0  0  0  0  0  0  0  0  0  0  0  0
   -2.1650   -3.1221    0.5376 C   0  0  0  0  0  0  0  0  0  0  0  0
   -1.4492   -0.7628   -0.0733 H   0  0  0  0  0  0  0  0  0  0  0  0
   -0.2749   -2.7125    1.4974 H   0  0  0  0  0  0  0  0  0  0  0  0
   -2.6206   -3.0897   -0.4588 H   0  0  0  0  0  0  0  0  0  0  0  0
   -2.2521   -4.1491    0.9075 H   0  0  0  0  0  0  0  0  0  0  0  0
   -2.7542   -2.4723    1.1937 H   0  0  0  0  0  0  0  0  0  0  0  0
    0.4325   -4.7683    0.1261 N   0  0  0  0  0  0  0  0  0  0  0  0
    1.1909   -5.7797   -0.5725 C   0  0  0  0  0  0  0  0  0  0  0  0
    0.1711   -4.9533    1.0900 H   0  0  0  0  0  0  0  0  0  0  0  0
    0.5013   -6.4749   -1.0736 H   0  0  0  0  0  0  0  0  0  0  0  0
    1.8373   -5.3004   -1.3225 H   0  0  0  0  0  0  0  0  0  0  0  0
    1.8120   -6.3340    0.1465 H   0  0  0  0  0  0  0  0  0  0  0  0
 22 24  2  0  0  0  0
 24 26  1  0  0  0  0
 25 26  1  0  0  0  0
 23 25  2  0  0  0  0
 21 22  1  0  0  0  0
 22 23  1  0  0  0  0
  1  3  1  0  0  0  0
  1  7  1  0  0  0  0
  1  2  2  0  0  0  0
 36 37  1  0  0  0  0
 37 45  1  0  0  0  0
 37 38  2  0  0  0  0
  8  9  1  0  0  0  0
  9 17  1  0  0  0  0
  9 10  2  0  0  0  0
 18 19  1  0  0  0  0
 19 35  1  0  0  0  0
 19 20  2  0  0  0  0
 36 39  1  0  0  0  0
  8 11  1  0  0  0  0
 45 46  1  0  0  0  0
 18 21  1  0  0  0  0
 35 36  1  0  0  0  0
  7  8  1  0  0  0  0
 17 18  1  0  0  0  0
 24 32  1  0  0  0  0
 25 33  1  0  0  0  0
  3  4  1  0  0  0  0
  3  5  1  0  0  0  0
  3  6  1  0  0  0  0
 39 42  1  0  0  0  0
 39 43  1  0  0  0  0
 39 44  1  0  0  0  0
 11 14  1  0  0  0  0
 11 15  1  0  0  0  0
 11 16  1  0  0  0  0
 46 48  1  0  0  0  0
 46 49  1  0  0  0  0
 46 50  1  0  0  0  0
 21 29  1  0  0  0  0
 21 30  1  0  0  0  0
 36 41  1  0  0  0  0
  8 13  1  0  0  0  0
 18 28  1  0  0  0  0
 26 34  1  0  0  0  0
 23 31  1  0  0  0  0
 45 47  1  0  0  0  0
  7 12  1  0  0  0  0
 35 40  1  0  0  0  0
 17 27  1  0  0  0  0
M  CHG  1  23   1
M  END
$$$$

  -OEChem-05262214473D

 50 50  0     1  0  0  0  0  0999 V2000
   -1.6938    0.4865    3.8080 C   0  0  0  0  0  0  0  0  0  0  0  0
   -0.7464   -0.1282    3.3323 O   0  0  0  0  0  0  0  0  0  0  0  0
   -2.1257    0.2041    5.2087 C   0  0  0  0  0  0  0  0  0  0  0  0
   -2.8853   -0.5922    5.2621 H   0  0  0  0  0  0  0  0  0  0  0  0
   -1.2944   -0.1435    5.8430 H   0  0  0  0  0  0  0  0  0  0  0  0
   -2.5637    1.0590    5.7483 H   0  0  0  0  0  0  0  0  0  0  0  0
   -2.4435    1.4589    3.1669 N   0  0  0  0  0  0  0  0  0  0  0  0
   -2.1966    1.8850    1.8145 C   0  0  2  0  0  0  0  0  0  0  0  0
   -0.8617    1.2996    1.3733 C   0  0  0  0  0  0  0  0  0  0  0  0
    0.0104    0.9468    2.1646 O   0  0  0  0  0  0  0  0  0  0  0  0
   -2.1879    3.4017    1.7050 C   0  0  0  0  0  0  0  0  0  0  0  0
   -3.2085    1.8948    3.6787 H   0  0  0  0  0  0  0  0  0  0  0  0
   -3.0007    1.4665    1.1994 H   0  0  0  0  0  0  0  0  0  0  0  0
   -1.3888    3.8390    2.3147 H   0  0  0  0  0  0  0  0  0  0  0  0
   -2.0284    3.7240    0.6708 H   0  0  0  0  0  0  0  0  0  0  0  0
   -3.1380    3.8230    2.0508 H   0  0  0  0  0  0  0  0  0  0  0  0
   -0.7390    1.2565   -0.0101 N   0  0  0  0  0  0  0  0  0  0  0  0
    0.4383    0.7557   -0.6738 C   0  0  2  0  0  0  0  0  0  0  0  0
    0.6157   -0.6959   -0.2431 C   0  0  0  0  0  0  0  0  0  0  0  0
    1.6922   -1.1559    0.1317 O   0  0  0  0  0  0  0  0  0  0  0  0
    1.6894    1.5711   -0.3272 C   0  0  0  0  0  0  0  0  0  0  0  0
    1.6057    3.0000   -0.8056 C   0  0  0  0  0  0  0  0  0  0  0  0
    1.7589    3.3320   -2.1301 N   0  3  0  0  0  0  0  0  0  0  0  0
    1.3884    4.1676   -0.1300 C   0  0  0  0  0  0  0  0  0  0  0  0
    1.6419    4.6560   -2.2742 C   0  0  0  0  0  0  0  0  0  0  0  0
    1.4165    5.1758   -1.0632 N   0  0  0  0  0  0  0  0  0  0  0  0
   -1.5221    1.5532   -0.5874 H   0  0  0  0  0  0  0  0  0  0  0  0
    0.2281    0.7878   -1.7493 H   0  0  0  0  0  0  0  0  0  0  0  0
    2.5840    1.0924   -0.7479 H   0  0  0  0  0  0  0  0  0  0  0  0
    1.8520    1.5811    0.7587 H   0  0  0  0  0  0  0  0  0  0  0  0
    1.9352    2.6767   -2.8866 H   0  0  0  0  0  0  0  0  0  0  0  0
    1.2161    4.4442    0.8911 H   0  0  0  0  0  0  0  0  0  0  0  0
    1.7167    5.2045   -3.1983 H   0  0  0  0  0  0  0  0  0  0  0  0
    1.2870    6.1642   -0.8663 H   0  0  0  0  0  0  0  0  0  0  0  0
   -0.5805   -1.3989   -0.2805 N   0  0  0  0  0  0  0  0  0  0  0  0
   -0.6968   -2.7882    0.1005 C   0  0  2  0  0  0  0  0  0  0  0  0
    0.3874   -3.5687   -0.6309 C   0  0  0  0  0  0  0  0  0  0  0  0
    0.9186   -3.1704   -1.6654 O   0  0  0  0  0  0  0  0  0  0  0  0
   -2.0765   -3.3379   -0.2261 C   0  0  0  0  0  0  0  0  0  0  0  0
   -1.4163   -0.9124   -0.5912 H   0  0  0  0  0  0  0  0  0  0  0  0
   -0.5169   -2.8362    1.1801 H   0  0  0  0  0  0  0  0  0  0  0  0
   -2.2748   -3.2980   -1.3034 H   0  0  0  0  0  0  0  0  0  0  0  0
   -2.1724   -4.3822    0.0891 H   0  0  0  0  0  0  0  0  0  0  0  0
   -2.8568   -2.7567    0.2772 H   0  0  0  0  0  0  0  0  0  0  0  0
    0.6613   -4.7825   -0.0162 N   0  0  0  0  0  0  0  0  0  0  0  0
    1.6432   -5.7107   -0.5263 C   0  0  0  0  0  0  0  0  0  0  0  0
    0.1863   -5.0230    0.8489 H   0  0  0  0  0  0  0  0  0  0  0  0
    1.1532   -6.4319   -1.1970 H   0  0  0  0  0  0  0  0  0  0  0  0
    2.4151   -5.1587   -1.0827 H   0  0  0  0  0  0  0  0  0  0  0  0
    2.1097   -6.2484    0.3123 H   0  0  0  0  0  0  0  0  0  0  0  0
 22 24  2  0  0  0  0
 24 26  1  0  0  0  0
 25 26  1  0  0  0  0
 23 25  2  0  0  0  0
 21 22  1  0  0  0  0
 22 23  1  0  0  0  0
  1  3  1  0  0  0  0
  1  7  1  0  0  0  0
  1  2  2  0  0  0  0
 36 37  1  0  0  0  0
 37 45  1  0  0  0  0
 37 38  2  0  0  0  0
  8  9  1  0  0  0  0
  9 17  1  0  0  0  0
  9 10  2  0  0  0  0
 18 19  1  0  0  0  0
 19 35  1  0  0  0  0
 19 20  2  0  0  0  0
 36 39  1  0  0  0  0
  8 11  1  0  0  0  0
 45 46  1  0  0  0  0
 18 21  1  0  0  0  0
 35 36  1  0  0  0  0
  7  8  1  0  0  0  0
 17 18  1  0  0  0  0
 24 32  1  0  0  0  0
 25 33  1  0  0  0  0
  3  4  1  0  0  0  0
  3  5  1  0  0  0  0
  3  6  1  0  0  0  0
 39 42  1  0  0  0  0
 39 43  1  0  0  0  0
 39 44  1  0  0  0  0
 11 14  1  0  0  0  0
 11 15  1  0  0  0  0
 11 16  1  0  0  0  0
 46 48  1  0  0  0  0
 46 49  1  0  0  0  0
 46 50  1  0  0  0  0
 21 29  1  0  0  0  0
 21 30  1  0  0  0  0
 36 41  1  0  0  0  0
  8 13  1  0  0  0  0
 18 28  1  0  0  0  0
 26 34  1  0  0  0  0
 23 31  1  0  0  0  0
 45 47  1  0  0  0  0
  7 12  1  0  0  0  0
 35 40  1  0  0  0  0
 17 27  1  0  0  0  0
M  CHG  1  23   1
M  END
$$$$

  -OEChem-05262214473D

 50 50  0     1  0  0  0  0  0999 V2000
   -1.6938    0.4865    3.8080 C   0  0  0  0  0  0  0  0  0  0  0  0
   -0.7464   -0.1282    3.3323 O   0  0  0  0  0  0  0  0  0  0  0  0
   -2.1257    0.2041    5.2087 C   0  0  0  0  0  0  0  0  0  0  0  0
   -2.8853   -0.5922    5.2621 H   0  0  0  0  0  0  0  0  0  0  0  0
   -1.2944   -0.1435    5.8430 H   0  0  0  0  0  0  0  0  0  0  0  0
   -2.5637    1.0590    5.7483 H   0  0  0  0  0  0  0  0  0  0  0  0
   -2.4435    1.4589    3.1669 N   0  0  0  0  0  0  0  0  0  0  0  0
   -2.1966    1.8850    1.8145 C   0  0  2  0  0  0  0  0  0  0  0  0
   -0.8617    1.2996    1.3733 C   0  0  0  0  0  0  0  0  0  0  0  0
    0.0104    0.9468    2.1646 O   0  0  0  0  0  0  0  0  0  0  0  0
   -2.1879    3.4017    1.7050 C   0  0  0  0  0  0  0  0  0  0  0  0
   -3.2085    1.8948    3.6787 H   0  0  0  0  0  0  0  0  0  0  0  0
   -3.0007    1.4665    1.1994 H   0  0  0  0  0  0  0  0  0  0  0  0
   -1.3888    3.8390    2.3147 H   0  0  0  0  0  0  0  0  0  0  0  0
   -2.0284    3.7240    0.6708 H   0  0  0  0  0  0  0  0  0  0  0  0
   -3.1380    3.8230    2.0508 H   0  0  0  0  0  0  0  0  0  0  0  0
   -0.7390    1.2565   -0.0101 N   0  0  0  0  0  0  0  0  0  0  0  0
    0.4383    0.7557   -0.6738 C   0  0  2  0  0  0  0  0  0  0  0  0
    0.6157   -0.6959   -0.2431 C   0  0  0  0  0  0  0  0  0  0  0  0
    1.5995   -1.0945    0.3768 O   0  0  0  0  0  0  0  0  0  0  0  0
    1.6894    1.5711   -0.3272 C   0  0  0  0  0  0  0  0  0  0  0  0
    1.6057    3.0000   -0.8056 C   0  0  0  0  0  0  0  0  0  0  0  0
    1.7589    3.3320   -2.1301 N   0  3  0  0  0  0  0  0  0  0  0  0
    1.3884    4.1676   -0.1300 C   0  0  0  0  0  0  0  0  0  0  0  0
    1.6419    4.6560   -2.2742 C   0  0  0  0  0  0  0  0  0  0  0  0
    1.4165    5.1758   -1.0632 N   0  0  0  0  0  0  0  0  0  0  0  0
   -1.5221    1.5532   -0.5874 H   0  0  0  0  0  0  0  0  0  0  0  0
    0.2281    0.7878   -1.7493 H   0  0  0  0  0  0  0  0  0  0  0  0
    2.5840    1.0924   -0.7479 H   0  0  0  0  0  0  0  0  0  0  0  0
    1.8520    1.5811    0.7587 H   0  0  0  0  0  0  0  0  0  0  0  0
    1.9352    2.6767   -2.8866 H   0  0  0  0  0  0  0  0  0  0  0  0
    1.2161    4.4442    0.8911 H   0  0  0  0  0  0  0  0  0  0  0  0
    1.7167    5.2045   -3.1983 H   0  0  0  0  0  0  0  0  0  0  0  0
    1.2870    6.1642   -0.8663 H   0  0  0  0  0  0  0  0  0  0  0  0
   -0.4771   -1.4781   -0.5902 N   0  0  0  0  0  0  0  0  0  0  0  0
   -0.5761   -2.8860   -0.2790 C   0  0  2  0  0  0  0  0  0  0  0  0
    0.7111   -3.5602   -0.7354 C   0  0  0  0  0  0  0  0  0  0  0  0
    1.4476   -3.0856   -1.5976 O   0  0  0  0  0  0  0  0  0  0  0  0
   -1.7871   -3.5168   -0.9485 C   0  0  0  0  0  0  0  0  0  0  0  0
   -1.2459   -1.0390   -1.0879 H   0  0  0  0  0  0  0  0  0  0  0  0
   -0.6634   -2.9638    0.8102 H   0  0  0  0  0  0  0  0  0  0  0  0
   -1.7174   -3.4485   -2.0403 H   0  0  0  0  0  0  0  0  0  0  0  0
   -1.8767   -4.5768   -0.6888 H   0  0  0  0  0  0  0  0  0  0  0  0
   -2.7092   -3.0114   -0.6420 H   0  0  0  0  0  0  0  0  0  0  0  0
    0.9183   -4.7753   -0.0976 N   0  0  0  0  0  0  0  0  0  0  0  0
    2.0638   -5.6124   -0.3681 C   0  0  0  0  0  0  0  0  0  0  0  0
    0.2656   -5.0819    0.6177 H   0  0  0  0  0  0  0  0  0  0  0  0
    1.8102   -6.3389   -1.1542 H   0  0  0  0  0  0  0  0  0  0  0  0
    2.9037   -4.9867   -0.7044 H   0  0  0  0  0  0  0  0  0  0  0  0
    2.3502   -6.1490    0.5484 H   0  0  0  0  0  0  0  0  0  0  0  0
 22 24  2  0  0  0  0
 24 26  1  0  0  0  0
 25 26  1  0  0  0  0
 23 25  2  0  0  0  0
 21 22  1  0  0  0  0
 22 23  1  0  0  0  0
  1  3  1  0  0  0  0
  1  7  1  0  0  0  0
  1  2  2  0  0  0  0
 36 37  1  0  0  0  0
 37 45  1  0  0  0  0
 37 38  2  0  0  0  0
  8  9  1  0  0  0  0
  9 17  1  0  0  0  0
  9 10  2  0  0  0  0
 18 19  1  0  0  0  0
 19 35  1  0  0  0  0
 19 20  2  0  0  0  0
 36 39  1  0  0  0  0
  8 11  1  0  0  0  0
 45 46  1  0  0  0  0
 18 21  1  0  0  0  0
 35 36  1  0  0  0  0
  7  8  1  0  0  0  0
 17 18  1  0  0  0  0
 24 32  1  0  0  0  0
 25 33  1  0  0  0  0
  3  4  1  0  0  0  0
  3  5  1  0  0  0  0
  3  6  1  0  0  0  0
 39 42  1  0  0  0  0
 39 43  1  0  0  0  0
 39 44  1  0  0  0  0
 11 14  1  0  0  0  0
 11 15  1  0  0  0  0
 11 16  1  0  0  0  0
 46 48  1  0  0  0  0
 46 49  1  0  0  0  0
 46 50  1  0  0  0  0
 21 29  1  0  0  0  0
 21 30  1  0  0  0  0
 36 41  1  0  0  0  0
  8 13  1  0  0  0  0
 18 28  1  0  0  0  0
 26 34  1  0  0  0  0
 23 31  1  0  0  0  0
 45 47  1  0  0  0  0
  7 12  1  0  0  0  0
 35 40  1  0  0  0  0
 17 27  1  0  0  0  0
M  CHG  1  23   1
M  END
$$$$

  -OEChem-05262214473D

 50 50  0     1  0  0  0  0  0999 V2000
   -1.6938    0.4865    3.8080 C   0  0  0  0  0  0  0  0  0  0  0  0
   -0.7464   -0.1282    3.3323 O   0  0  0  0  0  0  0  0  0  0  0  0
   -2.1257    0.2041    5.2087 C   0  0  0  0  0  0  0  0  0  0  0  0
   -2.8853   -0.5922    5.2621 H   0  0  0  0  0  0  0  0  0  0  0  0
   -1.2944   -0.1435    5.8430 H   0  0  0  0  0  0  0  0  0  0  0  0
   -2.5637    1.0590    5.7483 H   0  0  0  0  0  0  0  0  0  0  0  0
   -2.4435    1.4589    3.1669 N   0  0  0  0  0  0  0  0  0  0  0  0
   -2.1966    1.8850    1.8145 C   0  0  2  0  0  0  0  0  0  0  0  0
   -0.8617    1.2996    1.3733 C   0  0  0  0  0  0  0  0  0  0  0  0
    0.0104    0.9468    2.1646 O   0  0  0  0  0  0  0  0  0  0  0  0
   -2.1879    3.4017    1.7050 C   0  0  0  0  0  0  0  0  0  0  0  0
   -3.2085    1.8948    3.6787 H   0  0  0  0  0  0  0  0  0  0  0  0
   -3.0007    1.4665    1.1994 H   0  0  0  0  0  0  0  0  0  0  0  0
   -1.3888    3.8390    2.3147 H   0  0  0  0  0  0  0  0  0  0  0  0
   -2.0284    3.7240    0.6708 H   0  0  0  0  0  0  0  0  0  0  0  0
   -3.1380    3.8230    2.0508 H   0  0  0  0  0  0  0  0  0  0  0  0
   -0.7390    1.2565   -0.0101 N   0  0  0  0  0  0  0  0  0  0  0  0
    0.4383    0.7557   -0.6738 C   0  0  2  0  0  0  0  0  0  0  0  0
    0.6157   -0.6959   -0.2431 C   0  0  0  0  0  0  0  0  0  0  0  0
    1.4450   -1.0494    0.5926 O   0  0  0  0  0  0  0  0  0  0  0  0
    1.6894    1.5711   -0.3272 C   0  0  0  0  0  0  0  0  0  0  0  0
    1.6057    3.0000   -0.8056 C   0  0  0  0  0  0  0  0  0  0  0  0
    1.7589    3.3320   -2.1301 N   0  3  0  0  0  0  0  0  0  0  0  0
    1.3884    4.1676   -0.1300 C   0  0  0  0  0  0  0  0  0  0  0  0
    1.6419    4.6560   -2.2742 C   0  0  0  0  0  0  0  0  0  0  0  0
    1.4165    5.1758   -1.0632 N   0  0  0  0  0  0  0  0  0  0  0  0
   -1.5221    1.5532   -0.5874 H   0  0  0  0  0  0  0  0  0  0  0  0
    0.2281    0.7878   -1.7493 H   0  0  0  0  0  0  0  0  0  0  0  0
    2.5840    1.0924   -0.7479 H   0  0  0  0  0  0  0  0  0  0  0  0
    1.8520    1.5811    0.7587 H   0  0  0  0  0  0  0  0  0  0  0  0
    1.9352    2.6767   -2.8866 H   0  0  0  0  0  0  0  0  0  0  0  0
    1.2161    4.4442    0.8911 H   0  0  0  0  0  0  0  0  0  0  0  0
    1.7167    5.2045   -3.1983 H   0  0  0  0  0  0  0  0  0  0  0  0
    1.2870    6.1642   -0.8663 H   0  0  0  0  0  0  0  0  0  0  0  0
   -0.2950   -1.5378   -0.8662 N   0  0  0  0  0  0  0  0  0  0  0  0
   -0.3588   -2.9603   -0.6188 C   0  0  2  0  0  0  0  0  0  0  0  0
    1.0489   -3.5251   -0.7564 C   0  0  0  0  0  0  0  0  0  0  0  0
    1.9357   -2.9671   -1.3993 O   0  0  0  0  0  0  0  0  0  0  0  0
   -1.3163   -3.6468   -1.5803 C   0  0  0  0  0  0  0  0  0  0  0  0
   -0.9497   -1.1338   -1.5295 H   0  0  0  0  0  0  0  0  0  0  0  0
   -0.7044   -3.0867    0.4130 H   0  0  0  0  0  0  0  0  0  0  0  0
   -0.9865   -3.5309   -2.6192 H   0  0  0  0  0  0  0  0  0  0  0  0
   -1.3852   -4.7198   -1.3732 H   0  0  0  0  0  0  0  0  0  0  0  0
   -2.3216   -3.2189   -1.5011 H   0  0  0  0  0  0  0  0  0  0  0  0
    1.1861   -4.7470   -0.1128 N   0  0  0  0  0  0  0  0  0  0  0  0
    2.4238   -5.4914   -0.1087 C   0  0  0  0  0  0  0  0  0  0  0  0
    0.4034   -5.1260    0.4121 H   0  0  0  0  0  0  0  0  0  0  0  0
    2.4275   -6.2023   -0.9481 H   0  0  0  0  0  0  0  0  0  0  0  0
    3.2699   -4.7963   -0.2134 H   0  0  0  0  0  0  0  0  0  0  0  0
    2.5171   -6.0424    0.8387 H   0  0  0  0  0  0  0  0  0  0  0  0
 22 24  2  0  0  0  0
 24 26  1  0  0  0  0
 25 26  1  0  0  0  0
 23 25  2  0  0  0  0
 21 22  1  0  0  0  0
 22 23  1  0  0  0  0
  1  3  1  0  0  0  0
  1  7  1  0  0  0  0
  1  2  2  0  0  0  0
 36 37  1  0  0  0  0
 37 45  1  0  0  0  0
 37 38  2  0  0  0  0
  8  9  1  0  0  0  0
  9 17  1  0  0  0  0
  9 10  2  0  0  0  0
 18 19  1  0  0  0  0
 19 35  1  0  0  0  0
 19 20  2  0  0  0  0
 36 39  1  0  0  0  0
  8 11  1  0  0  0  0
 45 46  1  0  0  0  0
 18 21  1  0  0  0  0
 35 36  1  0  0  0  0
  7  8  1  0  0  0  0
 17 18  1  0  0  0  0
 24 32  1  0  0  0  0
 25 33  1  0  0  0  0
  3  4  1  0  0  0  0
  3  5  1  0  0  0  0
  3  6  1  0  0  0  0
 39 42  1  0  0  0  0
 39 43  1  0  0  0  0
 39 44  1  0  0  0  0
 11 14  1  0  0  0  0
 11 15  1  0  0  0  0
 11 16  1  0  0  0  0
 46 48  1  0  0  0  0
 46 49  1  0  0  0  0
 46 50  1  0  0  0  0
 21 29  1  0  0  0  0
 21 30  1  0  0  0  0
 36 41  1  0  0  0  0
  8 13  1  0  0  0  0
 18 28  1  0  0  0  0
 26 34  1  0  0  0  0
 23 31  1  0  0  0  0
 45 47  1  0  0  0  0
  7 12  1  0  0  0  0
 35 40  1  0  0  0  0
 17 27  1  0  0  0  0
M  CHG  1  23   1
M  END
$$$$

  -OEChem-05262214473D

 50 50  0     1  0  0  0  0  0999 V2000
   -1.6938    0.4865    3.8080 C   0  0  0  0  0  0  0  0  0  0  0  0
   -0.7464   -0.1282    3.3323 O   0  0  0  0  0  0  0  0  0  0  0  0
   -2.1257    0.2041    5.2087 C   0  0  0  0  0  0  0  0  0  0  0  0
   -2.8853   -0.5922    5.2621 H   0  0  0  0  0  0  0  0  0  0  0  0
   -1.2944   -0.1435    5.8430 H   0  0  0  0  0  0  0  0  0  0  0  0
   -2.5637    1.0590    5.7483 H   0  0  0  0  0  0  0  0  0  0  0  0
   -2.4435    1.4589    3.1669 N   0  0  0  0  0  0  0  0  0  0  0  0
   -2.1966    1.8850    1.8145 C   0  0  2  0  0  0  0  0  0  0  0  0
   -0.8617    1.2996    1.3733 C   0  0  0  0  0  0  0  0  0  0  0  0
    0.0104    0.9468    2.1646 O   0  0  0  0  0  0  0  0  0  0  0  0
   -2.1879    3.4017    1.7050 C   0  0  0  0  0  0  0  0  0  0  0  0
   -3.2085    1.8948    3.6787 H   0  0  0  0  0  0  0  0  0  0  0  0
   -3.0007    1.4665    1.1994 H   0  0  0  0  0  0  0  0  0  0  0  0
   -1.3888    3.8390    2.3147 H   0  0  0  0  0  0  0  0  0  0  0  0
   -2.0284    3.7240    0.6708 H   0  0  0  0  0  0  0  0  0  0  0  0
   -3.1380    3.8230    2.0508 H   0  0  0  0  0  0  0  0  0  0  0  0
   -0.7390    1.2565   -0.0101 N   0  0  0  0  0  0  0  0  0  0  0  0
    0.4383    0.7557   -0.6738 C   0  0  2  0  0  0  0  0  0  0  0  0
    0.6157   -0.6959   -0.2431 C   0  0  0  0  0  0  0  0  0  0  0  0
    1.2393   -1.0236    0.7643 O   0  0  0  0  0  0  0  0  0  0  0  0
    1.6894    1.5711   -0.3272 C   0  0  0  0  0  0  0  0  0  0  0  0
    1.6057    3.0000   -0.8056 C   0  0  0  0  0  0  0  0  0  0  0  0
    1.7589    3.3320   -2.1301 N   0  3  0  0  0  0  0  0  0  0  0  0
    1.3884    4.1676   -0.1300 C   0  0  0  0  0  0  0  0  0  0  0  0
    1.6419    4.6560   -2.2742 C   0  0  0  0  0  0  0  0  0  0  0  0
    1.4165    5.1758   -1.0632 N   0  0  0  0  0  0  0  0  0  0  0  0
   -1.5221    1.5532   -0.5874 H   0  0  0  0  0  0  0  0  0  0  0  0
    0.2281    0.7878   -1.7493 H   0  0  0  0  0  0  0  0  0  0  0  0
    2.5840    1.0924   -0.7479 H   0  0  0  0  0  0  0  0  0  0  0  0
    1.8520    1.5811    0.7587 H   0  0  0  0  0  0  0  0  0  0  0  0
    1.9352    2.6767   -2.8866 H   0  0  0  0  0  0  0  0  0  0  0  0
    1.2161    4.4442    0.8911 H   0  0  0  0  0  0  0  0  0  0  0  0
    1.7167    5.2045   -3.1983 H   0  0  0  0  0  0  0  0  0  0  0  0
    1.2870    6.1642   -0.8663 H   0  0  0  0  0  0  0  0  0  0  0  0
   -0.0468   -1.5738   -1.0898 N   0  0  0  0  0  0  0  0  0  0  0  0
   -0.0597   -3.0059   -0.8957 C   0  0  2  0  0  0  0  0  0  0  0  0
    1.3778   -3.4659   -0.6924 C   0  0  0  0  0  0  0  0  0  0  0  0
    2.3496   -2.8230   -1.0839 O   0  0  0  0  0  0  0  0  0  0  0  0
   -0.6964   -3.7188   -2.0785 C   0  0  0  0  0  0  0  0  0  0  0  0
   -0.5478   -1.1904   -1.8859 H   0  0  0  0  0  0  0  0  0  0  0  0
   -0.6371   -3.1964    0.0155 H   0  0  0  0  0  0  0  0  0  0  0  0
   -0.1317   -3.5396   -3.0007 H   0  0  0  0  0  0  0  0  0  0  0  0
   -0.7313   -4.8014   -1.9174 H   0  0  0  0  0  0  0  0  0  0  0  0
   -1.7202   -3.3652   -2.2417 H   0  0  0  0  0  0  0  0  0  0  0  0
    1.4465   -4.6997   -0.0605 N   0  0  0  0  0  0  0  0  0  0  0  0
    2.6988   -5.3560    0.2342 C   0  0  0  0  0  0  0  0  0  0  0  0
    0.5905   -5.1524    0.2462 H   0  0  0  0  0  0  0  0  0  0  0  0
    2.9630   -6.0315   -0.5929 H   0  0  0  0  0  0  0  0  0  0  0  0
    3.4887   -4.6004    0.3568 H   0  0  0  0  0  0  0  0  0  0  0  0
    2.5989   -5.9361    1.1635 H   0  0  0  0  0  0  0  0  0  0  0  0
 22 24  2  0  0  0  0
 24 26  1  0  0  0  0
 25 26  1  0  0  0  0
 23 25  2  0  0  0  0
 21 22  1  0  0  0  0
 22 23  1  0  0  0  0
  1  3  1  0  0  0  0
  1  7  1  0  0  0  0
  1  2  2  0  0  0  0
 36 37  1  0  0  0  0
 37 45  1  0  0  0  0
 37 38  2  0  0  0  0
  8  9  1  0  0  0  0
  9 17  1  0  0  0  0
  9 10  2  0  0  0  0
 18 19  1  0  0  0  0
 19 35  1  0  0  0  0
 19 20  2  0  0  0  0
 36 39  1  0  0  0  0
  8 11  1  0  0  0  0
 45 46  1  0  0  0  0
 18 21  1  0  0  0  0
 35 36  1  0  0  0  0
  7  8  1  0  0  0  0
 17 18  1  0  0  0  0
 24 32  1  0  0  0  0
 25 33  1  0  0  0  0
  3  4  1  0  0  0  0
  3  5  1  0  0  0  0
  3  6  1  0  0  0  0
 39 42  1  0  0  0  0
 39 43  1  0  0  0  0
 39 44  1  0  0  0  0
 11 14  1  0  0  0  0
 11 15  1  0  0  0  0
 11 16  1  0  0  0  0
 46 48  1  0  0  0  0
 46 49  1  0  0  0  0
 46 50  1  0  0  0  0
 21 29  1  0  0  0  0
 21 30  1  0  0  0  0
 36 41  1  0  0  0  0
  8 13  1  0  0  0  0
 18 28  1  0  0  0  0
 26 34  1  0  0  0  0
 23 31  1  0  0  0  0
 45 47  1  0  0  0  0
  7 12  1  0  0  0  0
 35 40  1  0  0  0  0
 17 27  1  0  0  0  0
M  CHG  1  23   1
M  END
$$$$

  -OEChem-05262214473D

 50 50  0     1  0  0  0  0  0999 V2000
   -1.6938    0.4865    3.8080 C   0  0  0  0  0  0  0  0  0  0  0  0
   -0.7464   -0.1282    3.3323 O   0  0  0  0  0  0  0  0  0  0  0  0
   -2.1257    0.2041    5.2087 C   0  0  0  0  0  0  0  0  0  0  0  0
   -2.8853   -0.5922    5.2621 H   0  0  0  0  0  0  0  0  0  0  0  0
   -1.2944   -0.1435    5.8430 H   0  0  0  0  0  0  0  0  0  0  0  0
   -2.5637    1.0590    5.7483 H   0  0  0  0  0  0  0  0  0  0  0  0
   -2.4435    1.4589    3.1669 N   0  0  0  0  0  0  0  0  0  0  0  0
   -2.1966    1.8850    1.8145 C   0  0  2  0  0  0  0  0  0  0  0  0
   -0.8617    1.2996    1.3733 C   0  0  0  0  0  0  0  0  0  0  0  0
    0.0104    0.9468    2.1646 O   0  0  0  0  0  0  0  0  0  0  0  0
   -2.1879    3.4017    1.7050 C   0  0  0  0  0  0  0  0  0  0  0  0
   -3.2085    1.8948    3.6787 H   0  0  0  0  0  0  0  0  0  0  0  0
   -3.0007    1.4665    1.1994 H   0  0  0  0  0  0  0  0  0  0  0  0
   -1.3888    3.8390    2.3147 H   0  0  0  0  0  0  0  0  0  0  0  0
   -2.0284    3.7240    0.6708 H   0  0  0  0  0  0  0  0  0  0  0  0
   -3.1380    3.8230    2.0508 H   0  0  0  0  0  0  0  0  0  0  0  0
   -0.7390    1.2565   -0.0101 N   0  0  0  0  0  0  0  0  0  0  0  0
    0.4383    0.7557   -0.6738 C   0  0  2  0  0  0  0  0  0  0  0  0
    0.6157   -0.6959   -0.2431 C   0  0  0  0  0  0  0  0  0  0  0  0
    0.9964   -1.0189    0.8802 O   0  0  0  0  0  0  0  0  0  0  0  0
    1.6894    1.5711   -0.3272 C   0  0  0  0  0  0  0  0  0  0  0  0
    1.6057    3.0000   -0.8056 C   0  0  0  0  0  0  0  0  0  0  0  0
    1.7589    3.3320   -2.1301 N   0  3  0  0  0  0  0  0  0  0  0  0
    1.3884    4.1676   -0.1300 C   0  0  0  0  0  0  0  0  0  0  0  0
    1.6419    4.6560   -2.2742 C   0  0  0  0  0  0  0  0  0  0  0  0
    1.4165    5.1758   -1.0632 N   0  0  0  0  0  0  0  0  0  0  0  0
   -1.5221    1.5532   -0.5874 H   0  0  0  0  0  0  0  0  0  0  0  0
    0.2281    0.7878   -1.7493 H   0  0  0  0  0  0  0  0  0  0  0  0
    2.5840    1.0924   -0.7479 H   0  0  0  0  0  0  0  0  0  0  0  0
    1.8520    1.5811    0.7587 H   0  0  0  0  0  0  0  0  0  0  0  0
    1.9352    2.6767   -2.8866 H   0  0  0  0  0  0  0  0  0  0  0  0
    1.2161    4.4442    0.8911 H   0  0  0  0  0  0  0  0  0  0  0  0
    1.7167    5.2045   -3.1983 H   0  0  0  0  0  0  0  0  0  0  0  0
    1.2870    6.1642   -0.8663 H   0  0  0  0  0  0  0  0  0  0  0  0
    0.2507   -1.5837   -1.2456 N   0  0  0  0  0  0  0  0  0  0  0  0
    0.3007   -3.0197   -1.0909 C   0  0  2  0  0  0  0  0  0  0  0  0
    1.6754   -3.3866   -0.5476 C   0  0  0  0  0  0  0  0  0  0  0  0
    2.6611   -2.6629   -0.6728 O   0  0  0  0  0  0  0  0  0  0  0  0
    0.0304   -3.7281   -2.4092 C   0  0  0  0  0  0  0  0  0  0  0  0
   -0.0677   -1.2050   -2.1328 H   0  0  0  0  0  0  0  0  0  0  0  0
   -0.4662   -3.2855   -0.3551 H   0  0  0  0  0  0  0  0  0  0  0  0
    0.7886   -3.4741   -3.1589 H   0  0  0  0  0  0  0  0  0  0  0  0
    0.0404   -4.8159   -2.2844 H   0  0  0  0  0  0  0  0  0  0  0  0
   -0.9461   -3.4401   -2.8133 H   0  0  0  0  0  0  0  0  0  0  0  0
    1.6816   -4.6365    0.0555 N   0  0  0  0  0  0  0  0  0  0  0  0
    2.8701   -5.2155    0.6373 C   0  0  0  0  0  0  0  0  0  0  0  0
    0.8140   -5.1592    0.1312 H   0  0  0  0  0  0  0  0  0  0  0  0
    3.3801   -5.8380   -0.1126 H   0  0  0  0  0  0  0  0  0  0  0  0
    3.5452   -4.4123    0.9674 H   0  0  0  0  0  0  0  0  0  0  0  0
    2.5901   -5.8372    1.5005 H   0  0  0  0  0  0  0  0  0  0  0  0
 22 24  2  0  0  0  0
 24 26  1  0  0  0  0
 25 26  1  0  0  0  0
 23 25  2  0  0  0  0
 21 22  1  0  0  0  0
 22 23  1  0  0  0  0
  1  3  1  0  0  0  0
  1  7  1  0  0  0  0
  1  2  2  0  0  0  0
 36 37  1  0  0  0  0
 37 45  1  0  0  0  0
 37 38  2  0  0  0  0
  8  9  1  0  0  0  0
  9 17  1  0  0  0  0
  9 10  2  0  0  0  0
 18 19  1  0  0  0  0
 19 35  1  0  0  0  0
 19 20  2  0  0  0  0
 36 39  1  0  0  0  0
  8 11  1  0  0  0  0
 45 46  1  0  0  0  0
 18 21  1  0  0  0  0
 35 36  1  0  0  0  0
  7  8  1  0  0  0  0
 17 18  1  0  0  0  0
 24 32  1  0  0  0  0
 25 33  1  0  0  0  0
  3  4  1  0  0  0  0
  3  5  1  0  0  0  0
  3  6  1  0  0  0  0
 39 42  1  0  0  0  0
 39 43  1  0  0  0  0
 39 44  1  0  0  0  0
 11 14  1  0  0  0  0
 11 15  1  0  0  0  0
 11 16  1  0  0  0  0
 46 48  1  0  0  0  0
 46 49  1  0  0  0  0
 46 50  1  0  0  0  0
 21 29  1  0  0  0  0
 21 30  1  0  0  0  0
 36 41  1  0  0  0  0
  8 13  1  0  0  0  0
 18 28  1  0  0  0  0
 26 34  1  0  0  0  0
 23 31  1  0  0  0  0
 45 47  1  0  0  0  0
  7 12  1  0  0  0  0
 35 40  1  0  0  0  0
 17 27  1  0  0  0  0
M  CHG  1  23   1
M  END
$$$$

  -OEChem-05262214473D

 50 50  0     1  0  0  0  0  0999 V2000
   -1.6938    0.4865    3.8080 C   0  0  0  0  0  0  0  0  0  0  0  0
   -0.7464   -0.1282    3.3323 O   0  0  0  0  0  0  0  0  0  0  0  0
   -2.1257    0.2041    5.2087 C   0  0  0  0  0  0  0  0  0  0  0  0
   -2.8853   -0.5922    5.2621 H   0  0  0  0  0  0  0  0  0  0  0  0
   -1.2944   -0.1435    5.8430 H   0  0  0  0  0  0  0  0  0  0  0  0
   -2.5637    1.0590    5.7483 H   0  0  0  0  0  0  0  0  0  0  0  0
   -2.4435    1.4589    3.1669 N   0  0  0  0  0  0  0  0  0  0  0  0
   -2.1966    1.8850    1.8145 C   0  0  2  0  0  0  0  0  0  0  0  0
   -0.8617    1.2996    1.3733 C   0  0  0  0  0  0  0  0  0  0  0  0
    0.0104    0.9468    2.1646 O   0  0  0  0  0  0  0  0  0  0  0  0
   -2.1879    3.4017    1.7050 C   0  0  0  0  0  0  0  0  0  0  0  0
   -3.2085    1.8948    3.6787 H   0  0  0  0  0  0  0  0  0  0  0  0
   -3.0007    1.4665    1.1994 H   0  0  0  0  0  0  0  0  0  0  0  0
   -1.3888    3.8390    2.3147 H   0  0  0  0  0  0  0  0  0  0  0  0
   -2.0284    3.7240    0.6708 H   0  0  0  0  0  0  0  0  0  0  0  0
   -3.1380    3.8230    2.0508 H   0  0  0  0  0  0  0  0  0  0  0  0
   -0.7390    1.2565   -0.0101 N   0  0  0  0  0  0  0  0  0  0  0  0
    0.4383    0.7557   -0.6738 C   0  0  2  0  0  0  0  0  0  0  0  0
    0.6157   -0.6959   -0.2431 C   0  0  0  0  0  0  0  0  0  0  0  0
    0.7328   -1.0356    0.9324 O   0  0  0  0  0  0  0  0  0  0  0  0
    1.6894    1.5711   -0.3272 C   0  0  0  0  0  0  0  0  0  0  0  0
    1.6057    3.0000   -0.8056 C   0  0  0  0  0  0  0  0  0  0  0  0
    1.7589    3.3320   -2.1301 N   0  3  0  0  0  0  0  0  0  0  0  0
    1.3884    4.1676   -0.1300 C   0  0  0  0  0  0  0  0  0  0  0  0
    1.6419    4.6560   -2.2742 C   0  0  0  0  0  0  0  0  0  0  0  0
    1.4165    5.1758   -1.0632 N   0  0  0  0  0  0  0  0  0  0  0  0
   -1.5221    1.5532   -0.5874 H   0  0  0  0  0  0  0  0  0  0  0  0
    0.2281    0.7878   -1.7493 H   0  0  0  0  0  0  0  0  0  0  0  0
    2.5840    1.0924   -0.7479 H   0  0  0  0  0  0  0  0  0  0  0  0
    1.8520    1.5811    0.7587 H   0  0  0  0  0  0  0  0  0  0  0  0
    1.9352    2.6767   -2.8866 H   0  0  0  0  0  0  0  0  0  0  0  0
    1.2161    4.4442    0.8911 H   0  0  0  0  0  0  0  0  0  0  0  0
    1.7167    5.2045   -3.1983 H   0  0  0  0  0  0  0  0  0  0  0  0
    1.2870    6.1642   -0.8663 H   0  0  0  0  0  0  0  0  0  0  0  0
    0.5771   -1.5668   -1.3232 N   0  0  0  0  0  0  0  0  0  0  0  0
    0.6979   -3.0009   -1.1910 C   0  0  2  0  0  0  0  0  0  0  0  0
    1.9214   -3.2926   -0.3321 C   0  0  0  0  0  0  0  0  0  0  0  0
    2.8491   -2.4980   -0.1942 O   0  0  0  0  0  0  0  0  0  0  0  0
    0.8146   -3.6739   -2.5497 C   0  0  0  0  0  0  0  0  0  0  0  0
    0.4580   -1.1765   -2.2534 H   0  0  0  0  0  0  0  0  0  0  0  0
   -0.2032   -3.3478   -0.6737 H   0  0  0  0  0  0  0  0  0  0  0  0
    1.7117   -3.3387   -3.0829 H   0  0  0  0  0  0  0  0  0  0  0  0
    0.8773   -4.7625   -2.4492 H   0  0  0  0  0  0  0  0  0  0  0  0
   -0.0521   -3.4387   -3.1768 H   0  0  0  0  0  0  0  0  0  0  0  0
    1.8756   -4.5618    0.2275 N   0  0  0  0  0  0  0  0  0  0  0  0
    2.9258   -5.0794    1.0731 C   0  0  0  0  0  0  0  0  0  0  0  0
    1.0587   -5.1459    0.0751 H   0  0  0  0  0  0  0  0  0  0  0  0
    3.6506   -5.6351    0.4599 H   0  0  0  0  0  0  0  0  0  0  0  0
    3.4355   -4.2449    1.5769 H   0  0  0  0  0  0  0  0  0  0  0  0
    2.4913   -5.7524    1.8269 H   0  0  0  0  0  0  0  0  0  0  0  0
 22 24  2  0  0  0  0
 24 26  1  0  0  0  0
 25 26  1  0  0  0  0
 23 25  2  0  0  0  0
 21 22  1  0  0  0  0
 22 23  1  0  0  0  0
  1  3  1  0  0  0  0
  1  7  1  0  0  0  0
  1  2  2  0  0  0  0
 36 37  1  0  0  0  0
 37 45  1  0  0  0  0
 37 38  2  0  0  0  0
  8  9  1  0  0  0  0
  9 17  1  0  0  0  0
  9 10  2  0  0  0  0
 18 19  1  0  0  0  0
 19 35  1  0  0  0  0
 19 20  2  0  0  0  0
 36 39  1  0  0  0  0
  8 11  1  0  0  0  0
 45 46  1  0  0  0  0
 18 21  1  0  0  0  0
 35 36  1  0  0  0  0
  7  8  1  0  0  0  0
 17 18  1  0  0  0  0
 24 32  1  0  0  0  0
 25 33  1  0  0  0  0
  3  4  1  0  0  0  0
  3  5  1  0  0  0  0
  3  6  1  0  0  0  0
 39 42  1  0  0  0  0
 39 43  1  0  0  0  0
 39 44  1  0  0  0  0
 11 14  1  0  0  0  0
 11 15  1  0  0  0  0
 11 16  1  0  0  0  0
 46 48  1  0  0  0  0
 46 49  1  0  0  0  0
 46 50  1  0  0  0  0
 21 29  1  0  0  0  0
 21 30  1  0  0  0  0
 36 41  1  0  0  0  0
  8 13  1  0  0  0  0
 18 28  1  0  0  0  0
 26 34  1  0  0  0  0
 23 31  1  0  0  0  0
 45 47  1  0  0  0  0
  7 12  1  0  0  0  0
 35 40  1  0  0  0  0
 17 27  1  0  0  0  0
M  CHG  1  23   1
M  END
$$$$

  -OEChem-05262214473D

 50 50  0     1  0  0  0  0  0999 V2000
   -1.6938    0.4865    3.8080 C   0  0  0  0  0  0  0  0  0  0  0  0
   -0.7464   -0.1282    3.3323 O   0  0  0  0  0  0  0  0  0  0  0  0
   -2.1257    0.2041    5.2087 C   0  0  0  0  0  0  0  0  0  0  0  0
   -2.8853   -0.5922    5.2621 H   0  0  0  0  0  0  0  0  0  0  0  0
   -1.2944   -0.1435    5.8430 H   0  0  0  0  0  0  0  0  0  0  0  0
   -2.5637    1.0590    5.7483 H   0  0  0  0  0  0  0  0  0  0  0  0
   -2.4435    1.4589    3.1669 N   0  0  0  0  0  0  0  0  0  0  0  0
   -2.1966    1.8850    1.8145 C   0  0  2  0  0  0  0  0  0  0  0  0
   -0.8617    1.2996    1.3733 C   0  0  0  0  0  0  0  0  0  0  0  0
    0.0104    0.9468    2.1646 O   0  0  0  0  0  0  0  0  0  0  0  0
   -2.1879    3.4017    1.7050 C   0  0  0  0  0  0  0  0  0  0  0  0
   -3.2085    1.8948    3.6787 H   0  0  0  0  0  0  0  0  0  0  0  0
   -3.0007    1.4665    1.1994 H   0  0  0  0  0  0  0  0  0  0  0  0
   -1.3888    3.8390    2.3147 H   0  0  0  0  0  0  0  0  0  0  0  0
   -2.0284    3.7240    0.6708 H   0  0  0  0  0  0  0  0  0  0  0  0
   -3.1380    3.8230    2.0508 H   0  0  0  0  0  0  0  0  0  0  0  0
   -0.7390    1.2565   -0.0101 N   0  0  0  0  0  0  0  0  0  0  0  0
    0.4383    0.7557   -0.6738 C   0  0  2  0  0  0  0  0  0  0  0  0
    0.6157   -0.6959   -0.2431 C   0  0  0  0  0  0  0  0  0  0  0  0
    0.4666   -1.0725    0.9174 O   0  0  0  0  0  0  0  0  0  0  0  0
    1.6894    1.5711   -0.3272 C   0  0  0  0  0  0  0  0  0  0  0  0
    1.6057    3.0000   -0.8056 C   0  0  0  0  0  0  0  0  0  0  0  0
    1.7589    3.3320   -2.1301 N   0  3  0  0  0  0  0  0  0  0  0  0
    1.3884    4.1676   -0.1300 C   0  0  0  0  0  0  0  0  0  0  0  0
    1.6419    4.6560   -2.2742 C   0  0  0  0  0  0  0  0  0  0  0  0
    1.4165    5.1758   -1.0632 N   0  0  0  0  0  0  0  0  0  0  0  0
   -1.5221    1.5532   -0.5874 H   0  0  0  0  0  0  0  0  0  0  0  0
    0.2281    0.7878   -1.7493 H   0  0  0  0  0  0  0  0  0  0  0  0
    2.5840    1.0924   -0.7479 H   0  0  0  0  0  0  0  0  0  0  0  0
    1.8520    1.5811    0.7587 H   0  0  0  0  0  0  0  0  0  0  0  0
    1.9352    2.6767   -2.8866 H   0  0  0  0  0  0  0  0  0  0  0  0
    1.2161    4.4442    0.8911 H   0  0  0  0  0  0  0  0  0  0  0  0
    1.7167    5.2045   -3.1983 H   0  0  0  0  0  0  0  0  0  0  0  0
    1.2870    6.1642   -0.8663 H   0  0  0  0  0  0  0  0  0  0  0  0
    0.9104   -1.5242   -1.3171 N   0  0  0  0  0  0  0  0  0  0  0  0
    1.1049   -2.9506   -1.1892 C   0  0  2  0  0  0  0  0  0  0  0  0
    2.0990   -3.1903   -0.0605 C   0  0  0  0  0  0  0  0  0  0  0  0
    2.9006   -2.3393    0.3194 O   0  0  0  0  0  0  0  0  0  0  0  0
    1.6028   -3.5601   -2.4905 C   0  0  0  0  0  0  0  0  0  0  0  0
    0.9934   -1.1069   -2.2394 H   0  0  0  0  0  0  0  0  0  0  0  0
    0.1339   -3.3793   -0.9185 H   0  0  0  0  0  0  0  0  0  0  0  0
    2.5748   -3.1428   -2.7779 H   0  0  0  0  0  0  0  0  0  0  0  0
    1.7224   -4.6448   -2.4004 H   0  0  0  0  0  0  0  0  0  0  0  0
    0.9010   -3.3611   -3.3076 H   0  0  0  0  0  0  0  0  0  0  0  0
    2.0150   -4.4806    0.4436 N   0  0  0  0  0  0  0  0  0  0  0  0
    2.8624   -4.9570    1.5119 C   0  0  0  0  0  0  0  0  0  0  0  0
    1.3079   -5.1136    0.0815 H   0  0  0  0  0  0  0  0  0  0  0  0
    3.7559   -5.4365    1.0857 H   0  0  0  0  0  0  0  0  0  0  0  0
    3.1672   -4.1096    2.1435 H   0  0  0  0  0  0  0  0  0  0  0  0
    2.3093   -5.6876    2.1204 H   0  0  0  0  0  0  0  0  0  0  0  0
 22 24  2  0  0  0  0
 24 26  1  0  0  0  0
 25 26  1  0  0  0  0
 23 25  2  0  0  0  0
 21 22  1  0  0  0  0
 22 23  1  0  0  0  0
  1  3  1  0  0  0  0
  1  7  1  0  0  0  0
  1  2  2  0  0  0  0
 36 37  1  0  0  0  0
 37 45  1  0  0  0  0
 37 38  2  0  0  0  0
  8  9  1  0  0  0  0
  9 17  1  0  0  0  0
  9 10  2  0  0  0  0
 18 19  1  0  0  0  0
 19 35  1  0  0  0  0
 19 20  2  0  0  0  0
 36 39  1  0  0  0  0
  8 11  1  0  0  0  0
 45 46  1  0  0  0  0
 18 21  1  0  0  0  0
 35 36  1  0  0  0  0
  7  8  1  0  0  0  0
 17 18  1  0  0  0  0
 24 32  1  0  0  0  0
 25 33  1  0  0  0  0
  3  4  1  0  0  0  0
  3  5  1  0  0  0  0
  3  6  1  0  0  0  0
 39 42  1  0  0  0  0
 39 43  1  0  0  0  0
 39 44  1  0  0  0  0
 11 14  1  0  0  0  0
 11 15  1  0  0  0  0
 11 16  1  0  0  0  0
 46 48  1  0  0  0  0
 46 49  1  0  0  0  0
 46 50  1  0  0  0  0
 21 29  1  0  0  0  0
 21 30  1  0  0  0  0
 36 41  1  0  0  0  0
  8 13  1  0  0  0  0
 18 28  1  0  0  0  0
 26 34  1  0  0  0  0
 23 31  1  0  0  0  0
 45 47  1  0  0  0  0
  7 12  1  0  0  0  0
 35 40  1  0  0  0  0
 17 27  1  0  0  0  0
M  CHG  1  23   1
M  END
$$$$

  -OEChem-05262214473D

 50 50  0     1  0  0  0  0  0999 V2000
   -1.6938    0.4865    3.8080 C   0  0  0  0  0  0  0  0  0  0  0  0
   -0.7464   -0.1282    3.3323 O   0  0  0  0  0  0  0  0  0  0  0  0
   -2.1257    0.2041    5.2087 C   0  0  0  0  0  0  0  0  0  0  0  0
   -2.8853   -0.5922    5.2621 H   0  0  0  0  0  0  0  0  0  0  0  0
   -1.2944   -0.1435    5.8430 H   0  0  0  0  0  0  0  0  0  0  0  0
   -2.5637    1.0590    5.7483 H   0  0  0  0  0  0  0  0  0  0  0  0
   -2.4435    1.4589    3.1669 N   0  0  0  0  0  0  0  0  0  0  0  0
   -2.1966    1.8850    1.8145 C   0  0  2  0  0  0  0  0  0  0  0  0
   -0.8617    1.2996    1.3733 C   0  0  0  0  0  0  0  0  0  0  0  0
    0.0104    0.9468    2.1646 O   0  0  0  0  0  0  0  0  0  0  0  0
   -2.1879    3.4017    1.7050 C   0  0  0  0  0  0  0  0  0  0  0  0
   -3.2085    1.8948    3.6787 H   0  0  0  0  0  0  0  0  0  0  0  0
   -3.0007    1.4665    1.1994 H   0  0  0  0  0  0  0  0  0  0  0  0
   -1.3888    3.8390    2.3147 H   0  0  0  0  0  0  0  0  0  0  0  0
   -2.0284    3.7240    0.6708 H   0  0  0  0  0  0  0  0  0  0  0  0
   -3.1380    3.8230    2.0508 H   0  0  0  0  0  0  0  0  0  0  0  0
   -0.7390    1.2565   -0.0101 N   0  0  0  0  0  0  0  0  0  0  0  0
    0.4383    0.7557   -0.6738 C   0  0  2  0  0  0  0  0  0  0  0  0
    0.6157   -0.6959   -0.2431 C   0  0  0  0  0  0  0  0  0  0  0  0
    0.2159   -1.1273    0.8363 O   0  0  0  0  0  0  0  0  0  0  0  0
    1.6894    1.5711   -0.3272 C   0  0  0  0  0  0  0  0  0  0  0  0
    1.6057    3.0000   -0.8056 C   0  0  0  0  0  0  0  0  0  0  0  0
    1.7589    3.3320   -2.1301 N   0  3  0  0  0  0  0  0  0  0  0  0
    1.3884    4.1676   -0.1300 C   0  0  0  0  0  0  0  0  0  0  0  0
    1.6419    4.6560   -2.2742 C   0  0  0  0  0  0  0  0  0  0  0  0
    1.4165    5.1758   -1.0632 N   0  0  0  0  0  0  0  0  0  0  0  0
   -1.5221    1.5532   -0.5874 H   0  0  0  0  0  0  0  0  0  0  0  0
    0.2281    0.7878   -1.7493 H   0  0  0  0  0  0  0  0  0  0  0  0
    2.5840    1.0924   -0.7479 H   0  0  0  0  0  0  0  0  0  0  0  0
    1.8520    1.5811    0.7587 H   0  0  0  0  0  0  0  0  0  0  0  0
    1.9352    2.6767   -2.8866 H   0  0  0  0  0  0  0  0  0  0  0  0
    1.2161    4.4442    0.8911 H   0  0  0  0  0  0  0  0  0  0  0  0
    1.7167    5.2045   -3.1983 H   0  0  0  0  0  0  0  0  0  0  0  0
    1.2870    6.1642   -0.8663 H   0  0  0  0  0  0  0  0  0  0  0  0
    1.2276   -1.4590   -1.2278 N   0  0  0  0  0  0  0  0  0  0  0  0
    1.4940   -2.8724   -1.0857 C   0  0  2  0  0  0  0  0  0  0  0  0
    2.1962   -3.0867    0.2487 C   0  0  0  0  0  0  0  0  0  0  0  0
    2.8121   -2.1977    0.8330 O   0  0  0  0  0  0  0  0  0  0  0  0
    2.3412   -3.3942   -2.2357 C   0  0  0  0  0  0  0  0  0  0  0  0
    1.5021   -1.0010   -2.0920 H   0  0  0  0  0  0  0  0  0  0  0  0
    0.5221   -3.3776   -1.0729 H   0  0  0  0  0  0  0  0  0  0  0  0
    3.3189   -2.8996   -2.2647 H   0  0  0  0  0  0  0  0  0  0  0  0
    2.5181   -4.4707   -2.1415 H   0  0  0  0  0  0  0  0  0  0  0  0
    1.8481   -3.2124   -3.1968 H   0  0  0  0  0  0  0  0  0  0  0  0
    2.0906   -4.3986    0.6892 N   0  0  0  0  0  0  0  0  0  0  0  0
    2.6840   -4.8566    1.9237 C   0  0  0  0  0  0  0  0  0  0  0  0
    1.5447   -5.0643    0.1501 H   0  0  0  0  0  0  0  0  0  0  0  0
    3.6889   -5.2559    1.7221 H   0  0  0  0  0  0  0  0  0  0  0  0
    2.7584   -4.0155    2.6288 H   0  0  0  0  0  0  0  0  0  0  0  0
    2.0563   -5.6471    2.3609 H   0  0  0  0  0  0  0  0  0  0  0  0
 22 24  2  0  0  0  0
 24 26  1  0  0  0  0
 25 26  1  0  0  0  0
 23 25  2  0  0  0  0
 21 22  1  0  0  0  0
 22 23  1  0  0  0  0
  1  3  1  0  0  0  0
  1  7  1  0  0  0  0
  1  2  2  0  0  0  0
 36 37  1  0  0  0  0
 37 45  1  0  0  0  0
 37 38  2  0  0  0  0
  8  9  1  0  0  0  0
  9 17  1  0  0  0  0
  9 10  2  0  0  0  0
 18 19  1  0  0  0  0
 19 35  1  0  0  0  0
 19 20  2  0  0  0  0
 36 39  1  0  0  0  0
  8 11  1  0  0  0  0
 45 46  1  0  0  0  0
 18 21  1  0  0  0  0
 35 36  1  0  0  0  0
  7  8  1  0  0  0  0
 17 18  1  0  0  0  0
 24 32  1  0  0  0  0
 25 33  1  0  0  0  0
  3  4  1  0  0  0  0
  3  5  1  0  0  0  0
  3  6  1  0  0  0  0
 39 42  1  0  0  0  0
 39 43  1  0  0  0  0
 39 44  1  0  0  0  0
 11 14  1  0  0  0  0
 11 15  1  0  0  0  0
 11 16  1  0  0  0  0
 46 48  1  0  0  0  0
 46 49  1  0  0  0  0
 46 50  1  0  0  0  0
 21 29  1  0  0  0  0
 21 30  1  0  0  0  0
 36 41  1  0  0  0  0
  8 13  1  0  0  0  0
 18 28  1  0  0  0  0
 26 34  1  0  0  0  0
 23 31  1  0  0  0  0
 45 47  1  0  0  0  0
  7 12  1  0  0  0  0
 35 40  1  0  0  0  0
 17 27  1  0  0  0  0
M  CHG  1  23   1
M  END
$$$$

  -OEChem-05262214473D

 50 50  0     1  0  0  0  0  0999 V2000
   -1.6938    0.4865    3.8080 C   0  0  0  0  0  0  0  0  0  0  0  0
   -0.7464   -0.1282    3.3323 O   0  0  0  0  0  0  0  0  0  0  0  0
   -2.1257    0.2041    5.2087 C   0  0  0  0  0  0  0  0  0  0  0  0
   -2.8853   -0.5922    5.2621 H   0  0  0  0  0  0  0  0  0  0  0  0
   -1.2944   -0.1435    5.8430 H   0  0  0  0  0  0  0  0  0  0  0  0
   -2.5637    1.0590    5.7483 H   0  0  0  0  0  0  0  0  0  0  0  0
   -2.4435    1.4589    3.1669 N   0  0  0  0  0  0  0  0  0  0  0  0
   -2.1966    1.8850    1.8145 C   0  0  2  0  0  0  0  0  0  0  0  0
   -0.8617    1.2996    1.3733 C   0  0  0  0  0  0  0  0  0  0  0  0
    0.0104    0.9468    2.1646 O   0  0  0  0  0  0  0  0  0  0  0  0
   -2.1879    3.4017    1.7050 C   0  0  0  0  0  0  0  0  0  0  0  0
   -3.2085    1.8948    3.6787 H   0  0  0  0  0  0  0  0  0  0  0  0
   -3.0007    1.4665    1.1994 H   0  0  0  0  0  0  0  0  0  0  0  0
   -1.3888    3.8390    2.3147 H   0  0  0  0  0  0  0  0  0  0  0  0
   -2.0284    3.7240    0.6708 H   0  0  0  0  0  0  0  0  0  0  0  0
   -3.1380    3.8230    2.0508 H   0  0  0  0  0  0  0  0  0  0  0  0
   -0.7390    1.2565   -0.0101 N   0  0  0  0  0  0  0  0  0  0  0  0
    0.4383    0.7557   -0.6738 C   0  0  2  0  0  0  0  0  0  0  0  0
    0.6157   -0.6959   -0.2431 C   0  0  0  0  0  0  0  0  0  0  0  0
   -0.0023   -1.1960    0.6944 O   0  0  0  0  0  0  0  0  0  0  0  0
    1.6894    1.5711   -0.3272 C   0  0  0  0  0  0  0  0  0  0  0  0
    1.6057    3.0000   -0.8056 C   0  0  0  0  0  0  0  0  0  0  0  0
    1.7589    3.3320   -2.1301 N   0  3  0  0  0  0  0  0  0  0  0  0
    1.3884    4.1676   -0.1300 C   0  0  0  0  0  0  0  0  0  0  0  0
    1.6419    4.6560   -2.2742 C   0  0  0  0  0  0  0  0  0  0  0  0
    1.4165    5.1758   -1.0632 N   0  0  0  0  0  0  0  0  0  0  0  0
   -1.5221    1.5532   -0.5874 H   0  0  0  0  0  0  0  0  0  0  0  0
    0.2281    0.7878   -1.7493 H   0  0  0  0  0  0  0  0  0  0  0  0
    2.5840    1.0924   -0.7479 H   0  0  0  0  0  0  0  0  0  0  0  0
    1.8520    1.5811    0.7587 H   0  0  0  0  0  0  0  0  0  0  0  0
    1.9352    2.6767   -2.8866 H   0  0  0  0  0  0  0  0  0  0  0  0
    1.2161    4.4442    0.8911 H   0  0  0  0  0  0  0  0  0  0  0  0
    1.7167    5.2045   -3.1983 H   0  0  0  0  0  0  0  0  0  0  0  0
    1.2870    6.1642   -0.8663 H   0  0  0  0  0  0  0  0  0  0  0  0
    1.5073   -1.3754   -1.0615 N   0  0  0  0  0  0  0  0  0  0  0  0
    1.8385   -2.7714   -0.8874 C   0  0  2  0  0  0  0  0  0  0  0  0
    2.2062   -2.9888    0.5744 C   0  0  0  0  0  0  0  0  0  0  0  0
    2.5898   -2.0829    1.3115 O   0  0  0  0  0  0  0  0  0  0  0  0
    2.9795   -3.1877   -1.8026 C   0  0  0  0  0  0  0  0  0  0  0  0
    1.9493   -0.8659   -1.8209 H   0  0  0  0  0  0  0  0  0  0  0  0
    0.9350   -3.3430   -1.1262 H   0  0  0  0  0  0  0  0  0  0  0  0
    3.8934   -2.6257   -1.5783 H   0  0  0  0  0  0  0  0  0  0  0  0
    3.2101   -4.2522   -1.6902 H   0  0  0  0  0  0  0  0  0  0  0  0
    2.7248   -3.0029   -2.8518 H   0  0  0  0  0  0  0  0  0  0  0  0
    2.0970   -4.3211    0.9475 N   0  0  0  0  0  0  0  0  0  0  0  0
    2.4028   -4.7851    2.2806 C   0  0  0  0  0  0  0  0  0  0  0  0
    1.7529   -5.0014    0.2762 H   0  0  0  0  0  0  0  0  0  0  0  0
    3.4541   -5.1055    2.3258 H   0  0  0  0  0  0  0  0  0  0  0  0
    2.2371   -3.9692    2.9997 H   0  0  0  0  0  0  0  0  0  0  0  0
    1.7498   -5.6338    2.5322 H   0  0  0  0  0  0  0  0  0  0  0  0
 22 24  2  0  0  0  0
 24 26  1  0  0  0  0
 25 26  1  0  0  0  0
 23 25  2  0  0  0  0
 21 22  1  0  0  0  0
 22 23  1  0  0  0  0
  1  3  1  0  0  0  0
  1  7  1  0  0  0  0
  1  2  2  0  0  0  0
 36 37  1  0  0  0  0
 37 45  1  0  0  0  0
 37 38  2  0  0  0  0
  8  9  1  0  0  0  0
  9 17  1  0  0  0  0
  9 10  2  0  0  0  0
 18 19  1  0  0  0  0
 19 35  1  0  0  0  0
 19 20  2  0  0  0  0
 36 39  1  0  0  0  0
  8 11  1  0  0  0  0
 45 46  1  0  0  0  0
 18 21  1  0  0  0  0
 35 36  1  0  0  0  0
  7  8  1  0  0  0  0
 17 18  1  0  0  0  0
 24 32  1  0  0  0  0
 25 33  1  0  0  0  0
  3  4  1  0  0  0  0
  3  5  1  0  0  0  0
  3  6  1  0  0  0  0
 39 42  1  0  0  0  0
 39 43  1  0  0  0  0
 39 44  1  0  0  0  0
 11 14  1  0  0  0  0
 11 15  1  0  0  0  0
 11 16  1  0  0  0  0
 46 48  1  0  0  0  0
 46 49  1  0  0  0  0
 46 50  1  0  0  0  0
 21 29  1  0  0  0  0
 21 30  1  0  0  0  0
 36 41  1  0  0  0  0
  8 13  1  0  0  0  0
 18 28  1  0  0  0  0
 26 34  1  0  0  0  0
 23 31  1  0  0  0  0
 45 47  1  0  0  0  0
  7 12  1  0  0  0  0
 35 40  1  0  0  0  0
 17 27  1  0  0  0  0
M  CHG  1  23   1
M  END
$$$$

  -OEChem-05262214473D

 50 50  0     1  0  0  0  0  0999 V2000
   -1.6938    0.4865    3.8080 C   0  0  0  0  0  0  0  0  0  0  0  0
   -0.7464   -0.1282    3.3323 O   0  0  0  0  0  0  0  0  0  0  0  0
   -2.1257    0.2041    5.2087 C   0  0  0  0  0  0  0  0  0  0  0  0
   -2.8853   -0.5922    5.2621 H   0  0  0  0  0  0  0  0  0  0  0  0
   -1.2944   -0.1435    5.8430 H   0  0  0  0  0  0  0  0  0  0  0  0
   -2.5637    1.0590    5.7483 H   0  0  0  0  0  0  0  0  0  0  0  0
   -2.4435    1.4589    3.1669 N   0  0  0  0  0  0  0  0  0  0  0  0
   -2.1966    1.8850    1.8145 C   0  0  2  0  0  0  0  0  0  0  0  0
   -0.8617    1.2996    1.3733 C   0  0  0  0  0  0  0  0  0  0  0  0
    0.0104    0.9468    2.1646 O   0  0  0  0  0  0  0  0  0  0  0  0
   -2.1879    3.4017    1.7050 C   0  0  0  0  0  0  0  0  0  0  0  0
   -3.2085    1.8948    3.6787 H   0  0  0  0  0  0  0  0  0  0  0  0
   -3.0007    1.4665    1.1994 H   0  0  0  0  0  0  0  0  0  0  0  0
   -1.3888    3.8390    2.3147 H   0  0  0  0  0  0  0  0  0  0  0  0
   -2.0284    3.7240    0.6708 H   0  0  0  0  0  0  0  0  0  0  0  0
   -3.1380    3.8230    2.0508 H   0  0  0  0  0  0  0  0  0  0  0  0
   -0.7390    1.2565   -0.0101 N   0  0  0  0  0  0  0  0  0  0  0  0
    0.4383    0.7557   -0.6738 C   0  0  2  0  0  0  0  0  0  0  0  0
    0.4105   -0.7640   -0.5558 C   0  0  0  0  0  0  0  0  0  0  0  0
   -0.5091   -1.3766   -0.0174 O   0  0  0  0  0  0  0  0  0  0  0  0
    1.7289    1.3141   -0.0632 C   0  0  0  0  0  0  0  0  0  0  0  0
    1.8518    2.8095   -0.2253 C   0  0  0  0  0  0  0  0  0  0  0  0
    2.1757    3.3847   -1.4305 N   0  3  0  0  0  0  0  0  0  0  0  0
    1.6954    3.8310    0.6686 C   0  0  0  0  0  0  0  0  0  0  0  0
    2.2198    4.7137   -1.2926 C   0  0  0  0  0  0  0  0  0  0  0  0
    1.9294    4.9976   -0.0188 N   0  0  0  0  0  0  0  0  0  0  0  0
   -1.5221    1.5532   -0.5874 H   0  0  0  0  0  0  0  0  0  0  0  0
    0.3445    1.0354   -1.7297 H   0  0  0  0  0  0  0  0  0  0  0  0
    2.6042    0.8211   -0.5074 H   0  0  0  0  0  0  0  0  0  0  0  0
    1.7792    1.0792    1.0083 H   0  0  0  0  0  0  0  0  0  0  0  0
    2.3560    2.8820   -2.2952 H   0  0  0  0  0  0  0  0  0  0  0  0
    1.4504    3.9111    1.7089 H   0  0  0  0  0  0  0  0  0  0  0  0
    2.4487    5.4264   -2.0672 H   0  0  0  0  0  0  0  0  0  0  0  0
    1.8894    5.9325    0.3773 H   0  0  0  0  0  0  0  0  0  0  0  0
    1.5089   -1.3528   -1.1668 N   0  0  0  0  0  0  0  0  0  0  0  0
    1.7158   -2.7822   -1.2201 C   0  0  2  0  0  0  0  0  0  0  0  0
    1.5475   -3.3345    0.1892 C   0  0  0  0  0  0  0  0  0  0  0  0
    1.6799   -2.6468    1.1995 O   0  0  0  0  0  0  0  0  0  0  0  0
    3.0897   -3.1220   -1.7766 C   0  0  0  0  0  0  0  0  0  0  0  0
    2.2021   -0.7487   -1.5983 H   0  0  0  0  0  0  0  0  0  0  0  0
    0.9337   -3.1910   -1.8690 H   0  0  0  0  0  0  0  0  0  0  0  0
    3.8863   -2.7205   -1.1396 H   0  0  0  0  0  0  0  0  0  0  0  0
    3.2340   -4.2054   -1.8430 H   0  0  0  0  0  0  0  0  0  0  0  0
    3.2200   -2.6986   -2.7784 H   0  0  0  0  0  0  0  0  0  0  0  0
    1.2746   -4.6953    0.1873 N   0  0  0  0  0  0  0  0  0  0  0  0
    1.0852   -5.4542    1.4014 C   0  0  0  0  0  0  0  0  0  0  0  0
    1.1634   -5.1813   -0.6977 H   0  0  0  0  0  0  0  0  0  0  0  0
    2.0454   -5.8889    1.7162 H   0  0  0  0  0  0  0  0  0  0  0  0
    0.7061   -4.7910    2.1929 H   0  0  0  0  0  0  0  0  0  0  0  0
    0.3595   -6.2607    1.2201 H   0  0  0  0  0  0  0  0  0  0  0  0
 22 24  2  0  0  0  0
 24 26  1  0  0  0  0
 25 26  1  0  0  0  0
 23 25  2  0  0  0  0
 21 22  1  0  0  0  0
 22 23  1  0  0  0  0
  1  3  1  0  0  0  0
  1  7  1  0  0  0  0
  1  2  2  0  0  0  0
 36 37  1  0  0  0  0
 37 45  1  0  0  0  0
 37 38  2  0  0  0  0
  8  9  1  0  0  0  0
  9 17  1  0  0  0  0
  9 10  2  0  0  0  0
 18 19  1  0  0  0  0
 19 35  1  0  0  0  0
 19 20  2  0  0  0  0
 36 39  1  0  0  0  0
  8 11  1  0  0  0  0
 45 46  1  0  0  0  0
 18 21  1  0  0  0  0
 35 36  1  0  0  0  0
  7  8  1  0  0  0  0
 17 18  1  0  0  0  0
 24 32  1  0  0  0  0
 25 33  1  0  0  0  0
  3  4  1  0  0  0  0
  3  5  1  0  0  0  0
  3  6  1  0  0  0  0
 39 42  1  0  0  0  0
 39 43  1  0  0  0  0
 39 44  1  0  0  0  0
 11 14  1  0  0  0  0
 11 15  1  0  0  0  0
 11 16  1  0  0  0  0
 46 48  1  0  0  0  0
 46 49  1  0  0  0  0
 46 50  1  0  0  0  0
 21 29  1  0  0  0  0
 21 30  1  0  0  0  0
 36 41  1  0  0  0  0
  8 13  1  0  0  0  0
 18 28  1  0  0  0  0
 26 34  1  0  0  0  0
 23 31  1  0  0  0  0
 45 47  1  0  0  0  0
  7 12  1  0  0  0  0
 35 40  1  0  0  0  0
 17 27  1  0  0  0  0
M  CHG  1  23   1
M  END
$$$$

  -OEChem-05262214473D

 50 50  0     1  0  0  0  0  0999 V2000
   -1.6938    0.4865    3.8080 C   0  0  0  0  0  0  0  0  0  0  0  0
   -0.7464   -0.1282    3.3323 O   0  0  0  0  0  0  0  0  0  0  0  0
   -2.1257    0.2041    5.2087 C   0  0  0  0  0  0  0  0  0  0  0  0
   -2.8853   -0.5922    5.2621 H   0  0  0  0  0  0  0  0  0  0  0  0
   -1.2944   -0.1435    5.8430 H   0  0  0  0  0  0  0  0  0  0  0  0
   -2.5637    1.0590    5.7483 H   0  0  0  0  0  0  0  0  0  0  0  0
   -2.4435    1.4589    3.1669 N   0  0  0  0  0  0  0  0  0  0  0  0
   -2.1966    1.8850    1.8145 C   0  0  2  0  0  0  0  0  0  0  0  0
   -0.8617    1.2996    1.3733 C   0  0  0  0  0  0  0  0  0  0  0  0
    0.0104    0.9468    2.1646 O   0  0  0  0  0  0  0  0  0  0  0  0
   -2.1879    3.4017    1.7050 C   0  0  0  0  0  0  0  0  0  0  0  0
   -3.2085    1.8948    3.6787 H   0  0  0  0  0  0  0  0  0  0  0  0
   -3.0007    1.4665    1.1994 H   0  0  0  0  0  0  0  0  0  0  0  0
   -1.3888    3.8390    2.3147 H   0  0  0  0  0  0  0  0  0  0  0  0
   -2.0284    3.7240    0.6708 H   0  0  0  0  0  0  0  0  0  0  0  0
   -3.1380    3.8230    2.0508 H   0  0  0  0  0  0  0  0  0  0  0  0
   -0.7390    1.2565   -0.0101 N   0  0  0  0  0  0  0  0  0  0  0  0
    0.4383    0.7557   -0.6738 C   0  0  2  0  0  0  0  0  0  0  0  0
    0.4105   -0.7640   -0.5558 C   0  0  0  0  0  0  0  0  0  0  0  0
   -0.6049   -1.3943   -0.2683 O   0  0  0  0  0  0  0  0  0  0  0  0
    1.7289    1.3141   -0.0632 C   0  0  0  0  0  0  0  0  0  0  0  0
    1.8518    2.8095   -0.2253 C   0  0  0  0  0  0  0  0  0  0  0  0
    2.1757    3.3847   -1.4305 N   0  3  0  0  0  0  0  0  0  0  0  0
    1.6954    3.8310    0.6686 C   0  0  0  0  0  0  0  0  0  0  0  0
    2.2198    4.7137   -1.2926 C   0  0  0  0  0  0  0  0  0  0  0  0
    1.9294    4.9976   -0.0188 N   0  0  0  0  0  0  0  0  0  0  0  0
   -1.5221    1.5532   -0.5874 H   0  0  0  0  0  0  0  0  0  0  0  0
    0.3445    1.0354   -1.7297 H   0  0  0  0  0  0  0  0  0  0  0  0
    2.6042    0.8211   -0.5074 H   0  0  0  0  0  0  0  0  0  0  0  0
    1.7792    1.0792    1.0083 H   0  0  0  0  0  0  0  0  0  0  0  0
    2.3560    2.8820   -2.2952 H   0  0  0  0  0  0  0  0  0  0  0  0
    1.4504    3.9111    1.7089 H   0  0  0  0  0  0  0  0  0  0  0  0
    2.4487    5.4264   -2.0672 H   0  0  0  0  0  0  0  0  0  0  0  0
    1.8894    5.9325    0.3773 H   0  0  0  0  0  0  0  0  0  0  0  0
    1.6406   -1.3312   -0.8585 N   0  0  0  0  0  0  0  0  0  0  0  0
    1.8820   -2.7562   -0.8460 C   0  0  2  0  0  0  0  0  0  0  0  0
    1.3665   -3.3089    0.4762 C   0  0  0  0  0  0  0  0  0  0  0  0
    1.2203   -2.6165    1.4813 O   0  0  0  0  0  0  0  0  0  0  0  0
    3.3592   -3.0687   -1.0268 C   0  0  0  0  0  0  0  0  0  0  0  0
    2.4098   -0.7138   -1.1010 H   0  0  0  0  0  0  0  0  0  0  0  0
    1.3019   -3.1824   -1.6717 H   0  0  0  0  0  0  0  0  0  0  0  0
    3.9565   -2.6495   -0.2089 H   0  0  0  0  0  0  0  0  0  0  0  0
    3.5368   -4.1490   -1.0457 H   0  0  0  0  0  0  0  0  0  0  0  0
    3.7354   -2.6448   -1.9641 H   0  0  0  0  0  0  0  0  0  0  0  0
    1.1297   -4.6750    0.4139 N   0  0  0  0  0  0  0  0  0  0  0  0
    0.6482   -5.4352    1.5437 C   0  0  0  0  0  0  0  0  0  0  0  0
    1.2601   -5.1651   -0.4662 H   0  0  0  0  0  0  0  0  0  0  0  0
    1.5029   -5.8493    2.0987 H   0  0  0  0  0  0  0  0  0  0  0  0
    0.0649   -4.7782    2.2056 H   0  0  0  0  0  0  0  0  0  0  0  0
    0.0097   -6.2569    1.1872 H   0  0  0  0  0  0  0  0  0  0  0  0
 22 24  2  0  0  0  0
 24 26  1  0  0  0  0
 25 26  1  0  0  0  0
 23 25  2  0  0  0  0
 21 22  1  0  0  0  0
 22 23  1  0  0  0  0
  1  3  1  0  0  0  0
  1  7  1  0  0  0  0
  1  2  2  0  0  0  0
 36 37  1  0  0  0  0
 37 45  1  0  0  0  0
 37 38  2  0  0  0  0
  8  9  1  0  0  0  0
  9 17  1  0  0  0  0
  9 10  2  0  0  0  0
 18 19  1  0  0  0  0
 19 35  1  0  0  0  0
 19 20  2  0  0  0  0
 36 39  1  0  0  0  0
  8 11  1  0  0  0  0
 45 46  1  0  0  0  0
 18 21  1  0  0  0  0
 35 36  1  0  0  0  0
  7  8  1  0  0  0  0
 17 18  1  0  0  0  0
 24 32  1  0  0  0  0
 25 33  1  0  0  0  0
  3  4  1  0  0  0  0
  3  5  1  0  0  0  0
  3  6  1  0  0  0  0
 39 42  1  0  0  0  0
 39 43  1  0  0  0  0
 39 44  1  0  0  0  0
 11 14  1  0  0  0  0
 11 15  1  0  0  0  0
 11 16  1  0  0  0  0
 46 48  1  0  0  0  0
 46 49  1  0  0  0  0
 46 50  1  0  0  0  0
 21 29  1  0  0  0  0
 21 30  1  0  0  0  0
 36 41  1  0  0  0  0
  8 13  1  0  0  0  0
 18 28  1  0  0  0  0
 26 34  1  0  0  0  0
 23 31  1  0  0  0  0
 45 47  1  0  0  0  0
  7 12  1  0  0  0  0
 35 40  1  0  0  0  0
 17 27  1  0  0  0  0
M  CHG  1  23   1
M  END
$$$$

  -OEChem-05262214473D

 50 50  0     1  0  0  0  0  0999 V2000
   -1.6938    0.4865    3.8080 C   0  0  0  0  0  0  0  0  0  0  0  0
   -0.7464   -0.1282    3.3323 O   0  0  0  0  0  0  0  0  0  0  0  0
   -2.1257    0.2041    5.2087 C   0  0  0  0  0  0  0  0  0  0  0  0
   -2.8853   -0.5922    5.2621 H   0  0  0  0  0  0  0  0  0  0  0  0
   -1.2944   -0.1435    5.8430 H   0  0  0  0  0  0  0  0  0  0  0  0
   -2.5637    1.0590    5.7483 H   0  0  0  0  0  0  0  0  0  0  0  0
   -2.4435    1.4589    3.1669 N   0  0  0  0  0  0  0  0  0  0  0  0
   -2.1966    1.8850    1.8145 C   0  0  2  0  0  0  0  0  0  0  0  0
   -0.8617    1.2996    1.3733 C   0  0  0  0  0  0  0  0  0  0  0  0
    0.0104    0.9468    2.1646 O   0  0  0  0  0  0  0  0  0  0  0  0
   -2.1879    3.4017    1.7050 C   0  0  0  0  0  0  0  0  0  0  0  0
   -3.2085    1.8948    3.6787 H   0  0  0  0  0  0  0  0  0  0  0  0
   -3.0007    1.4665    1.1994 H   0  0  0  0  0  0  0  0  0  0  0  0
   -1.3888    3.8390    2.3147 H   0  0  0  0  0  0  0  0  0  0  0  0
   -2.0284    3.7240    0.6708 H   0  0  0  0  0  0  0  0  0  0  0  0
   -3.1380    3.8230    2.0508 H   0  0  0  0  0  0  0  0  0  0  0  0
   -0.7390    1.2565   -0.0101 N   0  0  0  0  0  0  0  0  0  0  0  0
    0.4383    0.7557   -0.6738 C   0  0  2  0  0  0  0  0  0  0  0  0
    0.4105   -0.7640   -0.5558 C   0  0  0  0  0  0  0  0  0  0  0  0
   -0.6322   -1.4146   -0.5353 O   0  0  0  0  0  0  0  0  0  0  0  0
    1.7289    1.3141   -0.0632 C   0  0  0  0  0  0  0  0  0  0  0  0
    1.8518    2.8095   -0.2253 C   0  0  0  0  0  0  0  0  0  0  0  0
    2.1757    3.3847   -1.4305 N   0  3  0  0  0  0  0  0  0  0  0  0
    1.6954    3.8310    0.6686 C   0  0  0  0  0  0  0  0  0  0  0  0
    2.2198    4.7137   -1.2926 C   0  0  0  0  0  0  0  0  0  0  0  0
    1.9294    4.9976   -0.0188 N   0  0  0  0  0  0  0  0  0  0  0  0
   -1.5221    1.5532   -0.5874 H   0  0  0  0  0  0  0  0  0  0  0  0
    0.3445    1.0354   -1.7297 H   0  0  0  0  0  0  0  0  0  0  0  0
    2.6042    0.8211   -0.5074 H   0  0  0  0  0  0  0  0  0  0  0  0
    1.7792    1.0792    1.0083 H   0  0  0  0  0  0  0  0  0  0  0  0
    2.3560    2.8820   -2.2952 H   0  0  0  0  0  0  0  0  0  0  0  0
    1.4504    3.9111    1.7089 H   0  0  0  0  0  0  0  0  0  0  0  0
    2.4487    5.4264   -2.0672 H   0  0  0  0  0  0  0  0  0  0  0  0
    1.8894    5.9325    0.3773 H   0  0  0  0  0  0  0  0  0  0  0  0
    1.6878   -1.3064   -0.5268 N   0  0  0  0  0  0  0  0  0  0  0  0
    1.9454   -2.7259   -0.4420 C   0  0  2  0  0  0  0  0  0  0  0  0
    1.1170   -3.2865    0.7065 C   0  0  0  0  0  0  0  0  0  0  0  0
    0.7030   -2.5952    1.6348 O   0  0  0  0  0  0  0  0  0  0  0  0
    3.4251   -3.0083   -0.2333 C   0  0  0  0  0  0  0  0  0  0  0  0
    2.4814   -0.6737   -0.5671 H   0  0  0  0  0  0  0  0  0  0  0  0
    1.6064   -3.1658   -1.3862 H   0  0  0  0  0  0  0  0  0  0  0  0
    3.7828   -2.5752    0.7080 H   0  0  0  0  0  0  0  0  0  0  0  0
    3.6225   -4.0848   -0.1978 H   0  0  0  0  0  0  0  0  0  0  0  0
    4.0221   -2.5787   -1.0449 H   0  0  0  0  0  0  0  0  0  0  0  0
    0.9309   -4.6573    0.5953 N   0  0  0  0  0  0  0  0  0  0  0  0
    0.1890   -5.4248    1.5682 C   0  0  0  0  0  0  0  0  0  0  0  0
    1.2935   -5.1465   -0.2177 H   0  0  0  0  0  0  0  0  0  0  0  0
    0.8794   -5.8201    2.3279 H   0  0  0  0  0  0  0  0  0  0  0  0
   -0.5580   -4.7787    2.0525 H   0  0  0  0  0  0  0  0  0  0  0  0
   -0.3198   -6.2603    1.0652 H   0  0  0  0  0  0  0  0  0  0  0  0
 22 24  2  0  0  0  0
 24 26  1  0  0  0  0
 25 26  1  0  0  0  0
 23 25  2  0  0  0  0
 21 22  1  0  0  0  0
 22 23  1  0  0  0  0
  1  3  1  0  0  0  0
  1  7  1  0  0  0  0
  1  2  2  0  0  0  0
 36 37  1  0  0  0  0
 37 45  1  0  0  0  0
 37 38  2  0  0  0  0
  8  9  1  0  0  0  0
  9 17  1  0  0  0  0
  9 10  2  0  0  0  0
 18 19  1  0  0  0  0
 19 35  1  0  0  0  0
 19 20  2  0  0  0  0
 36 39  1  0  0  0  0
  8 11  1  0  0  0  0
 45 46  1  0  0  0  0
 18 21  1  0  0  0  0
 35 36  1  0  0  0  0
  7  8  1  0  0  0  0
 17 18  1  0  0  0  0
 24 32  1  0  0  0  0
 25 33  1  0  0  0  0
  3  4  1  0  0  0  0
  3  5  1  0  0  0  0
  3  6  1  0  0  0  0
 39 42  1  0  0  0  0
 39 43  1  0  0  0  0
 39 44  1  0  0  0  0
 11 14  1  0  0  0  0
 11 15  1  0  0  0  0
 11 16  1  0  0  0  0
 46 48  1  0  0  0  0
 46 49  1  0  0  0  0
 46 50  1  0  0  0  0
 21 29  1  0  0  0  0
 21 30  1  0  0  0  0
 36 41  1  0  0  0  0
  8 13  1  0  0  0  0
 18 28  1  0  0  0  0
 26 34  1  0  0  0  0
 23 31  1  0  0  0  0
 45 47  1  0  0  0  0
  7 12  1  0  0  0  0
 35 40  1  0  0  0  0
 17 27  1  0  0  0  0
M  CHG  1  23   1
M  END
$$$$

  -OEChem-05262214473D

 50 50  0     1  0  0  0  0  0999 V2000
   -1.6938    0.4865    3.8080 C   0  0  0  0  0  0  0  0  0  0  0  0
   -0.7464   -0.1282    3.3323 O   0  0  0  0  0  0  0  0  0  0  0  0
   -2.1257    0.2041    5.2087 C   0  0  0  0  0  0  0  0  0  0  0  0
   -2.8853   -0.5922    5.2621 H   0  0  0  0  0  0  0  0  0  0  0  0
   -1.2944   -0.1435    5.8430 H   0  0  0  0  0  0  0  0  0  0  0  0
   -2.5637    1.0590    5.7483 H   0  0  0  0  0  0  0  0  0  0  0  0
   -2.4435    1.4589    3.1669 N   0  0  0  0  0  0  0  0  0  0  0  0
   -2.1966    1.8850    1.8145 C   0  0  2  0  0  0  0  0  0  0  0  0
   -0.8617    1.2996    1.3733 C   0  0  0  0  0  0  0  0  0  0  0  0
    0.0104    0.9468    2.1646 O   0  0  0  0  0  0  0  0  0  0  0  0
   -2.1879    3.4017    1.7050 C   0  0  0  0  0  0  0  0  0  0  0  0
   -3.2085    1.8948    3.6787 H   0  0  0  0  0  0  0  0  0  0  0  0
   -3.0007    1.4665    1.1994 H   0  0  0  0  0  0  0  0  0  0  0  0
   -1.3888    3.8390    2.3147 H   0  0  0  0  0  0  0  0  0  0  0  0
   -2.0284    3.7240    0.6708 H   0  0  0  0  0  0  0  0  0  0  0  0
   -3.1380    3.8230    2.0508 H   0  0  0  0  0  0  0  0  0  0  0  0
   -0.7390    1.2565   -0.0101 N   0  0  0  0  0  0  0  0  0  0  0  0
    0.4383    0.7557   -0.6738 C   0  0  2  0  0  0  0  0  0  0  0  0
    0.4105   -0.7640   -0.5558 C   0  0  0  0  0  0  0  0  0  0  0  0
   -0.5893   -1.4359   -0.8002 O   0  0  0  0  0  0  0  0  0  0  0  0
    1.7289    1.3141   -0.0632 C   0  0  0  0  0  0  0  0  0  0  0  0
    1.8518    2.8095   -0.2253 C   0  0  0  0  0  0  0  0  0  0  0  0
    2.1757    3.3847   -1.4305 N   0  3  0  0  0  0  0  0  0  0  0  0
    1.6954    3.8310    0.6686 C   0  0  0  0  0  0  0  0  0  0  0  0
    2.2198    4.7137   -1.2926 C   0  0  0  0  0  0  0  0  0  0  0  0
    1.9294    4.9976   -0.0188 N   0  0  0  0  0  0  0  0  0  0  0  0
   -1.5221    1.5532   -0.5874 H   0  0  0  0  0  0  0  0  0  0  0  0
    0.3445    1.0354   -1.7297 H   0  0  0  0  0  0  0  0  0  0  0  0
    2.6042    0.8211   -0.5074 H   0  0  0  0  0  0  0  0  0  0  0  0
    1.7792    1.0792    1.0083 H   0  0  0  0  0  0  0  0  0  0  0  0
    2.3560    2.8820   -2.2952 H   0  0  0  0  0  0  0  0  0  0  0  0
    1.4504    3.9111    1.7089 H   0  0  0  0  0  0  0  0  0  0  0  0
    2.4487    5.4264   -2.0672 H   0  0  0  0  0  0  0  0  0  0  0  0
    1.8894    5.9325    0.3773 H   0  0  0  0  0  0  0  0  0  0  0  0
    1.6473   -1.2798   -0.1943 N   0  0  0  0  0  0  0  0  0  0  0  0
    1.9018   -2.6936   -0.0355 C   0  0  2  0  0  0  0  0  0  0  0  0
    0.8162   -3.2687    0.8646 C   0  0  0  0  0  0  0  0  0  0  0  0
    0.1633   -2.5841    1.6496 O   0  0  0  0  0  0  0  0  0  0  0  0
    3.2827   -2.9449    0.5499 C   0  0  0  0  0  0  0  0  0  0  0  0
    2.4121   -0.6310   -0.0332 H   0  0  0  0  0  0  0  0  0  0  0  0
    1.8266   -3.1424   -1.0319 H   0  0  0  0  0  0  0  0  0  0  0  0
    3.3770   -2.5025    1.5484 H   0  0  0  0  0  0  0  0  0  0  0  0
    3.4851   -4.0170    0.6430 H   0  0  0  0  0  0  0  0  0  0  0  0
    4.0605   -2.5047   -0.0834 H   0  0  0  0  0  0  0  0  0  0  0  0
    0.6917   -4.6433    0.7192 N   0  0  0  0  0  0  0  0  0  0  0  0
   -0.2610   -5.4240    1.4734 C   0  0  0  0  0  0  0  0  0  0  0  0
    1.2613   -5.1266    0.0309 H   0  0  0  0  0  0  0  0  0  0  0  0
    0.2174   -5.8033    2.3884 H   0  0  0  0  0  0  0  0  0  0  0  0
   -1.1201   -4.7924    1.7438 H   0  0  0  0  0  0  0  0  0  0  0  0
   -0.6065   -6.2708    0.8623 H   0  0  0  0  0  0  0  0  0  0  0  0
 22 24  2  0  0  0  0
 24 26  1  0  0  0  0
 25 26  1  0  0  0  0
 23 25  2  0  0  0  0
 21 22  1  0  0  0  0
 22 23  1  0  0  0  0
  1  3  1  0  0  0  0
  1  7  1  0  0  0  0
  1  2  2  0  0  0  0
 36 37  1  0  0  0  0
 37 45  1  0  0  0  0
 37 38  2  0  0  0  0
  8  9  1  0  0  0  0
  9 17  1  0  0  0  0
  9 10  2  0  0  0  0
 18 19  1  0  0  0  0
 19 35  1  0  0  0  0
 19 20  2  0  0  0  0
 36 39  1  0  0  0  0
  8 11  1  0  0  0  0
 45 46  1  0  0  0  0
 18 21  1  0  0  0  0
 35 36  1  0  0  0  0
  7  8  1  0  0  0  0
 17 18  1  0  0  0  0
 24 32  1  0  0  0  0
 25 33  1  0  0  0  0
  3  4  1  0  0  0  0
  3  5  1  0  0  0  0
  3  6  1  0  0  0  0
 39 42  1  0  0  0  0
 39 43  1  0  0  0  0
 39 44  1  0  0  0  0
 11 14  1  0  0  0  0
 11 15  1  0  0  0  0
 11 16  1  0  0  0  0
 46 48  1  0  0  0  0
 46 49  1  0  0  0  0
 46 50  1  0  0  0  0
 21 29  1  0  0  0  0
 21 30  1  0  0  0  0
 36 41  1  0  0  0  0
  8 13  1  0  0  0  0
 18 28  1  0  0  0  0
 26 34  1  0  0  0  0
 23 31  1  0  0  0  0
 45 47  1  0  0  0  0
  7 12  1  0  0  0  0
 35 40  1  0  0  0  0
 17 27  1  0  0  0  0
M  CHG  1  23   1
M  END
$$$$

  -OEChem-05262214473D

 50 50  0     1  0  0  0  0  0999 V2000
   -1.6938    0.4865    3.8080 C   0  0  0  0  0  0  0  0  0  0  0  0
   -0.7464   -0.1282    3.3323 O   0  0  0  0  0  0  0  0  0  0  0  0
   -2.1257    0.2041    5.2087 C   0  0  0  0  0  0  0  0  0  0  0  0
   -2.8853   -0.5922    5.2621 H   0  0  0  0  0  0  0  0  0  0  0  0
   -1.2944   -0.1435    5.8430 H   0  0  0  0  0  0  0  0  0  0  0  0
   -2.5637    1.0590    5.7483 H   0  0  0  0  0  0  0  0  0  0  0  0
   -2.4435    1.4589    3.1669 N   0  0  0  0  0  0  0  0  0  0  0  0
   -2.1966    1.8850    1.8145 C   0  0  2  0  0  0  0  0  0  0  0  0
   -0.8617    1.2996    1.3733 C   0  0  0  0  0  0  0  0  0  0  0  0
    0.0104    0.9468    2.1646 O   0  0  0  0  0  0  0  0  0  0  0  0
   -2.1879    3.4017    1.7050 C   0  0  0  0  0  0  0  0  0  0  0  0
   -3.2085    1.8948    3.6787 H   0  0  0  0  0  0  0  0  0  0  0  0
   -3.0007    1.4665    1.1994 H   0  0  0  0  0  0  0  0  0  0  0  0
   -1.3888    3.8390    2.3147 H   0  0  0  0  0  0  0  0  0  0  0  0
   -2.0284    3.7240    0.6708 H   0  0  0  0  0  0  0  0  0  0  0  0
   -3.1380    3.8230    2.0508 H   0  0  0  0  0  0  0  0  0  0  0  0
   -0.7390    1.2565   -0.0101 N   0  0  0  0  0  0  0  0  0  0  0  0
    0.4383    0.7557   -0.6738 C   0  0  2  0  0  0  0  0  0  0  0  0
    0.4105   -0.7640   -0.5558 C   0  0  0  0  0  0  0  0  0  0  0  0
   -0.4792   -1.4569   -1.0449 O   0  0  0  0  0  0  0  0  0  0  0  0
    1.7289    1.3141   -0.0632 C   0  0  0  0  0  0  0  0  0  0  0  0
    1.8518    2.8095   -0.2253 C   0  0  0  0  0  0  0  0  0  0  0  0
    2.1757    3.3847   -1.4305 N   0  3  0  0  0  0  0  0  0  0  0  0
    1.6954    3.8310    0.6686 C   0  0  0  0  0  0  0  0  0  0  0  0
    2.2198    4.7137   -1.2926 C   0  0  0  0  0  0  0  0  0  0  0  0
    1.9294    4.9976   -0.0188 N   0  0  0  0  0  0  0  0  0  0  0  0
   -1.5221    1.5532   -0.5874 H   0  0  0  0  0  0  0  0  0  0  0  0
    0.3445    1.0354   -1.7297 H   0  0  0  0  0  0  0  0  0  0  0  0
    2.6042    0.8211   -0.5074 H   0  0  0  0  0  0  0  0  0  0  0  0
    1.7792    1.0792    1.0083 H   0  0  0  0  0  0  0  0  0  0  0  0
    2.3560    2.8820   -2.2952 H   0  0  0  0  0  0  0  0  0  0  0  0
    1.4504    3.9111    1.7089 H   0  0  0  0  0  0  0  0  0  0  0  0
    2.4487    5.4264   -2.0672 H   0  0  0  0  0  0  0  0  0  0  0  0
    1.8894    5.9325    0.3773 H   0  0  0  0  0  0  0  0  0  0  0  0
    1.5219   -1.2534    0.1163 N   0  0  0  0  0  0  0  0  0  0  0  0
    1.7542   -2.6613    0.3458 C   0  0  2  0  0  0  0  0  0  0  0  0
    0.4845   -3.2568    0.9395 C   0  0  0  0  0  0  0  0  0  0  0  0
   -0.3620   -2.5842    1.5245 O   0  0  0  0  0  0  0  0  0  0  0  0
    2.9419   -2.8828    1.2694 C   0  0  0  0  0  0  0  0  0  0  0  0
    2.2065   -0.5886    0.4644 H   0  0  0  0  0  0  0  0  0  0  0  0
    1.9474   -3.1136   -0.6330 H   0  0  0  0  0  0  0  0  0  0  0  0
    2.7668   -2.4364    2.2551 H   0  0  0  0  0  0  0  0  0  0  0  0
    3.1342   -3.9503    1.4194 H   0  0  0  0  0  0  0  0  0  0  0  0
    3.8481   -2.4280    0.8549 H   0  0  0  0  0  0  0  0  0  0  0  0
    0.4285   -4.6340    0.7771 N   0  0  0  0  0  0  0  0  0  0  0  0
   -0.6713   -5.4326    1.2657 C   0  0  0  0  0  0  0  0  0  0  0  0
    1.1656   -5.1068    0.2625 H   0  0  0  0  0  0  0  0  0  0  0  0
   -0.4379   -5.8000    2.2759 H   0  0  0  0  0  0  0  0  0  0  0  0
   -1.5832   -4.8183    1.3007 H   0  0  0  0  0  0  0  0  0  0  0  0
   -0.8309   -6.2877    0.5924 H   0  0  0  0  0  0  0  0  0  0  0  0
 22 24  2  0  0  0  0
 24 26  1  0  0  0  0
 25 26  1  0  0  0  0
 23 25  2  0  0  0  0
 21 22  1  0  0  0  0
 22 23  1  0  0  0  0
  1  3  1  0  0  0  0
  1  7  1  0  0  0  0
  1  2  2  0  0  0  0
 36 37  1  0  0  0  0
 37 45  1  0  0  0  0
 37 38  2  0  0  0  0
  8  9  1  0  0  0  0
  9 17  1  0  0  0  0
  9 10  2  0  0  0  0
 18 19  1  0  0  0  0
 19 35  1  0  0  0  0
 19 20  2  0  0  0  0
 36 39  1  0  0  0  0
  8 11  1  0  0  0  0
 45 46  1  0  0  0  0
 18 21  1  0  0  0  0
 35 36  1  0  0  0  0
  7  8  1  0  0  0  0
 17 18  1  0  0  0  0
 24 32  1  0  0  0  0
 25 33  1  0  0  0  0
  3  4  1  0  0  0  0
  3  5  1  0  0  0  0
  3  6  1  0  0  0  0
 39 42  1  0  0  0  0
 39 43  1  0  0  0  0
 39 44  1  0  0  0  0
 11 14  1  0  0  0  0
 11 15  1  0  0  0  0
 11 16  1  0  0  0  0
 46 48  1  0  0  0  0
 46 49  1  0  0  0  0
 46 50  1  0  0  0  0
 21 29  1  0  0  0  0
 21 30  1  0  0  0  0
 36 41  1  0  0  0  0
  8 13  1  0  0  0  0
 18 28  1  0  0  0  0
 26 34  1  0  0  0  0
 23 31  1  0  0  0  0
 45 47  1  0  0  0  0
  7 12  1  0  0  0  0
 35 40  1  0  0  0  0
 17 27  1  0  0  0  0
M  CHG  1  23   1
M  END
$$$$

  -OEChem-05262214473D

 50 50  0     1  0  0  0  0  0999 V2000
   -1.6938    0.4865    3.8080 C   0  0  0  0  0  0  0  0  0  0  0  0
   -0.7464   -0.1282    3.3323 O   0  0  0  0  0  0  0  0  0  0  0  0
   -2.1257    0.2041    5.2087 C   0  0  0  0  0  0  0  0  0  0  0  0
   -2.8853   -0.5922    5.2621 H   0  0  0  0  0  0  0  0  0  0  0  0
   -1.2944   -0.1435    5.8430 H   0  0  0  0  0  0  0  0  0  0  0  0
   -2.5637    1.0590    5.7483 H   0  0  0  0  0  0  0  0  0  0  0  0
   -2.4435    1.4589    3.1669 N   0  0  0  0  0  0  0  0  0  0  0  0
   -2.1966    1.8850    1.8145 C   0  0  2  0  0  0  0  0  0  0  0  0
   -0.8617    1.2996    1.3733 C   0  0  0  0  0  0  0  0  0  0  0  0
    0.0104    0.9468    2.1646 O   0  0  0  0  0  0  0  0  0  0  0  0
   -2.1879    3.4017    1.7050 C   0  0  0  0  0  0  0  0  0  0  0  0
   -3.2085    1.8948    3.6787 H   0  0  0  0  0  0  0  0  0  0  0  0
   -3.0007    1.4665    1.1994 H   0  0  0  0  0  0  0  0  0  0  0  0
   -1.3888    3.8390    2.3147 H   0  0  0  0  0  0  0  0  0  0  0  0
   -2.0284    3.7240    0.6708 H   0  0  0  0  0  0  0  0  0  0  0  0
   -3.1380    3.8230    2.0508 H   0  0  0  0  0  0  0  0  0  0  0  0
   -0.7390    1.2565   -0.0101 N   0  0  0  0  0  0  0  0  0  0  0  0
    0.4383    0.7557   -0.6738 C   0  0  2  0  0  0  0  0  0  0  0  0
    0.4105   -0.7640   -0.5558 C   0  0  0  0  0  0  0  0  0  0  0  0
   -0.3092   -1.4762   -1.2527 O   0  0  0  0  0  0  0  0  0  0  0  0
    1.7289    1.3141   -0.0632 C   0  0  0  0  0  0  0  0  0  0  0  0
    1.8518    2.8095   -0.2253 C   0  0  0  0  0  0  0  0  0  0  0  0
    2.1757    3.3847   -1.4305 N   0  3  0  0  0  0  0  0  0  0  0  0
    1.6954    3.8310    0.6686 C   0  0  0  0  0  0  0  0  0  0  0  0
    2.2198    4.7137   -1.2926 C   0  0  0  0  0  0  0  0  0  0  0  0
    1.9294    4.9976   -0.0188 N   0  0  0  0  0  0  0  0  0  0  0  0
   -1.5221    1.5532   -0.5874 H   0  0  0  0  0  0  0  0  0  0  0  0
    0.3445    1.0354   -1.7297 H   0  0  0  0  0  0  0  0  0  0  0  0
    2.6042    0.8211   -0.5074 H   0  0  0  0  0  0  0  0  0  0  0  0
    1.7792    1.0792    1.0083 H   0  0  0  0  0  0  0  0  0  0  0  0
    2.3560    2.8820   -2.2952 H   0  0  0  0  0  0  0  0  0  0  0  0
    1.4504    3.9111    1.7089 H   0  0  0  0  0  0  0  0  0  0  0  0
    2.4487    5.4264   -2.0672 H   0  0  0  0  0  0  0  0  0  0  0  0
    1.8894    5.9325    0.3773 H   0  0  0  0  0  0  0  0  0  0  0  0
    1.3201   -1.2289    0.3838 N   0  0  0  0  0  0  0  0  0  0  0  0
    1.5126   -2.6312    0.6758 C   0  0  2  0  0  0  0  0  0  0  0  0
    0.1445   -3.2516    0.9263 C   0  0  0  0  0  0  0  0  0  0  0  0
   -0.8372   -2.5954    1.2682 O   0  0  0  0  0  0  0  0  0  0  0  0
    2.4258   -2.8262    1.8761 C   0  0  0  0  0  0  0  0  0  0  0  0
    1.8786   -0.5494    0.8918 H   0  0  0  0  0  0  0  0  0  0  0  0
    1.9606   -3.0815   -0.2167 H   0  0  0  0  0  0  0  0  0  0  0  0
    1.9936   -2.3815    2.7800 H   0  0  0  0  0  0  0  0  0  0  0  0
    2.5936   -3.8892    2.0785 H   0  0  0  0  0  0  0  0  0  0  0  0
    3.3993   -2.3537    1.7061 H   0  0  0  0  0  0  0  0  0  0  0  0
    0.1590   -4.6300    0.7650 N   0  0  0  0  0  0  0  0  0  0  0  0
   -1.0139   -5.4501    0.9593 C   0  0  0  0  0  0  0  0  0  0  0  0
    1.0130   -5.0886    0.4615 H   0  0  0  0  0  0  0  0  0  0  0  0
   -1.0419   -5.8106    1.9982 H   0  0  0  0  0  0  0  0  0  0  0  0
   -1.9156   -4.8547    0.7534 H   0  0  0  0  0  0  0  0  0  0  0  0
   -0.9777   -6.3097    0.2739 H   0  0  0  0  0  0  0  0  0  0  0  0
 22 24  2  0  0  0  0
 24 26  1  0  0  0  0
 25 26  1  0  0  0  0
 23 25  2  0  0  0  0
 21 22  1  0  0  0  0
 22 23  1  0  0  0  0
  1  3  1  0  0  0  0
  1  7  1  0  0  0  0
  1  2  2  0  0  0  0
 36 37  1  0  0  0  0
 37 45  1  0  0  0  0
 37 38  2  0  0  0  0
  8  9  1  0  0  0  0
  9 17  1  0  0  0  0
  9 10  2  0  0  0  0
 18 19  1  0  0  0  0
 19 35  1  0  0  0  0
 19 20  2  0  0  0  0
 36 39  1  0  0  0  0
  8 11  1  0  0  0  0
 45 46  1  0  0  0  0
 18 21  1  0  0  0  0
 35 36  1  0  0  0  0
  7  8  1  0  0  0  0
 17 18  1  0  0  0  0
 24 32  1  0  0  0  0
 25 33  1  0  0  0  0
  3  4  1  0  0  0  0
  3  5  1  0  0  0  0
  3  6  1  0  0  0  0
 39 42  1  0  0  0  0
 39 43  1  0  0  0  0
 39 44  1  0  0  0  0
 11 14  1  0  0  0  0
 11 15  1  0  0  0  0
 11 16  1  0  0  0  0
 46 48  1  0  0  0  0
 46 49  1  0  0  0  0
 46 50  1  0  0  0  0
 21 29  1  0  0  0  0
 21 30  1  0  0  0  0
 36 41  1  0  0  0  0
  8 13  1  0  0  0  0
 18 28  1  0  0  0  0
 26 34  1  0  0  0  0
 23 31  1  0  0  0  0
 45 47  1  0  0  0  0
  7 12  1  0  0  0  0
 35 40  1  0  0  0  0
 17 27  1  0  0  0  0
M  CHG  1  23   1
M  END
$$$$

  -OEChem-05262214473D

 50 50  0     1  0  0  0  0  0999 V2000
   -1.6938    0.4865    3.8080 C   0  0  0  0  0  0  0  0  0  0  0  0
   -0.7464   -0.1282    3.3323 O   0  0  0  0  0  0  0  0  0  0  0  0
   -2.1257    0.2041    5.2087 C   0  0  0  0  0  0  0  0  0  0  0  0
   -2.8853   -0.5922    5.2621 H   0  0  0  0  0  0  0  0  0  0  0  0
   -1.2944   -0.1435    5.8430 H   0  0  0  0  0  0  0  0  0  0  0  0
   -2.5637    1.0590    5.7483 H   0  0  0  0  0  0  0  0  0  0  0  0
   -2.4435    1.4589    3.1669 N   0  0  0  0  0  0  0  0  0  0  0  0
   -2.1966    1.8850    1.8145 C   0  0  2  0  0  0  0  0  0  0  0  0
   -0.8617    1.2996    1.3733 C   0  0  0  0  0  0  0  0  0  0  0  0
    0.0104    0.9468    2.1646 O   0  0  0  0  0  0  0  0  0  0  0  0
   -2.1879    3.4017    1.7050 C   0  0  0  0  0  0  0  0  0  0  0  0
   -3.2085    1.8948    3.6787 H   0  0  0  0  0  0  0  0  0  0  0  0
   -3.0007    1.4665    1.1994 H   0  0  0  0  0  0  0  0  0  0  0  0
   -1.3888    3.8390    2.3147 H   0  0  0  0  0  0  0  0  0  0  0  0
   -2.0284    3.7240    0.6708 H   0  0  0  0  0  0  0  0  0  0  0  0
   -3.1380    3.8230    2.0508 H   0  0  0  0  0  0  0  0  0  0  0  0
   -0.7390    1.2565   -0.0101 N   0  0  0  0  0  0  0  0  0  0  0  0
    0.4383    0.7557   -0.6738 C   0  0  2  0  0  0  0  0  0  0  0  0
    0.4105   -0.7640   -0.5558 C   0  0  0  0  0  0  0  0  0  0  0  0
   -0.0910   -1.4923   -1.4095 O   0  0  0  0  0  0  0  0  0  0  0  0
    1.7289    1.3141   -0.0632 C   0  0  0  0  0  0  0  0  0  0  0  0
    1.8518    2.8095   -0.2253 C   0  0  0  0  0  0  0  0  0  0  0  0
    2.1757    3.3847   -1.4305 N   0  3  0  0  0  0  0  0  0  0  0  0
    1.6954    3.8310    0.6686 C   0  0  0  0  0  0  0  0  0  0  0  0
    2.2198    4.7137   -1.2926 C   0  0  0  0  0  0  0  0  0  0  0  0
    1.9294    4.9976   -0.0188 N   0  0  0  0  0  0  0  0  0  0  0  0
   -1.5221    1.5532   -0.5874 H   0  0  0  0  0  0  0  0  0  0  0  0
    0.3445    1.0354   -1.7297 H   0  0  0  0  0  0  0  0  0  0  0  0
    2.6042    0.8211   -0.5074 H   0  0  0  0  0  0  0  0  0  0  0  0
    1.7792    1.0792    1.0083 H   0  0  0  0  0  0  0  0  0  0  0  0
    2.3560    2.8820   -2.2952 H   0  0  0  0  0  0  0  0  0  0  0  0
    1.4504    3.9111    1.7089 H   0  0  0  0  0  0  0  0  0  0  0  0
    2.4487    5.4264   -2.0672 H   0  0  0  0  0  0  0  0  0  0  0  0
    1.8894    5.9325    0.3773 H   0  0  0  0  0  0  0  0  0  0  0  0
    1.0557   -1.2081    0.5901 N   0  0  0  0  0  0  0  0  0  0  0  0
    1.1935   -2.6055    0.9321 C   0  0  2  0  0  0  0  0  0  0  0  0
   -0.1806   -3.2535    0.8257 C   0  0  0  0  0  0  0  0  0  0  0  0
   -1.2298   -2.6170    0.8980 O   0  0  0  0  0  0  0  0  0  0  0  0
    1.7697   -2.7791    2.3288 C   0  0  0  0  0  0  0  0  0  0  0  0
    1.4509   -0.5161    1.2199 H   0  0  0  0  0  0  0  0  0  0  0  0
    1.8653   -3.0483    0.1887 H   0  0  0  0  0  0  0  0  0  0  0  0
    1.1103   -2.3415    3.0873 H   0  0  0  0  0  0  0  0  0  0  0  0
    1.9001   -3.8379    2.5754 H   0  0  0  0  0  0  0  0  0  0  0  0
    2.7446   -2.2869    2.4121 H   0  0  0  0  0  0  0  0  0  0  0  0
   -0.0982   -4.6316    0.6839 N   0  0  0  0  0  0  0  0  0  0  0  0
   -1.2653   -5.4753    0.5750 C   0  0  0  0  0  0  0  0  0  0  0  0
    0.8139   -5.0731    0.6143 H   0  0  0  0  0  0  0  0  0  0  0  0
   -1.5535   -5.8341    1.5741 H   0  0  0  0  0  0  0  0  0  0  0  0
   -2.0948   -4.8991    0.1391 H   0  0  0  0  0  0  0  0  0  0  0  0
   -1.0368   -6.3355   -0.0715 H   0  0  0  0  0  0  0  0  0  0  0  0
 22 24  2  0  0  0  0
 24 26  1  0  0  0  0
 25 26  1  0  0  0  0
 23 25  2  0  0  0  0
 21 22  1  0  0  0  0
 22 23  1  0  0  0  0
  1  3  1  0  0  0  0
  1  7  1  0  0  0  0
  1  2  2  0  0  0  0
 36 37  1  0  0  0  0
 37 45  1  0  0  0  0
 37 38  2  0  0  0  0
  8  9  1  0  0  0  0
  9 17  1  0  0  0  0
  9 10  2  0  0  0  0
 18 19  1  0  0  0  0
 19 35  1  0  0  0  0
 19 20  2  0  0  0  0
 36 39  1  0  0  0  0
  8 11  1  0  0  0  0
 45 46  1  0  0  0  0
 18 21  1  0  0  0  0
 35 36  1  0  0  0  0
  7  8  1  0  0  0  0
 17 18  1  0  0  0  0
 24 32  1  0  0  0  0
 25 33  1  0  0  0  0
  3  4  1  0  0  0  0
  3  5  1  0  0  0  0
  3  6  1  0  0  0  0
 39 42  1  0  0  0  0
 39 43  1  0  0  0  0
 39 44  1  0  0  0  0
 11 14  1  0  0  0  0
 11 15  1  0  0  0  0
 11 16  1  0  0  0  0
 46 48  1  0  0  0  0
 46 49  1  0  0  0  0
 46 50  1  0  0  0  0
 21 29  1  0  0  0  0
 21 30  1  0  0  0  0
 36 41  1  0  0  0  0
  8 13  1  0  0  0  0
 18 28  1  0  0  0  0
 26 34  1  0  0  0  0
 23 31  1  0  0  0  0
 45 47  1  0  0  0  0
  7 12  1  0  0  0  0
 35 40  1  0  0  0  0
 17 27  1  0  0  0  0
M  CHG  1  23   1
M  END
$$$$

  -OEChem-05262214473D

 50 50  0     1  0  0  0  0  0999 V2000
   -1.6938    0.4865    3.8080 C   0  0  0  0  0  0  0  0  0  0  0  0
   -0.7464   -0.1282    3.3323 O   0  0  0  0  0  0  0  0  0  0  0  0
   -2.1257    0.2041    5.2087 C   0  0  0  0  0  0  0  0  0  0  0  0
   -2.8853   -0.5922    5.2621 H   0  0  0  0  0  0  0  0  0  0  0  0
   -1.2944   -0.1435    5.8430 H   0  0  0  0  0  0  0  0  0  0  0  0
   -2.5637    1.0590    5.7483 H   0  0  0  0  0  0  0  0  0  0  0  0
   -2.4435    1.4589    3.1669 N   0  0  0  0  0  0  0  0  0  0  0  0
   -2.1966    1.8850    1.8145 C   0  0  2  0  0  0  0  0  0  0  0  0
   -0.8617    1.2996    1.3733 C   0  0  0  0  0  0  0  0  0  0  0  0
    0.0104    0.9468    2.1646 O   0  0  0  0  0  0  0  0  0  0  0  0
   -2.1879    3.4017    1.7050 C   0  0  0  0  0  0  0  0  0  0  0  0
   -3.2085    1.8948    3.6787 H   0  0  0  0  0  0  0  0  0  0  0  0
   -3.0007    1.4665    1.1994 H   0  0  0  0  0  0  0  0  0  0  0  0
   -1.3888    3.8390    2.3147 H   0  0  0  0  0  0  0  0  0  0  0  0
   -2.0284    3.7240    0.6708 H   0  0  0  0  0  0  0  0  0  0  0  0
   -3.1380    3.8230    2.0508 H   0  0  0  0  0  0  0  0  0  0  0  0
   -0.7390    1.2565   -0.0101 N   0  0  0  0  0  0  0  0  0  0  0  0
    0.4383    0.7557   -0.6738 C   0  0  2  0  0  0  0  0  0  0  0  0
    0.4105   -0.7640   -0.5558 C   0  0  0  0  0  0  0  0  0  0  0  0
    0.1605   -1.5043   -1.5046 O   0  0  0  0  0  0  0  0  0  0  0  0
    1.7289    1.3141   -0.0632 C   0  0  0  0  0  0  0  0  0  0  0  0
    1.8518    2.8095   -0.2253 C   0  0  0  0  0  0  0  0  0  0  0  0
    2.1757    3.3847   -1.4305 N   0  3  0  0  0  0  0  0  0  0  0  0
    1.6954    3.8310    0.6686 C   0  0  0  0  0  0  0  0  0  0  0  0
    2.2198    4.7137   -1.2926 C   0  0  0  0  0  0  0  0  0  0  0  0
    1.9294    4.9976   -0.0188 N   0  0  0  0  0  0  0  0  0  0  0  0
   -1.5221    1.5532   -0.5874 H   0  0  0  0  0  0  0  0  0  0  0  0
    0.3445    1.0354   -1.7297 H   0  0  0  0  0  0  0  0  0  0  0  0
    2.6042    0.8211   -0.5074 H   0  0  0  0  0  0  0  0  0  0  0  0
    1.7792    1.0792    1.0083 H   0  0  0  0  0  0  0  0  0  0  0  0
    2.3560    2.8820   -2.2952 H   0  0  0  0  0  0  0  0  0  0  0  0
    1.4504    3.9111    1.7089 H   0  0  0  0  0  0  0  0  0  0  0  0
    2.4487    5.4264   -2.0672 H   0  0  0  0  0  0  0  0  0  0  0  0
    1.8894    5.9325    0.3773 H   0  0  0  0  0  0  0  0  0  0  0  0
    0.7467   -1.1923    0.7210 N   0  0  0  0  0  0  0  0  0  0  0  0
    0.8187   -2.5858    1.0973 C   0  0  2  0  0  0  0  0  0  0  0  0
   -0.4687   -3.2622    0.6448 C   0  0  0  0  0  0  0  0  0  0  0  0
   -1.5131   -2.6474    0.4393 O   0  0  0  0  0  0  0  0  0  0  0  0
    1.0181   -2.7445    2.5965 C   0  0  0  0  0  0  0  0  0  0  0  0
    0.9524   -0.4909    1.4263 H   0  0  0  0  0  0  0  0  0  0  0  0
    1.6680   -3.0162    0.5556 H   0  0  0  0  0  0  0  0  0  0  0  0
    0.1770   -2.3191    3.1560 H   0  0  0  0  0  0  0  0  0  0  0  0
    1.1011   -3.7999    2.8762 H   0  0  0  0  0  0  0  0  0  0  0  0
    1.9288   -2.2321    2.9249 H   0  0  0  0  0  0  0  0  0  0  0  0
   -0.3257   -4.6387    0.5391 N   0  0  0  0  0  0  0  0  0  0  0  0
   -1.4086   -5.5066    0.1391 C   0  0  0  0  0  0  0  0  0  0  0  0
    0.5819   -5.0614    0.7104 H   0  0  0  0  0  0  0  0  0  0  0  0
   -1.9378   -5.8691    1.0326 H   0  0  0  0  0  0  0  0  0  0  0  0
   -2.1085   -4.9485   -0.5003 H   0  0  0  0  0  0  0  0  0  0  0  0
   -1.0043   -6.3631   -0.4203 H   0  0  0  0  0  0  0  0  0  0  0  0
 22 24  2  0  0  0  0
 24 26  1  0  0  0  0
 25 26  1  0  0  0  0
 23 25  2  0  0  0  0
 21 22  1  0  0  0  0
 22 23  1  0  0  0  0
  1  3  1  0  0  0  0
  1  7  1  0  0  0  0
  1  2  2  0  0  0  0
 36 37  1  0  0  0  0
 37 45  1  0  0  0  0
 37 38  2  0  0  0  0
  8  9  1  0  0  0  0
  9 17  1  0  0  0  0
  9 10  2  0  0  0  0
 18 19  1  0  0  0  0
 19 35  1  0  0  0  0
 19 20  2  0  0  0  0
 36 39  1  0  0  0  0
  8 11  1  0  0  0  0
 45 46  1  0  0  0  0
 18 21  1  0  0  0  0
 35 36  1  0  0  0  0
  7  8  1  0  0  0  0
 17 18  1  0  0  0  0
 24 32  1  0  0  0  0
 25 33  1  0  0  0  0
  3  4  1  0  0  0  0
  3  5  1  0  0  0  0
  3  6  1  0  0  0  0
 39 42  1  0  0  0  0
 39 43  1  0  0  0  0
 39 44  1  0  0  0  0
 11 14  1  0  0  0  0
 11 15  1  0  0  0  0
 11 16  1  0  0  0  0
 46 48  1  0  0  0  0
 46 49  1  0  0  0  0
 46 50  1  0  0  0  0
 21 29  1  0  0  0  0
 21 30  1  0  0  0  0
 36 41  1  0  0  0  0
  8 13  1  0  0  0  0
 18 28  1  0  0  0  0
 26 34  1  0  0  0  0
 23 31  1  0  0  0  0
 45 47  1  0  0  0  0
  7 12  1  0  0  0  0
 35 40  1  0  0  0  0
 17 27  1  0  0  0  0
M  CHG  1  23   1
M  END
$$$$

  -OEChem-05262214473D

 50 50  0     1  0  0  0  0  0999 V2000
   -1.6938    0.4865    3.8080 C   0  0  0  0  0  0  0  0  0  0  0  0
   -0.7464   -0.1282    3.3323 O   0  0  0  0  0  0  0  0  0  0  0  0
   -2.1257    0.2041    5.2087 C   0  0  0  0  0  0  0  0  0  0  0  0
   -2.8853   -0.5922    5.2621 H   0  0  0  0  0  0  0  0  0  0  0  0
   -1.2944   -0.1435    5.8430 H   0  0  0  0  0  0  0  0  0  0  0  0
   -2.5637    1.0590    5.7483 H   0  0  0  0  0  0  0  0  0  0  0  0
   -2.4435    1.4589    3.1669 N   0  0  0  0  0  0  0  0  0  0  0  0
   -2.1966    1.8850    1.8145 C   0  0  2  0  0  0  0  0  0  0  0  0
   -0.8617    1.2996    1.3733 C   0  0  0  0  0  0  0  0  0  0  0  0
    0.0104    0.9468    2.1646 O   0  0  0  0  0  0  0  0  0  0  0  0
   -2.1879    3.4017    1.7050 C   0  0  0  0  0  0  0  0  0  0  0  0
   -3.2085    1.8948    3.6787 H   0  0  0  0  0  0  0  0  0  0  0  0
   -3.0007    1.4665    1.1994 H   0  0  0  0  0  0  0  0  0  0  0  0
   -1.3888    3.8390    2.3147 H   0  0  0  0  0  0  0  0  0  0  0  0
   -2.0284    3.7240    0.6708 H   0  0  0  0  0  0  0  0  0  0  0  0
   -3.1380    3.8230    2.0508 H   0  0  0  0  0  0  0  0  0  0  0  0
   -0.7390    1.2565   -0.0101 N   0  0  0  0  0  0  0  0  0  0  0  0
    0.4383    0.7557   -0.6738 C   0  0  2  0  0  0  0  0  0  0  0  0
    0.4105   -0.7640   -0.5558 C   0  0  0  0  0  0  0  0  0  0  0  0
    0.4282   -1.5113   -1.5315 O   0  0  0  0  0  0  0  0  0  0  0  0
    1.7289    1.3141   -0.0632 C   0  0  0  0  0  0  0  0  0  0  0  0
    1.8518    2.8095   -0.2253 C   0  0  0  0  0  0  0  0  0  0  0  0
    2.1757    3.3847   -1.4305 N   0  3  0  0  0  0  0  0  0  0  0  0
    1.6954    3.8310    0.6686 C   0  0  0  0  0  0  0  0  0  0  0  0
    2.2198    4.7137   -1.2926 C   0  0  0  0  0  0  0  0  0  0  0  0
    1.9294    4.9976   -0.0188 N   0  0  0  0  0  0  0  0  0  0  0  0
   -1.5221    1.5532   -0.5874 H   0  0  0  0  0  0  0  0  0  0  0  0
    0.3445    1.0354   -1.7297 H   0  0  0  0  0  0  0  0  0  0  0  0
    2.6042    0.8211   -0.5074 H   0  0  0  0  0  0  0  0  0  0  0  0
    1.7792    1.0792    1.0083 H   0  0  0  0  0  0  0  0  0  0  0  0
    2.3560    2.8820   -2.2952 H   0  0  0  0  0  0  0  0  0  0  0  0
    1.4504    3.9111    1.7089 H   0  0  0  0  0  0  0  0  0  0  0  0
    2.4487    5.4264   -2.0672 H   0  0  0  0  0  0  0  0  0  0  0  0
    1.8894    5.9325    0.3773 H   0  0  0  0  0  0  0  0  0  0  0  0
    0.4141   -1.1825    0.7676 N   0  0  0  0  0  0  0  0  0  0  0  0
    0.4136   -2.5735    1.1600 C   0  0  2  0  0  0  0  0  0  0  0  0
   -0.7000   -3.2774    0.3957 C   0  0  0  0  0  0  0  0  0  0  0  0
   -1.6678   -2.6847   -0.0768 O   0  0  0  0  0  0  0  0  0  0  0  0
    0.2224   -2.7249    2.6610 C   0  0  0  0  0  0  0  0  0  0  0  0
    0.4172   -0.4757    1.4970 H   0  0  0  0  0  0  0  0  0  0  0  0
    1.3821   -2.9874    0.8589 H   0  0  0  0  0  0  0  0  0  0  0  0
   -0.7427   -2.3158    2.9815 H   0  0  0  0  0  0  0  0  0  0  0  0
    0.2508   -3.7778    2.9604 H   0  0  0  0  0  0  0  0  0  0  0  0
    1.0074   -2.1931    3.2095 H   0  0  0  0  0  0  0  0  0  0  0  0
   -0.5079   -4.6507    0.3406 N   0  0  0  0  0  0  0  0  0  0  0  0
   -1.4339   -5.5417   -0.3188 C   0  0  0  0  0  0  0  0  0  0  0  0
    0.3328   -5.0543    0.7433 H   0  0  0  0  0  0  0  0  0  0  0  0
   -2.1686   -5.9132    0.4106 H   0  0  0  0  0  0  0  0  0  0  0  0
   -1.9558   -4.9995   -1.1212 H   0  0  0  0  0  0  0  0  0  0  0  0
   -0.8824   -6.3909   -0.7487 H   0  0  0  0  0  0  0  0  0  0  0  0
 22 24  2  0  0  0  0
 24 26  1  0  0  0  0
 25 26  1  0  0  0  0
 23 25  2  0  0  0  0
 21 22  1  0  0  0  0
 22 23  1  0  0  0  0
  1  3  1  0  0  0  0
  1  7  1  0  0  0  0
  1  2  2  0  0  0  0
 36 37  1  0  0  0  0
 37 45  1  0  0  0  0
 37 38  2  0  0  0  0
  8  9  1  0  0  0  0
  9 17  1  0  0  0  0
  9 10  2  0  0  0  0
 18 19  1  0  0  0  0
 19 35  1  0  0  0  0
 19 20  2  0  0  0  0
 36 39  1  0  0  0  0
  8 11  1  0  0  0  0
 45 46  1  0  0  0  0
 18 21  1  0  0  0  0
 35 36  1  0  0  0  0
  7  8  1  0  0  0  0
 17 18  1  0  0  0  0
 24 32  1  0  0  0  0
 25 33  1  0  0  0  0
  3  4  1  0  0  0  0
  3  5  1  0  0  0  0
  3  6  1  0  0  0  0
 39 42  1  0  0  0  0
 39 43  1  0  0  0  0
 39 44  1  0  0  0  0
 11 14  1  0  0  0  0
 11 15  1  0  0  0  0
 11 16  1  0  0  0  0
 46 48  1  0  0  0  0
 46 49  1  0  0  0  0
 46 50  1  0  0  0  0
 21 29  1  0  0  0  0
 21 30  1  0  0  0  0
 36 41  1  0  0  0  0
  8 13  1  0  0  0  0
 18 28  1  0  0  0  0
 26 34  1  0  0  0  0
 23 31  1  0  0  0  0
 45 47  1  0  0  0  0
  7 12  1  0  0  0  0
 35 40  1  0  0  0  0
 17 27  1  0  0  0  0
M  CHG  1  23   1
M  END
$$$$

  -OEChem-05262214473D

 50 50  0     1  0  0  0  0  0999 V2000
   -1.6938    0.4865    3.8080 C   0  0  0  0  0  0  0  0  0  0  0  0
   -0.7464   -0.1282    3.3323 O   0  0  0  0  0  0  0  0  0  0  0  0
   -2.1257    0.2041    5.2087 C   0  0  0  0  0  0  0  0  0  0  0  0
   -2.8853   -0.5922    5.2621 H   0  0  0  0  0  0  0  0  0  0  0  0
   -1.2944   -0.1435    5.8430 H   0  0  0  0  0  0  0  0  0  0  0  0
   -2.5637    1.0590    5.7483 H   0  0  0  0  0  0  0  0  0  0  0  0
   -2.4435    1.4589    3.1669 N   0  0  0  0  0  0  0  0  0  0  0  0
   -2.1966    1.8850    1.8145 C   0  0  2  0  0  0  0  0  0  0  0  0
   -0.8617    1.2996    1.3733 C   0  0  0  0  0  0  0  0  0  0  0  0
    0.0104    0.9468    2.1646 O   0  0  0  0  0  0  0  0  0  0  0  0
   -2.1879    3.4017    1.7050 C   0  0  0  0  0  0  0  0  0  0  0  0
   -3.2085    1.8948    3.6787 H   0  0  0  0  0  0  0  0  0  0  0  0
   -3.0007    1.4665    1.1994 H   0  0  0  0  0  0  0  0  0  0  0  0
   -1.3888    3.8390    2.3147 H   0  0  0  0  0  0  0  0  0  0  0  0
   -2.0284    3.7240    0.6708 H   0  0  0  0  0  0  0  0  0  0  0  0
   -3.1380    3.8230    2.0508 H   0  0  0  0  0  0  0  0  0  0  0  0
   -0.7390    1.2565   -0.0101 N   0  0  0  0  0  0  0  0  0  0  0  0
    0.4383    0.7557   -0.6738 C   0  0  2  0  0  0  0  0  0  0  0  0
    0.4105   -0.7640   -0.5558 C   0  0  0  0  0  0  0  0  0  0  0  0
    0.6939   -1.5128   -1.4884 O   0  0  0  0  0  0  0  0  0  0  0  0
    1.7289    1.3141   -0.0632 C   0  0  0  0  0  0  0  0  0  0  0  0
    1.8518    2.8095   -0.2253 C   0  0  0  0  0  0  0  0  0  0  0  0
    2.1757    3.3847   -1.4305 N   0  3  0  0  0  0  0  0  0  0  0  0
    1.6954    3.8310    0.6686 C   0  0  0  0  0  0  0  0  0  0  0  0
    2.2198    4.7137   -1.2926 C   0  0  0  0  0  0  0  0  0  0  0  0
    1.9294    4.9976   -0.0188 N   0  0  0  0  0  0  0  0  0  0  0  0
   -1.5221    1.5532   -0.5874 H   0  0  0  0  0  0  0  0  0  0  0  0
    0.3445    1.0354   -1.7297 H   0  0  0  0  0  0  0  0  0  0  0  0
    2.6042    0.8211   -0.5074 H   0  0  0  0  0  0  0  0  0  0  0  0
    1.7792    1.0792    1.0083 H   0  0  0  0  0  0  0  0  0  0  0  0
    2.3560    2.8820   -2.2952 H   0  0  0  0  0  0  0  0  0  0  0  0
    1.4504    3.9111    1.7089 H   0  0  0  0  0  0  0  0  0  0  0  0
    2.4487    5.4264   -2.0672 H   0  0  0  0  0  0  0  0  0  0  0  0
    1.8894    5.9325    0.3773 H   0  0  0  0  0  0  0  0  0  0  0  0
    0.0806   -1.1796    0.7268 N   0  0  0  0  0  0  0  0  0  0  0  0
    0.0058   -2.5695    1.1159 C   0  0  2  0  0  0  0  0  0  0  0  0
   -0.8589   -3.2978    0.0955 C   0  0  0  0  0  0  0  0  0  0  0  0
   -1.6833   -2.7262   -0.6150 O   0  0  0  0  0  0  0  0  0  0  0  0
   -0.5632   -2.7217    2.5180 C   0  0  0  0  0  0  0  0  0  0  0  0
   -0.1183   -0.4713    1.4271 H   0  0  0  0  0  0  0  0  0  0  0  0
    1.0271   -2.9639    1.0779 H   0  0  0  0  0  0  0  0  0  0  0  0
   -1.5860   -2.3319    2.5756 H   0  0  0  0  0  0  0  0  0  0  0  0
   -0.5926   -3.7731    2.8223 H   0  0  0  0  0  0  0  0  0  0  0  0
    0.0432   -2.1726    3.2464 H   0  0  0  0  0  0  0  0  0  0  0  0
   -0.6325   -4.6670    0.1019 N   0  0  0  0  0  0  0  0  0  0  0  0
   -1.3394   -5.5782   -0.7675 C   0  0  0  0  0  0  0  0  0  0  0  0
    0.0835   -5.0522    0.7108 H   0  0  0  0  0  0  0  0  0  0  0  0
   -2.2302   -5.9633   -0.2496 H   0  0  0  0  0  0  0  0  0  0  0  0
   -1.6471   -5.0487   -1.6813 H   0  0  0  0  0  0  0  0  0  0  0  0
   -0.6794   -6.4168   -1.0343 H   0  0  0  0  0  0  0  0  0  0  0  0
 22 24  2  0  0  0  0
 24 26  1  0  0  0  0
 25 26  1  0  0  0  0
 23 25  2  0  0  0  0
 21 22  1  0  0  0  0
 22 23  1  0  0  0  0
  1  3  1  0  0  0  0
  1  7  1  0  0  0  0
  1  2  2  0  0  0  0
 36 37  1  0  0  0  0
 37 45  1  0  0  0  0
 37 38  2  0  0  0  0
  8  9  1  0  0  0  0
  9 17  1  0  0  0  0
  9 10  2  0  0  0  0
 18 19  1  0  0  0  0
 19 35  1  0  0  0  0
 19 20  2  0  0  0  0
 36 39  1  0  0  0  0
  8 11  1  0  0  0  0
 45 46  1  0  0  0  0
 18 21  1  0  0  0  0
 35 36  1  0  0  0  0
  7  8  1  0  0  0  0
 17 18  1  0  0  0  0
 24 32  1  0  0  0  0
 25 33  1  0  0  0  0
  3  4  1  0  0  0  0
  3  5  1  0  0  0  0
  3  6  1  0  0  0  0
 39 42  1  0  0  0  0
 39 43  1  0  0  0  0
 39 44  1  0  0  0  0
 11 14  1  0  0  0  0
 11 15  1  0  0  0  0
 11 16  1  0  0  0  0
 46 48  1  0  0  0  0
 46 49  1  0  0  0  0
 46 50  1  0  0  0  0
 21 29  1  0  0  0  0
 21 30  1  0  0  0  0
 36 41  1  0  0  0  0
  8 13  1  0  0  0  0
 18 28  1  0  0  0  0
 26 34  1  0  0  0  0
 23 31  1  0  0  0  0
 45 47  1  0  0  0  0
  7 12  1  0  0  0  0
 35 40  1  0  0  0  0
 17 27  1  0  0  0  0
M  CHG  1  23   1
M  END
$$$$

  -OEChem-05262214473D

 50 50  0     1  0  0  0  0  0999 V2000
   -1.6938    0.4865    3.8080 C   0  0  0  0  0  0  0  0  0  0  0  0
   -0.7464   -0.1282    3.3323 O   0  0  0  0  0  0  0  0  0  0  0  0
   -2.1257    0.2041    5.2087 C   0  0  0  0  0  0  0  0  0  0  0  0
   -2.8853   -0.5922    5.2621 H   0  0  0  0  0  0  0  0  0  0  0  0
   -1.2944   -0.1435    5.8430 H   0  0  0  0  0  0  0  0  0  0  0  0
   -2.5637    1.0590    5.7483 H   0  0  0  0  0  0  0  0  0  0  0  0
   -2.4435    1.4589    3.1669 N   0  0  0  0  0  0  0  0  0  0  0  0
   -2.1966    1.8850    1.8145 C   0  0  2  0  0  0  0  0  0  0  0  0
   -0.8617    1.2996    1.3733 C   0  0  0  0  0  0  0  0  0  0  0  0
    0.0104    0.9468    2.1646 O   0  0  0  0  0  0  0  0  0  0  0  0
   -2.1879    3.4017    1.7050 C   0  0  0  0  0  0  0  0  0  0  0  0
   -3.2085    1.8948    3.6787 H   0  0  0  0  0  0  0  0  0  0  0  0
   -3.0007    1.4665    1.1994 H   0  0  0  0  0  0  0  0  0  0  0  0
   -1.3888    3.8390    2.3147 H   0  0  0  0  0  0  0  0  0  0  0  0
   -2.0284    3.7240    0.6708 H   0  0  0  0  0  0  0  0  0  0  0  0
   -3.1380    3.8230    2.0508 H   0  0  0  0  0  0  0  0  0  0  0  0
   -0.7390    1.2565   -0.0101 N   0  0  0  0  0  0  0  0  0  0  0  0
    0.4383    0.7557   -0.6738 C   0  0  2  0  0  0  0  0  0  0  0  0
    0.4105   -0.7640   -0.5558 C   0  0  0  0  0  0  0  0  0  0  0  0
    0.9395   -1.5088   -1.3782 O   0  0  0  0  0  0  0  0  0  0  0  0
    1.7289    1.3141   -0.0632 C   0  0  0  0  0  0  0  0  0  0  0  0
    1.8518    2.8095   -0.2253 C   0  0  0  0  0  0  0  0  0  0  0  0
    2.1757    3.3847   -1.4305 N   0  3  0  0  0  0  0  0  0  0  0  0
    1.6954    3.8310    0.6686 C   0  0  0  0  0  0  0  0  0  0  0  0
    2.2198    4.7137   -1.2926 C   0  0  0  0  0  0  0  0  0  0  0  0
    1.9294    4.9976   -0.0188 N   0  0  0  0  0  0  0  0  0  0  0  0
   -1.5221    1.5532   -0.5874 H   0  0  0  0  0  0  0  0  0  0  0  0
    0.3445    1.0354   -1.7297 H   0  0  0  0  0  0  0  0  0  0  0  0
    2.6042    0.8211   -0.5074 H   0  0  0  0  0  0  0  0  0  0  0  0
    1.7792    1.0792    1.0083 H   0  0  0  0  0  0  0  0  0  0  0  0
    2.3560    2.8820   -2.2952 H   0  0  0  0  0  0  0  0  0  0  0  0
    1.4504    3.9111    1.7089 H   0  0  0  0  0  0  0  0  0  0  0  0
    2.4487    5.4264   -2.0672 H   0  0  0  0  0  0  0  0  0  0  0  0
    1.8894    5.9325    0.3773 H   0  0  0  0  0  0  0  0  0  0  0  0
   -0.2311   -1.1837    0.6013 N   0  0  0  0  0  0  0  0  0  0  0  0
   -0.3767   -2.5739    0.9682 C   0  0  2  0  0  0  0  0  0  0  0  0
   -0.9346   -3.3221   -0.2354 C   0  0  0  0  0  0  0  0  0  0  0  0
   -1.5586   -2.7691   -1.1386 O   0  0  0  0  0  0  0  0  0  0  0  0
   -1.2852   -2.7349    2.1771 C   0  0  0  0  0  0  0  0  0  0  0  0
   -0.6177   -0.4781    1.2214 H   0  0  0  0  0  0  0  0  0  0  0  0
    0.6272   -2.9473    1.1978 H   0  0  0  0  0  0  0  0  0  0  0  0
   -2.2956   -2.3662    1.9661 H   0  0  0  0  0  0  0  0  0  0  0  0
   -1.3717   -3.7861    2.4713 H   0  0  0  0  0  0  0  0  0  0  0  0
   -0.8981   -2.1720    3.0333 H   0  0  0  0  0  0  0  0  0  0  0  0
   -0.6909   -4.6863   -0.1607 N   0  0  0  0  0  0  0  0  0  0  0  0
   -1.1317   -5.6138   -1.1763 C   0  0  0  0  0  0  0  0  0  0  0  0
   -0.1490   -5.0554    0.6151 H   0  0  0  0  0  0  0  0  0  0  0  0
   -2.1183   -6.0161   -0.9029 H   0  0  0  0  0  0  0  0  0  0  0  0
   -1.2034   -5.0926   -2.1424 H   0  0  0  0  0  0  0  0  0  0  0  0
   -0.4091   -6.4391   -1.2576 H   0  0  0  0  0  0  0  0  0  0  0  0
 22 24  2  0  0  0  0
 24 26  1  0  0  0  0
 25 26  1  0  0  0  0
 23 25  2  0  0  0  0
 21 22  1  0  0  0  0
 22 23  1  0  0  0  0
  1  3  1  0  0  0  0
  1  7  1  0  0  0  0
  1  2  2  0  0  0  0
 36 37  1  0  0  0  0
 37 45  1  0  0  0  0
 37 38  2  0  0  0  0
  8  9  1  0  0  0  0
  9 17  1  0  0  0  0
  9 10  2  0  0  0  0
 18 19  1  0  0  0  0
 19 35  1  0  0  0  0
 19 20  2  0  0  0  0
 36 39  1  0  0  0  0
  8 11  1  0  0  0  0
 45 46  1  0  0  0  0
 18 21  1  0  0  0  0
 35 36  1  0  0  0  0
  7  8  1  0  0  0  0
 17 18  1  0  0  0  0
 24 32  1  0  0  0  0
 25 33  1  0  0  0  0
  3  4  1  0  0  0  0
  3  5  1  0  0  0  0
  3  6  1  0  0  0  0
 39 42  1  0  0  0  0
 39 43  1  0  0  0  0
 39 44  1  0  0  0  0
 11 14  1  0  0  0  0
 11 15  1  0  0  0  0
 11 16  1  0  0  0  0
 46 48  1  0  0  0  0
 46 49  1  0  0  0  0
 46 50  1  0  0  0  0
 21 29  1  0  0  0  0
 21 30  1  0  0  0  0
 36 41  1  0  0  0  0
  8 13  1  0  0  0  0
 18 28  1  0  0  0  0
 26 34  1  0  0  0  0
 23 31  1  0  0  0  0
 45 47  1  0  0  0  0
  7 12  1  0  0  0  0
 35 40  1  0  0  0  0
 17 27  1  0  0  0  0
M  CHG  1  23   1
M  END
$$$$

  -OEChem-05262214473D

 50 50  0     1  0  0  0  0  0999 V2000
   -1.6938    0.4865    3.8080 C   0  0  0  0  0  0  0  0  0  0  0  0
   -0.7464   -0.1282    3.3323 O   0  0  0  0  0  0  0  0  0  0  0  0
   -2.1257    0.2041    5.2087 C   0  0  0  0  0  0  0  0  0  0  0  0
   -2.8853   -0.5922    5.2621 H   0  0  0  0  0  0  0  0  0  0  0  0
   -1.2944   -0.1435    5.8430 H   0  0  0  0  0  0  0  0  0  0  0  0
   -2.5637    1.0590    5.7483 H   0  0  0  0  0  0  0  0  0  0  0  0
   -2.4435    1.4589    3.1669 N   0  0  0  0  0  0  0  0  0  0  0  0
   -2.1966    1.8850    1.8145 C   0  0  2  0  0  0  0  0  0  0  0  0
   -0.8617    1.2996    1.3733 C   0  0  0  0  0  0  0  0  0  0  0  0
    0.0104    0.9468    2.1646 O   0  0  0  0  0  0  0  0  0  0  0  0
   -2.1879    3.4017    1.7050 C   0  0  0  0  0  0  0  0  0  0  0  0
   -3.2085    1.8948    3.6787 H   0  0  0  0  0  0  0  0  0  0  0  0
   -3.0007    1.4665    1.1994 H   0  0  0  0  0  0  0  0  0  0  0  0
   -1.3888    3.8390    2.3147 H   0  0  0  0  0  0  0  0  0  0  0  0
   -2.0284    3.7240    0.6708 H   0  0  0  0  0  0  0  0  0  0  0  0
   -3.1380    3.8230    2.0508 H   0  0  0  0  0  0  0  0  0  0  0  0
   -0.7390    1.2565   -0.0101 N   0  0  0  0  0  0  0  0  0  0  0  0
    0.4383    0.7557   -0.6738 C   0  0  2  0  0  0  0  0  0  0  0  0
    0.4105   -0.7640   -0.5558 C   0  0  0  0  0  0  0  0  0  0  0  0
    1.1481   -1.4994   -1.2084 O   0  0  0  0  0  0  0  0  0  0  0  0
    1.7289    1.3141   -0.0632 C   0  0  0  0  0  0  0  0  0  0  0  0
    1.8518    2.8095   -0.2253 C   0  0  0  0  0  0  0  0  0  0  0  0
    2.1757    3.3847   -1.4305 N   0  3  0  0  0  0  0  0  0  0  0  0
    1.6954    3.8310    0.6686 C   0  0  0  0  0  0  0  0  0  0  0  0
    2.2198    4.7137   -1.2926 C   0  0  0  0  0  0  0  0  0  0  0  0
    1.9294    4.9976   -0.0188 N   0  0  0  0  0  0  0  0  0  0  0  0
   -1.5221    1.5532   -0.5874 H   0  0  0  0  0  0  0  0  0  0  0  0
    0.3445    1.0354   -1.7297 H   0  0  0  0  0  0  0  0  0  0  0  0
    2.6042    0.8211   -0.5074 H   0  0  0  0  0  0  0  0  0  0  0  0
    1.7792    1.0792    1.0083 H   0  0  0  0  0  0  0  0  0  0  0  0
    2.3560    2.8820   -2.2952 H   0  0  0  0  0  0  0  0  0  0  0  0
    1.4504    3.9111    1.7089 H   0  0  0  0  0  0  0  0  0  0  0  0
    2.4487    5.4264   -2.0672 H   0  0  0  0  0  0  0  0  0  0  0  0
    1.8894    5.9325    0.3773 H   0  0  0  0  0  0  0  0  0  0  0  0
   -0.4996   -1.1944    0.3997 N   0  0  0  0  0  0  0  0  0  0  0  0
   -0.7080   -2.5866    0.7268 C   0  0  2  0  0  0  0  0  0  0  0  0
   -0.9218   -3.3486   -0.5744 C   0  0  0  0  0  0  0  0  0  0  0  0
   -1.3022   -2.8105   -1.6121 O   0  0  0  0  0  0  0  0  0  0  0  0
   -1.8944   -2.7638    1.6616 C   0  0  0  0  0  0  0  0  0  0  0  0
   -1.0468   -0.4957    0.8938 H   0  0  0  0  0  0  0  0  0  0  0  0
    0.2097   -2.9387    1.2104 H   0  0  0  0  0  0  0  0  0  0  0  0
   -2.8231   -2.4165    1.1944 H   0  0  0  0  0  0  0  0  0  0  0  0
   -2.0334   -3.8159    1.9313 H   0  0  0  0  0  0  0  0  0  0  0  0
   -1.7523   -2.1912    2.5845 H   0  0  0  0  0  0  0  0  0  0  0  0
   -0.6792   -4.7074   -0.4294 N   0  0  0  0  0  0  0  0  0  0  0  0
   -0.8249   -5.6459   -1.5175 C   0  0  0  0  0  0  0  0  0  0  0  0
   -0.3487   -5.0636    0.4627 H   0  0  0  0  0  0  0  0  0  0  0  0
   -1.8407   -6.0679   -1.5048 H   0  0  0  0  0  0  0  0  0  0  0  0
   -0.6550   -5.1283   -2.4731 H   0  0  0  0  0  0  0  0  0  0  0  0
   -0.0899   -6.4562   -1.4035 H   0  0  0  0  0  0  0  0  0  0  0  0
 22 24  2  0  0  0  0
 24 26  1  0  0  0  0
 25 26  1  0  0  0  0
 23 25  2  0  0  0  0
 21 22  1  0  0  0  0
 22 23  1  0  0  0  0
  1  3  1  0  0  0  0
  1  7  1  0  0  0  0
  1  2  2  0  0  0  0
 36 37  1  0  0  0  0
 37 45  1  0  0  0  0
 37 38  2  0  0  0  0
  8  9  1  0  0  0  0
  9 17  1  0  0  0  0
  9 10  2  0  0  0  0
 18 19  1  0  0  0  0
 19 35  1  0  0  0  0
 19 20  2  0  0  0  0
 36 39  1  0  0  0  0
  8 11  1  0  0  0  0
 45 46  1  0  0  0  0
 18 21  1  0  0  0  0
 35 36  1  0  0  0  0
  7  8  1  0  0  0  0
 17 18  1  0  0  0  0
 24 32  1  0  0  0  0
 25 33  1  0  0  0  0
  3  4  1  0  0  0  0
  3  5  1  0  0  0  0
  3  6  1  0  0  0  0
 39 42  1  0  0  0  0
 39 43  1  0  0  0  0
 39 44  1  0  0  0  0
 11 14  1  0  0  0  0
 11 15  1  0  0  0  0
 11 16  1  0  0  0  0
 46 48  1  0  0  0  0
 46 49  1  0  0  0  0
 46 50  1  0  0  0  0
 21 29  1  0  0  0  0
 21 30  1  0  0  0  0
 36 41  1  0  0  0  0
  8 13  1  0  0  0  0
 18 28  1  0  0  0  0
 26 34  1  0  0  0  0
 23 31  1  0  0  0  0
 45 47  1  0  0  0  0
  7 12  1  0  0  0  0
 35 40  1  0  0  0  0
 17 27  1  0  0  0  0
M  CHG  1  23   1
M  END
$$$$

  -OEChem-05262214473D

 50 50  0     1  0  0  0  0  0999 V2000
   -1.6938    0.4865    3.8080 C   0  0  0  0  0  0  0  0  0  0  0  0
   -0.7464   -0.1282    3.3323 O   0  0  0  0  0  0  0  0  0  0  0  0
   -2.1257    0.2041    5.2087 C   0  0  0  0  0  0  0  0  0  0  0  0
   -2.8853   -0.5922    5.2621 H   0  0  0  0  0  0  0  0  0  0  0  0
   -1.2944   -0.1435    5.8430 H   0  0  0  0  0  0  0  0  0  0  0  0
   -2.5637    1.0590    5.7483 H   0  0  0  0  0  0  0  0  0  0  0  0
   -2.4435    1.4589    3.1669 N   0  0  0  0  0  0  0  0  0  0  0  0
   -2.1966    1.8850    1.8145 C   0  0  2  0  0  0  0  0  0  0  0  0
   -0.8617    1.2996    1.3733 C   0  0  0  0  0  0  0  0  0  0  0  0
    0.0104    0.9468    2.1646 O   0  0  0  0  0  0  0  0  0  0  0  0
   -2.1879    3.4017    1.7050 C   0  0  0  0  0  0  0  0  0  0  0  0
   -3.2085    1.8948    3.6787 H   0  0  0  0  0  0  0  0  0  0  0  0
   -3.0007    1.4665    1.1994 H   0  0  0  0  0  0  0  0  0  0  0  0
   -1.3888    3.8390    2.3147 H   0  0  0  0  0  0  0  0  0  0  0  0
   -2.0284    3.7240    0.6708 H   0  0  0  0  0  0  0  0  0  0  0  0
   -3.1380    3.8230    2.0508 H   0  0  0  0  0  0  0  0  0  0  0  0
   -0.7390    1.2565   -0.0101 N   0  0  0  0  0  0  0  0  0  0  0  0
    0.4383    0.7557   -0.6738 C   0  0  2  0  0  0  0  0  0  0  0  0
    0.4105   -0.7640   -0.5558 C   0  0  0  0  0  0  0  0  0  0  0  0
    1.3057   -1.4854   -0.9906 O   0  0  0  0  0  0  0  0  0  0  0  0
    1.7289    1.3141   -0.0632 C   0  0  0  0  0  0  0  0  0  0  0  0
    1.8518    2.8095   -0.2253 C   0  0  0  0  0  0  0  0  0  0  0  0
    2.1757    3.3847   -1.4305 N   0  3  0  0  0  0  0  0  0  0  0  0
    1.6954    3.8310    0.6686 C   0  0  0  0  0  0  0  0  0  0  0  0
    2.2198    4.7137   -1.2926 C   0  0  0  0  0  0  0  0  0  0  0  0
    1.9294    4.9976   -0.0188 N   0  0  0  0  0  0  0  0  0  0  0  0
   -1.5221    1.5532   -0.5874 H   0  0  0  0  0  0  0  0  0  0  0  0
    0.3445    1.0354   -1.7297 H   0  0  0  0  0  0  0  0  0  0  0  0
    2.6042    0.8211   -0.5074 H   0  0  0  0  0  0  0  0  0  0  0  0
    1.7792    1.0792    1.0083 H   0  0  0  0  0  0  0  0  0  0  0  0
    2.3560    2.8820   -2.2952 H   0  0  0  0  0  0  0  0  0  0  0  0
    1.4504    3.9111    1.7089 H   0  0  0  0  0  0  0  0  0  0  0  0
    2.4487    5.4264   -2.0672 H   0  0  0  0  0  0  0  0  0  0  0  0
    1.8894    5.9325    0.3773 H   0  0  0  0  0  0  0  0  0  0  0  0
   -0.7068   -1.2111    0.1357 N   0  0  0  0  0  0  0  0  0  0  0  0
   -0.9655   -2.6066    0.4083 C   0  0  2  0  0  0  0  0  0  0  0  0
   -0.8214   -3.3756   -0.8984 C   0  0  0  0  0  0  0  0  0  0  0  0
   -0.9316   -2.8477   -2.0031 O   0  0  0  0  0  0  0  0  0  0  0  0
   -2.3493   -2.8063    1.0067 C   0  0  0  0  0  0  0  0  0  0  0  0
   -1.3764   -0.5228    0.4669 H   0  0  0  0  0  0  0  0  0  0  0  0
   -0.1970   -2.9387    1.1148 H   0  0  0  0  0  0  0  0  0  0  0  0
   -3.1325   -2.4792    0.3132 H   0  0  0  0  0  0  0  0  0  0  0  0
   -2.5327   -3.8605    1.2390 H   0  0  0  0  0  0  0  0  0  0  0  0
   -2.4613   -2.2289    1.9308 H   0  0  0  0  0  0  0  0  0  0  0  0
   -0.5981   -4.7288   -0.6857 N   0  0  0  0  0  0  0  0  0  0  0  0
   -0.4399   -5.6723   -1.7677 C   0  0  0  0  0  0  0  0  0  0  0  0
   -0.5022   -5.0762    0.2639 H   0  0  0  0  0  0  0  0  0  0  0  0
   -1.4161   -6.1152   -2.0144 H   0  0  0  0  0  0  0  0  0  0  0  0
   -0.0392   -5.1534   -2.6509 H   0  0  0  0  0  0  0  0  0  0  0  0
    0.2565   -6.4671   -1.4621 H   0  0  0  0  0  0  0  0  0  0  0  0
 22 24  2  0  0  0  0
 24 26  1  0  0  0  0
 25 26  1  0  0  0  0
 23 25  2  0  0  0  0
 21 22  1  0  0  0  0
 22 23  1  0  0  0  0
  1  3  1  0  0  0  0
  1  7  1  0  0  0  0
  1  2  2  0  0  0  0
 36 37  1  0  0  0  0
 37 45  1  0  0  0  0
 37 38  2  0  0  0  0
  8  9  1  0  0  0  0
  9 17  1  0  0  0  0
  9 10  2  0  0  0  0
 18 19  1  0  0  0  0
 19 35  1  0  0  0  0
 19 20  2  0  0  0  0
 36 39  1  0  0  0  0
  8 11  1  0  0  0  0
 45 46  1  0  0  0  0
 18 21  1  0  0  0  0
 35 36  1  0  0  0  0
  7  8  1  0  0  0  0
 17 18  1  0  0  0  0
 24 32  1  0  0  0  0
 25 33  1  0  0  0  0
  3  4  1  0  0  0  0
  3  5  1  0  0  0  0
  3  6  1  0  0  0  0
 39 42  1  0  0  0  0
 39 43  1  0  0  0  0
 39 44  1  0  0  0  0
 11 14  1  0  0  0  0
 11 15  1  0  0  0  0
 11 16  1  0  0  0  0
 46 48  1  0  0  0  0
 46 49  1  0  0  0  0
 46 50  1  0  0  0  0
 21 29  1  0  0  0  0
 21 30  1  0  0  0  0
 36 41  1  0  0  0  0
  8 13  1  0  0  0  0
 18 28  1  0  0  0  0
 26 34  1  0  0  0  0
 23 31  1  0  0  0  0
 45 47  1  0  0  0  0
  7 12  1  0  0  0  0
 35 40  1  0  0  0  0
 17 27  1  0  0  0  0
M  CHG  1  23   1
M  END
$$$$

  -OEChem-05262214473D

 50 50  0     1  0  0  0  0  0999 V2000
   -1.6938    0.4865    3.8080 C   0  0  0  0  0  0  0  0  0  0  0  0
   -0.7464   -0.1282    3.3323 O   0  0  0  0  0  0  0  0  0  0  0  0
   -2.1257    0.2041    5.2087 C   0  0  0  0  0  0  0  0  0  0  0  0
   -2.8853   -0.5922    5.2621 H   0  0  0  0  0  0  0  0  0  0  0  0
   -1.2944   -0.1435    5.8430 H   0  0  0  0  0  0  0  0  0  0  0  0
   -2.5637    1.0590    5.7483 H   0  0  0  0  0  0  0  0  0  0  0  0
   -2.4435    1.4589    3.1669 N   0  0  0  0  0  0  0  0  0  0  0  0
   -2.1966    1.8850    1.8145 C   0  0  2  0  0  0  0  0  0  0  0  0
   -0.8617    1.2996    1.3733 C   0  0  0  0  0  0  0  0  0  0  0  0
    0.0104    0.9468    2.1646 O   0  0  0  0  0  0  0  0  0  0  0  0
   -2.1879    3.4017    1.7050 C   0  0  0  0  0  0  0  0  0  0  0  0
   -3.2085    1.8948    3.6787 H   0  0  0  0  0  0  0  0  0  0  0  0
   -3.0007    1.4665    1.1994 H   0  0  0  0  0  0  0  0  0  0  0  0
   -1.3888    3.8390    2.3147 H   0  0  0  0  0  0  0  0  0  0  0  0
   -2.0284    3.7240    0.6708 H   0  0  0  0  0  0  0  0  0  0  0  0
   -3.1380    3.8230    2.0508 H   0  0  0  0  0  0  0  0  0  0  0  0
   -0.7390    1.2565   -0.0101 N   0  0  0  0  0  0  0  0  0  0  0  0
    0.4383    0.7557   -0.6738 C   0  0  2  0  0  0  0  0  0  0  0  0
    0.4105   -0.7640   -0.5558 C   0  0  0  0  0  0  0  0  0  0  0  0
    1.4014   -1.4677   -0.7397 O   0  0  0  0  0  0  0  0  0  0  0  0
    1.7289    1.3141   -0.0632 C   0  0  0  0  0  0  0  0  0  0  0  0
    1.8518    2.8095   -0.2253 C   0  0  0  0  0  0  0  0  0  0  0  0
    2.1757    3.3847   -1.4305 N   0  3  0  0  0  0  0  0  0  0  0  0
    1.6954    3.8310    0.6686 C   0  0  0  0  0  0  0  0  0  0  0  0
    2.2198    4.7137   -1.2926 C   0  0  0  0  0  0  0  0  0  0  0  0
    1.9294    4.9976   -0.0188 N   0  0  0  0  0  0  0  0  0  0  0  0
   -1.5221    1.5532   -0.5874 H   0  0  0  0  0  0  0  0  0  0  0  0
    0.3445    1.0354   -1.7297 H   0  0  0  0  0  0  0  0  0  0  0  0
    2.6042    0.8211   -0.5074 H   0  0  0  0  0  0  0  0  0  0  0  0
    1.7792    1.0792    1.0083 H   0  0  0  0  0  0  0  0  0  0  0  0
    2.3560    2.8820   -2.2952 H   0  0  0  0  0  0  0  0  0  0  0  0
    1.4504    3.9111    1.7089 H   0  0  0  0  0  0  0  0  0  0  0  0
    2.4487    5.4264   -2.0672 H   0  0  0  0  0  0  0  0  0  0  0  0
    1.8894    5.9325    0.3773 H   0  0  0  0  0  0  0  0  0  0  0  0
   -0.8385   -1.2326   -0.1726 N   0  0  0  0  0  0  0  0  0  0  0  0
   -1.1316   -2.6326    0.0342 C   0  0  2  0  0  0  0  0  0  0  0  0
   -0.6403   -3.4012   -1.1854 C   0  0  0  0  0  0  0  0  0  0  0  0
   -0.4719   -2.8780   -2.2849 O   0  0  0  0  0  0  0  0  0  0  0  0
   -2.6188   -2.8596    0.2569 C   0  0  0  0  0  0  0  0  0  0  0  0
   -1.5841   -0.5576   -0.0305 H   0  0  0  0  0  0  0  0  0  0  0  0
   -0.5651   -2.9472    0.9175 H   0  0  0  0  0  0  0  0  0  0  0  0
   -3.2028   -2.5502   -0.6176 H   0  0  0  0  0  0  0  0  0  0  0  0
   -2.8355   -3.9169    0.4418 H   0  0  0  0  0  0  0  0  0  0  0  0
   -2.9767   -2.2827    1.1165 H   0  0  0  0  0  0  0  0  0  0  0  0
   -0.4533   -4.7490   -0.9124 N   0  0  0  0  0  0  0  0  0  0  0  0
   -0.0029   -5.6914   -1.9099 C   0  0  0  0  0  0  0  0  0  0  0  0
   -0.5989   -5.0924    0.0324 H   0  0  0  0  0  0  0  0  0  0  0  0
   -0.8736   -6.1549   -2.3968 H   0  0  0  0  0  0  0  0  0  0  0  0
    0.6020   -5.1661   -2.6637 H   0  0  0  0  0  0  0  0  0  0  0  0
    0.6063   -6.4710   -1.4292 H   0  0  0  0  0  0  0  0  0  0  0  0
 22 24  2  0  0  0  0
 24 26  1  0  0  0  0
 25 26  1  0  0  0  0
 23 25  2  0  0  0  0
 21 22  1  0  0  0  0
 22 23  1  0  0  0  0
  1  3  1  0  0  0  0
  1  7  1  0  0  0  0
  1  2  2  0  0  0  0
 36 37  1  0  0  0  0
 37 45  1  0  0  0  0
 37 38  2  0  0  0  0
  8  9  1  0  0  0  0
  9 17  1  0  0  0  0
  9 10  2  0  0  0  0
 18 19  1  0  0  0  0
 19 35  1  0  0  0  0
 19 20  2  0  0  0  0
 36 39  1  0  0  0  0
  8 11  1  0  0  0  0
 45 46  1  0  0  0  0
 18 21  1  0  0  0  0
 35 36  1  0  0  0  0
  7  8  1  0  0  0  0
 17 18  1  0  0  0  0
 24 32  1  0  0  0  0
 25 33  1  0  0  0  0
  3  4  1  0  0  0  0
  3  5  1  0  0  0  0
  3  6  1  0  0  0  0
 39 42  1  0  0  0  0
 39 43  1  0  0  0  0
 39 44  1  0  0  0  0
 11 14  1  0  0  0  0
 11 15  1  0  0  0  0
 11 16  1  0  0  0  0
 46 48  1  0  0  0  0
 46 49  1  0  0  0  0
 46 50  1  0  0  0  0
 21 29  1  0  0  0  0
 21 30  1  0  0  0  0
 36 41  1  0  0  0  0
  8 13  1  0  0  0  0
 18 28  1  0  0  0  0
 26 34  1  0  0  0  0
 23 31  1  0  0  0  0
 45 47  1  0  0  0  0
  7 12  1  0  0  0  0
 35 40  1  0  0  0  0
 17 27  1  0  0  0  0
M  CHG  1  23   1
M  END
$$$$

  -OEChem-05262214473D

 50 50  0     1  0  0  0  0  0999 V2000
   -1.6938    0.4865    3.8080 C   0  0  0  0  0  0  0  0  0  0  0  0
   -0.7464   -0.1282    3.3323 O   0  0  0  0  0  0  0  0  0  0  0  0
   -2.1257    0.2041    5.2087 C   0  0  0  0  0  0  0  0  0  0  0  0
   -2.8853   -0.5922    5.2621 H   0  0  0  0  0  0  0  0  0  0  0  0
   -1.2944   -0.1435    5.8430 H   0  0  0  0  0  0  0  0  0  0  0  0
   -2.5637    1.0590    5.7483 H   0  0  0  0  0  0  0  0  0  0  0  0
   -2.4435    1.4589    3.1669 N   0  0  0  0  0  0  0  0  0  0  0  0
   -2.1966    1.8850    1.8145 C   0  0  2  0  0  0  0  0  0  0  0  0
   -0.8617    1.2996    1.3733 C   0  0  0  0  0  0  0  0  0  0  0  0
    0.0104    0.9468    2.1646 O   0  0  0  0  0  0  0  0  0  0  0  0
   -2.1879    3.4017    1.7050 C   0  0  0  0  0  0  0  0  0  0  0  0
   -3.2085    1.8948    3.6787 H   0  0  0  0  0  0  0  0  0  0  0  0
   -3.0007    1.4665    1.1994 H   0  0  0  0  0  0  0  0  0  0  0  0
   -1.3888    3.8390    2.3147 H   0  0  0  0  0  0  0  0  0  0  0  0
   -2.0284    3.7240    0.6708 H   0  0  0  0  0  0  0  0  0  0  0  0
   -3.1380    3.8230    2.0508 H   0  0  0  0  0  0  0  0  0  0  0  0
   -0.7390    1.2565   -0.0101 N   0  0  0  0  0  0  0  0  0  0  0  0
    0.4383    0.7557   -0.6738 C   0  0  2  0  0  0  0  0  0  0  0  0
    0.4105   -0.7640   -0.5558 C   0  0  0  0  0  0  0  0  0  0  0  0
    1.4288   -1.4474   -0.4726 O   0  0  0  0  0  0  0  0  0  0  0  0
    1.7289    1.3141   -0.0632 C   0  0  0  0  0  0  0  0  0  0  0  0
    1.8518    2.8095   -0.2253 C   0  0  0  0  0  0  0  0  0  0  0  0
    2.1757    3.3847   -1.4305 N   0  3  0  0  0  0  0  0  0  0  0  0
    1.6954    3.8310    0.6686 C   0  0  0  0  0  0  0  0  0  0  0  0
    2.2198    4.7137   -1.2926 C   0  0  0  0  0  0  0  0  0  0  0  0
    1.9294    4.9976   -0.0188 N   0  0  0  0  0  0  0  0  0  0  0  0
   -1.5221    1.5532   -0.5874 H   0  0  0  0  0  0  0  0  0  0  0  0
    0.3445    1.0354   -1.7297 H   0  0  0  0  0  0  0  0  0  0  0  0
    2.6042    0.8211   -0.5074 H   0  0  0  0  0  0  0  0  0  0  0  0
    1.7792    1.0792    1.0083 H   0  0  0  0  0  0  0  0  0  0  0  0
    2.3560    2.8820   -2.2952 H   0  0  0  0  0  0  0  0  0  0  0  0
    1.4504    3.9111    1.7089 H   0  0  0  0  0  0  0  0  0  0  0  0
    2.4487    5.4264   -2.0672 H   0  0  0  0  0  0  0  0  0  0  0  0
    1.8894    5.9325    0.3773 H   0  0  0  0  0  0  0  0  0  0  0  0
   -0.8858   -1.2575   -0.5044 N   0  0  0  0  0  0  0  0  0  0  0  0
   -1.1951   -2.6629   -0.3698 C   0  0  2  0  0  0  0  0  0  0  0  0
   -0.3909   -3.4237   -1.4157 C   0  0  0  0  0  0  0  0  0  0  0  0
    0.0454   -2.8994   -2.4384 O   0  0  0  0  0  0  0  0  0  0  0  0
   -2.6846   -2.9200   -0.5366 C   0  0  0  0  0  0  0  0  0  0  0  0
   -1.6558   -0.5978   -0.5643 H   0  0  0  0  0  0  0  0  0  0  0  0
   -0.8697   -2.9638    0.6320 H   0  0  0  0  0  0  0  0  0  0  0  0
   -3.0291   -2.6246   -1.5344 H   0  0  0  0  0  0  0  0  0  0  0  0
   -2.9211   -3.9812   -0.4061 H   0  0  0  0  0  0  0  0  0  0  0  0
   -3.2633   -2.3488    0.1973 H   0  0  0  0  0  0  0  0  0  0  0  0
   -0.2545   -4.7668   -1.0938 N   0  0  0  0  0  0  0  0  0  0  0  0
    0.4562   -5.7017   -1.9345 C   0  0  0  0  0  0  0  0  0  0  0  0
   -0.6323   -5.1111   -0.2161 H   0  0  0  0  0  0  0  0  0  0  0  0
   -0.2502   -6.1841   -2.6261 H   0  0  0  0  0  0  0  0  0  0  0  0
    1.2249   -5.1656   -2.5105 H   0  0  0  0  0  0  0  0  0  0  0  0
    0.9358   -6.4675   -1.3071 H   0  0  0  0  0  0  0  0  0  0  0  0
 22 24  2  0  0  0  0
 24 26  1  0  0  0  0
 25 26  1  0  0  0  0
 23 25  2  0  0  0  0
 21 22  1  0  0  0  0
 22 23  1  0  0  0  0
  1  3  1  0  0  0  0
  1  7  1  0  0  0  0
  1  2  2  0  0  0  0
 36 37  1  0  0  0  0
 37 45  1  0  0  0  0
 37 38  2  0  0  0  0
  8  9  1  0  0  0  0
  9 17  1  0  0  0  0
  9 10  2  0  0  0  0
 18 19  1  0  0  0  0
 19 35  1  0  0  0  0
 19 20  2  0  0  0  0
 36 39  1  0  0  0  0
  8 11  1  0  0  0  0
 45 46  1  0  0  0  0
 18 21  1  0  0  0  0
 35 36  1  0  0  0  0
  7  8  1  0  0  0  0
 17 18  1  0  0  0  0
 24 32  1  0  0  0  0
 25 33  1  0  0  0  0
  3  4  1  0  0  0  0
  3  5  1  0  0  0  0
  3  6  1  0  0  0  0
 39 42  1  0  0  0  0
 39 43  1  0  0  0  0
 39 44  1  0  0  0  0
 11 14  1  0  0  0  0
 11 15  1  0  0  0  0
 11 16  1  0  0  0  0
 46 48  1  0  0  0  0
 46 49  1  0  0  0  0
 46 50  1  0  0  0  0
 21 29  1  0  0  0  0
 21 30  1  0  0  0  0
 36 41  1  0  0  0  0
  8 13  1  0  0  0  0
 18 28  1  0  0  0  0
 26 34  1  0  0  0  0
 23 31  1  0  0  0  0
 45 47  1  0  0  0  0
  7 12  1  0  0  0  0
 35 40  1  0  0  0  0
 17 27  1  0  0  0  0
M  CHG  1  23   1
M  END
$$$$

  -OEChem-05262214473D

 50 50  0     1  0  0  0  0  0999 V2000
   -1.6938    0.4865    3.8080 C   0  0  0  0  0  0  0  0  0  0  0  0
   -0.7464   -0.1282    3.3323 O   0  0  0  0  0  0  0  0  0  0  0  0
   -2.1257    0.2041    5.2087 C   0  0  0  0  0  0  0  0  0  0  0  0
   -2.8853   -0.5922    5.2621 H   0  0  0  0  0  0  0  0  0  0  0  0
   -1.2944   -0.1435    5.8430 H   0  0  0  0  0  0  0  0  0  0  0  0
   -2.5637    1.0590    5.7483 H   0  0  0  0  0  0  0  0  0  0  0  0
   -2.4435    1.4589    3.1669 N   0  0  0  0  0  0  0  0  0  0  0  0
   -2.1966    1.8850    1.8145 C   0  0  2  0  0  0  0  0  0  0  0  0
   -0.8617    1.2996    1.3733 C   0  0  0  0  0  0  0  0  0  0  0  0
    0.0104    0.9468    2.1646 O   0  0  0  0  0  0  0  0  0  0  0  0
   -2.1879    3.4017    1.7050 C   0  0  0  0  0  0  0  0  0  0  0  0
   -3.2085    1.8948    3.6787 H   0  0  0  0  0  0  0  0  0  0  0  0
   -3.0007    1.4665    1.1994 H   0  0  0  0  0  0  0  0  0  0  0  0
   -1.3888    3.8390    2.3147 H   0  0  0  0  0  0  0  0  0  0  0  0
   -2.0284    3.7240    0.6708 H   0  0  0  0  0  0  0  0  0  0  0  0
   -3.1380    3.8230    2.0508 H   0  0  0  0  0  0  0  0  0  0  0  0
   -0.7390    1.2565   -0.0101 N   0  0  0  0  0  0  0  0  0  0  0  0
    0.4383    0.7557   -0.6738 C   0  0  2  0  0  0  0  0  0  0  0  0
    0.4105   -0.7640   -0.5558 C   0  0  0  0  0  0  0  0  0  0  0  0
    1.3859   -1.4261   -0.2078 O   0  0  0  0  0  0  0  0  0  0  0  0
    1.7289    1.3141   -0.0632 C   0  0  0  0  0  0  0  0  0  0  0  0
    1.8518    2.8095   -0.2253 C   0  0  0  0  0  0  0  0  0  0  0  0
    2.1757    3.3847   -1.4305 N   0  3  0  0  0  0  0  0  0  0  0  0
    1.6954    3.8310    0.6686 C   0  0  0  0  0  0  0  0  0  0  0  0
    2.2198    4.7137   -1.2926 C   0  0  0  0  0  0  0  0  0  0  0  0
    1.9294    4.9976   -0.0188 N   0  0  0  0  0  0  0  0  0  0  0  0
   -1.5221    1.5532   -0.5874 H   0  0  0  0  0  0  0  0  0  0  0  0
    0.3445    1.0354   -1.7297 H   0  0  0  0  0  0  0  0  0  0  0  0
    2.6042    0.8211   -0.5074 H   0  0  0  0  0  0  0  0  0  0  0  0
    1.7792    1.0792    1.0083 H   0  0  0  0  0  0  0  0  0  0  0  0
    2.3560    2.8820   -2.2952 H   0  0  0  0  0  0  0  0  0  0  0  0
    1.4504    3.9111    1.7089 H   0  0  0  0  0  0  0  0  0  0  0  0
    2.4487    5.4264   -2.0672 H   0  0  0  0  0  0  0  0  0  0  0  0
    1.8894    5.9325    0.3773 H   0  0  0  0  0  0  0  0  0  0  0  0
   -0.8453   -1.2841   -0.8368 N   0  0  0  0  0  0  0  0  0  0  0  0
   -1.1515   -2.6952   -0.7763 C   0  0  2  0  0  0  0  0  0  0  0  0
   -0.0900   -3.4414   -1.5738 C   0  0  0  0  0  0  0  0  0  0  0  0
    0.5851   -2.9104   -2.4531 O   0  0  0  0  0  0  0  0  0  0  0  0
   -2.5423   -2.9834   -1.3198 C   0  0  0  0  0  0  0  0  0  0  0  0
   -1.5864   -0.6405   -1.0982 H   0  0  0  0  0  0  0  0  0  0  0  0
   -1.0899   -2.9873    0.2777 H   0  0  0  0  0  0  0  0  0  0  0  0
   -2.6233   -2.6973   -2.3748 H   0  0  0  0  0  0  0  0  0  0  0  0
   -2.7838   -4.0490   -1.2469 H   0  0  0  0  0  0  0  0  0  0  0  0
   -3.3018   -2.4228   -0.7642 H   0  0  0  0  0  0  0  0  0  0  0  0
   -0.0153   -4.7808   -1.2177 N   0  0  0  0  0  0  0  0  0  0  0  0
    0.9063   -5.7026   -1.8397 C   0  0  0  0  0  0  0  0  0  0  0  0
   -0.6001   -5.1310   -0.4646 H   0  0  0  0  0  0  0  0  0  0  0  0
    0.4118   -6.2009   -2.6865 H   0  0  0  0  0  0  0  0  0  0  0  0
    1.7870   -5.1520   -2.2019 H   0  0  0  0  0  0  0  0  0  0  0  0
    1.2225   -6.4570   -1.1043 H   0  0  0  0  0  0  0  0  0  0  0  0
 22 24  2  0  0  0  0
 24 26  1  0  0  0  0
 25 26  1  0  0  0  0
 23 25  2  0  0  0  0
 21 22  1  0  0  0  0
 22 23  1  0  0  0  0
  1  3  1  0  0  0  0
  1  7  1  0  0  0  0
  1  2  2  0  0  0  0
 36 37  1  0  0  0  0
 37 45  1  0  0  0  0
 37 38  2  0  0  0  0
  8  9  1  0  0  0  0
  9 17  1  0  0  0  0
  9 10  2  0  0  0  0
 18 19  1  0  0  0  0
 19 35  1  0  0  0  0
 19 20  2  0  0  0  0
 36 39  1  0  0  0  0
  8 11  1  0  0  0  0
 45 46  1  0  0  0  0
 18 21  1  0  0  0  0
 35 36  1  0  0  0  0
  7  8  1  0  0  0  0
 17 18  1  0  0  0  0
 24 32  1  0  0  0  0
 25 33  1  0  0  0  0
  3  4  1  0  0  0  0
  3  5  1  0  0  0  0
  3  6  1  0  0  0  0
 39 42  1  0  0  0  0
 39 43  1  0  0  0  0
 39 44  1  0  0  0  0
 11 14  1  0  0  0  0
 11 15  1  0  0  0  0
 11 16  1  0  0  0  0
 46 48  1  0  0  0  0
 46 49  1  0  0  0  0
 46 50  1  0  0  0  0
 21 29  1  0  0  0  0
 21 30  1  0  0  0  0
 36 41  1  0  0  0  0
  8 13  1  0  0  0  0
 18 28  1  0  0  0  0
 26 34  1  0  0  0  0
 23 31  1  0  0  0  0
 45 47  1  0  0  0  0
  7 12  1  0  0  0  0
 35 40  1  0  0  0  0
 17 27  1  0  0  0  0
M  CHG  1  23   1
M  END
$$$$

  -OEChem-05262214473D

 50 50  0     1  0  0  0  0  0999 V2000
   -1.6938    0.4865    3.8080 C   0  0  0  0  0  0  0  0  0  0  0  0
   -0.7464   -0.1282    3.3323 O   0  0  0  0  0  0  0  0  0  0  0  0
   -2.1257    0.2041    5.2087 C   0  0  0  0  0  0  0  0  0  0  0  0
   -2.8853   -0.5922    5.2621 H   0  0  0  0  0  0  0  0  0  0  0  0
   -1.2944   -0.1435    5.8430 H   0  0  0  0  0  0  0  0  0  0  0  0
   -2.5637    1.0590    5.7483 H   0  0  0  0  0  0  0  0  0  0  0  0
   -2.4435    1.4589    3.1669 N   0  0  0  0  0  0  0  0  0  0  0  0
   -2.1966    1.8850    1.8145 C   0  0  2  0  0  0  0  0  0  0  0  0
   -0.8617    1.2996    1.3733 C   0  0  0  0  0  0  0  0  0  0  0  0
    0.0104    0.9468    2.1646 O   0  0  0  0  0  0  0  0  0  0  0  0
   -2.1879    3.4017    1.7050 C   0  0  0  0  0  0  0  0  0  0  0  0
   -3.2085    1.8948    3.6787 H   0  0  0  0  0  0  0  0  0  0  0  0
   -3.0007    1.4665    1.1994 H   0  0  0  0  0  0  0  0  0  0  0  0
   -1.3888    3.8390    2.3147 H   0  0  0  0  0  0  0  0  0  0  0  0
   -2.0284    3.7240    0.6708 H   0  0  0  0  0  0  0  0  0  0  0  0
   -3.1380    3.8230    2.0508 H   0  0  0  0  0  0  0  0  0  0  0  0
   -0.7390    1.2565   -0.0101 N   0  0  0  0  0  0  0  0  0  0  0  0
    0.4383    0.7557   -0.6738 C   0  0  2  0  0  0  0  0  0  0  0  0
    0.4105   -0.7640   -0.5558 C   0  0  0  0  0  0  0  0  0  0  0  0
    1.2757   -1.4051    0.0369 O   0  0  0  0  0  0  0  0  0  0  0  0
    1.7289    1.3141   -0.0632 C   0  0  0  0  0  0  0  0  0  0  0  0
    1.8518    2.8095   -0.2253 C   0  0  0  0  0  0  0  0  0  0  0  0
    2.1757    3.3847   -1.4305 N   0  3  0  0  0  0  0  0  0  0  0  0
    1.6954    3.8310    0.6686 C   0  0  0  0  0  0  0  0  0  0  0  0
    2.2198    4.7137   -1.2926 C   0  0  0  0  0  0  0  0  0  0  0  0
    1.9294    4.9976   -0.0188 N   0  0  0  0  0  0  0  0  0  0  0  0
   -1.5221    1.5532   -0.5874 H   0  0  0  0  0  0  0  0  0  0  0  0
    0.3445    1.0354   -1.7297 H   0  0  0  0  0  0  0  0  0  0  0  0
    2.6042    0.8211   -0.5074 H   0  0  0  0  0  0  0  0  0  0  0  0
    1.7792    1.0792    1.0083 H   0  0  0  0  0  0  0  0  0  0  0  0
    2.3560    2.8820   -2.2952 H   0  0  0  0  0  0  0  0  0  0  0  0
    1.4504    3.9111    1.7089 H   0  0  0  0  0  0  0  0  0  0  0  0
    2.4487    5.4264   -2.0672 H   0  0  0  0  0  0  0  0  0  0  0  0
    1.8894    5.9325    0.3773 H   0  0  0  0  0  0  0  0  0  0  0  0
   -0.7199   -1.3105   -1.1474 N   0  0  0  0  0  0  0  0  0  0  0  0
   -1.0039   -2.7275   -1.1576 C   0  0  2  0  0  0  0  0  0  0  0  0
    0.2417   -3.4533   -1.6487 C   0  0  0  0  0  0  0  0  0  0  0  0
    1.1104   -2.9103   -2.3281 O   0  0  0  0  0  0  0  0  0  0  0  0
   -2.2015   -3.0455   -2.0393 C   0  0  0  0  0  0  0  0  0  0  0  0
   -1.3808   -0.6829   -1.5959 H   0  0  0  0  0  0  0  0  0  0  0  0
   -1.2107   -3.0161   -0.1212 H   0  0  0  0  0  0  0  0  0  0  0  0
   -2.0130   -2.7633   -3.0816 H   0  0  0  0  0  0  0  0  0  0  0  0
   -2.4329   -4.1157   -2.0233 H   0  0  0  0  0  0  0  0  0  0  0  0
   -3.0893   -2.4995   -1.7025 H   0  0  0  0  0  0  0  0  0  0  0  0
    0.2480   -4.7901   -1.2756 N   0  0  0  0  0  0  0  0  0  0  0  0
    1.3166   -5.6940   -1.6320 C   0  0  0  0  0  0  0  0  0  0  0  0
   -0.5044   -5.1507   -0.6963 H   0  0  0  0  0  0  0  0  0  0  0  0
    1.0671   -6.2042   -2.5741 H   0  0  0  0  0  0  0  0  0  0  0  0
    2.2501   -5.1260   -1.7588 H   0  0  0  0  0  0  0  0  0  0  0  0
    1.4469   -6.4402   -0.8344 H   0  0  0  0  0  0  0  0  0  0  0  0
 22 24  2  0  0  0  0
 24 26  1  0  0  0  0
 25 26  1  0  0  0  0
 23 25  2  0  0  0  0
 21 22  1  0  0  0  0
 22 23  1  0  0  0  0
  1  3  1  0  0  0  0
  1  7  1  0  0  0  0
  1  2  2  0  0  0  0
 36 37  1  0  0  0  0
 37 45  1  0  0  0  0
 37 38  2  0  0  0  0
  8  9  1  0  0  0  0
  9 17  1  0  0  0  0
  9 10  2  0  0  0  0
 18 19  1  0  0  0  0
 19 35  1  0  0  0  0
 19 20  2  0  0  0  0
 36 39  1  0  0  0  0
  8 11  1  0  0  0  0
 45 46  1  0  0  0  0
 18 21  1  0  0  0  0
 35 36  1  0  0  0  0
  7  8  1  0  0  0  0
 17 18  1  0  0  0  0
 24 32  1  0  0  0  0
 25 33  1  0  0  0  0
  3  4  1  0  0  0  0
  3  5  1  0  0  0  0
  3  6  1  0  0  0  0
 39 42  1  0  0  0  0
 39 43  1  0  0  0  0
 39 44  1  0  0  0  0
 11 14  1  0  0  0  0
 11 15  1  0  0  0  0
 11 16  1  0  0  0  0
 46 48  1  0  0  0  0
 46 49  1  0  0  0  0
 46 50  1  0  0  0  0
 21 29  1  0  0  0  0
 21 30  1  0  0  0  0
 36 41  1  0  0  0  0
  8 13  1  0  0  0  0
 18 28  1  0  0  0  0
 26 34  1  0  0  0  0
 23 31  1  0  0  0  0
 45 47  1  0  0  0  0
  7 12  1  0  0  0  0
 35 40  1  0  0  0  0
 17 27  1  0  0  0  0
M  CHG  1  23   1
M  END
$$$$

  -OEChem-05262214473D

 50 50  0     1  0  0  0  0  0999 V2000
   -1.6938    0.4865    3.8080 C   0  0  0  0  0  0  0  0  0  0  0  0
   -0.7464   -0.1282    3.3323 O   0  0  0  0  0  0  0  0  0  0  0  0
   -2.1257    0.2041    5.2087 C   0  0  0  0  0  0  0  0  0  0  0  0
   -2.8853   -0.5922    5.2621 H   0  0  0  0  0  0  0  0  0  0  0  0
   -1.2944   -0.1435    5.8430 H   0  0  0  0  0  0  0  0  0  0  0  0
   -2.5637    1.0590    5.7483 H   0  0  0  0  0  0  0  0  0  0  0  0
   -2.4435    1.4589    3.1669 N   0  0  0  0  0  0  0  0  0  0  0  0
   -2.1966    1.8850    1.8145 C   0  0  2  0  0  0  0  0  0  0  0  0
   -0.8617    1.2996    1.3733 C   0  0  0  0  0  0  0  0  0  0  0  0
    0.0104    0.9468    2.1646 O   0  0  0  0  0  0  0  0  0  0  0  0
   -2.1879    3.4017    1.7050 C   0  0  0  0  0  0  0  0  0  0  0  0
   -3.2085    1.8948    3.6787 H   0  0  0  0  0  0  0  0  0  0  0  0
   -3.0007    1.4665    1.1994 H   0  0  0  0  0  0  0  0  0  0  0  0
   -1.3888    3.8390    2.3147 H   0  0  0  0  0  0  0  0  0  0  0  0
   -2.0284    3.7240    0.6708 H   0  0  0  0  0  0  0  0  0  0  0  0
   -3.1380    3.8230    2.0508 H   0  0  0  0  0  0  0  0  0  0  0  0
   -0.7390    1.2565   -0.0101 N   0  0  0  0  0  0  0  0  0  0  0  0
    0.4383    0.7557   -0.6738 C   0  0  2  0  0  0  0  0  0  0  0  0
    0.4105   -0.7640   -0.5558 C   0  0  0  0  0  0  0  0  0  0  0  0
    1.1058   -1.3858    0.2447 O   0  0  0  0  0  0  0  0  0  0  0  0
    1.7289    1.3141   -0.0632 C   0  0  0  0  0  0  0  0  0  0  0  0
    1.8518    2.8095   -0.2253 C   0  0  0  0  0  0  0  0  0  0  0  0
    2.1757    3.3847   -1.4305 N   0  3  0  0  0  0  0  0  0  0  0  0
    1.6954    3.8310    0.6686 C   0  0  0  0  0  0  0  0  0  0  0  0
    2.2198    4.7137   -1.2926 C   0  0  0  0  0  0  0  0  0  0  0  0
    1.9294    4.9976   -0.0188 N   0  0  0  0  0  0  0  0  0  0  0  0
   -1.5221    1.5532   -0.5874 H   0  0  0  0  0  0  0  0  0  0  0  0
    0.3445    1.0354   -1.7297 H   0  0  0  0  0  0  0  0  0  0  0  0
    2.6042    0.8211   -0.5074 H   0  0  0  0  0  0  0  0  0  0  0  0
    1.7792    1.0792    1.0083 H   0  0  0  0  0  0  0  0  0  0  0  0
    2.3560    2.8820   -2.2952 H   0  0  0  0  0  0  0  0  0  0  0  0
    1.4504    3.9111    1.7089 H   0  0  0  0  0  0  0  0  0  0  0  0
    2.4487    5.4264   -2.0672 H   0  0  0  0  0  0  0  0  0  0  0  0
    1.8894    5.9325    0.3773 H   0  0  0  0  0  0  0  0  0  0  0  0
   -0.5181   -1.3349   -1.4150 N   0  0  0  0  0  0  0  0  0  0  0  0
   -0.7623   -2.7576   -1.4876 C   0  0  2  0  0  0  0  0  0  0  0  0
    0.5817   -3.4585   -1.6355 C   0  0  0  0  0  0  0  0  0  0  0  0
    1.5856   -2.8991   -2.0717 O   0  0  0  0  0  0  0  0  0  0  0  0
   -1.6854   -3.1021   -2.6460 C   0  0  0  0  0  0  0  0  0  0  0  0
   -1.0530   -0.7221   -2.0233 H   0  0  0  0  0  0  0  0  0  0  0  0
   -1.2239   -3.0481   -0.5376 H   0  0  0  0  0  0  0  0  0  0  0  0
   -1.2399   -2.8182   -3.6065 H   0  0  0  0  0  0  0  0  0  0  0  0
   -1.8923   -4.1767   -2.6825 H   0  0  0  0  0  0  0  0  0  0  0  0
   -2.6405   -2.5738   -2.5537 H   0  0  0  0  0  0  0  0  0  0  0  0
    0.5174   -4.7941   -1.2635 N   0  0  0  0  0  0  0  0  0  0  0  0
    1.6592   -5.6764   -1.3256 C   0  0  0  0  0  0  0  0  0  0  0  0
   -0.3518   -5.1689   -0.8953 H   0  0  0  0  0  0  0  0  0  0  0  0
    1.6712   -6.1936   -2.2963 H   0  0  0  0  0  0  0  0  0  0  0  0
    2.5825   -5.0896   -1.2115 H   0  0  0  0  0  0  0  0  0  0  0  0
    1.5936   -6.4181   -0.5159 H   0  0  0  0  0  0  0  0  0  0  0  0
 22 24  2  0  0  0  0
 24 26  1  0  0  0  0
 25 26  1  0  0  0  0
 23 25  2  0  0  0  0
 21 22  1  0  0  0  0
 22 23  1  0  0  0  0
  1  3  1  0  0  0  0
  1  7  1  0  0  0  0
  1  2  2  0  0  0  0
 36 37  1  0  0  0  0
 37 45  1  0  0  0  0
 37 38  2  0  0  0  0
  8  9  1  0  0  0  0
  9 17  1  0  0  0  0
  9 10  2  0  0  0  0
 18 19  1  0  0  0  0
 19 35  1  0  0  0  0
 19 20  2  0  0  0  0
 36 39  1  0  0  0  0
  8 11  1  0  0  0  0
 45 46  1  0  0  0  0
 18 21  1  0  0  0  0
 35 36  1  0  0  0  0
  7  8  1  0  0  0  0
 17 18  1  0  0  0  0
 24 32  1  0  0  0  0
 25 33  1  0  0  0  0
  3  4  1  0  0  0  0
  3  5  1  0  0  0  0
  3  6  1  0  0  0  0
 39 42  1  0  0  0  0
 39 43  1  0  0  0  0
 39 44  1  0  0  0  0
 11 14  1  0  0  0  0
 11 15  1  0  0  0  0
 11 16  1  0  0  0  0
 46 48  1  0  0  0  0
 46 49  1  0  0  0  0
 46 50  1  0  0  0  0
 21 29  1  0  0  0  0
 21 30  1  0  0  0  0
 36 41  1  0  0  0  0
  8 13  1  0  0  0  0
 18 28  1  0  0  0  0
 26 34  1  0  0  0  0
 23 31  1  0  0  0  0
 45 47  1  0  0  0  0
  7 12  1  0  0  0  0
 35 40  1  0  0  0  0
 17 27  1  0  0  0  0
M  CHG  1  23   1
M  END
$$$$

  -OEChem-05262214473D

 50 50  0     1  0  0  0  0  0999 V2000
   -1.6938    0.4865    3.8080 C   0  0  0  0  0  0  0  0  0  0  0  0
   -0.7464   -0.1282    3.3323 O   0  0  0  0  0  0  0  0  0  0  0  0
   -2.1257    0.2041    5.2087 C   0  0  0  0  0  0  0  0  0  0  0  0
   -2.8853   -0.5922    5.2621 H   0  0  0  0  0  0  0  0  0  0  0  0
   -1.2944   -0.1435    5.8430 H   0  0  0  0  0  0  0  0  0  0  0  0
   -2.5637    1.0590    5.7483 H   0  0  0  0  0  0  0  0  0  0  0  0
   -2.4435    1.4589    3.1669 N   0  0  0  0  0  0  0  0  0  0  0  0
   -2.1966    1.8850    1.8145 C   0  0  2  0  0  0  0  0  0  0  0  0
   -0.8617    1.2996    1.3733 C   0  0  0  0  0  0  0  0  0  0  0  0
    0.0104    0.9468    2.1646 O   0  0  0  0  0  0  0  0  0  0  0  0
   -2.1879    3.4017    1.7050 C   0  0  0  0  0  0  0  0  0  0  0  0
   -3.2085    1.8948    3.6787 H   0  0  0  0  0  0  0  0  0  0  0  0
   -3.0007    1.4665    1.1994 H   0  0  0  0  0  0  0  0  0  0  0  0
   -1.3888    3.8390    2.3147 H   0  0  0  0  0  0  0  0  0  0  0  0
   -2.0284    3.7240    0.6708 H   0  0  0  0  0  0  0  0  0  0  0  0
   -3.1380    3.8230    2.0508 H   0  0  0  0  0  0  0  0  0  0  0  0
   -0.7390    1.2565   -0.0101 N   0  0  0  0  0  0  0  0  0  0  0  0
    0.4383    0.7557   -0.6738 C   0  0  2  0  0  0  0  0  0  0  0  0
    0.4105   -0.7640   -0.5558 C   0  0  0  0  0  0  0  0  0  0  0  0
    0.8876   -1.3696    0.4016 O   0  0  0  0  0  0  0  0  0  0  0  0
    1.7289    1.3141   -0.0632 C   0  0  0  0  0  0  0  0  0  0  0  0
    1.8518    2.8095   -0.2253 C   0  0  0  0  0  0  0  0  0  0  0  0
    2.1757    3.3847   -1.4305 N   0  3  0  0  0  0  0  0  0  0  0  0
    1.6954    3.8310    0.6686 C   0  0  0  0  0  0  0  0  0  0  0  0
    2.2198    4.7137   -1.2926 C   0  0  0  0  0  0  0  0  0  0  0  0
    1.9294    4.9976   -0.0188 N   0  0  0  0  0  0  0  0  0  0  0  0
   -1.5221    1.5532   -0.5874 H   0  0  0  0  0  0  0  0  0  0  0  0
    0.3445    1.0354   -1.7297 H   0  0  0  0  0  0  0  0  0  0  0  0
    2.6042    0.8211   -0.5074 H   0  0  0  0  0  0  0  0  0  0  0  0
    1.7792    1.0792    1.0083 H   0  0  0  0  0  0  0  0  0  0  0  0
    2.3560    2.8820   -2.2952 H   0  0  0  0  0  0  0  0  0  0  0  0
    1.4504    3.9111    1.7089 H   0  0  0  0  0  0  0  0  0  0  0  0
    2.4487    5.4264   -2.0672 H   0  0  0  0  0  0  0  0  0  0  0  0
    1.8894    5.9325    0.3773 H   0  0  0  0  0  0  0  0  0  0  0  0
   -0.2537   -1.3558   -1.6212 N   0  0  0  0  0  0  0  0  0  0  0  0
   -0.4432   -2.7833   -1.7439 C   0  0  2  0  0  0  0  0  0  0  0  0
    0.9067   -3.4567   -1.5349 C   0  0  0  0  0  0  0  0  0  0  0  0
    1.9782   -2.8775   -1.7016 O   0  0  0  0  0  0  0  0  0  0  0  0
   -1.0292   -3.1492   -3.0987 C   0  0  0  0  0  0  0  0  0  0  0  0
   -0.6252   -0.7554   -2.3514 H   0  0  0  0  0  0  0  0  0  0  0  0
   -1.1285   -3.0814   -0.9430 H   0  0  0  0  0  0  0  0  0  0  0  0
   -0.3565   -2.8582   -3.9137 H   0  0  0  0  0  0  0  0  0  0  0  0
   -1.1988   -4.2280   -3.1793 H   0  0  0  0  0  0  0  0  0  0  0  0
   -1.9859   -2.6406   -3.2597 H   0  0  0  0  0  0  0  0  0  0  0  0
    0.7746   -4.7925   -1.1823 N   0  0  0  0  0  0  0  0  0  0  0  0
    1.9106   -5.6512   -0.9413 C   0  0  0  0  0  0  0  0  0  0  0  0
   -0.1527   -5.1845   -1.0480 H   0  0  0  0  0  0  0  0  0  0  0  0
    2.1828   -6.1701   -1.8723 H   0  0  0  0  0  0  0  0  0  0  0  0
    2.7617   -5.0452   -0.5972 H   0  0  0  0  0  0  0  0  0  0  0  0
    1.6528   -6.3924   -0.1705 H   0  0  0  0  0  0  0  0  0  0  0  0
 22 24  2  0  0  0  0
 24 26  1  0  0  0  0
 25 26  1  0  0  0  0
 23 25  2  0  0  0  0
 21 22  1  0  0  0  0
 22 23  1  0  0  0  0
  1  3  1  0  0  0  0
  1  7  1  0  0  0  0
  1  2  2  0  0  0  0
 36 37  1  0  0  0  0
 37 45  1  0  0  0  0
 37 38  2  0  0  0  0
  8  9  1  0  0  0  0
  9 17  1  0  0  0  0
  9 10  2  0  0  0  0
 18 19  1  0  0  0  0
 19 35  1  0  0  0  0
 19 20  2  0  0  0  0
 36 39  1  0  0  0  0
  8 11  1  0  0  0  0
 45 46  1  0  0  0  0
 18 21  1  0  0  0  0
 35 36  1  0  0  0  0
  7  8  1  0  0  0  0
 17 18  1  0  0  0  0
 24 32  1  0  0  0  0
 25 33  1  0  0  0  0
  3  4  1  0  0  0  0
  3  5  1  0  0  0  0
  3  6  1  0  0  0  0
 39 42  1  0  0  0  0
 39 43  1  0  0  0  0
 39 44  1  0  0  0  0
 11 14  1  0  0  0  0
 11 15  1  0  0  0  0
 11 16  1  0  0  0  0
 46 48  1  0  0  0  0
 46 49  1  0  0  0  0
 46 50  1  0  0  0  0
 21 29  1  0  0  0  0
 21 30  1  0  0  0  0
 36 41  1  0  0  0  0
  8 13  1  0  0  0  0
 18 28  1  0  0  0  0
 26 34  1  0  0  0  0
 23 31  1  0  0  0  0
 45 47  1  0  0  0  0
  7 12  1  0  0  0  0
 35 40  1  0  0  0  0
 17 27  1  0  0  0  0
M  CHG  1  23   1
M  END
$$$$

  -OEChem-05262214473D

 50 50  0     1  0  0  0  0  0999 V2000
   -1.6938    0.4865    3.8080 C   0  0  0  0  0  0  0  0  0  0  0  0
   -0.7464   -0.1282    3.3323 O   0  0  0  0  0  0  0  0  0  0  0  0
   -2.1257    0.2041    5.2087 C   0  0  0  0  0  0  0  0  0  0  0  0
   -2.8853   -0.5922    5.2621 H   0  0  0  0  0  0  0  0  0  0  0  0
   -1.2944   -0.1435    5.8430 H   0  0  0  0  0  0  0  0  0  0  0  0
   -2.5637    1.0590    5.7483 H   0  0  0  0  0  0  0  0  0  0  0  0
   -2.4435    1.4589    3.1669 N   0  0  0  0  0  0  0  0  0  0  0  0
   -2.1966    1.8850    1.8145 C   0  0  2  0  0  0  0  0  0  0  0  0
   -0.8617    1.2996    1.3733 C   0  0  0  0  0  0  0  0  0  0  0  0
    0.0104    0.9468    2.1646 O   0  0  0  0  0  0  0  0  0  0  0  0
   -2.1879    3.4017    1.7050 C   0  0  0  0  0  0  0  0  0  0  0  0
   -3.2085    1.8948    3.6787 H   0  0  0  0  0  0  0  0  0  0  0  0
   -3.0007    1.4665    1.1994 H   0  0  0  0  0  0  0  0  0  0  0  0
   -1.3888    3.8390    2.3147 H   0  0  0  0  0  0  0  0  0  0  0  0
   -2.0284    3.7240    0.6708 H   0  0  0  0  0  0  0  0  0  0  0  0
   -3.1380    3.8230    2.0508 H   0  0  0  0  0  0  0  0  0  0  0  0
   -0.7390    1.2565   -0.0101 N   0  0  0  0  0  0  0  0  0  0  0  0
    0.4383    0.7557   -0.6738 C   0  0  2  0  0  0  0  0  0  0  0  0
    0.4105   -0.7640   -0.5558 C   0  0  0  0  0  0  0  0  0  0  0  0
    0.6360   -1.3577    0.4966 O   0  0  0  0  0  0  0  0  0  0  0  0
    1.7289    1.3141   -0.0632 C   0  0  0  0  0  0  0  0  0  0  0  0
    1.8518    2.8095   -0.2253 C   0  0  0  0  0  0  0  0  0  0  0  0
    2.1757    3.3847   -1.4305 N   0  3  0  0  0  0  0  0  0  0  0  0
    1.6954    3.8310    0.6686 C   0  0  0  0  0  0  0  0  0  0  0  0
    2.2198    4.7137   -1.2926 C   0  0  0  0  0  0  0  0  0  0  0  0
    1.9294    4.9976   -0.0188 N   0  0  0  0  0  0  0  0  0  0  0  0
   -1.5221    1.5532   -0.5874 H   0  0  0  0  0  0  0  0  0  0  0  0
    0.3445    1.0354   -1.7297 H   0  0  0  0  0  0  0  0  0  0  0  0
    2.6042    0.8211   -0.5074 H   0  0  0  0  0  0  0  0  0  0  0  0
    1.7792    1.0792    1.0083 H   0  0  0  0  0  0  0  0  0  0  0  0
    2.3560    2.8820   -2.2952 H   0  0  0  0  0  0  0  0  0  0  0  0
    1.4504    3.9111    1.7089 H   0  0  0  0  0  0  0  0  0  0  0  0
    2.4487    5.4264   -2.0672 H   0  0  0  0  0  0  0  0  0  0  0  0
    1.8894    5.9325    0.3773 H   0  0  0  0  0  0  0  0  0  0  0  0
    0.0554   -1.3716   -1.7521 N   0  0  0  0  0  0  0  0  0  0  0  0
   -0.0683   -2.8030   -1.9091 C   0  0  2  0  0  0  0  0  0  0  0  0
    1.1948   -3.4479   -1.3540 C   0  0  0  0  0  0  0  0  0  0  0  0
    2.2615   -2.8471   -1.2428 O   0  0  0  0  0  0  0  0  0  0  0  0
   -0.2777   -3.1838   -3.3664 C   0  0  0  0  0  0  0  0  0  0  0  0
   -0.1268   -0.7805   -2.5578 H   0  0  0  0  0  0  0  0  0  0  0  0
   -0.9312   -3.1135   -1.3098 H   0  0  0  0  0  0  0  0  0  0  0  0
    0.5768   -2.8807   -3.9825 H   0  0  0  0  0  0  0  0  0  0  0  0
   -0.3997   -4.2660   -3.4801 H   0  0  0  0  0  0  0  0  0  0  0  0
   -1.1701   -2.6954   -3.7725 H   0  0  0  0  0  0  0  0  0  0  0  0
    1.0021   -4.7854   -1.0376 N   0  0  0  0  0  0  0  0  0  0  0  0
    2.0539   -5.6200   -0.5054 C   0  0  0  0  0  0  0  0  0  0  0  0
    0.0793   -5.1962   -1.1441 H   0  0  0  0  0  0  0  0  0  0  0  0
    2.5671   -6.1351   -1.3308 H   0  0  0  0  0  0  0  0  0  0  0  0
    2.7754   -4.9958    0.0422 H   0  0  0  0  0  0  0  0  0  0  0  0
    1.6203   -6.3647    0.1783 H   0  0  0  0  0  0  0  0  0  0  0  0
 22 24  2  0  0  0  0
 24 26  1  0  0  0  0
 25 26  1  0  0  0  0
 23 25  2  0  0  0  0
 21 22  1  0  0  0  0
 22 23  1  0  0  0  0
  1  3  1  0  0  0  0
  1  7  1  0  0  0  0
  1  2  2  0  0  0  0
 36 37  1  0  0  0  0
 37 45  1  0  0  0  0
 37 38  2  0  0  0  0
  8  9  1  0  0  0  0
  9 17  1  0  0  0  0
  9 10  2  0  0  0  0
 18 19  1  0  0  0  0
 19 35  1  0  0  0  0
 19 20  2  0  0  0  0
 36 39  1  0  0  0  0
  8 11  1  0  0  0  0
 45 46  1  0  0  0  0
 18 21  1  0  0  0  0
 35 36  1  0  0  0  0
  7  8  1  0  0  0  0
 17 18  1  0  0  0  0
 24 32  1  0  0  0  0
 25 33  1  0  0  0  0
  3  4  1  0  0  0  0
  3  5  1  0  0  0  0
  3  6  1  0  0  0  0
 39 42  1  0  0  0  0
 39 43  1  0  0  0  0
 39 44  1  0  0  0  0
 11 14  1  0  0  0  0
 11 15  1  0  0  0  0
 11 16  1  0  0  0  0
 46 48  1  0  0  0  0
 46 49  1  0  0  0  0
 46 50  1  0  0  0  0
 21 29  1  0  0  0  0
 21 30  1  0  0  0  0
 36 41  1  0  0  0  0
  8 13  1  0  0  0  0
 18 28  1  0  0  0  0
 26 34  1  0  0  0  0
 23 31  1  0  0  0  0
 45 47  1  0  0  0  0
  7 12  1  0  0  0  0
 35 40  1  0  0  0  0
 17 27  1  0  0  0  0
M  CHG  1  23   1
M  END
$$$$

  -OEChem-05262214473D

 50 50  0     1  0  0  0  0  0999 V2000
   -1.6938    0.4865    3.8080 C   0  0  0  0  0  0  0  0  0  0  0  0
   -0.7464   -0.1282    3.3323 O   0  0  0  0  0  0  0  0  0  0  0  0
   -2.1257    0.2041    5.2087 C   0  0  0  0  0  0  0  0  0  0  0  0
   -2.8853   -0.5922    5.2621 H   0  0  0  0  0  0  0  0  0  0  0  0
   -1.2944   -0.1435    5.8430 H   0  0  0  0  0  0  0  0  0  0  0  0
   -2.5637    1.0590    5.7483 H   0  0  0  0  0  0  0  0  0  0  0  0
   -2.4435    1.4589    3.1669 N   0  0  0  0  0  0  0  0  0  0  0  0
   -2.1966    1.8850    1.8145 C   0  0  2  0  0  0  0  0  0  0  0  0
   -0.8617    1.2996    1.3733 C   0  0  0  0  0  0  0  0  0  0  0  0
    0.0104    0.9468    2.1646 O   0  0  0  0  0  0  0  0  0  0  0  0
   -2.1879    3.4017    1.7050 C   0  0  0  0  0  0  0  0  0  0  0  0
   -3.2085    1.8948    3.6787 H   0  0  0  0  0  0  0  0  0  0  0  0
   -3.0007    1.4665    1.1994 H   0  0  0  0  0  0  0  0  0  0  0  0
   -1.3888    3.8390    2.3147 H   0  0  0  0  0  0  0  0  0  0  0  0
   -2.0284    3.7240    0.6708 H   0  0  0  0  0  0  0  0  0  0  0  0
   -3.1380    3.8230    2.0508 H   0  0  0  0  0  0  0  0  0  0  0  0
   -0.7390    1.2565   -0.0101 N   0  0  0  0  0  0  0  0  0  0  0  0
    0.4383    0.7557   -0.6738 C   0  0  2  0  0  0  0  0  0  0  0  0
    0.4105   -0.7640   -0.5558 C   0  0  0  0  0  0  0  0  0  0  0  0
    0.3683   -1.3507    0.5235 O   0  0  0  0  0  0  0  0  0  0  0  0
    1.7289    1.3141   -0.0632 C   0  0  0  0  0  0  0  0  0  0  0  0
    1.8518    2.8095   -0.2253 C   0  0  0  0  0  0  0  0  0  0  0  0
    2.1757    3.3847   -1.4305 N   0  3  0  0  0  0  0  0  0  0  0  0
    1.6954    3.8310    0.6686 C   0  0  0  0  0  0  0  0  0  0  0  0
    2.2198    4.7137   -1.2926 C   0  0  0  0  0  0  0  0  0  0  0  0
    1.9294    4.9976   -0.0188 N   0  0  0  0  0  0  0  0  0  0  0  0
   -1.5221    1.5532   -0.5874 H   0  0  0  0  0  0  0  0  0  0  0  0
    0.3445    1.0354   -1.7297 H   0  0  0  0  0  0  0  0  0  0  0  0
    2.6042    0.8211   -0.5074 H   0  0  0  0  0  0  0  0  0  0  0  0
    1.7792    1.0792    1.0083 H   0  0  0  0  0  0  0  0  0  0  0  0
    2.3560    2.8820   -2.2952 H   0  0  0  0  0  0  0  0  0  0  0  0
    1.4504    3.9111    1.7089 H   0  0  0  0  0  0  0  0  0  0  0  0
    2.4487    5.4264   -2.0672 H   0  0  0  0  0  0  0  0  0  0  0  0
    1.8894    5.9325    0.3773 H   0  0  0  0  0  0  0  0  0  0  0  0
    0.3880   -1.3813   -1.7987 N   0  0  0  0  0  0  0  0  0  0  0  0
    0.3368   -2.8153   -1.9717 C   0  0  2  0  0  0  0  0  0  0  0  0
    1.4261   -3.4328   -1.1049 C   0  0  0  0  0  0  0  0  0  0  0  0
    2.4161   -2.8099   -0.7268 O   0  0  0  0  0  0  0  0  0  0  0  0
    0.5180   -3.2033   -3.4309 C   0  0  0  0  0  0  0  0  0  0  0  0
    0.4085   -0.7958   -2.6285 H   0  0  0  0  0  0  0  0  0  0  0  0
   -0.6453   -3.1422   -1.6131 H   0  0  0  0  0  0  0  0  0  0  0  0
    1.4964   -2.8839   -3.8080 H   0  0  0  0  0  0  0  0  0  0  0  0
    0.4505   -4.2881   -3.5643 H   0  0  0  0  0  0  0  0  0  0  0  0
   -0.2487   -2.7344   -4.0571 H   0  0  0  0  0  0  0  0  0  0  0  0
    1.1844   -4.7733   -0.8391 N   0  0  0  0  0  0  0  0  0  0  0  0
    2.0792   -5.5849   -0.0474 C   0  0  0  0  0  0  0  0  0  0  0  0
    0.3284   -5.2033   -1.1771 H   0  0  0  0  0  0  0  0  0  0  0  0
    2.7979   -6.0910   -0.7087 H   0  0  0  0  0  0  0  0  0  0  0  0
    2.6227   -4.9448    0.6631 H   0  0  0  0  0  0  0  0  0  0  0  0
    1.4984   -6.3370    0.5067 H   0  0  0  0  0  0  0  0  0  0  0  0
 22 24  2  0  0  0  0
 24 26  1  0  0  0  0
 25 26  1  0  0  0  0
 23 25  2  0  0  0  0
 21 22  1  0  0  0  0
 22 23  1  0  0  0  0
  1  3  1  0  0  0  0
  1  7  1  0  0  0  0
  1  2  2  0  0  0  0
 36 37  1  0  0  0  0
 37 45  1  0  0  0  0
 37 38  2  0  0  0  0
  8  9  1  0  0  0  0
  9 17  1  0  0  0  0
  9 10  2  0  0  0  0
 18 19  1  0  0  0  0
 19 35  1  0  0  0  0
 19 20  2  0  0  0  0
 36 39  1  0  0  0  0
  8 11  1  0  0  0  0
 45 46  1  0  0  0  0
 18 21  1  0  0  0  0
 35 36  1  0  0  0  0
  7  8  1  0  0  0  0
 17 18  1  0  0  0  0
 24 32  1  0  0  0  0
 25 33  1  0  0  0  0
  3  4  1  0  0  0  0
  3  5  1  0  0  0  0
  3  6  1  0  0  0  0
 39 42  1  0  0  0  0
 39 43  1  0  0  0  0
 39 44  1  0  0  0  0
 11 14  1  0  0  0  0
 11 15  1  0  0  0  0
 11 16  1  0  0  0  0
 46 48  1  0  0  0  0
 46 49  1  0  0  0  0
 46 50  1  0  0  0  0
 21 29  1  0  0  0  0
 21 30  1  0  0  0  0
 36 41  1  0  0  0  0
  8 13  1  0  0  0  0
 18 28  1  0  0  0  0
 26 34  1  0  0  0  0
 23 31  1  0  0  0  0
 45 47  1  0  0  0  0
  7 12  1  0  0  0  0
 35 40  1  0  0  0  0
 17 27  1  0  0  0  0
M  CHG  1  23   1
M  END
$$$$

  -OEChem-05262214473D

 50 50  0     1  0  0  0  0  0999 V2000
   -1.6938    0.4865    3.8080 C   0  0  0  0  0  0  0  0  0  0  0  0
   -0.7464   -0.1282    3.3323 O   0  0  0  0  0  0  0  0  0  0  0  0
   -2.1257    0.2041    5.2087 C   0  0  0  0  0  0  0  0  0  0  0  0
   -2.8853   -0.5922    5.2621 H   0  0  0  0  0  0  0  0  0  0  0  0
   -1.2944   -0.1435    5.8430 H   0  0  0  0  0  0  0  0  0  0  0  0
   -2.5637    1.0590    5.7483 H   0  0  0  0  0  0  0  0  0  0  0  0
   -2.4435    1.4589    3.1669 N   0  0  0  0  0  0  0  0  0  0  0  0
   -2.1966    1.8850    1.8145 C   0  0  2  0  0  0  0  0  0  0  0  0
   -0.8617    1.2996    1.3733 C   0  0  0  0  0  0  0  0  0  0  0  0
    0.0104    0.9468    2.1646 O   0  0  0  0  0  0  0  0  0  0  0  0
   -2.1879    3.4017    1.7050 C   0  0  0  0  0  0  0  0  0  0  0  0
   -3.2085    1.8948    3.6787 H   0  0  0  0  0  0  0  0  0  0  0  0
   -3.0007    1.4665    1.1994 H   0  0  0  0  0  0  0  0  0  0  0  0
   -1.3888    3.8390    2.3147 H   0  0  0  0  0  0  0  0  0  0  0  0
   -2.0284    3.7240    0.6708 H   0  0  0  0  0  0  0  0  0  0  0  0
   -3.1380    3.8230    2.0508 H   0  0  0  0  0  0  0  0  0  0  0  0
   -0.7390    1.2565   -0.0101 N   0  0  0  0  0  0  0  0  0  0  0  0
    0.4383    0.7557   -0.6738 C   0  0  2  0  0  0  0  0  0  0  0  0
    0.4105   -0.7640   -0.5558 C   0  0  0  0  0  0  0  0  0  0  0  0
    0.1026   -1.3492    0.4804 O   0  0  0  0  0  0  0  0  0  0  0  0
    1.7289    1.3141   -0.0632 C   0  0  0  0  0  0  0  0  0  0  0  0
    1.8518    2.8095   -0.2253 C   0  0  0  0  0  0  0  0  0  0  0  0
    2.1757    3.3847   -1.4305 N   0  3  0  0  0  0  0  0  0  0  0  0
    1.6954    3.8310    0.6686 C   0  0  0  0  0  0  0  0  0  0  0  0
    2.2198    4.7137   -1.2926 C   0  0  0  0  0  0  0  0  0  0  0  0
    1.9294    4.9976   -0.0188 N   0  0  0  0  0  0  0  0  0  0  0  0
   -1.5221    1.5532   -0.5874 H   0  0  0  0  0  0  0  0  0  0  0  0
    0.3445    1.0354   -1.7297 H   0  0  0  0  0  0  0  0  0  0  0  0
    2.6042    0.8211   -0.5074 H   0  0  0  0  0  0  0  0  0  0  0  0
    1.7792    1.0792    1.0083 H   0  0  0  0  0  0  0  0  0  0  0  0
    2.3560    2.8820   -2.2952 H   0  0  0  0  0  0  0  0  0  0  0  0
    1.4504    3.9111    1.7089 H   0  0  0  0  0  0  0  0  0  0  0  0
    2.4487    5.4264   -2.0672 H   0  0  0  0  0  0  0  0  0  0  0  0
    1.8894    5.9325    0.3773 H   0  0  0  0  0  0  0  0  0  0  0  0
    0.7214   -1.3843   -1.7579 N   0  0  0  0  0  0  0  0  0  0  0  0
    0.7445   -2.8193   -1.9277 C   0  0  2  0  0  0  0  0  0  0  0  0
    1.5851   -3.4124   -0.8047 C   0  0  0  0  0  0  0  0  0  0  0  0
    2.4317   -2.7684   -0.1886 O   0  0  0  0  0  0  0  0  0  0  0  0
    1.3036   -3.2066   -3.2879 C   0  0  0  0  0  0  0  0  0  0  0  0
    0.9440   -0.8002   -2.5585 H   0  0  0  0  0  0  0  0  0  0  0  0
   -0.2904   -3.1657   -1.8322 H   0  0  0  0  0  0  0  0  0  0  0  0
    2.3398   -2.8679   -3.4021 H   0  0  0  0  0  0  0  0  0  0  0  0
    1.2939   -4.2928   -3.4262 H   0  0  0  0  0  0  0  0  0  0  0  0
    0.7155   -2.7549   -4.0940 H   0  0  0  0  0  0  0  0  0  0  0  0
    1.3089   -4.7571   -0.6004 N   0  0  0  0  0  0  0  0  0  0  0  0
    1.9847   -5.5483    0.4012 C   0  0  0  0  0  0  0  0  0  0  0  0
    0.5777   -5.2053   -1.1446 H   0  0  0  0  0  0  0  0  0  0  0  0
    2.8594   -6.0409   -0.0486 H   0  0  0  0  0  0  0  0  0  0  0  0
    2.3140   -4.8957    1.2232 H   0  0  0  0  0  0  0  0  0  0  0  0
    1.2954   -6.3111    0.7923 H   0  0  0  0  0  0  0  0  0  0  0  0
 22 24  2  0  0  0  0
 24 26  1  0  0  0  0
 25 26  1  0  0  0  0
 23 25  2  0  0  0  0
 21 22  1  0  0  0  0
 22 23  1  0  0  0  0
  1  3  1  0  0  0  0
  1  7  1  0  0  0  0
  1  2  2  0  0  0  0
 36 37  1  0  0  0  0
 37 45  1  0  0  0  0
 37 38  2  0  0  0  0
  8  9  1  0  0  0  0
  9 17  1  0  0  0  0
  9 10  2  0  0  0  0
 18 19  1  0  0  0  0
 19 35  1  0  0  0  0
 19 20  2  0  0  0  0
 36 39  1  0  0  0  0
  8 11  1  0  0  0  0
 45 46  1  0  0  0  0
 18 21  1  0  0  0  0
 35 36  1  0  0  0  0
  7  8  1  0  0  0  0
 17 18  1  0  0  0  0
 24 32  1  0  0  0  0
 25 33  1  0  0  0  0
  3  4  1  0  0  0  0
  3  5  1  0  0  0  0
  3  6  1  0  0  0  0
 39 42  1  0  0  0  0
 39 43  1  0  0  0  0
 39 44  1  0  0  0  0
 11 14  1  0  0  0  0
 11 15  1  0  0  0  0
 11 16  1  0  0  0  0
 46 48  1  0  0  0  0
 46 49  1  0  0  0  0
 46 50  1  0  0  0  0
 21 29  1  0  0  0  0
 21 30  1  0  0  0  0
 36 41  1  0  0  0  0
  8 13  1  0  0  0  0
 18 28  1  0  0  0  0
 26 34  1  0  0  0  0
 23 31  1  0  0  0  0
 45 47  1  0  0  0  0
  7 12  1  0  0  0  0
 35 40  1  0  0  0  0
 17 27  1  0  0  0  0
M  CHG  1  23   1
M  END
$$$$

  -OEChem-05262214473D

 50 50  0     1  0  0  0  0  0999 V2000
   -1.6938    0.4865    3.8080 C   0  0  0  0  0  0  0  0  0  0  0  0
   -0.7464   -0.1282    3.3323 O   0  0  0  0  0  0  0  0  0  0  0  0
   -2.1257    0.2041    5.2087 C   0  0  0  0  0  0  0  0  0  0  0  0
   -2.8853   -0.5922    5.2621 H   0  0  0  0  0  0  0  0  0  0  0  0
   -1.2944   -0.1435    5.8430 H   0  0  0  0  0  0  0  0  0  0  0  0
   -2.5637    1.0590    5.7483 H   0  0  0  0  0  0  0  0  0  0  0  0
   -2.4435    1.4589    3.1669 N   0  0  0  0  0  0  0  0  0  0  0  0
   -2.1966    1.8850    1.8145 C   0  0  2  0  0  0  0  0  0  0  0  0
   -0.8617    1.2996    1.3733 C   0  0  0  0  0  0  0  0  0  0  0  0
    0.0104    0.9468    2.1646 O   0  0  0  0  0  0  0  0  0  0  0  0
   -2.1879    3.4017    1.7050 C   0  0  0  0  0  0  0  0  0  0  0  0
   -3.2085    1.8948    3.6787 H   0  0  0  0  0  0  0  0  0  0  0  0
   -3.0007    1.4665    1.1994 H   0  0  0  0  0  0  0  0  0  0  0  0
   -1.3888    3.8390    2.3147 H   0  0  0  0  0  0  0  0  0  0  0  0
   -2.0284    3.7240    0.6708 H   0  0  0  0  0  0  0  0  0  0  0  0
   -3.1380    3.8230    2.0508 H   0  0  0  0  0  0  0  0  0  0  0  0
   -0.7390    1.2565   -0.0101 N   0  0  0  0  0  0  0  0  0  0  0  0
    0.4383    0.7557   -0.6738 C   0  0  2  0  0  0  0  0  0  0  0  0
    0.4105   -0.7640   -0.5558 C   0  0  0  0  0  0  0  0  0  0  0  0
   -0.1429   -1.3532    0.3702 O   0  0  0  0  0  0  0  0  0  0  0  0
    1.7289    1.3141   -0.0632 C   0  0  0  0  0  0  0  0  0  0  0  0
    1.8518    2.8095   -0.2253 C   0  0  0  0  0  0  0  0  0  0  0  0
    2.1757    3.3847   -1.4305 N   0  3  0  0  0  0  0  0  0  0  0  0
    1.6954    3.8310    0.6686 C   0  0  0  0  0  0  0  0  0  0  0  0
    2.2198    4.7137   -1.2926 C   0  0  0  0  0  0  0  0  0  0  0  0
    1.9294    4.9976   -0.0188 N   0  0  0  0  0  0  0  0  0  0  0  0
   -1.5221    1.5532   -0.5874 H   0  0  0  0  0  0  0  0  0  0  0  0
    0.3445    1.0354   -1.7297 H   0  0  0  0  0  0  0  0  0  0  0  0
    2.6042    0.8211   -0.5074 H   0  0  0  0  0  0  0  0  0  0  0  0
    1.7792    1.0792    1.0083 H   0  0  0  0  0  0  0  0  0  0  0  0
    2.3560    2.8820   -2.2952 H   0  0  0  0  0  0  0  0  0  0  0  0
    1.4504    3.9111    1.7089 H   0  0  0  0  0  0  0  0  0  0  0  0
    2.4487    5.4264   -2.0672 H   0  0  0  0  0  0  0  0  0  0  0  0
    1.8894    5.9325    0.3773 H   0  0  0  0  0  0  0  0  0  0  0  0
    1.0331   -1.3802   -1.6324 N   0  0  0  0  0  0  0  0  0  0  0  0
    1.1270   -2.8148   -1.7800 C   0  0  2  0  0  0  0  0  0  0  0  0
    1.6607   -3.3881   -0.4738 C   0  0  0  0  0  0  0  0  0  0  0  0
    2.3070   -2.7254    0.3351 O   0  0  0  0  0  0  0  0  0  0  0  0
    2.0256   -3.1934   -2.9470 C   0  0  0  0  0  0  0  0  0  0  0  0
    1.4434   -0.7933   -2.3528 H   0  0  0  0  0  0  0  0  0  0  0  0
    0.1095   -3.1824   -1.9521 H   0  0  0  0  0  0  0  0  0  0  0  0
    3.0494   -2.8335   -2.7926 H   0  0  0  0  0  0  0  0  0  0  0  0
    2.0730   -4.2798   -3.0752 H   0  0  0  0  0  0  0  0  0  0  0  0
    1.6568   -2.7555   -3.8809 H   0  0  0  0  0  0  0  0  0  0  0  0
    1.3674   -4.7377   -0.3378 N   0  0  0  0  0  0  0  0  0  0  0  0
    1.7770   -5.5128    0.8101 C   0  0  0  0  0  0  0  0  0  0  0  0
    0.8102   -5.2021   -1.0488 H   0  0  0  0  0  0  0  0  0  0  0  0
    2.7476   -5.9881    0.6047 H   0  0  0  0  0  0  0  0  0  0  0  0
    1.8703   -4.8517    1.6843 H   0  0  0  0  0  0  0  0  0  0  0  0
    1.0250   -6.2888    1.0157 H   0  0  0  0  0  0  0  0  0  0  0  0
 22 24  2  0  0  0  0
 24 26  1  0  0  0  0
 25 26  1  0  0  0  0
 23 25  2  0  0  0  0
 21 22  1  0  0  0  0
 22 23  1  0  0  0  0
  1  3  1  0  0  0  0
  1  7  1  0  0  0  0
  1  2  2  0  0  0  0
 36 37  1  0  0  0  0
 37 45  1  0  0  0  0
 37 38  2  0  0  0  0
  8  9  1  0  0  0  0
  9 17  1  0  0  0  0
  9 10  2  0  0  0  0
 18 19  1  0  0  0  0
 19 35  1  0  0  0  0
 19 20  2  0  0  0  0
 36 39  1  0  0  0  0
  8 11  1  0  0  0  0
 45 46  1  0  0  0  0
 18 21  1  0  0  0  0
 35 36  1  0  0  0  0
  7  8  1  0  0  0  0
 17 18  1  0  0  0  0
 24 32  1  0  0  0  0
 25 33  1  0  0  0  0
  3  4  1  0  0  0  0
  3  5  1  0  0  0  0
  3  6  1  0  0  0  0
 39 42  1  0  0  0  0
 39 43  1  0  0  0  0
 39 44  1  0  0  0  0
 11 14  1  0  0  0  0
 11 15  1  0  0  0  0
 11 16  1  0  0  0  0
 46 48  1  0  0  0  0
 46 49  1  0  0  0  0
 46 50  1  0  0  0  0
 21 29  1  0  0  0  0
 21 30  1  0  0  0  0
 36 41  1  0  0  0  0
  8 13  1  0  0  0  0
 18 28  1  0  0  0  0
 26 34  1  0  0  0  0
 23 31  1  0  0  0  0
 45 47  1  0  0  0  0
  7 12  1  0  0  0  0
 35 40  1  0  0  0  0
 17 27  1  0  0  0  0
M  CHG  1  23   1
M  END
$$$$

  -OEChem-05262214473D

 50 50  0     1  0  0  0  0  0999 V2000
   -1.6938    0.4865    3.8080 C   0  0  0  0  0  0  0  0  0  0  0  0
   -0.7464   -0.1282    3.3323 O   0  0  0  0  0  0  0  0  0  0  0  0
   -2.1257    0.2041    5.2087 C   0  0  0  0  0  0  0  0  0  0  0  0
   -2.8853   -0.5922    5.2621 H   0  0  0  0  0  0  0  0  0  0  0  0
   -1.2944   -0.1435    5.8430 H   0  0  0  0  0  0  0  0  0  0  0  0
   -2.5637    1.0590    5.7483 H   0  0  0  0  0  0  0  0  0  0  0  0
   -2.4435    1.4589    3.1669 N   0  0  0  0  0  0  0  0  0  0  0  0
   -2.1966    1.8850    1.8145 C   0  0  2  0  0  0  0  0  0  0  0  0
   -0.8617    1.2996    1.3733 C   0  0  0  0  0  0  0  0  0  0  0  0
    0.0104    0.9468    2.1646 O   0  0  0  0  0  0  0  0  0  0  0  0
   -2.1879    3.4017    1.7050 C   0  0  0  0  0  0  0  0  0  0  0  0
   -3.2085    1.8948    3.6787 H   0  0  0  0  0  0  0  0  0  0  0  0
   -3.0007    1.4665    1.1994 H   0  0  0  0  0  0  0  0  0  0  0  0
   -1.3888    3.8390    2.3147 H   0  0  0  0  0  0  0  0  0  0  0  0
   -2.0284    3.7240    0.6708 H   0  0  0  0  0  0  0  0  0  0  0  0
   -3.1380    3.8230    2.0508 H   0  0  0  0  0  0  0  0  0  0  0  0
   -0.7390    1.2565   -0.0101 N   0  0  0  0  0  0  0  0  0  0  0  0
    0.4383    0.7557   -0.6738 C   0  0  2  0  0  0  0  0  0  0  0  0
    0.4105   -0.7640   -0.5558 C   0  0  0  0  0  0  0  0  0  0  0  0
   -0.3516   -1.3626    0.2004 O   0  0  0  0  0  0  0  0  0  0  0  0
    1.7289    1.3141   -0.0632 C   0  0  0  0  0  0  0  0  0  0  0  0
    1.8518    2.8095   -0.2253 C   0  0  0  0  0  0  0  0  0  0  0  0
    2.1757    3.3847   -1.4305 N   0  3  0  0  0  0  0  0  0  0  0  0
    1.6954    3.8310    0.6686 C   0  0  0  0  0  0  0  0  0  0  0  0
    2.2198    4.7137   -1.2926 C   0  0  0  0  0  0  0  0  0  0  0  0
    1.9294    4.9976   -0.0188 N   0  0  0  0  0  0  0  0  0  0  0  0
   -1.5221    1.5532   -0.5874 H   0  0  0  0  0  0  0  0  0  0  0  0
    0.3445    1.0354   -1.7297 H   0  0  0  0  0  0  0  0  0  0  0  0
    2.6042    0.8211   -0.5074 H   0  0  0  0  0  0  0  0  0  0  0  0
    1.7792    1.0792    1.0083 H   0  0  0  0  0  0  0  0  0  0  0  0
    2.3560    2.8820   -2.2952 H   0  0  0  0  0  0  0  0  0  0  0  0
    1.4504    3.9111    1.7089 H   0  0  0  0  0  0  0  0  0  0  0  0
    2.4487    5.4264   -2.0672 H   0  0  0  0  0  0  0  0  0  0  0  0
    1.8894    5.9325    0.3773 H   0  0  0  0  0  0  0  0  0  0  0  0
    1.3017   -1.3695   -1.4308 N   0  0  0  0  0  0  0  0  0  0  0  0
    1.4583   -2.8022   -1.5386 C   0  0  2  0  0  0  0  0  0  0  0  0
    1.6479   -3.3615   -0.1348 C   0  0  0  0  0  0  0  0  0  0  0  0
    2.0506   -2.6840    0.8085 O   0  0  0  0  0  0  0  0  0  0  0  0
    2.6348   -3.1645   -2.4315 C   0  0  0  0  0  0  0  0  0  0  0  0
    1.8725   -0.7758   -2.0253 H   0  0  0  0  0  0  0  0  0  0  0  0
    0.5270   -3.1910   -1.9646 H   0  0  0  0  0  0  0  0  0  0  0  0
    3.5769   -2.7833   -2.0209 H   0  0  0  0  0  0  0  0  0  0  0  0
    2.7347   -4.2500   -2.5352 H   0  0  0  0  0  0  0  0  0  0  0  0
    2.5111   -2.7363   -3.4321 H   0  0  0  0  0  0  0  0  0  0  0  0
    1.3556   -4.7167   -0.0691 N   0  0  0  0  0  0  0  0  0  0  0  0
    1.4702   -5.4807    1.1512 C   0  0  0  0  0  0  0  0  0  0  0  0
    1.0099   -5.1940   -0.8964 H   0  0  0  0  0  0  0  0  0  0  0  0
    2.4699   -5.9363    1.2067 H   0  0  0  0  0  0  0  0  0  0  0  0
    1.3219   -4.8160    2.0151 H   0  0  0  0  0  0  0  0  0  0  0  0
    0.7058   -6.2716    1.1616 H   0  0  0  0  0  0  0  0  0  0  0  0
 22 24  2  0  0  0  0
 24 26  1  0  0  0  0
 25 26  1  0  0  0  0
 23 25  2  0  0  0  0
 21 22  1  0  0  0  0
 22 23  1  0  0  0  0
  1  3  1  0  0  0  0
  1  7  1  0  0  0  0
  1  2  2  0  0  0  0
 36 37  1  0  0  0  0
 37 45  1  0  0  0  0
 37 38  2  0  0  0  0
  8  9  1  0  0  0  0
  9 17  1  0  0  0  0
  9 10  2  0  0  0  0
 18 19  1  0  0  0  0
 19 35  1  0  0  0  0
 19 20  2  0  0  0  0
 36 39  1  0  0  0  0
  8 11  1  0  0  0  0
 45 46  1  0  0  0  0
 18 21  1  0  0  0  0
 35 36  1  0  0  0  0
  7  8  1  0  0  0  0
 17 18  1  0  0  0  0
 24 32  1  0  0  0  0
 25 33  1  0  0  0  0
  3  4  1  0  0  0  0
  3  5  1  0  0  0  0
  3  6  1  0  0  0  0
 39 42  1  0  0  0  0
 39 43  1  0  0  0  0
 39 44  1  0  0  0  0
 11 14  1  0  0  0  0
 11 15  1  0  0  0  0
 11 16  1  0  0  0  0
 46 48  1  0  0  0  0
 46 49  1  0  0  0  0
 46 50  1  0  0  0  0
 21 29  1  0  0  0  0
 21 30  1  0  0  0  0
 36 41  1  0  0  0  0
  8 13  1  0  0  0  0
 18 28  1  0  0  0  0
 26 34  1  0  0  0  0
 23 31  1  0  0  0  0
 45 47  1  0  0  0  0
  7 12  1  0  0  0  0
 35 40  1  0  0  0  0
 17 27  1  0  0  0  0
M  CHG  1  23   1
M  END
$$$$

  -OEChem-05262214473D

 50 50  0     1  0  0  0  0  0999 V2000
   -1.6938    0.4865    3.8080 C   0  0  0  0  0  0  0  0  0  0  0  0
   -0.7464   -0.1282    3.3323 O   0  0  0  0  0  0  0  0  0  0  0  0
   -2.1257    0.2041    5.2087 C   0  0  0  0  0  0  0  0  0  0  0  0
   -2.8853   -0.5922    5.2621 H   0  0  0  0  0  0  0  0  0  0  0  0
   -1.2944   -0.1435    5.8430 H   0  0  0  0  0  0  0  0  0  0  0  0
   -2.5637    1.0590    5.7483 H   0  0  0  0  0  0  0  0  0  0  0  0
   -2.4435    1.4589    3.1669 N   0  0  0  0  0  0  0  0  0  0  0  0
   -2.1966    1.8850    1.8145 C   0  0  2  0  0  0  0  0  0  0  0  0
   -0.8617    1.2996    1.3733 C   0  0  0  0  0  0  0  0  0  0  0  0
    0.0104    0.9468    2.1646 O   0  0  0  0  0  0  0  0  0  0  0  0
   -2.1879    3.4017    1.7050 C   0  0  0  0  0  0  0  0  0  0  0  0
   -3.2085    1.8948    3.6787 H   0  0  0  0  0  0  0  0  0  0  0  0
   -3.0007    1.4665    1.1994 H   0  0  0  0  0  0  0  0  0  0  0  0
   -1.3888    3.8390    2.3147 H   0  0  0  0  0  0  0  0  0  0  0  0
   -2.0284    3.7240    0.6708 H   0  0  0  0  0  0  0  0  0  0  0  0
   -3.1380    3.8230    2.0508 H   0  0  0  0  0  0  0  0  0  0  0  0
   -0.7390    1.2565   -0.0101 N   0  0  0  0  0  0  0  0  0  0  0  0
    0.4383    0.7557   -0.6738 C   0  0  2  0  0  0  0  0  0  0  0  0
    0.2323   -0.7392   -0.8907 C   0  0  0  0  0  0  0  0  0  0  0  0
   -0.7993   -1.3258   -0.5705 O   0  0  0  0  0  0  0  0  0  0  0  0
    1.7126    1.0053    0.1411 C   0  0  0  0  0  0  0  0  0  0  0  0
    2.0146    2.4735    0.3170 C   0  0  0  0  0  0  0  0  0  0  0  0
    2.5216    3.2379   -0.7060 N   0  3  0  0  0  0  0  0  0  0  0  0
    1.8800    3.3004    1.3964 C   0  0  0  0  0  0  0  0  0  0  0  0
    2.6967    4.4930   -0.2802 C   0  0  0  0  0  0  0  0  0  0  0  0
    2.3097    4.5434    0.9986 N   0  0  0  0  0  0  0  0  0  0  0  0
   -1.5221    1.5532   -0.5874 H   0  0  0  0  0  0  0  0  0  0  0  0
    0.4847    1.2566   -1.6479 H   0  0  0  0  0  0  0  0  0  0  0  0
    2.5697    0.5058   -0.3307 H   0  0  0  0  0  0  0  0  0  0  0  0
    1.6266    0.5503    1.1367 H   0  0  0  0  0  0  0  0  0  0  0  0
    2.7337    2.9052   -1.6426 H   0  0  0  0  0  0  0  0  0  0  0  0
    1.5396    3.1955    2.4073 H   0  0  0  0  0  0  0  0  0  0  0  0
    3.0806    5.3144   -0.8618 H   0  0  0  0  0  0  0  0  0  0  0  0
    2.3319    5.3739    1.5836 H   0  0  0  0  0  0  0  0  0  0  0  0
    1.3165   -1.3260   -1.5283 N   0  0  0  0  0  0  0  0  0  0  0  0
    1.3701   -2.7283   -1.8741 C   0  0  2  0  0  0  0  0  0  0  0  0
    0.9984   -3.5326   -0.6354 C   0  0  0  0  0  0  0  0  0  0  0  0
    1.1008   -3.0907    0.5070 O   0  0  0  0  0  0  0  0  0  0  0  0
    2.7483   -3.1203   -2.3835 C   0  0  0  0  0  0  0  0  0  0  0  0
    2.1124   -0.7404   -1.7637 H   0  0  0  0  0  0  0  0  0  0  0  0
    0.6187   -2.8904   -2.6546 H   0  0  0  0  0  0  0  0  0  0  0  0
    3.5144   -2.9647   -1.6151 H   0  0  0  0  0  0  0  0  0  0  0  0
    2.7792   -4.1762   -2.6719 H   0  0  0  0  0  0  0  0  0  0  0  0
    3.0265   -2.5200   -3.2565 H   0  0  0  0  0  0  0  0  0  0  0  0
    0.5797   -4.8171   -0.9535 N   0  0  0  0  0  0  0  0  0  0  0  0
    0.1846   -5.7789    0.0489 C   0  0  0  0  0  0  0  0  0  0  0  0
    0.5075   -5.0920   -1.9287 H   0  0  0  0  0  0  0  0  0  0  0  0
    1.0539   -6.3892    0.3350 H   0  0  0  0  0  0  0  0  0  0  0  0
   -0.1989   -5.2497    0.9337 H   0  0  0  0  0  0  0  0  0  0  0  0
   -0.6025   -6.4304   -0.3585 H   0  0  0  0  0  0  0  0  0  0  0  0
 22 24  2  0  0  0  0
 24 26  1  0  0  0  0
 25 26  1  0  0  0  0
 23 25  2  0  0  0  0
 21 22  1  0  0  0  0
 22 23  1  0  0  0  0
  1  3  1  0  0  0  0
  1  7  1  0  0  0  0
  1  2  2  0  0  0  0
 36 37  1  0  0  0  0
 37 45  1  0  0  0  0
 37 38  2  0  0  0  0
  8  9  1  0  0  0  0
  9 17  1  0  0  0  0
  9 10  2  0  0  0  0
 18 19  1  0  0  0  0
 19 35  1  0  0  0  0
 19 20  2  0  0  0  0
 36 39  1  0  0  0  0
  8 11  1  0  0  0  0
 45 46  1  0  0  0  0
 18 21  1  0  0  0  0
 35 36  1  0  0  0  0
  7  8  1  0  0  0  0
 17 18  1  0  0  0  0
 24 32  1  0  0  0  0
 25 33  1  0  0  0  0
  3  4  1  0  0  0  0
  3  5  1  0  0  0  0
  3  6  1  0  0  0  0
 39 42  1  0  0  0  0
 39 43  1  0  0  0  0
 39 44  1  0  0  0  0
 11 14  1  0  0  0  0
 11 15  1  0  0  0  0
 11 16  1  0  0  0  0
 46 48  1  0  0  0  0
 46 49  1  0  0  0  0
 46 50  1  0  0  0  0
 21 29  1  0  0  0  0
 21 30  1  0  0  0  0
 36 41  1  0  0  0  0
  8 13  1  0  0  0  0
 18 28  1  0  0  0  0
 26 34  1  0  0  0  0
 23 31  1  0  0  0  0
 45 47  1  0  0  0  0
  7 12  1  0  0  0  0
 35 40  1  0  0  0  0
 17 27  1  0  0  0  0
M  CHG  1  23   1
M  END
$$$$

  -OEChem-05262214473D

 50 50  0     1  0  0  0  0  0999 V2000
   -1.6938    0.4865    3.8080 C   0  0  0  0  0  0  0  0  0  0  0  0
   -0.7464   -0.1282    3.3323 O   0  0  0  0  0  0  0  0  0  0  0  0
   -2.1257    0.2041    5.2087 C   0  0  0  0  0  0  0  0  0  0  0  0
   -2.8853   -0.5922    5.2621 H   0  0  0  0  0  0  0  0  0  0  0  0
   -1.2944   -0.1435    5.8430 H   0  0  0  0  0  0  0  0  0  0  0  0
   -2.5637    1.0590    5.7483 H   0  0  0  0  0  0  0  0  0  0  0  0
   -2.4435    1.4589    3.1669 N   0  0  0  0  0  0  0  0  0  0  0  0
   -2.1966    1.8850    1.8145 C   0  0  2  0  0  0  0  0  0  0  0  0
   -0.8617    1.2996    1.3733 C   0  0  0  0  0  0  0  0  0  0  0  0
    0.0104    0.9468    2.1646 O   0  0  0  0  0  0  0  0  0  0  0  0
   -2.1879    3.4017    1.7050 C   0  0  0  0  0  0  0  0  0  0  0  0
   -3.2085    1.8948    3.6787 H   0  0  0  0  0  0  0  0  0  0  0  0
   -3.0007    1.4665    1.1994 H   0  0  0  0  0  0  0  0  0  0  0  0
   -1.3888    3.8390    2.3147 H   0  0  0  0  0  0  0  0  0  0  0  0
   -2.0284    3.7240    0.6708 H   0  0  0  0  0  0  0  0  0  0  0  0
   -3.1380    3.8230    2.0508 H   0  0  0  0  0  0  0  0  0  0  0  0
   -0.7390    1.2565   -0.0101 N   0  0  0  0  0  0  0  0  0  0  0  0
    0.4383    0.7557   -0.6738 C   0  0  2  0  0  0  0  0  0  0  0  0
    0.2323   -0.7392   -0.8907 C   0  0  0  0  0  0  0  0  0  0  0  0
   -0.8701   -1.2790   -0.8259 O   0  0  0  0  0  0  0  0  0  0  0  0
    1.7126    1.0053    0.1411 C   0  0  0  0  0  0  0  0  0  0  0  0
    2.0146    2.4735    0.3170 C   0  0  0  0  0  0  0  0  0  0  0  0
    2.5216    3.2379   -0.7060 N   0  3  0  0  0  0  0  0  0  0  0  0
    1.8800    3.3004    1.3964 C   0  0  0  0  0  0  0  0  0  0  0  0
    2.6967    4.4930   -0.2802 C   0  0  0  0  0  0  0  0  0  0  0  0
    2.3097    4.5434    0.9986 N   0  0  0  0  0  0  0  0  0  0  0  0
   -1.5221    1.5532   -0.5874 H   0  0  0  0  0  0  0  0  0  0  0  0
    0.4847    1.2566   -1.6479 H   0  0  0  0  0  0  0  0  0  0  0  0
    2.5697    0.5058   -0.3307 H   0  0  0  0  0  0  0  0  0  0  0  0
    1.6266    0.5503    1.1367 H   0  0  0  0  0  0  0  0  0  0  0  0
    2.7337    2.9052   -1.6426 H   0  0  0  0  0  0  0  0  0  0  0  0
    1.5396    3.1955    2.4073 H   0  0  0  0  0  0  0  0  0  0  0  0
    3.0806    5.3144   -0.8618 H   0  0  0  0  0  0  0  0  0  0  0  0
    2.3319    5.3739    1.5836 H   0  0  0  0  0  0  0  0  0  0  0  0
    1.4174   -1.3856   -1.2134 N   0  0  0  0  0  0  0  0  0  0  0  0
    1.4987   -2.8015   -1.4917 C   0  0  2  0  0  0  0  0  0  0  0  0
    0.7927   -3.5436   -0.3646 C   0  0  0  0  0  0  0  0  0  0  0  0
    0.6207   -3.0601    0.7524 O   0  0  0  0  0  0  0  0  0  0  0  0
    2.9436   -3.2578   -1.6215 C   0  0  0  0  0  0  0  0  0  0  0  0
    2.2704   -0.8359   -1.2562 H   0  0  0  0  0  0  0  0  0  0  0  0
    0.9634   -2.9702   -2.4324 H   0  0  0  0  0  0  0  0  0  0  0  0
    3.4960   -3.0966   -0.6885 H   0  0  0  0  0  0  0  0  0  0  0  0
    3.0028   -4.3247   -1.8605 H   0  0  0  0  0  0  0  0  0  0  0  0
    3.4582   -2.7020   -2.4127 H   0  0  0  0  0  0  0  0  0  0  0  0
    0.4154   -4.8254   -0.7397 N   0  0  0  0  0  0  0  0  0  0  0  0
   -0.2599   -5.7334    0.1577 C   0  0  0  0  0  0  0  0  0  0  0  0
    0.5811   -5.1364   -1.6924 H   0  0  0  0  0  0  0  0  0  0  0  0
    0.4826   -6.3596    0.6739 H   0  0  0  0  0  0  0  0  0  0  0  0
   -0.8327   -5.1574    0.8994 H   0  0  0  0  0  0  0  0  0  0  0  0
   -0.9446   -6.3749   -0.4166 H   0  0  0  0  0  0  0  0  0  0  0  0
 22 24  2  0  0  0  0
 24 26  1  0  0  0  0
 25 26  1  0  0  0  0
 23 25  2  0  0  0  0
 21 22  1  0  0  0  0
 22 23  1  0  0  0  0
  1  3  1  0  0  0  0
  1  7  1  0  0  0  0
  1  2  2  0  0  0  0
 36 37  1  0  0  0  0
 37 45  1  0  0  0  0
 37 38  2  0  0  0  0
  8  9  1  0  0  0  0
  9 17  1  0  0  0  0
  9 10  2  0  0  0  0
 18 19  1  0  0  0  0
 19 35  1  0  0  0  0
 19 20  2  0  0  0  0
 36 39  1  0  0  0  0
  8 11  1  0  0  0  0
 45 46  1  0  0  0  0
 18 21  1  0  0  0  0
 35 36  1  0  0  0  0
  7  8  1  0  0  0  0
 17 18  1  0  0  0  0
 24 32  1  0  0  0  0
 25 33  1  0  0  0  0
  3  4  1  0  0  0  0
  3  5  1  0  0  0  0
  3  6  1  0  0  0  0
 39 42  1  0  0  0  0
 39 43  1  0  0  0  0
 39 44  1  0  0  0  0
 11 14  1  0  0  0  0
 11 15  1  0  0  0  0
 11 16  1  0  0  0  0
 46 48  1  0  0  0  0
 46 49  1  0  0  0  0
 46 50  1  0  0  0  0
 21 29  1  0  0  0  0
 21 30  1  0  0  0  0
 36 41  1  0  0  0  0
  8 13  1  0  0  0  0
 18 28  1  0  0  0  0
 26 34  1  0  0  0  0
 23 31  1  0  0  0  0
 45 47  1  0  0  0  0
  7 12  1  0  0  0  0
 35 40  1  0  0  0  0
 17 27  1  0  0  0  0
M  CHG  1  23   1
M  END
$$$$

  -OEChem-05262214473D

 50 50  0     1  0  0  0  0  0999 V2000
   -1.6938    0.4865    3.8080 C   0  0  0  0  0  0  0  0  0  0  0  0
   -0.7464   -0.1282    3.3323 O   0  0  0  0  0  0  0  0  0  0  0  0
   -2.1257    0.2041    5.2087 C   0  0  0  0  0  0  0  0  0  0  0  0
   -2.8853   -0.5922    5.2621 H   0  0  0  0  0  0  0  0  0  0  0  0
   -1.2944   -0.1435    5.8430 H   0  0  0  0  0  0  0  0  0  0  0  0
   -2.5637    1.0590    5.7483 H   0  0  0  0  0  0  0  0  0  0  0  0
   -2.4435    1.4589    3.1669 N   0  0  0  0  0  0  0  0  0  0  0  0
   -2.1966    1.8850    1.8145 C   0  0  2  0  0  0  0  0  0  0  0  0
   -0.8617    1.2996    1.3733 C   0  0  0  0  0  0  0  0  0  0  0  0
    0.0104    0.9468    2.1646 O   0  0  0  0  0  0  0  0  0  0  0  0
   -2.1879    3.4017    1.7050 C   0  0  0  0  0  0  0  0  0  0  0  0
   -3.2085    1.8948    3.6787 H   0  0  0  0  0  0  0  0  0  0  0  0
   -3.0007    1.4665    1.1994 H   0  0  0  0  0  0  0  0  0  0  0  0
   -1.3888    3.8390    2.3147 H   0  0  0  0  0  0  0  0  0  0  0  0
   -2.0284    3.7240    0.6708 H   0  0  0  0  0  0  0  0  0  0  0  0
   -3.1380    3.8230    2.0508 H   0  0  0  0  0  0  0  0  0  0  0  0
   -0.7390    1.2565   -0.0101 N   0  0  0  0  0  0  0  0  0  0  0  0
    0.4383    0.7557   -0.6738 C   0  0  2  0  0  0  0  0  0  0  0  0
    0.2323   -0.7392   -0.8907 C   0  0  0  0  0  0  0  0  0  0  0  0
   -0.8720   -1.2401   -1.0922 O   0  0  0  0  0  0  0  0  0  0  0  0
    1.7126    1.0053    0.1411 C   0  0  0  0  0  0  0  0  0  0  0  0
    2.0146    2.4735    0.3170 C   0  0  0  0  0  0  0  0  0  0  0  0
    2.5216    3.2379   -0.7060 N   0  3  0  0  0  0  0  0  0  0  0  0
    1.8800    3.3004    1.3964 C   0  0  0  0  0  0  0  0  0  0  0  0
    2.6967    4.4930   -0.2802 C   0  0  0  0  0  0  0  0  0  0  0  0
    2.3097    4.5434    0.9986 N   0  0  0  0  0  0  0  0  0  0  0  0
   -1.5221    1.5532   -0.5874 H   0  0  0  0  0  0  0  0  0  0  0  0
    0.4847    1.2566   -1.6479 H   0  0  0  0  0  0  0  0  0  0  0  0
    2.5697    0.5058   -0.3307 H   0  0  0  0  0  0  0  0  0  0  0  0
    1.6266    0.5503    1.1367 H   0  0  0  0  0  0  0  0  0  0  0  0
    2.7337    2.9052   -1.6426 H   0  0  0  0  0  0  0  0  0  0  0  0
    1.5396    3.1955    2.4073 H   0  0  0  0  0  0  0  0  0  0  0  0
    3.0806    5.3144   -0.8618 H   0  0  0  0  0  0  0  0  0  0  0  0
    2.3319    5.3739    1.5836 H   0  0  0  0  0  0  0  0  0  0  0  0
    1.4327   -1.4358   -0.8815 N   0  0  0  0  0  0  0  0  0  0  0  0
    1.5232   -2.8636   -1.0870 C   0  0  2  0  0  0  0  0  0  0  0  0
    0.5248   -3.5371   -0.1548 C   0  0  0  0  0  0  0  0  0  0  0  0
    0.0959   -3.0044    0.8666 O   0  0  0  0  0  0  0  0  0  0  0  0
    2.9338   -3.3711   -0.8311 C   0  0  0  0  0  0  0  0  0  0  0  0
    2.2908   -0.9161   -0.7224 H   0  0  0  0  0  0  0  0  0  0  0  0
    1.2370   -3.0521   -2.1275 H   0  0  0  0  0  0  0  0  0  0  0  0
    3.2382   -3.1909    0.2064 H   0  0  0  0  0  0  0  0  0  0  0  0
    3.0074   -4.4480   -1.0148 H   0  0  0  0  0  0  0  0  0  0  0  0
    3.6545   -2.8641   -1.4817 H   0  0  0  0  0  0  0  0  0  0  0  0
    0.2022   -4.8200   -0.5746 N   0  0  0  0  0  0  0  0  0  0  0  0
   -0.7153   -5.6693    0.1484 C   0  0  0  0  0  0  0  0  0  0  0  0
    0.5906   -5.1738   -1.4440 H   0  0  0  0  0  0  0  0  0  0  0  0
   -0.1541   -6.2982    0.8553 H   0  0  0  0  0  0  0  0  0  0  0  0
   -1.4328   -5.0460    0.7022 H   0  0  0  0  0  0  0  0  0  0  0  0
   -1.2582   -6.3106   -0.5615 H   0  0  0  0  0  0  0  0  0  0  0  0
 22 24  2  0  0  0  0
 24 26  1  0  0  0  0
 25 26  1  0  0  0  0
 23 25  2  0  0  0  0
 21 22  1  0  0  0  0
 22 23  1  0  0  0  0
  1  3  1  0  0  0  0
  1  7  1  0  0  0  0
  1  2  2  0  0  0  0
 36 37  1  0  0  0  0
 37 45  1  0  0  0  0
 37 38  2  0  0  0  0
  8  9  1  0  0  0  0
  9 17  1  0  0  0  0
  9 10  2  0  0  0  0
 18 19  1  0  0  0  0
 19 35  1  0  0  0  0
 19 20  2  0  0  0  0
 36 39  1  0  0  0  0
  8 11  1  0  0  0  0
 45 46  1  0  0  0  0
 18 21  1  0  0  0  0
 35 36  1  0  0  0  0
  7  8  1  0  0  0  0
 17 18  1  0  0  0  0
 24 32  1  0  0  0  0
 25 33  1  0  0  0  0
  3  4  1  0  0  0  0
  3  5  1  0  0  0  0
  3  6  1  0  0  0  0
 39 42  1  0  0  0  0
 39 43  1  0  0  0  0
 39 44  1  0  0  0  0
 11 14  1  0  0  0  0
 11 15  1  0  0  0  0
 11 16  1  0  0  0  0
 46 48  1  0  0  0  0
 46 49  1  0  0  0  0
 46 50  1  0  0  0  0
 21 29  1  0  0  0  0
 21 30  1  0  0  0  0
 36 41  1  0  0  0  0
  8 13  1  0  0  0  0
 18 28  1  0  0  0  0
 26 34  1  0  0  0  0
 23 31  1  0  0  0  0
 45 47  1  0  0  0  0
  7 12  1  0  0  0  0
 35 40  1  0  0  0  0
 17 27  1  0  0  0  0
M  CHG  1  23   1
M  END
$$$$

  -OEChem-05262214473D

 50 50  0     1  0  0  0  0  0999 V2000
   -1.6938    0.4865    3.8080 C   0  0  0  0  0  0  0  0  0  0  0  0
   -0.7464   -0.1282    3.3323 O   0  0  0  0  0  0  0  0  0  0  0  0
   -2.1257    0.2041    5.2087 C   0  0  0  0  0  0  0  0  0  0  0  0
   -2.8853   -0.5922    5.2621 H   0  0  0  0  0  0  0  0  0  0  0  0
   -1.2944   -0.1435    5.8430 H   0  0  0  0  0  0  0  0  0  0  0  0
   -2.5637    1.0590    5.7483 H   0  0  0  0  0  0  0  0  0  0  0  0
   -2.4435    1.4589    3.1669 N   0  0  0  0  0  0  0  0  0  0  0  0
   -2.1966    1.8850    1.8145 C   0  0  2  0  0  0  0  0  0  0  0  0
   -0.8617    1.2996    1.3733 C   0  0  0  0  0  0  0  0  0  0  0  0
    0.0104    0.9468    2.1646 O   0  0  0  0  0  0  0  0  0  0  0  0
   -2.1879    3.4017    1.7050 C   0  0  0  0  0  0  0  0  0  0  0  0
   -3.2085    1.8948    3.6787 H   0  0  0  0  0  0  0  0  0  0  0  0
   -3.0007    1.4665    1.1994 H   0  0  0  0  0  0  0  0  0  0  0  0
   -1.3888    3.8390    2.3147 H   0  0  0  0  0  0  0  0  0  0  0  0
   -2.0284    3.7240    0.6708 H   0  0  0  0  0  0  0  0  0  0  0  0
   -3.1380    3.8230    2.0508 H   0  0  0  0  0  0  0  0  0  0  0  0
   -0.7390    1.2565   -0.0101 N   0  0  0  0  0  0  0  0  0  0  0  0
    0.4383    0.7557   -0.6738 C   0  0  2  0  0  0  0  0  0  0  0  0
    0.2323   -0.7392   -0.8907 C   0  0  0  0  0  0  0  0  0  0  0  0
   -0.8047   -1.2118   -1.3513 O   0  0  0  0  0  0  0  0  0  0  0  0
    1.7126    1.0053    0.1411 C   0  0  0  0  0  0  0  0  0  0  0  0
    2.0146    2.4735    0.3170 C   0  0  0  0  0  0  0  0  0  0  0  0
    2.5216    3.2379   -0.7060 N   0  3  0  0  0  0  0  0  0  0  0  0
    1.8800    3.3004    1.3964 C   0  0  0  0  0  0  0  0  0  0  0  0
    2.6967    4.4930   -0.2802 C   0  0  0  0  0  0  0  0  0  0  0  0
    2.3097    4.5434    0.9986 N   0  0  0  0  0  0  0  0  0  0  0  0
   -1.5221    1.5532   -0.5874 H   0  0  0  0  0  0  0  0  0  0  0  0
    0.4847    1.2566   -1.6479 H   0  0  0  0  0  0  0  0  0  0  0  0
    2.5697    0.5058   -0.3307 H   0  0  0  0  0  0  0  0  0  0  0  0
    1.6266    0.5503    1.1367 H   0  0  0  0  0  0  0  0  0  0  0  0
    2.7337    2.9052   -1.6426 H   0  0  0  0  0  0  0  0  0  0  0  0
    1.5396    3.1955    2.4073 H   0  0  0  0  0  0  0  0  0  0  0  0
    3.0806    5.3144   -0.8618 H   0  0  0  0  0  0  0  0  0  0  0  0
    2.3319    5.3739    1.5836 H   0  0  0  0  0  0  0  0  0  0  0  0
    1.3614   -1.4734   -0.5553 N   0  0  0  0  0  0  0  0  0  0  0  0
    1.4419   -2.9103   -0.6878 C   0  0  2  0  0  0  0  0  0  0  0  0
    0.2131   -3.5137   -0.0204 C   0  0  0  0  0  0  0  0  0  0  0  0
   -0.4380   -2.9272    0.8417 O   0  0  0  0  0  0  0  0  0  0  0  0
    2.7195   -3.4525   -0.0661 C   0  0  0  0  0  0  0  0  0  0  0  0
    2.1720   -0.9757   -0.1989 H   0  0  0  0  0  0  0  0  0  0  0  0
    1.4208   -3.1307   -1.7606 H   0  0  0  0  0  0  0  0  0  0  0  0
    2.7586   -3.2412    1.0087 H   0  0  0  0  0  0  0  0  0  0  0  0
    2.7927   -4.5378   -0.1924 H   0  0  0  0  0  0  0  0  0  0  0  0
    3.6018   -2.9953   -0.5270 H   0  0  0  0  0  0  0  0  0  0  0  0
   -0.0455   -4.8011   -0.4695 N   0  0  0  0  0  0  0  0  0  0  0  0
   -1.1504   -5.5910    0.0217 C   0  0  0  0  0  0  0  0  0  0  0  0
    0.5354   -5.2015   -1.2003 H   0  0  0  0  0  0  0  0  0  0  0  0
   -0.8129   -6.2090    0.8667 H   0  0  0  0  0  0  0  0  0  0  0  0
   -1.9584   -4.9233    0.3555 H   0  0  0  0  0  0  0  0  0  0  0  0
   -1.5219   -6.2421   -0.7833 H   0  0  0  0  0  0  0  0  0  0  0  0
 22 24  2  0  0  0  0
 24 26  1  0  0  0  0
 25 26  1  0  0  0  0
 23 25  2  0  0  0  0
 21 22  1  0  0  0  0
 22 23  1  0  0  0  0
  1  3  1  0  0  0  0
  1  7  1  0  0  0  0
  1  2  2  0  0  0  0
 36 37  1  0  0  0  0
 37 45  1  0  0  0  0
 37 38  2  0  0  0  0
  8  9  1  0  0  0  0
  9 17  1  0  0  0  0
  9 10  2  0  0  0  0
 18 19  1  0  0  0  0
 19 35  1  0  0  0  0
 19 20  2  0  0  0  0
 36 39  1  0  0  0  0
  8 11  1  0  0  0  0
 45 46  1  0  0  0  0
 18 21  1  0  0  0  0
 35 36  1  0  0  0  0
  7  8  1  0  0  0  0
 17 18  1  0  0  0  0
 24 32  1  0  0  0  0
 25 33  1  0  0  0  0
  3  4  1  0  0  0  0
  3  5  1  0  0  0  0
  3  6  1  0  0  0  0
 39 42  1  0  0  0  0
 39 43  1  0  0  0  0
 39 44  1  0  0  0  0
 11 14  1  0  0  0  0
 11 15  1  0  0  0  0
 11 16  1  0  0  0  0
 46 48  1  0  0  0  0
 46 49  1  0  0  0  0
 46 50  1  0  0  0  0
 21 29  1  0  0  0  0
 21 30  1  0  0  0  0
 36 41  1  0  0  0  0
  8 13  1  0  0  0  0
 18 28  1  0  0  0  0
 26 34  1  0  0  0  0
 23 31  1  0  0  0  0
 45 47  1  0  0  0  0
  7 12  1  0  0  0  0
 35 40  1  0  0  0  0
 17 27  1  0  0  0  0
M  CHG  1  23   1
M  END
$$$$

  -OEChem-05262214473D

 50 50  0     1  0  0  0  0  0999 V2000
   -1.6938    0.4865    3.8080 C   0  0  0  0  0  0  0  0  0  0  0  0
   -0.7464   -0.1282    3.3323 O   0  0  0  0  0  0  0  0  0  0  0  0
   -2.1257    0.2041    5.2087 C   0  0  0  0  0  0  0  0  0  0  0  0
   -2.8853   -0.5922    5.2621 H   0  0  0  0  0  0  0  0  0  0  0  0
   -1.2944   -0.1435    5.8430 H   0  0  0  0  0  0  0  0  0  0  0  0
   -2.5637    1.0590    5.7483 H   0  0  0  0  0  0  0  0  0  0  0  0
   -2.4435    1.4589    3.1669 N   0  0  0  0  0  0  0  0  0  0  0  0
   -2.1966    1.8850    1.8145 C   0  0  2  0  0  0  0  0  0  0  0  0
   -0.8617    1.2996    1.3733 C   0  0  0  0  0  0  0  0  0  0  0  0
    0.0104    0.9468    2.1646 O   0  0  0  0  0  0  0  0  0  0  0  0
   -2.1879    3.4017    1.7050 C   0  0  0  0  0  0  0  0  0  0  0  0
   -3.2085    1.8948    3.6787 H   0  0  0  0  0  0  0  0  0  0  0  0
   -3.0007    1.4665    1.1994 H   0  0  0  0  0  0  0  0  0  0  0  0
   -1.3888    3.8390    2.3147 H   0  0  0  0  0  0  0  0  0  0  0  0
   -2.0284    3.7240    0.6708 H   0  0  0  0  0  0  0  0  0  0  0  0
   -3.1380    3.8230    2.0508 H   0  0  0  0  0  0  0  0  0  0  0  0
   -0.7390    1.2565   -0.0101 N   0  0  0  0  0  0  0  0  0  0  0  0
    0.4383    0.7557   -0.6738 C   0  0  2  0  0  0  0  0  0  0  0  0
    0.2323   -0.7392   -0.8907 C   0  0  0  0  0  0  0  0  0  0  0  0
   -0.6729   -1.1960   -1.5855 O   0  0  0  0  0  0  0  0  0  0  0  0
    1.7126    1.0053    0.1411 C   0  0  0  0  0  0  0  0  0  0  0  0
    2.0146    2.4735    0.3170 C   0  0  0  0  0  0  0  0  0  0  0  0
    2.5216    3.2379   -0.7060 N   0  3  0  0  0  0  0  0  0  0  0  0
    1.8800    3.3004    1.3964 C   0  0  0  0  0  0  0  0  0  0  0  0
    2.6967    4.4930   -0.2802 C   0  0  0  0  0  0  0  0  0  0  0  0
    2.3097    4.5434    0.9986 N   0  0  0  0  0  0  0  0  0  0  0  0
   -1.5221    1.5532   -0.5874 H   0  0  0  0  0  0  0  0  0  0  0  0
    0.4847    1.2566   -1.6479 H   0  0  0  0  0  0  0  0  0  0  0  0
    2.5697    0.5058   -0.3307 H   0  0  0  0  0  0  0  0  0  0  0  0
    1.6266    0.5503    1.1367 H   0  0  0  0  0  0  0  0  0  0  0  0
    2.7337    2.9052   -1.6426 H   0  0  0  0  0  0  0  0  0  0  0  0
    1.5396    3.1955    2.4073 H   0  0  0  0  0  0  0  0  0  0  0  0
    3.0806    5.3144   -0.8618 H   0  0  0  0  0  0  0  0  0  0  0  0
    2.3319    5.3739    1.5836 H   0  0  0  0  0  0  0  0  0  0  0  0
    1.2084   -1.4955   -0.2570 N   0  0  0  0  0  0  0  0  0  0  0  0
    1.2604   -2.9385   -0.3211 C   0  0  2  0  0  0  0  0  0  0  0  0
   -0.1212   -3.4748    0.0296 C   0  0  0  0  0  0  0  0  0  0  0  0
   -0.9446   -2.8338    0.6794 O   0  0  0  0  0  0  0  0  0  0  0  0
    2.3154   -3.4966    0.6212 C   0  0  0  0  0  0  0  0  0  0  0  0
    1.9223   -1.0106    0.2787 H   0  0  0  0  0  0  0  0  0  0  0  0
    1.5024   -3.2005   -1.3569 H   0  0  0  0  0  0  0  0  0  0  0  0
    2.0899   -3.2441    1.6638 H   0  0  0  0  0  0  0  0  0  0  0  0
    2.3732   -4.5878    0.5506 H   0  0  0  0  0  0  0  0  0  0  0  0
    3.3037   -3.0868    0.3864 H   0  0  0  0  0  0  0  0  0  0  0  0
   -0.3107   -4.7701   -0.4315 N   0  0  0  0  0  0  0  0  0  0  0  0
   -1.5357   -5.5037   -0.2140 C   0  0  0  0  0  0  0  0  0  0  0  0
    0.4192   -5.2177   -0.9779 H   0  0  0  0  0  0  0  0  0  0  0  0
   -1.4489   -6.0983    0.7074 H   0  0  0  0  0  0  0  0  0  0  0  0
   -2.3735   -4.7975   -0.1170 H   0  0  0  0  0  0  0  0  0  0  0  0
   -1.7179   -6.1739   -1.0669 H   0  0  0  0  0  0  0  0  0  0  0  0
 22 24  2  0  0  0  0
 24 26  1  0  0  0  0
 25 26  1  0  0  0  0
 23 25  2  0  0  0  0
 21 22  1  0  0  0  0
 22 23  1  0  0  0  0
  1  3  1  0  0  0  0
  1  7  1  0  0  0  0
  1  2  2  0  0  0  0
 36 37  1  0  0  0  0
 37 45  1  0  0  0  0
 37 38  2  0  0  0  0
  8  9  1  0  0  0  0
  9 17  1  0  0  0  0
  9 10  2  0  0  0  0
 18 19  1  0  0  0  0
 19 35  1  0  0  0  0
 19 20  2  0  0  0  0
 36 39  1  0  0  0  0
  8 11  1  0  0  0  0
 45 46  1  0  0  0  0
 18 21  1  0  0  0  0
 35 36  1  0  0  0  0
  7  8  1  0  0  0  0
 17 18  1  0  0  0  0
 24 32  1  0  0  0  0
 25 33  1  0  0  0  0
  3  4  1  0  0  0  0
  3  5  1  0  0  0  0
  3  6  1  0  0  0  0
 39 42  1  0  0  0  0
 39 43  1  0  0  0  0
 39 44  1  0  0  0  0
 11 14  1  0  0  0  0
 11 15  1  0  0  0  0
 11 16  1  0  0  0  0
 46 48  1  0  0  0  0
 46 49  1  0  0  0  0
 46 50  1  0  0  0  0
 21 29  1  0  0  0  0
 21 30  1  0  0  0  0
 36 41  1  0  0  0  0
  8 13  1  0  0  0  0
 18 28  1  0  0  0  0
 26 34  1  0  0  0  0
 23 31  1  0  0  0  0
 45 47  1  0  0  0  0
  7 12  1  0  0  0  0
 35 40  1  0  0  0  0
 17 27  1  0  0  0  0
M  CHG  1  23   1
M  END
$$$$

  -OEChem-05262214473D

 50 50  0     1  0  0  0  0  0999 V2000
   -1.6938    0.4865    3.8080 C   0  0  0  0  0  0  0  0  0  0  0  0
   -0.7464   -0.1282    3.3323 O   0  0  0  0  0  0  0  0  0  0  0  0
   -2.1257    0.2041    5.2087 C   0  0  0  0  0  0  0  0  0  0  0  0
   -2.8853   -0.5922    5.2621 H   0  0  0  0  0  0  0  0  0  0  0  0
   -1.2944   -0.1435    5.8430 H   0  0  0  0  0  0  0  0  0  0  0  0
   -2.5637    1.0590    5.7483 H   0  0  0  0  0  0  0  0  0  0  0  0
   -2.4435    1.4589    3.1669 N   0  0  0  0  0  0  0  0  0  0  0  0
   -2.1966    1.8850    1.8145 C   0  0  2  0  0  0  0  0  0  0  0  0
   -0.8617    1.2996    1.3733 C   0  0  0  0  0  0  0  0  0  0  0  0
    0.0104    0.9468    2.1646 O   0  0  0  0  0  0  0  0  0  0  0  0
   -2.1879    3.4017    1.7050 C   0  0  0  0  0  0  0  0  0  0  0  0
   -3.2085    1.8948    3.6787 H   0  0  0  0  0  0  0  0  0  0  0  0
   -3.0007    1.4665    1.1994 H   0  0  0  0  0  0  0  0  0  0  0  0
   -1.3888    3.8390    2.3147 H   0  0  0  0  0  0  0  0  0  0  0  0
   -2.0284    3.7240    0.6708 H   0  0  0  0  0  0  0  0  0  0  0  0
   -3.1380    3.8230    2.0508 H   0  0  0  0  0  0  0  0  0  0  0  0
   -0.7390    1.2565   -0.0101 N   0  0  0  0  0  0  0  0  0  0  0  0
    0.4383    0.7557   -0.6738 C   0  0  2  0  0  0  0  0  0  0  0  0
    0.2323   -0.7392   -0.8907 C   0  0  0  0  0  0  0  0  0  0  0  0
   -0.4856   -1.1938   -1.7788 O   0  0  0  0  0  0  0  0  0  0  0  0
    1.7126    1.0053    0.1411 C   0  0  0  0  0  0  0  0  0  0  0  0
    2.0146    2.4735    0.3170 C   0  0  0  0  0  0  0  0  0  0  0  0
    2.5216    3.2379   -0.7060 N   0  3  0  0  0  0  0  0  0  0  0  0
    1.8800    3.3004    1.3964 C   0  0  0  0  0  0  0  0  0  0  0  0
    2.6967    4.4930   -0.2802 C   0  0  0  0  0  0  0  0  0  0  0  0
    2.3097    4.5434    0.9986 N   0  0  0  0  0  0  0  0  0  0  0  0
   -1.5221    1.5532   -0.5874 H   0  0  0  0  0  0  0  0  0  0  0  0
    0.4847    1.2566   -1.6479 H   0  0  0  0  0  0  0  0  0  0  0  0
    2.5697    0.5058   -0.3307 H   0  0  0  0  0  0  0  0  0  0  0  0
    1.6266    0.5503    1.1367 H   0  0  0  0  0  0  0  0  0  0  0  0
    2.7337    2.9052   -1.6426 H   0  0  0  0  0  0  0  0  0  0  0  0
    1.5396    3.1955    2.4073 H   0  0  0  0  0  0  0  0  0  0  0  0
    3.0806    5.3144   -0.8618 H   0  0  0  0  0  0  0  0  0  0  0  0
    2.3319    5.3739    1.5836 H   0  0  0  0  0  0  0  0  0  0  0  0
    0.9841   -1.5009   -0.0070 N   0  0  0  0  0  0  0  0  0  0  0  0
    0.9909   -2.9462   -0.0121 C   0  0  2  0  0  0  0  0  0  0  0  0
   -0.4554   -3.4232   -0.0084 C   0  0  0  0  0  0  0  0  0  0  0  0
   -1.3892   -2.7306    0.3909 O   0  0  0  0  0  0  0  0  0  0  0  0
    1.7491   -3.5002    1.1842 C   0  0  0  0  0  0  0  0  0  0  0  0
    1.5585   -1.0183    0.6778 H   0  0  0  0  0  0  0  0  0  0  0  0
    1.4762   -3.2568   -0.9437 H   0  0  0  0  0  0  0  0  0  0  0  0
    1.2776   -3.1993    2.1268 H   0  0  0  0  0  0  0  0  0  0  0  0
    1.7777   -4.5946    1.1635 H   0  0  0  0  0  0  0  0  0  0  0  0
    2.7807   -3.1322    1.1962 H   0  0  0  0  0  0  0  0  0  0  0  0
   -0.5754   -4.7290   -0.4631 N   0  0  0  0  0  0  0  0  0  0  0  0
   -1.8448   -5.4134   -0.5424 C   0  0  0  0  0  0  0  0  0  0  0  0
    0.2499   -5.2214   -0.7921 H   0  0  0  0  0  0  0  0  0  0  0  0
   -2.0187   -5.9734    0.3883 H   0  0  0  0  0  0  0  0  0  0  0  0
   -2.6499   -4.6773   -0.6832 H   0  0  0  0  0  0  0  0  0  0  0  0
   -1.8327   -6.1108   -1.3930 H   0  0  0  0  0  0  0  0  0  0  0  0
 22 24  2  0  0  0  0
 24 26  1  0  0  0  0
 25 26  1  0  0  0  0
 23 25  2  0  0  0  0
 21 22  1  0  0  0  0
 22 23  1  0  0  0  0
  1  3  1  0  0  0  0
  1  7  1  0  0  0  0
  1  2  2  0  0  0  0
 36 37  1  0  0  0  0
 37 45  1  0  0  0  0
 37 38  2  0  0  0  0
  8  9  1  0  0  0  0
  9 17  1  0  0  0  0
  9 10  2  0  0  0  0
 18 19  1  0  0  0  0
 19 35  1  0  0  0  0
 19 20  2  0  0  0  0
 36 39  1  0  0  0  0
  8 11  1  0  0  0  0
 45 46  1  0  0  0  0
 18 21  1  0  0  0  0
 35 36  1  0  0  0  0
  7  8  1  0  0  0  0
 17 18  1  0  0  0  0
 24 32  1  0  0  0  0
 25 33  1  0  0  0  0
  3  4  1  0  0  0  0
  3  5  1  0  0  0  0
  3  6  1  0  0  0  0
 39 42  1  0  0  0  0
 39 43  1  0  0  0  0
 39 44  1  0  0  0  0
 11 14  1  0  0  0  0
 11 15  1  0  0  0  0
 11 16  1  0  0  0  0
 46 48  1  0  0  0  0
 46 49  1  0  0  0  0
 46 50  1  0  0  0  0
 21 29  1  0  0  0  0
 21 30  1  0  0  0  0
 36 41  1  0  0  0  0
  8 13  1  0  0  0  0
 18 28  1  0  0  0  0
 26 34  1  0  0  0  0
 23 31  1  0  0  0  0
 45 47  1  0  0  0  0
  7 12  1  0  0  0  0
 35 40  1  0  0  0  0
 17 27  1  0  0  0  0
M  CHG  1  23   1
M  END
$$$$

  -OEChem-05262214473D

 50 50  0     1  0  0  0  0  0999 V2000
   -1.6938    0.4865    3.8080 C   0  0  0  0  0  0  0  0  0  0  0  0
   -0.7464   -0.1282    3.3323 O   0  0  0  0  0  0  0  0  0  0  0  0
   -2.1257    0.2041    5.2087 C   0  0  0  0  0  0  0  0  0  0  0  0
   -2.8853   -0.5922    5.2621 H   0  0  0  0  0  0  0  0  0  0  0  0
   -1.2944   -0.1435    5.8430 H   0  0  0  0  0  0  0  0  0  0  0  0
   -2.5637    1.0590    5.7483 H   0  0  0  0  0  0  0  0  0  0  0  0
   -2.4435    1.4589    3.1669 N   0  0  0  0  0  0  0  0  0  0  0  0
   -2.1966    1.8850    1.8145 C   0  0  2  0  0  0  0  0  0  0  0  0
   -0.8617    1.2996    1.3733 C   0  0  0  0  0  0  0  0  0  0  0  0
    0.0104    0.9468    2.1646 O   0  0  0  0  0  0  0  0  0  0  0  0
   -2.1879    3.4017    1.7050 C   0  0  0  0  0  0  0  0  0  0  0  0
   -3.2085    1.8948    3.6787 H   0  0  0  0  0  0  0  0  0  0  0  0
   -3.0007    1.4665    1.1994 H   0  0  0  0  0  0  0  0  0  0  0  0
   -1.3888    3.8390    2.3147 H   0  0  0  0  0  0  0  0  0  0  0  0
   -2.0284    3.7240    0.6708 H   0  0  0  0  0  0  0  0  0  0  0  0
   -3.1380    3.8230    2.0508 H   0  0  0  0  0  0  0  0  0  0  0  0
   -0.7390    1.2565   -0.0101 N   0  0  0  0  0  0  0  0  0  0  0  0
    0.4383    0.7557   -0.6738 C   0  0  2  0  0  0  0  0  0  0  0  0
    0.2323   -0.7392   -0.8907 C   0  0  0  0  0  0  0  0  0  0  0  0
   -0.2556   -1.2053   -1.9181 O   0  0  0  0  0  0  0  0  0  0  0  0
    1.7126    1.0053    0.1411 C   0  0  0  0  0  0  0  0  0  0  0  0
    2.0146    2.4735    0.3170 C   0  0  0  0  0  0  0  0  0  0  0  0
    2.5216    3.2379   -0.7060 N   0  3  0  0  0  0  0  0  0  0  0  0
    1.8800    3.3004    1.3964 C   0  0  0  0  0  0  0  0  0  0  0  0
    2.6967    4.4930   -0.2802 C   0  0  0  0  0  0  0  0  0  0  0  0
    2.3097    4.5434    0.9986 N   0  0  0  0  0  0  0  0  0  0  0  0
   -1.5221    1.5532   -0.5874 H   0  0  0  0  0  0  0  0  0  0  0  0
    0.4847    1.2566   -1.6479 H   0  0  0  0  0  0  0  0  0  0  0  0
    2.5697    0.5058   -0.3307 H   0  0  0  0  0  0  0  0  0  0  0  0
    1.6266    0.5503    1.1367 H   0  0  0  0  0  0  0  0  0  0  0  0
    2.7337    2.9052   -1.6426 H   0  0  0  0  0  0  0  0  0  0  0  0
    1.5396    3.1955    2.4073 H   0  0  0  0  0  0  0  0  0  0  0  0
    3.0806    5.3144   -0.8618 H   0  0  0  0  0  0  0  0  0  0  0  0
    2.3319    5.3739    1.5836 H   0  0  0  0  0  0  0  0  0  0  0  0
    0.7038   -1.4891    0.1779 N   0  0  0  0  0  0  0  0  0  0  0  0
    0.6519   -2.9329    0.2183 C   0  0  2  0  0  0  0  0  0  0  0  0
   -0.7667   -3.3624   -0.1317 C   0  0  0  0  0  0  0  0  0  0  0  0
   -1.7417   -2.6247   -0.0043 O   0  0  0  0  0  0  0  0  0  0  0  0
    1.0590   -3.4631    1.5843 C   0  0  0  0  0  0  0  0  0  0  0  0
    1.1056   -0.9985    0.9714 H   0  0  0  0  0  0  0  0  0  0  0  0
    1.3439   -3.2958   -0.5494 H   0  0  0  0  0  0  0  0  0  0  0  0
    0.3771   -3.1099    2.3664 H   0  0  0  0  0  0  0  0  0  0  0  0
    1.0467   -4.5579    1.6047 H   0  0  0  0  0  0  0  0  0  0  0  0
    2.0682   -3.1285    1.8473 H   0  0  0  0  0  0  0  0  0  0  0  0
   -0.8216   -4.6807   -0.5623 N   0  0  0  0  0  0  0  0  0  0  0  0
   -2.0567   -5.3263   -0.9412 C   0  0  0  0  0  0  0  0  0  0  0  0
    0.0390   -5.2121   -0.6554 H   0  0  0  0  0  0  0  0  0  0  0  0
   -2.4836   -5.8430   -0.0689 H   0  0  0  0  0  0  0  0  0  0  0  0
   -2.7688   -4.5708   -1.3044 H   0  0  0  0  0  0  0  0  0  0  0  0
   -1.8585   -6.0570   -1.7392 H   0  0  0  0  0  0  0  0  0  0  0  0
 22 24  2  0  0  0  0
 24 26  1  0  0  0  0
 25 26  1  0  0  0  0
 23 25  2  0  0  0  0
 21 22  1  0  0  0  0
 22 23  1  0  0  0  0
  1  3  1  0  0  0  0
  1  7  1  0  0  0  0
  1  2  2  0  0  0  0
 36 37  1  0  0  0  0
 37 45  1  0  0  0  0
 37 38  2  0  0  0  0
  8  9  1  0  0  0  0
  9 17  1  0  0  0  0
  9 10  2  0  0  0  0
 18 19  1  0  0  0  0
 19 35  1  0  0  0  0
 19 20  2  0  0  0  0
 36 39  1  0  0  0  0
  8 11  1  0  0  0  0
 45 46  1  0  0  0  0
 18 21  1  0  0  0  0
 35 36  1  0  0  0  0
  7  8  1  0  0  0  0
 17 18  1  0  0  0  0
 24 32  1  0  0  0  0
 25 33  1  0  0  0  0
  3  4  1  0  0  0  0
  3  5  1  0  0  0  0
  3  6  1  0  0  0  0
 39 42  1  0  0  0  0
 39 43  1  0  0  0  0
 39 44  1  0  0  0  0
 11 14  1  0  0  0  0
 11 15  1  0  0  0  0
 11 16  1  0  0  0  0
 46 48  1  0  0  0  0
 46 49  1  0  0  0  0
 46 50  1  0  0  0  0
 21 29  1  0  0  0  0
 21 30  1  0  0  0  0
 36 41  1  0  0  0  0
  8 13  1  0  0  0  0
 18 28  1  0  0  0  0
 26 34  1  0  0  0  0
 23 31  1  0  0  0  0
 45 47  1  0  0  0  0
  7 12  1  0  0  0  0
 35 40  1  0  0  0  0
 17 27  1  0  0  0  0
M  CHG  1  23   1
M  END
$$$$

  -OEChem-05262214473D

 50 50  0     1  0  0  0  0  0999 V2000
   -1.6938    0.4865    3.8080 C   0  0  0  0  0  0  0  0  0  0  0  0
   -0.7464   -0.1282    3.3323 O   0  0  0  0  0  0  0  0  0  0  0  0
   -2.1257    0.2041    5.2087 C   0  0  0  0  0  0  0  0  0  0  0  0
   -2.8853   -0.5922    5.2621 H   0  0  0  0  0  0  0  0  0  0  0  0
   -1.2944   -0.1435    5.8430 H   0  0  0  0  0  0  0  0  0  0  0  0
   -2.5637    1.0590    5.7483 H   0  0  0  0  0  0  0  0  0  0  0  0
   -2.4435    1.4589    3.1669 N   0  0  0  0  0  0  0  0  0  0  0  0
   -2.1966    1.8850    1.8145 C   0  0  2  0  0  0  0  0  0  0  0  0
   -0.8617    1.2996    1.3733 C   0  0  0  0  0  0  0  0  0  0  0  0
    0.0104    0.9468    2.1646 O   0  0  0  0  0  0  0  0  0  0  0  0
   -2.1879    3.4017    1.7050 C   0  0  0  0  0  0  0  0  0  0  0  0
   -3.2085    1.8948    3.6787 H   0  0  0  0  0  0  0  0  0  0  0  0
   -3.0007    1.4665    1.1994 H   0  0  0  0  0  0  0  0  0  0  0  0
   -1.3888    3.8390    2.3147 H   0  0  0  0  0  0  0  0  0  0  0  0
   -2.0284    3.7240    0.6708 H   0  0  0  0  0  0  0  0  0  0  0  0
   -3.1380    3.8230    2.0508 H   0  0  0  0  0  0  0  0  0  0  0  0
   -0.7390    1.2565   -0.0101 N   0  0  0  0  0  0  0  0  0  0  0  0
    0.4383    0.7557   -0.6738 C   0  0  2  0  0  0  0  0  0  0  0  0
    0.2323   -0.7392   -0.8907 C   0  0  0  0  0  0  0  0  0  0  0  0
    0.0015   -1.2297   -1.9939 O   0  0  0  0  0  0  0  0  0  0  0  0
    1.7126    1.0053    0.1411 C   0  0  0  0  0  0  0  0  0  0  0  0
    2.0146    2.4735    0.3170 C   0  0  0  0  0  0  0  0  0  0  0  0
    2.5216    3.2379   -0.7060 N   0  3  0  0  0  0  0  0  0  0  0  0
    1.8800    3.3004    1.3964 C   0  0  0  0  0  0  0  0  0  0  0  0
    2.6967    4.4930   -0.2802 C   0  0  0  0  0  0  0  0  0  0  0  0
    2.3097    4.5434    0.9986 N   0  0  0  0  0  0  0  0  0  0  0  0
   -1.5221    1.5532   -0.5874 H   0  0  0  0  0  0  0  0  0  0  0  0
    0.4847    1.2566   -1.6479 H   0  0  0  0  0  0  0  0  0  0  0  0
    2.5697    0.5058   -0.3307 H   0  0  0  0  0  0  0  0  0  0  0  0
    1.6266    0.5503    1.1367 H   0  0  0  0  0  0  0  0  0  0  0  0
    2.7337    2.9052   -1.6426 H   0  0  0  0  0  0  0  0  0  0  0  0
    1.5396    3.1955    2.4073 H   0  0  0  0  0  0  0  0  0  0  0  0
    3.0806    5.3144   -0.8618 H   0  0  0  0  0  0  0  0  0  0  0  0
    2.3319    5.3739    1.5836 H   0  0  0  0  0  0  0  0  0  0  0  0
    0.3865   -1.4609    0.2848 N   0  0  0  0  0  0  0  0  0  0  0  0
    0.2665   -2.8995    0.3544 C   0  0  2  0  0  0  0  0  0  0  0  0
   -1.0338   -3.2966   -0.3319 C   0  0  0  0  0  0  0  0  0  0  0  0
   -1.9780   -2.5233   -0.4791 O   0  0  0  0  0  0  0  0  0  0  0  0
    0.2922   -3.3879    1.7943 C   0  0  0  0  0  0  0  0  0  0  0  0
    0.5943   -0.9524    1.1393 H   0  0  0  0  0  0  0  0  0  0  0  0
    1.1147   -3.3148   -0.2006 H   0  0  0  0  0  0  0  0  0  0  0  0
   -0.5502   -2.9821    2.3662 H   0  0  0  0  0  0  0  0  0  0  0  0
    0.2299   -4.4800    1.8440 H   0  0  0  0  0  0  0  0  0  0  0  0
    1.2150   -3.0758    2.2953 H   0  0  0  0  0  0  0  0  0  0  0  0
   -1.0324   -4.6284   -0.7222 N   0  0  0  0  0  0  0  0  0  0  0  0
   -2.1569   -5.2484   -1.3833 C   0  0  0  0  0  0  0  0  0  0  0  0
   -0.1989   -5.1907   -0.5772 H   0  0  0  0  0  0  0  0  0  0  0  0
   -2.8117   -5.7159   -0.6331 H   0  0  0  0  0  0  0  0  0  0  0  0
   -2.7221   -4.4852   -1.9384 H   0  0  0  0  0  0  0  0  0  0  0  0
   -1.7936   -6.0162   -2.0822 H   0  0  0  0  0  0  0  0  0  0  0  0
 22 24  2  0  0  0  0
 24 26  1  0  0  0  0
 25 26  1  0  0  0  0
 23 25  2  0  0  0  0
 21 22  1  0  0  0  0
 22 23  1  0  0  0  0
  1  3  1  0  0  0  0
  1  7  1  0  0  0  0
  1  2  2  0  0  0  0
 36 37  1  0  0  0  0
 37 45  1  0  0  0  0
 37 38  2  0  0  0  0
  8  9  1  0  0  0  0
  9 17  1  0  0  0  0
  9 10  2  0  0  0  0
 18 19  1  0  0  0  0
 19 35  1  0  0  0  0
 19 20  2  0  0  0  0
 36 39  1  0  0  0  0
  8 11  1  0  0  0  0
 45 46  1  0  0  0  0
 18 21  1  0  0  0  0
 35 36  1  0  0  0  0
  7  8  1  0  0  0  0
 17 18  1  0  0  0  0
 24 32  1  0  0  0  0
 25 33  1  0  0  0  0
  3  4  1  0  0  0  0
  3  5  1  0  0  0  0
  3  6  1  0  0  0  0
 39 42  1  0  0  0  0
 39 43  1  0  0  0  0
 39 44  1  0  0  0  0
 11 14  1  0  0  0  0
 11 15  1  0  0  0  0
 11 16  1  0  0  0  0
 46 48  1  0  0  0  0
 46 49  1  0  0  0  0
 46 50  1  0  0  0  0
 21 29  1  0  0  0  0
 21 30  1  0  0  0  0
 36 41  1  0  0  0  0
  8 13  1  0  0  0  0
 18 28  1  0  0  0  0
 26 34  1  0  0  0  0
 23 31  1  0  0  0  0
 45 47  1  0  0  0  0
  7 12  1  0  0  0  0
 35 40  1  0  0  0  0
 17 27  1  0  0  0  0
M  CHG  1  23   1
M  END
$$$$

  -OEChem-05262214473D

 50 50  0     1  0  0  0  0  0999 V2000
   -1.6938    0.4865    3.8080 C   0  0  0  0  0  0  0  0  0  0  0  0
   -0.7464   -0.1282    3.3323 O   0  0  0  0  0  0  0  0  0  0  0  0
   -2.1257    0.2041    5.2087 C   0  0  0  0  0  0  0  0  0  0  0  0
   -2.8853   -0.5922    5.2621 H   0  0  0  0  0  0  0  0  0  0  0  0
   -1.2944   -0.1435    5.8430 H   0  0  0  0  0  0  0  0  0  0  0  0
   -2.5637    1.0590    5.7483 H   0  0  0  0  0  0  0  0  0  0  0  0
   -2.4435    1.4589    3.1669 N   0  0  0  0  0  0  0  0  0  0  0  0
   -2.1966    1.8850    1.8145 C   0  0  2  0  0  0  0  0  0  0  0  0
   -0.8617    1.2996    1.3733 C   0  0  0  0  0  0  0  0  0  0  0  0
    0.0104    0.9468    2.1646 O   0  0  0  0  0  0  0  0  0  0  0  0
   -2.1879    3.4017    1.7050 C   0  0  0  0  0  0  0  0  0  0  0  0
   -3.2085    1.8948    3.6787 H   0  0  0  0  0  0  0  0  0  0  0  0
   -3.0007    1.4665    1.1994 H   0  0  0  0  0  0  0  0  0  0  0  0
   -1.3888    3.8390    2.3147 H   0  0  0  0  0  0  0  0  0  0  0  0
   -2.0284    3.7240    0.6708 H   0  0  0  0  0  0  0  0  0  0  0  0
   -3.1380    3.8230    2.0508 H   0  0  0  0  0  0  0  0  0  0  0  0
   -0.7390    1.2565   -0.0101 N   0  0  0  0  0  0  0  0  0  0  0  0
    0.4383    0.7557   -0.6738 C   0  0  2  0  0  0  0  0  0  0  0  0
    0.2323   -0.7392   -0.8907 C   0  0  0  0  0  0  0  0  0  0  0  0
    0.2682   -1.2654   -2.0009 O   0  0  0  0  0  0  0  0  0  0  0  0
    1.7126    1.0053    0.1411 C   0  0  0  0  0  0  0  0  0  0  0  0
    2.0146    2.4735    0.3170 C   0  0  0  0  0  0  0  0  0  0  0  0
    2.5216    3.2379   -0.7060 N   0  3  0  0  0  0  0  0  0  0  0  0
    1.8800    3.3004    1.3964 C   0  0  0  0  0  0  0  0  0  0  0  0
    2.6967    4.4930   -0.2802 C   0  0  0  0  0  0  0  0  0  0  0  0
    2.3097    4.5434    0.9986 N   0  0  0  0  0  0  0  0  0  0  0  0
   -1.5221    1.5532   -0.5874 H   0  0  0  0  0  0  0  0  0  0  0  0
    0.4847    1.2566   -1.6479 H   0  0  0  0  0  0  0  0  0  0  0  0
    2.5697    0.5058   -0.3307 H   0  0  0  0  0  0  0  0  0  0  0  0
    1.6266    0.5503    1.1367 H   0  0  0  0  0  0  0  0  0  0  0  0
    2.7337    2.9052   -1.6426 H   0  0  0  0  0  0  0  0  0  0  0  0
    1.5396    3.1955    2.4073 H   0  0  0  0  0  0  0  0  0  0  0  0
    3.0806    5.3144   -0.8618 H   0  0  0  0  0  0  0  0  0  0  0  0
    2.3319    5.3739    1.5836 H   0  0  0  0  0  0  0  0  0  0  0  0
    0.0540   -1.4182    0.3067 N   0  0  0  0  0  0  0  0  0  0  0  0
   -0.1392   -2.8483    0.3868 C   0  0  2  0  0  0  0  0  0  0  0  0
   -1.2386   -3.2301   -0.5954 C   0  0  0  0  0  0  0  0  0  0  0  0
   -2.0820   -2.4332   -1.0013 O   0  0  0  0  0  0  0  0  0  0  0  0
   -0.4989   -3.2797    1.8000 C   0  0  0  0  0  0  0  0  0  0  0  0
    0.0595   -0.8831    1.1701 H   0  0  0  0  0  0  0  0  0  0  0  0
    0.8040   -3.3125    0.0787 H   0  0  0  0  0  0  0  0  0  0  0  0
   -1.4412   -2.8245    2.1262 H   0  0  0  0  0  0  0  0  0  0  0  0
   -0.6169   -4.3664    1.8652 H   0  0  0  0  0  0  0  0  0  0  0  0
    0.2791   -2.9779    2.5096 H   0  0  0  0  0  0  0  0  0  0  0  0
   -1.1935   -4.5758   -0.9321 N   0  0  0  0  0  0  0  0  0  0  0  0
   -2.1387   -5.1849   -1.8384 C   0  0  0  0  0  0  0  0  0  0  0  0
   -0.4479   -5.1585   -0.5629 H   0  0  0  0  0  0  0  0  0  0  0  0
   -2.9808   -5.6008   -1.2658 H   0  0  0  0  0  0  0  0  0  0  0  0
   -2.5129   -4.4265   -2.5419 H   0  0  0  0  0  0  0  0  0  0  0  0
   -1.6424   -5.9912   -2.3983 H   0  0  0  0  0  0  0  0  0  0  0  0
 22 24  2  0  0  0  0
 24 26  1  0  0  0  0
 25 26  1  0  0  0  0
 23 25  2  0  0  0  0
 21 22  1  0  0  0  0
 22 23  1  0  0  0  0
  1  3  1  0  0  0  0
  1  7  1  0  0  0  0
  1  2  2  0  0  0  0
 36 37  1  0  0  0  0
 37 45  1  0  0  0  0
 37 38  2  0  0  0  0
  8  9  1  0  0  0  0
  9 17  1  0  0  0  0
  9 10  2  0  0  0  0
 18 19  1  0  0  0  0
 19 35  1  0  0  0  0
 19 20  2  0  0  0  0
 36 39  1  0  0  0  0
  8 11  1  0  0  0  0
 45 46  1  0  0  0  0
 18 21  1  0  0  0  0
 35 36  1  0  0  0  0
  7  8  1  0  0  0  0
 17 18  1  0  0  0  0
 24 32  1  0  0  0  0
 25 33  1  0  0  0  0
  3  4  1  0  0  0  0
  3  5  1  0  0  0  0
  3  6  1  0  0  0  0
 39 42  1  0  0  0  0
 39 43  1  0  0  0  0
 39 44  1  0  0  0  0
 11 14  1  0  0  0  0
 11 15  1  0  0  0  0
 11 16  1  0  0  0  0
 46 48  1  0  0  0  0
 46 49  1  0  0  0  0
 46 50  1  0  0  0  0
 21 29  1  0  0  0  0
 21 30  1  0  0  0  0
 36 41  1  0  0  0  0
  8 13  1  0  0  0  0
 18 28  1  0  0  0  0
 26 34  1  0  0  0  0
 23 31  1  0  0  0  0
 45 47  1  0  0  0  0
  7 12  1  0  0  0  0
 35 40  1  0  0  0  0
 17 27  1  0  0  0  0
M  CHG  1  23   1
M  END
$$$$

  -OEChem-05262214473D

 50 50  0     1  0  0  0  0  0999 V2000
   -1.6938    0.4865    3.8080 C   0  0  0  0  0  0  0  0  0  0  0  0
   -0.7464   -0.1282    3.3323 O   0  0  0  0  0  0  0  0  0  0  0  0
   -2.1257    0.2041    5.2087 C   0  0  0  0  0  0  0  0  0  0  0  0
   -2.8853   -0.5922    5.2621 H   0  0  0  0  0  0  0  0  0  0  0  0
   -1.2944   -0.1435    5.8430 H   0  0  0  0  0  0  0  0  0  0  0  0
   -2.5637    1.0590    5.7483 H   0  0  0  0  0  0  0  0  0  0  0  0
   -2.4435    1.4589    3.1669 N   0  0  0  0  0  0  0  0  0  0  0  0
   -2.1966    1.8850    1.8145 C   0  0  2  0  0  0  0  0  0  0  0  0
   -0.8617    1.2996    1.3733 C   0  0  0  0  0  0  0  0  0  0  0  0
    0.0104    0.9468    2.1646 O   0  0  0  0  0  0  0  0  0  0  0  0
   -2.1879    3.4017    1.7050 C   0  0  0  0  0  0  0  0  0  0  0  0
   -3.2085    1.8948    3.6787 H   0  0  0  0  0  0  0  0  0  0  0  0
   -3.0007    1.4665    1.1994 H   0  0  0  0  0  0  0  0  0  0  0  0
   -1.3888    3.8390    2.3147 H   0  0  0  0  0  0  0  0  0  0  0  0
   -2.0284    3.7240    0.6708 H   0  0  0  0  0  0  0  0  0  0  0  0
   -3.1380    3.8230    2.0508 H   0  0  0  0  0  0  0  0  0  0  0  0
   -0.7390    1.2565   -0.0101 N   0  0  0  0  0  0  0  0  0  0  0  0
    0.4383    0.7557   -0.6738 C   0  0  2  0  0  0  0  0  0  0  0  0
    0.2323   -0.7392   -0.8907 C   0  0  0  0  0  0  0  0  0  0  0  0
    0.5263   -1.3100   -1.9388 O   0  0  0  0  0  0  0  0  0  0  0  0
    1.7126    1.0053    0.1411 C   0  0  0  0  0  0  0  0  0  0  0  0
    2.0146    2.4735    0.3170 C   0  0  0  0  0  0  0  0  0  0  0  0
    2.5216    3.2379   -0.7060 N   0  3  0  0  0  0  0  0  0  0  0  0
    1.8800    3.3004    1.3964 C   0  0  0  0  0  0  0  0  0  0  0  0
    2.6967    4.4930   -0.2802 C   0  0  0  0  0  0  0  0  0  0  0  0
    2.3097    4.5434    0.9986 N   0  0  0  0  0  0  0  0  0  0  0  0
   -1.5221    1.5532   -0.5874 H   0  0  0  0  0  0  0  0  0  0  0  0
    0.4847    1.2566   -1.6479 H   0  0  0  0  0  0  0  0  0  0  0  0
    2.5697    0.5058   -0.3307 H   0  0  0  0  0  0  0  0  0  0  0  0
    1.6266    0.5503    1.1367 H   0  0  0  0  0  0  0  0  0  0  0  0
    2.7337    2.9052   -1.6426 H   0  0  0  0  0  0  0  0  0  0  0  0
    1.5396    3.1955    2.4073 H   0  0  0  0  0  0  0  0  0  0  0  0
    3.0806    5.3144   -0.8618 H   0  0  0  0  0  0  0  0  0  0  0  0
    2.3319    5.3739    1.5836 H   0  0  0  0  0  0  0  0  0  0  0  0
   -0.2712   -1.3640    0.2419 N   0  0  0  0  0  0  0  0  0  0  0  0
   -0.5373   -2.7827    0.3134 C   0  0  2  0  0  0  0  0  0  0  0  0
   -1.3671   -3.1676   -0.9043 C   0  0  0  0  0  0  0  0  0  0  0  0
   -2.0466   -2.3606   -1.5353 O   0  0  0  0  0  0  0  0  0  0  0  0
   -1.2606   -3.1458    1.6009 C   0  0  0  0  0  0  0  0  0  0  0  0
   -0.4623   -0.7955    1.0617 H   0  0  0  0  0  0  0  0  0  0  0  0
    0.4331   -3.2891    0.2696 H   0  0  0  0  0  0  0  0  0  0  0  0
   -2.2351   -2.6478    1.6627 H   0  0  0  0  0  0  0  0  0  0  0  0
   -1.4360   -4.2247    1.6668 H   0  0  0  0  0  0  0  0  0  0  0  0
   -0.6758   -2.8414    2.4757 H   0  0  0  0  0  0  0  0  0  0  0  0
   -1.2939   -4.5263   -1.1775 N   0  0  0  0  0  0  0  0  0  0  0  0
   -2.0033   -5.1401   -2.2757 C   0  0  0  0  0  0  0  0  0  0  0  0
   -0.6908   -5.1177   -0.6133 H   0  0  0  0  0  0  0  0  0  0  0  0
   -2.9793   -5.5056   -1.9239 H   0  0  0  0  0  0  0  0  0  0  0  0
   -2.1555   -4.3986   -3.0738 H   0  0  0  0  0  0  0  0  0  0  0  0
   -1.4151   -5.9836   -2.6662 H   0  0  0  0  0  0  0  0  0  0  0  0
 22 24  2  0  0  0  0
 24 26  1  0  0  0  0
 25 26  1  0  0  0  0
 23 25  2  0  0  0  0
 21 22  1  0  0  0  0
 22 23  1  0  0  0  0
  1  3  1  0  0  0  0
  1  7  1  0  0  0  0
  1  2  2  0  0  0  0
 36 37  1  0  0  0  0
 37 45  1  0  0  0  0
 37 38  2  0  0  0  0
  8  9  1  0  0  0  0
  9 17  1  0  0  0  0
  9 10  2  0  0  0  0
 18 19  1  0  0  0  0
 19 35  1  0  0  0  0
 19 20  2  0  0  0  0
 36 39  1  0  0  0  0
  8 11  1  0  0  0  0
 45 46  1  0  0  0  0
 18 21  1  0  0  0  0
 35 36  1  0  0  0  0
  7  8  1  0  0  0  0
 17 18  1  0  0  0  0
 24 32  1  0  0  0  0
 25 33  1  0  0  0  0
  3  4  1  0  0  0  0
  3  5  1  0  0  0  0
  3  6  1  0  0  0  0
 39 42  1  0  0  0  0
 39 43  1  0  0  0  0
 39 44  1  0  0  0  0
 11 14  1  0  0  0  0
 11 15  1  0  0  0  0
 11 16  1  0  0  0  0
 46 48  1  0  0  0  0
 46 49  1  0  0  0  0
 46 50  1  0  0  0  0
 21 29  1  0  0  0  0
 21 30  1  0  0  0  0
 36 41  1  0  0  0  0
  8 13  1  0  0  0  0
 18 28  1  0  0  0  0
 26 34  1  0  0  0  0
 23 31  1  0  0  0  0
 45 47  1  0  0  0  0
  7 12  1  0  0  0  0
 35 40  1  0  0  0  0
 17 27  1  0  0  0  0
M  CHG  1  23   1
M  END
$$$$

  -OEChem-05262214473D

 50 50  0     1  0  0  0  0  0999 V2000
   -1.6938    0.4865    3.8080 C   0  0  0  0  0  0  0  0  0  0  0  0
   -0.7464   -0.1282    3.3323 O   0  0  0  0  0  0  0  0  0  0  0  0
   -2.1257    0.2041    5.2087 C   0  0  0  0  0  0  0  0  0  0  0  0
   -2.8853   -0.5922    5.2621 H   0  0  0  0  0  0  0  0  0  0  0  0
   -1.2944   -0.1435    5.8430 H   0  0  0  0  0  0  0  0  0  0  0  0
   -2.5637    1.0590    5.7483 H   0  0  0  0  0  0  0  0  0  0  0  0
   -2.4435    1.4589    3.1669 N   0  0  0  0  0  0  0  0  0  0  0  0
   -2.1966    1.8850    1.8145 C   0  0  2  0  0  0  0  0  0  0  0  0
   -0.8617    1.2996    1.3733 C   0  0  0  0  0  0  0  0  0  0  0  0
    0.0104    0.9468    2.1646 O   0  0  0  0  0  0  0  0  0  0  0  0
   -2.1879    3.4017    1.7050 C   0  0  0  0  0  0  0  0  0  0  0  0
   -3.2085    1.8948    3.6787 H   0  0  0  0  0  0  0  0  0  0  0  0
   -3.0007    1.4665    1.1994 H   0  0  0  0  0  0  0  0  0  0  0  0
   -1.3888    3.8390    2.3147 H   0  0  0  0  0  0  0  0  0  0  0  0
   -2.0284    3.7240    0.6708 H   0  0  0  0  0  0  0  0  0  0  0  0
   -3.1380    3.8230    2.0508 H   0  0  0  0  0  0  0  0  0  0  0  0
   -0.7390    1.2565   -0.0101 N   0  0  0  0  0  0  0  0  0  0  0  0
    0.4383    0.7557   -0.6738 C   0  0  2  0  0  0  0  0  0  0  0  0
    0.2323   -0.7392   -0.8907 C   0  0  0  0  0  0  0  0  0  0  0  0
    0.7582   -1.3604   -1.8117 O   0  0  0  0  0  0  0  0  0  0  0  0
    1.7126    1.0053    0.1411 C   0  0  0  0  0  0  0  0  0  0  0  0
    2.0146    2.4735    0.3170 C   0  0  0  0  0  0  0  0  0  0  0  0
    2.5216    3.2379   -0.7060 N   0  3  0  0  0  0  0  0  0  0  0  0
    1.8800    3.3004    1.3964 C   0  0  0  0  0  0  0  0  0  0  0  0
    2.6967    4.4930   -0.2802 C   0  0  0  0  0  0  0  0  0  0  0  0
    2.3097    4.5434    0.9986 N   0  0  0  0  0  0  0  0  0  0  0  0
   -1.5221    1.5532   -0.5874 H   0  0  0  0  0  0  0  0  0  0  0  0
    0.4847    1.2566   -1.6479 H   0  0  0  0  0  0  0  0  0  0  0  0
    2.5697    0.5058   -0.3307 H   0  0  0  0  0  0  0  0  0  0  0  0
    1.6266    0.5503    1.1367 H   0  0  0  0  0  0  0  0  0  0  0  0
    2.7337    2.9052   -1.6426 H   0  0  0  0  0  0  0  0  0  0  0  0
    1.5396    3.1955    2.4073 H   0  0  0  0  0  0  0  0  0  0  0  0
    3.0806    5.3144   -0.8618 H   0  0  0  0  0  0  0  0  0  0  0  0
    2.3319    5.3739    1.5836 H   0  0  0  0  0  0  0  0  0  0  0  0
   -0.5669   -1.3019    0.0948 N   0  0  0  0  0  0  0  0  0  0  0  0
   -0.9008   -2.7074    0.1392 C   0  0  2  0  0  0  0  0  0  0  0  0
   -1.4106   -3.1133   -1.2374 C   0  0  0  0  0  0  0  0  0  0  0  0
   -1.8742   -2.3104   -2.0446 O   0  0  0  0  0  0  0  0  0  0  0  0
   -1.9408   -2.9954    1.2107 C   0  0  0  0  0  0  0  0  0  0  0  0
   -0.9355   -0.6954    0.8215 H   0  0  0  0  0  0  0  0  0  0  0  0
    0.0273   -3.2462    0.3591 H   0  0  0  0  0  0  0  0  0  0  0  0
   -2.8778   -2.4641    1.0073 H   0  0  0  0  0  0  0  0  0  0  0  0
   -2.1717   -4.0646    1.2623 H   0  0  0  0  0  0  0  0  0  0  0  0
   -1.5844   -2.6756    2.1958 H   0  0  0  0  0  0  0  0  0  0  0  0
   -1.3268   -4.4834   -1.4418 N   0  0  0  0  0  0  0  0  0  0  0  0
   -1.7598   -5.1171   -2.6652 C   0  0  0  0  0  0  0  0  0  0  0  0
   -0.9111   -5.0711   -0.7250 H   0  0  0  0  0  0  0  0  0  0  0  0
   -2.8074   -5.4366   -2.5625 H   0  0  0  0  0  0  0  0  0  0  0  0
   -1.6743   -4.4034   -3.4979 H   0  0  0  0  0  0  0  0  0  0  0  0
   -1.1273   -5.9941   -2.8676 H   0  0  0  0  0  0  0  0  0  0  0  0
 22 24  2  0  0  0  0
 24 26  1  0  0  0  0
 25 26  1  0  0  0  0
 23 25  2  0  0  0  0
 21 22  1  0  0  0  0
 22 23  1  0  0  0  0
  1  3  1  0  0  0  0
  1  7  1  0  0  0  0
  1  2  2  0  0  0  0
 36 37  1  0  0  0  0
 37 45  1  0  0  0  0
 37 38  2  0  0  0  0
  8  9  1  0  0  0  0
  9 17  1  0  0  0  0
  9 10  2  0  0  0  0
 18 19  1  0  0  0  0
 19 35  1  0  0  0  0
 19 20  2  0  0  0  0
 36 39  1  0  0  0  0
  8 11  1  0  0  0  0
 45 46  1  0  0  0  0
 18 21  1  0  0  0  0
 35 36  1  0  0  0  0
  7  8  1  0  0  0  0
 17 18  1  0  0  0  0
 24 32  1  0  0  0  0
 25 33  1  0  0  0  0
  3  4  1  0  0  0  0
  3  5  1  0  0  0  0
  3  6  1  0  0  0  0
 39 42  1  0  0  0  0
 39 43  1  0  0  0  0
 39 44  1  0  0  0  0
 11 14  1  0  0  0  0
 11 15  1  0  0  0  0
 11 16  1  0  0  0  0
 46 48  1  0  0  0  0
 46 49  1  0  0  0  0
 46 50  1  0  0  0  0
 21 29  1  0  0  0  0
 21 30  1  0  0  0  0
 36 41  1  0  0  0  0
  8 13  1  0  0  0  0
 18 28  1  0  0  0  0
 26 34  1  0  0  0  0
 23 31  1  0  0  0  0
 45 47  1  0  0  0  0
  7 12  1  0  0  0  0
 35 40  1  0  0  0  0
 17 27  1  0  0  0  0
M  CHG  1  23   1
M  END
$$$$

  -OEChem-05262214473D

 50 50  0     1  0  0  0  0  0999 V2000
   -1.6938    0.4865    3.8080 C   0  0  0  0  0  0  0  0  0  0  0  0
   -0.7464   -0.1282    3.3323 O   0  0  0  0  0  0  0  0  0  0  0  0
   -2.1257    0.2041    5.2087 C   0  0  0  0  0  0  0  0  0  0  0  0
   -2.8853   -0.5922    5.2621 H   0  0  0  0  0  0  0  0  0  0  0  0
   -1.2944   -0.1435    5.8430 H   0  0  0  0  0  0  0  0  0  0  0  0
   -2.5637    1.0590    5.7483 H   0  0  0  0  0  0  0  0  0  0  0  0
   -2.4435    1.4589    3.1669 N   0  0  0  0  0  0  0  0  0  0  0  0
   -2.1966    1.8850    1.8145 C   0  0  2  0  0  0  0  0  0  0  0  0
   -0.8617    1.2996    1.3733 C   0  0  0  0  0  0  0  0  0  0  0  0
    0.0104    0.9468    2.1646 O   0  0  0  0  0  0  0  0  0  0  0  0
   -2.1879    3.4017    1.7050 C   0  0  0  0  0  0  0  0  0  0  0  0
   -3.2085    1.8948    3.6787 H   0  0  0  0  0  0  0  0  0  0  0  0
   -3.0007    1.4665    1.1994 H   0  0  0  0  0  0  0  0  0  0  0  0
   -1.3888    3.8390    2.3147 H   0  0  0  0  0  0  0  0  0  0  0  0
   -2.0284    3.7240    0.6708 H   0  0  0  0  0  0  0  0  0  0  0  0
   -3.1380    3.8230    2.0508 H   0  0  0  0  0  0  0  0  0  0  0  0
   -0.7390    1.2565   -0.0101 N   0  0  0  0  0  0  0  0  0  0  0  0
    0.4383    0.7557   -0.6738 C   0  0  2  0  0  0  0  0  0  0  0  0
    0.2323   -0.7392   -0.8907 C   0  0  0  0  0  0  0  0  0  0  0  0
    0.9481   -1.4132   -1.6284 O   0  0  0  0  0  0  0  0  0  0  0  0
    1.7126    1.0053    0.1411 C   0  0  0  0  0  0  0  0  0  0  0  0
    2.0146    2.4735    0.3170 C   0  0  0  0  0  0  0  0  0  0  0  0
    2.5216    3.2379   -0.7060 N   0  3  0  0  0  0  0  0  0  0  0  0
    1.8800    3.3004    1.3964 C   0  0  0  0  0  0  0  0  0  0  0  0
    2.6967    4.4930   -0.2802 C   0  0  0  0  0  0  0  0  0  0  0  0
    2.3097    4.5434    0.9986 N   0  0  0  0  0  0  0  0  0  0  0  0
   -1.5221    1.5532   -0.5874 H   0  0  0  0  0  0  0  0  0  0  0  0
    0.4847    1.2566   -1.6479 H   0  0  0  0  0  0  0  0  0  0  0  0
    2.5697    0.5058   -0.3307 H   0  0  0  0  0  0  0  0  0  0  0  0
    1.6266    0.5503    1.1367 H   0  0  0  0  0  0  0  0  0  0  0  0
    2.7337    2.9052   -1.6426 H   0  0  0  0  0  0  0  0  0  0  0  0
    1.5396    3.1955    2.4073 H   0  0  0  0  0  0  0  0  0  0  0  0
    3.0806    5.3144   -0.8618 H   0  0  0  0  0  0  0  0  0  0  0  0
    2.3319    5.3739    1.5836 H   0  0  0  0  0  0  0  0  0  0  0  0
   -0.8129   -1.2362   -0.1244 N   0  0  0  0  0  0  0  0  0  0  0  0
   -1.2049   -2.6273   -0.1240 C   0  0  2  0  0  0  0  0  0  0  0  0
   -1.3660   -3.0709   -1.5720 C   0  0  0  0  0  0  0  0  0  0  0  0
   -1.5766   -2.2862   -2.4945 O   0  0  0  0  0  0  0  0  0  0  0  0
   -2.4933   -2.8388    0.6558 C   0  0  0  0  0  0  0  0  0  0  0  0
   -1.3281   -0.5897    0.4658 H   0  0  0  0  0  0  0  0  0  0  0  0
   -0.3858   -3.1866    0.3410 H   0  0  0  0  0  0  0  0  0  0  0  0
   -3.3255   -2.2860    0.2048 H   0  0  0  0  0  0  0  0  0  0  0  0
   -2.7737   -3.8970    0.6793 H   0  0  0  0  0  0  0  0  0  0  0  0
   -2.3849   -2.4917    1.6890 H   0  0  0  0  0  0  0  0  0  0  0  0
   -1.2899   -4.4501   -1.7069 N   0  0  0  0  0  0  0  0  0  0  0  0
   -1.4249   -5.1175   -2.9805 C   0  0  0  0  0  0  0  0  0  0  0  0
   -1.0938   -5.0219   -0.8906 H   0  0  0  0  0  0  0  0  0  0  0  0
   -2.4767   -5.3987   -3.1381 H   0  0  0  0  0  0  0  0  0  0  0  0
   -1.1020   -4.4406   -3.7852 H   0  0  0  0  0  0  0  0  0  0  0  0
   -0.7986   -6.0218   -2.9887 H   0  0  0  0  0  0  0  0  0  0  0  0
 22 24  2  0  0  0  0
 24 26  1  0  0  0  0
 25 26  1  0  0  0  0
 23 25  2  0  0  0  0
 21 22  1  0  0  0  0
 22 23  1  0  0  0  0
  1  3  1  0  0  0  0
  1  7  1  0  0  0  0
  1  2  2  0  0  0  0
 36 37  1  0  0  0  0
 37 45  1  0  0  0  0
 37 38  2  0  0  0  0
  8  9  1  0  0  0  0
  9 17  1  0  0  0  0
  9 10  2  0  0  0  0
 18 19  1  0  0  0  0
 19 35  1  0  0  0  0
 19 20  2  0  0  0  0
 36 39  1  0  0  0  0
  8 11  1  0  0  0  0
 45 46  1  0  0  0  0
 18 21  1  0  0  0  0
 35 36  1  0  0  0  0
  7  8  1  0  0  0  0
 17 18  1  0  0  0  0
 24 32  1  0  0  0  0
 25 33  1  0  0  0  0
  3  4  1  0  0  0  0
  3  5  1  0  0  0  0
  3  6  1  0  0  0  0
 39 42  1  0  0  0  0
 39 43  1  0  0  0  0
 39 44  1  0  0  0  0
 11 14  1  0  0  0  0
 11 15  1  0  0  0  0
 11 16  1  0  0  0  0
 46 48  1  0  0  0  0
 46 49  1  0  0  0  0
 46 50  1  0  0  0  0
 21 29  1  0  0  0  0
 21 30  1  0  0  0  0
 36 41  1  0  0  0  0
  8 13  1  0  0  0  0
 18 28  1  0  0  0  0
 26 34  1  0  0  0  0
 23 31  1  0  0  0  0
 45 47  1  0  0  0  0
  7 12  1  0  0  0  0
 35 40  1  0  0  0  0
 17 27  1  0  0  0  0
M  CHG  1  23   1
M  END
$$$$

  -OEChem-05262214473D

 50 50  0     1  0  0  0  0  0999 V2000
   -1.6938    0.4865    3.8080 C   0  0  0  0  0  0  0  0  0  0  0  0
   -0.7464   -0.1282    3.3323 O   0  0  0  0  0  0  0  0  0  0  0  0
   -2.1257    0.2041    5.2087 C   0  0  0  0  0  0  0  0  0  0  0  0
   -2.8853   -0.5922    5.2621 H   0  0  0  0  0  0  0  0  0  0  0  0
   -1.2944   -0.1435    5.8430 H   0  0  0  0  0  0  0  0  0  0  0  0
   -2.5637    1.0590    5.7483 H   0  0  0  0  0  0  0  0  0  0  0  0
   -2.4435    1.4589    3.1669 N   0  0  0  0  0  0  0  0  0  0  0  0
   -2.1966    1.8850    1.8145 C   0  0  2  0  0  0  0  0  0  0  0  0
   -0.8617    1.2996    1.3733 C   0  0  0  0  0  0  0  0  0  0  0  0
    0.0104    0.9468    2.1646 O   0  0  0  0  0  0  0  0  0  0  0  0
   -2.1879    3.4017    1.7050 C   0  0  0  0  0  0  0  0  0  0  0  0
   -3.2085    1.8948    3.6787 H   0  0  0  0  0  0  0  0  0  0  0  0
   -3.0007    1.4665    1.1994 H   0  0  0  0  0  0  0  0  0  0  0  0
   -1.3888    3.8390    2.3147 H   0  0  0  0  0  0  0  0  0  0  0  0
   -2.0284    3.7240    0.6708 H   0  0  0  0  0  0  0  0  0  0  0  0
   -3.1380    3.8230    2.0508 H   0  0  0  0  0  0  0  0  0  0  0  0
   -0.7390    1.2565   -0.0101 N   0  0  0  0  0  0  0  0  0  0  0  0
    0.4383    0.7557   -0.6738 C   0  0  2  0  0  0  0  0  0  0  0  0
    0.2323   -0.7392   -0.8907 C   0  0  0  0  0  0  0  0  0  0  0  0
    1.0830   -1.4647   -1.4012 O   0  0  0  0  0  0  0  0  0  0  0  0
    1.7126    1.0053    0.1411 C   0  0  0  0  0  0  0  0  0  0  0  0
    2.0146    2.4735    0.3170 C   0  0  0  0  0  0  0  0  0  0  0  0
    2.5216    3.2379   -0.7060 N   0  3  0  0  0  0  0  0  0  0  0  0
    1.8800    3.3004    1.3964 C   0  0  0  0  0  0  0  0  0  0  0  0
    2.6967    4.4930   -0.2802 C   0  0  0  0  0  0  0  0  0  0  0  0
    2.3097    4.5434    0.9986 N   0  0  0  0  0  0  0  0  0  0  0  0
   -1.5221    1.5532   -0.5874 H   0  0  0  0  0  0  0  0  0  0  0  0
    0.4847    1.2566   -1.6479 H   0  0  0  0  0  0  0  0  0  0  0  0
    2.5697    0.5058   -0.3307 H   0  0  0  0  0  0  0  0  0  0  0  0
    1.6266    0.5503    1.1367 H   0  0  0  0  0  0  0  0  0  0  0  0
    2.7337    2.9052   -1.6426 H   0  0  0  0  0  0  0  0  0  0  0  0
    1.5396    3.1955    2.4073 H   0  0  0  0  0  0  0  0  0  0  0  0
    3.0806    5.3144   -0.8618 H   0  0  0  0  0  0  0  0  0  0  0  0
    2.3319    5.3739    1.5836 H   0  0  0  0  0  0  0  0  0  0  0  0
   -0.9924   -1.1713   -0.4009 N   0  0  0  0  0  0  0  0  0  0  0  0
   -1.4290   -2.5479   -0.4582 C   0  0  2  0  0  0  0  0  0  0  0  0
   -1.2364   -3.0433   -1.8855 C   0  0  0  0  0  0  0  0  0  0  0  0
   -1.1741   -2.2894   -2.8545 O   0  0  0  0  0  0  0  0  0  0  0  0
   -2.8804   -2.6865   -0.0259 C   0  0  0  0  0  0  0  0  0  0  0  0
   -1.6131   -0.4856    0.0190 H   0  0  0  0  0  0  0  0  0  0  0  0
   -0.7781   -3.1145    0.2166 H   0  0  0  0  0  0  0  0  0  0  0  0
   -3.5477   -2.1255   -0.6903 H   0  0  0  0  0  0  0  0  0  0  0  0
   -3.2011   -3.7334   -0.0425 H   0  0  0  0  0  0  0  0  0  0  0  0
   -3.0228   -2.3023    0.9900 H   0  0  0  0  0  0  0  0  0  0  0  0
   -1.1858   -4.4285   -1.9547 N   0  0  0  0  0  0  0  0  0  0  0  0
   -1.0215   -5.1413   -3.2001 C   0  0  0  0  0  0  0  0  0  0  0  0
   -1.2265   -4.9734   -1.0985 H   0  0  0  0  0  0  0  0  0  0  0  0
   -2.0098   -5.3943   -3.6115 H   0  0  0  0  0  0  0  0  0  0  0  0
   -0.4777   -4.5076   -3.9162 H   0  0  0  0  0  0  0  0  0  0  0  0
   -0.4514   -6.0649   -3.0213 H   0  0  0  0  0  0  0  0  0  0  0  0
 22 24  2  0  0  0  0
 24 26  1  0  0  0  0
 25 26  1  0  0  0  0
 23 25  2  0  0  0  0
 21 22  1  0  0  0  0
 22 23  1  0  0  0  0
  1  3  1  0  0  0  0
  1  7  1  0  0  0  0
  1  2  2  0  0  0  0
 36 37  1  0  0  0  0
 37 45  1  0  0  0  0
 37 38  2  0  0  0  0
  8  9  1  0  0  0  0
  9 17  1  0  0  0  0
  9 10  2  0  0  0  0
 18 19  1  0  0  0  0
 19 35  1  0  0  0  0
 19 20  2  0  0  0  0
 36 39  1  0  0  0  0
  8 11  1  0  0  0  0
 45 46  1  0  0  0  0
 18 21  1  0  0  0  0
 35 36  1  0  0  0  0
  7  8  1  0  0  0  0
 17 18  1  0  0  0  0
 24 32  1  0  0  0  0
 25 33  1  0  0  0  0
  3  4  1  0  0  0  0
  3  5  1  0  0  0  0
  3  6  1  0  0  0  0
 39 42  1  0  0  0  0
 39 43  1  0  0  0  0
 39 44  1  0  0  0  0
 11 14  1  0  0  0  0
 11 15  1  0  0  0  0
 11 16  1  0  0  0  0
 46 48  1  0  0  0  0
 46 49  1  0  0  0  0
 46 50  1  0  0  0  0
 21 29  1  0  0  0  0
 21 30  1  0  0  0  0
 36 41  1  0  0  0  0
  8 13  1  0  0  0  0
 18 28  1  0  0  0  0
 26 34  1  0  0  0  0
 23 31  1  0  0  0  0
 45 47  1  0  0  0  0
  7 12  1  0  0  0  0
 35 40  1  0  0  0  0
 17 27  1  0  0  0  0
M  CHG  1  23   1
M  END
$$$$

  -OEChem-05262214473D

 50 50  0     1  0  0  0  0  0999 V2000
   -1.6938    0.4865    3.8080 C   0  0  0  0  0  0  0  0  0  0  0  0
   -0.7464   -0.1282    3.3323 O   0  0  0  0  0  0  0  0  0  0  0  0
   -2.1257    0.2041    5.2087 C   0  0  0  0  0  0  0  0  0  0  0  0
   -2.8853   -0.5922    5.2621 H   0  0  0  0  0  0  0  0  0  0  0  0
   -1.2944   -0.1435    5.8430 H   0  0  0  0  0  0  0  0  0  0  0  0
   -2.5637    1.0590    5.7483 H   0  0  0  0  0  0  0  0  0  0  0  0
   -2.4435    1.4589    3.1669 N   0  0  0  0  0  0  0  0  0  0  0  0
   -2.1966    1.8850    1.8145 C   0  0  2  0  0  0  0  0  0  0  0  0
   -0.8617    1.2996    1.3733 C   0  0  0  0  0  0  0  0  0  0  0  0
    0.0104    0.9468    2.1646 O   0  0  0  0  0  0  0  0  0  0  0  0
   -2.1879    3.4017    1.7050 C   0  0  0  0  0  0  0  0  0  0  0  0
   -3.2085    1.8948    3.6787 H   0  0  0  0  0  0  0  0  0  0  0  0
   -3.0007    1.4665    1.1994 H   0  0  0  0  0  0  0  0  0  0  0  0
   -1.3888    3.8390    2.3147 H   0  0  0  0  0  0  0  0  0  0  0  0
   -2.0284    3.7240    0.6708 H   0  0  0  0  0  0  0  0  0  0  0  0
   -3.1380    3.8230    2.0508 H   0  0  0  0  0  0  0  0  0  0  0  0
   -0.7390    1.2565   -0.0101 N   0  0  0  0  0  0  0  0  0  0  0  0
    0.4383    0.7557   -0.6738 C   0  0  2  0  0  0  0  0  0  0  0  0
    0.2323   -0.7392   -0.8907 C   0  0  0  0  0  0  0  0  0  0  0  0
    1.1538   -1.5116   -1.1458 O   0  0  0  0  0  0  0  0  0  0  0  0
    1.7126    1.0053    0.1411 C   0  0  0  0  0  0  0  0  0  0  0  0
    2.0146    2.4735    0.3170 C   0  0  0  0  0  0  0  0  0  0  0  0
    2.5216    3.2379   -0.7060 N   0  3  0  0  0  0  0  0  0  0  0  0
    1.8800    3.3004    1.3964 C   0  0  0  0  0  0  0  0  0  0  0  0
    2.6967    4.4930   -0.2802 C   0  0  0  0  0  0  0  0  0  0  0  0
    2.3097    4.5434    0.9986 N   0  0  0  0  0  0  0  0  0  0  0  0
   -1.5221    1.5532   -0.5874 H   0  0  0  0  0  0  0  0  0  0  0  0
    0.4847    1.2566   -1.6479 H   0  0  0  0  0  0  0  0  0  0  0  0
    2.5697    0.5058   -0.3307 H   0  0  0  0  0  0  0  0  0  0  0  0
    1.6266    0.5503    1.1367 H   0  0  0  0  0  0  0  0  0  0  0  0
    2.7337    2.9052   -1.6426 H   0  0  0  0  0  0  0  0  0  0  0  0
    1.5396    3.1955    2.4073 H   0  0  0  0  0  0  0  0  0  0  0  0
    3.0806    5.3144   -0.8618 H   0  0  0  0  0  0  0  0  0  0  0  0
    2.3319    5.3739    1.5836 H   0  0  0  0  0  0  0  0  0  0  0  0
   -1.0933   -1.1117   -0.7158 N   0  0  0  0  0  0  0  0  0  0  0  0
   -1.5576   -2.4747   -0.8407 C   0  0  2  0  0  0  0  0  0  0  0  0
   -1.0307   -3.0323   -2.1563 C   0  0  0  0  0  0  0  0  0  0  0  0
   -0.6940   -2.3200   -3.0999 O   0  0  0  0  0  0  0  0  0  0  0  0
   -3.0757   -2.5491   -0.7879 C   0  0  0  0  0  0  0  0  0  0  0  0
   -1.7711   -0.3902   -0.4885 H   0  0  0  0  0  0  0  0  0  0  0  0
   -1.1227   -3.0347   -0.0057 H   0  0  0  0  0  0  0  0  0  0  0  0
   -3.5293   -1.9936   -1.6168 H   0  0  0  0  0  0  0  0  0  0  0  0
   -3.4247   -3.5848   -0.8539 H   0  0  0  0  0  0  0  0  0  0  0  0
   -3.4546   -2.1204    0.1462 H   0  0  0  0  0  0  0  0  0  0  0  0
   -1.0215   -4.4201   -2.1685 N   0  0  0  0  0  0  0  0  0  0  0  0
   -0.5769   -5.1868   -3.3089 C   0  0  0  0  0  0  0  0  0  0  0  0
   -1.3002   -4.9290   -1.3348 H   0  0  0  0  0  0  0  0  0  0  0  0
   -1.4385   -5.4239   -3.9504 H   0  0  0  0  0  0  0  0  0  0  0  0
    0.1561   -4.5999   -3.8819 H   0  0  0  0  0  0  0  0  0  0  0  0
   -0.1094   -6.1205   -2.9632 H   0  0  0  0  0  0  0  0  0  0  0  0
 22 24  2  0  0  0  0
 24 26  1  0  0  0  0
 25 26  1  0  0  0  0
 23 25  2  0  0  0  0
 21 22  1  0  0  0  0
 22 23  1  0  0  0  0
  1  3  1  0  0  0  0
  1  7  1  0  0  0  0
  1  2  2  0  0  0  0
 36 37  1  0  0  0  0
 37 45  1  0  0  0  0
 37 38  2  0  0  0  0
  8  9  1  0  0  0  0
  9 17  1  0  0  0  0
  9 10  2  0  0  0  0
 18 19  1  0  0  0  0
 19 35  1  0  0  0  0
 19 20  2  0  0  0  0
 36 39  1  0  0  0  0
  8 11  1  0  0  0  0
 45 46  1  0  0  0  0
 18 21  1  0  0  0  0
 35 36  1  0  0  0  0
  7  8  1  0  0  0  0
 17 18  1  0  0  0  0
 24 32  1  0  0  0  0
 25 33  1  0  0  0  0
  3  4  1  0  0  0  0
  3  5  1  0  0  0  0
  3  6  1  0  0  0  0
 39 42  1  0  0  0  0
 39 43  1  0  0  0  0
 39 44  1  0  0  0  0
 11 14  1  0  0  0  0
 11 15  1  0  0  0  0
 11 16  1  0  0  0  0
 46 48  1  0  0  0  0
 46 49  1  0  0  0  0
 46 50  1  0  0  0  0
 21 29  1  0  0  0  0
 21 30  1  0  0  0  0
 36 41  1  0  0  0  0
  8 13  1  0  0  0  0
 18 28  1  0  0  0  0
 26 34  1  0  0  0  0
 23 31  1  0  0  0  0
 45 47  1  0  0  0  0
  7 12  1  0  0  0  0
 35 40  1  0  0  0  0
 17 27  1  0  0  0  0
M  CHG  1  23   1
M  END
$$$$

  -OEChem-05262214473D

 50 50  0     1  0  0  0  0  0999 V2000
   -1.6938    0.4865    3.8080 C   0  0  0  0  0  0  0  0  0  0  0  0
   -0.7464   -0.1282    3.3323 O   0  0  0  0  0  0  0  0  0  0  0  0
   -2.1257    0.2041    5.2087 C   0  0  0  0  0  0  0  0  0  0  0  0
   -2.8853   -0.5922    5.2621 H   0  0  0  0  0  0  0  0  0  0  0  0
   -1.2944   -0.1435    5.8430 H   0  0  0  0  0  0  0  0  0  0  0  0
   -2.5637    1.0590    5.7483 H   0  0  0  0  0  0  0  0  0  0  0  0
   -2.4435    1.4589    3.1669 N   0  0  0  0  0  0  0  0  0  0  0  0
   -2.1966    1.8850    1.8145 C   0  0  2  0  0  0  0  0  0  0  0  0
   -0.8617    1.2996    1.3733 C   0  0  0  0  0  0  0  0  0  0  0  0
    0.0104    0.9468    2.1646 O   0  0  0  0  0  0  0  0  0  0  0  0
   -2.1879    3.4017    1.7050 C   0  0  0  0  0  0  0  0  0  0  0  0
   -3.2085    1.8948    3.6787 H   0  0  0  0  0  0  0  0  0  0  0  0
   -3.0007    1.4665    1.1994 H   0  0  0  0  0  0  0  0  0  0  0  0
   -1.3888    3.8390    2.3147 H   0  0  0  0  0  0  0  0  0  0  0  0
   -2.0284    3.7240    0.6708 H   0  0  0  0  0  0  0  0  0  0  0  0
   -3.1380    3.8230    2.0508 H   0  0  0  0  0  0  0  0  0  0  0  0
   -0.7390    1.2565   -0.0101 N   0  0  0  0  0  0  0  0  0  0  0  0
    0.4383    0.7557   -0.6738 C   0  0  2  0  0  0  0  0  0  0  0  0
    0.2323   -0.7392   -0.8907 C   0  0  0  0  0  0  0  0  0  0  0  0
    1.1556   -1.5505   -0.8795 O   0  0  0  0  0  0  0  0  0  0  0  0
    1.7126    1.0053    0.1411 C   0  0  0  0  0  0  0  0  0  0  0  0
    2.0146    2.4735    0.3170 C   0  0  0  0  0  0  0  0  0  0  0  0
    2.5216    3.2379   -0.7060 N   0  3  0  0  0  0  0  0  0  0  0  0
    1.8800    3.3004    1.3964 C   0  0  0  0  0  0  0  0  0  0  0  0
    2.6967    4.4930   -0.2802 C   0  0  0  0  0  0  0  0  0  0  0  0
    2.3097    4.5434    0.9986 N   0  0  0  0  0  0  0  0  0  0  0  0
   -1.5221    1.5532   -0.5874 H   0  0  0  0  0  0  0  0  0  0  0  0
    0.4847    1.2566   -1.6479 H   0  0  0  0  0  0  0  0  0  0  0  0
    2.5697    0.5058   -0.3307 H   0  0  0  0  0  0  0  0  0  0  0  0
    1.6266    0.5503    1.1367 H   0  0  0  0  0  0  0  0  0  0  0  0
    2.7337    2.9052   -1.6426 H   0  0  0  0  0  0  0  0  0  0  0  0
    1.5396    3.1955    2.4073 H   0  0  0  0  0  0  0  0  0  0  0  0
    3.0806    5.3144   -0.8618 H   0  0  0  0  0  0  0  0  0  0  0  0
    2.3319    5.3739    1.5836 H   0  0  0  0  0  0  0  0  0  0  0  0
   -1.1086   -1.0615   -1.0476 N   0  0  0  0  0  0  0  0  0  0  0  0
   -1.5822   -2.4126   -1.2453 C   0  0  2  0  0  0  0  0  0  0  0  0
   -0.7629   -3.0388   -2.3661 C   0  0  0  0  0  0  0  0  0  0  0  0
   -0.1691   -2.3758   -3.2140 O   0  0  0  0  0  0  0  0  0  0  0  0
   -3.0658   -2.4357   -1.5783 C   0  0  0  0  0  0  0  0  0  0  0  0
   -1.7915   -0.3099   -1.0223 H   0  0  0  0  0  0  0  0  0  0  0  0
   -1.3963   -2.9528   -0.3106 H   0  0  0  0  0  0  0  0  0  0  0  0
   -3.2715   -1.8993   -2.5118 H   0  0  0  0  0  0  0  0  0  0  0  0
   -3.4293   -3.4615   -1.6996 H   0  0  0  0  0  0  0  0  0  0  0  0
   -3.6508   -1.9583   -0.7848 H   0  0  0  0  0  0  0  0  0  0  0  0
   -0.8082   -4.4255   -2.3336 N   0  0  0  0  0  0  0  0  0  0  0  0
   -0.1216   -5.2509   -3.2997 C   0  0  0  0  0  0  0  0  0  0  0  0
   -1.3097   -4.8916   -1.5832 H   0  0  0  0  0  0  0  0  0  0  0  0
   -0.8017   -5.4853   -4.1318 H   0  0  0  0  0  0  0  0  0  0  0  0
    0.7563   -4.7113   -3.6847 H   0  0  0  0  0  0  0  0  0  0  0  0
    0.2042   -6.1847   -2.8182 H   0  0  0  0  0  0  0  0  0  0  0  0
 22 24  2  0  0  0  0
 24 26  1  0  0  0  0
 25 26  1  0  0  0  0
 23 25  2  0  0  0  0
 21 22  1  0  0  0  0
 22 23  1  0  0  0  0
  1  3  1  0  0  0  0
  1  7  1  0  0  0  0
  1  2  2  0  0  0  0
 36 37  1  0  0  0  0
 37 45  1  0  0  0  0
 37 38  2  0  0  0  0
  8  9  1  0  0  0  0
  9 17  1  0  0  0  0
  9 10  2  0  0  0  0
 18 19  1  0  0  0  0
 19 35  1  0  0  0  0
 19 20  2  0  0  0  0
 36 39  1  0  0  0  0
  8 11  1  0  0  0  0
 45 46  1  0  0  0  0
 18 21  1  0  0  0  0
 35 36  1  0  0  0  0
  7  8  1  0  0  0  0
 17 18  1  0  0  0  0
 24 32  1  0  0  0  0
 25 33  1  0  0  0  0
  3  4  1  0  0  0  0
  3  5  1  0  0  0  0
  3  6  1  0  0  0  0
 39 42  1  0  0  0  0
 39 43  1  0  0  0  0
 39 44  1  0  0  0  0
 11 14  1  0  0  0  0
 11 15  1  0  0  0  0
 11 16  1  0  0  0  0
 46 48  1  0  0  0  0
 46 49  1  0  0  0  0
 46 50  1  0  0  0  0
 21 29  1  0  0  0  0
 21 30  1  0  0  0  0
 36 41  1  0  0  0  0
  8 13  1  0  0  0  0
 18 28  1  0  0  0  0
 26 34  1  0  0  0  0
 23 31  1  0  0  0  0
 45 47  1  0  0  0  0
  7 12  1  0  0  0  0
 35 40  1  0  0  0  0
 17 27  1  0  0  0  0
M  CHG  1  23   1
M  END
$$$$

  -OEChem-05262214473D

 50 50  0     1  0  0  0  0  0999 V2000
   -1.6938    0.4865    3.8080 C   0  0  0  0  0  0  0  0  0  0  0  0
   -0.7464   -0.1282    3.3323 O   0  0  0  0  0  0  0  0  0  0  0  0
   -2.1257    0.2041    5.2087 C   0  0  0  0  0  0  0  0  0  0  0  0
   -2.8853   -0.5922    5.2621 H   0  0  0  0  0  0  0  0  0  0  0  0
   -1.2944   -0.1435    5.8430 H   0  0  0  0  0  0  0  0  0  0  0  0
   -2.5637    1.0590    5.7483 H   0  0  0  0  0  0  0  0  0  0  0  0
   -2.4435    1.4589    3.1669 N   0  0  0  0  0  0  0  0  0  0  0  0
   -2.1966    1.8850    1.8145 C   0  0  2  0  0  0  0  0  0  0  0  0
   -0.8617    1.2996    1.3733 C   0  0  0  0  0  0  0  0  0  0  0  0
    0.0104    0.9468    2.1646 O   0  0  0  0  0  0  0  0  0  0  0  0
   -2.1879    3.4017    1.7050 C   0  0  0  0  0  0  0  0  0  0  0  0
   -3.2085    1.8948    3.6787 H   0  0  0  0  0  0  0  0  0  0  0  0
   -3.0007    1.4665    1.1994 H   0  0  0  0  0  0  0  0  0  0  0  0
   -1.3888    3.8390    2.3147 H   0  0  0  0  0  0  0  0  0  0  0  0
   -2.0284    3.7240    0.6708 H   0  0  0  0  0  0  0  0  0  0  0  0
   -3.1380    3.8230    2.0508 H   0  0  0  0  0  0  0  0  0  0  0  0
   -0.7390    1.2565   -0.0101 N   0  0  0  0  0  0  0  0  0  0  0  0
    0.4383    0.7557   -0.6738 C   0  0  2  0  0  0  0  0  0  0  0  0
    0.2323   -0.7392   -0.8907 C   0  0  0  0  0  0  0  0  0  0  0  0
    1.0884   -1.5788   -0.6204 O   0  0  0  0  0  0  0  0  0  0  0  0
    1.7126    1.0053    0.1411 C   0  0  0  0  0  0  0  0  0  0  0  0
    2.0146    2.4735    0.3170 C   0  0  0  0  0  0  0  0  0  0  0  0
    2.5216    3.2379   -0.7060 N   0  3  0  0  0  0  0  0  0  0  0  0
    1.8800    3.3004    1.3964 C   0  0  0  0  0  0  0  0  0  0  0  0
    2.6967    4.4930   -0.2802 C   0  0  0  0  0  0  0  0  0  0  0  0
    2.3097    4.5434    0.9986 N   0  0  0  0  0  0  0  0  0  0  0  0
   -1.5221    1.5532   -0.5874 H   0  0  0  0  0  0  0  0  0  0  0  0
    0.4847    1.2566   -1.6479 H   0  0  0  0  0  0  0  0  0  0  0  0
    2.5697    0.5058   -0.3307 H   0  0  0  0  0  0  0  0  0  0  0  0
    1.6266    0.5503    1.1367 H   0  0  0  0  0  0  0  0  0  0  0  0
    2.7337    2.9052   -1.6426 H   0  0  0  0  0  0  0  0  0  0  0  0
    1.5396    3.1955    2.4073 H   0  0  0  0  0  0  0  0  0  0  0  0
    3.0806    5.3144   -0.8618 H   0  0  0  0  0  0  0  0  0  0  0  0
    2.3319    5.3739    1.5836 H   0  0  0  0  0  0  0  0  0  0  0  0
   -1.0374   -1.0240   -1.3738 N   0  0  0  0  0  0  0  0  0  0  0  0
   -1.5009   -2.3659   -1.6446 C   0  0  2  0  0  0  0  0  0  0  0  0
   -0.4512   -3.0622   -2.5006 C   0  0  0  0  0  0  0  0  0  0  0  0
    0.3648   -2.4530   -3.1891 O   0  0  0  0  0  0  0  0  0  0  0  0
   -2.8516   -2.3543   -2.3432 C   0  0  0  0  0  0  0  0  0  0  0  0
   -1.6727   -0.2503   -1.5458 H   0  0  0  0  0  0  0  0  0  0  0  0
   -1.5802   -2.8742   -0.6774 H   0  0  0  0  0  0  0  0  0  0  0  0
   -2.7919   -1.8490   -3.3141 H   0  0  0  0  0  0  0  0  0  0  0  0
   -3.2146   -3.3718   -2.5220 H   0  0  0  0  0  0  0  0  0  0  0  0
   -3.5981   -1.8270   -1.7395 H   0  0  0  0  0  0  0  0  0  0  0  0
   -0.5605   -4.4444   -2.4387 N   0  0  0  0  0  0  0  0  0  0  0  0
    0.3136   -5.3292   -3.1729 C   0  0  0  0  0  0  0  0  0  0  0  0
   -1.2544   -4.8639   -1.8269 H   0  0  0  0  0  0  0  0  0  0  0  0
   -0.1429   -5.5745   -4.1432 H   0  0  0  0  0  0  0  0  0  0  0  0
    1.2818   -4.8340   -3.3380 H   0  0  0  0  0  0  0  0  0  0  0  0
    0.4680   -6.2533   -2.5964 H   0  0  0  0  0  0  0  0  0  0  0  0
 22 24  2  0  0  0  0
 24 26  1  0  0  0  0
 25 26  1  0  0  0  0
 23 25  2  0  0  0  0
 21 22  1  0  0  0  0
 22 23  1  0  0  0  0
  1  3  1  0  0  0  0
  1  7  1  0  0  0  0
  1  2  2  0  0  0  0
 36 37  1  0  0  0  0
 37 45  1  0  0  0  0
 37 38  2  0  0  0  0
  8  9  1  0  0  0  0
  9 17  1  0  0  0  0
  9 10  2  0  0  0  0
 18 19  1  0  0  0  0
 19 35  1  0  0  0  0
 19 20  2  0  0  0  0
 36 39  1  0  0  0  0
  8 11  1  0  0  0  0
 45 46  1  0  0  0  0
 18 21  1  0  0  0  0
 35 36  1  0  0  0  0
  7  8  1  0  0  0  0
 17 18  1  0  0  0  0
 24 32  1  0  0  0  0
 25 33  1  0  0  0  0
  3  4  1  0  0  0  0
  3  5  1  0  0  0  0
  3  6  1  0  0  0  0
 39 42  1  0  0  0  0
 39 43  1  0  0  0  0
 39 44  1  0  0  0  0
 11 14  1  0  0  0  0
 11 15  1  0  0  0  0
 11 16  1  0  0  0  0
 46 48  1  0  0  0  0
 46 49  1  0  0  0  0
 46 50  1  0  0  0  0
 21 29  1  0  0  0  0
 21 30  1  0  0  0  0
 36 41  1  0  0  0  0
  8 13  1  0  0  0  0
 18 28  1  0  0  0  0
 26 34  1  0  0  0  0
 23 31  1  0  0  0  0
 45 47  1  0  0  0  0
  7 12  1  0  0  0  0
 35 40  1  0  0  0  0
 17 27  1  0  0  0  0
M  CHG  1  23   1
M  END
$$$$

  -OEChem-05262214473D

 50 50  0     1  0  0  0  0  0999 V2000
   -1.6938    0.4865    3.8080 C   0  0  0  0  0  0  0  0  0  0  0  0
   -0.7464   -0.1282    3.3323 O   0  0  0  0  0  0  0  0  0  0  0  0
   -2.1257    0.2041    5.2087 C   0  0  0  0  0  0  0  0  0  0  0  0
   -2.8853   -0.5922    5.2621 H   0  0  0  0  0  0  0  0  0  0  0  0
   -1.2944   -0.1435    5.8430 H   0  0  0  0  0  0  0  0  0  0  0  0
   -2.5637    1.0590    5.7483 H   0  0  0  0  0  0  0  0  0  0  0  0
   -2.4435    1.4589    3.1669 N   0  0  0  0  0  0  0  0  0  0  0  0
   -2.1966    1.8850    1.8145 C   0  0  2  0  0  0  0  0  0  0  0  0
   -0.8617    1.2996    1.3733 C   0  0  0  0  0  0  0  0  0  0  0  0
    0.0104    0.9468    2.1646 O   0  0  0  0  0  0  0  0  0  0  0  0
   -2.1879    3.4017    1.7050 C   0  0  0  0  0  0  0  0  0  0  0  0
   -3.2085    1.8948    3.6787 H   0  0  0  0  0  0  0  0  0  0  0  0
   -3.0007    1.4665    1.1994 H   0  0  0  0  0  0  0  0  0  0  0  0
   -1.3888    3.8390    2.3147 H   0  0  0  0  0  0  0  0  0  0  0  0
   -2.0284    3.7240    0.6708 H   0  0  0  0  0  0  0  0  0  0  0  0
   -3.1380    3.8230    2.0508 H   0  0  0  0  0  0  0  0  0  0  0  0
   -0.7390    1.2565   -0.0101 N   0  0  0  0  0  0  0  0  0  0  0  0
    0.4383    0.7557   -0.6738 C   0  0  2  0  0  0  0  0  0  0  0  0
    0.2323   -0.7392   -0.8907 C   0  0  0  0  0  0  0  0  0  0  0  0
    0.9566   -1.5946   -0.3862 O   0  0  0  0  0  0  0  0  0  0  0  0
    1.7126    1.0053    0.1411 C   0  0  0  0  0  0  0  0  0  0  0  0
    2.0146    2.4735    0.3170 C   0  0  0  0  0  0  0  0  0  0  0  0
    2.5216    3.2379   -0.7060 N   0  3  0  0  0  0  0  0  0  0  0  0
    1.8800    3.3004    1.3964 C   0  0  0  0  0  0  0  0  0  0  0  0
    2.6967    4.4930   -0.2802 C   0  0  0  0  0  0  0  0  0  0  0  0
    2.3097    4.5434    0.9986 N   0  0  0  0  0  0  0  0  0  0  0  0
   -1.5221    1.5532   -0.5874 H   0  0  0  0  0  0  0  0  0  0  0  0
    0.4847    1.2566   -1.6479 H   0  0  0  0  0  0  0  0  0  0  0  0
    2.5697    0.5058   -0.3307 H   0  0  0  0  0  0  0  0  0  0  0  0
    1.6266    0.5503    1.1367 H   0  0  0  0  0  0  0  0  0  0  0  0
    2.7337    2.9052   -1.6426 H   0  0  0  0  0  0  0  0  0  0  0  0
    1.5396    3.1955    2.4073 H   0  0  0  0  0  0  0  0  0  0  0  0
    3.0806    5.3144   -0.8618 H   0  0  0  0  0  0  0  0  0  0  0  0
    2.3319    5.3739    1.5836 H   0  0  0  0  0  0  0  0  0  0  0  0
   -0.8844   -1.0018   -1.6721 N   0  0  0  0  0  0  0  0  0  0  0  0
   -1.3193   -2.3377   -2.0112 C   0  0  2  0  0  0  0  0  0  0  0  0
   -0.1168   -3.1011   -2.5505 C   0  0  0  0  0  0  0  0  0  0  0  0
    0.8713   -2.5463   -3.0269 O   0  0  0  0  0  0  0  0  0  0  0  0
   -2.4475   -2.3102   -3.0306 C   0  0  0  0  0  0  0  0  0  0  0  0
   -1.4230   -0.2155   -2.0234 H   0  0  0  0  0  0  0  0  0  0  0  0
   -1.6618   -2.8044   -1.0812 H   0  0  0  0  0  0  0  0  0  0  0  0
   -2.1232   -1.8461   -3.9691 H   0  0  0  0  0  0  0  0  0  0  0  0
   -2.7951   -3.3218   -3.2650 H   0  0  0  0  0  0  0  0  0  0  0  0
   -3.3001   -1.7356   -2.6529 H   0  0  0  0  0  0  0  0  0  0  0  0
   -0.2953   -4.4754   -2.4768 N   0  0  0  0  0  0  0  0  0  0  0  0
    0.6988   -5.4165   -2.9373 C   0  0  0  0  0  0  0  0  0  0  0  0
   -1.1382   -4.8476   -2.0493 H   0  0  0  0  0  0  0  0  0  0  0  0
    0.4931   -5.6853   -3.9839 H   0  0  0  0  0  0  0  0  0  0  0  0
    1.6969   -4.9598   -2.8655 H   0  0  0  0  0  0  0  0  0  0  0  0
    0.6639   -6.3214   -2.3128 H   0  0  0  0  0  0  0  0  0  0  0  0
 22 24  2  0  0  0  0
 24 26  1  0  0  0  0
 25 26  1  0  0  0  0
 23 25  2  0  0  0  0
 21 22  1  0  0  0  0
 22 23  1  0  0  0  0
  1  3  1  0  0  0  0
  1  7  1  0  0  0  0
  1  2  2  0  0  0  0
 36 37  1  0  0  0  0
 37 45  1  0  0  0  0
 37 38  2  0  0  0  0
  8  9  1  0  0  0  0
  9 17  1  0  0  0  0
  9 10  2  0  0  0  0
 18 19  1  0  0  0  0
 19 35  1  0  0  0  0
 19 20  2  0  0  0  0
 36 39  1  0  0  0  0
  8 11  1  0  0  0  0
 45 46  1  0  0  0  0
 18 21  1  0  0  0  0
 35 36  1  0  0  0  0
  7  8  1  0  0  0  0
 17 18  1  0  0  0  0
 24 32  1  0  0  0  0
 25 33  1  0  0  0  0
  3  4  1  0  0  0  0
  3  5  1  0  0  0  0
  3  6  1  0  0  0  0
 39 42  1  0  0  0  0
 39 43  1  0  0  0  0
 39 44  1  0  0  0  0
 11 14  1  0  0  0  0
 11 15  1  0  0  0  0
 11 16  1  0  0  0  0
 46 48  1  0  0  0  0
 46 49  1  0  0  0  0
 46 50  1  0  0  0  0
 21 29  1  0  0  0  0
 21 30  1  0  0  0  0
 36 41  1  0  0  0  0
  8 13  1  0  0  0  0
 18 28  1  0  0  0  0
 26 34  1  0  0  0  0
 23 31  1  0  0  0  0
 45 47  1  0  0  0  0
  7 12  1  0  0  0  0
 35 40  1  0  0  0  0
 17 27  1  0  0  0  0
M  CHG  1  23   1
M  END
$$$$

  -OEChem-05262214473D

 50 50  0     1  0  0  0  0  0999 V2000
   -1.6938    0.4865    3.8080 C   0  0  0  0  0  0  0  0  0  0  0  0
   -0.7464   -0.1282    3.3323 O   0  0  0  0  0  0  0  0  0  0  0  0
   -2.1257    0.2041    5.2087 C   0  0  0  0  0  0  0  0  0  0  0  0
   -2.8853   -0.5922    5.2621 H   0  0  0  0  0  0  0  0  0  0  0  0
   -1.2944   -0.1435    5.8430 H   0  0  0  0  0  0  0  0  0  0  0  0
   -2.5637    1.0590    5.7483 H   0  0  0  0  0  0  0  0  0  0  0  0
   -2.4435    1.4589    3.1669 N   0  0  0  0  0  0  0  0  0  0  0  0
   -2.1966    1.8850    1.8145 C   0  0  2  0  0  0  0  0  0  0  0  0
   -0.8617    1.2996    1.3733 C   0  0  0  0  0  0  0  0  0  0  0  0
    0.0104    0.9468    2.1646 O   0  0  0  0  0  0  0  0  0  0  0  0
   -2.1879    3.4017    1.7050 C   0  0  0  0  0  0  0  0  0  0  0  0
   -3.2085    1.8948    3.6787 H   0  0  0  0  0  0  0  0  0  0  0  0
   -3.0007    1.4665    1.1994 H   0  0  0  0  0  0  0  0  0  0  0  0
   -1.3888    3.8390    2.3147 H   0  0  0  0  0  0  0  0  0  0  0  0
   -2.0284    3.7240    0.6708 H   0  0  0  0  0  0  0  0  0  0  0  0
   -3.1380    3.8230    2.0508 H   0  0  0  0  0  0  0  0  0  0  0  0
   -0.7390    1.2565   -0.0101 N   0  0  0  0  0  0  0  0  0  0  0  0
    0.4383    0.7557   -0.6738 C   0  0  2  0  0  0  0  0  0  0  0  0
    0.2323   -0.7392   -0.8907 C   0  0  0  0  0  0  0  0  0  0  0  0
    0.7693   -1.5968   -0.1929 O   0  0  0  0  0  0  0  0  0  0  0  0
    1.7126    1.0053    0.1411 C   0  0  0  0  0  0  0  0  0  0  0  0
    2.0146    2.4735    0.3170 C   0  0  0  0  0  0  0  0  0  0  0  0
    2.5216    3.2379   -0.7060 N   0  3  0  0  0  0  0  0  0  0  0  0
    1.8800    3.3004    1.3964 C   0  0  0  0  0  0  0  0  0  0  0  0
    2.6967    4.4930   -0.2802 C   0  0  0  0  0  0  0  0  0  0  0  0
    2.3097    4.5434    0.9986 N   0  0  0  0  0  0  0  0  0  0  0  0
   -1.5221    1.5532   -0.5874 H   0  0  0  0  0  0  0  0  0  0  0  0
    0.4847    1.2566   -1.6479 H   0  0  0  0  0  0  0  0  0  0  0  0
    2.5697    0.5058   -0.3307 H   0  0  0  0  0  0  0  0  0  0  0  0
    1.6266    0.5503    1.1367 H   0  0  0  0  0  0  0  0  0  0  0  0
    2.7337    2.9052   -1.6426 H   0  0  0  0  0  0  0  0  0  0  0  0
    1.5396    3.1955    2.4073 H   0  0  0  0  0  0  0  0  0  0  0  0
    3.0806    5.3144   -0.8618 H   0  0  0  0  0  0  0  0  0  0  0  0
    2.3319    5.3739    1.5836 H   0  0  0  0  0  0  0  0  0  0  0  0
   -0.6600   -0.9964   -1.9222 N   0  0  0  0  0  0  0  0  0  0  0  0
   -1.0498   -2.3300   -2.3203 C   0  0  2  0  0  0  0  0  0  0  0  0
    0.2174   -3.1527   -2.5125 C   0  0  0  0  0  0  0  0  0  0  0  0
    1.3160   -2.6495   -2.7383 O   0  0  0  0  0  0  0  0  0  0  0  0
   -1.8811   -2.3066   -3.5935 C   0  0  0  0  0  0  0  0  0  0  0  0
   -1.0592   -0.2077   -2.4225 H   0  0  0  0  0  0  0  0  0  0  0  0
   -1.6356   -2.7481   -1.4943 H   0  0  0  0  0  0  0  0  0  0  0  0
   -1.3109   -1.8909   -4.4322 H   0  0  0  0  0  0  0  0  0  0  0  0
   -2.1996   -3.3149   -3.8779 H   0  0  0  0  0  0  0  0  0  0  0  0
   -2.7771   -1.6902   -3.4627 H   0  0  0  0  0  0  0  0  0  0  0  0
   -0.0306   -4.5165   -2.4451 N   0  0  0  0  0  0  0  0  0  0  0  0
    1.0079   -5.5068   -2.6089 C   0  0  0  0  0  0  0  0  0  0  0  0
   -0.9689   -4.8440   -2.2351 H   0  0  0  0  0  0  0  0  0  0  0  0
    1.0629   -5.8101   -3.6648 H   0  0  0  0  0  0  0  0  0  0  0  0
    1.9734   -5.0800   -2.2993 H   0  0  0  0  0  0  0  0  0  0  0  0
    0.7787   -6.3846   -1.9868 H   0  0  0  0  0  0  0  0  0  0  0  0
 22 24  2  0  0  0  0
 24 26  1  0  0  0  0
 25 26  1  0  0  0  0
 23 25  2  0  0  0  0
 21 22  1  0  0  0  0
 22 23  1  0  0  0  0
  1  3  1  0  0  0  0
  1  7  1  0  0  0  0
  1  2  2  0  0  0  0
 36 37  1  0  0  0  0
 37 45  1  0  0  0  0
 37 38  2  0  0  0  0
  8  9  1  0  0  0  0
  9 17  1  0  0  0  0
  9 10  2  0  0  0  0
 18 19  1  0  0  0  0
 19 35  1  0  0  0  0
 19 20  2  0  0  0  0
 36 39  1  0  0  0  0
  8 11  1  0  0  0  0
 45 46  1  0  0  0  0
 18 21  1  0  0  0  0
 35 36  1  0  0  0  0
  7  8  1  0  0  0  0
 17 18  1  0  0  0  0
 24 32  1  0  0  0  0
 25 33  1  0  0  0  0
  3  4  1  0  0  0  0
  3  5  1  0  0  0  0
  3  6  1  0  0  0  0
 39 42  1  0  0  0  0
 39 43  1  0  0  0  0
 39 44  1  0  0  0  0
 11 14  1  0  0  0  0
 11 15  1  0  0  0  0
 11 16  1  0  0  0  0
 46 48  1  0  0  0  0
 46 49  1  0  0  0  0
 46 50  1  0  0  0  0
 21 29  1  0  0  0  0
 21 30  1  0  0  0  0
 36 41  1  0  0  0  0
  8 13  1  0  0  0  0
 18 28  1  0  0  0  0
 26 34  1  0  0  0  0
 23 31  1  0  0  0  0
 45 47  1  0  0  0  0
  7 12  1  0  0  0  0
 35 40  1  0  0  0  0
 17 27  1  0  0  0  0
M  CHG  1  23   1
M  END
$$$$

  -OEChem-05262214473D

 50 50  0     1  0  0  0  0  0999 V2000
   -1.6938    0.4865    3.8080 C   0  0  0  0  0  0  0  0  0  0  0  0
   -0.7464   -0.1282    3.3323 O   0  0  0  0  0  0  0  0  0  0  0  0
   -2.1257    0.2041    5.2087 C   0  0  0  0  0  0  0  0  0  0  0  0
   -2.8853   -0.5922    5.2621 H   0  0  0  0  0  0  0  0  0  0  0  0
   -1.2944   -0.1435    5.8430 H   0  0  0  0  0  0  0  0  0  0  0  0
   -2.5637    1.0590    5.7483 H   0  0  0  0  0  0  0  0  0  0  0  0
   -2.4435    1.4589    3.1669 N   0  0  0  0  0  0  0  0  0  0  0  0
   -2.1966    1.8850    1.8145 C   0  0  2  0  0  0  0  0  0  0  0  0
   -0.8617    1.2996    1.3733 C   0  0  0  0  0  0  0  0  0  0  0  0
    0.0104    0.9468    2.1646 O   0  0  0  0  0  0  0  0  0  0  0  0
   -2.1879    3.4017    1.7050 C   0  0  0  0  0  0  0  0  0  0  0  0
   -3.2085    1.8948    3.6787 H   0  0  0  0  0  0  0  0  0  0  0  0
   -3.0007    1.4665    1.1994 H   0  0  0  0  0  0  0  0  0  0  0  0
   -1.3888    3.8390    2.3147 H   0  0  0  0  0  0  0  0  0  0  0  0
   -2.0284    3.7240    0.6708 H   0  0  0  0  0  0  0  0  0  0  0  0
   -3.1380    3.8230    2.0508 H   0  0  0  0  0  0  0  0  0  0  0  0
   -0.7390    1.2565   -0.0101 N   0  0  0  0  0  0  0  0  0  0  0  0
    0.4383    0.7557   -0.6738 C   0  0  2  0  0  0  0  0  0  0  0  0
    0.2323   -0.7392   -0.8907 C   0  0  0  0  0  0  0  0  0  0  0  0
    0.5393   -1.5853   -0.0536 O   0  0  0  0  0  0  0  0  0  0  0  0
    1.7126    1.0053    0.1411 C   0  0  0  0  0  0  0  0  0  0  0  0
    2.0146    2.4735    0.3170 C   0  0  0  0  0  0  0  0  0  0  0  0
    2.5216    3.2379   -0.7060 N   0  3  0  0  0  0  0  0  0  0  0  0
    1.8800    3.3004    1.3964 C   0  0  0  0  0  0  0  0  0  0  0  0
    2.6967    4.4930   -0.2802 C   0  0  0  0  0  0  0  0  0  0  0  0
    2.3097    4.5434    0.9986 N   0  0  0  0  0  0  0  0  0  0  0  0
   -1.5221    1.5532   -0.5874 H   0  0  0  0  0  0  0  0  0  0  0  0
    0.4847    1.2566   -1.6479 H   0  0  0  0  0  0  0  0  0  0  0  0
    2.5697    0.5058   -0.3307 H   0  0  0  0  0  0  0  0  0  0  0  0
    1.6266    0.5503    1.1367 H   0  0  0  0  0  0  0  0  0  0  0  0
    2.7337    2.9052   -1.6426 H   0  0  0  0  0  0  0  0  0  0  0  0
    1.5396    3.1955    2.4073 H   0  0  0  0  0  0  0  0  0  0  0  0
    3.0806    5.3144   -0.8618 H   0  0  0  0  0  0  0  0  0  0  0  0
    2.3319    5.3739    1.5836 H   0  0  0  0  0  0  0  0  0  0  0  0
   -0.3797   -1.0082   -2.1070 N   0  0  0  0  0  0  0  0  0  0  0  0
   -0.7108   -2.3433   -2.5507 C   0  0  2  0  0  0  0  0  0  0  0  0
    0.5286   -3.2134   -2.3892 C   0  0  0  0  0  0  0  0  0  0  0  0
    1.6684   -2.7554   -2.3432 O   0  0  0  0  0  0  0  0  0  0  0  0
   -1.1911   -2.3437   -3.9936 C   0  0  0  0  0  0  0  0  0  0  0  0
   -0.6063   -0.2275   -2.7161 H   0  0  0  0  0  0  0  0  0  0  0  0
   -1.5033   -2.7091   -1.8887 H   0  0  0  0  0  0  0  0  0  0  0  0
   -0.4104   -1.9802   -4.6718 H   0  0  0  0  0  0  0  0  0  0  0  0
   -1.4686   -3.3517   -4.3191 H   0  0  0  0  0  0  0  0  0  0  0  0
   -2.0646   -1.6939   -4.1138 H   0  0  0  0  0  0  0  0  0  0  0  0
    0.2155   -4.5648   -2.3460 N   0  0  0  0  0  0  0  0  0  0  0  0
    1.2198   -5.5939   -2.2100 C   0  0  0  0  0  0  0  0  0  0  0  0
   -0.7581   -4.8532   -2.3718 H   0  0  0  0  0  0  0  0  0  0  0  0
    1.5277   -5.9405   -3.2075 H   0  0  0  0  0  0  0  0  0  0  0  0
    2.0923   -5.1866   -1.6781 H   0  0  0  0  0  0  0  0  0  0  0  0
    0.8046   -6.4384   -1.6405 H   0  0  0  0  0  0  0  0  0  0  0  0
 22 24  2  0  0  0  0
 24 26  1  0  0  0  0
 25 26  1  0  0  0  0
 23 25  2  0  0  0  0
 21 22  1  0  0  0  0
 22 23  1  0  0  0  0
  1  3  1  0  0  0  0
  1  7  1  0  0  0  0
  1  2  2  0  0  0  0
 36 37  1  0  0  0  0
 37 45  1  0  0  0  0
 37 38  2  0  0  0  0
  8  9  1  0  0  0  0
  9 17  1  0  0  0  0
  9 10  2  0  0  0  0
 18 19  1  0  0  0  0
 19 35  1  0  0  0  0
 19 20  2  0  0  0  0
 36 39  1  0  0  0  0
  8 11  1  0  0  0  0
 45 46  1  0  0  0  0
 18 21  1  0  0  0  0
 35 36  1  0  0  0  0
  7  8  1  0  0  0  0
 17 18  1  0  0  0  0
 24 32  1  0  0  0  0
 25 33  1  0  0  0  0
  3  4  1  0  0  0  0
  3  5  1  0  0  0  0
  3  6  1  0  0  0  0
 39 42  1  0  0  0  0
 39 43  1  0  0  0  0
 39 44  1  0  0  0  0
 11 14  1  0  0  0  0
 11 15  1  0  0  0  0
 11 16  1  0  0  0  0
 46 48  1  0  0  0  0
 46 49  1  0  0  0  0
 46 50  1  0  0  0  0
 21 29  1  0  0  0  0
 21 30  1  0  0  0  0
 36 41  1  0  0  0  0
  8 13  1  0  0  0  0
 18 28  1  0  0  0  0
 26 34  1  0  0  0  0
 23 31  1  0  0  0  0
 45 47  1  0  0  0  0
  7 12  1  0  0  0  0
 35 40  1  0  0  0  0
 17 27  1  0  0  0  0
M  CHG  1  23   1
M  END
$$$$

  -OEChem-05262214473D

 50 50  0     1  0  0  0  0  0999 V2000
   -1.6938    0.4865    3.8080 C   0  0  0  0  0  0  0  0  0  0  0  0
   -0.7464   -0.1282    3.3323 O   0  0  0  0  0  0  0  0  0  0  0  0
   -2.1257    0.2041    5.2087 C   0  0  0  0  0  0  0  0  0  0  0  0
   -2.8853   -0.5922    5.2621 H   0  0  0  0  0  0  0  0  0  0  0  0
   -1.2944   -0.1435    5.8430 H   0  0  0  0  0  0  0  0  0  0  0  0
   -2.5637    1.0590    5.7483 H   0  0  0  0  0  0  0  0  0  0  0  0
   -2.4435    1.4589    3.1669 N   0  0  0  0  0  0  0  0  0  0  0  0
   -2.1966    1.8850    1.8145 C   0  0  2  0  0  0  0  0  0  0  0  0
   -0.8617    1.2996    1.3733 C   0  0  0  0  0  0  0  0  0  0  0  0
    0.0104    0.9468    2.1646 O   0  0  0  0  0  0  0  0  0  0  0  0
   -2.1879    3.4017    1.7050 C   0  0  0  0  0  0  0  0  0  0  0  0
   -3.2085    1.8948    3.6787 H   0  0  0  0  0  0  0  0  0  0  0  0
   -3.0007    1.4665    1.1994 H   0  0  0  0  0  0  0  0  0  0  0  0
   -1.3888    3.8390    2.3147 H   0  0  0  0  0  0  0  0  0  0  0  0
   -2.0284    3.7240    0.6708 H   0  0  0  0  0  0  0  0  0  0  0  0
   -3.1380    3.8230    2.0508 H   0  0  0  0  0  0  0  0  0  0  0  0
   -0.7390    1.2565   -0.0101 N   0  0  0  0  0  0  0  0  0  0  0  0
    0.4383    0.7557   -0.6738 C   0  0  2  0  0  0  0  0  0  0  0  0
    0.2323   -0.7392   -0.8907 C   0  0  0  0  0  0  0  0  0  0  0  0
    0.2821   -1.5609    0.0222 O   0  0  0  0  0  0  0  0  0  0  0  0
    1.7126    1.0053    0.1411 C   0  0  0  0  0  0  0  0  0  0  0  0
    2.0146    2.4735    0.3170 C   0  0  0  0  0  0  0  0  0  0  0  0
    2.5216    3.2379   -0.7060 N   0  3  0  0  0  0  0  0  0  0  0  0
    1.8800    3.3004    1.3964 C   0  0  0  0  0  0  0  0  0  0  0  0
    2.6967    4.4930   -0.2802 C   0  0  0  0  0  0  0  0  0  0  0  0
    2.3097    4.5434    0.9986 N   0  0  0  0  0  0  0  0  0  0  0  0
   -1.5221    1.5532   -0.5874 H   0  0  0  0  0  0  0  0  0  0  0  0
    0.4847    1.2566   -1.6479 H   0  0  0  0  0  0  0  0  0  0  0  0
    2.5697    0.5058   -0.3307 H   0  0  0  0  0  0  0  0  0  0  0  0
    1.6266    0.5503    1.1367 H   0  0  0  0  0  0  0  0  0  0  0  0
    2.7337    2.9052   -1.6426 H   0  0  0  0  0  0  0  0  0  0  0  0
    1.5396    3.1955    2.4073 H   0  0  0  0  0  0  0  0  0  0  0  0
    3.0806    5.3144   -0.8618 H   0  0  0  0  0  0  0  0  0  0  0  0
    2.3319    5.3739    1.5836 H   0  0  0  0  0  0  0  0  0  0  0  0
   -0.0625   -1.0364   -2.2140 N   0  0  0  0  0  0  0  0  0  0  0  0
   -0.3254   -2.3767   -2.6867 C   0  0  2  0  0  0  0  0  0  0  0  0
    0.7958   -3.2793   -2.1890 C   0  0  0  0  0  0  0  0  0  0  0  0
    1.9047   -2.8569   -1.8683 O   0  0  0  0  0  0  0  0  0  0  0  0
   -0.4243   -2.4189   -4.2037 C   0  0  0  0  0  0  0  0  0  0  0  0
   -0.0950   -0.2736   -2.8840 H   0  0  0  0  0  0  0  0  0  0  0  0
   -1.2740   -2.6901   -2.2375 H   0  0  0  0  0  0  0  0  0  0  0  0
    0.5169   -2.1081   -4.6716 H   0  0  0  0  0  0  0  0  0  0  0  0
   -0.6518   -3.4295   -4.5585 H   0  0  0  0  0  0  0  0  0  0  0  0
   -1.2114   -1.7465   -4.5618 H   0  0  0  0  0  0  0  0  0  0  0  0
    0.4263   -4.6171   -2.1860 N   0  0  0  0  0  0  0  0  0  0  0  0
    1.3201   -5.6718   -1.7680 C   0  0  0  0  0  0  0  0  0  0  0  0
   -0.5201   -4.8747   -2.4500 H   0  0  0  0  0  0  0  0  0  0  0  0
    1.8558   -6.0676   -2.6434 H   0  0  0  0  0  0  0  0  0  0  0  0
    2.0455   -5.2721   -1.0441 H   0  0  0  0  0  0  0  0  0  0  0  0
    0.7396   -6.4792   -1.2976 H   0  0  0  0  0  0  0  0  0  0  0  0
 22 24  2  0  0  0  0
 24 26  1  0  0  0  0
 25 26  1  0  0  0  0
 23 25  2  0  0  0  0
 21 22  1  0  0  0  0
 22 23  1  0  0  0  0
  1  3  1  0  0  0  0
  1  7  1  0  0  0  0
  1  2  2  0  0  0  0
 36 37  1  0  0  0  0
 37 45  1  0  0  0  0
 37 38  2  0  0  0  0
  8  9  1  0  0  0  0
  9 17  1  0  0  0  0
  9 10  2  0  0  0  0
 18 19  1  0  0  0  0
 19 35  1  0  0  0  0
 19 20  2  0  0  0  0
 36 39  1  0  0  0  0
  8 11  1  0  0  0  0
 45 46  1  0  0  0  0
 18 21  1  0  0  0  0
 35 36  1  0  0  0  0
  7  8  1  0  0  0  0
 17 18  1  0  0  0  0
 24 32  1  0  0  0  0
 25 33  1  0  0  0  0
  3  4  1  0  0  0  0
  3  5  1  0  0  0  0
  3  6  1  0  0  0  0
 39 42  1  0  0  0  0
 39 43  1  0  0  0  0
 39 44  1  0  0  0  0
 11 14  1  0  0  0  0
 11 15  1  0  0  0  0
 11 16  1  0  0  0  0
 46 48  1  0  0  0  0
 46 49  1  0  0  0  0
 46 50  1  0  0  0  0
 21 29  1  0  0  0  0
 21 30  1  0  0  0  0
 36 41  1  0  0  0  0
  8 13  1  0  0  0  0
 18 28  1  0  0  0  0
 26 34  1  0  0  0  0
 23 31  1  0  0  0  0
 45 47  1  0  0  0  0
  7 12  1  0  0  0  0
 35 40  1  0  0  0  0
 17 27  1  0  0  0  0
M  CHG  1  23   1
M  END
$$$$

  -OEChem-05262214473D

 50 50  0     1  0  0  0  0  0999 V2000
   -1.6938    0.4865    3.8080 C   0  0  0  0  0  0  0  0  0  0  0  0
   -0.7464   -0.1282    3.3323 O   0  0  0  0  0  0  0  0  0  0  0  0
   -2.1257    0.2041    5.2087 C   0  0  0  0  0  0  0  0  0  0  0  0
   -2.8853   -0.5922    5.2621 H   0  0  0  0  0  0  0  0  0  0  0  0
   -1.2944   -0.1435    5.8430 H   0  0  0  0  0  0  0  0  0  0  0  0
   -2.5637    1.0590    5.7483 H   0  0  0  0  0  0  0  0  0  0  0  0
   -2.4435    1.4589    3.1669 N   0  0  0  0  0  0  0  0  0  0  0  0
   -2.1966    1.8850    1.8145 C   0  0  2  0  0  0  0  0  0  0  0  0
   -0.8617    1.2996    1.3733 C   0  0  0  0  0  0  0  0  0  0  0  0
    0.0104    0.9468    2.1646 O   0  0  0  0  0  0  0  0  0  0  0  0
   -2.1879    3.4017    1.7050 C   0  0  0  0  0  0  0  0  0  0  0  0
   -3.2085    1.8948    3.6787 H   0  0  0  0  0  0  0  0  0  0  0  0
   -3.0007    1.4665    1.1994 H   0  0  0  0  0  0  0  0  0  0  0  0
   -1.3888    3.8390    2.3147 H   0  0  0  0  0  0  0  0  0  0  0  0
   -2.0284    3.7240    0.6708 H   0  0  0  0  0  0  0  0  0  0  0  0
   -3.1380    3.8230    2.0508 H   0  0  0  0  0  0  0  0  0  0  0  0
   -0.7390    1.2565   -0.0101 N   0  0  0  0  0  0  0  0  0  0  0  0
    0.4383    0.7557   -0.6738 C   0  0  2  0  0  0  0  0  0  0  0  0
    0.2323   -0.7392   -0.8907 C   0  0  0  0  0  0  0  0  0  0  0  0
    0.0154   -1.5251    0.0292 O   0  0  0  0  0  0  0  0  0  0  0  0
    1.7126    1.0053    0.1411 C   0  0  0  0  0  0  0  0  0  0  0  0
    2.0146    2.4735    0.3170 C   0  0  0  0  0  0  0  0  0  0  0  0
    2.5216    3.2379   -0.7060 N   0  3  0  0  0  0  0  0  0  0  0  0
    1.8800    3.3004    1.3964 C   0  0  0  0  0  0  0  0  0  0  0  0
    2.6967    4.4930   -0.2802 C   0  0  0  0  0  0  0  0  0  0  0  0
    2.3097    4.5434    0.9986 N   0  0  0  0  0  0  0  0  0  0  0  0
   -1.5221    1.5532   -0.5874 H   0  0  0  0  0  0  0  0  0  0  0  0
    0.4847    1.2566   -1.6479 H   0  0  0  0  0  0  0  0  0  0  0  0
    2.5697    0.5058   -0.3307 H   0  0  0  0  0  0  0  0  0  0  0  0
    1.6266    0.5503    1.1367 H   0  0  0  0  0  0  0  0  0  0  0  0
    2.7337    2.9052   -1.6426 H   0  0  0  0  0  0  0  0  0  0  0  0
    1.5396    3.1955    2.4073 H   0  0  0  0  0  0  0  0  0  0  0  0
    3.0806    5.3144   -0.8618 H   0  0  0  0  0  0  0  0  0  0  0  0
    2.3319    5.3739    1.5836 H   0  0  0  0  0  0  0  0  0  0  0  0
    0.2701   -1.0791   -2.2358 N   0  0  0  0  0  0  0  0  0  0  0  0
    0.0802   -2.4279   -2.7191 C   0  0  2  0  0  0  0  0  0  0  0  0
    1.0006   -3.3458   -1.9255 C   0  0  0  0  0  0  0  0  0  0  0  0
    2.0087   -2.9470   -1.3461 O   0  0  0  0  0  0  0  0  0  0  0  0
    0.3668   -2.5271   -4.2093 C   0  0  0  0  0  0  0  0  0  0  0  0
    0.4398   -0.3429   -2.9148 H   0  0  0  0  0  0  0  0  0  0  0  0
   -0.9634   -2.6924   -2.5168 H   0  0  0  0  0  0  0  0  0  0  0  0
    1.4079   -2.2657   -4.4315 H   0  0  0  0  0  0  0  0  0  0  0  0
    0.1950   -3.5432   -4.5796 H   0  0  0  0  0  0  0  0  0  0  0  0
   -0.2755   -1.8444   -4.7761 H   0  0  0  0  0  0  0  0  0  0  0  0
    0.5874   -4.6697   -1.9762 N   0  0  0  0  0  0  0  0  0  0  0  0
    1.3019   -5.7353   -1.3128 C   0  0  0  0  0  0  0  0  0  0  0  0
   -0.2712   -4.9069   -2.4643 H   0  0  0  0  0  0  0  0  0  0  0  0
    2.0249   -6.1827   -2.0107 H   0  0  0  0  0  0  0  0  0  0  0  0
    1.8363   -5.3308   -0.4406 H   0  0  0  0  0  0  0  0  0  0  0  0
    0.5884   -6.5042   -0.9814 H   0  0  0  0  0  0  0  0  0  0  0  0
 22 24  2  0  0  0  0
 24 26  1  0  0  0  0
 25 26  1  0  0  0  0
 23 25  2  0  0  0  0
 21 22  1  0  0  0  0
 22 23  1  0  0  0  0
  1  3  1  0  0  0  0
  1  7  1  0  0  0  0
  1  2  2  0  0  0  0
 36 37  1  0  0  0  0
 37 45  1  0  0  0  0
 37 38  2  0  0  0  0
  8  9  1  0  0  0  0
  9 17  1  0  0  0  0
  9 10  2  0  0  0  0
 18 19  1  0  0  0  0
 19 35  1  0  0  0  0
 19 20  2  0  0  0  0
 36 39  1  0  0  0  0
  8 11  1  0  0  0  0
 45 46  1  0  0  0  0
 18 21  1  0  0  0  0
 35 36  1  0  0  0  0
  7  8  1  0  0  0  0
 17 18  1  0  0  0  0
 24 32  1  0  0  0  0
 25 33  1  0  0  0  0
  3  4  1  0  0  0  0
  3  5  1  0  0  0  0
  3  6  1  0  0  0  0
 39 42  1  0  0  0  0
 39 43  1  0  0  0  0
 39 44  1  0  0  0  0
 11 14  1  0  0  0  0
 11 15  1  0  0  0  0
 11 16  1  0  0  0  0
 46 48  1  0  0  0  0
 46 49  1  0  0  0  0
 46 50  1  0  0  0  0
 21 29  1  0  0  0  0
 21 30  1  0  0  0  0
 36 41  1  0  0  0  0
  8 13  1  0  0  0  0
 18 28  1  0  0  0  0
 26 34  1  0  0  0  0
 23 31  1  0  0  0  0
 45 47  1  0  0  0  0
  7 12  1  0  0  0  0
 35 40  1  0  0  0  0
 17 27  1  0  0  0  0
M  CHG  1  23   1
M  END
$$$$

  -OEChem-05262214473D

 50 50  0     1  0  0  0  0  0999 V2000
   -1.6938    0.4865    3.8080 C   0  0  0  0  0  0  0  0  0  0  0  0
   -0.7464   -0.1282    3.3323 O   0  0  0  0  0  0  0  0  0  0  0  0
   -2.1257    0.2041    5.2087 C   0  0  0  0  0  0  0  0  0  0  0  0
   -2.8853   -0.5922    5.2621 H   0  0  0  0  0  0  0  0  0  0  0  0
   -1.2944   -0.1435    5.8430 H   0  0  0  0  0  0  0  0  0  0  0  0
   -2.5637    1.0590    5.7483 H   0  0  0  0  0  0  0  0  0  0  0  0
   -2.4435    1.4589    3.1669 N   0  0  0  0  0  0  0  0  0  0  0  0
   -2.1966    1.8850    1.8145 C   0  0  2  0  0  0  0  0  0  0  0  0
   -0.8617    1.2996    1.3733 C   0  0  0  0  0  0  0  0  0  0  0  0
    0.0104    0.9468    2.1646 O   0  0  0  0  0  0  0  0  0  0  0  0
   -2.1879    3.4017    1.7050 C   0  0  0  0  0  0  0  0  0  0  0  0
   -3.2085    1.8948    3.6787 H   0  0  0  0  0  0  0  0  0  0  0  0
   -3.0007    1.4665    1.1994 H   0  0  0  0  0  0  0  0  0  0  0  0
   -1.3888    3.8390    2.3147 H   0  0  0  0  0  0  0  0  0  0  0  0
   -2.0284    3.7240    0.6708 H   0  0  0  0  0  0  0  0  0  0  0  0
   -3.1380    3.8230    2.0508 H   0  0  0  0  0  0  0  0  0  0  0  0
   -0.7390    1.2565   -0.0101 N   0  0  0  0  0  0  0  0  0  0  0  0
    0.4383    0.7557   -0.6738 C   0  0  2  0  0  0  0  0  0  0  0  0
    0.2323   -0.7392   -0.8907 C   0  0  0  0  0  0  0  0  0  0  0  0
   -0.2427   -1.4806   -0.0329 O   0  0  0  0  0  0  0  0  0  0  0  0
    1.7126    1.0053    0.1411 C   0  0  0  0  0  0  0  0  0  0  0  0
    2.0146    2.4735    0.3170 C   0  0  0  0  0  0  0  0  0  0  0  0
    2.5216    3.2379   -0.7060 N   0  3  0  0  0  0  0  0  0  0  0  0
    1.8800    3.3004    1.3964 C   0  0  0  0  0  0  0  0  0  0  0  0
    2.6967    4.4930   -0.2802 C   0  0  0  0  0  0  0  0  0  0  0  0
    2.3097    4.5434    0.9986 N   0  0  0  0  0  0  0  0  0  0  0  0
   -1.5221    1.5532   -0.5874 H   0  0  0  0  0  0  0  0  0  0  0  0
    0.4847    1.2566   -1.6479 H   0  0  0  0  0  0  0  0  0  0  0  0
    2.5697    0.5058   -0.3307 H   0  0  0  0  0  0  0  0  0  0  0  0
    1.6266    0.5503    1.1367 H   0  0  0  0  0  0  0  0  0  0  0  0
    2.7337    2.9052   -1.6426 H   0  0  0  0  0  0  0  0  0  0  0  0
    1.5396    3.1955    2.4073 H   0  0  0  0  0  0  0  0  0  0  0  0
    3.0806    5.3144   -0.8618 H   0  0  0  0  0  0  0  0  0  0  0  0
    2.3319    5.3739    1.5836 H   0  0  0  0  0  0  0  0  0  0  0  0
    0.5953   -1.1333   -2.1710 N   0  0  0  0  0  0  0  0  0  0  0  0
    0.4784   -2.4934   -2.6457 C   0  0  2  0  0  0  0  0  0  0  0  0
    1.1291   -3.4083   -1.6167 C   0  0  0  0  0  0  0  0  0  0  0  0
    1.9733   -3.0196   -0.8122 O   0  0  0  0  0  0  0  0  0  0  0  0
    1.1285   -2.6610   -4.0103 C   0  0  0  0  0  0  0  0  0  0  0  0
    0.9616   -0.4305   -2.8064 H   0  0  0  0  0  0  0  0  0  0  0  0
   -0.5925   -2.7158   -2.7077 H   0  0  0  0  0  0  0  0  0  0  0  0
    2.2018   -2.4424   -3.9680 H   0  0  0  0  0  0  0  0  0  0  0  0
    1.0141   -3.6849   -4.3812 H   0  0  0  0  0  0  0  0  0  0  0  0
    0.6794   -1.9810   -4.7422 H   0  0  0  0  0  0  0  0  0  0  0  0
    0.6878   -4.7192   -1.7308 N   0  0  0  0  0  0  0  0  0  0  0  0
    1.1664   -5.7801   -0.8755 C   0  0  0  0  0  0  0  0  0  0  0  0
   -0.0283   -4.9477   -2.4139 H   0  0  0  0  0  0  0  0  0  0  0  0
    2.0235   -6.2780   -1.3526 H   0  0  0  0  0  0  0  0  0  0  0  0
    1.4790   -5.3587    0.0913 H   0  0  0  0  0  0  0  0  0  0  0  0
    0.3611   -6.5118   -0.7135 H   0  0  0  0  0  0  0  0  0  0  0  0
 22 24  2  0  0  0  0
 24 26  1  0  0  0  0
 25 26  1  0  0  0  0
 23 25  2  0  0  0  0
 21 22  1  0  0  0  0
 22 23  1  0  0  0  0
  1  3  1  0  0  0  0
  1  7  1  0  0  0  0
  1  2  2  0  0  0  0
 36 37  1  0  0  0  0
 37 45  1  0  0  0  0
 37 38  2  0  0  0  0
  8  9  1  0  0  0  0
  9 17  1  0  0  0  0
  9 10  2  0  0  0  0
 18 19  1  0  0  0  0
 19 35  1  0  0  0  0
 19 20  2  0  0  0  0
 36 39  1  0  0  0  0
  8 11  1  0  0  0  0
 45 46  1  0  0  0  0
 18 21  1  0  0  0  0
 35 36  1  0  0  0  0
  7  8  1  0  0  0  0
 17 18  1  0  0  0  0
 24 32  1  0  0  0  0
 25 33  1  0  0  0  0
  3  4  1  0  0  0  0
  3  5  1  0  0  0  0
  3  6  1  0  0  0  0
 39 42  1  0  0  0  0
 39 43  1  0  0  0  0
 39 44  1  0  0  0  0
 11 14  1  0  0  0  0
 11 15  1  0  0  0  0
 11 16  1  0  0  0  0
 46 48  1  0  0  0  0
 46 49  1  0  0  0  0
 46 50  1  0  0  0  0
 21 29  1  0  0  0  0
 21 30  1  0  0  0  0
 36 41  1  0  0  0  0
  8 13  1  0  0  0  0
 18 28  1  0  0  0  0
 26 34  1  0  0  0  0
 23 31  1  0  0  0  0
 45 47  1  0  0  0  0
  7 12  1  0  0  0  0
 35 40  1  0  0  0  0
 17 27  1  0  0  0  0
M  CHG  1  23   1
M  END
$$$$

  -OEChem-05262214473D

 50 50  0     1  0  0  0  0  0999 V2000
   -1.6938    0.4865    3.8080 C   0  0  0  0  0  0  0  0  0  0  0  0
   -0.7464   -0.1282    3.3323 O   0  0  0  0  0  0  0  0  0  0  0  0
   -2.1257    0.2041    5.2087 C   0  0  0  0  0  0  0  0  0  0  0  0
   -2.8853   -0.5922    5.2621 H   0  0  0  0  0  0  0  0  0  0  0  0
   -1.2944   -0.1435    5.8430 H   0  0  0  0  0  0  0  0  0  0  0  0
   -2.5637    1.0590    5.7483 H   0  0  0  0  0  0  0  0  0  0  0  0
   -2.4435    1.4589    3.1669 N   0  0  0  0  0  0  0  0  0  0  0  0
   -2.1966    1.8850    1.8145 C   0  0  2  0  0  0  0  0  0  0  0  0
   -0.8617    1.2996    1.3733 C   0  0  0  0  0  0  0  0  0  0  0  0
    0.0104    0.9468    2.1646 O   0  0  0  0  0  0  0  0  0  0  0  0
   -2.1879    3.4017    1.7050 C   0  0  0  0  0  0  0  0  0  0  0  0
   -3.2085    1.8948    3.6787 H   0  0  0  0  0  0  0  0  0  0  0  0
   -3.0007    1.4665    1.1994 H   0  0  0  0  0  0  0  0  0  0  0  0
   -1.3888    3.8390    2.3147 H   0  0  0  0  0  0  0  0  0  0  0  0
   -2.0284    3.7240    0.6708 H   0  0  0  0  0  0  0  0  0  0  0  0
   -3.1380    3.8230    2.0508 H   0  0  0  0  0  0  0  0  0  0  0  0
   -0.7390    1.2565   -0.0101 N   0  0  0  0  0  0  0  0  0  0  0  0
    0.4383    0.7557   -0.6738 C   0  0  2  0  0  0  0  0  0  0  0  0
    0.2323   -0.7392   -0.8907 C   0  0  0  0  0  0  0  0  0  0  0  0
   -0.4745   -1.4302   -0.1600 O   0  0  0  0  0  0  0  0  0  0  0  0
    1.7126    1.0053    0.1411 C   0  0  0  0  0  0  0  0  0  0  0  0
    2.0146    2.4735    0.3170 C   0  0  0  0  0  0  0  0  0  0  0  0
    2.5216    3.2379   -0.7060 N   0  3  0  0  0  0  0  0  0  0  0  0
    1.8800    3.3004    1.3964 C   0  0  0  0  0  0  0  0  0  0  0  0
    2.6967    4.4930   -0.2802 C   0  0  0  0  0  0  0  0  0  0  0  0
    2.3097    4.5434    0.9986 N   0  0  0  0  0  0  0  0  0  0  0  0
   -1.5221    1.5532   -0.5874 H   0  0  0  0  0  0  0  0  0  0  0  0
    0.4847    1.2566   -1.6479 H   0  0  0  0  0  0  0  0  0  0  0  0
    2.5697    0.5058   -0.3307 H   0  0  0  0  0  0  0  0  0  0  0  0
    1.6266    0.5503    1.1367 H   0  0  0  0  0  0  0  0  0  0  0  0
    2.7337    2.9052   -1.6426 H   0  0  0  0  0  0  0  0  0  0  0  0
    1.5396    3.1955    2.4073 H   0  0  0  0  0  0  0  0  0  0  0  0
    3.0806    5.3144   -0.8618 H   0  0  0  0  0  0  0  0  0  0  0  0
    2.3319    5.3739    1.5836 H   0  0  0  0  0  0  0  0  0  0  0  0
    0.8909   -1.1954   -2.0240 N   0  0  0  0  0  0  0  0  0  0  0  0
    0.8419   -2.5688   -2.4715 C   0  0  2  0  0  0  0  0  0  0  0  0
    1.1725   -3.4626   -1.2836 C   0  0  0  0  0  0  0  0  0  0  0  0
    1.8009   -3.0697   -0.3029 O   0  0  0  0  0  0  0  0  0  0  0  0
    1.8088   -2.8114   -3.6200 C   0  0  0  0  0  0  0  0  0  0  0  0
    1.4349   -0.5306   -2.5662 H   0  0  0  0  0  0  0  0  0  0  0  0
   -0.1867   -2.7587   -2.7971 H   0  0  0  0  0  0  0  0  0  0  0  0
    2.8445   -2.6260   -3.3127 H   0  0  0  0  0  0  0  0  0  0  0  0
    1.7498   -3.8450   -3.9767 H   0  0  0  0  0  0  0  0  0  0  0  0
    1.5880   -2.1468   -4.4623 H   0  0  0  0  0  0  0  0  0  0  0  0
    0.7207   -4.7621   -1.4665 N   0  0  0  0  0  0  0  0  0  0  0  0
    0.9230   -5.8031   -0.4860 C   0  0  0  0  0  0  0  0  0  0  0  0
    0.1921   -4.9943   -2.3021 H   0  0  0  0  0  0  0  0  0  0  0  0
    1.8515   -6.3469   -0.7140 H   0  0  0  0  0  0  0  0  0  0  0  0
    0.9977   -5.3539    0.5154 H   0  0  0  0  0  0  0  0  0  0  0  0
    0.0734   -6.5013   -0.5122 H   0  0  0  0  0  0  0  0  0  0  0  0
 22 24  2  0  0  0  0
 24 26  1  0  0  0  0
 25 26  1  0  0  0  0
 23 25  2  0  0  0  0
 21 22  1  0  0  0  0
 22 23  1  0  0  0  0
  1  3  1  0  0  0  0
  1  7  1  0  0  0  0
  1  2  2  0  0  0  0
 36 37  1  0  0  0  0
 37 45  1  0  0  0  0
 37 38  2  0  0  0  0
  8  9  1  0  0  0  0
  9 17  1  0  0  0  0
  9 10  2  0  0  0  0
 18 19  1  0  0  0  0
 19 35  1  0  0  0  0
 19 20  2  0  0  0  0
 36 39  1  0  0  0  0
  8 11  1  0  0  0  0
 45 46  1  0  0  0  0
 18 21  1  0  0  0  0
 35 36  1  0  0  0  0
  7  8  1  0  0  0  0
 17 18  1  0  0  0  0
 24 32  1  0  0  0  0
 25 33  1  0  0  0  0
  3  4  1  0  0  0  0
  3  5  1  0  0  0  0
  3  6  1  0  0  0  0
 39 42  1  0  0  0  0
 39 43  1  0  0  0  0
 39 44  1  0  0  0  0
 11 14  1  0  0  0  0
 11 15  1  0  0  0  0
 11 16  1  0  0  0  0
 46 48  1  0  0  0  0
 46 49  1  0  0  0  0
 46 50  1  0  0  0  0
 21 29  1  0  0  0  0
 21 30  1  0  0  0  0
 36 41  1  0  0  0  0
  8 13  1  0  0  0  0
 18 28  1  0  0  0  0
 26 34  1  0  0  0  0
 23 31  1  0  0  0  0
 45 47  1  0  0  0  0
  7 12  1  0  0  0  0
 35 40  1  0  0  0  0
 17 27  1  0  0  0  0
M  CHG  1  23   1
M  END
$$$$

  -OEChem-05262214473D

 50 50  0     1  0  0  0  0  0999 V2000
   -1.6938    0.4865    3.8080 C   0  0  0  0  0  0  0  0  0  0  0  0
   -0.7464   -0.1282    3.3323 O   0  0  0  0  0  0  0  0  0  0  0  0
   -2.1257    0.2041    5.2087 C   0  0  0  0  0  0  0  0  0  0  0  0
   -2.8853   -0.5922    5.2621 H   0  0  0  0  0  0  0  0  0  0  0  0
   -1.2944   -0.1435    5.8430 H   0  0  0  0  0  0  0  0  0  0  0  0
   -2.5637    1.0590    5.7483 H   0  0  0  0  0  0  0  0  0  0  0  0
   -2.4435    1.4589    3.1669 N   0  0  0  0  0  0  0  0  0  0  0  0
   -2.1966    1.8850    1.8145 C   0  0  2  0  0  0  0  0  0  0  0  0
   -0.8617    1.2996    1.3733 C   0  0  0  0  0  0  0  0  0  0  0  0
    0.0104    0.9468    2.1646 O   0  0  0  0  0  0  0  0  0  0  0  0
   -2.1879    3.4017    1.7050 C   0  0  0  0  0  0  0  0  0  0  0  0
   -3.2085    1.8948    3.6787 H   0  0  0  0  0  0  0  0  0  0  0  0
   -3.0007    1.4665    1.1994 H   0  0  0  0  0  0  0  0  0  0  0  0
   -1.3888    3.8390    2.3147 H   0  0  0  0  0  0  0  0  0  0  0  0
   -2.0284    3.7240    0.6708 H   0  0  0  0  0  0  0  0  0  0  0  0
   -3.1380    3.8230    2.0508 H   0  0  0  0  0  0  0  0  0  0  0  0
   -0.7390    1.2565   -0.0101 N   0  0  0  0  0  0  0  0  0  0  0  0
    0.4383    0.7557   -0.6738 C   0  0  2  0  0  0  0  0  0  0  0  0
    0.2323   -0.7392   -0.8907 C   0  0  0  0  0  0  0  0  0  0  0  0
   -0.6644   -1.3774   -0.3433 O   0  0  0  0  0  0  0  0  0  0  0  0
    1.7126    1.0053    0.1411 C   0  0  0  0  0  0  0  0  0  0  0  0
    2.0146    2.4735    0.3170 C   0  0  0  0  0  0  0  0  0  0  0  0
    2.5216    3.2379   -0.7060 N   0  3  0  0  0  0  0  0  0  0  0  0
    1.8800    3.3004    1.3964 C   0  0  0  0  0  0  0  0  0  0  0  0
    2.6967    4.4930   -0.2802 C   0  0  0  0  0  0  0  0  0  0  0  0
    2.3097    4.5434    0.9986 N   0  0  0  0  0  0  0  0  0  0  0  0
   -1.5221    1.5532   -0.5874 H   0  0  0  0  0  0  0  0  0  0  0  0
    0.4847    1.2566   -1.6479 H   0  0  0  0  0  0  0  0  0  0  0  0
    2.5697    0.5058   -0.3307 H   0  0  0  0  0  0  0  0  0  0  0  0
    1.6266    0.5503    1.1367 H   0  0  0  0  0  0  0  0  0  0  0  0
    2.7337    2.9052   -1.6426 H   0  0  0  0  0  0  0  0  0  0  0  0
    1.5396    3.1955    2.4073 H   0  0  0  0  0  0  0  0  0  0  0  0
    3.0806    5.3144   -0.8618 H   0  0  0  0  0  0  0  0  0  0  0  0
    2.3319    5.3739    1.5836 H   0  0  0  0  0  0  0  0  0  0  0  0
    1.1369   -1.2611   -1.8048 N   0  0  0  0  0  0  0  0  0  0  0  0
    1.1460   -2.6489   -2.2083 C   0  0  2  0  0  0  0  0  0  0  0  0
    1.1279   -3.5050   -0.9489 C   0  0  0  0  0  0  0  0  0  0  0  0
    1.5033   -3.0940    0.1471 O   0  0  0  0  0  0  0  0  0  0  0  0
    2.3612   -2.9680   -3.0651 C   0  0  0  0  0  0  0  0  0  0  0  0
    1.8274   -0.6363   -2.2106 H   0  0  0  0  0  0  0  0  0  0  0  0
    0.2265   -2.8183   -2.7790 H   0  0  0  0  0  0  0  0  0  0  0  0
    3.2922   -2.8042   -2.5102 H   0  0  0  0  0  0  0  0  0  0  0  0
    2.3518   -4.0125   -3.3937 H   0  0  0  0  0  0  0  0  0  0  0  0
    2.3886   -2.3307   -3.9555 H   0  0  0  0  0  0  0  0  0  0  0  0
    0.6839   -4.7955   -1.2014 N   0  0  0  0  0  0  0  0  0  0  0  0
    0.5881   -5.8027   -0.1707 C   0  0  0  0  0  0  0  0  0  0  0  0
    0.3748   -5.0435   -2.1366 H   0  0  0  0  0  0  0  0  0  0  0  0
    1.5208   -6.3849   -0.1384 H   0  0  0  0  0  0  0  0  0  0  0  0
    0.4254   -5.3167    0.8027 H   0  0  0  0  0  0  0  0  0  0  0  0
   -0.2553   -6.4736   -0.3911 H   0  0  0  0  0  0  0  0  0  0  0  0
 22 24  2  0  0  0  0
 24 26  1  0  0  0  0
 25 26  1  0  0  0  0
 23 25  2  0  0  0  0
 21 22  1  0  0  0  0
 22 23  1  0  0  0  0
  1  3  1  0  0  0  0
  1  7  1  0  0  0  0
  1  2  2  0  0  0  0
 36 37  1  0  0  0  0
 37 45  1  0  0  0  0
 37 38  2  0  0  0  0
  8  9  1  0  0  0  0
  9 17  1  0  0  0  0
  9 10  2  0  0  0  0
 18 19  1  0  0  0  0
 19 35  1  0  0  0  0
 19 20  2  0  0  0  0
 36 39  1  0  0  0  0
  8 11  1  0  0  0  0
 45 46  1  0  0  0  0
 18 21  1  0  0  0  0
 35 36  1  0  0  0  0
  7  8  1  0  0  0  0
 17 18  1  0  0  0  0
 24 32  1  0  0  0  0
 25 33  1  0  0  0  0
  3  4  1  0  0  0  0
  3  5  1  0  0  0  0
  3  6  1  0  0  0  0
 39 42  1  0  0  0  0
 39 43  1  0  0  0  0
 39 44  1  0  0  0  0
 11 14  1  0  0  0  0
 11 15  1  0  0  0  0
 11 16  1  0  0  0  0
 46 48  1  0  0  0  0
 46 49  1  0  0  0  0
 46 50  1  0  0  0  0
 21 29  1  0  0  0  0
 21 30  1  0  0  0  0
 36 41  1  0  0  0  0
  8 13  1  0  0  0  0
 18 28  1  0  0  0  0
 26 34  1  0  0  0  0
 23 31  1  0  0  0  0
 45 47  1  0  0  0  0
  7 12  1  0  0  0  0
 35 40  1  0  0  0  0
 17 27  1  0  0  0  0
M  CHG  1  23   1
M  END
$$$$

  -OEChem-05262214473D

 50 50  0     1  0  0  0  0  0999 V2000
   -1.6938    0.4865    3.8080 C   0  0  0  0  0  0  0  0  0  0  0  0
   -0.7464   -0.1282    3.3323 O   0  0  0  0  0  0  0  0  0  0  0  0
   -2.1257    0.2041    5.2087 C   0  0  0  0  0  0  0  0  0  0  0  0
   -2.8853   -0.5922    5.2621 H   0  0  0  0  0  0  0  0  0  0  0  0
   -1.2944   -0.1435    5.8430 H   0  0  0  0  0  0  0  0  0  0  0  0
   -2.5637    1.0590    5.7483 H   0  0  0  0  0  0  0  0  0  0  0  0
   -2.4435    1.4589    3.1669 N   0  0  0  0  0  0  0  0  0  0  0  0
   -2.1966    1.8850    1.8145 C   0  0  2  0  0  0  0  0  0  0  0  0
   -0.8617    1.2996    1.3733 C   0  0  0  0  0  0  0  0  0  0  0  0
    0.0104    0.9468    2.1646 O   0  0  0  0  0  0  0  0  0  0  0  0
   -2.1879    3.4017    1.7050 C   0  0  0  0  0  0  0  0  0  0  0  0
   -3.2085    1.8948    3.6787 H   0  0  0  0  0  0  0  0  0  0  0  0
   -3.0007    1.4665    1.1994 H   0  0  0  0  0  0  0  0  0  0  0  0
   -1.3888    3.8390    2.3147 H   0  0  0  0  0  0  0  0  0  0  0  0
   -2.0284    3.7240    0.6708 H   0  0  0  0  0  0  0  0  0  0  0  0
   -3.1380    3.8230    2.0508 H   0  0  0  0  0  0  0  0  0  0  0  0
   -0.7390    1.2565   -0.0101 N   0  0  0  0  0  0  0  0  0  0  0  0
    0.4383    0.7557   -0.6738 C   0  0  2  0  0  0  0  0  0  0  0  0
    0.0932   -0.6232   -1.2249 C   0  0  0  0  0  0  0  0  0  0  0  0
   -1.0239   -1.1253   -1.1201 O   0  0  0  0  0  0  0  0  0  0  0  0
    1.6418    0.6658    0.2716 C   0  0  0  0  0  0  0  0  0  0  0  0
    2.0830    2.0149    0.7845 C   0  0  0  0  0  0  0  0  0  0  0  0
    2.7732    2.9017   -0.0062 N   0  3  0  0  0  0  0  0  0  0  0  0
    1.9296    2.6120    2.0038 C   0  0  0  0  0  0  0  0  0  0  0  0
    3.0399    4.0090    0.6939 C   0  0  0  0  0  0  0  0  0  0  0  0
    2.5315    3.8444    1.9194 N   0  0  0  0  0  0  0  0  0  0  0  0
   -1.5221    1.5532   -0.5874 H   0  0  0  0  0  0  0  0  0  0  0  0
    0.6391    1.4363   -1.5095 H   0  0  0  0  0  0  0  0  0  0  0  0
    2.4829    0.1680   -0.2297 H   0  0  0  0  0  0  0  0  0  0  0  0
    1.4046    0.0304    1.1351 H   0  0  0  0  0  0  0  0  0  0  0  0
    3.0426    2.7446   -0.9735 H   0  0  0  0  0  0  0  0  0  0  0  0
    1.4777    2.3459    2.9386 H   0  0  0  0  0  0  0  0  0  0  0  0
    3.5692    4.8761    0.3356 H   0  0  0  0  0  0  0  0  0  0  0  0
    2.5842    4.5266    2.6706 H   0  0  0  0  0  0  0  0  0  0  0  0
    1.1664   -1.2008   -1.8891 N   0  0  0  0  0  0  0  0  0  0  0  0
    1.1013   -2.4967   -2.5256 C   0  0  2  0  0  0  0  0  0  0  0  0
    0.5185   -3.4842   -1.5233 C   0  0  0  0  0  0  0  0  0  0  0  0
    0.5507   -3.3040   -0.3077 O   0  0  0  0  0  0  0  0  0  0  0  0
    2.4733   -2.9497   -3.0000 C   0  0  0  0  0  0  0  0  0  0  0  0
    2.0415   -0.6868   -1.9298 H   0  0  0  0  0  0  0  0  0  0  0  0
    0.4209   -2.3964   -3.3783 H   0  0  0  0  0  0  0  0  0  0  0  0
    3.1688   -3.0557   -2.1594 H   0  0  0  0  0  0  0  0  0  0  0  0
    2.4179   -3.9185   -3.5073 H   0  0  0  0  0  0  0  0  0  0  0  0
    2.9038   -2.2234   -3.6979 H   0  0  0  0  0  0  0  0  0  0  0  0
   -0.0034   -4.6107   -2.1436 N   0  0  0  0  0  0  0  0  0  0  0  0
   -0.6023   -5.6993   -1.4072 C   0  0  0  0  0  0  0  0  0  0  0  0
   -0.0047   -4.6672   -3.1578 H   0  0  0  0  0  0  0  0  0  0  0  0
    0.1609   -6.4622   -1.1941 H   0  0  0  0  0  0  0  0  0  0  0  0
   -1.0144   -5.3187   -0.4610 H   0  0  0  0  0  0  0  0  0  0  0  0
   -1.4101   -6.1460   -2.0056 H   0  0  0  0  0  0  0  0  0  0  0  0
 22 24  2  0  0  0  0
 24 26  1  0  0  0  0
 25 26  1  0  0  0  0
 23 25  2  0  0  0  0
 21 22  1  0  0  0  0
 22 23  1  0  0  0  0
  1  3  1  0  0  0  0
  1  7  1  0  0  0  0
  1  2  2  0  0  0  0
 36 37  1  0  0  0  0
 37 45  1  0  0  0  0
 37 38  2  0  0  0  0
  8  9  1  0  0  0  0
  9 17  1  0  0  0  0
  9 10  2  0  0  0  0
 18 19  1  0  0  0  0
 19 35  1  0  0  0  0
 19 20  2  0  0  0  0
 36 39  1  0  0  0  0
  8 11  1  0  0  0  0
 45 46  1  0  0  0  0
 18 21  1  0  0  0  0
 35 36  1  0  0  0  0
  7  8  1  0  0  0  0
 17 18  1  0  0  0  0
 24 32  1  0  0  0  0
 25 33  1  0  0  0  0
  3  4  1  0  0  0  0
  3  5  1  0  0  0  0
  3  6  1  0  0  0  0
 39 42  1  0  0  0  0
 39 43  1  0  0  0  0
 39 44  1  0  0  0  0
 11 14  1  0  0  0  0
 11 15  1  0  0  0  0
 11 16  1  0  0  0  0
 46 48  1  0  0  0  0
 46 49  1  0  0  0  0
 46 50  1  0  0  0  0
 21 29  1  0  0  0  0
 21 30  1  0  0  0  0
 36 41  1  0  0  0  0
  8 13  1  0  0  0  0
 18 28  1  0  0  0  0
 26 34  1  0  0  0  0
 23 31  1  0  0  0  0
 45 47  1  0  0  0  0
  7 12  1  0  0  0  0
 35 40  1  0  0  0  0
 17 27  1  0  0  0  0
M  CHG  1  23   1
M  END
$$$$

  -OEChem-05262214473D

 50 50  0     1  0  0  0  0  0999 V2000
   -1.6938    0.4865    3.8080 C   0  0  0  0  0  0  0  0  0  0  0  0
   -0.7464   -0.1282    3.3323 O   0  0  0  0  0  0  0  0  0  0  0  0
   -2.1257    0.2041    5.2087 C   0  0  0  0  0  0  0  0  0  0  0  0
   -2.8853   -0.5922    5.2621 H   0  0  0  0  0  0  0  0  0  0  0  0
   -1.2944   -0.1435    5.8430 H   0  0  0  0  0  0  0  0  0  0  0  0
   -2.5637    1.0590    5.7483 H   0  0  0  0  0  0  0  0  0  0  0  0
   -2.4435    1.4589    3.1669 N   0  0  0  0  0  0  0  0  0  0  0  0
   -2.1966    1.8850    1.8145 C   0  0  2  0  0  0  0  0  0  0  0  0
   -0.8617    1.2996    1.3733 C   0  0  0  0  0  0  0  0  0  0  0  0
    0.0104    0.9468    2.1646 O   0  0  0  0  0  0  0  0  0  0  0  0
   -2.1879    3.4017    1.7050 C   0  0  0  0  0  0  0  0  0  0  0  0
   -3.2085    1.8948    3.6787 H   0  0  0  0  0  0  0  0  0  0  0  0
   -3.0007    1.4665    1.1994 H   0  0  0  0  0  0  0  0  0  0  0  0
   -1.3888    3.8390    2.3147 H   0  0  0  0  0  0  0  0  0  0  0  0
   -2.0284    3.7240    0.6708 H   0  0  0  0  0  0  0  0  0  0  0  0
   -3.1380    3.8230    2.0508 H   0  0  0  0  0  0  0  0  0  0  0  0
   -0.7390    1.2565   -0.0101 N   0  0  0  0  0  0  0  0  0  0  0  0
    0.4383    0.7557   -0.6738 C   0  0  2  0  0  0  0  0  0  0  0  0
    0.0932   -0.6232   -1.2249 C   0  0  0  0  0  0  0  0  0  0  0  0
   -1.0625   -1.0181   -1.3640 O   0  0  0  0  0  0  0  0  0  0  0  0
    1.6418    0.6658    0.2716 C   0  0  0  0  0  0  0  0  0  0  0  0
    2.0830    2.0149    0.7845 C   0  0  0  0  0  0  0  0  0  0  0  0
    2.7732    2.9017   -0.0062 N   0  3  0  0  0  0  0  0  0  0  0  0
    1.9296    2.6120    2.0038 C   0  0  0  0  0  0  0  0  0  0  0  0
    3.0399    4.0090    0.6939 C   0  0  0  0  0  0  0  0  0  0  0  0
    2.5315    3.8444    1.9194 N   0  0  0  0  0  0  0  0  0  0  0  0
   -1.5221    1.5532   -0.5874 H   0  0  0  0  0  0  0  0  0  0  0  0
    0.6391    1.4363   -1.5095 H   0  0  0  0  0  0  0  0  0  0  0  0
    2.4829    0.1680   -0.2297 H   0  0  0  0  0  0  0  0  0  0  0  0
    1.4046    0.0304    1.1351 H   0  0  0  0  0  0  0  0  0  0  0  0
    3.0426    2.7446   -0.9735 H   0  0  0  0  0  0  0  0  0  0  0  0
    1.4777    2.3459    2.9386 H   0  0  0  0  0  0  0  0  0  0  0  0
    3.5692    4.8761    0.3356 H   0  0  0  0  0  0  0  0  0  0  0  0
    2.5842    4.5266    2.6706 H   0  0  0  0  0  0  0  0  0  0  0  0
    1.2272   -1.3364   -1.5878 N   0  0  0  0  0  0  0  0  0  0  0  0
    1.1812   -2.6631   -2.1594 C   0  0  2  0  0  0  0  0  0  0  0  0
    0.2861   -3.5241   -1.2779 C   0  0  0  0  0  0  0  0  0  0  0  0
    0.0543   -3.2631   -0.0993 O   0  0  0  0  0  0  0  0  0  0  0  0
    2.5730   -3.2651   -2.2732 C   0  0  0  0  0  0  0  0  0  0  0  0
    2.1352   -0.9043   -1.4444 H   0  0  0  0  0  0  0  0  0  0  0  0
    0.7301   -2.5640   -3.1527 H   0  0  0  0  0  0  0  0  0  0  0  0
    3.0410   -3.3721   -1.2878 H   0  0  0  0  0  0  0  0  0  0  0  0
    2.5393   -4.2585   -2.7326 H   0  0  0  0  0  0  0  0  0  0  0  0
    3.2240   -2.6293   -2.8830 H   0  0  0  0  0  0  0  0  0  0  0  0
   -0.1887   -4.6417   -1.9501 N   0  0  0  0  0  0  0  0  0  0  0  0
   -1.0481   -5.6203   -1.3257 C   0  0  0  0  0  0  0  0  0  0  0  0
    0.0389   -4.7685   -2.9318 H   0  0  0  0  0  0  0  0  0  0  0  0
   -0.4355   -6.4297   -0.9019 H   0  0  0  0  0  0  0  0  0  0  0  0
   -1.6275   -5.1405   -0.5232 H   0  0  0  0  0  0  0  0  0  0  0  0
   -1.7362   -6.0360   -2.0765 H   0  0  0  0  0  0  0  0  0  0  0  0
 22 24  2  0  0  0  0
 24 26  1  0  0  0  0
 25 26  1  0  0  0  0
 23 25  2  0  0  0  0
 21 22  1  0  0  0  0
 22 23  1  0  0  0  0
  1  3  1  0  0  0  0
  1  7  1  0  0  0  0
  1  2  2  0  0  0  0
 36 37  1  0  0  0  0
 37 45  1  0  0  0  0
 37 38  2  0  0  0  0
  8  9  1  0  0  0  0
  9 17  1  0  0  0  0
  9 10  2  0  0  0  0
 18 19  1  0  0  0  0
 19 35  1  0  0  0  0
 19 20  2  0  0  0  0
 36 39  1  0  0  0  0
  8 11  1  0  0  0  0
 45 46  1  0  0  0  0
 18 21  1  0  0  0  0
 35 36  1  0  0  0  0
  7  8  1  0  0  0  0
 17 18  1  0  0  0  0
 24 32  1  0  0  0  0
 25 33  1  0  0  0  0
  3  4  1  0  0  0  0
  3  5  1  0  0  0  0
  3  6  1  0  0  0  0
 39 42  1  0  0  0  0
 39 43  1  0  0  0  0
 39 44  1  0  0  0  0
 11 14  1  0  0  0  0
 11 15  1  0  0  0  0
 11 16  1  0  0  0  0
 46 48  1  0  0  0  0
 46 49  1  0  0  0  0
 46 50  1  0  0  0  0
 21 29  1  0  0  0  0
 21 30  1  0  0  0  0
 36 41  1  0  0  0  0
  8 13  1  0  0  0  0
 18 28  1  0  0  0  0
 26 34  1  0  0  0  0
 23 31  1  0  0  0  0
 45 47  1  0  0  0  0
  7 12  1  0  0  0  0
 35 40  1  0  0  0  0
 17 27  1  0  0  0  0
M  CHG  1  23   1
M  END
$$$$

  -OEChem-05262214473D

 50 50  0     1  0  0  0  0  0999 V2000
   -1.6938    0.4865    3.8080 C   0  0  0  0  0  0  0  0  0  0  0  0
   -0.7464   -0.1282    3.3323 O   0  0  0  0  0  0  0  0  0  0  0  0
   -2.1257    0.2041    5.2087 C   0  0  0  0  0  0  0  0  0  0  0  0
   -2.8853   -0.5922    5.2621 H   0  0  0  0  0  0  0  0  0  0  0  0
   -1.2944   -0.1435    5.8430 H   0  0  0  0  0  0  0  0  0  0  0  0
   -2.5637    1.0590    5.7483 H   0  0  0  0  0  0  0  0  0  0  0  0
   -2.4435    1.4589    3.1669 N   0  0  0  0  0  0  0  0  0  0  0  0
   -2.1966    1.8850    1.8145 C   0  0  2  0  0  0  0  0  0  0  0  0
   -0.8617    1.2996    1.3733 C   0  0  0  0  0  0  0  0  0  0  0  0
    0.0104    0.9468    2.1646 O   0  0  0  0  0  0  0  0  0  0  0  0
   -2.1879    3.4017    1.7050 C   0  0  0  0  0  0  0  0  0  0  0  0
   -3.2085    1.8948    3.6787 H   0  0  0  0  0  0  0  0  0  0  0  0
   -3.0007    1.4665    1.1994 H   0  0  0  0  0  0  0  0  0  0  0  0
   -1.3888    3.8390    2.3147 H   0  0  0  0  0  0  0  0  0  0  0  0
   -2.0284    3.7240    0.6708 H   0  0  0  0  0  0  0  0  0  0  0  0
   -3.1380    3.8230    2.0508 H   0  0  0  0  0  0  0  0  0  0  0  0
   -0.7390    1.2565   -0.0101 N   0  0  0  0  0  0  0  0  0  0  0  0
    0.4383    0.7557   -0.6738 C   0  0  2  0  0  0  0  0  0  0  0  0
    0.0932   -0.6232   -1.2249 C   0  0  0  0  0  0  0  0  0  0  0  0
   -1.0327   -0.9253   -1.6149 O   0  0  0  0  0  0  0  0  0  0  0  0
    1.6418    0.6658    0.2716 C   0  0  0  0  0  0  0  0  0  0  0  0
    2.0830    2.0149    0.7845 C   0  0  0  0  0  0  0  0  0  0  0  0
    2.7732    2.9017   -0.0062 N   0  3  0  0  0  0  0  0  0  0  0  0
    1.9296    2.6120    2.0038 C   0  0  0  0  0  0  0  0  0  0  0  0
    3.0399    4.0090    0.6939 C   0  0  0  0  0  0  0  0  0  0  0  0
    2.5315    3.8444    1.9194 N   0  0  0  0  0  0  0  0  0  0  0  0
   -1.5221    1.5532   -0.5874 H   0  0  0  0  0  0  0  0  0  0  0  0
    0.6391    1.4363   -1.5095 H   0  0  0  0  0  0  0  0  0  0  0  0
    2.4829    0.1680   -0.2297 H   0  0  0  0  0  0  0  0  0  0  0  0
    1.4046    0.0304    1.1351 H   0  0  0  0  0  0  0  0  0  0  0  0
    3.0426    2.7446   -0.9735 H   0  0  0  0  0  0  0  0  0  0  0  0
    1.4777    2.3459    2.9386 H   0  0  0  0  0  0  0  0  0  0  0  0
    3.5692    4.8761    0.3356 H   0  0  0  0  0  0  0  0  0  0  0  0
    2.5842    4.5266    2.6706 H   0  0  0  0  0  0  0  0  0  0  0  0
    1.2028   -1.4555   -1.2746 N   0  0  0  0  0  0  0  0  0  0  0  0
    1.1571   -2.8098   -1.7772 C   0  0  2  0  0  0  0  0  0  0  0  0
    0.0004   -3.5265   -1.0930 C   0  0  0  0  0  0  0  0  0  0  0  0
   -0.4703   -3.1648   -0.0166 O   0  0  0  0  0  0  0  0  0  0  0  0
    2.4697   -3.5366   -1.5294 C   0  0  0  0  0  0  0  0  0  0  0  0
    2.0917   -1.0947   -0.9408 H   0  0  0  0  0  0  0  0  0  0  0  0
    0.9603   -2.7415   -2.8526 H   0  0  0  0  0  0  0  0  0  0  0  0
    2.6838   -3.6147   -0.4572 H   0  0  0  0  0  0  0  0  0  0  0  0
    2.4434   -4.5529   -1.9360 H   0  0  0  0  0  0  0  0  0  0  0  0
    3.3046   -3.0036   -1.9970 H   0  0  0  0  0  0  0  0  0  0  0  0
   -0.4159   -4.6429   -1.8047 N   0  0  0  0  0  0  0  0  0  0  0  0
   -1.4903   -5.4975   -1.3560 C   0  0  0  0  0  0  0  0  0  0  0  0
    0.0187   -4.8571   -2.6974 H   0  0  0  0  0  0  0  0  0  0  0  0
   -1.0770   -6.3254   -0.7612 H   0  0  0  0  0  0  0  0  0  0  0  0
   -2.1883   -4.9145   -0.7372 H   0  0  0  0  0  0  0  0  0  0  0  0
   -2.0243   -5.9034   -2.2278 H   0  0  0  0  0  0  0  0  0  0  0  0
 22 24  2  0  0  0  0
 24 26  1  0  0  0  0
 25 26  1  0  0  0  0
 23 25  2  0  0  0  0
 21 22  1  0  0  0  0
 22 23  1  0  0  0  0
  1  3  1  0  0  0  0
  1  7  1  0  0  0  0
  1  2  2  0  0  0  0
 36 37  1  0  0  0  0
 37 45  1  0  0  0  0
 37 38  2  0  0  0  0
  8  9  1  0  0  0  0
  9 17  1  0  0  0  0
  9 10  2  0  0  0  0
 18 19  1  0  0  0  0
 19 35  1  0  0  0  0
 19 20  2  0  0  0  0
 36 39  1  0  0  0  0
  8 11  1  0  0  0  0
 45 46  1  0  0  0  0
 18 21  1  0  0  0  0
 35 36  1  0  0  0  0
  7  8  1  0  0  0  0
 17 18  1  0  0  0  0
 24 32  1  0  0  0  0
 25 33  1  0  0  0  0
  3  4  1  0  0  0  0
  3  5  1  0  0  0  0
  3  6  1  0  0  0  0
 39 42  1  0  0  0  0
 39 43  1  0  0  0  0
 39 44  1  0  0  0  0
 11 14  1  0  0  0  0
 11 15  1  0  0  0  0
 11 16  1  0  0  0  0
 46 48  1  0  0  0  0
 46 49  1  0  0  0  0
 46 50  1  0  0  0  0
 21 29  1  0  0  0  0
 21 30  1  0  0  0  0
 36 41  1  0  0  0  0
  8 13  1  0  0  0  0
 18 28  1  0  0  0  0
 26 34  1  0  0  0  0
 23 31  1  0  0  0  0
 45 47  1  0  0  0  0
  7 12  1  0  0  0  0
 35 40  1  0  0  0  0
 17 27  1  0  0  0  0
M  CHG  1  23   1
M  END
$$$$

  -OEChem-05262214473D

 50 50  0     1  0  0  0  0  0999 V2000
   -1.6938    0.4865    3.8080 C   0  0  0  0  0  0  0  0  0  0  0  0
   -0.7464   -0.1282    3.3323 O   0  0  0  0  0  0  0  0  0  0  0  0
   -2.1257    0.2041    5.2087 C   0  0  0  0  0  0  0  0  0  0  0  0
   -2.8853   -0.5922    5.2621 H   0  0  0  0  0  0  0  0  0  0  0  0
   -1.2944   -0.1435    5.8430 H   0  0  0  0  0  0  0  0  0  0  0  0
   -2.5637    1.0590    5.7483 H   0  0  0  0  0  0  0  0  0  0  0  0
   -2.4435    1.4589    3.1669 N   0  0  0  0  0  0  0  0  0  0  0  0
   -2.1966    1.8850    1.8145 C   0  0  2  0  0  0  0  0  0  0  0  0
   -0.8617    1.2996    1.3733 C   0  0  0  0  0  0  0  0  0  0  0  0
    0.0104    0.9468    2.1646 O   0  0  0  0  0  0  0  0  0  0  0  0
   -2.1879    3.4017    1.7050 C   0  0  0  0  0  0  0  0  0  0  0  0
   -3.2085    1.8948    3.6787 H   0  0  0  0  0  0  0  0  0  0  0  0
   -3.0007    1.4665    1.1994 H   0  0  0  0  0  0  0  0  0  0  0  0
   -1.3888    3.8390    2.3147 H   0  0  0  0  0  0  0  0  0  0  0  0
   -2.0284    3.7240    0.6708 H   0  0  0  0  0  0  0  0  0  0  0  0
   -3.1380    3.8230    2.0508 H   0  0  0  0  0  0  0  0  0  0  0  0
   -0.7390    1.2565   -0.0101 N   0  0  0  0  0  0  0  0  0  0  0  0
    0.4383    0.7557   -0.6738 C   0  0  2  0  0  0  0  0  0  0  0  0
    0.0932   -0.6232   -1.2249 C   0  0  0  0  0  0  0  0  0  0  0  0
   -0.9364   -0.8531   -1.8557 O   0  0  0  0  0  0  0  0  0  0  0  0
    1.6418    0.6658    0.2716 C   0  0  0  0  0  0  0  0  0  0  0  0
    2.0830    2.0149    0.7845 C   0  0  0  0  0  0  0  0  0  0  0  0
    2.7732    2.9017   -0.0062 N   0  3  0  0  0  0  0  0  0  0  0  0
    1.9296    2.6120    2.0038 C   0  0  0  0  0  0  0  0  0  0  0  0
    3.0399    4.0090    0.6939 C   0  0  0  0  0  0  0  0  0  0  0  0
    2.5315    3.8444    1.9194 N   0  0  0  0  0  0  0  0  0  0  0  0
   -1.5221    1.5532   -0.5874 H   0  0  0  0  0  0  0  0  0  0  0  0
    0.6391    1.4363   -1.5095 H   0  0  0  0  0  0  0  0  0  0  0  0
    2.4829    0.1680   -0.2297 H   0  0  0  0  0  0  0  0  0  0  0  0
    1.4046    0.0304    1.1351 H   0  0  0  0  0  0  0  0  0  0  0  0
    3.0426    2.7446   -0.9735 H   0  0  0  0  0  0  0  0  0  0  0  0
    1.4777    2.3459    2.9386 H   0  0  0  0  0  0  0  0  0  0  0  0
    3.5692    4.8761    0.3356 H   0  0  0  0  0  0  0  0  0  0  0  0
    2.5842    4.5266    2.6706 H   0  0  0  0  0  0  0  0  0  0  0  0
    1.0947   -1.5499   -0.9707 N   0  0  0  0  0  0  0  0  0  0  0  0
    1.0305   -2.9269   -1.4050 C   0  0  2  0  0  0  0  0  0  0  0  0
   -0.3190   -3.4913   -0.9811 C   0  0  0  0  0  0  0  0  0  0  0  0
   -0.9871   -3.0160   -0.0653 O   0  0  0  0  0  0  0  0  0  0  0  0
    2.1704   -3.7455   -0.8191 C   0  0  0  0  0  0  0  0  0  0  0  0
    1.9140   -1.2450   -0.4535 H   0  0  0  0  0  0  0  0  0  0  0  0
    1.0957   -2.9170   -2.4985 H   0  0  0  0  0  0  0  0  0  0  0  0
    2.1217   -3.7670    0.2757 H   0  0  0  0  0  0  0  0  0  0  0  0
    2.1368   -4.7817   -1.1718 H   0  0  0  0  0  0  0  0  0  0  0  0
    3.1400   -3.3208   -1.1005 H   0  0  0  0  0  0  0  0  0  0  0  0
   -0.6695   -4.6144   -1.7174 N   0  0  0  0  0  0  0  0  0  0  0  0
   -1.8989   -5.3393   -1.4959 C   0  0  0  0  0  0  0  0  0  0  0  0
   -0.0640   -4.9271   -2.4706 H   0  0  0  0  0  0  0  0  0  0  0  0
   -1.7197   -6.1564   -0.7816 H   0  0  0  0  0  0  0  0  0  0  0  0
   -2.6589   -4.6564   -1.0885 H   0  0  0  0  0  0  0  0  0  0  0  0
   -2.2548   -5.7573   -2.4491 H   0  0  0  0  0  0  0  0  0  0  0  0
 22 24  2  0  0  0  0
 24 26  1  0  0  0  0
 25 26  1  0  0  0  0
 23 25  2  0  0  0  0
 21 22  1  0  0  0  0
 22 23  1  0  0  0  0
  1  3  1  0  0  0  0
  1  7  1  0  0  0  0
  1  2  2  0  0  0  0
 36 37  1  0  0  0  0
 37 45  1  0  0  0  0
 37 38  2  0  0  0  0
  8  9  1  0  0  0  0
  9 17  1  0  0  0  0
  9 10  2  0  0  0  0
 18 19  1  0  0  0  0
 19 35  1  0  0  0  0
 19 20  2  0  0  0  0
 36 39  1  0  0  0  0
  8 11  1  0  0  0  0
 45 46  1  0  0  0  0
 18 21  1  0  0  0  0
 35 36  1  0  0  0  0
  7  8  1  0  0  0  0
 17 18  1  0  0  0  0
 24 32  1  0  0  0  0
 25 33  1  0  0  0  0
  3  4  1  0  0  0  0
  3  5  1  0  0  0  0
  3  6  1  0  0  0  0
 39 42  1  0  0  0  0
 39 43  1  0  0  0  0
 39 44  1  0  0  0  0
 11 14  1  0  0  0  0
 11 15  1  0  0  0  0
 11 16  1  0  0  0  0
 46 48  1  0  0  0  0
 46 49  1  0  0  0  0
 46 50  1  0  0  0  0
 21 29  1  0  0  0  0
 21 30  1  0  0  0  0
 36 41  1  0  0  0  0
  8 13  1  0  0  0  0
 18 28  1  0  0  0  0
 26 34  1  0  0  0  0
 23 31  1  0  0  0  0
 45 47  1  0  0  0  0
  7 12  1  0  0  0  0
 35 40  1  0  0  0  0
 17 27  1  0  0  0  0
M  CHG  1  23   1
M  END
$$$$

  -OEChem-05262214473D

 50 50  0     1  0  0  0  0  0999 V2000
   -1.6938    0.4865    3.8080 C   0  0  0  0  0  0  0  0  0  0  0  0
   -0.7464   -0.1282    3.3323 O   0  0  0  0  0  0  0  0  0  0  0  0
   -2.1257    0.2041    5.2087 C   0  0  0  0  0  0  0  0  0  0  0  0
   -2.8853   -0.5922    5.2621 H   0  0  0  0  0  0  0  0  0  0  0  0
   -1.2944   -0.1435    5.8430 H   0  0  0  0  0  0  0  0  0  0  0  0
   -2.5637    1.0590    5.7483 H   0  0  0  0  0  0  0  0  0  0  0  0
   -2.4435    1.4589    3.1669 N   0  0  0  0  0  0  0  0  0  0  0  0
   -2.1966    1.8850    1.8145 C   0  0  2  0  0  0  0  0  0  0  0  0
   -0.8617    1.2996    1.3733 C   0  0  0  0  0  0  0  0  0  0  0  0
    0.0104    0.9468    2.1646 O   0  0  0  0  0  0  0  0  0  0  0  0
   -2.1879    3.4017    1.7050 C   0  0  0  0  0  0  0  0  0  0  0  0
   -3.2085    1.8948    3.6787 H   0  0  0  0  0  0  0  0  0  0  0  0
   -3.0007    1.4665    1.1994 H   0  0  0  0  0  0  0  0  0  0  0  0
   -1.3888    3.8390    2.3147 H   0  0  0  0  0  0  0  0  0  0  0  0
   -2.0284    3.7240    0.6708 H   0  0  0  0  0  0  0  0  0  0  0  0
   -3.1380    3.8230    2.0508 H   0  0  0  0  0  0  0  0  0  0  0  0
   -0.7390    1.2565   -0.0101 N   0  0  0  0  0  0  0  0  0  0  0  0
    0.4383    0.7557   -0.6738 C   0  0  2  0  0  0  0  0  0  0  0  0
    0.0932   -0.6232   -1.2249 C   0  0  0  0  0  0  0  0  0  0  0  0
   -0.7804   -0.8065   -2.0700 O   0  0  0  0  0  0  0  0  0  0  0  0
    1.6418    0.6658    0.2716 C   0  0  0  0  0  0  0  0  0  0  0  0
    2.0830    2.0149    0.7845 C   0  0  0  0  0  0  0  0  0  0  0  0
    2.7732    2.9017   -0.0062 N   0  3  0  0  0  0  0  0  0  0  0  0
    1.9296    2.6120    2.0038 C   0  0  0  0  0  0  0  0  0  0  0  0
    3.0399    4.0090    0.6939 C   0  0  0  0  0  0  0  0  0  0  0  0
    2.5315    3.8444    1.9194 N   0  0  0  0  0  0  0  0  0  0  0  0
   -1.5221    1.5532   -0.5874 H   0  0  0  0  0  0  0  0  0  0  0  0
    0.6391    1.4363   -1.5095 H   0  0  0  0  0  0  0  0  0  0  0  0
    2.4829    0.1680   -0.2297 H   0  0  0  0  0  0  0  0  0  0  0  0
    1.4046    0.0304    1.1351 H   0  0  0  0  0  0  0  0  0  0  0  0
    3.0426    2.7446   -0.9735 H   0  0  0  0  0  0  0  0  0  0  0  0
    1.4777    2.3459    2.9386 H   0  0  0  0  0  0  0  0  0  0  0  0
    3.5692    4.8761    0.3356 H   0  0  0  0  0  0  0  0  0  0  0  0
    2.5842    4.5266    2.6706 H   0  0  0  0  0  0  0  0  0  0  0  0
    0.9104   -1.6132   -0.6971 N   0  0  0  0  0  0  0  0  0  0  0  0
    0.8103   -3.0063   -1.0683 C   0  0  2  0  0  0  0  0  0  0  0  0
   -0.6504   -3.4208   -0.9499 C   0  0  0  0  0  0  0  0  0  0  0  0
   -1.4610   -2.8268   -0.2420 O   0  0  0  0  0  0  0  0  0  0  0  0
    1.6954   -3.8778   -0.1910 C   0  0  0  0  0  0  0  0  0  0  0  0
    1.6142   -1.3450   -0.0155 H   0  0  0  0  0  0  0  0  0  0  0  0
    1.1273   -3.0784   -2.1144 H   0  0  0  0  0  0  0  0  0  0  0  0
    1.3930   -3.8185    0.8609 H   0  0  0  0  0  0  0  0  0  0  0  0
    1.6404   -4.9291   -0.4919 H   0  0  0  0  0  0  0  0  0  0  0  0
    2.7415   -3.5592   -0.2544 H   0  0  0  0  0  0  0  0  0  0  0  0
   -0.9322   -4.5579   -1.6941 N   0  0  0  0  0  0  0  0  0  0  0  0
   -2.2460   -5.1565   -1.7360 C   0  0  0  0  0  0  0  0  0  0  0  0
   -0.2035   -4.9737   -2.2667 H   0  0  0  0  0  0  0  0  0  0  0  0
   -2.3200   -5.9342   -0.9616 H   0  0  0  0  0  0  0  0  0  0  0  0
   -3.0070   -4.3835   -1.5531 H   0  0  0  0  0  0  0  0  0  0  0  0
   -2.4119   -5.6075   -2.7254 H   0  0  0  0  0  0  0  0  0  0  0  0
 22 24  2  0  0  0  0
 24 26  1  0  0  0  0
 25 26  1  0  0  0  0
 23 25  2  0  0  0  0
 21 22  1  0  0  0  0
 22 23  1  0  0  0  0
  1  3  1  0  0  0  0
  1  7  1  0  0  0  0
  1  2  2  0  0  0  0
 36 37  1  0  0  0  0
 37 45  1  0  0  0  0
 37 38  2  0  0  0  0
  8  9  1  0  0  0  0
  9 17  1  0  0  0  0
  9 10  2  0  0  0  0
 18 19  1  0  0  0  0
 19 35  1  0  0  0  0
 19 20  2  0  0  0  0
 36 39  1  0  0  0  0
  8 11  1  0  0  0  0
 45 46  1  0  0  0  0
 18 21  1  0  0  0  0
 35 36  1  0  0  0  0
  7  8  1  0  0  0  0
 17 18  1  0  0  0  0
 24 32  1  0  0  0  0
 25 33  1  0  0  0  0
  3  4  1  0  0  0  0
  3  5  1  0  0  0  0
  3  6  1  0  0  0  0
 39 42  1  0  0  0  0
 39 43  1  0  0  0  0
 39 44  1  0  0  0  0
 11 14  1  0  0  0  0
 11 15  1  0  0  0  0
 11 16  1  0  0  0  0
 46 48  1  0  0  0  0
 46 49  1  0  0  0  0
 46 50  1  0  0  0  0
 21 29  1  0  0  0  0
 21 30  1  0  0  0  0
 36 41  1  0  0  0  0
  8 13  1  0  0  0  0
 18 28  1  0  0  0  0
 26 34  1  0  0  0  0
 23 31  1  0  0  0  0
 45 47  1  0  0  0  0
  7 12  1  0  0  0  0
 35 40  1  0  0  0  0
 17 27  1  0  0  0  0
M  CHG  1  23   1
M  END
$$$$

  -OEChem-05262214473D

 50 50  0     1  0  0  0  0  0999 V2000
   -1.6938    0.4865    3.8080 C   0  0  0  0  0  0  0  0  0  0  0  0
   -0.7464   -0.1282    3.3323 O   0  0  0  0  0  0  0  0  0  0  0  0
   -2.1257    0.2041    5.2087 C   0  0  0  0  0  0  0  0  0  0  0  0
   -2.8853   -0.5922    5.2621 H   0  0  0  0  0  0  0  0  0  0  0  0
   -1.2944   -0.1435    5.8430 H   0  0  0  0  0  0  0  0  0  0  0  0
   -2.5637    1.0590    5.7483 H   0  0  0  0  0  0  0  0  0  0  0  0
   -2.4435    1.4589    3.1669 N   0  0  0  0  0  0  0  0  0  0  0  0
   -2.1966    1.8850    1.8145 C   0  0  2  0  0  0  0  0  0  0  0  0
   -0.8617    1.2996    1.3733 C   0  0  0  0  0  0  0  0  0  0  0  0
    0.0104    0.9468    2.1646 O   0  0  0  0  0  0  0  0  0  0  0  0
   -2.1879    3.4017    1.7050 C   0  0  0  0  0  0  0  0  0  0  0  0
   -3.2085    1.8948    3.6787 H   0  0  0  0  0  0  0  0  0  0  0  0
   -3.0007    1.4665    1.1994 H   0  0  0  0  0  0  0  0  0  0  0  0
   -1.3888    3.8390    2.3147 H   0  0  0  0  0  0  0  0  0  0  0  0
   -2.0284    3.7240    0.6708 H   0  0  0  0  0  0  0  0  0  0  0  0
   -3.1380    3.8230    2.0508 H   0  0  0  0  0  0  0  0  0  0  0  0
   -0.7390    1.2565   -0.0101 N   0  0  0  0  0  0  0  0  0  0  0  0
    0.4383    0.7557   -0.6738 C   0  0  2  0  0  0  0  0  0  0  0  0
    0.0932   -0.6232   -1.2249 C   0  0  0  0  0  0  0  0  0  0  0  0
   -0.5751   -0.7887   -2.2432 O   0  0  0  0  0  0  0  0  0  0  0  0
    1.6418    0.6658    0.2716 C   0  0  0  0  0  0  0  0  0  0  0  0
    2.0830    2.0149    0.7845 C   0  0  0  0  0  0  0  0  0  0  0  0
    2.7732    2.9017   -0.0062 N   0  3  0  0  0  0  0  0  0  0  0  0
    1.9296    2.6120    2.0038 C   0  0  0  0  0  0  0  0  0  0  0  0
    3.0399    4.0090    0.6939 C   0  0  0  0  0  0  0  0  0  0  0  0
    2.5315    3.8444    1.9194 N   0  0  0  0  0  0  0  0  0  0  0  0
   -1.5221    1.5532   -0.5874 H   0  0  0  0  0  0  0  0  0  0  0  0
    0.6391    1.4363   -1.5095 H   0  0  0  0  0  0  0  0  0  0  0  0
    2.4829    0.1680   -0.2297 H   0  0  0  0  0  0  0  0  0  0  0  0
    1.4046    0.0304    1.1351 H   0  0  0  0  0  0  0  0  0  0  0  0
    3.0426    2.7446   -0.9735 H   0  0  0  0  0  0  0  0  0  0  0  0
    1.4777    2.3459    2.9386 H   0  0  0  0  0  0  0  0  0  0  0  0
    3.5692    4.8761    0.3356 H   0  0  0  0  0  0  0  0  0  0  0  0
    2.5842    4.5266    2.6706 H   0  0  0  0  0  0  0  0  0  0  0  0
    0.6623   -1.6410   -0.4722 N   0  0  0  0  0  0  0  0  0  0  0  0
    0.5113   -3.0427   -0.7900 C   0  0  2  0  0  0  0  0  0  0  0  0
   -0.9713   -3.3199   -1.0015 C   0  0  0  0  0  0  0  0  0  0  0  0
   -1.8597   -2.6100   -0.5347 O   0  0  0  0  0  0  0  0  0  0  0  0
    1.0772   -3.9242    0.3124 C   0  0  0  0  0  0  0  0  0  0  0  0
    1.2127   -1.3879    0.3432 H   0  0  0  0  0  0  0  0  0  0  0  0
    1.0527   -3.2148   -1.7266 H   0  0  0  0  0  0  0  0  0  0  0  0
    0.5472   -3.7658    1.2587 H   0  0  0  0  0  0  0  0  0  0  0  0
    0.9879   -4.9853    0.0572 H   0  0  0  0  0  0  0  0  0  0  0  0
    2.1362   -3.7027    0.4835 H   0  0  0  0  0  0  0  0  0  0  0  0
   -1.1862   -4.4774   -1.7364 N   0  0  0  0  0  0  0  0  0  0  0  0
   -2.5080   -4.9615   -2.0598 C   0  0  0  0  0  0  0  0  0  0  0  0
   -0.3904   -4.9936   -2.0997 H   0  0  0  0  0  0  0  0  0  0  0  0
   -2.8369   -5.6740   -1.2890 H   0  0  0  0  0  0  0  0  0  0  0  0
   -3.2089   -4.1147   -2.0993 H   0  0  0  0  0  0  0  0  0  0  0  0
   -2.4850   -5.4643   -3.0379 H   0  0  0  0  0  0  0  0  0  0  0  0
 22 24  2  0  0  0  0
 24 26  1  0  0  0  0
 25 26  1  0  0  0  0
 23 25  2  0  0  0  0
 21 22  1  0  0  0  0
 22 23  1  0  0  0  0
  1  3  1  0  0  0  0
  1  7  1  0  0  0  0
  1  2  2  0  0  0  0
 36 37  1  0  0  0  0
 37 45  1  0  0  0  0
 37 38  2  0  0  0  0
  8  9  1  0  0  0  0
  9 17  1  0  0  0  0
  9 10  2  0  0  0  0
 18 19  1  0  0  0  0
 19 35  1  0  0  0  0
 19 20  2  0  0  0  0
 36 39  1  0  0  0  0
  8 11  1  0  0  0  0
 45 46  1  0  0  0  0
 18 21  1  0  0  0  0
 35 36  1  0  0  0  0
  7  8  1  0  0  0  0
 17 18  1  0  0  0  0
 24 32  1  0  0  0  0
 25 33  1  0  0  0  0
  3  4  1  0  0  0  0
  3  5  1  0  0  0  0
  3  6  1  0  0  0  0
 39 42  1  0  0  0  0
 39 43  1  0  0  0  0
 39 44  1  0  0  0  0
 11 14  1  0  0  0  0
 11 15  1  0  0  0  0
 11 16  1  0  0  0  0
 46 48  1  0  0  0  0
 46 49  1  0  0  0  0
 46 50  1  0  0  0  0
 21 29  1  0  0  0  0
 21 30  1  0  0  0  0
 36 41  1  0  0  0  0
  8 13  1  0  0  0  0
 18 28  1  0  0  0  0
 26 34  1  0  0  0  0
 23 31  1  0  0  0  0
 45 47  1  0  0  0  0
  7 12  1  0  0  0  0
 35 40  1  0  0  0  0
 17 27  1  0  0  0  0
M  CHG  1  23   1
M  END
$$$$

  -OEChem-05262214473D

 50 50  0     1  0  0  0  0  0999 V2000
   -1.6938    0.4865    3.8080 C   0  0  0  0  0  0  0  0  0  0  0  0
   -0.7464   -0.1282    3.3323 O   0  0  0  0  0  0  0  0  0  0  0  0
   -2.1257    0.2041    5.2087 C   0  0  0  0  0  0  0  0  0  0  0  0
   -2.8853   -0.5922    5.2621 H   0  0  0  0  0  0  0  0  0  0  0  0
   -1.2944   -0.1435    5.8430 H   0  0  0  0  0  0  0  0  0  0  0  0
   -2.5637    1.0590    5.7483 H   0  0  0  0  0  0  0  0  0  0  0  0
   -2.4435    1.4589    3.1669 N   0  0  0  0  0  0  0  0  0  0  0  0
   -2.1966    1.8850    1.8145 C   0  0  2  0  0  0  0  0  0  0  0  0
   -0.8617    1.2996    1.3733 C   0  0  0  0  0  0  0  0  0  0  0  0
    0.0104    0.9468    2.1646 O   0  0  0  0  0  0  0  0  0  0  0  0
   -2.1879    3.4017    1.7050 C   0  0  0  0  0  0  0  0  0  0  0  0
   -3.2085    1.8948    3.6787 H   0  0  0  0  0  0  0  0  0  0  0  0
   -3.0007    1.4665    1.1994 H   0  0  0  0  0  0  0  0  0  0  0  0
   -1.3888    3.8390    2.3147 H   0  0  0  0  0  0  0  0  0  0  0  0
   -2.0284    3.7240    0.6708 H   0  0  0  0  0  0  0  0  0  0  0  0
   -3.1380    3.8230    2.0508 H   0  0  0  0  0  0  0  0  0  0  0  0
   -0.7390    1.2565   -0.0101 N   0  0  0  0  0  0  0  0  0  0  0  0
    0.4383    0.7557   -0.6738 C   0  0  2  0  0  0  0  0  0  0  0  0
    0.0932   -0.6232   -1.2249 C   0  0  0  0  0  0  0  0  0  0  0  0
   -0.3346   -0.8008   -2.3635 O   0  0  0  0  0  0  0  0  0  0  0  0
    1.6418    0.6658    0.2716 C   0  0  0  0  0  0  0  0  0  0  0  0
    2.0830    2.0149    0.7845 C   0  0  0  0  0  0  0  0  0  0  0  0
    2.7732    2.9017   -0.0062 N   0  3  0  0  0  0  0  0  0  0  0  0
    1.9296    2.6120    2.0038 C   0  0  0  0  0  0  0  0  0  0  0  0
    3.0399    4.0090    0.6939 C   0  0  0  0  0  0  0  0  0  0  0  0
    2.5315    3.8444    1.9194 N   0  0  0  0  0  0  0  0  0  0  0  0
   -1.5221    1.5532   -0.5874 H   0  0  0  0  0  0  0  0  0  0  0  0
    0.6391    1.4363   -1.5095 H   0  0  0  0  0  0  0  0  0  0  0  0
    2.4829    0.1680   -0.2297 H   0  0  0  0  0  0  0  0  0  0  0  0
    1.4046    0.0304    1.1351 H   0  0  0  0  0  0  0  0  0  0  0  0
    3.0426    2.7446   -0.9735 H   0  0  0  0  0  0  0  0  0  0  0  0
    1.4777    2.3459    2.9386 H   0  0  0  0  0  0  0  0  0  0  0  0
    3.5692    4.8761    0.3356 H   0  0  0  0  0  0  0  0  0  0  0  0
    2.5842    4.5266    2.6706 H   0  0  0  0  0  0  0  0  0  0  0  0
    0.3675   -1.6315   -0.3113 N   0  0  0  0  0  0  0  0  0  0  0  0
    0.1539   -3.0336   -0.5891 C   0  0  2  0  0  0  0  0  0  0  0  0
   -1.2597   -3.1954   -1.1323 C   0  0  0  0  0  0  0  0  0  0  0  0
   -2.1560   -2.3805   -0.9234 O   0  0  0  0  0  0  0  0  0  0  0  0
    0.3579   -3.8818    0.6566 C   0  0  0  0  0  0  0  0  0  0  0  0
    0.7369   -1.3707    0.5982 H   0  0  0  0  0  0  0  0  0  0  0  0
    0.8772   -3.3168   -1.3615 H   0  0  0  0  0  0  0  0  0  0  0  0
   -0.3579   -3.6124    1.4418 H   0  0  0  0  0  0  0  0  0  0  0  0
    0.2238   -4.9463    0.4381 H   0  0  0  0  0  0  0  0  0  0  0  0
    1.3654   -3.7413    1.0630 H   0  0  0  0  0  0  0  0  0  0  0  0
   -1.4141   -4.3784   -1.8414 N   0  0  0  0  0  0  0  0  0  0  0  0
   -2.6669   -4.7676   -2.4454 C   0  0  0  0  0  0  0  0  0  0  0  0
   -0.6118   -4.9857   -1.9809 H   0  0  0  0  0  0  0  0  0  0  0  0
   -3.2352   -5.3934   -1.7415 H   0  0  0  0  0  0  0  0  0  0  0  0
   -3.2510   -3.8680   -2.6899 H   0  0  0  0  0  0  0  0  0  0  0  0
   -2.4690   -5.3375   -3.3652 H   0  0  0  0  0  0  0  0  0  0  0  0
 22 24  2  0  0  0  0
 24 26  1  0  0  0  0
 25 26  1  0  0  0  0
 23 25  2  0  0  0  0
 21 22  1  0  0  0  0
 22 23  1  0  0  0  0
  1  3  1  0  0  0  0
  1  7  1  0  0  0  0
  1  2  2  0  0  0  0
 36 37  1  0  0  0  0
 37 45  1  0  0  0  0
 37 38  2  0  0  0  0
  8  9  1  0  0  0  0
  9 17  1  0  0  0  0
  9 10  2  0  0  0  0
 18 19  1  0  0  0  0
 19 35  1  0  0  0  0
 19 20  2  0  0  0  0
 36 39  1  0  0  0  0
  8 11  1  0  0  0  0
 45 46  1  0  0  0  0
 18 21  1  0  0  0  0
 35 36  1  0  0  0  0
  7  8  1  0  0  0  0
 17 18  1  0  0  0  0
 24 32  1  0  0  0  0
 25 33  1  0  0  0  0
  3  4  1  0  0  0  0
  3  5  1  0  0  0  0
  3  6  1  0  0  0  0
 39 42  1  0  0  0  0
 39 43  1  0  0  0  0
 39 44  1  0  0  0  0
 11 14  1  0  0  0  0
 11 15  1  0  0  0  0
 11 16  1  0  0  0  0
 46 48  1  0  0  0  0
 46 49  1  0  0  0  0
 46 50  1  0  0  0  0
 21 29  1  0  0  0  0
 21 30  1  0  0  0  0
 36 41  1  0  0  0  0
  8 13  1  0  0  0  0
 18 28  1  0  0  0  0
 26 34  1  0  0  0  0
 23 31  1  0  0  0  0
 45 47  1  0  0  0  0
  7 12  1  0  0  0  0
 35 40  1  0  0  0  0
 17 27  1  0  0  0  0
M  CHG  1  23   1
M  END
$$$$

  -OEChem-05262214473D

 50 50  0     1  0  0  0  0  0999 V2000
   -1.6938    0.4865    3.8080 C   0  0  0  0  0  0  0  0  0  0  0  0
   -0.7464   -0.1282    3.3323 O   0  0  0  0  0  0  0  0  0  0  0  0
   -2.1257    0.2041    5.2087 C   0  0  0  0  0  0  0  0  0  0  0  0
   -2.8853   -0.5922    5.2621 H   0  0  0  0  0  0  0  0  0  0  0  0
   -1.2944   -0.1435    5.8430 H   0  0  0  0  0  0  0  0  0  0  0  0
   -2.5637    1.0590    5.7483 H   0  0  0  0  0  0  0  0  0  0  0  0
   -2.4435    1.4589    3.1669 N   0  0  0  0  0  0  0  0  0  0  0  0
   -2.1966    1.8850    1.8145 C   0  0  2  0  0  0  0  0  0  0  0  0
   -0.8617    1.2996    1.3733 C   0  0  0  0  0  0  0  0  0  0  0  0
    0.0104    0.9468    2.1646 O   0  0  0  0  0  0  0  0  0  0  0  0
   -2.1879    3.4017    1.7050 C   0  0  0  0  0  0  0  0  0  0  0  0
   -3.2085    1.8948    3.6787 H   0  0  0  0  0  0  0  0  0  0  0  0
   -3.0007    1.4665    1.1994 H   0  0  0  0  0  0  0  0  0  0  0  0
   -1.3888    3.8390    2.3147 H   0  0  0  0  0  0  0  0  0  0  0  0
   -2.0284    3.7240    0.6708 H   0  0  0  0  0  0  0  0  0  0  0  0
   -3.1380    3.8230    2.0508 H   0  0  0  0  0  0  0  0  0  0  0  0
   -0.7390    1.2565   -0.0101 N   0  0  0  0  0  0  0  0  0  0  0  0
    0.4383    0.7557   -0.6738 C   0  0  2  0  0  0  0  0  0  0  0  0
    0.0932   -0.6232   -1.2249 C   0  0  0  0  0  0  0  0  0  0  0  0
   -0.0753   -0.8421   -2.4227 O   0  0  0  0  0  0  0  0  0  0  0  0
    1.6418    0.6658    0.2716 C   0  0  0  0  0  0  0  0  0  0  0  0
    2.0830    2.0149    0.7845 C   0  0  0  0  0  0  0  0  0  0  0  0
    2.7732    2.9017   -0.0062 N   0  3  0  0  0  0  0  0  0  0  0  0
    1.9296    2.6120    2.0038 C   0  0  0  0  0  0  0  0  0  0  0  0
    3.0399    4.0090    0.6939 C   0  0  0  0  0  0  0  0  0  0  0  0
    2.5315    3.8444    1.9194 N   0  0  0  0  0  0  0  0  0  0  0  0
   -1.5221    1.5532   -0.5874 H   0  0  0  0  0  0  0  0  0  0  0  0
    0.6391    1.4363   -1.5095 H   0  0  0  0  0  0  0  0  0  0  0  0
    2.4829    0.1680   -0.2297 H   0  0  0  0  0  0  0  0  0  0  0  0
    1.4046    0.0304    1.1351 H   0  0  0  0  0  0  0  0  0  0  0  0
    3.0426    2.7446   -0.9735 H   0  0  0  0  0  0  0  0  0  0  0  0
    1.4777    2.3459    2.9386 H   0  0  0  0  0  0  0  0  0  0  0  0
    3.5692    4.8761    0.3356 H   0  0  0  0  0  0  0  0  0  0  0  0
    2.5842    4.5266    2.6706 H   0  0  0  0  0  0  0  0  0  0  0  0
    0.0459   -1.5852   -0.2256 N   0  0  0  0  0  0  0  0  0  0  0  0
   -0.2375   -2.9796   -0.4792 C   0  0  2  0  0  0  0  0  0  0  0  0
   -1.4960   -3.0559   -1.3334 C   0  0  0  0  0  0  0  0  0  0  0  0
   -2.3297   -2.1538   -1.3818 O   0  0  0  0  0  0  0  0  0  0  0  0
   -0.4135   -3.7533    0.8182 C   0  0  0  0  0  0  0  0  0  0  0  0
    0.2192   -1.2947    0.7322 H   0  0  0  0  0  0  0  0  0  0  0  0
    0.6126   -3.3775   -1.0439 H   0  0  0  0  0  0  0  0  0  0  0  0
   -1.2607   -3.3689    1.3978 H   0  0  0  0  0  0  0  0  0  0  0  0
   -0.5998   -4.8149    0.6249 H   0  0  0  0  0  0  0  0  0  0  0  0
    0.4815   -3.6726    1.4445 H   0  0  0  0  0  0  0  0  0  0  0  0
   -1.6003   -4.2676   -2.0020 N   0  0  0  0  0  0  0  0  0  0  0  0
   -2.7121   -4.5880   -2.8664 C   0  0  0  0  0  0  0  0  0  0  0  0
   -0.8528   -4.9503   -1.9185 H   0  0  0  0  0  0  0  0  0  0  0  0
   -3.4877   -5.1116   -2.2883 H   0  0  0  0  0  0  0  0  0  0  0  0
   -3.1303   -3.6605   -3.2847 H   0  0  0  0  0  0  0  0  0  0  0  0
   -2.3652   -5.2356   -3.6851 H   0  0  0  0  0  0  0  0  0  0  0  0
 22 24  2  0  0  0  0
 24 26  1  0  0  0  0
 25 26  1  0  0  0  0
 23 25  2  0  0  0  0
 21 22  1  0  0  0  0
 22 23  1  0  0  0  0
  1  3  1  0  0  0  0
  1  7  1  0  0  0  0
  1  2  2  0  0  0  0
 36 37  1  0  0  0  0
 37 45  1  0  0  0  0
 37 38  2  0  0  0  0
  8  9  1  0  0  0  0
  9 17  1  0  0  0  0
  9 10  2  0  0  0  0
 18 19  1  0  0  0  0
 19 35  1  0  0  0  0
 19 20  2  0  0  0  0
 36 39  1  0  0  0  0
  8 11  1  0  0  0  0
 45 46  1  0  0  0  0
 18 21  1  0  0  0  0
 35 36  1  0  0  0  0
  7  8  1  0  0  0  0
 17 18  1  0  0  0  0
 24 32  1  0  0  0  0
 25 33  1  0  0  0  0
  3  4  1  0  0  0  0
  3  5  1  0  0  0  0
  3  6  1  0  0  0  0
 39 42  1  0  0  0  0
 39 43  1  0  0  0  0
 39 44  1  0  0  0  0
 11 14  1  0  0  0  0
 11 15  1  0  0  0  0
 11 16  1  0  0  0  0
 46 48  1  0  0  0  0
 46 49  1  0  0  0  0
 46 50  1  0  0  0  0
 21 29  1  0  0  0  0
 21 30  1  0  0  0  0
 36 41  1  0  0  0  0
  8 13  1  0  0  0  0
 18 28  1  0  0  0  0
 26 34  1  0  0  0  0
 23 31  1  0  0  0  0
 45 47  1  0  0  0  0
  7 12  1  0  0  0  0
 35 40  1  0  0  0  0
 17 27  1  0  0  0  0
M  CHG  1  23   1
M  END
$$$$

  -OEChem-05262214473D

 50 50  0     1  0  0  0  0  0999 V2000
   -1.6938    0.4865    3.8080 C   0  0  0  0  0  0  0  0  0  0  0  0
   -0.7464   -0.1282    3.3323 O   0  0  0  0  0  0  0  0  0  0  0  0
   -2.1257    0.2041    5.2087 C   0  0  0  0  0  0  0  0  0  0  0  0
   -2.8853   -0.5922    5.2621 H   0  0  0  0  0  0  0  0  0  0  0  0
   -1.2944   -0.1435    5.8430 H   0  0  0  0  0  0  0  0  0  0  0  0
   -2.5637    1.0590    5.7483 H   0  0  0  0  0  0  0  0  0  0  0  0
   -2.4435    1.4589    3.1669 N   0  0  0  0  0  0  0  0  0  0  0  0
   -2.1966    1.8850    1.8145 C   0  0  2  0  0  0  0  0  0  0  0  0
   -0.8617    1.2996    1.3733 C   0  0  0  0  0  0  0  0  0  0  0  0
    0.0104    0.9468    2.1646 O   0  0  0  0  0  0  0  0  0  0  0  0
   -2.1879    3.4017    1.7050 C   0  0  0  0  0  0  0  0  0  0  0  0
   -3.2085    1.8948    3.6787 H   0  0  0  0  0  0  0  0  0  0  0  0
   -3.0007    1.4665    1.1994 H   0  0  0  0  0  0  0  0  0  0  0  0
   -1.3888    3.8390    2.3147 H   0  0  0  0  0  0  0  0  0  0  0  0
   -2.0284    3.7240    0.6708 H   0  0  0  0  0  0  0  0  0  0  0  0
   -3.1380    3.8230    2.0508 H   0  0  0  0  0  0  0  0  0  0  0  0
   -0.7390    1.2565   -0.0101 N   0  0  0  0  0  0  0  0  0  0  0  0
    0.4383    0.7557   -0.6738 C   0  0  2  0  0  0  0  0  0  0  0  0
    0.0932   -0.6232   -1.2249 C   0  0  0  0  0  0  0  0  0  0  0  0
    0.1852   -0.9096   -2.4167 O   0  0  0  0  0  0  0  0  0  0  0  0
    1.6418    0.6658    0.2716 C   0  0  0  0  0  0  0  0  0  0  0  0
    2.0830    2.0149    0.7845 C   0  0  0  0  0  0  0  0  0  0  0  0
    2.7732    2.9017   -0.0062 N   0  3  0  0  0  0  0  0  0  0  0  0
    1.9296    2.6120    2.0038 C   0  0  0  0  0  0  0  0  0  0  0  0
    3.0399    4.0090    0.6939 C   0  0  0  0  0  0  0  0  0  0  0  0
    2.5315    3.8444    1.9194 N   0  0  0  0  0  0  0  0  0  0  0  0
   -1.5221    1.5532   -0.5874 H   0  0  0  0  0  0  0  0  0  0  0  0
    0.6391    1.4363   -1.5095 H   0  0  0  0  0  0  0  0  0  0  0  0
    2.4829    0.1680   -0.2297 H   0  0  0  0  0  0  0  0  0  0  0  0
    1.4046    0.0304    1.1351 H   0  0  0  0  0  0  0  0  0  0  0  0
    3.0426    2.7446   -0.9735 H   0  0  0  0  0  0  0  0  0  0  0  0
    1.4777    2.3459    2.9386 H   0  0  0  0  0  0  0  0  0  0  0  0
    3.5692    4.8761    0.3356 H   0  0  0  0  0  0  0  0  0  0  0  0
    2.5842    4.5266    2.6706 H   0  0  0  0  0  0  0  0  0  0  0  0
   -0.2805   -1.5055   -0.2207 N   0  0  0  0  0  0  0  0  0  0  0  0
   -0.6362   -2.8843   -0.4678 C   0  0  2  0  0  0  0  0  0  0  0  0
   -1.6642   -2.9108   -1.5912 C   0  0  0  0  0  0  0  0  0  0  0  0
   -2.3690   -1.9454   -1.8784 O   0  0  0  0  0  0  0  0  0  0  0  0
   -1.1844   -3.5475    0.7862 C   0  0  0  0  0  0  0  0  0  0  0  0
   -0.3051   -1.1650    0.7359 H   0  0  0  0  0  0  0  0  0  0  0  0
    0.2770   -3.3928   -0.7955 H   0  0  0  0  0  0  0  0  0  0  0  0
   -2.0996   -3.0517    1.1296 H   0  0  0  0  0  0  0  0  0  0  0  0
   -1.4267   -4.5999    0.6049 H   0  0  0  0  0  0  0  0  0  0  0  0
   -0.4551   -3.5012    1.6021 H   0  0  0  0  0  0  0  0  0  0  0  0
   -1.7322   -4.1526   -2.2072 N   0  0  0  0  0  0  0  0  0  0  0  0
   -2.6404   -4.4349   -3.2942 C   0  0  0  0  0  0  0  0  0  0  0  0
   -1.0969   -4.8899   -1.9168 H   0  0  0  0  0  0  0  0  0  0  0  0
   -3.5773   -4.8479   -2.8921 H   0  0  0  0  0  0  0  0  0  0  0  0
   -2.8550   -3.5062   -3.8432 H   0  0  0  0  0  0  0  0  0  0  0  0
   -2.1804   -5.1657   -3.9757 H   0  0  0  0  0  0  0  0  0  0  0  0
 22 24  2  0  0  0  0
 24 26  1  0  0  0  0
 25 26  1  0  0  0  0
 23 25  2  0  0  0  0
 21 22  1  0  0  0  0
 22 23  1  0  0  0  0
  1  3  1  0  0  0  0
  1  7  1  0  0  0  0
  1  2  2  0  0  0  0
 36 37  1  0  0  0  0
 37 45  1  0  0  0  0
 37 38  2  0  0  0  0
  8  9  1  0  0  0  0
  9 17  1  0  0  0  0
  9 10  2  0  0  0  0
 18 19  1  0  0  0  0
 19 35  1  0  0  0  0
 19 20  2  0  0  0  0
 36 39  1  0  0  0  0
  8 11  1  0  0  0  0
 45 46  1  0  0  0  0
 18 21  1  0  0  0  0
 35 36  1  0  0  0  0
  7  8  1  0  0  0  0
 17 18  1  0  0  0  0
 24 32  1  0  0  0  0
 25 33  1  0  0  0  0
  3  4  1  0  0  0  0
  3  5  1  0  0  0  0
  3  6  1  0  0  0  0
 39 42  1  0  0  0  0
 39 43  1  0  0  0  0
 39 44  1  0  0  0  0
 11 14  1  0  0  0  0
 11 15  1  0  0  0  0
 11 16  1  0  0  0  0
 46 48  1  0  0  0  0
 46 49  1  0  0  0  0
 46 50  1  0  0  0  0
 21 29  1  0  0  0  0
 21 30  1  0  0  0  0
 36 41  1  0  0  0  0
  8 13  1  0  0  0  0
 18 28  1  0  0  0  0
 26 34  1  0  0  0  0
 23 31  1  0  0  0  0
 45 47  1  0  0  0  0
  7 12  1  0  0  0  0
 35 40  1  0  0  0  0
 17 27  1  0  0  0  0
M  CHG  1  23   1
M  END
$$$$

  -OEChem-05262214473D

 50 50  0     1  0  0  0  0  0999 V2000
   -1.6938    0.4865    3.8080 C   0  0  0  0  0  0  0  0  0  0  0  0
   -0.7464   -0.1282    3.3323 O   0  0  0  0  0  0  0  0  0  0  0  0
   -2.1257    0.2041    5.2087 C   0  0  0  0  0  0  0  0  0  0  0  0
   -2.8853   -0.5922    5.2621 H   0  0  0  0  0  0  0  0  0  0  0  0
   -1.2944   -0.1435    5.8430 H   0  0  0  0  0  0  0  0  0  0  0  0
   -2.5637    1.0590    5.7483 H   0  0  0  0  0  0  0  0  0  0  0  0
   -2.4435    1.4589    3.1669 N   0  0  0  0  0  0  0  0  0  0  0  0
   -2.1966    1.8850    1.8145 C   0  0  2  0  0  0  0  0  0  0  0  0
   -0.8617    1.2996    1.3733 C   0  0  0  0  0  0  0  0  0  0  0  0
    0.0104    0.9468    2.1646 O   0  0  0  0  0  0  0  0  0  0  0  0
   -2.1879    3.4017    1.7050 C   0  0  0  0  0  0  0  0  0  0  0  0
   -3.2085    1.8948    3.6787 H   0  0  0  0  0  0  0  0  0  0  0  0
   -3.0007    1.4665    1.1994 H   0  0  0  0  0  0  0  0  0  0  0  0
   -1.3888    3.8390    2.3147 H   0  0  0  0  0  0  0  0  0  0  0  0
   -2.0284    3.7240    0.6708 H   0  0  0  0  0  0  0  0  0  0  0  0
   -3.1380    3.8230    2.0508 H   0  0  0  0  0  0  0  0  0  0  0  0
   -0.7390    1.2565   -0.0101 N   0  0  0  0  0  0  0  0  0  0  0  0
    0.4383    0.7557   -0.6738 C   0  0  2  0  0  0  0  0  0  0  0  0
    0.0932   -0.6232   -1.2249 C   0  0  0  0  0  0  0  0  0  0  0  0
    0.4291   -0.9989   -2.3460 O   0  0  0  0  0  0  0  0  0  0  0  0
    1.6418    0.6658    0.2716 C   0  0  0  0  0  0  0  0  0  0  0  0
    2.0830    2.0149    0.7845 C   0  0  0  0  0  0  0  0  0  0  0  0
    2.7732    2.9017   -0.0062 N   0  3  0  0  0  0  0  0  0  0  0  0
    1.9296    2.6120    2.0038 C   0  0  0  0  0  0  0  0  0  0  0  0
    3.0399    4.0090    0.6939 C   0  0  0  0  0  0  0  0  0  0  0  0
    2.5315    3.8444    1.9194 N   0  0  0  0  0  0  0  0  0  0  0  0
   -1.5221    1.5532   -0.5874 H   0  0  0  0  0  0  0  0  0  0  0  0
    0.6391    1.4363   -1.5095 H   0  0  0  0  0  0  0  0  0  0  0  0
    2.4829    0.1680   -0.2297 H   0  0  0  0  0  0  0  0  0  0  0  0
    1.4046    0.0304    1.1351 H   0  0  0  0  0  0  0  0  0  0  0  0
    3.0426    2.7446   -0.9735 H   0  0  0  0  0  0  0  0  0  0  0  0
    1.4777    2.3459    2.9386 H   0  0  0  0  0  0  0  0  0  0  0  0
    3.5692    4.8761    0.3356 H   0  0  0  0  0  0  0  0  0  0  0  0
    2.5842    4.5266    2.6706 H   0  0  0  0  0  0  0  0  0  0  0  0
   -0.5894   -1.3977   -0.2971 N   0  0  0  0  0  0  0  0  0  0  0  0
   -1.0151   -2.7544   -0.5557 C   0  0  2  0  0  0  0  0  0  0  0  0
   -1.7526   -2.7700   -1.8881 C   0  0  0  0  0  0  0  0  0  0  0  0
   -2.2711   -1.7696   -2.3796 O   0  0  0  0  0  0  0  0  0  0  0  0
   -1.9023   -3.2785    0.5628 C   0  0  0  0  0  0  0  0  0  0  0  0
   -0.8002   -0.9904    0.6092 H   0  0  0  0  0  0  0  0  0  0  0  0
   -0.1067   -3.3616   -0.6333 H   0  0  0  0  0  0  0  0  0  0  0  0
   -2.8175   -2.6826    0.6557 H   0  0  0  0  0  0  0  0  0  0  0  0
   -2.2006   -4.3160    0.3793 H   0  0  0  0  0  0  0  0  0  0  0  0
   -1.3806   -3.2388    1.5251 H   0  0  0  0  0  0  0  0  0  0  0  0
   -1.8009   -4.0411   -2.4430 N   0  0  0  0  0  0  0  0  0  0  0  0
   -2.4566   -4.3189   -3.6996 C   0  0  0  0  0  0  0  0  0  0  0  0
   -1.3274   -4.8087   -1.9757 H   0  0  0  0  0  0  0  0  0  0  0  0
   -3.4978   -4.6201   -3.5117 H   0  0  0  0  0  0  0  0  0  0  0  0
   -2.4440   -3.4156   -4.3272 H   0  0  0  0  0  0  0  0  0  0  0  0
   -1.9274   -5.1325   -4.2172 H   0  0  0  0  0  0  0  0  0  0  0  0
 22 24  2  0  0  0  0
 24 26  1  0  0  0  0
 25 26  1  0  0  0  0
 23 25  2  0  0  0  0
 21 22  1  0  0  0  0
 22 23  1  0  0  0  0
  1  3  1  0  0  0  0
  1  7  1  0  0  0  0
  1  2  2  0  0  0  0
 36 37  1  0  0  0  0
 37 45  1  0  0  0  0
 37 38  2  0  0  0  0
  8  9  1  0  0  0  0
  9 17  1  0  0  0  0
  9 10  2  0  0  0  0
 18 19  1  0  0  0  0
 19 35  1  0  0  0  0
 19 20  2  0  0  0  0
 36 39  1  0  0  0  0
  8 11  1  0  0  0  0
 45 46  1  0  0  0  0
 18 21  1  0  0  0  0
 35 36  1  0  0  0  0
  7  8  1  0  0  0  0
 17 18  1  0  0  0  0
 24 32  1  0  0  0  0
 25 33  1  0  0  0  0
  3  4  1  0  0  0  0
  3  5  1  0  0  0  0
  3  6  1  0  0  0  0
 39 42  1  0  0  0  0
 39 43  1  0  0  0  0
 39 44  1  0  0  0  0
 11 14  1  0  0  0  0
 11 15  1  0  0  0  0
 11 16  1  0  0  0  0
 46 48  1  0  0  0  0
 46 49  1  0  0  0  0
 46 50  1  0  0  0  0
 21 29  1  0  0  0  0
 21 30  1  0  0  0  0
 36 41  1  0  0  0  0
  8 13  1  0  0  0  0
 18 28  1  0  0  0  0
 26 34  1  0  0  0  0
 23 31  1  0  0  0  0
 45 47  1  0  0  0  0
  7 12  1  0  0  0  0
 35 40  1  0  0  0  0
 17 27  1  0  0  0  0
M  CHG  1  23   1
M  END
$$$$

  -OEChem-05262214473D

 50 50  0     1  0  0  0  0  0999 V2000
   -1.6938    0.4865    3.8080 C   0  0  0  0  0  0  0  0  0  0  0  0
   -0.7464   -0.1282    3.3323 O   0  0  0  0  0  0  0  0  0  0  0  0
   -2.1257    0.2041    5.2087 C   0  0  0  0  0  0  0  0  0  0  0  0
   -2.8853   -0.5922    5.2621 H   0  0  0  0  0  0  0  0  0  0  0  0
   -1.2944   -0.1435    5.8430 H   0  0  0  0  0  0  0  0  0  0  0  0
   -2.5637    1.0590    5.7483 H   0  0  0  0  0  0  0  0  0  0  0  0
   -2.4435    1.4589    3.1669 N   0  0  0  0  0  0  0  0  0  0  0  0
   -2.1966    1.8850    1.8145 C   0  0  2  0  0  0  0  0  0  0  0  0
   -0.8617    1.2996    1.3733 C   0  0  0  0  0  0  0  0  0  0  0  0
    0.0104    0.9468    2.1646 O   0  0  0  0  0  0  0  0  0  0  0  0
   -2.1879    3.4017    1.7050 C   0  0  0  0  0  0  0  0  0  0  0  0
   -3.2085    1.8948    3.6787 H   0  0  0  0  0  0  0  0  0  0  0  0
   -3.0007    1.4665    1.1994 H   0  0  0  0  0  0  0  0  0  0  0  0
   -1.3888    3.8390    2.3147 H   0  0  0  0  0  0  0  0  0  0  0  0
   -2.0284    3.7240    0.6708 H   0  0  0  0  0  0  0  0  0  0  0  0
   -3.1380    3.8230    2.0508 H   0  0  0  0  0  0  0  0  0  0  0  0
   -0.7390    1.2565   -0.0101 N   0  0  0  0  0  0  0  0  0  0  0  0
    0.4383    0.7557   -0.6738 C   0  0  2  0  0  0  0  0  0  0  0  0
    0.0932   -0.6232   -1.2249 C   0  0  0  0  0  0  0  0  0  0  0  0
    0.6398   -1.1039   -2.2154 O   0  0  0  0  0  0  0  0  0  0  0  0
    1.6418    0.6658    0.2716 C   0  0  0  0  0  0  0  0  0  0  0  0
    2.0830    2.0149    0.7845 C   0  0  0  0  0  0  0  0  0  0  0  0
    2.7732    2.9017   -0.0062 N   0  3  0  0  0  0  0  0  0  0  0  0
    1.9296    2.6120    2.0038 C   0  0  0  0  0  0  0  0  0  0  0  0
    3.0399    4.0090    0.6939 C   0  0  0  0  0  0  0  0  0  0  0  0
    2.5315    3.8444    1.9194 N   0  0  0  0  0  0  0  0  0  0  0  0
   -1.5221    1.5532   -0.5874 H   0  0  0  0  0  0  0  0  0  0  0  0
    0.6391    1.4363   -1.5095 H   0  0  0  0  0  0  0  0  0  0  0  0
    2.4829    0.1680   -0.2297 H   0  0  0  0  0  0  0  0  0  0  0  0
    1.4046    0.0304    1.1351 H   0  0  0  0  0  0  0  0  0  0  0  0
    3.0426    2.7446   -0.9735 H   0  0  0  0  0  0  0  0  0  0  0  0
    1.4777    2.3459    2.9386 H   0  0  0  0  0  0  0  0  0  0  0  0
    3.5692    4.8761    0.3356 H   0  0  0  0  0  0  0  0  0  0  0  0
    2.5842    4.5266    2.6706 H   0  0  0  0  0  0  0  0  0  0  0  0
   -0.8598   -1.2690   -0.4495 N   0  0  0  0  0  0  0  0  0  0  0  0
   -1.3484   -2.5985   -0.7369 C   0  0  2  0  0  0  0  0  0  0  0  0
   -1.7554   -2.6431   -2.2038 C   0  0  0  0  0  0  0  0  0  0  0  0
   -2.0429   -1.6383   -2.8510 O   0  0  0  0  0  0  0  0  0  0  0  0
   -2.5182   -2.9646    0.1631 C   0  0  0  0  0  0  0  0  0  0  0  0
   -1.2325   -0.7829    0.3607 H   0  0  0  0  0  0  0  0  0  0  0  0
   -0.5124   -3.2860   -0.5682 H   0  0  0  0  0  0  0  0  0  0  0  0
   -3.3655   -2.2866    0.0082 H   0  0  0  0  0  0  0  0  0  0  0  0
   -2.8689   -3.9826   -0.0363 H   0  0  0  0  0  0  0  0  0  0  0  0
   -2.2320   -2.9032    1.2186 H   0  0  0  0  0  0  0  0  0  0  0  0
   -1.8016   -3.9409   -2.6934 N   0  0  0  0  0  0  0  0  0  0  0  0
   -2.1734   -4.2478   -4.0549 C   0  0  0  0  0  0  0  0  0  0  0  0
   -1.5286   -4.7121   -2.0914 H   0  0  0  0  0  0  0  0  0  0  0  0
   -3.2546   -4.4439   -4.1049 H   0  0  0  0  0  0  0  0  0  0  0  0
   -1.9251   -3.3949   -4.7038 H   0  0  0  0  0  0  0  0  0  0  0  0
   -1.6233   -5.1383   -4.3932 H   0  0  0  0  0  0  0  0  0  0  0  0
 22 24  2  0  0  0  0
 24 26  1  0  0  0  0
 25 26  1  0  0  0  0
 23 25  2  0  0  0  0
 21 22  1  0  0  0  0
 22 23  1  0  0  0  0
  1  3  1  0  0  0  0
  1  7  1  0  0  0  0
  1  2  2  0  0  0  0
 36 37  1  0  0  0  0
 37 45  1  0  0  0  0
 37 38  2  0  0  0  0
  8  9  1  0  0  0  0
  9 17  1  0  0  0  0
  9 10  2  0  0  0  0
 18 19  1  0  0  0  0
 19 35  1  0  0  0  0
 19 20  2  0  0  0  0
 36 39  1  0  0  0  0
  8 11  1  0  0  0  0
 45 46  1  0  0  0  0
 18 21  1  0  0  0  0
 35 36  1  0  0  0  0
  7  8  1  0  0  0  0
 17 18  1  0  0  0  0
 24 32  1  0  0  0  0
 25 33  1  0  0  0  0
  3  4  1  0  0  0  0
  3  5  1  0  0  0  0
  3  6  1  0  0  0  0
 39 42  1  0  0  0  0
 39 43  1  0  0  0  0
 39 44  1  0  0  0  0
 11 14  1  0  0  0  0
 11 15  1  0  0  0  0
 11 16  1  0  0  0  0
 46 48  1  0  0  0  0
 46 49  1  0  0  0  0
 46 50  1  0  0  0  0
 21 29  1  0  0  0  0
 21 30  1  0  0  0  0
 36 41  1  0  0  0  0
  8 13  1  0  0  0  0
 18 28  1  0  0  0  0
 26 34  1  0  0  0  0
 23 31  1  0  0  0  0
 45 47  1  0  0  0  0
  7 12  1  0  0  0  0
 35 40  1  0  0  0  0
 17 27  1  0  0  0  0
M  CHG  1  23   1
M  END
$$$$

  -OEChem-05262214473D

 50 50  0     1  0  0  0  0  0999 V2000
   -1.6938    0.4865    3.8080 C   0  0  0  0  0  0  0  0  0  0  0  0
   -0.7464   -0.1282    3.3323 O   0  0  0  0  0  0  0  0  0  0  0  0
   -2.1257    0.2041    5.2087 C   0  0  0  0  0  0  0  0  0  0  0  0
   -2.8853   -0.5922    5.2621 H   0  0  0  0  0  0  0  0  0  0  0  0
   -1.2944   -0.1435    5.8430 H   0  0  0  0  0  0  0  0  0  0  0  0
   -2.5637    1.0590    5.7483 H   0  0  0  0  0  0  0  0  0  0  0  0
   -2.4435    1.4589    3.1669 N   0  0  0  0  0  0  0  0  0  0  0  0
   -2.1966    1.8850    1.8145 C   0  0  2  0  0  0  0  0  0  0  0  0
   -0.8617    1.2996    1.3733 C   0  0  0  0  0  0  0  0  0  0  0  0
    0.0104    0.9468    2.1646 O   0  0  0  0  0  0  0  0  0  0  0  0
   -2.1879    3.4017    1.7050 C   0  0  0  0  0  0  0  0  0  0  0  0
   -3.2085    1.8948    3.6787 H   0  0  0  0  0  0  0  0  0  0  0  0
   -3.0007    1.4665    1.1994 H   0  0  0  0  0  0  0  0  0  0  0  0
   -1.3888    3.8390    2.3147 H   0  0  0  0  0  0  0  0  0  0  0  0
   -2.0284    3.7240    0.6708 H   0  0  0  0  0  0  0  0  0  0  0  0
   -3.1380    3.8230    2.0508 H   0  0  0  0  0  0  0  0  0  0  0  0
   -0.7390    1.2565   -0.0101 N   0  0  0  0  0  0  0  0  0  0  0  0
    0.4383    0.7557   -0.6738 C   0  0  2  0  0  0  0  0  0  0  0  0
    0.0932   -0.6232   -1.2249 C   0  0  0  0  0  0  0  0  0  0  0  0
    0.8029   -1.2173   -2.0338 O   0  0  0  0  0  0  0  0  0  0  0  0
    1.6418    0.6658    0.2716 C   0  0  0  0  0  0  0  0  0  0  0  0
    2.0830    2.0149    0.7845 C   0  0  0  0  0  0  0  0  0  0  0  0
    2.7732    2.9017   -0.0062 N   0  3  0  0  0  0  0  0  0  0  0  0
    1.9296    2.6120    2.0038 C   0  0  0  0  0  0  0  0  0  0  0  0
    3.0399    4.0090    0.6939 C   0  0  0  0  0  0  0  0  0  0  0  0
    2.5315    3.8444    1.9194 N   0  0  0  0  0  0  0  0  0  0  0  0
   -1.5221    1.5532   -0.5874 H   0  0  0  0  0  0  0  0  0  0  0  0
    0.6391    1.4363   -1.5095 H   0  0  0  0  0  0  0  0  0  0  0  0
    2.4829    0.1680   -0.2297 H   0  0  0  0  0  0  0  0  0  0  0  0
    1.4046    0.0304    1.1351 H   0  0  0  0  0  0  0  0  0  0  0  0
    3.0426    2.7446   -0.9735 H   0  0  0  0  0  0  0  0  0  0  0  0
    1.4777    2.3459    2.9386 H   0  0  0  0  0  0  0  0  0  0  0  0
    3.5692    4.8761    0.3356 H   0  0  0  0  0  0  0  0  0  0  0  0
    2.5842    4.5266    2.6706 H   0  0  0  0  0  0  0  0  0  0  0  0
   -1.0732   -1.1285   -0.6676 N   0  0  0  0  0  0  0  0  0  0  0  0
   -1.6133   -2.4274   -0.9991 C   0  0  2  0  0  0  0  0  0  0  0  0
   -1.6723   -2.5387   -2.5169 C   0  0  0  0  0  0  0  0  0  0  0  0
   -1.6998   -1.5604   -3.2607 O   0  0  0  0  0  0  0  0  0  0  0  0
   -2.9903   -2.6272   -0.3855 C   0  0  0  0  0  0  0  0  0  0  0  0
   -1.5725   -0.5565    0.0073 H   0  0  0  0  0  0  0  0  0  0  0  0
   -0.9125   -3.1713   -0.6048 H   0  0  0  0  0  0  0  0  0  0  0  0
   -3.7062   -1.8908   -0.7687 H   0  0  0  0  0  0  0  0  0  0  0  0
   -3.3858   -3.6224   -0.6138 H   0  0  0  0  0  0  0  0  0  0  0  0
   -2.9513   -2.5173    0.7036 H   0  0  0  0  0  0  0  0  0  0  0  0
   -1.7342   -3.8586   -2.9414 N   0  0  0  0  0  0  0  0  0  0  0  0
   -1.8100   -4.2264   -4.3360 C   0  0  0  0  0  0  0  0  0  0  0  0
   -1.6869   -4.6067   -2.2559 H   0  0  0  0  0  0  0  0  0  0  0  0
   -2.8644   -4.3311   -4.6314 H   0  0  0  0  0  0  0  0  0  0  0  0
   -1.3339   -3.4456   -4.9473 H   0  0  0  0  0  0  0  0  0  0  0  0
   -1.2890   -5.1826   -4.4918 H   0  0  0  0  0  0  0  0  0  0  0  0
 22 24  2  0  0  0  0
 24 26  1  0  0  0  0
 25 26  1  0  0  0  0
 23 25  2  0  0  0  0
 21 22  1  0  0  0  0
 22 23  1  0  0  0  0
  1  3  1  0  0  0  0
  1  7  1  0  0  0  0
  1  2  2  0  0  0  0
 36 37  1  0  0  0  0
 37 45  1  0  0  0  0
 37 38  2  0  0  0  0
  8  9  1  0  0  0  0
  9 17  1  0  0  0  0
  9 10  2  0  0  0  0
 18 19  1  0  0  0  0
 19 35  1  0  0  0  0
 19 20  2  0  0  0  0
 36 39  1  0  0  0  0
  8 11  1  0  0  0  0
 45 46  1  0  0  0  0
 18 21  1  0  0  0  0
 35 36  1  0  0  0  0
  7  8  1  0  0  0  0
 17 18  1  0  0  0  0
 24 32  1  0  0  0  0
 25 33  1  0  0  0  0
  3  4  1  0  0  0  0
  3  5  1  0  0  0  0
  3  6  1  0  0  0  0
 39 42  1  0  0  0  0
 39 43  1  0  0  0  0
 39 44  1  0  0  0  0
 11 14  1  0  0  0  0
 11 15  1  0  0  0  0
 11 16  1  0  0  0  0
 46 48  1  0  0  0  0
 46 49  1  0  0  0  0
 46 50  1  0  0  0  0
 21 29  1  0  0  0  0
 21 30  1  0  0  0  0
 36 41  1  0  0  0  0
  8 13  1  0  0  0  0
 18 28  1  0  0  0  0
 26 34  1  0  0  0  0
 23 31  1  0  0  0  0
 45 47  1  0  0  0  0
  7 12  1  0  0  0  0
 35 40  1  0  0  0  0
 17 27  1  0  0  0  0
M  CHG  1  23   1
M  END
$$$$

  -OEChem-05262214473D

 50 50  0     1  0  0  0  0  0999 V2000
   -1.6938    0.4865    3.8080 C   0  0  0  0  0  0  0  0  0  0  0  0
   -0.7464   -0.1282    3.3323 O   0  0  0  0  0  0  0  0  0  0  0  0
   -2.1257    0.2041    5.2087 C   0  0  0  0  0  0  0  0  0  0  0  0
   -2.8853   -0.5922    5.2621 H   0  0  0  0  0  0  0  0  0  0  0  0
   -1.2944   -0.1435    5.8430 H   0  0  0  0  0  0  0  0  0  0  0  0
   -2.5637    1.0590    5.7483 H   0  0  0  0  0  0  0  0  0  0  0  0
   -2.4435    1.4589    3.1669 N   0  0  0  0  0  0  0  0  0  0  0  0
   -2.1966    1.8850    1.8145 C   0  0  2  0  0  0  0  0  0  0  0  0
   -0.8617    1.2996    1.3733 C   0  0  0  0  0  0  0  0  0  0  0  0
    0.0104    0.9468    2.1646 O   0  0  0  0  0  0  0  0  0  0  0  0
   -2.1879    3.4017    1.7050 C   0  0  0  0  0  0  0  0  0  0  0  0
   -3.2085    1.8948    3.6787 H   0  0  0  0  0  0  0  0  0  0  0  0
   -3.0007    1.4665    1.1994 H   0  0  0  0  0  0  0  0  0  0  0  0
   -1.3888    3.8390    2.3147 H   0  0  0  0  0  0  0  0  0  0  0  0
   -2.0284    3.7240    0.6708 H   0  0  0  0  0  0  0  0  0  0  0  0
   -3.1380    3.8230    2.0508 H   0  0  0  0  0  0  0  0  0  0  0  0
   -0.7390    1.2565   -0.0101 N   0  0  0  0  0  0  0  0  0  0  0  0
    0.4383    0.7557   -0.6738 C   0  0  2  0  0  0  0  0  0  0  0  0
    0.0932   -0.6232   -1.2249 C   0  0  0  0  0  0  0  0  0  0  0  0
    0.9073   -1.3315   -1.8135 O   0  0  0  0  0  0  0  0  0  0  0  0
    1.6418    0.6658    0.2716 C   0  0  0  0  0  0  0  0  0  0  0  0
    2.0830    2.0149    0.7845 C   0  0  0  0  0  0  0  0  0  0  0  0
    2.7732    2.9017   -0.0062 N   0  3  0  0  0  0  0  0  0  0  0  0
    1.9296    2.6120    2.0038 C   0  0  0  0  0  0  0  0  0  0  0  0
    3.0399    4.0090    0.6939 C   0  0  0  0  0  0  0  0  0  0  0  0
    2.5315    3.8444    1.9194 N   0  0  0  0  0  0  0  0  0  0  0  0
   -1.5221    1.5532   -0.5874 H   0  0  0  0  0  0  0  0  0  0  0  0
    0.6391    1.4363   -1.5095 H   0  0  0  0  0  0  0  0  0  0  0  0
    2.4829    0.1680   -0.2297 H   0  0  0  0  0  0  0  0  0  0  0  0
    1.4046    0.0304    1.1351 H   0  0  0  0  0  0  0  0  0  0  0  0
    3.0426    2.7446   -0.9735 H   0  0  0  0  0  0  0  0  0  0  0  0
    1.4777    2.3459    2.9386 H   0  0  0  0  0  0  0  0  0  0  0  0
    3.5692    4.8761    0.3356 H   0  0  0  0  0  0  0  0  0  0  0  0
    2.5842    4.5266    2.6706 H   0  0  0  0  0  0  0  0  0  0  0  0
   -1.2152   -0.9855   -0.9364 N   0  0  0  0  0  0  0  0  0  0  0  0
   -1.7917   -2.2527   -1.3244 C   0  0  2  0  0  0  0  0  0  0  0  0
   -1.5090   -2.4641   -2.8059 C   0  0  0  0  0  0  0  0  0  0  0  0
   -1.2652   -1.5413   -3.5806 O   0  0  0  0  0  0  0  0  0  0  0  0
   -3.2863   -2.2892   -1.0457 C   0  0  0  0  0  0  0  0  0  0  0  0
   -1.7969   -0.3268   -0.4270 H   0  0  0  0  0  0  0  0  0  0  0  0
   -1.2796   -3.0252   -0.7405 H   0  0  0  0  0  0  0  0  0  0  0  0
   -3.8163   -1.5222   -1.6220 H   0  0  0  0  0  0  0  0  0  0  0  0
   -3.7163   -3.2600   -1.3137 H   0  0  0  0  0  0  0  0  0  0  0  0
   -3.4894   -2.1074    0.0152 H   0  0  0  0  0  0  0  0  0  0  0  0
   -1.6034   -3.8000   -3.1699 N   0  0  0  0  0  0  0  0  0  0  0  0
   -1.3911   -4.2562   -4.5237 C   0  0  0  0  0  0  0  0  0  0  0  0
   -1.7914   -4.4998   -2.4580 H   0  0  0  0  0  0  0  0  0  0  0  0
   -2.3537   -4.2896   -5.0551 H   0  0  0  0  0  0  0  0  0  0  0  0
   -0.7105   -3.5641   -5.0412 H   0  0  0  0  0  0  0  0  0  0  0  0
   -0.9471   -5.2624   -4.5060 H   0  0  0  0  0  0  0  0  0  0  0  0
 22 24  2  0  0  0  0
 24 26  1  0  0  0  0
 25 26  1  0  0  0  0
 23 25  2  0  0  0  0
 21 22  1  0  0  0  0
 22 23  1  0  0  0  0
  1  3  1  0  0  0  0
  1  7  1  0  0  0  0
  1  2  2  0  0  0  0
 36 37  1  0  0  0  0
 37 45  1  0  0  0  0
 37 38  2  0  0  0  0
  8  9  1  0  0  0  0
  9 17  1  0  0  0  0
  9 10  2  0  0  0  0
 18 19  1  0  0  0  0
 19 35  1  0  0  0  0
 19 20  2  0  0  0  0
 36 39  1  0  0  0  0
  8 11  1  0  0  0  0
 45 46  1  0  0  0  0
 18 21  1  0  0  0  0
 35 36  1  0  0  0  0
  7  8  1  0  0  0  0
 17 18  1  0  0  0  0
 24 32  1  0  0  0  0
 25 33  1  0  0  0  0
  3  4  1  0  0  0  0
  3  5  1  0  0  0  0
  3  6  1  0  0  0  0
 39 42  1  0  0  0  0
 39 43  1  0  0  0  0
 39 44  1  0  0  0  0
 11 14  1  0  0  0  0
 11 15  1  0  0  0  0
 11 16  1  0  0  0  0
 46 48  1  0  0  0  0
 46 49  1  0  0  0  0
 46 50  1  0  0  0  0
 21 29  1  0  0  0  0
 21 30  1  0  0  0  0
 36 41  1  0  0  0  0
  8 13  1  0  0  0  0
 18 28  1  0  0  0  0
 26 34  1  0  0  0  0
 23 31  1  0  0  0  0
 45 47  1  0  0  0  0
  7 12  1  0  0  0  0
 35 40  1  0  0  0  0
 17 27  1  0  0  0  0
M  CHG  1  23   1
M  END
$$$$

  -OEChem-05262214473D

 50 50  0     1  0  0  0  0  0999 V2000
   -1.6938    0.4865    3.8080 C   0  0  0  0  0  0  0  0  0  0  0  0
   -0.7464   -0.1282    3.3323 O   0  0  0  0  0  0  0  0  0  0  0  0
   -2.1257    0.2041    5.2087 C   0  0  0  0  0  0  0  0  0  0  0  0
   -2.8853   -0.5922    5.2621 H   0  0  0  0  0  0  0  0  0  0  0  0
   -1.2944   -0.1435    5.8430 H   0  0  0  0  0  0  0  0  0  0  0  0
   -2.5637    1.0590    5.7483 H   0  0  0  0  0  0  0  0  0  0  0  0
   -2.4435    1.4589    3.1669 N   0  0  0  0  0  0  0  0  0  0  0  0
   -2.1966    1.8850    1.8145 C   0  0  2  0  0  0  0  0  0  0  0  0
   -0.8617    1.2996    1.3733 C   0  0  0  0  0  0  0  0  0  0  0  0
    0.0104    0.9468    2.1646 O   0  0  0  0  0  0  0  0  0  0  0  0
   -2.1879    3.4017    1.7050 C   0  0  0  0  0  0  0  0  0  0  0  0
   -3.2085    1.8948    3.6787 H   0  0  0  0  0  0  0  0  0  0  0  0
   -3.0007    1.4665    1.1994 H   0  0  0  0  0  0  0  0  0  0  0  0
   -1.3888    3.8390    2.3147 H   0  0  0  0  0  0  0  0  0  0  0  0
   -2.0284    3.7240    0.6708 H   0  0  0  0  0  0  0  0  0  0  0  0
   -3.1380    3.8230    2.0508 H   0  0  0  0  0  0  0  0  0  0  0  0
   -0.7390    1.2565   -0.0101 N   0  0  0  0  0  0  0  0  0  0  0  0
    0.4383    0.7557   -0.6738 C   0  0  2  0  0  0  0  0  0  0  0  0
    0.0932   -0.6232   -1.2249 C   0  0  0  0  0  0  0  0  0  0  0  0
    0.9459   -1.4386   -1.5696 O   0  0  0  0  0  0  0  0  0  0  0  0
    1.6418    0.6658    0.2716 C   0  0  0  0  0  0  0  0  0  0  0  0
    2.0830    2.0149    0.7845 C   0  0  0  0  0  0  0  0  0  0  0  0
    2.7732    2.9017   -0.0062 N   0  3  0  0  0  0  0  0  0  0  0  0
    1.9296    2.6120    2.0038 C   0  0  0  0  0  0  0  0  0  0  0  0
    3.0399    4.0090    0.6939 C   0  0  0  0  0  0  0  0  0  0  0  0
    2.5315    3.8444    1.9194 N   0  0  0  0  0  0  0  0  0  0  0  0
   -1.5221    1.5532   -0.5874 H   0  0  0  0  0  0  0  0  0  0  0  0
    0.6391    1.4363   -1.5095 H   0  0  0  0  0  0  0  0  0  0  0  0
    2.4829    0.1680   -0.2297 H   0  0  0  0  0  0  0  0  0  0  0  0
    1.4046    0.0304    1.1351 H   0  0  0  0  0  0  0  0  0  0  0  0
    3.0426    2.7446   -0.9735 H   0  0  0  0  0  0  0  0  0  0  0  0
    1.4777    2.3459    2.9386 H   0  0  0  0  0  0  0  0  0  0  0  0
    3.5692    4.8761    0.3356 H   0  0  0  0  0  0  0  0  0  0  0  0
    2.5842    4.5266    2.6706 H   0  0  0  0  0  0  0  0  0  0  0  0
   -1.2761   -0.8498   -1.2377 N   0  0  0  0  0  0  0  0  0  0  0  0
   -1.8716   -2.0863   -1.6907 C   0  0  2  0  0  0  0  0  0  0  0  0
   -1.2766   -2.4242   -3.0513 C   0  0  0  0  0  0  0  0  0  0  0  0
   -0.7687   -1.5823   -3.7891 O   0  0  0  0  0  0  0  0  0  0  0  0
   -3.3860   -1.9738   -1.7725 C   0  0  0  0  0  0  0  0  0  0  0  0
   -1.8906   -0.1093   -0.9124 H   0  0  0  0  0  0  0  0  0  0  0  0
   -1.5888   -2.8576   -0.9660 H   0  0  0  0  0  0  0  0  0  0  0  0
   -3.6885   -1.2058   -2.4937 H   0  0  0  0  0  0  0  0  0  0  0  0
   -3.8377   -2.9199   -2.0883 H   0  0  0  0  0  0  0  0  0  0  0  0
   -3.8097   -1.7015   -0.7998 H   0  0  0  0  0  0  0  0  0  0  0  0
   -1.4181   -3.7691   -3.3634 N   0  0  0  0  0  0  0  0  0  0  0  0
   -0.9454   -4.3352   -4.6052 C   0  0  0  0  0  0  0  0  0  0  0  0
   -1.8350   -4.3985   -2.6839 H   0  0  0  0  0  0  0  0  0  0  0  0
   -1.7573   -4.3221   -5.3473 H   0  0  0  0  0  0  0  0  0  0  0  0
   -0.0975   -3.7424   -4.9790 H   0  0  0  0  0  0  0  0  0  0  0  0
   -0.6210   -5.3724   -4.4351 H   0  0  0  0  0  0  0  0  0  0  0  0
 22 24  2  0  0  0  0
 24 26  1  0  0  0  0
 25 26  1  0  0  0  0
 23 25  2  0  0  0  0
 21 22  1  0  0  0  0
 22 23  1  0  0  0  0
  1  3  1  0  0  0  0
  1  7  1  0  0  0  0
  1  2  2  0  0  0  0
 36 37  1  0  0  0  0
 37 45  1  0  0  0  0
 37 38  2  0  0  0  0
  8  9  1  0  0  0  0
  9 17  1  0  0  0  0
  9 10  2  0  0  0  0
 18 19  1  0  0  0  0
 19 35  1  0  0  0  0
 19 20  2  0  0  0  0
 36 39  1  0  0  0  0
  8 11  1  0  0  0  0
 45 46  1  0  0  0  0
 18 21  1  0  0  0  0
 35 36  1  0  0  0  0
  7  8  1  0  0  0  0
 17 18  1  0  0  0  0
 24 32  1  0  0  0  0
 25 33  1  0  0  0  0
  3  4  1  0  0  0  0
  3  5  1  0  0  0  0
  3  6  1  0  0  0  0
 39 42  1  0  0  0  0
 39 43  1  0  0  0  0
 39 44  1  0  0  0  0
 11 14  1  0  0  0  0
 11 15  1  0  0  0  0
 11 16  1  0  0  0  0
 46 48  1  0  0  0  0
 46 49  1  0  0  0  0
 46 50  1  0  0  0  0
 21 29  1  0  0  0  0
 21 30  1  0  0  0  0
 36 41  1  0  0  0  0
  8 13  1  0  0  0  0
 18 28  1  0  0  0  0
 26 34  1  0  0  0  0
 23 31  1  0  0  0  0
 45 47  1  0  0  0  0
  7 12  1  0  0  0  0
 35 40  1  0  0  0  0
 17 27  1  0  0  0  0
M  CHG  1  23   1
M  END
$$$$

  -OEChem-05262214473D

 50 50  0     1  0  0  0  0  0999 V2000
   -1.6938    0.4865    3.8080 C   0  0  0  0  0  0  0  0  0  0  0  0
   -0.7464   -0.1282    3.3323 O   0  0  0  0  0  0  0  0  0  0  0  0
   -2.1257    0.2041    5.2087 C   0  0  0  0  0  0  0  0  0  0  0  0
   -2.8853   -0.5922    5.2621 H   0  0  0  0  0  0  0  0  0  0  0  0
   -1.2944   -0.1435    5.8430 H   0  0  0  0  0  0  0  0  0  0  0  0
   -2.5637    1.0590    5.7483 H   0  0  0  0  0  0  0  0  0  0  0  0
   -2.4435    1.4589    3.1669 N   0  0  0  0  0  0  0  0  0  0  0  0
   -2.1966    1.8850    1.8145 C   0  0  2  0  0  0  0  0  0  0  0  0
   -0.8617    1.2996    1.3733 C   0  0  0  0  0  0  0  0  0  0  0  0
    0.0104    0.9468    2.1646 O   0  0  0  0  0  0  0  0  0  0  0  0
   -2.1879    3.4017    1.7050 C   0  0  0  0  0  0  0  0  0  0  0  0
   -3.2085    1.8948    3.6787 H   0  0  0  0  0  0  0  0  0  0  0  0
   -3.0007    1.4665    1.1994 H   0  0  0  0  0  0  0  0  0  0  0  0
   -1.3888    3.8390    2.3147 H   0  0  0  0  0  0  0  0  0  0  0  0
   -2.0284    3.7240    0.6708 H   0  0  0  0  0  0  0  0  0  0  0  0
   -3.1380    3.8230    2.0508 H   0  0  0  0  0  0  0  0  0  0  0  0
   -0.7390    1.2565   -0.0101 N   0  0  0  0  0  0  0  0  0  0  0  0
    0.4383    0.7557   -0.6738 C   0  0  2  0  0  0  0  0  0  0  0  0
    0.0932   -0.6232   -1.2249 C   0  0  0  0  0  0  0  0  0  0  0  0
    0.9161   -1.5314   -1.3187 O   0  0  0  0  0  0  0  0  0  0  0  0
    1.6418    0.6658    0.2716 C   0  0  0  0  0  0  0  0  0  0  0  0
    2.0830    2.0149    0.7845 C   0  0  0  0  0  0  0  0  0  0  0  0
    2.7732    2.9017   -0.0062 N   0  3  0  0  0  0  0  0  0  0  0  0
    1.9296    2.6120    2.0038 C   0  0  0  0  0  0  0  0  0  0  0  0
    3.0399    4.0090    0.6939 C   0  0  0  0  0  0  0  0  0  0  0  0
    2.5315    3.8444    1.9194 N   0  0  0  0  0  0  0  0  0  0  0  0
   -1.5221    1.5532   -0.5874 H   0  0  0  0  0  0  0  0  0  0  0  0
    0.6391    1.4363   -1.5095 H   0  0  0  0  0  0  0  0  0  0  0  0
    2.4829    0.1680   -0.2297 H   0  0  0  0  0  0  0  0  0  0  0  0
    1.4046    0.0304    1.1351 H   0  0  0  0  0  0  0  0  0  0  0  0
    3.0426    2.7446   -0.9735 H   0  0  0  0  0  0  0  0  0  0  0  0
    1.4777    2.3459    2.9386 H   0  0  0  0  0  0  0  0  0  0  0  0
    3.5692    4.8761    0.3356 H   0  0  0  0  0  0  0  0  0  0  0  0
    2.5842    4.5266    2.6706 H   0  0  0  0  0  0  0  0  0  0  0  0
   -1.2517   -0.7307   -1.5510 N   0  0  0  0  0  0  0  0  0  0  0  0
   -1.8475   -1.9396   -2.0729 C   0  0  2  0  0  0  0  0  0  0  0  0
   -0.9909   -2.4218   -3.2362 C   0  0  0  0  0  0  0  0  0  0  0  0
   -0.2442   -1.6805   -3.8718 O   0  0  0  0  0  0  0  0  0  0  0  0
   -3.2827   -1.7023   -2.5163 C   0  0  0  0  0  0  0  0  0  0  0  0
   -1.8471    0.0811   -1.4159 H   0  0  0  0  0  0  0  0  0  0  0  0
   -1.8189   -2.6801   -1.2661 H   0  0  0  0  0  0  0  0  0  0  0  0
   -3.3313   -0.9632   -3.3243 H   0  0  0  0  0  0  0  0  0  0  0  0
   -3.7418   -2.6255   -2.8849 H   0  0  0  0  0  0  0  0  0  0  0  0
   -3.8903   -1.3272   -1.6857 H   0  0  0  0  0  0  0  0  0  0  0  0
   -1.1909   -3.7678   -3.5088 N   0  0  0  0  0  0  0  0  0  0  0  0
   -0.5032   -4.4579   -4.5750 C   0  0  0  0  0  0  0  0  0  0  0  0
   -1.8148   -4.3099   -2.9183 H   0  0  0  0  0  0  0  0  0  0  0  0
   -1.1158   -4.4264   -5.4880 H   0  0  0  0  0  0  0  0  0  0  0  0
    0.4633   -3.9683   -4.7650 H   0  0  0  0  0  0  0  0  0  0  0  0
   -0.3328   -5.5050   -4.2839 H   0  0  0  0  0  0  0  0  0  0  0  0
 22 24  2  0  0  0  0
 24 26  1  0  0  0  0
 25 26  1  0  0  0  0
 23 25  2  0  0  0  0
 21 22  1  0  0  0  0
 22 23  1  0  0  0  0
  1  3  1  0  0  0  0
  1  7  1  0  0  0  0
  1  2  2  0  0  0  0
 36 37  1  0  0  0  0
 37 45  1  0  0  0  0
 37 38  2  0  0  0  0
  8  9  1  0  0  0  0
  9 17  1  0  0  0  0
  9 10  2  0  0  0  0
 18 19  1  0  0  0  0
 19 35  1  0  0  0  0
 19 20  2  0  0  0  0
 36 39  1  0  0  0  0
  8 11  1  0  0  0  0
 45 46  1  0  0  0  0
 18 21  1  0  0  0  0
 35 36  1  0  0  0  0
  7  8  1  0  0  0  0
 17 18  1  0  0  0  0
 24 32  1  0  0  0  0
 25 33  1  0  0  0  0
  3  4  1  0  0  0  0
  3  5  1  0  0  0  0
  3  6  1  0  0  0  0
 39 42  1  0  0  0  0
 39 43  1  0  0  0  0
 39 44  1  0  0  0  0
 11 14  1  0  0  0  0
 11 15  1  0  0  0  0
 11 16  1  0  0  0  0
 46 48  1  0  0  0  0
 46 49  1  0  0  0  0
 46 50  1  0  0  0  0
 21 29  1  0  0  0  0
 21 30  1  0  0  0  0
 36 41  1  0  0  0  0
  8 13  1  0  0  0  0
 18 28  1  0  0  0  0
 26 34  1  0  0  0  0
 23 31  1  0  0  0  0
 45 47  1  0  0  0  0
  7 12  1  0  0  0  0
 35 40  1  0  0  0  0
 17 27  1  0  0  0  0
M  CHG  1  23   1
M  END
$$$$

  -OEChem-05262214473D

 50 50  0     1  0  0  0  0  0999 V2000
   -1.6938    0.4865    3.8080 C   0  0  0  0  0  0  0  0  0  0  0  0
   -0.7464   -0.1282    3.3323 O   0  0  0  0  0  0  0  0  0  0  0  0
   -2.1257    0.2041    5.2087 C   0  0  0  0  0  0  0  0  0  0  0  0
   -2.8853   -0.5922    5.2621 H   0  0  0  0  0  0  0  0  0  0  0  0
   -1.2944   -0.1435    5.8430 H   0  0  0  0  0  0  0  0  0  0  0  0
   -2.5637    1.0590    5.7483 H   0  0  0  0  0  0  0  0  0  0  0  0
   -2.4435    1.4589    3.1669 N   0  0  0  0  0  0  0  0  0  0  0  0
   -2.1966    1.8850    1.8145 C   0  0  2  0  0  0  0  0  0  0  0  0
   -0.8617    1.2996    1.3733 C   0  0  0  0  0  0  0  0  0  0  0  0
    0.0104    0.9468    2.1646 O   0  0  0  0  0  0  0  0  0  0  0  0
   -2.1879    3.4017    1.7050 C   0  0  0  0  0  0  0  0  0  0  0  0
   -3.2085    1.8948    3.6787 H   0  0  0  0  0  0  0  0  0  0  0  0
   -3.0007    1.4665    1.1994 H   0  0  0  0  0  0  0  0  0  0  0  0
   -1.3888    3.8390    2.3147 H   0  0  0  0  0  0  0  0  0  0  0  0
   -2.0284    3.7240    0.6708 H   0  0  0  0  0  0  0  0  0  0  0  0
   -3.1380    3.8230    2.0508 H   0  0  0  0  0  0  0  0  0  0  0  0
   -0.7390    1.2565   -0.0101 N   0  0  0  0  0  0  0  0  0  0  0  0
    0.4383    0.7557   -0.6738 C   0  0  2  0  0  0  0  0  0  0  0  0
    0.0932   -0.6232   -1.2249 C   0  0  0  0  0  0  0  0  0  0  0  0
    0.8199   -1.6036   -1.0779 O   0  0  0  0  0  0  0  0  0  0  0  0
    1.6418    0.6658    0.2716 C   0  0  0  0  0  0  0  0  0  0  0  0
    2.0830    2.0149    0.7845 C   0  0  0  0  0  0  0  0  0  0  0  0
    2.7732    2.9017   -0.0062 N   0  3  0  0  0  0  0  0  0  0  0  0
    1.9296    2.6120    2.0038 C   0  0  0  0  0  0  0  0  0  0  0  0
    3.0399    4.0090    0.6939 C   0  0  0  0  0  0  0  0  0  0  0  0
    2.5315    3.8444    1.9194 N   0  0  0  0  0  0  0  0  0  0  0  0
   -1.5221    1.5532   -0.5874 H   0  0  0  0  0  0  0  0  0  0  0  0
    0.6391    1.4363   -1.5095 H   0  0  0  0  0  0  0  0  0  0  0  0
    2.4829    0.1680   -0.2297 H   0  0  0  0  0  0  0  0  0  0  0  0
    1.4046    0.0304    1.1351 H   0  0  0  0  0  0  0  0  0  0  0  0
    3.0426    2.7446   -0.9735 H   0  0  0  0  0  0  0  0  0  0  0  0
    1.4777    2.3459    2.9386 H   0  0  0  0  0  0  0  0  0  0  0  0
    3.5692    4.8761    0.3356 H   0  0  0  0  0  0  0  0  0  0  0  0
    2.5842    4.5266    2.6706 H   0  0  0  0  0  0  0  0  0  0  0  0
   -1.1436   -0.6363   -1.8548 N   0  0  0  0  0  0  0  0  0  0  0  0
   -1.7210   -1.8225   -2.4450 C   0  0  2  0  0  0  0  0  0  0  0  0
   -0.6715   -2.4570   -3.3481 C   0  0  0  0  0  0  0  0  0  0  0  0
    0.2727   -1.8293   -3.8231 O   0  0  0  0  0  0  0  0  0  0  0  0
   -2.9833   -1.4934   -3.2265 C   0  0  0  0  0  0  0  0  0  0  0  0
   -1.6694    0.2314   -1.9033 H   0  0  0  0  0  0  0  0  0  0  0  0
   -1.9544   -2.5046   -1.6202 H   0  0  0  0  0  0  0  0  0  0  0  0
   -2.7692   -0.8109   -4.0571 H   0  0  0  0  0  0  0  0  0  0  0  0
   -3.4352   -2.3968   -3.6492 H   0  0  0  0  0  0  0  0  0  0  0  0
   -3.7257   -1.0101   -2.5822 H   0  0  0  0  0  0  0  0  0  0  0  0
   -0.9373   -3.7964   -3.5961 N   0  0  0  0  0  0  0  0  0  0  0  0
   -0.0946   -4.6161   -4.4350 C   0  0  0  0  0  0  0  0  0  0  0  0
   -1.7321   -4.2399   -3.1452 H   0  0  0  0  0  0  0  0  0  0  0  0
   -0.4731   -4.5954   -5.4677 H   0  0  0  0  0  0  0  0  0  0  0  0
    0.9339   -4.2265   -4.4137 H   0  0  0  0  0  0  0  0  0  0  0  0
   -0.1024   -5.6511   -4.0625 H   0  0  0  0  0  0  0  0  0  0  0  0
 22 24  2  0  0  0  0
 24 26  1  0  0  0  0
 25 26  1  0  0  0  0
 23 25  2  0  0  0  0
 21 22  1  0  0  0  0
 22 23  1  0  0  0  0
  1  3  1  0  0  0  0
  1  7  1  0  0  0  0
  1  2  2  0  0  0  0
 36 37  1  0  0  0  0
 37 45  1  0  0  0  0
 37 38  2  0  0  0  0
  8  9  1  0  0  0  0
  9 17  1  0  0  0  0
  9 10  2  0  0  0  0
 18 19  1  0  0  0  0
 19 35  1  0  0  0  0
 19 20  2  0  0  0  0
 36 39  1  0  0  0  0
  8 11  1  0  0  0  0
 45 46  1  0  0  0  0
 18 21  1  0  0  0  0
 35 36  1  0  0  0  0
  7  8  1  0  0  0  0
 17 18  1  0  0  0  0
 24 32  1  0  0  0  0
 25 33  1  0  0  0  0
  3  4  1  0  0  0  0
  3  5  1  0  0  0  0
  3  6  1  0  0  0  0
 39 42  1  0  0  0  0
 39 43  1  0  0  0  0
 39 44  1  0  0  0  0
 11 14  1  0  0  0  0
 11 15  1  0  0  0  0
 11 16  1  0  0  0  0
 46 48  1  0  0  0  0
 46 49  1  0  0  0  0
 46 50  1  0  0  0  0
 21 29  1  0  0  0  0
 21 30  1  0  0  0  0
 36 41  1  0  0  0  0
  8 13  1  0  0  0  0
 18 28  1  0  0  0  0
 26 34  1  0  0  0  0
 23 31  1  0  0  0  0
 45 47  1  0  0  0  0
  7 12  1  0  0  0  0
 35 40  1  0  0  0  0
 17 27  1  0  0  0  0
M  CHG  1  23   1
M  END
$$$$

  -OEChem-05262214473D

 50 50  0     1  0  0  0  0  0999 V2000
   -1.6938    0.4865    3.8080 C   0  0  0  0  0  0  0  0  0  0  0  0
   -0.7464   -0.1282    3.3323 O   0  0  0  0  0  0  0  0  0  0  0  0
   -2.1257    0.2041    5.2087 C   0  0  0  0  0  0  0  0  0  0  0  0
   -2.8853   -0.5922    5.2621 H   0  0  0  0  0  0  0  0  0  0  0  0
   -1.2944   -0.1435    5.8430 H   0  0  0  0  0  0  0  0  0  0  0  0
   -2.5637    1.0590    5.7483 H   0  0  0  0  0  0  0  0  0  0  0  0
   -2.4435    1.4589    3.1669 N   0  0  0  0  0  0  0  0  0  0  0  0
   -2.1966    1.8850    1.8145 C   0  0  2  0  0  0  0  0  0  0  0  0
   -0.8617    1.2996    1.3733 C   0  0  0  0  0  0  0  0  0  0  0  0
    0.0104    0.9468    2.1646 O   0  0  0  0  0  0  0  0  0  0  0  0
   -2.1879    3.4017    1.7050 C   0  0  0  0  0  0  0  0  0  0  0  0
   -3.2085    1.8948    3.6787 H   0  0  0  0  0  0  0  0  0  0  0  0
   -3.0007    1.4665    1.1994 H   0  0  0  0  0  0  0  0  0  0  0  0
   -1.3888    3.8390    2.3147 H   0  0  0  0  0  0  0  0  0  0  0  0
   -2.0284    3.7240    0.6708 H   0  0  0  0  0  0  0  0  0  0  0  0
   -3.1380    3.8230    2.0508 H   0  0  0  0  0  0  0  0  0  0  0  0
   -0.7390    1.2565   -0.0101 N   0  0  0  0  0  0  0  0  0  0  0  0
    0.4383    0.7557   -0.6738 C   0  0  2  0  0  0  0  0  0  0  0  0
    0.0932   -0.6232   -1.2249 C   0  0  0  0  0  0  0  0  0  0  0  0
    0.6638   -1.6502   -0.8636 O   0  0  0  0  0  0  0  0  0  0  0  0
    1.6418    0.6658    0.2716 C   0  0  0  0  0  0  0  0  0  0  0  0
    2.0830    2.0149    0.7845 C   0  0  0  0  0  0  0  0  0  0  0  0
    2.7732    2.9017   -0.0062 N   0  3  0  0  0  0  0  0  0  0  0  0
    1.9296    2.6120    2.0038 C   0  0  0  0  0  0  0  0  0  0  0  0
    3.0399    4.0090    0.6939 C   0  0  0  0  0  0  0  0  0  0  0  0
    2.5315    3.8444    1.9194 N   0  0  0  0  0  0  0  0  0  0  0  0
   -1.5221    1.5532   -0.5874 H   0  0  0  0  0  0  0  0  0  0  0  0
    0.6391    1.4363   -1.5095 H   0  0  0  0  0  0  0  0  0  0  0  0
    2.4829    0.1680   -0.2297 H   0  0  0  0  0  0  0  0  0  0  0  0
    1.4046    0.0304    1.1351 H   0  0  0  0  0  0  0  0  0  0  0  0
    3.0426    2.7446   -0.9735 H   0  0  0  0  0  0  0  0  0  0  0  0
    1.4777    2.3459    2.9386 H   0  0  0  0  0  0  0  0  0  0  0  0
    3.5692    4.8761    0.3356 H   0  0  0  0  0  0  0  0  0  0  0  0
    2.5842    4.5266    2.6706 H   0  0  0  0  0  0  0  0  0  0  0  0
   -0.9592   -0.5731   -2.1284 N   0  0  0  0  0  0  0  0  0  0  0  0
   -1.5007   -1.7431   -2.7817 C   0  0  2  0  0  0  0  0  0  0  0  0
   -0.3401   -2.5275   -3.3793 C   0  0  0  0  0  0  0  0  0  0  0  0
    0.7466   -2.0185   -3.6464 O   0  0  0  0  0  0  0  0  0  0  0  0
   -2.5084   -1.3611   -3.8547 C   0  0  0  0  0  0  0  0  0  0  0  0
   -1.3695    0.3314   -2.3413 H   0  0  0  0  0  0  0  0  0  0  0  0
   -1.9860   -2.3432   -2.0043 H   0  0  0  0  0  0  0  0  0  0  0  0
   -2.0404   -0.7594   -4.6424 H   0  0  0  0  0  0  0  0  0  0  0  0
   -2.9388   -2.2493   -4.3290 H   0  0  0  0  0  0  0  0  0  0  0  0
   -3.3272   -0.7716   -3.4283 H   0  0  0  0  0  0  0  0  0  0  0  0
   -0.6746   -3.8528   -3.6194 N   0  0  0  0  0  0  0  0  0  0  0  0
    0.2525   -4.7990   -4.1950 C   0  0  0  0  0  0  0  0  0  0  0  0
   -1.5926   -4.1933   -3.3491 H   0  0  0  0  0  0  0  0  0  0  0  0
    0.1272   -4.8176   -5.2876 H   0  0  0  0  0  0  0  0  0  0  0  0
    1.2820   -4.4993   -3.9491 H   0  0  0  0  0  0  0  0  0  0  0  0
    0.0548   -5.8009   -3.7862 H   0  0  0  0  0  0  0  0  0  0  0  0
 22 24  2  0  0  0  0
 24 26  1  0  0  0  0
 25 26  1  0  0  0  0
 23 25  2  0  0  0  0
 21 22  1  0  0  0  0
 22 23  1  0  0  0  0
  1  3  1  0  0  0  0
  1  7  1  0  0  0  0
  1  2  2  0  0  0  0
 36 37  1  0  0  0  0
 37 45  1  0  0  0  0
 37 38  2  0  0  0  0
  8  9  1  0  0  0  0
  9 17  1  0  0  0  0
  9 10  2  0  0  0  0
 18 19  1  0  0  0  0
 19 35  1  0  0  0  0
 19 20  2  0  0  0  0
 36 39  1  0  0  0  0
  8 11  1  0  0  0  0
 45 46  1  0  0  0  0
 18 21  1  0  0  0  0
 35 36  1  0  0  0  0
  7  8  1  0  0  0  0
 17 18  1  0  0  0  0
 24 32  1  0  0  0  0
 25 33  1  0  0  0  0
  3  4  1  0  0  0  0
  3  5  1  0  0  0  0
  3  6  1  0  0  0  0
 39 42  1  0  0  0  0
 39 43  1  0  0  0  0
 39 44  1  0  0  0  0
 11 14  1  0  0  0  0
 11 15  1  0  0  0  0
 11 16  1  0  0  0  0
 46 48  1  0  0  0  0
 46 49  1  0  0  0  0
 46 50  1  0  0  0  0
 21 29  1  0  0  0  0
 21 30  1  0  0  0  0
 36 41  1  0  0  0  0
  8 13  1  0  0  0  0
 18 28  1  0  0  0  0
 26 34  1  0  0  0  0
 23 31  1  0  0  0  0
 45 47  1  0  0  0  0
  7 12  1  0  0  0  0
 35 40  1  0  0  0  0
 17 27  1  0  0  0  0
M  CHG  1  23   1
M  END
$$$$

  -OEChem-05262214473D

 50 50  0     1  0  0  0  0  0999 V2000
   -1.6938    0.4865    3.8080 C   0  0  0  0  0  0  0  0  0  0  0  0
   -0.7464   -0.1282    3.3323 O   0  0  0  0  0  0  0  0  0  0  0  0
   -2.1257    0.2041    5.2087 C   0  0  0  0  0  0  0  0  0  0  0  0
   -2.8853   -0.5922    5.2621 H   0  0  0  0  0  0  0  0  0  0  0  0
   -1.2944   -0.1435    5.8430 H   0  0  0  0  0  0  0  0  0  0  0  0
   -2.5637    1.0590    5.7483 H   0  0  0  0  0  0  0  0  0  0  0  0
   -2.4435    1.4589    3.1669 N   0  0  0  0  0  0  0  0  0  0  0  0
   -2.1966    1.8850    1.8145 C   0  0  2  0  0  0  0  0  0  0  0  0
   -0.8617    1.2996    1.3733 C   0  0  0  0  0  0  0  0  0  0  0  0
    0.0104    0.9468    2.1646 O   0  0  0  0  0  0  0  0  0  0  0  0
   -2.1879    3.4017    1.7050 C   0  0  0  0  0  0  0  0  0  0  0  0
   -3.2085    1.8948    3.6787 H   0  0  0  0  0  0  0  0  0  0  0  0
   -3.0007    1.4665    1.1994 H   0  0  0  0  0  0  0  0  0  0  0  0
   -1.3888    3.8390    2.3147 H   0  0  0  0  0  0  0  0  0  0  0  0
   -2.0284    3.7240    0.6708 H   0  0  0  0  0  0  0  0  0  0  0  0
   -3.1380    3.8230    2.0508 H   0  0  0  0  0  0  0  0  0  0  0  0
   -0.7390    1.2565   -0.0101 N   0  0  0  0  0  0  0  0  0  0  0  0
    0.4383    0.7557   -0.6738 C   0  0  2  0  0  0  0  0  0  0  0  0
    0.0932   -0.6232   -1.2249 C   0  0  0  0  0  0  0  0  0  0  0  0
    0.4585   -1.6680   -0.6904 O   0  0  0  0  0  0  0  0  0  0  0  0
    1.6418    0.6658    0.2716 C   0  0  0  0  0  0  0  0  0  0  0  0
    2.0830    2.0149    0.7845 C   0  0  0  0  0  0  0  0  0  0  0  0
    2.7732    2.9017   -0.0062 N   0  3  0  0  0  0  0  0  0  0  0  0
    1.9296    2.6120    2.0038 C   0  0  0  0  0  0  0  0  0  0  0  0
    3.0399    4.0090    0.6939 C   0  0  0  0  0  0  0  0  0  0  0  0
    2.5315    3.8444    1.9194 N   0  0  0  0  0  0  0  0  0  0  0  0
   -1.5221    1.5532   -0.5874 H   0  0  0  0  0  0  0  0  0  0  0  0
    0.6391    1.4363   -1.5095 H   0  0  0  0  0  0  0  0  0  0  0  0
    2.4829    0.1680   -0.2297 H   0  0  0  0  0  0  0  0  0  0  0  0
    1.4046    0.0304    1.1351 H   0  0  0  0  0  0  0  0  0  0  0  0
    3.0426    2.7446   -0.9735 H   0  0  0  0  0  0  0  0  0  0  0  0
    1.4777    2.3459    2.9386 H   0  0  0  0  0  0  0  0  0  0  0  0
    3.5692    4.8761    0.3356 H   0  0  0  0  0  0  0  0  0  0  0  0
    2.5842    4.5266    2.6706 H   0  0  0  0  0  0  0  0  0  0  0  0
   -0.7112   -0.5453   -2.3534 N   0  0  0  0  0  0  0  0  0  0  0  0
   -1.2017   -1.7067   -3.0600 C   0  0  2  0  0  0  0  0  0  0  0  0
   -0.0192   -2.6284   -3.3278 C   0  0  0  0  0  0  0  0  0  0  0  0
    1.1452   -2.2353   -3.3537 O   0  0  0  0  0  0  0  0  0  0  0  0
   -1.8902   -1.3147   -4.3581 C   0  0  0  0  0  0  0  0  0  0  0  0
   -0.9681    0.3743   -2.7000 H   0  0  0  0  0  0  0  0  0  0  0  0
   -1.9114   -2.2069   -2.3921 H   0  0  0  0  0  0  0  0  0  0  0  0
   -1.1947   -0.8121   -5.0401 H   0  0  0  0  0  0  0  0  0  0  0  0
   -2.2863   -2.1932   -4.8781 H   0  0  0  0  0  0  0  0  0  0  0  0
   -2.7219   -0.6282   -4.1662 H   0  0  0  0  0  0  0  0  0  0  0  0
   -0.4206   -3.9333   -3.5771 N   0  0  0  0  0  0  0  0  0  0  0  0
    0.5145   -4.9940   -3.8711 C   0  0  0  0  0  0  0  0  0  0  0  0
   -1.4057   -4.1733   -3.5161 H   0  0  0  0  0  0  0  0  0  0  0  0
    0.6441   -5.0778   -4.9602 H   0  0  0  0  0  0  0  0  0  0  0  0
    1.4839   -4.7682   -3.4029 H   0  0  0  0  0  0  0  0  0  0  0  0
    0.1279   -5.9441   -3.4738 H   0  0  0  0  0  0  0  0  0  0  0  0
 22 24  2  0  0  0  0
 24 26  1  0  0  0  0
 25 26  1  0  0  0  0
 23 25  2  0  0  0  0
 21 22  1  0  0  0  0
 22 23  1  0  0  0  0
  1  3  1  0  0  0  0
  1  7  1  0  0  0  0
  1  2  2  0  0  0  0
 36 37  1  0  0  0  0
 37 45  1  0  0  0  0
 37 38  2  0  0  0  0
  8  9  1  0  0  0  0
  9 17  1  0  0  0  0
  9 10  2  0  0  0  0
 18 19  1  0  0  0  0
 19 35  1  0  0  0  0
 19 20  2  0  0  0  0
 36 39  1  0  0  0  0
  8 11  1  0  0  0  0
 45 46  1  0  0  0  0
 18 21  1  0  0  0  0
 35 36  1  0  0  0  0
  7  8  1  0  0  0  0
 17 18  1  0  0  0  0
 24 32  1  0  0  0  0
 25 33  1  0  0  0  0
  3  4  1  0  0  0  0
  3  5  1  0  0  0  0
  3  6  1  0  0  0  0
 39 42  1  0  0  0  0
 39 43  1  0  0  0  0
 39 44  1  0  0  0  0
 11 14  1  0  0  0  0
 11 15  1  0  0  0  0
 11 16  1  0  0  0  0
 46 48  1  0  0  0  0
 46 49  1  0  0  0  0
 46 50  1  0  0  0  0
 21 29  1  0  0  0  0
 21 30  1  0  0  0  0
 36 41  1  0  0  0  0
  8 13  1  0  0  0  0
 18 28  1  0  0  0  0
 26 34  1  0  0  0  0
 23 31  1  0  0  0  0
 45 47  1  0  0  0  0
  7 12  1  0  0  0  0
 35 40  1  0  0  0  0
 17 27  1  0  0  0  0
M  CHG  1  23   1
M  END
$$$$

  -OEChem-05262214473D

 50 50  0     1  0  0  0  0  0999 V2000
   -1.6938    0.4865    3.8080 C   0  0  0  0  0  0  0  0  0  0  0  0
   -0.7464   -0.1282    3.3323 O   0  0  0  0  0  0  0  0  0  0  0  0
   -2.1257    0.2041    5.2087 C   0  0  0  0  0  0  0  0  0  0  0  0
   -2.8853   -0.5922    5.2621 H   0  0  0  0  0  0  0  0  0  0  0  0
   -1.2944   -0.1435    5.8430 H   0  0  0  0  0  0  0  0  0  0  0  0
   -2.5637    1.0590    5.7483 H   0  0  0  0  0  0  0  0  0  0  0  0
   -2.4435    1.4589    3.1669 N   0  0  0  0  0  0  0  0  0  0  0  0
   -2.1966    1.8850    1.8145 C   0  0  2  0  0  0  0  0  0  0  0  0
   -0.8617    1.2996    1.3733 C   0  0  0  0  0  0  0  0  0  0  0  0
    0.0104    0.9468    2.1646 O   0  0  0  0  0  0  0  0  0  0  0  0
   -2.1879    3.4017    1.7050 C   0  0  0  0  0  0  0  0  0  0  0  0
   -3.2085    1.8948    3.6787 H   0  0  0  0  0  0  0  0  0  0  0  0
   -3.0007    1.4665    1.1994 H   0  0  0  0  0  0  0  0  0  0  0  0
   -1.3888    3.8390    2.3147 H   0  0  0  0  0  0  0  0  0  0  0  0
   -2.0284    3.7240    0.6708 H   0  0  0  0  0  0  0  0  0  0  0  0
   -3.1380    3.8230    2.0508 H   0  0  0  0  0  0  0  0  0  0  0  0
   -0.7390    1.2565   -0.0101 N   0  0  0  0  0  0  0  0  0  0  0  0
    0.4383    0.7557   -0.6738 C   0  0  2  0  0  0  0  0  0  0  0  0
    0.0932   -0.6232   -1.2249 C   0  0  0  0  0  0  0  0  0  0  0  0
    0.2180   -1.6559   -0.5702 O   0  0  0  0  0  0  0  0  0  0  0  0
    1.6418    0.6658    0.2716 C   0  0  0  0  0  0  0  0  0  0  0  0
    2.0830    2.0149    0.7845 C   0  0  0  0  0  0  0  0  0  0  0  0
    2.7732    2.9017   -0.0062 N   0  3  0  0  0  0  0  0  0  0  0  0
    1.9296    2.6120    2.0038 C   0  0  0  0  0  0  0  0  0  0  0  0
    3.0399    4.0090    0.6939 C   0  0  0  0  0  0  0  0  0  0  0  0
    2.5315    3.8444    1.9194 N   0  0  0  0  0  0  0  0  0  0  0  0
   -1.5221    1.5532   -0.5874 H   0  0  0  0  0  0  0  0  0  0  0  0
    0.6391    1.4363   -1.5095 H   0  0  0  0  0  0  0  0  0  0  0  0
    2.4829    0.1680   -0.2297 H   0  0  0  0  0  0  0  0  0  0  0  0
    1.4046    0.0304    1.1351 H   0  0  0  0  0  0  0  0  0  0  0  0
    3.0426    2.7446   -0.9735 H   0  0  0  0  0  0  0  0  0  0  0  0
    1.4777    2.3459    2.9386 H   0  0  0  0  0  0  0  0  0  0  0  0
    3.5692    4.8761    0.3356 H   0  0  0  0  0  0  0  0  0  0  0  0
    2.5842    4.5266    2.6706 H   0  0  0  0  0  0  0  0  0  0  0  0
   -0.4163   -0.5548   -2.5142 N   0  0  0  0  0  0  0  0  0  0  0  0
   -0.8443   -1.7158   -3.2609 C   0  0  2  0  0  0  0  0  0  0  0  0
    0.2692   -2.7529   -3.1970 C   0  0  0  0  0  0  0  0  0  0  0  0
    1.4415   -2.4649   -2.9649 O   0  0  0  0  0  0  0  0  0  0  0  0
   -1.1709   -1.3571   -4.7023 C   0  0  0  0  0  0  0  0  0  0  0  0
   -0.4923    0.3572   -2.9550 H   0  0  0  0  0  0  0  0  0  0  0  0
   -1.7359   -2.1049   -2.7572 H   0  0  0  0  0  0  0  0  0  0  0  0
   -0.2896   -0.9655   -5.2232 H   0  0  0  0  0  0  0  0  0  0  0  0
   -1.5222   -2.2321   -5.2590 H   0  0  0  0  0  0  0  0  0  0  0  0
   -1.9511   -0.5895   -4.7457 H   0  0  0  0  0  0  0  0  0  0  0  0
   -0.1928   -4.0323   -3.4721 N   0  0  0  0  0  0  0  0  0  0  0  0
    0.6735   -5.1879   -3.4855 C   0  0  0  0  0  0  0  0  0  0  0  0
   -1.1843   -4.1813   -3.6348 H   0  0  0  0  0  0  0  0  0  0  0  0
    1.0424   -5.3584   -4.5077 H   0  0  0  0  0  0  0  0  0  0  0  0
    1.5260   -5.0148   -2.8123 H   0  0  0  0  0  0  0  0  0  0  0  0
    0.1119   -6.0709   -3.1465 H   0  0  0  0  0  0  0  0  0  0  0  0
 22 24  2  0  0  0  0
 24 26  1  0  0  0  0
 25 26  1  0  0  0  0
 23 25  2  0  0  0  0
 21 22  1  0  0  0  0
 22 23  1  0  0  0  0
  1  3  1  0  0  0  0
  1  7  1  0  0  0  0
  1  2  2  0  0  0  0
 36 37  1  0  0  0  0
 37 45  1  0  0  0  0
 37 38  2  0  0  0  0
  8  9  1  0  0  0  0
  9 17  1  0  0  0  0
  9 10  2  0  0  0  0
 18 19  1  0  0  0  0
 19 35  1  0  0  0  0
 19 20  2  0  0  0  0
 36 39  1  0  0  0  0
  8 11  1  0  0  0  0
 45 46  1  0  0  0  0
 18 21  1  0  0  0  0
 35 36  1  0  0  0  0
  7  8  1  0  0  0  0
 17 18  1  0  0  0  0
 24 32  1  0  0  0  0
 25 33  1  0  0  0  0
  3  4  1  0  0  0  0
  3  5  1  0  0  0  0
  3  6  1  0  0  0  0
 39 42  1  0  0  0  0
 39 43  1  0  0  0  0
 39 44  1  0  0  0  0
 11 14  1  0  0  0  0
 11 15  1  0  0  0  0
 11 16  1  0  0  0  0
 46 48  1  0  0  0  0
 46 49  1  0  0  0  0
 46 50  1  0  0  0  0
 21 29  1  0  0  0  0
 21 30  1  0  0  0  0
 36 41  1  0  0  0  0
  8 13  1  0  0  0  0
 18 28  1  0  0  0  0
 26 34  1  0  0  0  0
 23 31  1  0  0  0  0
 45 47  1  0  0  0  0
  7 12  1  0  0  0  0
 35 40  1  0  0  0  0
 17 27  1  0  0  0  0
M  CHG  1  23   1
M  END
$$$$

  -OEChem-05262214473D

 50 50  0     1  0  0  0  0  0999 V2000
   -1.6938    0.4865    3.8080 C   0  0  0  0  0  0  0  0  0  0  0  0
   -0.7464   -0.1282    3.3323 O   0  0  0  0  0  0  0  0  0  0  0  0
   -2.1257    0.2041    5.2087 C   0  0  0  0  0  0  0  0  0  0  0  0
   -2.8853   -0.5922    5.2621 H   0  0  0  0  0  0  0  0  0  0  0  0
   -1.2944   -0.1435    5.8430 H   0  0  0  0  0  0  0  0  0  0  0  0
   -2.5637    1.0590    5.7483 H   0  0  0  0  0  0  0  0  0  0  0  0
   -2.4435    1.4589    3.1669 N   0  0  0  0  0  0  0  0  0  0  0  0
   -2.1966    1.8850    1.8145 C   0  0  2  0  0  0  0  0  0  0  0  0
   -0.8617    1.2996    1.3733 C   0  0  0  0  0  0  0  0  0  0  0  0
    0.0104    0.9468    2.1646 O   0  0  0  0  0  0  0  0  0  0  0  0
   -2.1879    3.4017    1.7050 C   0  0  0  0  0  0  0  0  0  0  0  0
   -3.2085    1.8948    3.6787 H   0  0  0  0  0  0  0  0  0  0  0  0
   -3.0007    1.4665    1.1994 H   0  0  0  0  0  0  0  0  0  0  0  0
   -1.3888    3.8390    2.3147 H   0  0  0  0  0  0  0  0  0  0  0  0
   -2.0284    3.7240    0.6708 H   0  0  0  0  0  0  0  0  0  0  0  0
   -3.1380    3.8230    2.0508 H   0  0  0  0  0  0  0  0  0  0  0  0
   -0.7390    1.2565   -0.0101 N   0  0  0  0  0  0  0  0  0  0  0  0
    0.4383    0.7557   -0.6738 C   0  0  2  0  0  0  0  0  0  0  0  0
    0.0932   -0.6232   -1.2249 C   0  0  0  0  0  0  0  0  0  0  0  0
   -0.0413   -1.6147   -0.5110 O   0  0  0  0  0  0  0  0  0  0  0  0
    1.6418    0.6658    0.2716 C   0  0  0  0  0  0  0  0  0  0  0  0
    2.0830    2.0149    0.7845 C   0  0  0  0  0  0  0  0  0  0  0  0
    2.7732    2.9017   -0.0062 N   0  3  0  0  0  0  0  0  0  0  0  0
    1.9296    2.6120    2.0038 C   0  0  0  0  0  0  0  0  0  0  0  0
    3.0399    4.0090    0.6939 C   0  0  0  0  0  0  0  0  0  0  0  0
    2.5315    3.8444    1.9194 N   0  0  0  0  0  0  0  0  0  0  0  0
   -1.5221    1.5532   -0.5874 H   0  0  0  0  0  0  0  0  0  0  0  0
    0.6391    1.4363   -1.5095 H   0  0  0  0  0  0  0  0  0  0  0  0
    2.4829    0.1680   -0.2297 H   0  0  0  0  0  0  0  0  0  0  0  0
    1.4046    0.0304    1.1351 H   0  0  0  0  0  0  0  0  0  0  0  0
    3.0426    2.7446   -0.9735 H   0  0  0  0  0  0  0  0  0  0  0  0
    1.4777    2.3459    2.9386 H   0  0  0  0  0  0  0  0  0  0  0  0
    3.5692    4.8761    0.3356 H   0  0  0  0  0  0  0  0  0  0  0  0
    2.5842    4.5266    2.6706 H   0  0  0  0  0  0  0  0  0  0  0  0
   -0.0948   -0.6010   -2.5999 N   0  0  0  0  0  0  0  0  0  0  0  0
   -0.4529   -1.7698   -3.3709 C   0  0  2  0  0  0  0  0  0  0  0  0
    0.5055   -2.8924   -2.9958 C   0  0  0  0  0  0  0  0  0  0  0  0
    1.6152   -2.6916   -2.5066 O   0  0  0  0  0  0  0  0  0  0  0  0
   -0.3995   -1.4856   -4.8639 C   0  0  0  0  0  0  0  0  0  0  0  0
    0.0254    0.2811   -3.0890 H   0  0  0  0  0  0  0  0  0  0  0  0
   -1.4713   -2.0441   -3.0748 H   0  0  0  0  0  0  0  0  0  0  0  0
    0.6132   -1.2090   -5.1792 H   0  0  0  0  0  0  0  0  0  0  0  0
   -0.6986   -2.3636   -5.4459 H   0  0  0  0  0  0  0  0  0  0  0  0
   -1.0672   -0.6582   -5.1272 H   0  0  0  0  0  0  0  0  0  0  0  0
   -0.0065   -4.1431   -3.3115 N   0  0  0  0  0  0  0  0  0  0  0  0
    0.7186   -5.3675   -3.0645 C   0  0  0  0  0  0  0  0  0  0  0  0
   -0.9433   -4.2167   -3.6972 H   0  0  0  0  0  0  0  0  0  0  0  0
    1.2949   -5.6402   -3.9609 H   0  0  0  0  0  0  0  0  0  0  0  0
    1.4053   -5.2223   -2.2175 H   0  0  0  0  0  0  0  0  0  0  0  0
    0.0080   -6.1728   -2.8266 H   0  0  0  0  0  0  0  0  0  0  0  0
 22 24  2  0  0  0  0
 24 26  1  0  0  0  0
 25 26  1  0  0  0  0
 23 25  2  0  0  0  0
 21 22  1  0  0  0  0
 22 23  1  0  0  0  0
  1  3  1  0  0  0  0
  1  7  1  0  0  0  0
  1  2  2  0  0  0  0
 36 37  1  0  0  0  0
 37 45  1  0  0  0  0
 37 38  2  0  0  0  0
  8  9  1  0  0  0  0
  9 17  1  0  0  0  0
  9 10  2  0  0  0  0
 18 19  1  0  0  0  0
 19 35  1  0  0  0  0
 19 20  2  0  0  0  0
 36 39  1  0  0  0  0
  8 11  1  0  0  0  0
 45 46  1  0  0  0  0
 18 21  1  0  0  0  0
 35 36  1  0  0  0  0
  7  8  1  0  0  0  0
 17 18  1  0  0  0  0
 24 32  1  0  0  0  0
 25 33  1  0  0  0  0
  3  4  1  0  0  0  0
  3  5  1  0  0  0  0
  3  6  1  0  0  0  0
 39 42  1  0  0  0  0
 39 43  1  0  0  0  0
 39 44  1  0  0  0  0
 11 14  1  0  0  0  0
 11 15  1  0  0  0  0
 11 16  1  0  0  0  0
 46 48  1  0  0  0  0
 46 49  1  0  0  0  0
 46 50  1  0  0  0  0
 21 29  1  0  0  0  0
 21 30  1  0  0  0  0
 36 41  1  0  0  0  0
  8 13  1  0  0  0  0
 18 28  1  0  0  0  0
 26 34  1  0  0  0  0
 23 31  1  0  0  0  0
 45 47  1  0  0  0  0
  7 12  1  0  0  0  0
 35 40  1  0  0  0  0
 17 27  1  0  0  0  0
M  CHG  1  23   1
M  END
$$$$

  -OEChem-05262214473D

 50 50  0     1  0  0  0  0  0999 V2000
   -1.6938    0.4865    3.8080 C   0  0  0  0  0  0  0  0  0  0  0  0
   -0.7464   -0.1282    3.3323 O   0  0  0  0  0  0  0  0  0  0  0  0
   -2.1257    0.2041    5.2087 C   0  0  0  0  0  0  0  0  0  0  0  0
   -2.8853   -0.5922    5.2621 H   0  0  0  0  0  0  0  0  0  0  0  0
   -1.2944   -0.1435    5.8430 H   0  0  0  0  0  0  0  0  0  0  0  0
   -2.5637    1.0590    5.7483 H   0  0  0  0  0  0  0  0  0  0  0  0
   -2.4435    1.4589    3.1669 N   0  0  0  0  0  0  0  0  0  0  0  0
   -2.1966    1.8850    1.8145 C   0  0  2  0  0  0  0  0  0  0  0  0
   -0.8617    1.2996    1.3733 C   0  0  0  0  0  0  0  0  0  0  0  0
    0.0104    0.9468    2.1646 O   0  0  0  0  0  0  0  0  0  0  0  0
   -2.1879    3.4017    1.7050 C   0  0  0  0  0  0  0  0  0  0  0  0
   -3.2085    1.8948    3.6787 H   0  0  0  0  0  0  0  0  0  0  0  0
   -3.0007    1.4665    1.1994 H   0  0  0  0  0  0  0  0  0  0  0  0
   -1.3888    3.8390    2.3147 H   0  0  0  0  0  0  0  0  0  0  0  0
   -2.0284    3.7240    0.6708 H   0  0  0  0  0  0  0  0  0  0  0  0
   -3.1380    3.8230    2.0508 H   0  0  0  0  0  0  0  0  0  0  0  0
   -0.7390    1.2565   -0.0101 N   0  0  0  0  0  0  0  0  0  0  0  0
    0.4383    0.7557   -0.6738 C   0  0  2  0  0  0  0  0  0  0  0  0
    0.0932   -0.6232   -1.2249 C   0  0  0  0  0  0  0  0  0  0  0  0
   -0.3018   -1.5471   -0.5169 O   0  0  0  0  0  0  0  0  0  0  0  0
    1.6418    0.6658    0.2716 C   0  0  0  0  0  0  0  0  0  0  0  0
    2.0830    2.0149    0.7845 C   0  0  0  0  0  0  0  0  0  0  0  0
    2.7732    2.9017   -0.0062 N   0  3  0  0  0  0  0  0  0  0  0  0
    1.9296    2.6120    2.0038 C   0  0  0  0  0  0  0  0  0  0  0  0
    3.0399    4.0090    0.6939 C   0  0  0  0  0  0  0  0  0  0  0  0
    2.5315    3.8444    1.9194 N   0  0  0  0  0  0  0  0  0  0  0  0
   -1.5221    1.5532   -0.5874 H   0  0  0  0  0  0  0  0  0  0  0  0
    0.6391    1.4363   -1.5095 H   0  0  0  0  0  0  0  0  0  0  0  0
    2.4829    0.1680   -0.2297 H   0  0  0  0  0  0  0  0  0  0  0  0
    1.4046    0.0304    1.1351 H   0  0  0  0  0  0  0  0  0  0  0  0
    3.0426    2.7446   -0.9735 H   0  0  0  0  0  0  0  0  0  0  0  0
    1.4777    2.3459    2.9386 H   0  0  0  0  0  0  0  0  0  0  0  0
    3.5692    4.8761    0.3356 H   0  0  0  0  0  0  0  0  0  0  0  0
    2.5842    4.5266    2.6706 H   0  0  0  0  0  0  0  0  0  0  0  0
    0.2316   -0.6807   -2.6048 N   0  0  0  0  0  0  0  0  0  0  0  0
   -0.0542   -1.8651   -3.3823 C   0  0  2  0  0  0  0  0  0  0  0  0
    0.6737   -3.0375   -2.7380 C   0  0  0  0  0  0  0  0  0  0  0  0
    1.6545   -2.8999   -2.0099 O   0  0  0  0  0  0  0  0  0  0  0  0
    0.3714   -1.6914   -4.8319 C   0  0  0  0  0  0  0  0  0  0  0  0
    0.5497    0.1514   -3.0927 H   0  0  0  0  0  0  0  0  0  0  0  0
   -1.1357   -2.0289   -3.3232 H   0  0  0  0  0  0  0  0  0  0  0  0
    1.4521   -1.5262   -4.9111 H   0  0  0  0  0  0  0  0  0  0  0  0
    0.1283   -2.5786   -5.4258 H   0  0  0  0  0  0  0  0  0  0  0  0
   -0.1306   -0.8296   -5.2849 H   0  0  0  0  0  0  0  0  0  0  0  0
    0.1254   -4.2582   -3.1063 N   0  0  0  0  0  0  0  0  0  0  0  0
    0.6469   -5.5205   -2.6367 C   0  0  0  0  0  0  0  0  0  0  0  0
   -0.6993   -4.2771   -3.6990 H   0  0  0  0  0  0  0  0  0  0  0  0
    1.3845   -5.9039   -3.3571 H   0  0  0  0  0  0  0  0  0  0  0  0
    1.1300   -5.3766   -1.6590 H   0  0  0  0  0  0  0  0  0  0  0  0
   -0.1767   -6.2427   -2.5360 H   0  0  0  0  0  0  0  0  0  0  0  0
 22 24  2  0  0  0  0
 24 26  1  0  0  0  0
 25 26  1  0  0  0  0
 23 25  2  0  0  0  0
 21 22  1  0  0  0  0
 22 23  1  0  0  0  0
  1  3  1  0  0  0  0
  1  7  1  0  0  0  0
  1  2  2  0  0  0  0
 36 37  1  0  0  0  0
 37 45  1  0  0  0  0
 37 38  2  0  0  0  0
  8  9  1  0  0  0  0
  9 17  1  0  0  0  0
  9 10  2  0  0  0  0
 18 19  1  0  0  0  0
 19 35  1  0  0  0  0
 19 20  2  0  0  0  0
 36 39  1  0  0  0  0
  8 11  1  0  0  0  0
 45 46  1  0  0  0  0
 18 21  1  0  0  0  0
 35 36  1  0  0  0  0
  7  8  1  0  0  0  0
 17 18  1  0  0  0  0
 24 32  1  0  0  0  0
 25 33  1  0  0  0  0
  3  4  1  0  0  0  0
  3  5  1  0  0  0  0
  3  6  1  0  0  0  0
 39 42  1  0  0  0  0
 39 43  1  0  0  0  0
 39 44  1  0  0  0  0
 11 14  1  0  0  0  0
 11 15  1  0  0  0  0
 11 16  1  0  0  0  0
 46 48  1  0  0  0  0
 46 49  1  0  0  0  0
 46 50  1  0  0  0  0
 21 29  1  0  0  0  0
 21 30  1  0  0  0  0
 36 41  1  0  0  0  0
  8 13  1  0  0  0  0
 18 28  1  0  0  0  0
 26 34  1  0  0  0  0
 23 31  1  0  0  0  0
 45 47  1  0  0  0  0
  7 12  1  0  0  0  0
 35 40  1  0  0  0  0
 17 27  1  0  0  0  0
M  CHG  1  23   1
M  END
$$$$

  -OEChem-05262214473D

 50 50  0     1  0  0  0  0  0999 V2000
   -1.6938    0.4865    3.8080 C   0  0  0  0  0  0  0  0  0  0  0  0
   -0.7464   -0.1282    3.3323 O   0  0  0  0  0  0  0  0  0  0  0  0
   -2.1257    0.2041    5.2087 C   0  0  0  0  0  0  0  0  0  0  0  0
   -2.8853   -0.5922    5.2621 H   0  0  0  0  0  0  0  0  0  0  0  0
   -1.2944   -0.1435    5.8430 H   0  0  0  0  0  0  0  0  0  0  0  0
   -2.5637    1.0590    5.7483 H   0  0  0  0  0  0  0  0  0  0  0  0
   -2.4435    1.4589    3.1669 N   0  0  0  0  0  0  0  0  0  0  0  0
   -2.1966    1.8850    1.8145 C   0  0  2  0  0  0  0  0  0  0  0  0
   -0.8617    1.2996    1.3733 C   0  0  0  0  0  0  0  0  0  0  0  0
    0.0104    0.9468    2.1646 O   0  0  0  0  0  0  0  0  0  0  0  0
   -2.1879    3.4017    1.7050 C   0  0  0  0  0  0  0  0  0  0  0  0
   -3.2085    1.8948    3.6787 H   0  0  0  0  0  0  0  0  0  0  0  0
   -3.0007    1.4665    1.1994 H   0  0  0  0  0  0  0  0  0  0  0  0
   -1.3888    3.8390    2.3147 H   0  0  0  0  0  0  0  0  0  0  0  0
   -2.0284    3.7240    0.6708 H   0  0  0  0  0  0  0  0  0  0  0  0
   -3.1380    3.8230    2.0508 H   0  0  0  0  0  0  0  0  0  0  0  0
   -0.7390    1.2565   -0.0101 N   0  0  0  0  0  0  0  0  0  0  0  0
    0.4383    0.7557   -0.6738 C   0  0  2  0  0  0  0  0  0  0  0  0
    0.0932   -0.6232   -1.2249 C   0  0  0  0  0  0  0  0  0  0  0  0
   -0.5457   -1.4578   -0.5876 O   0  0  0  0  0  0  0  0  0  0  0  0
    1.6418    0.6658    0.2716 C   0  0  0  0  0  0  0  0  0  0  0  0
    2.0830    2.0149    0.7845 C   0  0  0  0  0  0  0  0  0  0  0  0
    2.7732    2.9017   -0.0062 N   0  3  0  0  0  0  0  0  0  0  0  0
    1.9296    2.6120    2.0038 C   0  0  0  0  0  0  0  0  0  0  0  0
    3.0399    4.0090    0.6939 C   0  0  0  0  0  0  0  0  0  0  0  0
    2.5315    3.8444    1.9194 N   0  0  0  0  0  0  0  0  0  0  0  0
   -1.5221    1.5532   -0.5874 H   0  0  0  0  0  0  0  0  0  0  0  0
    0.6391    1.4363   -1.5095 H   0  0  0  0  0  0  0  0  0  0  0  0
    2.4829    0.1680   -0.2297 H   0  0  0  0  0  0  0  0  0  0  0  0
    1.4046    0.0304    1.1351 H   0  0  0  0  0  0  0  0  0  0  0  0
    3.0426    2.7446   -0.9735 H   0  0  0  0  0  0  0  0  0  0  0  0
    1.4777    2.3459    2.9386 H   0  0  0  0  0  0  0  0  0  0  0  0
    3.5692    4.8761    0.3356 H   0  0  0  0  0  0  0  0  0  0  0  0
    2.5842    4.5266    2.6706 H   0  0  0  0  0  0  0  0  0  0  0  0
    0.5405   -0.7886   -2.5284 N   0  0  0  0  0  0  0  0  0  0  0  0
    0.3247   -1.9951   -3.2943 C   0  0  2  0  0  0  0  0  0  0  0  0
    0.7621   -3.1783   -2.4411 C   0  0  0  0  0  0  0  0  0  0  0  0
    1.5567   -3.0757   -1.5088 O   0  0  0  0  0  0  0  0  0  0  0  0
    1.0893   -1.9604   -4.6084 C   0  0  0  0  0  0  0  0  0  0  0  0
    1.0448   -0.0232   -2.9660 H   0  0  0  0  0  0  0  0  0  0  0  0
   -0.7520   -2.0600   -3.4854 H   0  0  0  0  0  0  0  0  0  0  0  0
    2.1700   -1.8953   -4.4372 H   0  0  0  0  0  0  0  0  0  0  0  0
    0.9022   -2.8624   -5.2003 H   0  0  0  0  0  0  0  0  0  0  0  0
    0.7950   -1.0921   -5.2078 H   0  0  0  0  0  0  0  0  0  0  0  0
    0.1941   -4.3696   -2.8705 N   0  0  0  0  0  0  0  0  0  0  0  0
    0.4632   -5.6366   -2.2314 C   0  0  0  0  0  0  0  0  0  0  0  0
   -0.4688   -4.3583   -3.6401 H   0  0  0  0  0  0  0  0  0  0  0  0
    1.3050   -6.1317   -2.7375 H   0  0  0  0  0  0  0  0  0  0  0  0
    0.7190   -5.4672   -1.1750 H   0  0  0  0  0  0  0  0  0  0  0  0
   -0.4297   -6.2759   -2.2945 H   0  0  0  0  0  0  0  0  0  0  0  0
 22 24  2  0  0  0  0
 24 26  1  0  0  0  0
 25 26  1  0  0  0  0
 23 25  2  0  0  0  0
 21 22  1  0  0  0  0
 22 23  1  0  0  0  0
  1  3  1  0  0  0  0
  1  7  1  0  0  0  0
  1  2  2  0  0  0  0
 36 37  1  0  0  0  0
 37 45  1  0  0  0  0
 37 38  2  0  0  0  0
  8  9  1  0  0  0  0
  9 17  1  0  0  0  0
  9 10  2  0  0  0  0
 18 19  1  0  0  0  0
 19 35  1  0  0  0  0
 19 20  2  0  0  0  0
 36 39  1  0  0  0  0
  8 11  1  0  0  0  0
 45 46  1  0  0  0  0
 18 21  1  0  0  0  0
 35 36  1  0  0  0  0
  7  8  1  0  0  0  0
 17 18  1  0  0  0  0
 24 32  1  0  0  0  0
 25 33  1  0  0  0  0
  3  4  1  0  0  0  0
  3  5  1  0  0  0  0
  3  6  1  0  0  0  0
 39 42  1  0  0  0  0
 39 43  1  0  0  0  0
 39 44  1  0  0  0  0
 11 14  1  0  0  0  0
 11 15  1  0  0  0  0
 11 16  1  0  0  0  0
 46 48  1  0  0  0  0
 46 49  1  0  0  0  0
 46 50  1  0  0  0  0
 21 29  1  0  0  0  0
 21 30  1  0  0  0  0
 36 41  1  0  0  0  0
  8 13  1  0  0  0  0
 18 28  1  0  0  0  0
 26 34  1  0  0  0  0
 23 31  1  0  0  0  0
 45 47  1  0  0  0  0
  7 12  1  0  0  0  0
 35 40  1  0  0  0  0
 17 27  1  0  0  0  0
M  CHG  1  23   1
M  END
$$$$

  -OEChem-05262214473D

 50 50  0     1  0  0  0  0  0999 V2000
   -1.6938    0.4865    3.8080 C   0  0  0  0  0  0  0  0  0  0  0  0
   -0.7464   -0.1282    3.3323 O   0  0  0  0  0  0  0  0  0  0  0  0
   -2.1257    0.2041    5.2087 C   0  0  0  0  0  0  0  0  0  0  0  0
   -2.8853   -0.5922    5.2621 H   0  0  0  0  0  0  0  0  0  0  0  0
   -1.2944   -0.1435    5.8430 H   0  0  0  0  0  0  0  0  0  0  0  0
   -2.5637    1.0590    5.7483 H   0  0  0  0  0  0  0  0  0  0  0  0
   -2.4435    1.4589    3.1669 N   0  0  0  0  0  0  0  0  0  0  0  0
   -2.1966    1.8850    1.8145 C   0  0  2  0  0  0  0  0  0  0  0  0
   -0.8617    1.2996    1.3733 C   0  0  0  0  0  0  0  0  0  0  0  0
    0.0104    0.9468    2.1646 O   0  0  0  0  0  0  0  0  0  0  0  0
   -2.1879    3.4017    1.7050 C   0  0  0  0  0  0  0  0  0  0  0  0
   -3.2085    1.8948    3.6787 H   0  0  0  0  0  0  0  0  0  0  0  0
   -3.0007    1.4665    1.1994 H   0  0  0  0  0  0  0  0  0  0  0  0
   -1.3888    3.8390    2.3147 H   0  0  0  0  0  0  0  0  0  0  0  0
   -2.0284    3.7240    0.6708 H   0  0  0  0  0  0  0  0  0  0  0  0
   -3.1380    3.8230    2.0508 H   0  0  0  0  0  0  0  0  0  0  0  0
   -0.7390    1.2565   -0.0101 N   0  0  0  0  0  0  0  0  0  0  0  0
    0.4383    0.7557   -0.6738 C   0  0  2  0  0  0  0  0  0  0  0  0
    0.0932   -0.6232   -1.2249 C   0  0  0  0  0  0  0  0  0  0  0  0
   -0.7563   -1.3529   -0.7182 O   0  0  0  0  0  0  0  0  0  0  0  0
    1.6418    0.6658    0.2716 C   0  0  0  0  0  0  0  0  0  0  0  0
    2.0830    2.0149    0.7845 C   0  0  0  0  0  0  0  0  0  0  0  0
    2.7732    2.9017   -0.0062 N   0  3  0  0  0  0  0  0  0  0  0  0
    1.9296    2.6120    2.0038 C   0  0  0  0  0  0  0  0  0  0  0  0
    3.0399    4.0090    0.6939 C   0  0  0  0  0  0  0  0  0  0  0  0
    2.5315    3.8444    1.9194 N   0  0  0  0  0  0  0  0  0  0  0  0
   -1.5221    1.5532   -0.5874 H   0  0  0  0  0  0  0  0  0  0  0  0
    0.6391    1.4363   -1.5095 H   0  0  0  0  0  0  0  0  0  0  0  0
    2.4829    0.1680   -0.2297 H   0  0  0  0  0  0  0  0  0  0  0  0
    1.4046    0.0304    1.1351 H   0  0  0  0  0  0  0  0  0  0  0  0
    3.0426    2.7446   -0.9735 H   0  0  0  0  0  0  0  0  0  0  0  0
    1.4777    2.3459    2.9386 H   0  0  0  0  0  0  0  0  0  0  0  0
    3.5692    4.8761    0.3356 H   0  0  0  0  0  0  0  0  0  0  0  0
    2.5842    4.5266    2.6706 H   0  0  0  0  0  0  0  0  0  0  0  0
    0.8109   -0.9172   -2.3760 N   0  0  0  0  0  0  0  0  0  0  0  0
    0.6580   -2.1509   -3.1131 C   0  0  2  0  0  0  0  0  0  0  0  0
    0.7649   -3.3052   -2.1254 C   0  0  0  0  0  0  0  0  0  0  0  0
    1.3285   -3.2071   -1.0373 O   0  0  0  0  0  0  0  0  0  0  0  0
    1.7053   -2.2743   -4.2088 C   0  0  0  0  0  0  0  0  0  0  0  0
    1.4771   -0.2307   -2.7175 H   0  0  0  0  0  0  0  0  0  0  0  0
   -0.3463   -2.1356   -3.5505 H   0  0  0  0  0  0  0  0  0  0  0  0
    2.7180   -2.2912   -3.7897 H   0  0  0  0  0  0  0  0  0  0  0  0
    1.5705   -3.1958   -4.7846 H   0  0  0  0  0  0  0  0  0  0  0  0
    1.6464   -1.4277   -4.9014 H   0  0  0  0  0  0  0  0  0  0  0  0
    0.1947   -4.4699   -2.6200 N   0  0  0  0  0  0  0  0  0  0  0  0
    0.1799   -5.7077   -1.8760 C   0  0  0  0  0  0  0  0  0  0  0  0
   -0.2675   -4.4549   -3.5244 H   0  0  0  0  0  0  0  0  0  0  0  0
    1.0618   -6.3079   -2.1443 H   0  0  0  0  0  0  0  0  0  0  0  0
    0.2001   -5.4879   -0.7984 H   0  0  0  0  0  0  0  0  0  0  0  0
   -0.7338   -6.2701   -2.1184 H   0  0  0  0  0  0  0  0  0  0  0  0
 22 24  2  0  0  0  0
 24 26  1  0  0  0  0
 25 26  1  0  0  0  0
 23 25  2  0  0  0  0
 21 22  1  0  0  0  0
 22 23  1  0  0  0  0
  1  3  1  0  0  0  0
  1  7  1  0  0  0  0
  1  2  2  0  0  0  0
 36 37  1  0  0  0  0
 37 45  1  0  0  0  0
 37 38  2  0  0  0  0
  8  9  1  0  0  0  0
  9 17  1  0  0  0  0
  9 10  2  0  0  0  0
 18 19  1  0  0  0  0
 19 35  1  0  0  0  0
 19 20  2  0  0  0  0
 36 39  1  0  0  0  0
  8 11  1  0  0  0  0
 45 46  1  0  0  0  0
 18 21  1  0  0  0  0
 35 36  1  0  0  0  0
  7  8  1  0  0  0  0
 17 18  1  0  0  0  0
 24 32  1  0  0  0  0
 25 33  1  0  0  0  0
  3  4  1  0  0  0  0
  3  5  1  0  0  0  0
  3  6  1  0  0  0  0
 39 42  1  0  0  0  0
 39 43  1  0  0  0  0
 39 44  1  0  0  0  0
 11 14  1  0  0  0  0
 11 15  1  0  0  0  0
 11 16  1  0  0  0  0
 46 48  1  0  0  0  0
 46 49  1  0  0  0  0
 46 50  1  0  0  0  0
 21 29  1  0  0  0  0
 21 30  1  0  0  0  0
 36 41  1  0  0  0  0
  8 13  1  0  0  0  0
 18 28  1  0  0  0  0
 26 34  1  0  0  0  0
 23 31  1  0  0  0  0
 45 47  1  0  0  0  0
  7 12  1  0  0  0  0
 35 40  1  0  0  0  0
 17 27  1  0  0  0  0
M  CHG  1  23   1
M  END
$$$$

  -OEChem-05262214473D

 50 50  0     1  0  0  0  0  0999 V2000
   -1.6938    0.4865    3.8080 C   0  0  0  0  0  0  0  0  0  0  0  0
   -0.7464   -0.1282    3.3323 O   0  0  0  0  0  0  0  0  0  0  0  0
   -2.1257    0.2041    5.2087 C   0  0  0  0  0  0  0  0  0  0  0  0
   -2.8853   -0.5922    5.2621 H   0  0  0  0  0  0  0  0  0  0  0  0
   -1.2944   -0.1435    5.8430 H   0  0  0  0  0  0  0  0  0  0  0  0
   -2.5637    1.0590    5.7483 H   0  0  0  0  0  0  0  0  0  0  0  0
   -2.4435    1.4589    3.1669 N   0  0  0  0  0  0  0  0  0  0  0  0
   -2.1966    1.8850    1.8145 C   0  0  2  0  0  0  0  0  0  0  0  0
   -0.8617    1.2996    1.3733 C   0  0  0  0  0  0  0  0  0  0  0  0
    0.0104    0.9468    2.1646 O   0  0  0  0  0  0  0  0  0  0  0  0
   -2.1879    3.4017    1.7050 C   0  0  0  0  0  0  0  0  0  0  0  0
   -3.2085    1.8948    3.6787 H   0  0  0  0  0  0  0  0  0  0  0  0
   -3.0007    1.4665    1.1994 H   0  0  0  0  0  0  0  0  0  0  0  0
   -1.3888    3.8390    2.3147 H   0  0  0  0  0  0  0  0  0  0  0  0
   -2.0284    3.7240    0.6708 H   0  0  0  0  0  0  0  0  0  0  0  0
   -3.1380    3.8230    2.0508 H   0  0  0  0  0  0  0  0  0  0  0  0
   -0.7390    1.2565   -0.0101 N   0  0  0  0  0  0  0  0  0  0  0  0
    0.4383    0.7557   -0.6738 C   0  0  2  0  0  0  0  0  0  0  0  0
    0.0932   -0.6232   -1.2249 C   0  0  0  0  0  0  0  0  0  0  0  0
   -0.9194   -1.2395   -0.8998 O   0  0  0  0  0  0  0  0  0  0  0  0
    1.6418    0.6658    0.2716 C   0  0  0  0  0  0  0  0  0  0  0  0
    2.0830    2.0149    0.7845 C   0  0  0  0  0  0  0  0  0  0  0  0
    2.7732    2.9017   -0.0062 N   0  3  0  0  0  0  0  0  0  0  0  0
    1.9296    2.6120    2.0038 C   0  0  0  0  0  0  0  0  0  0  0  0
    3.0399    4.0090    0.6939 C   0  0  0  0  0  0  0  0  0  0  0  0
    2.5315    3.8444    1.9194 N   0  0  0  0  0  0  0  0  0  0  0  0
   -1.5221    1.5532   -0.5874 H   0  0  0  0  0  0  0  0  0  0  0  0
    0.6391    1.4363   -1.5095 H   0  0  0  0  0  0  0  0  0  0  0  0
    2.4829    0.1680   -0.2297 H   0  0  0  0  0  0  0  0  0  0  0  0
    1.4046    0.0304    1.1351 H   0  0  0  0  0  0  0  0  0  0  0  0
    3.0426    2.7446   -0.9735 H   0  0  0  0  0  0  0  0  0  0  0  0
    1.4777    2.3459    2.9386 H   0  0  0  0  0  0  0  0  0  0  0  0
    3.5692    4.8761    0.3356 H   0  0  0  0  0  0  0  0  0  0  0  0
    2.5842    4.5266    2.6706 H   0  0  0  0  0  0  0  0  0  0  0  0
    1.0244   -1.0578   -2.1579 N   0  0  0  0  0  0  0  0  0  0  0  0
    0.9228   -2.3220   -2.8509 C   0  0  2  0  0  0  0  0  0  0  0  0
    0.6818   -3.4096   -1.8123 C   0  0  0  0  0  0  0  0  0  0  0  0
    0.9854   -3.2849   -0.6277 O   0  0  0  0  0  0  0  0  0  0  0  0
    2.1774   -2.6117   -3.6602 C   0  0  0  0  0  0  0  0  0  0  0  0
    1.8171   -0.4571   -2.3641 H   0  0  0  0  0  0  0  0  0  0  0  0
    0.0538   -2.2503   -3.5139 H   0  0  0  0  0  0  0  0  0  0  0  0
    3.0587   -2.6870   -3.0128 H   0  0  0  0  0  0  0  0  0  0  0  0
    2.0874   -3.5560   -4.2072 H   0  0  0  0  0  0  0  0  0  0  0  0
    2.3657   -1.8136   -4.3864 H   0  0  0  0  0  0  0  0  0  0  0  0
    0.1274   -4.5521   -2.3721 N   0  0  0  0  0  0  0  0  0  0  0  0
   -0.1835   -5.7291   -1.5949 C   0  0  0  0  0  0  0  0  0  0  0  0
   -0.1092   -4.5603   -3.3599 H   0  0  0  0  0  0  0  0  0  0  0  0
    0.6716   -6.4207   -1.6179 H   0  0  0  0  0  0  0  0  0  0  0  0
   -0.3911   -5.4373   -0.5549 H   0  0  0  0  0  0  0  0  0  0  0  0
   -1.0682   -6.2258   -2.0199 H   0  0  0  0  0  0  0  0  0  0  0  0
 22 24  2  0  0  0  0
 24 26  1  0  0  0  0
 25 26  1  0  0  0  0
 23 25  2  0  0  0  0
 21 22  1  0  0  0  0
 22 23  1  0  0  0  0
  1  3  1  0  0  0  0
  1  7  1  0  0  0  0
  1  2  2  0  0  0  0
 36 37  1  0  0  0  0
 37 45  1  0  0  0  0
 37 38  2  0  0  0  0
  8  9  1  0  0  0  0
  9 17  1  0  0  0  0
  9 10  2  0  0  0  0
 18 19  1  0  0  0  0
 19 35  1  0  0  0  0
 19 20  2  0  0  0  0
 36 39  1  0  0  0  0
  8 11  1  0  0  0  0
 45 46  1  0  0  0  0
 18 21  1  0  0  0  0
 35 36  1  0  0  0  0
  7  8  1  0  0  0  0
 17 18  1  0  0  0  0
 24 32  1  0  0  0  0
 25 33  1  0  0  0  0
  3  4  1  0  0  0  0
  3  5  1  0  0  0  0
  3  6  1  0  0  0  0
 39 42  1  0  0  0  0
 39 43  1  0  0  0  0
 39 44  1  0  0  0  0
 11 14  1  0  0  0  0
 11 15  1  0  0  0  0
 11 16  1  0  0  0  0
 46 48  1  0  0  0  0
 46 49  1  0  0  0  0
 46 50  1  0  0  0  0
 21 29  1  0  0  0  0
 21 30  1  0  0  0  0
 36 41  1  0  0  0  0
  8 13  1  0  0  0  0
 18 28  1  0  0  0  0
 26 34  1  0  0  0  0
 23 31  1  0  0  0  0
 45 47  1  0  0  0  0
  7 12  1  0  0  0  0
 35 40  1  0  0  0  0
 17 27  1  0  0  0  0
M  CHG  1  23   1
M  END
$$$$

  -OEChem-05262214473D

 50 50  0     1  0  0  0  0  0999 V2000
   -1.6938    0.4865    3.8080 C   0  0  0  0  0  0  0  0  0  0  0  0
   -0.7464   -0.1282    3.3323 O   0  0  0  0  0  0  0  0  0  0  0  0
   -2.1257    0.2041    5.2087 C   0  0  0  0  0  0  0  0  0  0  0  0
   -2.8853   -0.5922    5.2621 H   0  0  0  0  0  0  0  0  0  0  0  0
   -1.2944   -0.1435    5.8430 H   0  0  0  0  0  0  0  0  0  0  0  0
   -2.5637    1.0590    5.7483 H   0  0  0  0  0  0  0  0  0  0  0  0
   -2.4435    1.4589    3.1669 N   0  0  0  0  0  0  0  0  0  0  0  0
   -2.1966    1.8850    1.8145 C   0  0  2  0  0  0  0  0  0  0  0  0
   -0.8617    1.2996    1.3733 C   0  0  0  0  0  0  0  0  0  0  0  0
    0.0104    0.9468    2.1646 O   0  0  0  0  0  0  0  0  0  0  0  0
   -2.1879    3.4017    1.7050 C   0  0  0  0  0  0  0  0  0  0  0  0
   -3.2085    1.8948    3.6787 H   0  0  0  0  0  0  0  0  0  0  0  0
   -3.0007    1.4665    1.1994 H   0  0  0  0  0  0  0  0  0  0  0  0
   -1.3888    3.8390    2.3147 H   0  0  0  0  0  0  0  0  0  0  0  0
   -2.0284    3.7240    0.6708 H   0  0  0  0  0  0  0  0  0  0  0  0
   -3.1380    3.8230    2.0508 H   0  0  0  0  0  0  0  0  0  0  0  0
   -0.7390    1.2565   -0.0101 N   0  0  0  0  0  0  0  0  0  0  0  0
    0.4383    0.7557   -0.6738 C   0  0  2  0  0  0  0  0  0  0  0  0
    0.0027   -0.4239   -1.5358 C   0  0  0  0  0  0  0  0  0  0  0  0
   -1.1674   -0.7886   -1.6288 O   0  0  0  0  0  0  0  0  0  0  0  0
    1.5212    0.3187    0.3195 C   0  0  0  0  0  0  0  0  0  0  0  0
    2.0524    1.4648    1.1453 C   0  0  0  0  0  0  0  0  0  0  0  0
    2.9131    2.3991    0.6213 N   0  3  0  0  0  0  0  0  0  0  0  0
    1.8408    1.8128    2.4495 C   0  0  0  0  0  0  0  0  0  0  0  0
    3.2261    3.2947    1.5633 C   0  0  0  0  0  0  0  0  0  0  0  0
    2.5795    2.9480    2.6810 N   0  0  0  0  0  0  0  0  0  0  0  0
   -1.5221    1.5532   -0.5874 H   0  0  0  0  0  0  0  0  0  0  0  0
    0.7972    1.5621   -1.3240 H   0  0  0  0  0  0  0  0  0  0  0  0
    2.3498   -0.1693   -0.2114 H   0  0  0  0  0  0  0  0  0  0  0  0
    1.1283   -0.4449    1.0038 H   0  0  0  0  0  0  0  0  0  0  0  0
    3.2617    2.4112   -0.3333 H   0  0  0  0  0  0  0  0  0  0  0  0
    1.2689    1.4203    3.2666 H   0  0  0  0  0  0  0  0  0  0  0  0
    3.8812    4.1414    1.4435 H   0  0  0  0  0  0  0  0  0  0  0  0
    2.6292    3.4483    3.5640 H   0  0  0  0  0  0  0  0  0  0  0  0
    1.0687   -0.9857   -2.2246 N   0  0  0  0  0  0  0  0  0  0  0  0
    0.9279   -2.1033   -3.1301 C   0  0  2  0  0  0  0  0  0  0  0  0
    0.1405   -3.1926   -2.4138 C   0  0  0  0  0  0  0  0  0  0  0  0
    0.0673   -3.2723   -1.1893 O   0  0  0  0  0  0  0  0  0  0  0  0
    2.2835   -2.6218   -3.5842 C   0  0  0  0  0  0  0  0  0  0  0  0
    1.9945   -0.5915   -2.0853 H   0  0  0  0  0  0  0  0  0  0  0  0
    0.3538   -1.7427   -3.9906 H   0  0  0  0  0  0  0  0  0  0  0  0
    2.8731   -2.9873   -2.7356 H   0  0  0  0  0  0  0  0  0  0  0  0
    2.1747   -3.4499   -4.2922 H   0  0  0  0  0  0  0  0  0  0  0  0
    2.8603   -1.8290   -4.0727 H   0  0  0  0  0  0  0  0  0  0  0  0
   -0.4350   -4.0903   -3.3020 N   0  0  0  0  0  0  0  0  0  0  0  0
   -1.2221   -5.2207   -2.8677 C   0  0  0  0  0  0  0  0  0  0  0  0
   -0.3383   -3.9360   -4.3013 H   0  0  0  0  0  0  0  0  0  0  0  0
   -0.5729   -6.1030   -2.7669 H   0  0  0  0  0  0  0  0  0  0  0  0
   -1.6850   -4.9934   -1.8961 H   0  0  0  0  0  0  0  0  0  0  0  0
   -2.0080   -5.4267   -3.6091 H   0  0  0  0  0  0  0  0  0  0  0  0
 22 24  2  0  0  0  0
 24 26  1  0  0  0  0
 25 26  1  0  0  0  0
 23 25  2  0  0  0  0
 21 22  1  0  0  0  0
 22 23  1  0  0  0  0
  1  3  1  0  0  0  0
  1  7  1  0  0  0  0
  1  2  2  0  0  0  0
 36 37  1  0  0  0  0
 37 45  1  0  0  0  0
 37 38  2  0  0  0  0
  8  9  1  0  0  0  0
  9 17  1  0  0  0  0
  9 10  2  0  0  0  0
 18 19  1  0  0  0  0
 19 35  1  0  0  0  0
 19 20  2  0  0  0  0
 36 39  1  0  0  0  0
  8 11  1  0  0  0  0
 45 46  1  0  0  0  0
 18 21  1  0  0  0  0
 35 36  1  0  0  0  0
  7  8  1  0  0  0  0
 17 18  1  0  0  0  0
 24 32  1  0  0  0  0
 25 33  1  0  0  0  0
  3  4  1  0  0  0  0
  3  5  1  0  0  0  0
  3  6  1  0  0  0  0
 39 42  1  0  0  0  0
 39 43  1  0  0  0  0
 39 44  1  0  0  0  0
 11 14  1  0  0  0  0
 11 15  1  0  0  0  0
 11 16  1  0  0  0  0
 46 48  1  0  0  0  0
 46 49  1  0  0  0  0
 46 50  1  0  0  0  0
 21 29  1  0  0  0  0
 21 30  1  0  0  0  0
 36 41  1  0  0  0  0
  8 13  1  0  0  0  0
 18 28  1  0  0  0  0
 26 34  1  0  0  0  0
 23 31  1  0  0  0  0
 45 47  1  0  0  0  0
  7 12  1  0  0  0  0
 35 40  1  0  0  0  0
 17 27  1  0  0  0  0
M  CHG  1  23   1
M  END
$$$$

  -OEChem-05262214473D

 50 50  0     1  0  0  0  0  0999 V2000
   -1.6938    0.4865    3.8080 C   0  0  0  0  0  0  0  0  0  0  0  0
   -0.7464   -0.1282    3.3323 O   0  0  0  0  0  0  0  0  0  0  0  0
   -2.1257    0.2041    5.2087 C   0  0  0  0  0  0  0  0  0  0  0  0
   -2.8853   -0.5922    5.2621 H   0  0  0  0  0  0  0  0  0  0  0  0
   -1.2944   -0.1435    5.8430 H   0  0  0  0  0  0  0  0  0  0  0  0
   -2.5637    1.0590    5.7483 H   0  0  0  0  0  0  0  0  0  0  0  0
   -2.4435    1.4589    3.1669 N   0  0  0  0  0  0  0  0  0  0  0  0
   -2.1966    1.8850    1.8145 C   0  0  2  0  0  0  0  0  0  0  0  0
   -0.8617    1.2996    1.3733 C   0  0  0  0  0  0  0  0  0  0  0  0
    0.0104    0.9468    2.1646 O   0  0  0  0  0  0  0  0  0  0  0  0
   -2.1879    3.4017    1.7050 C   0  0  0  0  0  0  0  0  0  0  0  0
   -3.2085    1.8948    3.6787 H   0  0  0  0  0  0  0  0  0  0  0  0
   -3.0007    1.4665    1.1994 H   0  0  0  0  0  0  0  0  0  0  0  0
   -1.3888    3.8390    2.3147 H   0  0  0  0  0  0  0  0  0  0  0  0
   -2.0284    3.7240    0.6708 H   0  0  0  0  0  0  0  0  0  0  0  0
   -3.1380    3.8230    2.0508 H   0  0  0  0  0  0  0  0  0  0  0  0
   -0.7390    1.2565   -0.0101 N   0  0  0  0  0  0  0  0  0  0  0  0
    0.4383    0.7557   -0.6738 C   0  0  2  0  0  0  0  0  0  0  0  0
    0.0027   -0.4239   -1.5358 C   0  0  0  0  0  0  0  0  0  0  0  0
   -1.1688   -0.6294   -1.8459 O   0  0  0  0  0  0  0  0  0  0  0  0
    1.5212    0.3187    0.3195 C   0  0  0  0  0  0  0  0  0  0  0  0
    2.0524    1.4648    1.1453 C   0  0  0  0  0  0  0  0  0  0  0  0
    2.9131    2.3991    0.6213 N   0  3  0  0  0  0  0  0  0  0  0  0
    1.8408    1.8128    2.4495 C   0  0  0  0  0  0  0  0  0  0  0  0
    3.2261    3.2947    1.5633 C   0  0  0  0  0  0  0  0  0  0  0  0
    2.5795    2.9480    2.6810 N   0  0  0  0  0  0  0  0  0  0  0  0
   -1.5221    1.5532   -0.5874 H   0  0  0  0  0  0  0  0  0  0  0  0
    0.7972    1.5621   -1.3240 H   0  0  0  0  0  0  0  0  0  0  0  0
    2.3498   -0.1693   -0.2114 H   0  0  0  0  0  0  0  0  0  0  0  0
    1.1283   -0.4449    1.0038 H   0  0  0  0  0  0  0  0  0  0  0  0
    3.2617    2.4112   -0.3333 H   0  0  0  0  0  0  0  0  0  0  0  0
    1.2689    1.4203    3.2666 H   0  0  0  0  0  0  0  0  0  0  0  0
    3.8812    4.1414    1.4435 H   0  0  0  0  0  0  0  0  0  0  0  0
    2.6292    3.4483    3.5640 H   0  0  0  0  0  0  0  0  0  0  0  0
    1.0831   -1.1872   -1.9561 N   0  0  0  0  0  0  0  0  0  0  0  0
    0.9510   -2.3504   -2.8036 C   0  0  2  0  0  0  0  0  0  0  0  0
   -0.1188   -3.2518   -2.2016 C   0  0  0  0  0  0  0  0  0  0  0  0
   -0.4405   -3.2115   -1.0159 O   0  0  0  0  0  0  0  0  0  0  0  0
    2.2729   -3.0903   -2.9376 C   0  0  0  0  0  0  0  0  0  0  0  0
    2.0134   -0.9145   -1.6529 H   0  0  0  0  0  0  0  0  0  0  0  0
    0.6180   -1.9916   -3.7836 H   0  0  0  0  0  0  0  0  0  0  0  0
    2.6225   -3.4573   -1.9658 H   0  0  0  0  0  0  0  0  0  0  0  0
    2.1779   -3.9549   -3.6028 H   0  0  0  0  0  0  0  0  0  0  0  0
    3.0487   -2.4318   -3.3429 H   0  0  0  0  0  0  0  0  0  0  0  0
   -0.6415   -4.1363   -3.1347 N   0  0  0  0  0  0  0  0  0  0  0  0
   -1.6624   -5.1035   -2.8056 C   0  0  0  0  0  0  0  0  0  0  0  0
   -0.3295   -4.0864   -4.1000 H   0  0  0  0  0  0  0  0  0  0  0  0
   -1.1890   -6.0549   -2.5215 H   0  0  0  0  0  0  0  0  0  0  0  0
   -2.2652   -4.7286   -1.9652 H   0  0  0  0  0  0  0  0  0  0  0  0
   -2.3111   -5.2634   -3.6794 H   0  0  0  0  0  0  0  0  0  0  0  0
 22 24  2  0  0  0  0
 24 26  1  0  0  0  0
 25 26  1  0  0  0  0
 23 25  2  0  0  0  0
 21 22  1  0  0  0  0
 22 23  1  0  0  0  0
  1  3  1  0  0  0  0
  1  7  1  0  0  0  0
  1  2  2  0  0  0  0
 36 37  1  0  0  0  0
 37 45  1  0  0  0  0
 37 38  2  0  0  0  0
  8  9  1  0  0  0  0
  9 17  1  0  0  0  0
  9 10  2  0  0  0  0
 18 19  1  0  0  0  0
 19 35  1  0  0  0  0
 19 20  2  0  0  0  0
 36 39  1  0  0  0  0
  8 11  1  0  0  0  0
 45 46  1  0  0  0  0
 18 21  1  0  0  0  0
 35 36  1  0  0  0  0
  7  8  1  0  0  0  0
 17 18  1  0  0  0  0
 24 32  1  0  0  0  0
 25 33  1  0  0  0  0
  3  4  1  0  0  0  0
  3  5  1  0  0  0  0
  3  6  1  0  0  0  0
 39 42  1  0  0  0  0
 39 43  1  0  0  0  0
 39 44  1  0  0  0  0
 11 14  1  0  0  0  0
 11 15  1  0  0  0  0
 11 16  1  0  0  0  0
 46 48  1  0  0  0  0
 46 49  1  0  0  0  0
 46 50  1  0  0  0  0
 21 29  1  0  0  0  0
 21 30  1  0  0  0  0
 36 41  1  0  0  0  0
  8 13  1  0  0  0  0
 18 28  1  0  0  0  0
 26 34  1  0  0  0  0
 23 31  1  0  0  0  0
 45 47  1  0  0  0  0
  7 12  1  0  0  0  0
 35 40  1  0  0  0  0
 17 27  1  0  0  0  0
M  CHG  1  23   1
M  END
$$$$

  -OEChem-05262214473D

 50 50  0     1  0  0  0  0  0999 V2000
   -1.6938    0.4865    3.8080 C   0  0  0  0  0  0  0  0  0  0  0  0
   -0.7464   -0.1282    3.3323 O   0  0  0  0  0  0  0  0  0  0  0  0
   -2.1257    0.2041    5.2087 C   0  0  0  0  0  0  0  0  0  0  0  0
   -2.8853   -0.5922    5.2621 H   0  0  0  0  0  0  0  0  0  0  0  0
   -1.2944   -0.1435    5.8430 H   0  0  0  0  0  0  0  0  0  0  0  0
   -2.5637    1.0590    5.7483 H   0  0  0  0  0  0  0  0  0  0  0  0
   -2.4435    1.4589    3.1669 N   0  0  0  0  0  0  0  0  0  0  0  0
   -2.1966    1.8850    1.8145 C   0  0  2  0  0  0  0  0  0  0  0  0
   -0.8617    1.2996    1.3733 C   0  0  0  0  0  0  0  0  0  0  0  0
    0.0104    0.9468    2.1646 O   0  0  0  0  0  0  0  0  0  0  0  0
   -2.1879    3.4017    1.7050 C   0  0  0  0  0  0  0  0  0  0  0  0
   -3.2085    1.8948    3.6787 H   0  0  0  0  0  0  0  0  0  0  0  0
   -3.0007    1.4665    1.1994 H   0  0  0  0  0  0  0  0  0  0  0  0
   -1.3888    3.8390    2.3147 H   0  0  0  0  0  0  0  0  0  0  0  0
   -2.0284    3.7240    0.6708 H   0  0  0  0  0  0  0  0  0  0  0  0
   -3.1380    3.8230    2.0508 H   0  0  0  0  0  0  0  0  0  0  0  0
   -0.7390    1.2565   -0.0101 N   0  0  0  0  0  0  0  0  0  0  0  0
    0.4383    0.7557   -0.6738 C   0  0  2  0  0  0  0  0  0  0  0  0
    0.0027   -0.4239   -1.5358 C   0  0  0  0  0  0  0  0  0  0  0  0
   -1.1034   -0.4916   -2.0676 O   0  0  0  0  0  0  0  0  0  0  0  0
    1.5212    0.3187    0.3195 C   0  0  0  0  0  0  0  0  0  0  0  0
    2.0524    1.4648    1.1453 C   0  0  0  0  0  0  0  0  0  0  0  0
    2.9131    2.3991    0.6213 N   0  3  0  0  0  0  0  0  0  0  0  0
    1.8408    1.8128    2.4495 C   0  0  0  0  0  0  0  0  0  0  0  0
    3.2261    3.2947    1.5633 C   0  0  0  0  0  0  0  0  0  0  0  0
    2.5795    2.9480    2.6810 N   0  0  0  0  0  0  0  0  0  0  0  0
   -1.5221    1.5532   -0.5874 H   0  0  0  0  0  0  0  0  0  0  0  0
    0.7972    1.5621   -1.3240 H   0  0  0  0  0  0  0  0  0  0  0  0
    2.3498   -0.1693   -0.2114 H   0  0  0  0  0  0  0  0  0  0  0  0
    1.1283   -0.4449    1.0038 H   0  0  0  0  0  0  0  0  0  0  0  0
    3.2617    2.4112   -0.3333 H   0  0  0  0  0  0  0  0  0  0  0  0
    1.2689    1.4203    3.2666 H   0  0  0  0  0  0  0  0  0  0  0  0
    3.8812    4.1414    1.4435 H   0  0  0  0  0  0  0  0  0  0  0  0
    2.6292    3.4483    3.5640 H   0  0  0  0  0  0  0  0  0  0  0  0
    1.0137   -1.3640   -1.6790 N   0  0  0  0  0  0  0  0  0  0  0  0
    0.8718   -2.5683   -2.4653 C   0  0  2  0  0  0  0  0  0  0  0  0
   -0.4205   -3.2555   -2.0442 C   0  0  0  0  0  0  0  0  0  0  0  0
   -0.9568   -3.0657   -0.9545 O   0  0  0  0  0  0  0  0  0  0  0  0
    2.0646   -3.4935   -2.2806 C   0  0  0  0  0  0  0  0  0  0  0  0
    1.8978   -1.1973   -1.2075 H   0  0  0  0  0  0  0  0  0  0  0  0
    0.7952   -2.2553   -3.5123 H   0  0  0  0  0  0  0  0  0  0  0  0
    2.1575   -3.8177   -1.2376 H   0  0  0  0  0  0  0  0  0  0  0  0
    1.9691   -4.3923   -2.8988 H   0  0  0  0  0  0  0  0  0  0  0  0
    2.9964   -2.9878   -2.5557 H   0  0  0  0  0  0  0  0  0  0  0  0
   -0.8812   -4.1382   -3.0110 N   0  0  0  0  0  0  0  0  0  0  0  0
   -2.0831   -4.9212   -2.8425 C   0  0  0  0  0  0  0  0  0  0  0  0
   -0.3832   -4.2181   -3.8927 H   0  0  0  0  0  0  0  0  0  0  0  0
   -1.8262   -5.9000   -2.4114 H   0  0  0  0  0  0  0  0  0  0  0  0
   -2.7730   -4.3931   -2.1678 H   0  0  0  0  0  0  0  0  0  0  0  0
   -2.5659   -5.0665   -3.8201 H   0  0  0  0  0  0  0  0  0  0  0  0
 22 24  2  0  0  0  0
 24 26  1  0  0  0  0
 25 26  1  0  0  0  0
 23 25  2  0  0  0  0
 21 22  1  0  0  0  0
 22 23  1  0  0  0  0
  1  3  1  0  0  0  0
  1  7  1  0  0  0  0
  1  2  2  0  0  0  0
 36 37  1  0  0  0  0
 37 45  1  0  0  0  0
 37 38  2  0  0  0  0
  8  9  1  0  0  0  0
  9 17  1  0  0  0  0
  9 10  2  0  0  0  0
 18 19  1  0  0  0  0
 19 35  1  0  0  0  0
 19 20  2  0  0  0  0
 36 39  1  0  0  0  0
  8 11  1  0  0  0  0
 45 46  1  0  0  0  0
 18 21  1  0  0  0  0
 35 36  1  0  0  0  0
  7  8  1  0  0  0  0
 17 18  1  0  0  0  0
 24 32  1  0  0  0  0
 25 33  1  0  0  0  0
  3  4  1  0  0  0  0
  3  5  1  0  0  0  0
  3  6  1  0  0  0  0
 39 42  1  0  0  0  0
 39 43  1  0  0  0  0
 39 44  1  0  0  0  0
 11 14  1  0  0  0  0
 11 15  1  0  0  0  0
 11 16  1  0  0  0  0
 46 48  1  0  0  0  0
 46 49  1  0  0  0  0
 46 50  1  0  0  0  0
 21 29  1  0  0  0  0
 21 30  1  0  0  0  0
 36 41  1  0  0  0  0
  8 13  1  0  0  0  0
 18 28  1  0  0  0  0
 26 34  1  0  0  0  0
 23 31  1  0  0  0  0
 45 47  1  0  0  0  0
  7 12  1  0  0  0  0
 35 40  1  0  0  0  0
 17 27  1  0  0  0  0
M  CHG  1  23   1
M  END
$$$$

  -OEChem-05262214473D

 50 50  0     1  0  0  0  0  0999 V2000
   -1.6938    0.4865    3.8080 C   0  0  0  0  0  0  0  0  0  0  0  0
   -0.7464   -0.1282    3.3323 O   0  0  0  0  0  0  0  0  0  0  0  0
   -2.1257    0.2041    5.2087 C   0  0  0  0  0  0  0  0  0  0  0  0
   -2.8853   -0.5922    5.2621 H   0  0  0  0  0  0  0  0  0  0  0  0
   -1.2944   -0.1435    5.8430 H   0  0  0  0  0  0  0  0  0  0  0  0
   -2.5637    1.0590    5.7483 H   0  0  0  0  0  0  0  0  0  0  0  0
   -2.4435    1.4589    3.1669 N   0  0  0  0  0  0  0  0  0  0  0  0
   -2.1966    1.8850    1.8145 C   0  0  2  0  0  0  0  0  0  0  0  0
   -0.8617    1.2996    1.3733 C   0  0  0  0  0  0  0  0  0  0  0  0
    0.0104    0.9468    2.1646 O   0  0  0  0  0  0  0  0  0  0  0  0
   -2.1879    3.4017    1.7050 C   0  0  0  0  0  0  0  0  0  0  0  0
   -3.2085    1.8948    3.6787 H   0  0  0  0  0  0  0  0  0  0  0  0
   -3.0007    1.4665    1.1994 H   0  0  0  0  0  0  0  0  0  0  0  0
   -1.3888    3.8390    2.3147 H   0  0  0  0  0  0  0  0  0  0  0  0
   -2.0284    3.7240    0.6708 H   0  0  0  0  0  0  0  0  0  0  0  0
   -3.1380    3.8230    2.0508 H   0  0  0  0  0  0  0  0  0  0  0  0
   -0.7390    1.2565   -0.0101 N   0  0  0  0  0  0  0  0  0  0  0  0
    0.4383    0.7557   -0.6738 C   0  0  2  0  0  0  0  0  0  0  0  0
    0.0027   -0.4239   -1.5358 C   0  0  0  0  0  0  0  0  0  0  0  0
   -0.9756   -0.3844   -2.2789 O   0  0  0  0  0  0  0  0  0  0  0  0
    1.5212    0.3187    0.3195 C   0  0  0  0  0  0  0  0  0  0  0  0
    2.0524    1.4648    1.1453 C   0  0  0  0  0  0  0  0  0  0  0  0
    2.9131    2.3991    0.6213 N   0  3  0  0  0  0  0  0  0  0  0  0
    1.8408    1.8128    2.4495 C   0  0  0  0  0  0  0  0  0  0  0  0
    3.2261    3.2947    1.5633 C   0  0  0  0  0  0  0  0  0  0  0  0
    2.5795    2.9480    2.6810 N   0  0  0  0  0  0  0  0  0  0  0  0
   -1.5221    1.5532   -0.5874 H   0  0  0  0  0  0  0  0  0  0  0  0
    0.7972    1.5621   -1.3240 H   0  0  0  0  0  0  0  0  0  0  0  0
    2.3498   -0.1693   -0.2114 H   0  0  0  0  0  0  0  0  0  0  0  0
    1.1283   -0.4449    1.0038 H   0  0  0  0  0  0  0  0  0  0  0  0
    3.2617    2.4112   -0.3333 H   0  0  0  0  0  0  0  0  0  0  0  0
    1.2689    1.4203    3.2666 H   0  0  0  0  0  0  0  0  0  0  0  0
    3.8812    4.1414    1.4435 H   0  0  0  0  0  0  0  0  0  0  0  0
    2.6292    3.4483    3.5640 H   0  0  0  0  0  0  0  0  0  0  0  0
    0.8653   -1.5042   -1.4122 N   0  0  0  0  0  0  0  0  0  0  0  0
    0.6957   -2.7422   -2.1384 C   0  0  2  0  0  0  0  0  0  0  0  0
   -0.7439   -3.2032   -1.9523 C   0  0  0  0  0  0  0  0  0  0  0  0
   -1.4465   -2.8447   -1.0095 O   0  0  0  0  0  0  0  0  0  0  0  0
    1.6728   -3.8039   -1.6578 C   0  0  0  0  0  0  0  0  0  0  0  0
    1.6555   -1.4206   -0.7795 H   0  0  0  0  0  0  0  0  0  0  0  0
    0.8736   -2.5158   -3.1953 H   0  0  0  0  0  0  0  0  0  0  0  0
    1.5098   -4.0439   -0.6008 H   0  0  0  0  0  0  0  0  0  0  0  0
    1.5624   -4.7320   -2.2283 H   0  0  0  0  0  0  0  0  0  0  0  0
    2.7068   -3.4589   -1.7647 H   0  0  0  0  0  0  0  0  0  0  0  0
   -1.1378   -4.0958   -2.9394 N   0  0  0  0  0  0  0  0  0  0  0  0
   -2.4554   -4.6862   -2.9759 C   0  0  0  0  0  0  0  0  0  0  0  0
   -0.4960   -4.3220   -3.6935 H   0  0  0  0  0  0  0  0  0  0  0  0
   -2.4411   -5.6491   -2.4441 H   0  0  0  0  0  0  0  0  0  0  0  0
   -3.1738   -4.0097   -2.4899 H   0  0  0  0  0  0  0  0  0  0  0  0
   -2.7550   -4.8495   -4.0216 H   0  0  0  0  0  0  0  0  0  0  0  0
 22 24  2  0  0  0  0
 24 26  1  0  0  0  0
 25 26  1  0  0  0  0
 23 25  2  0  0  0  0
 21 22  1  0  0  0  0
 22 23  1  0  0  0  0
  1  3  1  0  0  0  0
  1  7  1  0  0  0  0
  1  2  2  0  0  0  0
 36 37  1  0  0  0  0
 37 45  1  0  0  0  0
 37 38  2  0  0  0  0
  8  9  1  0  0  0  0
  9 17  1  0  0  0  0
  9 10  2  0  0  0  0
 18 19  1  0  0  0  0
 19 35  1  0  0  0  0
 19 20  2  0  0  0  0
 36 39  1  0  0  0  0
  8 11  1  0  0  0  0
 45 46  1  0  0  0  0
 18 21  1  0  0  0  0
 35 36  1  0  0  0  0
  7  8  1  0  0  0  0
 17 18  1  0  0  0  0
 24 32  1  0  0  0  0
 25 33  1  0  0  0  0
  3  4  1  0  0  0  0
  3  5  1  0  0  0  0
  3  6  1  0  0  0  0
 39 42  1  0  0  0  0
 39 43  1  0  0  0  0
 39 44  1  0  0  0  0
 11 14  1  0  0  0  0
 11 15  1  0  0  0  0
 11 16  1  0  0  0  0
 46 48  1  0  0  0  0
 46 49  1  0  0  0  0
 46 50  1  0  0  0  0
 21 29  1  0  0  0  0
 21 30  1  0  0  0  0
 36 41  1  0  0  0  0
  8 13  1  0  0  0  0
 18 28  1  0  0  0  0
 26 34  1  0  0  0  0
 23 31  1  0  0  0  0
 45 47  1  0  0  0  0
  7 12  1  0  0  0  0
 35 40  1  0  0  0  0
 17 27  1  0  0  0  0
M  CHG  1  23   1
M  END
$$$$

  -OEChem-05262214473D

 50 50  0     1  0  0  0  0  0999 V2000
   -1.6938    0.4865    3.8080 C   0  0  0  0  0  0  0  0  0  0  0  0
   -0.7464   -0.1282    3.3323 O   0  0  0  0  0  0  0  0  0  0  0  0
   -2.1257    0.2041    5.2087 C   0  0  0  0  0  0  0  0  0  0  0  0
   -2.8853   -0.5922    5.2621 H   0  0  0  0  0  0  0  0  0  0  0  0
   -1.2944   -0.1435    5.8430 H   0  0  0  0  0  0  0  0  0  0  0  0
   -2.5637    1.0590    5.7483 H   0  0  0  0  0  0  0  0  0  0  0  0
   -2.4435    1.4589    3.1669 N   0  0  0  0  0  0  0  0  0  0  0  0
   -2.1966    1.8850    1.8145 C   0  0  2  0  0  0  0  0  0  0  0  0
   -0.8617    1.2996    1.3733 C   0  0  0  0  0  0  0  0  0  0  0  0
    0.0104    0.9468    2.1646 O   0  0  0  0  0  0  0  0  0  0  0  0
   -2.1879    3.4017    1.7050 C   0  0  0  0  0  0  0  0  0  0  0  0
   -3.2085    1.8948    3.6787 H   0  0  0  0  0  0  0  0  0  0  0  0
   -3.0007    1.4665    1.1994 H   0  0  0  0  0  0  0  0  0  0  0  0
   -1.3888    3.8390    2.3147 H   0  0  0  0  0  0  0  0  0  0  0  0
   -2.0284    3.7240    0.6708 H   0  0  0  0  0  0  0  0  0  0  0  0
   -3.1380    3.8230    2.0508 H   0  0  0  0  0  0  0  0  0  0  0  0
   -0.7390    1.2565   -0.0101 N   0  0  0  0  0  0  0  0  0  0  0  0
    0.4383    0.7557   -0.6738 C   0  0  2  0  0  0  0  0  0  0  0  0
    0.0027   -0.4239   -1.5358 C   0  0  0  0  0  0  0  0  0  0  0  0
   -0.7942   -0.3151   -2.4653 O   0  0  0  0  0  0  0  0  0  0  0  0
    1.5212    0.3187    0.3195 C   0  0  0  0  0  0  0  0  0  0  0  0
    2.0524    1.4648    1.1453 C   0  0  0  0  0  0  0  0  0  0  0  0
    2.9131    2.3991    0.6213 N   0  3  0  0  0  0  0  0  0  0  0  0
    1.8408    1.8128    2.4495 C   0  0  0  0  0  0  0  0  0  0  0  0
    3.2261    3.2947    1.5633 C   0  0  0  0  0  0  0  0  0  0  0  0
    2.5795    2.9480    2.6810 N   0  0  0  0  0  0  0  0  0  0  0  0
   -1.5221    1.5532   -0.5874 H   0  0  0  0  0  0  0  0  0  0  0  0
    0.7972    1.5621   -1.3240 H   0  0  0  0  0  0  0  0  0  0  0  0
    2.3498   -0.1693   -0.2114 H   0  0  0  0  0  0  0  0  0  0  0  0
    1.1283   -0.4449    1.0038 H   0  0  0  0  0  0  0  0  0  0  0  0
    3.2617    2.4112   -0.3333 H   0  0  0  0  0  0  0  0  0  0  0  0
    1.2689    1.4203    3.2666 H   0  0  0  0  0  0  0  0  0  0  0  0
    3.8812    4.1414    1.4435 H   0  0  0  0  0  0  0  0  0  0  0  0
    2.6292    3.4483    3.5640 H   0  0  0  0  0  0  0  0  0  0  0  0
    0.6480   -1.5982   -1.1738 N   0  0  0  0  0  0  0  0  0  0  0  0
    0.4346   -2.8603   -1.8449 C   0  0  2  0  0  0  0  0  0  0  0  0
   -1.0671   -3.0985   -1.9322 C   0  0  0  0  0  0  0  0  0  0  0  0
   -1.8761   -2.5637   -1.1770 O   0  0  0  0  0  0  0  0  0  0  0  0
    1.1242   -4.0004   -1.1118 C   0  0  0  0  0  0  0  0  0  0  0  0
    1.3031   -1.5692   -0.3981 H   0  0  0  0  0  0  0  0  0  0  0  0
    0.8476   -2.7556   -2.8541 H   0  0  0  0  0  0  0  0  0  0  0  0
    0.7235   -4.1205   -0.0986 H   0  0  0  0  0  0  0  0  0  0  0  0
    0.9855   -4.9512   -1.6370 H   0  0  0  0  0  0  0  0  0  0  0  0
    2.1998   -3.8131   -1.0238 H   0  0  0  0  0  0  0  0  0  0  0  0
   -1.3937   -4.0120   -2.9247 N   0  0  0  0  0  0  0  0  0  0  0  0
   -2.7538   -4.4147   -3.1966 C   0  0  0  0  0  0  0  0  0  0  0  0
   -0.6600   -4.3912   -3.5159 H   0  0  0  0  0  0  0  0  0  0  0  0
   -2.9918   -5.3191   -2.6174 H   0  0  0  0  0  0  0  0  0  0  0  0
   -3.4403   -3.6045   -2.9097 H   0  0  0  0  0  0  0  0  0  0  0  0
   -2.8656   -4.6270   -4.2701 H   0  0  0  0  0  0  0  0  0  0  0  0
 22 24  2  0  0  0  0
 24 26  1  0  0  0  0
 25 26  1  0  0  0  0
 23 25  2  0  0  0  0
 21 22  1  0  0  0  0
 22 23  1  0  0  0  0
  1  3  1  0  0  0  0
  1  7  1  0  0  0  0
  1  2  2  0  0  0  0
 36 37  1  0  0  0  0
 37 45  1  0  0  0  0
 37 38  2  0  0  0  0
  8  9  1  0  0  0  0
  9 17  1  0  0  0  0
  9 10  2  0  0  0  0
 18 19  1  0  0  0  0
 19 35  1  0  0  0  0
 19 20  2  0  0  0  0
 36 39  1  0  0  0  0
  8 11  1  0  0  0  0
 45 46  1  0  0  0  0
 18 21  1  0  0  0  0
 35 36  1  0  0  0  0
  7  8  1  0  0  0  0
 17 18  1  0  0  0  0
 24 32  1  0  0  0  0
 25 33  1  0  0  0  0
  3  4  1  0  0  0  0
  3  5  1  0  0  0  0
  3  6  1  0  0  0  0
 39 42  1  0  0  0  0
 39 43  1  0  0  0  0
 39 44  1  0  0  0  0
 11 14  1  0  0  0  0
 11 15  1  0  0  0  0
 11 16  1  0  0  0  0
 46 48  1  0  0  0  0
 46 49  1  0  0  0  0
 46 50  1  0  0  0  0
 21 29  1  0  0  0  0
 21 30  1  0  0  0  0
 36 41  1  0  0  0  0
  8 13  1  0  0  0  0
 18 28  1  0  0  0  0
 26 34  1  0  0  0  0
 23 31  1  0  0  0  0
 45 47  1  0  0  0  0
  7 12  1  0  0  0  0
 35 40  1  0  0  0  0
 17 27  1  0  0  0  0
M  CHG  1  23   1
M  END
$$$$

  -OEChem-05262214473D

 50 50  0     1  0  0  0  0  0999 V2000
   -1.6938    0.4865    3.8080 C   0  0  0  0  0  0  0  0  0  0  0  0
   -0.7464   -0.1282    3.3323 O   0  0  0  0  0  0  0  0  0  0  0  0
   -2.1257    0.2041    5.2087 C   0  0  0  0  0  0  0  0  0  0  0  0
   -2.8853   -0.5922    5.2621 H   0  0  0  0  0  0  0  0  0  0  0  0
   -1.2944   -0.1435    5.8430 H   0  0  0  0  0  0  0  0  0  0  0  0
   -2.5637    1.0590    5.7483 H   0  0  0  0  0  0  0  0  0  0  0  0
   -2.4435    1.4589    3.1669 N   0  0  0  0  0  0  0  0  0  0  0  0
   -2.1966    1.8850    1.8145 C   0  0  2  0  0  0  0  0  0  0  0  0
   -0.8617    1.2996    1.3733 C   0  0  0  0  0  0  0  0  0  0  0  0
    0.0104    0.9468    2.1646 O   0  0  0  0  0  0  0  0  0  0  0  0
   -2.1879    3.4017    1.7050 C   0  0  0  0  0  0  0  0  0  0  0  0
   -3.2085    1.8948    3.6787 H   0  0  0  0  0  0  0  0  0  0  0  0
   -3.0007    1.4665    1.1994 H   0  0  0  0  0  0  0  0  0  0  0  0
   -1.3888    3.8390    2.3147 H   0  0  0  0  0  0  0  0  0  0  0  0
   -2.0284    3.7240    0.6708 H   0  0  0  0  0  0  0  0  0  0  0  0
   -3.1380    3.8230    2.0508 H   0  0  0  0  0  0  0  0  0  0  0  0
   -0.7390    1.2565   -0.0101 N   0  0  0  0  0  0  0  0  0  0  0  0
    0.4383    0.7557   -0.6738 C   0  0  2  0  0  0  0  0  0  0  0  0
    0.0027   -0.4239   -1.5358 C   0  0  0  0  0  0  0  0  0  0  0  0
   -0.5715   -0.2886   -2.6141 O   0  0  0  0  0  0  0  0  0  0  0  0
    1.5212    0.3187    0.3195 C   0  0  0  0  0  0  0  0  0  0  0  0
    2.0524    1.4648    1.1453 C   0  0  0  0  0  0  0  0  0  0  0  0
    2.9131    2.3991    0.6213 N   0  3  0  0  0  0  0  0  0  0  0  0
    1.8408    1.8128    2.4495 C   0  0  0  0  0  0  0  0  0  0  0  0
    3.2261    3.2947    1.5633 C   0  0  0  0  0  0  0  0  0  0  0  0
    2.5795    2.9480    2.6810 N   0  0  0  0  0  0  0  0  0  0  0  0
   -1.5221    1.5532   -0.5874 H   0  0  0  0  0  0  0  0  0  0  0  0
    0.7972    1.5621   -1.3240 H   0  0  0  0  0  0  0  0  0  0  0  0
    2.3498   -0.1693   -0.2114 H   0  0  0  0  0  0  0  0  0  0  0  0
    1.1283   -0.4449    1.0038 H   0  0  0  0  0  0  0  0  0  0  0  0
    3.2617    2.4112   -0.3333 H   0  0  0  0  0  0  0  0  0  0  0  0
    1.2689    1.4203    3.2666 H   0  0  0  0  0  0  0  0  0  0  0  0
    3.8812    4.1414    1.4435 H   0  0  0  0  0  0  0  0  0  0  0  0
    2.6292    3.4483    3.5640 H   0  0  0  0  0  0  0  0  0  0  0  0
    0.3766   -1.6396   -0.9801 N   0  0  0  0  0  0  0  0  0  0  0  0
    0.1064   -2.9144   -1.6050 C   0  0  2  0  0  0  0  0  0  0  0  0
   -1.3680   -2.9487   -1.9852 C   0  0  0  0  0  0  0  0  0  0  0  0
   -2.2165   -2.2417   -1.4455 O   0  0  0  0  0  0  0  0  0  0  0  0
    0.4562   -4.0694   -0.6797 C   0  0  0  0  0  0  0  0  0  0  0  0
    0.8647   -1.6329   -0.0893 H   0  0  0  0  0  0  0  0  0  0  0  0
    0.7192   -2.9581   -2.5120 H   0  0  0  0  0  0  0  0  0  0  0  0
   -0.1477   -4.0423    0.2346 H   0  0  0  0  0  0  0  0  0  0  0  0
    0.2778   -5.0347   -1.1651 H   0  0  0  0  0  0  0  0  0  0  0  0
    1.5098   -4.0262   -0.3835 H   0  0  0  0  0  0  0  0  0  0  0  0
   -1.6317   -3.8925   -2.9680 N   0  0  0  0  0  0  0  0  0  0  0  0
   -2.9582   -4.1251   -3.4897 C   0  0  0  0  0  0  0  0  0  0  0  0
   -0.8641   -4.4209   -3.3721 H   0  0  0  0  0  0  0  0  0  0  0  0
   -3.4406   -4.9326   -2.9194 H   0  0  0  0  0  0  0  0  0  0  0  0
   -3.5544   -3.2052   -3.3985 H   0  0  0  0  0  0  0  0  0  0  0  0
   -2.8901   -4.4144   -4.5488 H   0  0  0  0  0  0  0  0  0  0  0  0
 22 24  2  0  0  0  0
 24 26  1  0  0  0  0
 25 26  1  0  0  0  0
 23 25  2  0  0  0  0
 21 22  1  0  0  0  0
 22 23  1  0  0  0  0
  1  3  1  0  0  0  0
  1  7  1  0  0  0  0
  1  2  2  0  0  0  0
 36 37  1  0  0  0  0
 37 45  1  0  0  0  0
 37 38  2  0  0  0  0
  8  9  1  0  0  0  0
  9 17  1  0  0  0  0
  9 10  2  0  0  0  0
 18 19  1  0  0  0  0
 19 35  1  0  0  0  0
 19 20  2  0  0  0  0
 36 39  1  0  0  0  0
  8 11  1  0  0  0  0
 45 46  1  0  0  0  0
 18 21  1  0  0  0  0
 35 36  1  0  0  0  0
  7  8  1  0  0  0  0
 17 18  1  0  0  0  0
 24 32  1  0  0  0  0
 25 33  1  0  0  0  0
  3  4  1  0  0  0  0
  3  5  1  0  0  0  0
  3  6  1  0  0  0  0
 39 42  1  0  0  0  0
 39 43  1  0  0  0  0
 39 44  1  0  0  0  0
 11 14  1  0  0  0  0
 11 15  1  0  0  0  0
 11 16  1  0  0  0  0
 46 48  1  0  0  0  0
 46 49  1  0  0  0  0
 46 50  1  0  0  0  0
 21 29  1  0  0  0  0
 21 30  1  0  0  0  0
 36 41  1  0  0  0  0
  8 13  1  0  0  0  0
 18 28  1  0  0  0  0
 26 34  1  0  0  0  0
 23 31  1  0  0  0  0
 45 47  1  0  0  0  0
  7 12  1  0  0  0  0
 35 40  1  0  0  0  0
 17 27  1  0  0  0  0
M  CHG  1  23   1
M  END
$$$$

  -OEChem-05262214473D

 50 50  0     1  0  0  0  0  0999 V2000
   -1.6938    0.4865    3.8080 C   0  0  0  0  0  0  0  0  0  0  0  0
   -0.7464   -0.1282    3.3323 O   0  0  0  0  0  0  0  0  0  0  0  0
   -2.1257    0.2041    5.2087 C   0  0  0  0  0  0  0  0  0  0  0  0
   -2.8853   -0.5922    5.2621 H   0  0  0  0  0  0  0  0  0  0  0  0
   -1.2944   -0.1435    5.8430 H   0  0  0  0  0  0  0  0  0  0  0  0
   -2.5637    1.0590    5.7483 H   0  0  0  0  0  0  0  0  0  0  0  0
   -2.4435    1.4589    3.1669 N   0  0  0  0  0  0  0  0  0  0  0  0
   -2.1966    1.8850    1.8145 C   0  0  2  0  0  0  0  0  0  0  0  0
   -0.8617    1.2996    1.3733 C   0  0  0  0  0  0  0  0  0  0  0  0
    0.0104    0.9468    2.1646 O   0  0  0  0  0  0  0  0  0  0  0  0
   -2.1879    3.4017    1.7050 C   0  0  0  0  0  0  0  0  0  0  0  0
   -3.2085    1.8948    3.6787 H   0  0  0  0  0  0  0  0  0  0  0  0
   -3.0007    1.4665    1.1994 H   0  0  0  0  0  0  0  0  0  0  0  0
   -1.3888    3.8390    2.3147 H   0  0  0  0  0  0  0  0  0  0  0  0
   -2.0284    3.7240    0.6708 H   0  0  0  0  0  0  0  0  0  0  0  0
   -3.1380    3.8230    2.0508 H   0  0  0  0  0  0  0  0  0  0  0  0
   -0.7390    1.2565   -0.0101 N   0  0  0  0  0  0  0  0  0  0  0  0
    0.4383    0.7557   -0.6738 C   0  0  2  0  0  0  0  0  0  0  0  0
    0.0027   -0.4239   -1.5358 C   0  0  0  0  0  0  0  0  0  0  0  0
   -0.3227   -0.3066   -2.7153 O   0  0  0  0  0  0  0  0  0  0  0  0
    1.5212    0.3187    0.3195 C   0  0  0  0  0  0  0  0  0  0  0  0
    2.0524    1.4648    1.1453 C   0  0  0  0  0  0  0  0  0  0  0  0
    2.9131    2.3991    0.6213 N   0  3  0  0  0  0  0  0  0  0  0  0
    1.8408    1.8128    2.4495 C   0  0  0  0  0  0  0  0  0  0  0  0
    3.2261    3.2947    1.5633 C   0  0  0  0  0  0  0  0  0  0  0  0
    2.5795    2.9480    2.6810 N   0  0  0  0  0  0  0  0  0  0  0  0
   -1.5221    1.5532   -0.5874 H   0  0  0  0  0  0  0  0  0  0  0  0
    0.7972    1.5621   -1.3240 H   0  0  0  0  0  0  0  0  0  0  0  0
    2.3498   -0.1693   -0.2114 H   0  0  0  0  0  0  0  0  0  0  0  0
    1.1283   -0.4449    1.0038 H   0  0  0  0  0  0  0  0  0  0  0  0
    3.2617    2.4112   -0.3333 H   0  0  0  0  0  0  0  0  0  0  0  0
    1.2689    1.4203    3.2666 H   0  0  0  0  0  0  0  0  0  0  0  0
    3.8812    4.1414    1.4435 H   0  0  0  0  0  0  0  0  0  0  0  0
    2.6292    3.4483    3.5640 H   0  0  0  0  0  0  0  0  0  0  0  0
    0.0696   -1.6254   -0.8442 N   0  0  0  0  0  0  0  0  0  0  0  0
   -0.2666   -2.9009   -1.4351 C   0  0  2  0  0  0  0  0  0  0  0  0
   -1.6260   -2.7638   -2.1078 C   0  0  0  0  0  0  0  0  0  0  0  0
   -2.4443   -1.9008   -1.7969 O   0  0  0  0  0  0  0  0  0  0  0  0
   -0.2857   -4.0065   -0.3910 C   0  0  0  0  0  0  0  0  0  0  0  0
    0.3699   -1.6075    0.1259 H   0  0  0  0  0  0  0  0  0  0  0  0
    0.4969   -3.1097   -2.1924 H   0  0  0  0  0  0  0  0  0  0  0  0
   -1.0446   -3.8147    0.3763 H   0  0  0  0  0  0  0  0  0  0  0  0
   -0.5124   -4.9769   -0.8449 H   0  0  0  0  0  0  0  0  0  0  0  0
    0.6840   -4.0838    0.1126 H   0  0  0  0  0  0  0  0  0  0  0  0
   -1.8353   -3.7455   -3.0663 N   0  0  0  0  0  0  0  0  0  0  0  0
   -3.0545   -3.8371   -3.8351 C   0  0  0  0  0  0  0  0  0  0  0  0
   -1.0943   -4.4091   -3.2719 H   0  0  0  0  0  0  0  0  0  0  0  0
   -3.7572   -4.5159   -3.3297 H   0  0  0  0  0  0  0  0  0  0  0  0
   -3.5083   -2.8389   -3.9230 H   0  0  0  0  0  0  0  0  0  0  0  0
   -2.8268   -4.2260   -4.8385 H   0  0  0  0  0  0  0  0  0  0  0  0
 22 24  2  0  0  0  0
 24 26  1  0  0  0  0
 25 26  1  0  0  0  0
 23 25  2  0  0  0  0
 21 22  1  0  0  0  0
 22 23  1  0  0  0  0
  1  3  1  0  0  0  0
  1  7  1  0  0  0  0
  1  2  2  0  0  0  0
 36 37  1  0  0  0  0
 37 45  1  0  0  0  0
 37 38  2  0  0  0  0
  8  9  1  0  0  0  0
  9 17  1  0  0  0  0
  9 10  2  0  0  0  0
 18 19  1  0  0  0  0
 19 35  1  0  0  0  0
 19 20  2  0  0  0  0
 36 39  1  0  0  0  0
  8 11  1  0  0  0  0
 45 46  1  0  0  0  0
 18 21  1  0  0  0  0
 35 36  1  0  0  0  0
  7  8  1  0  0  0  0
 17 18  1  0  0  0  0
 24 32  1  0  0  0  0
 25 33  1  0  0  0  0
  3  4  1  0  0  0  0
  3  5  1  0  0  0  0
  3  6  1  0  0  0  0
 39 42  1  0  0  0  0
 39 43  1  0  0  0  0
 39 44  1  0  0  0  0
 11 14  1  0  0  0  0
 11 15  1  0  0  0  0
 11 16  1  0  0  0  0
 46 48  1  0  0  0  0
 46 49  1  0  0  0  0
 46 50  1  0  0  0  0
 21 29  1  0  0  0  0
 21 30  1  0  0  0  0
 36 41  1  0  0  0  0
  8 13  1  0  0  0  0
 18 28  1  0  0  0  0
 26 34  1  0  0  0  0
 23 31  1  0  0  0  0
 45 47  1  0  0  0  0
  7 12  1  0  0  0  0
 35 40  1  0  0  0  0
 17 27  1  0  0  0  0
M  CHG  1  23   1
M  END
$$$$

  -OEChem-05262214473D

 50 50  0     1  0  0  0  0  0999 V2000
   -1.6938    0.4865    3.8080 C   0  0  0  0  0  0  0  0  0  0  0  0
   -0.7464   -0.1282    3.3323 O   0  0  0  0  0  0  0  0  0  0  0  0
   -2.1257    0.2041    5.2087 C   0  0  0  0  0  0  0  0  0  0  0  0
   -2.8853   -0.5922    5.2621 H   0  0  0  0  0  0  0  0  0  0  0  0
   -1.2944   -0.1435    5.8430 H   0  0  0  0  0  0  0  0  0  0  0  0
   -2.5637    1.0590    5.7483 H   0  0  0  0  0  0  0  0  0  0  0  0
   -2.4435    1.4589    3.1669 N   0  0  0  0  0  0  0  0  0  0  0  0
   -2.1966    1.8850    1.8145 C   0  0  2  0  0  0  0  0  0  0  0  0
   -0.8617    1.2996    1.3733 C   0  0  0  0  0  0  0  0  0  0  0  0
    0.0104    0.9468    2.1646 O   0  0  0  0  0  0  0  0  0  0  0  0
   -2.1879    3.4017    1.7050 C   0  0  0  0  0  0  0  0  0  0  0  0
   -3.2085    1.8948    3.6787 H   0  0  0  0  0  0  0  0  0  0  0  0
   -3.0007    1.4665    1.1994 H   0  0  0  0  0  0  0  0  0  0  0  0
   -1.3888    3.8390    2.3147 H   0  0  0  0  0  0  0  0  0  0  0  0
   -2.0284    3.7240    0.6708 H   0  0  0  0  0  0  0  0  0  0  0  0
   -3.1380    3.8230    2.0508 H   0  0  0  0  0  0  0  0  0  0  0  0
   -0.7390    1.2565   -0.0101 N   0  0  0  0  0  0  0  0  0  0  0  0
    0.4383    0.7557   -0.6738 C   0  0  2  0  0  0  0  0  0  0  0  0
    0.0027   -0.4239   -1.5358 C   0  0  0  0  0  0  0  0  0  0  0  0
   -0.0647   -0.3678   -2.7618 O   0  0  0  0  0  0  0  0  0  0  0  0
    1.5212    0.3187    0.3195 C   0  0  0  0  0  0  0  0  0  0  0  0
    2.0524    1.4648    1.1453 C   0  0  0  0  0  0  0  0  0  0  0  0
    2.9131    2.3991    0.6213 N   0  3  0  0  0  0  0  0  0  0  0  0
    1.8408    1.8128    2.4495 C   0  0  0  0  0  0  0  0  0  0  0  0
    3.2261    3.2947    1.5633 C   0  0  0  0  0  0  0  0  0  0  0  0
    2.5795    2.9480    2.6810 N   0  0  0  0  0  0  0  0  0  0  0  0
   -1.5221    1.5532   -0.5874 H   0  0  0  0  0  0  0  0  0  0  0  0
    0.7972    1.5621   -1.3240 H   0  0  0  0  0  0  0  0  0  0  0  0
    2.3498   -0.1693   -0.2114 H   0  0  0  0  0  0  0  0  0  0  0  0
    1.1283   -0.4449    1.0038 H   0  0  0  0  0  0  0  0  0  0  0  0
    3.2617    2.4112   -0.3333 H   0  0  0  0  0  0  0  0  0  0  0  0
    1.2689    1.4203    3.2666 H   0  0  0  0  0  0  0  0  0  0  0  0
    3.8812    4.1414    1.4435 H   0  0  0  0  0  0  0  0  0  0  0  0
    2.6292    3.4483    3.5640 H   0  0  0  0  0  0  0  0  0  0  0  0
   -0.2521   -1.5569   -0.7756 N   0  0  0  0  0  0  0  0  0  0  0  0
   -0.6589   -2.8207   -1.3466 C   0  0  2  0  0  0  0  0  0  0  0  0
   -1.8237   -2.5566   -2.2915 C   0  0  0  0  0  0  0  0  0  0  0  0
   -2.5441   -1.5641   -2.2072 O   0  0  0  0  0  0  0  0  0  0  0  0
   -1.0509   -3.8157   -0.2654 C   0  0  0  0  0  0  0  0  0  0  0  0
   -0.1473   -1.4946    0.2329 H   0  0  0  0  0  0  0  0  0  0  0  0
    0.1961   -3.1999   -1.9169 H   0  0  0  0  0  0  0  0  0  0  0  0
   -1.9059   -3.4530    0.3166 H   0  0  0  0  0  0  0  0  0  0  0  0
   -1.3315   -4.7817   -0.6981 H   0  0  0  0  0  0  0  0  0  0  0  0
   -0.2215   -3.9818    0.4306 H   0  0  0  0  0  0  0  0  0  0  0  0
   -1.9908   -3.5809   -3.2129 N   0  0  0  0  0  0  0  0  0  0  0  0
   -3.0363   -3.5703   -4.2094 C   0  0  0  0  0  0  0  0  0  0  0  0
   -1.3351   -4.3566   -3.2221 H   0  0  0  0  0  0  0  0  0  0  0  0
   -3.9198   -4.0975   -3.8201 H   0  0  0  0  0  0  0  0  0  0  0  0
   -3.3051   -2.5306   -4.4475 H   0  0  0  0  0  0  0  0  0  0  0  0
   -2.6801   -4.0747   -5.1197 H   0  0  0  0  0  0  0  0  0  0  0  0
 22 24  2  0  0  0  0
 24 26  1  0  0  0  0
 25 26  1  0  0  0  0
 23 25  2  0  0  0  0
 21 22  1  0  0  0  0
 22 23  1  0  0  0  0
  1  3  1  0  0  0  0
  1  7  1  0  0  0  0
  1  2  2  0  0  0  0
 36 37  1  0  0  0  0
 37 45  1  0  0  0  0
 37 38  2  0  0  0  0
  8  9  1  0  0  0  0
  9 17  1  0  0  0  0
  9 10  2  0  0  0  0
 18 19  1  0  0  0  0
 19 35  1  0  0  0  0
 19 20  2  0  0  0  0
 36 39  1  0  0  0  0
  8 11  1  0  0  0  0
 45 46  1  0  0  0  0
 18 21  1  0  0  0  0
 35 36  1  0  0  0  0
  7  8  1  0  0  0  0
 17 18  1  0  0  0  0
 24 32  1  0  0  0  0
 25 33  1  0  0  0  0
  3  4  1  0  0  0  0
  3  5  1  0  0  0  0
  3  6  1  0  0  0  0
 39 42  1  0  0  0  0
 39 43  1  0  0  0  0
 39 44  1  0  0  0  0
 11 14  1  0  0  0  0
 11 15  1  0  0  0  0
 11 16  1  0  0  0  0
 46 48  1  0  0  0  0
 46 49  1  0  0  0  0
 46 50  1  0  0  0  0
 21 29  1  0  0  0  0
 21 30  1  0  0  0  0
 36 41  1  0  0  0  0
  8 13  1  0  0  0  0
 18 28  1  0  0  0  0
 26 34  1  0  0  0  0
 23 31  1  0  0  0  0
 45 47  1  0  0  0  0
  7 12  1  0  0  0  0
 35 40  1  0  0  0  0
 17 27  1  0  0  0  0
M  CHG  1  23   1
M  END
$$$$

  -OEChem-05262214473D

 50 50  0     1  0  0  0  0  0999 V2000
   -1.6938    0.4865    3.8080 C   0  0  0  0  0  0  0  0  0  0  0  0
   -0.7464   -0.1282    3.3323 O   0  0  0  0  0  0  0  0  0  0  0  0
   -2.1257    0.2041    5.2087 C   0  0  0  0  0  0  0  0  0  0  0  0
   -2.8853   -0.5922    5.2621 H   0  0  0  0  0  0  0  0  0  0  0  0
   -1.2944   -0.1435    5.8430 H   0  0  0  0  0  0  0  0  0  0  0  0
   -2.5637    1.0590    5.7483 H   0  0  0  0  0  0  0  0  0  0  0  0
   -2.4435    1.4589    3.1669 N   0  0  0  0  0  0  0  0  0  0  0  0
   -2.1966    1.8850    1.8145 C   0  0  2  0  0  0  0  0  0  0  0  0
   -0.8617    1.2996    1.3733 C   0  0  0  0  0  0  0  0  0  0  0  0
    0.0104    0.9468    2.1646 O   0  0  0  0  0  0  0  0  0  0  0  0
   -2.1879    3.4017    1.7050 C   0  0  0  0  0  0  0  0  0  0  0  0
   -3.2085    1.8948    3.6787 H   0  0  0  0  0  0  0  0  0  0  0  0
   -3.0007    1.4665    1.1994 H   0  0  0  0  0  0  0  0  0  0  0  0
   -1.3888    3.8390    2.3147 H   0  0  0  0  0  0  0  0  0  0  0  0
   -2.0284    3.7240    0.6708 H   0  0  0  0  0  0  0  0  0  0  0  0
   -3.1380    3.8230    2.0508 H   0  0  0  0  0  0  0  0  0  0  0  0
   -0.7390    1.2565   -0.0101 N   0  0  0  0  0  0  0  0  0  0  0  0
    0.4383    0.7557   -0.6738 C   0  0  2  0  0  0  0  0  0  0  0  0
    0.0027   -0.4239   -1.5358 C   0  0  0  0  0  0  0  0  0  0  0  0
    0.1848   -0.4681   -2.7506 O   0  0  0  0  0  0  0  0  0  0  0  0
    1.5212    0.3187    0.3195 C   0  0  0  0  0  0  0  0  0  0  0  0
    2.0524    1.4648    1.1453 C   0  0  0  0  0  0  0  0  0  0  0  0
    2.9131    2.3991    0.6213 N   0  3  0  0  0  0  0  0  0  0  0  0
    1.8408    1.8128    2.4495 C   0  0  0  0  0  0  0  0  0  0  0  0
    3.2261    3.2947    1.5633 C   0  0  0  0  0  0  0  0  0  0  0  0
    2.5795    2.9480    2.6810 N   0  0  0  0  0  0  0  0  0  0  0  0
   -1.5221    1.5532   -0.5874 H   0  0  0  0  0  0  0  0  0  0  0  0
    0.7972    1.5621   -1.3240 H   0  0  0  0  0  0  0  0  0  0  0  0
    2.3498   -0.1693   -0.2114 H   0  0  0  0  0  0  0  0  0  0  0  0
    1.1283   -0.4449    1.0038 H   0  0  0  0  0  0  0  0  0  0  0  0
    3.2617    2.4112   -0.3333 H   0  0  0  0  0  0  0  0  0  0  0  0
    1.2689    1.4203    3.2666 H   0  0  0  0  0  0  0  0  0  0  0  0
    3.8812    4.1414    1.4435 H   0  0  0  0  0  0  0  0  0  0  0  0
    2.6292    3.4483    3.5640 H   0  0  0  0  0  0  0  0  0  0  0  0
   -0.5665   -1.4384   -0.7787 N   0  0  0  0  0  0  0  0  0  0  0  0
   -1.0438   -2.6792   -1.3456 C   0  0  2  0  0  0  0  0  0  0  0  0
   -1.9476   -2.3410   -2.5239 C   0  0  0  0  0  0  0  0  0  0  0  0
   -2.5091   -1.2547   -2.6483 O   0  0  0  0  0  0  0  0  0  0  0  0
   -1.7872   -3.5102   -0.3114 C   0  0  0  0  0  0  0  0  0  0  0  0
   -0.6518   -1.3020    0.2242 H   0  0  0  0  0  0  0  0  0  0  0  0
   -0.1629   -3.2226   -1.7044 H   0  0  0  0  0  0  0  0  0  0  0  0
   -2.6731   -2.9821    0.0598 H   0  0  0  0  0  0  0  0  0  0  0  0
   -2.1234   -4.4625   -0.7347 H   0  0  0  0  0  0  0  0  0  0  0  0
   -1.1449   -3.7273    0.5490 H   0  0  0  0  0  0  0  0  0  0  0  0
   -2.0876   -3.4100   -3.3978 N   0  0  0  0  0  0  0  0  0  0  0  0
   -2.9046   -3.3430   -4.5869 C   0  0  0  0  0  0  0  0  0  0  0  0
   -1.5700   -4.2670   -3.2261 H   0  0  0  0  0  0  0  0  0  0  0  0
   -3.9175   -3.7057   -4.3574 H   0  0  0  0  0  0  0  0  0  0  0  0
   -2.9587   -2.3014   -4.9363 H   0  0  0  0  0  0  0  0  0  0  0  0
   -2.4599   -3.9708   -5.3731 H   0  0  0  0  0  0  0  0  0  0  0  0
 22 24  2  0  0  0  0
 24 26  1  0  0  0  0
 25 26  1  0  0  0  0
 23 25  2  0  0  0  0
 21 22  1  0  0  0  0
 22 23  1  0  0  0  0
  1  3  1  0  0  0  0
  1  7  1  0  0  0  0
  1  2  2  0  0  0  0
 36 37  1  0  0  0  0
 37 45  1  0  0  0  0
 37 38  2  0  0  0  0
  8  9  1  0  0  0  0
  9 17  1  0  0  0  0
  9 10  2  0  0  0  0
 18 19  1  0  0  0  0
 19 35  1  0  0  0  0
 19 20  2  0  0  0  0
 36 39  1  0  0  0  0
  8 11  1  0  0  0  0
 45 46  1  0  0  0  0
 18 21  1  0  0  0  0
 35 36  1  0  0  0  0
  7  8  1  0  0  0  0
 17 18  1  0  0  0  0
 24 32  1  0  0  0  0
 25 33  1  0  0  0  0
  3  4  1  0  0  0  0
  3  5  1  0  0  0  0
  3  6  1  0  0  0  0
 39 42  1  0  0  0  0
 39 43  1  0  0  0  0
 39 44  1  0  0  0  0
 11 14  1  0  0  0  0
 11 15  1  0  0  0  0
 11 16  1  0  0  0  0
 46 48  1  0  0  0  0
 46 49  1  0  0  0  0
 46 50  1  0  0  0  0
 21 29  1  0  0  0  0
 21 30  1  0  0  0  0
 36 41  1  0  0  0  0
  8 13  1  0  0  0  0
 18 28  1  0  0  0  0
 26 34  1  0  0  0  0
 23 31  1  0  0  0  0
 45 47  1  0  0  0  0
  7 12  1  0  0  0  0
 35 40  1  0  0  0  0
 17 27  1  0  0  0  0
M  CHG  1  23   1
M  END
$$$$

  -OEChem-05262214473D

 50 50  0     1  0  0  0  0  0999 V2000
   -1.6938    0.4865    3.8080 C   0  0  0  0  0  0  0  0  0  0  0  0
   -0.7464   -0.1282    3.3323 O   0  0  0  0  0  0  0  0  0  0  0  0
   -2.1257    0.2041    5.2087 C   0  0  0  0  0  0  0  0  0  0  0  0
   -2.8853   -0.5922    5.2621 H   0  0  0  0  0  0  0  0  0  0  0  0
   -1.2944   -0.1435    5.8430 H   0  0  0  0  0  0  0  0  0  0  0  0
   -2.5637    1.0590    5.7483 H   0  0  0  0  0  0  0  0  0  0  0  0
   -2.4435    1.4589    3.1669 N   0  0  0  0  0  0  0  0  0  0  0  0
   -2.1966    1.8850    1.8145 C   0  0  2  0  0  0  0  0  0  0  0  0
   -0.8617    1.2996    1.3733 C   0  0  0  0  0  0  0  0  0  0  0  0
    0.0104    0.9468    2.1646 O   0  0  0  0  0  0  0  0  0  0  0  0
   -2.1879    3.4017    1.7050 C   0  0  0  0  0  0  0  0  0  0  0  0
   -3.2085    1.8948    3.6787 H   0  0  0  0  0  0  0  0  0  0  0  0
   -3.0007    1.4665    1.1994 H   0  0  0  0  0  0  0  0  0  0  0  0
   -1.3888    3.8390    2.3147 H   0  0  0  0  0  0  0  0  0  0  0  0
   -2.0284    3.7240    0.6708 H   0  0  0  0  0  0  0  0  0  0  0  0
   -3.1380    3.8230    2.0508 H   0  0  0  0  0  0  0  0  0  0  0  0
   -0.7390    1.2565   -0.0101 N   0  0  0  0  0  0  0  0  0  0  0  0
    0.4383    0.7557   -0.6738 C   0  0  2  0  0  0  0  0  0  0  0  0
    0.0027   -0.4239   -1.5358 C   0  0  0  0  0  0  0  0  0  0  0  0
    0.4089   -0.6008   -2.6824 O   0  0  0  0  0  0  0  0  0  0  0  0
    1.5212    0.3187    0.3195 C   0  0  0  0  0  0  0  0  0  0  0  0
    2.0524    1.4648    1.1453 C   0  0  0  0  0  0  0  0  0  0  0  0
    2.9131    2.3991    0.6213 N   0  3  0  0  0  0  0  0  0  0  0  0
    1.8408    1.8128    2.4495 C   0  0  0  0  0  0  0  0  0  0  0  0
    3.2261    3.2947    1.5633 C   0  0  0  0  0  0  0  0  0  0  0  0
    2.5795    2.9480    2.6810 N   0  0  0  0  0  0  0  0  0  0  0  0
   -1.5221    1.5532   -0.5874 H   0  0  0  0  0  0  0  0  0  0  0  0
    0.7972    1.5621   -1.3240 H   0  0  0  0  0  0  0  0  0  0  0  0
    2.3498   -0.1693   -0.2114 H   0  0  0  0  0  0  0  0  0  0  0  0
    1.1283   -0.4449    1.0038 H   0  0  0  0  0  0  0  0  0  0  0  0
    3.2617    2.4112   -0.3333 H   0  0  0  0  0  0  0  0  0  0  0  0
    1.2689    1.4203    3.2666 H   0  0  0  0  0  0  0  0  0  0  0  0
    3.8812    4.1414    1.4435 H   0  0  0  0  0  0  0  0  0  0  0  0
    2.6292    3.4483    3.5640 H   0  0  0  0  0  0  0  0  0  0  0  0
   -0.8522   -1.2783   -0.8535 N   0  0  0  0  0  0  0  0  0  0  0  0
   -1.3952   -2.4862   -1.4322 C   0  0  2  0  0  0  0  0  0  0  0  0
   -1.9891   -2.1319   -2.7891 C   0  0  0  0  0  0  0  0  0  0  0  0
   -2.3417   -0.9935   -3.0903 O   0  0  0  0  0  0  0  0  0  0  0  0
   -2.4446   -3.1108   -0.5258 C   0  0  0  0  0  0  0  0  0  0  0  0
   -1.1092   -1.0428    0.1006 H   0  0  0  0  0  0  0  0  0  0  0  0
   -0.5555   -3.1763   -1.5693 H   0  0  0  0  0  0  0  0  0  0  0  0
   -3.2937   -2.4339   -0.3767 H   0  0  0  0  0  0  0  0  0  0  0  0
   -2.8343   -4.0409   -0.9523 H   0  0  0  0  0  0  0  0  0  0  0  0
   -2.0233   -3.3376    0.4595 H   0  0  0  0  0  0  0  0  0  0  0  0
   -2.1190   -3.2445   -3.6085 N   0  0  0  0  0  0  0  0  0  0  0  0
   -2.6686   -3.1707   -4.9421 C   0  0  0  0  0  0  0  0  0  0  0  0
   -1.7829   -4.1463   -3.2836 H   0  0  0  0  0  0  0  0  0  0  0  0
   -3.7502   -3.3674   -4.9049 H   0  0  0  0  0  0  0  0  0  0  0  0
   -2.4927   -2.1668   -5.3560 H   0  0  0  0  0  0  0  0  0  0  0  0
   -2.1813   -3.9215   -5.5814 H   0  0  0  0  0  0  0  0  0  0  0  0
 22 24  2  0  0  0  0
 24 26  1  0  0  0  0
 25 26  1  0  0  0  0
 23 25  2  0  0  0  0
 21 22  1  0  0  0  0
 22 23  1  0  0  0  0
  1  3  1  0  0  0  0
  1  7  1  0  0  0  0
  1  2  2  0  0  0  0
 36 37  1  0  0  0  0
 37 45  1  0  0  0  0
 37 38  2  0  0  0  0
  8  9  1  0  0  0  0
  9 17  1  0  0  0  0
  9 10  2  0  0  0  0
 18 19  1  0  0  0  0
 19 35  1  0  0  0  0
 19 20  2  0  0  0  0
 36 39  1  0  0  0  0
  8 11  1  0  0  0  0
 45 46  1  0  0  0  0
 18 21  1  0  0  0  0
 35 36  1  0  0  0  0
  7  8  1  0  0  0  0
 17 18  1  0  0  0  0
 24 32  1  0  0  0  0
 25 33  1  0  0  0  0
  3  4  1  0  0  0  0
  3  5  1  0  0  0  0
  3  6  1  0  0  0  0
 39 42  1  0  0  0  0
 39 43  1  0  0  0  0
 39 44  1  0  0  0  0
 11 14  1  0  0  0  0
 11 15  1  0  0  0  0
 11 16  1  0  0  0  0
 46 48  1  0  0  0  0
 46 49  1  0  0  0  0
 46 50  1  0  0  0  0
 21 29  1  0  0  0  0
 21 30  1  0  0  0  0
 36 41  1  0  0  0  0
  8 13  1  0  0  0  0
 18 28  1  0  0  0  0
 26 34  1  0  0  0  0
 23 31  1  0  0  0  0
 45 47  1  0  0  0  0
  7 12  1  0  0  0  0
 35 40  1  0  0  0  0
 17 27  1  0  0  0  0
M  CHG  1  23   1
M  END
$$$$

  -OEChem-05262214473D

 50 50  0     1  0  0  0  0  0999 V2000
   -1.6938    0.4865    3.8080 C   0  0  0  0  0  0  0  0  0  0  0  0
   -0.7464   -0.1282    3.3323 O   0  0  0  0  0  0  0  0  0  0  0  0
   -2.1257    0.2041    5.2087 C   0  0  0  0  0  0  0  0  0  0  0  0
   -2.8853   -0.5922    5.2621 H   0  0  0  0  0  0  0  0  0  0  0  0
   -1.2944   -0.1435    5.8430 H   0  0  0  0  0  0  0  0  0  0  0  0
   -2.5637    1.0590    5.7483 H   0  0  0  0  0  0  0  0  0  0  0  0
   -2.4435    1.4589    3.1669 N   0  0  0  0  0  0  0  0  0  0  0  0
   -2.1966    1.8850    1.8145 C   0  0  2  0  0  0  0  0  0  0  0  0
   -0.8617    1.2996    1.3733 C   0  0  0  0  0  0  0  0  0  0  0  0
    0.0104    0.9468    2.1646 O   0  0  0  0  0  0  0  0  0  0  0  0
   -2.1879    3.4017    1.7050 C   0  0  0  0  0  0  0  0  0  0  0  0
   -3.2085    1.8948    3.6787 H   0  0  0  0  0  0  0  0  0  0  0  0
   -3.0007    1.4665    1.1994 H   0  0  0  0  0  0  0  0  0  0  0  0
   -1.3888    3.8390    2.3147 H   0  0  0  0  0  0  0  0  0  0  0  0
   -2.0284    3.7240    0.6708 H   0  0  0  0  0  0  0  0  0  0  0  0
   -3.1380    3.8230    2.0508 H   0  0  0  0  0  0  0  0  0  0  0  0
   -0.7390    1.2565   -0.0101 N   0  0  0  0  0  0  0  0  0  0  0  0
    0.4383    0.7557   -0.6738 C   0  0  2  0  0  0  0  0  0  0  0  0
    0.0027   -0.4239   -1.5358 C   0  0  0  0  0  0  0  0  0  0  0  0
    0.5922   -0.7566   -2.5618 O   0  0  0  0  0  0  0  0  0  0  0  0
    1.5212    0.3187    0.3195 C   0  0  0  0  0  0  0  0  0  0  0  0
    2.0524    1.4648    1.1453 C   0  0  0  0  0  0  0  0  0  0  0  0
    2.9131    2.3991    0.6213 N   0  3  0  0  0  0  0  0  0  0  0  0
    1.8408    1.8128    2.4495 C   0  0  0  0  0  0  0  0  0  0  0  0
    3.2261    3.2947    1.5633 C   0  0  0  0  0  0  0  0  0  0  0  0
    2.5795    2.9480    2.6810 N   0  0  0  0  0  0  0  0  0  0  0  0
   -1.5221    1.5532   -0.5874 H   0  0  0  0  0  0  0  0  0  0  0  0
    0.7972    1.5621   -1.3240 H   0  0  0  0  0  0  0  0  0  0  0  0
    2.3498   -0.1693   -0.2114 H   0  0  0  0  0  0  0  0  0  0  0  0
    1.1283   -0.4449    1.0038 H   0  0  0  0  0  0  0  0  0  0  0  0
    3.2617    2.4112   -0.3333 H   0  0  0  0  0  0  0  0  0  0  0  0
    1.2689    1.4203    3.2666 H   0  0  0  0  0  0  0  0  0  0  0  0
    3.8812    4.1414    1.4435 H   0  0  0  0  0  0  0  0  0  0  0  0
    2.6292    3.4483    3.5640 H   0  0  0  0  0  0  0  0  0  0  0  0
   -1.0898   -1.0873   -0.9948 N   0  0  0  0  0  0  0  0  0  0  0  0
   -1.6889   -2.2548   -1.6004 C   0  0  2  0  0  0  0  0  0  0  0  0
   -1.9455   -1.9434   -3.0690 C   0  0  0  0  0  0  0  0  0  0  0  0
   -2.0532   -0.7984   -3.5031 O   0  0  0  0  0  0  0  0  0  0  0  0
   -2.9781   -2.6446   -0.8942 C   0  0  0  0  0  0  0  0  0  0  0  0
   -1.4883   -0.7346   -0.1296 H   0  0  0  0  0  0  0  0  0  0  0  0
   -0.9551   -3.0642   -1.5209 H   0  0  0  0  0  0  0  0  0  0  0  0
   -3.7256   -1.8458   -0.9632 H   0  0  0  0  0  0  0  0  0  0  0  0
   -3.4157   -3.5458   -1.3360 H   0  0  0  0  0  0  0  0  0  0  0  0
   -2.7969   -2.8392    0.1684 H   0  0  0  0  0  0  0  0  0  0  0  0
   -2.0830   -3.0956   -3.8305 N   0  0  0  0  0  0  0  0  0  0  0  0
   -2.3443   -3.0650   -5.2506 C   0  0  0  0  0  0  0  0  0  0  0  0
   -1.9594   -4.0028   -3.3908 H   0  0  0  0  0  0  0  0  0  0  0  0
   -3.4296   -3.1056   -5.4252 H   0  0  0  0  0  0  0  0  0  0  0  0
   -1.9388   -2.1360   -5.6780 H   0  0  0  0  0  0  0  0  0  0  0  0
   -1.8632   -3.9300   -5.7306 H   0  0  0  0  0  0  0  0  0  0  0  0
 22 24  2  0  0  0  0
 24 26  1  0  0  0  0
 25 26  1  0  0  0  0
 23 25  2  0  0  0  0
 21 22  1  0  0  0  0
 22 23  1  0  0  0  0
  1  3  1  0  0  0  0
  1  7  1  0  0  0  0
  1  2  2  0  0  0  0
 36 37  1  0  0  0  0
 37 45  1  0  0  0  0
 37 38  2  0  0  0  0
  8  9  1  0  0  0  0
  9 17  1  0  0  0  0
  9 10  2  0  0  0  0
 18 19  1  0  0  0  0
 19 35  1  0  0  0  0
 19 20  2  0  0  0  0
 36 39  1  0  0  0  0
  8 11  1  0  0  0  0
 45 46  1  0  0  0  0
 18 21  1  0  0  0  0
 35 36  1  0  0  0  0
  7  8  1  0  0  0  0
 17 18  1  0  0  0  0
 24 32  1  0  0  0  0
 25 33  1  0  0  0  0
  3  4  1  0  0  0  0
  3  5  1  0  0  0  0
  3  6  1  0  0  0  0
 39 42  1  0  0  0  0
 39 43  1  0  0  0  0
 39 44  1  0  0  0  0
 11 14  1  0  0  0  0
 11 15  1  0  0  0  0
 11 16  1  0  0  0  0
 46 48  1  0  0  0  0
 46 49  1  0  0  0  0
 46 50  1  0  0  0  0
 21 29  1  0  0  0  0
 21 30  1  0  0  0  0
 36 41  1  0  0  0  0
  8 13  1  0  0  0  0
 18 28  1  0  0  0  0
 26 34  1  0  0  0  0
 23 31  1  0  0  0  0
 45 47  1  0  0  0  0
  7 12  1  0  0  0  0
 35 40  1  0  0  0  0
 17 27  1  0  0  0  0
M  CHG  1  23   1
M  END
$$$$

  -OEChem-05262214473D

 50 50  0     1  0  0  0  0  0999 V2000
   -1.6938    0.4865    3.8080 C   0  0  0  0  0  0  0  0  0  0  0  0
   -0.7464   -0.1282    3.3323 O   0  0  0  0  0  0  0  0  0  0  0  0
   -2.1257    0.2041    5.2087 C   0  0  0  0  0  0  0  0  0  0  0  0
   -2.8853   -0.5922    5.2621 H   0  0  0  0  0  0  0  0  0  0  0  0
   -1.2944   -0.1435    5.8430 H   0  0  0  0  0  0  0  0  0  0  0  0
   -2.5637    1.0590    5.7483 H   0  0  0  0  0  0  0  0  0  0  0  0
   -2.4435    1.4589    3.1669 N   0  0  0  0  0  0  0  0  0  0  0  0
   -2.1966    1.8850    1.8145 C   0  0  2  0  0  0  0  0  0  0  0  0
   -0.8617    1.2996    1.3733 C   0  0  0  0  0  0  0  0  0  0  0  0
    0.0104    0.9468    2.1646 O   0  0  0  0  0  0  0  0  0  0  0  0
   -2.1879    3.4017    1.7050 C   0  0  0  0  0  0  0  0  0  0  0  0
   -3.2085    1.8948    3.6787 H   0  0  0  0  0  0  0  0  0  0  0  0
   -3.0007    1.4665    1.1994 H   0  0  0  0  0  0  0  0  0  0  0  0
   -1.3888    3.8390    2.3147 H   0  0  0  0  0  0  0  0  0  0  0  0
   -2.0284    3.7240    0.6708 H   0  0  0  0  0  0  0  0  0  0  0  0
   -3.1380    3.8230    2.0508 H   0  0  0  0  0  0  0  0  0  0  0  0
   -0.7390    1.2565   -0.0101 N   0  0  0  0  0  0  0  0  0  0  0  0
    0.4383    0.7557   -0.6738 C   0  0  2  0  0  0  0  0  0  0  0  0
    0.0027   -0.4239   -1.5358 C   0  0  0  0  0  0  0  0  0  0  0  0
    0.7224   -0.9250   -2.3970 O   0  0  0  0  0  0  0  0  0  0  0  0
    1.5212    0.3187    0.3195 C   0  0  0  0  0  0  0  0  0  0  0  0
    2.0524    1.4648    1.1453 C   0  0  0  0  0  0  0  0  0  0  0  0
    2.9131    2.3991    0.6213 N   0  3  0  0  0  0  0  0  0  0  0  0
    1.8408    1.8128    2.4495 C   0  0  0  0  0  0  0  0  0  0  0  0
    3.2261    3.2947    1.5633 C   0  0  0  0  0  0  0  0  0  0  0  0
    2.5795    2.9480    2.6810 N   0  0  0  0  0  0  0  0  0  0  0  0
   -1.5221    1.5532   -0.5874 H   0  0  0  0  0  0  0  0  0  0  0  0
    0.7972    1.5621   -1.3240 H   0  0  0  0  0  0  0  0  0  0  0  0
    2.3498   -0.1693   -0.2114 H   0  0  0  0  0  0  0  0  0  0  0  0
    1.1283   -0.4449    1.0038 H   0  0  0  0  0  0  0  0  0  0  0  0
    3.2617    2.4112   -0.3333 H   0  0  0  0  0  0  0  0  0  0  0  0
    1.2689    1.4203    3.2666 H   0  0  0  0  0  0  0  0  0  0  0  0
    3.8812    4.1414    1.4435 H   0  0  0  0  0  0  0  0  0  0  0  0
    2.6292    3.4483    3.5640 H   0  0  0  0  0  0  0  0  0  0  0  0
   -1.2631   -0.8785   -1.1929 N   0  0  0  0  0  0  0  0  0  0  0  0
   -1.9051   -2.0007   -1.8389 C   0  0  2  0  0  0  0  0  0  0  0  0
   -1.8198   -1.7885   -3.3446 C   0  0  0  0  0  0  0  0  0  0  0  0
   -1.6634   -0.6827   -3.8584 O   0  0  0  0  0  0  0  0  0  0  0  0
   -3.3515   -2.1434   -1.3913 C   0  0  0  0  0  0  0  0  0  0  0  0
   -1.7633   -0.3984   -0.4507 H   0  0  0  0  0  0  0  0  0  0  0  0
   -1.3343   -2.8938   -1.5624 H   0  0  0  0  0  0  0  0  0  0  0  0
   -3.9392   -1.2580   -1.6597 H   0  0  0  0  0  0  0  0  0  0  0  0
   -3.8280   -3.0109   -1.8597 H   0  0  0  0  0  0  0  0  0  0  0  0
   -3.4128   -2.2662   -0.3045 H   0  0  0  0  0  0  0  0  0  0  0  0
   -1.9819   -2.9734   -4.0487 N   0  0  0  0  0  0  0  0  0  0  0  0
   -1.9538   -3.0331   -5.4915 C   0  0  0  0  0  0  0  0  0  0  0  0
   -2.0875   -3.8464   -3.5402 H   0  0  0  0  0  0  0  0  0  0  0  0
   -2.9773   -2.9381   -5.8830 H   0  0  0  0  0  0  0  0  0  0  0  0
   -1.3348   -2.2112   -5.8804 H   0  0  0  0  0  0  0  0  0  0  0  0
   -1.5274   -3.9957   -5.8103 H   0  0  0  0  0  0  0  0  0  0  0  0
 22 24  2  0  0  0  0
 24 26  1  0  0  0  0
 25 26  1  0  0  0  0
 23 25  2  0  0  0  0
 21 22  1  0  0  0  0
 22 23  1  0  0  0  0
  1  3  1  0  0  0  0
  1  7  1  0  0  0  0
  1  2  2  0  0  0  0
 36 37  1  0  0  0  0
 37 45  1  0  0  0  0
 37 38  2  0  0  0  0
  8  9  1  0  0  0  0
  9 17  1  0  0  0  0
  9 10  2  0  0  0  0
 18 19  1  0  0  0  0
 19 35  1  0  0  0  0
 19 20  2  0  0  0  0
 36 39  1  0  0  0  0
  8 11  1  0  0  0  0
 45 46  1  0  0  0  0
 18 21  1  0  0  0  0
 35 36  1  0  0  0  0
  7  8  1  0  0  0  0
 17 18  1  0  0  0  0
 24 32  1  0  0  0  0
 25 33  1  0  0  0  0
  3  4  1  0  0  0  0
  3  5  1  0  0  0  0
  3  6  1  0  0  0  0
 39 42  1  0  0  0  0
 39 43  1  0  0  0  0
 39 44  1  0  0  0  0
 11 14  1  0  0  0  0
 11 15  1  0  0  0  0
 11 16  1  0  0  0  0
 46 48  1  0  0  0  0
 46 49  1  0  0  0  0
 46 50  1  0  0  0  0
 21 29  1  0  0  0  0
 21 30  1  0  0  0  0
 36 41  1  0  0  0  0
  8 13  1  0  0  0  0
 18 28  1  0  0  0  0
 26 34  1  0  0  0  0
 23 31  1  0  0  0  0
 45 47  1  0  0  0  0
  7 12  1  0  0  0  0
 35 40  1  0  0  0  0
 17 27  1  0  0  0  0
M  CHG  1  23   1
M  END
$$$$

  -OEChem-05262214473D

 50 50  0     1  0  0  0  0  0999 V2000
   -1.6938    0.4865    3.8080 C   0  0  0  0  0  0  0  0  0  0  0  0
   -0.7464   -0.1282    3.3323 O   0  0  0  0  0  0  0  0  0  0  0  0
   -2.1257    0.2041    5.2087 C   0  0  0  0  0  0  0  0  0  0  0  0
   -2.8853   -0.5922    5.2621 H   0  0  0  0  0  0  0  0  0  0  0  0
   -1.2944   -0.1435    5.8430 H   0  0  0  0  0  0  0  0  0  0  0  0
   -2.5637    1.0590    5.7483 H   0  0  0  0  0  0  0  0  0  0  0  0
   -2.4435    1.4589    3.1669 N   0  0  0  0  0  0  0  0  0  0  0  0
   -2.1966    1.8850    1.8145 C   0  0  2  0  0  0  0  0  0  0  0  0
   -0.8617    1.2996    1.3733 C   0  0  0  0  0  0  0  0  0  0  0  0
    0.0104    0.9468    2.1646 O   0  0  0  0  0  0  0  0  0  0  0  0
   -2.1879    3.4017    1.7050 C   0  0  0  0  0  0  0  0  0  0  0  0
   -3.2085    1.8948    3.6787 H   0  0  0  0  0  0  0  0  0  0  0  0
   -3.0007    1.4665    1.1994 H   0  0  0  0  0  0  0  0  0  0  0  0
   -1.3888    3.8390    2.3147 H   0  0  0  0  0  0  0  0  0  0  0  0
   -2.0284    3.7240    0.6708 H   0  0  0  0  0  0  0  0  0  0  0  0
   -3.1380    3.8230    2.0508 H   0  0  0  0  0  0  0  0  0  0  0  0
   -0.7390    1.2565   -0.0101 N   0  0  0  0  0  0  0  0  0  0  0  0
    0.4383    0.7557   -0.6738 C   0  0  2  0  0  0  0  0  0  0  0  0
    0.0027   -0.4239   -1.5358 C   0  0  0  0  0  0  0  0  0  0  0  0
    0.7905   -1.0946   -2.1994 O   0  0  0  0  0  0  0  0  0  0  0  0
    1.5212    0.3187    0.3195 C   0  0  0  0  0  0  0  0  0  0  0  0
    2.0524    1.4648    1.1453 C   0  0  0  0  0  0  0  0  0  0  0  0
    2.9131    2.3991    0.6213 N   0  3  0  0  0  0  0  0  0  0  0  0
    1.8408    1.8128    2.4495 C   0  0  0  0  0  0  0  0  0  0  0  0
    3.2261    3.2947    1.5633 C   0  0  0  0  0  0  0  0  0  0  0  0
    2.5795    2.9480    2.6810 N   0  0  0  0  0  0  0  0  0  0  0  0
   -1.5221    1.5532   -0.5874 H   0  0  0  0  0  0  0  0  0  0  0  0
    0.7972    1.5621   -1.3240 H   0  0  0  0  0  0  0  0  0  0  0  0
    2.3498   -0.1693   -0.2114 H   0  0  0  0  0  0  0  0  0  0  0  0
    1.1283   -0.4449    1.0038 H   0  0  0  0  0  0  0  0  0  0  0  0
    3.2617    2.4112   -0.3333 H   0  0  0  0  0  0  0  0  0  0  0  0
    1.2689    1.4203    3.2666 H   0  0  0  0  0  0  0  0  0  0  0  0
    3.8812    4.1414    1.4435 H   0  0  0  0  0  0  0  0  0  0  0  0
    2.6292    3.4483    3.5640 H   0  0  0  0  0  0  0  0  0  0  0  0
   -1.3602   -0.6661   -1.4345 N   0  0  0  0  0  0  0  0  0  0  0  0
   -2.0290   -1.7412   -2.1314 C   0  0  2  0  0  0  0  0  0  0  0  0
   -1.6204   -1.6776   -3.5971 C   0  0  0  0  0  0  0  0  0  0  0  0
   -1.1987   -0.6543   -4.1321 O   0  0  0  0  0  0  0  0  0  0  0  0
   -3.5393   -1.6415   -1.9833 C   0  0  0  0  0  0  0  0  0  0  0  0
   -1.9155   -0.0572   -0.8407 H   0  0  0  0  0  0  0  0  0  0  0  0
   -1.6673   -2.6768   -1.6911 H   0  0  0  0  0  0  0  0  0  0  0  0
   -3.9201   -0.7104   -2.4186 H   0  0  0  0  0  0  0  0  0  0  0  0
   -4.0431   -2.4726   -2.4877 H   0  0  0  0  0  0  0  0  0  0  0  0
   -3.8292   -1.6575   -0.9271 H   0  0  0  0  0  0  0  0  0  0  0  0
   -1.8227   -2.8864   -4.2483 N   0  0  0  0  0  0  0  0  0  0  0  0
   -1.5237   -3.0774   -5.6483 C   0  0  0  0  0  0  0  0  0  0  0  0
   -2.1583   -3.6875   -3.7217 H   0  0  0  0  0  0  0  0  0  0  0  0
   -2.4243   -2.8763   -6.2469 H   0  0  0  0  0  0  0  0  0  0  0  0
   -0.7218   -2.3871   -5.9493 H   0  0  0  0  0  0  0  0  0  0  0  0
   -1.1966   -4.1143   -5.8151 H   0  0  0  0  0  0  0  0  0  0  0  0
 22 24  2  0  0  0  0
 24 26  1  0  0  0  0
 25 26  1  0  0  0  0
 23 25  2  0  0  0  0
 21 22  1  0  0  0  0
 22 23  1  0  0  0  0
  1  3  1  0  0  0  0
  1  7  1  0  0  0  0
  1  2  2  0  0  0  0
 36 37  1  0  0  0  0
 37 45  1  0  0  0  0
 37 38  2  0  0  0  0
  8  9  1  0  0  0  0
  9 17  1  0  0  0  0
  9 10  2  0  0  0  0
 18 19  1  0  0  0  0
 19 35  1  0  0  0  0
 19 20  2  0  0  0  0
 36 39  1  0  0  0  0
  8 11  1  0  0  0  0
 45 46  1  0  0  0  0
 18 21  1  0  0  0  0
 35 36  1  0  0  0  0
  7  8  1  0  0  0  0
 17 18  1  0  0  0  0
 24 32  1  0  0  0  0
 25 33  1  0  0  0  0
  3  4  1  0  0  0  0
  3  5  1  0  0  0  0
  3  6  1  0  0  0  0
 39 42  1  0  0  0  0
 39 43  1  0  0  0  0
 39 44  1  0  0  0  0
 11 14  1  0  0  0  0
 11 15  1  0  0  0  0
 11 16  1  0  0  0  0
 46 48  1  0  0  0  0
 46 49  1  0  0  0  0
 46 50  1  0  0  0  0
 21 29  1  0  0  0  0
 21 30  1  0  0  0  0
 36 41  1  0  0  0  0
  8 13  1  0  0  0  0
 18 28  1  0  0  0  0
 26 34  1  0  0  0  0
 23 31  1  0  0  0  0
 45 47  1  0  0  0  0
  7 12  1  0  0  0  0
 35 40  1  0  0  0  0
 17 27  1  0  0  0  0
M  CHG  1  23   1
M  END
$$$$

  -OEChem-05262214473D

 50 50  0     1  0  0  0  0  0999 V2000
   -1.6938    0.4865    3.8080 C   0  0  0  0  0  0  0  0  0  0  0  0
   -0.7464   -0.1282    3.3323 O   0  0  0  0  0  0  0  0  0  0  0  0
   -2.1257    0.2041    5.2087 C   0  0  0  0  0  0  0  0  0  0  0  0
   -2.8853   -0.5922    5.2621 H   0  0  0  0  0  0  0  0  0  0  0  0
   -1.2944   -0.1435    5.8430 H   0  0  0  0  0  0  0  0  0  0  0  0
   -2.5637    1.0590    5.7483 H   0  0  0  0  0  0  0  0  0  0  0  0
   -2.4435    1.4589    3.1669 N   0  0  0  0  0  0  0  0  0  0  0  0
   -2.1966    1.8850    1.8145 C   0  0  2  0  0  0  0  0  0  0  0  0
   -0.8617    1.2996    1.3733 C   0  0  0  0  0  0  0  0  0  0  0  0
    0.0104    0.9468    2.1646 O   0  0  0  0  0  0  0  0  0  0  0  0
   -2.1879    3.4017    1.7050 C   0  0  0  0  0  0  0  0  0  0  0  0
   -3.2085    1.8948    3.6787 H   0  0  0  0  0  0  0  0  0  0  0  0
   -3.0007    1.4665    1.1994 H   0  0  0  0  0  0  0  0  0  0  0  0
   -1.3888    3.8390    2.3147 H   0  0  0  0  0  0  0  0  0  0  0  0
   -2.0284    3.7240    0.6708 H   0  0  0  0  0  0  0  0  0  0  0  0
   -3.1380    3.8230    2.0508 H   0  0  0  0  0  0  0  0  0  0  0  0
   -0.7390    1.2565   -0.0101 N   0  0  0  0  0  0  0  0  0  0  0  0
    0.4383    0.7557   -0.6738 C   0  0  2  0  0  0  0  0  0  0  0  0
    0.0027   -0.4239   -1.5358 C   0  0  0  0  0  0  0  0  0  0  0  0
    0.7919   -1.2538   -1.9823 O   0  0  0  0  0  0  0  0  0  0  0  0
    1.5212    0.3187    0.3195 C   0  0  0  0  0  0  0  0  0  0  0  0
    2.0524    1.4648    1.1453 C   0  0  0  0  0  0  0  0  0  0  0  0
    2.9131    2.3991    0.6213 N   0  3  0  0  0  0  0  0  0  0  0  0
    1.8408    1.8128    2.4495 C   0  0  0  0  0  0  0  0  0  0  0  0
    3.2261    3.2947    1.5633 C   0  0  0  0  0  0  0  0  0  0  0  0
    2.5795    2.9480    2.6810 N   0  0  0  0  0  0  0  0  0  0  0  0
   -1.5221    1.5532   -0.5874 H   0  0  0  0  0  0  0  0  0  0  0  0
    0.7972    1.5621   -1.3240 H   0  0  0  0  0  0  0  0  0  0  0  0
    2.3498   -0.1693   -0.2114 H   0  0  0  0  0  0  0  0  0  0  0  0
    1.1283   -0.4449    1.0038 H   0  0  0  0  0  0  0  0  0  0  0  0
    3.2617    2.4112   -0.3333 H   0  0  0  0  0  0  0  0  0  0  0  0
    1.2689    1.4203    3.2666 H   0  0  0  0  0  0  0  0  0  0  0  0
    3.8812    4.1414    1.4435 H   0  0  0  0  0  0  0  0  0  0  0  0
    2.6292    3.4483    3.5640 H   0  0  0  0  0  0  0  0  0  0  0  0
   -1.3745   -0.4646   -1.7030 N   0  0  0  0  0  0  0  0  0  0  0  0
   -2.0522   -1.4941   -2.4578 C   0  0  2  0  0  0  0  0  0  0  0  0
   -1.3611   -1.6183   -3.8093 C   0  0  0  0  0  0  0  0  0  0  0  0
   -0.6909   -0.7151   -4.3055 O   0  0  0  0  0  0  0  0  0  0  0  0
   -3.5286   -1.1729   -2.6298 C   0  0  0  0  0  0  0  0  0  0  0  0
   -1.9344    0.2658   -1.2732 H   0  0  0  0  0  0  0  0  0  0  0  0
   -1.9314   -2.4280   -1.8981 H   0  0  0  0  0  0  0  0  0  0  0  0
   -3.6695   -0.2404   -3.1884 H   0  0  0  0  0  0  0  0  0  0  0  0
   -4.0464   -1.9675   -3.1772 H   0  0  0  0  0  0  0  0  0  0  0  0
   -4.0177   -1.0546   -1.6568 H   0  0  0  0  0  0  0  0  0  0  0  0
   -1.6162   -2.8403   -4.4156 N   0  0  0  0  0  0  0  0  0  0  0  0
   -1.0833   -3.1946   -5.7104 C   0  0  0  0  0  0  0  0  0  0  0  0
   -2.1672   -3.5372   -3.9230 H   0  0  0  0  0  0  0  0  0  0  0  0
   -1.8082   -2.9245   -6.4923 H   0  0  0  0  0  0  0  0  0  0  0  0
   -0.1417   -2.6519   -5.8802 H   0  0  0  0  0  0  0  0  0  0  0  0
   -0.8935   -4.2776   -5.7448 H   0  0  0  0  0  0  0  0  0  0  0  0
 22 24  2  0  0  0  0
 24 26  1  0  0  0  0
 25 26  1  0  0  0  0
 23 25  2  0  0  0  0
 21 22  1  0  0  0  0
 22 23  1  0  0  0  0
  1  3  1  0  0  0  0
  1  7  1  0  0  0  0
  1  2  2  0  0  0  0
 36 37  1  0  0  0  0
 37 45  1  0  0  0  0
 37 38  2  0  0  0  0
  8  9  1  0  0  0  0
  9 17  1  0  0  0  0
  9 10  2  0  0  0  0
 18 19  1  0  0  0  0
 19 35  1  0  0  0  0
 19 20  2  0  0  0  0
 36 39  1  0  0  0  0
  8 11  1  0  0  0  0
 45 46  1  0  0  0  0
 18 21  1  0  0  0  0
 35 36  1  0  0  0  0
  7  8  1  0  0  0  0
 17 18  1  0  0  0  0
 24 32  1  0  0  0  0
 25 33  1  0  0  0  0
  3  4  1  0  0  0  0
  3  5  1  0  0  0  0
  3  6  1  0  0  0  0
 39 42  1  0  0  0  0
 39 43  1  0  0  0  0
 39 44  1  0  0  0  0
 11 14  1  0  0  0  0
 11 15  1  0  0  0  0
 11 16  1  0  0  0  0
 46 48  1  0  0  0  0
 46 49  1  0  0  0  0
 46 50  1  0  0  0  0
 21 29  1  0  0  0  0
 21 30  1  0  0  0  0
 36 41  1  0  0  0  0
  8 13  1  0  0  0  0
 18 28  1  0  0  0  0
 26 34  1  0  0  0  0
 23 31  1  0  0  0  0
 45 47  1  0  0  0  0
  7 12  1  0  0  0  0
 35 40  1  0  0  0  0
 17 27  1  0  0  0  0
M  CHG  1  23   1
M  END
$$$$

  -OEChem-05262214473D

 50 50  0     1  0  0  0  0  0999 V2000
   -1.6938    0.4865    3.8080 C   0  0  0  0  0  0  0  0  0  0  0  0
   -0.7464   -0.1282    3.3323 O   0  0  0  0  0  0  0  0  0  0  0  0
   -2.1257    0.2041    5.2087 C   0  0  0  0  0  0  0  0  0  0  0  0
   -2.8853   -0.5922    5.2621 H   0  0  0  0  0  0  0  0  0  0  0  0
   -1.2944   -0.1435    5.8430 H   0  0  0  0  0  0  0  0  0  0  0  0
   -2.5637    1.0590    5.7483 H   0  0  0  0  0  0  0  0  0  0  0  0
   -2.4435    1.4589    3.1669 N   0  0  0  0  0  0  0  0  0  0  0  0
   -2.1966    1.8850    1.8145 C   0  0  2  0  0  0  0  0  0  0  0  0
   -0.8617    1.2996    1.3733 C   0  0  0  0  0  0  0  0  0  0  0  0
    0.0104    0.9468    2.1646 O   0  0  0  0  0  0  0  0  0  0  0  0
   -2.1879    3.4017    1.7050 C   0  0  0  0  0  0  0  0  0  0  0  0
   -3.2085    1.8948    3.6787 H   0  0  0  0  0  0  0  0  0  0  0  0
   -3.0007    1.4665    1.1994 H   0  0  0  0  0  0  0  0  0  0  0  0
   -1.3888    3.8390    2.3147 H   0  0  0  0  0  0  0  0  0  0  0  0
   -2.0284    3.7240    0.6708 H   0  0  0  0  0  0  0  0  0  0  0  0
   -3.1380    3.8230    2.0508 H   0  0  0  0  0  0  0  0  0  0  0  0
   -0.7390    1.2565   -0.0101 N   0  0  0  0  0  0  0  0  0  0  0  0
    0.4383    0.7557   -0.6738 C   0  0  2  0  0  0  0  0  0  0  0  0
    0.0027   -0.4239   -1.5358 C   0  0  0  0  0  0  0  0  0  0  0  0
    0.7265   -1.3916   -1.7606 O   0  0  0  0  0  0  0  0  0  0  0  0
    1.5212    0.3187    0.3195 C   0  0  0  0  0  0  0  0  0  0  0  0
    2.0524    1.4648    1.1453 C   0  0  0  0  0  0  0  0  0  0  0  0
    2.9131    2.3991    0.6213 N   0  3  0  0  0  0  0  0  0  0  0  0
    1.8408    1.8128    2.4495 C   0  0  0  0  0  0  0  0  0  0  0  0
    3.2261    3.2947    1.5633 C   0  0  0  0  0  0  0  0  0  0  0  0
    2.5795    2.9480    2.6810 N   0  0  0  0  0  0  0  0  0  0  0  0
   -1.5221    1.5532   -0.5874 H   0  0  0  0  0  0  0  0  0  0  0  0
    0.7972    1.5621   -1.3240 H   0  0  0  0  0  0  0  0  0  0  0  0
    2.3498   -0.1693   -0.2114 H   0  0  0  0  0  0  0  0  0  0  0  0
    1.1283   -0.4449    1.0038 H   0  0  0  0  0  0  0  0  0  0  0  0
    3.2617    2.4112   -0.3333 H   0  0  0  0  0  0  0  0  0  0  0  0
    1.2689    1.4203    3.2666 H   0  0  0  0  0  0  0  0  0  0  0  0
    3.8812    4.1414    1.4435 H   0  0  0  0  0  0  0  0  0  0  0  0
    2.6292    3.4483    3.5640 H   0  0  0  0  0  0  0  0  0  0  0  0
   -1.3051   -0.2878   -1.9801 N   0  0  0  0  0  0  0  0  0  0  0  0
   -1.9730   -1.2762   -2.7961 C   0  0  2  0  0  0  0  0  0  0  0  0
   -1.0594   -1.6146   -3.9667 C   0  0  0  0  0  0  0  0  0  0  0  0
   -0.1746   -0.8609   -4.3669 O   0  0  0  0  0  0  0  0  0  0  0  0
   -3.3203   -0.7697   -3.2868 C   0  0  0  0  0  0  0  0  0  0  0  0
   -1.8188    0.5486   -1.7186 H   0  0  0  0  0  0  0  0  0  0  0  0
   -2.1087   -2.1643   -2.1694 H   0  0  0  0  0  0  0  0  0  0  0  0
   -3.2045    0.1200   -3.9166 H   0  0  0  0  0  0  0  0  0  0  0  0
   -3.8375   -1.5302   -3.8812 H   0  0  0  0  0  0  0  0  0  0  0  0
   -3.9653   -0.4987   -2.4440 H   0  0  0  0  0  0  0  0  0  0  0  0
   -1.3765   -2.8384   -4.5393 N   0  0  0  0  0  0  0  0  0  0  0  0
   -0.6626   -3.3769   -5.6735 C   0  0  0  0  0  0  0  0  0  0  0  0
   -2.1134   -3.4055   -4.1304 H   0  0  0  0  0  0  0  0  0  0  0  0
   -1.1710   -3.0793   -6.6024 H   0  0  0  0  0  0  0  0  0  0  0  0
    0.3661   -2.9874   -5.6777 H   0  0  0  0  0  0  0  0  0  0  0  0
   -0.6388   -4.4745   -5.6041 H   0  0  0  0  0  0  0  0  0  0  0  0
 22 24  2  0  0  0  0
 24 26  1  0  0  0  0
 25 26  1  0  0  0  0
 23 25  2  0  0  0  0
 21 22  1  0  0  0  0
 22 23  1  0  0  0  0
  1  3  1  0  0  0  0
  1  7  1  0  0  0  0
  1  2  2  0  0  0  0
 36 37  1  0  0  0  0
 37 45  1  0  0  0  0
 37 38  2  0  0  0  0
  8  9  1  0  0  0  0
  9 17  1  0  0  0  0
  9 10  2  0  0  0  0
 18 19  1  0  0  0  0
 19 35  1  0  0  0  0
 19 20  2  0  0  0  0
 36 39  1  0  0  0  0
  8 11  1  0  0  0  0
 45 46  1  0  0  0  0
 18 21  1  0  0  0  0
 35 36  1  0  0  0  0
  7  8  1  0  0  0  0
 17 18  1  0  0  0  0
 24 32  1  0  0  0  0
 25 33  1  0  0  0  0
  3  4  1  0  0  0  0
  3  5  1  0  0  0  0
  3  6  1  0  0  0  0
 39 42  1  0  0  0  0
 39 43  1  0  0  0  0
 39 44  1  0  0  0  0
 11 14  1  0  0  0  0
 11 15  1  0  0  0  0
 11 16  1  0  0  0  0
 46 48  1  0  0  0  0
 46 49  1  0  0  0  0
 46 50  1  0  0  0  0
 21 29  1  0  0  0  0
 21 30  1  0  0  0  0
 36 41  1  0  0  0  0
  8 13  1  0  0  0  0
 18 28  1  0  0  0  0
 26 34  1  0  0  0  0
 23 31  1  0  0  0  0
 45 47  1  0  0  0  0
  7 12  1  0  0  0  0
 35 40  1  0  0  0  0
 17 27  1  0  0  0  0
M  CHG  1  23   1
M  END
$$$$

  -OEChem-05262214473D

 50 50  0     1  0  0  0  0  0999 V2000
   -1.6938    0.4865    3.8080 C   0  0  0  0  0  0  0  0  0  0  0  0
   -0.7464   -0.1282    3.3323 O   0  0  0  0  0  0  0  0  0  0  0  0
   -2.1257    0.2041    5.2087 C   0  0  0  0  0  0  0  0  0  0  0  0
   -2.8853   -0.5922    5.2621 H   0  0  0  0  0  0  0  0  0  0  0  0
   -1.2944   -0.1435    5.8430 H   0  0  0  0  0  0  0  0  0  0  0  0
   -2.5637    1.0590    5.7483 H   0  0  0  0  0  0  0  0  0  0  0  0
   -2.4435    1.4589    3.1669 N   0  0  0  0  0  0  0  0  0  0  0  0
   -2.1966    1.8850    1.8145 C   0  0  2  0  0  0  0  0  0  0  0  0
   -0.8617    1.2996    1.3733 C   0  0  0  0  0  0  0  0  0  0  0  0
    0.0104    0.9468    2.1646 O   0  0  0  0  0  0  0  0  0  0  0  0
   -2.1879    3.4017    1.7050 C   0  0  0  0  0  0  0  0  0  0  0  0
   -3.2085    1.8948    3.6787 H   0  0  0  0  0  0  0  0  0  0  0  0
   -3.0007    1.4665    1.1994 H   0  0  0  0  0  0  0  0  0  0  0  0
   -1.3888    3.8390    2.3147 H   0  0  0  0  0  0  0  0  0  0  0  0
   -2.0284    3.7240    0.6708 H   0  0  0  0  0  0  0  0  0  0  0  0
   -3.1380    3.8230    2.0508 H   0  0  0  0  0  0  0  0  0  0  0  0
   -0.7390    1.2565   -0.0101 N   0  0  0  0  0  0  0  0  0  0  0  0
    0.4383    0.7557   -0.6738 C   0  0  2  0  0  0  0  0  0  0  0  0
    0.0027   -0.4239   -1.5358 C   0  0  0  0  0  0  0  0  0  0  0  0
    0.5987   -1.4988   -1.5493 O   0  0  0  0  0  0  0  0  0  0  0  0
    1.5212    0.3187    0.3195 C   0  0  0  0  0  0  0  0  0  0  0  0
    2.0524    1.4648    1.1453 C   0  0  0  0  0  0  0  0  0  0  0  0
    2.9131    2.3991    0.6213 N   0  3  0  0  0  0  0  0  0  0  0  0
    1.8408    1.8128    2.4495 C   0  0  0  0  0  0  0  0  0  0  0  0
    3.2261    3.2947    1.5633 C   0  0  0  0  0  0  0  0  0  0  0  0
    2.5795    2.9480    2.6810 N   0  0  0  0  0  0  0  0  0  0  0  0
   -1.5221    1.5532   -0.5874 H   0  0  0  0  0  0  0  0  0  0  0  0
    0.7972    1.5621   -1.3240 H   0  0  0  0  0  0  0  0  0  0  0  0
    2.3498   -0.1693   -0.2114 H   0  0  0  0  0  0  0  0  0  0  0  0
    1.1283   -0.4449    1.0038 H   0  0  0  0  0  0  0  0  0  0  0  0
    3.2617    2.4112   -0.3333 H   0  0  0  0  0  0  0  0  0  0  0  0
    1.2689    1.4203    3.2666 H   0  0  0  0  0  0  0  0  0  0  0  0
    3.8812    4.1414    1.4435 H   0  0  0  0  0  0  0  0  0  0  0  0
    2.6292    3.4483    3.5640 H   0  0  0  0  0  0  0  0  0  0  0  0
   -1.1567   -0.1476   -2.2469 N   0  0  0  0  0  0  0  0  0  0  0  0
   -1.7968   -1.1022   -3.1231 C   0  0  2  0  0  0  0  0  0  0  0  0
   -0.7360   -1.6669   -4.0586 C   0  0  0  0  0  0  0  0  0  0  0  0
    0.3150   -1.0819   -4.3119 O   0  0  0  0  0  0  0  0  0  0  0  0
   -2.9285   -0.4593   -3.9096 C   0  0  0  0  0  0  0  0  0  0  0  0
   -1.5765    0.7719   -2.1465 H   0  0  0  0  0  0  0  0  0  0  0  0
   -2.1871   -1.9037   -2.4864 H   0  0  0  0  0  0  0  0  0  0  0  0
   -2.5568    0.3462   -4.5534 H   0  0  0  0  0  0  0  0  0  0  0  0
   -3.4308   -1.1904   -4.5516 H   0  0  0  0  0  0  0  0  0  0  0  0
   -3.6758   -0.0276   -3.2350 H   0  0  0  0  0  0  0  0  0  0  0  0
   -1.1200   -2.8809   -4.6109 N   0  0  0  0  0  0  0  0  0  0  0  0
   -0.2903   -3.6118   -5.5401 C   0  0  0  0  0  0  0  0  0  0  0  0
   -2.0007   -3.3015   -4.3296 H   0  0  0  0  0  0  0  0  0  0  0  0
   -0.5562   -3.3303   -6.5697 H   0  0  0  0  0  0  0  0  0  0  0  0
    0.7669   -3.3708   -5.3555 H   0  0  0  0  0  0  0  0  0  0  0  0
   -0.4496   -4.6915   -5.4027 H   0  0  0  0  0  0  0  0  0  0  0  0
 22 24  2  0  0  0  0
 24 26  1  0  0  0  0
 25 26  1  0  0  0  0
 23 25  2  0  0  0  0
 21 22  1  0  0  0  0
 22 23  1  0  0  0  0
  1  3  1  0  0  0  0
  1  7  1  0  0  0  0
  1  2  2  0  0  0  0
 36 37  1  0  0  0  0
 37 45  1  0  0  0  0
 37 38  2  0  0  0  0
  8  9  1  0  0  0  0
  9 17  1  0  0  0  0
  9 10  2  0  0  0  0
 18 19  1  0  0  0  0
 19 35  1  0  0  0  0
 19 20  2  0  0  0  0
 36 39  1  0  0  0  0
  8 11  1  0  0  0  0
 45 46  1  0  0  0  0
 18 21  1  0  0  0  0
 35 36  1  0  0  0  0
  7  8  1  0  0  0  0
 17 18  1  0  0  0  0
 24 32  1  0  0  0  0
 25 33  1  0  0  0  0
  3  4  1  0  0  0  0
  3  5  1  0  0  0  0
  3  6  1  0  0  0  0
 39 42  1  0  0  0  0
 39 43  1  0  0  0  0
 39 44  1  0  0  0  0
 11 14  1  0  0  0  0
 11 15  1  0  0  0  0
 11 16  1  0  0  0  0
 46 48  1  0  0  0  0
 46 49  1  0  0  0  0
 46 50  1  0  0  0  0
 21 29  1  0  0  0  0
 21 30  1  0  0  0  0
 36 41  1  0  0  0  0
  8 13  1  0  0  0  0
 18 28  1  0  0  0  0
 26 34  1  0  0  0  0
 23 31  1  0  0  0  0
 45 47  1  0  0  0  0
  7 12  1  0  0  0  0
 35 40  1  0  0  0  0
 17 27  1  0  0  0  0
M  CHG  1  23   1
M  END
$$$$

  -OEChem-05262214473D

 50 50  0     1  0  0  0  0  0999 V2000
   -1.6938    0.4865    3.8080 C   0  0  0  0  0  0  0  0  0  0  0  0
   -0.7464   -0.1282    3.3323 O   0  0  0  0  0  0  0  0  0  0  0  0
   -2.1257    0.2041    5.2087 C   0  0  0  0  0  0  0  0  0  0  0  0
   -2.8853   -0.5922    5.2621 H   0  0  0  0  0  0  0  0  0  0  0  0
   -1.2944   -0.1435    5.8430 H   0  0  0  0  0  0  0  0  0  0  0  0
   -2.5637    1.0590    5.7483 H   0  0  0  0  0  0  0  0  0  0  0  0
   -2.4435    1.4589    3.1669 N   0  0  0  0  0  0  0  0  0  0  0  0
   -2.1966    1.8850    1.8145 C   0  0  2  0  0  0  0  0  0  0  0  0
   -0.8617    1.2996    1.3733 C   0  0  0  0  0  0  0  0  0  0  0  0
    0.0104    0.9468    2.1646 O   0  0  0  0  0  0  0  0  0  0  0  0
   -2.1879    3.4017    1.7050 C   0  0  0  0  0  0  0  0  0  0  0  0
   -3.2085    1.8948    3.6787 H   0  0  0  0  0  0  0  0  0  0  0  0
   -3.0007    1.4665    1.1994 H   0  0  0  0  0  0  0  0  0  0  0  0
   -1.3888    3.8390    2.3147 H   0  0  0  0  0  0  0  0  0  0  0  0
   -2.0284    3.7240    0.6708 H   0  0  0  0  0  0  0  0  0  0  0  0
   -3.1380    3.8230    2.0508 H   0  0  0  0  0  0  0  0  0  0  0  0
   -0.7390    1.2565   -0.0101 N   0  0  0  0  0  0  0  0  0  0  0  0
    0.4383    0.7557   -0.6738 C   0  0  2  0  0  0  0  0  0  0  0  0
    0.0027   -0.4239   -1.5358 C   0  0  0  0  0  0  0  0  0  0  0  0
    0.4173   -1.5681   -1.3629 O   0  0  0  0  0  0  0  0  0  0  0  0
    1.5212    0.3187    0.3195 C   0  0  0  0  0  0  0  0  0  0  0  0
    2.0524    1.4648    1.1453 C   0  0  0  0  0  0  0  0  0  0  0  0
    2.9131    2.3991    0.6213 N   0  3  0  0  0  0  0  0  0  0  0  0
    1.8408    1.8128    2.4495 C   0  0  0  0  0  0  0  0  0  0  0  0
    3.2261    3.2947    1.5633 C   0  0  0  0  0  0  0  0  0  0  0  0
    2.5795    2.9480    2.6810 N   0  0  0  0  0  0  0  0  0  0  0  0
   -1.5221    1.5532   -0.5874 H   0  0  0  0  0  0  0  0  0  0  0  0
    0.7972    1.5621   -1.3240 H   0  0  0  0  0  0  0  0  0  0  0  0
    2.3498   -0.1693   -0.2114 H   0  0  0  0  0  0  0  0  0  0  0  0
    1.1283   -0.4449    1.0038 H   0  0  0  0  0  0  0  0  0  0  0  0
    3.2617    2.4112   -0.3333 H   0  0  0  0  0  0  0  0  0  0  0  0
    1.2689    1.4203    3.2666 H   0  0  0  0  0  0  0  0  0  0  0  0
    3.8812    4.1414    1.4435 H   0  0  0  0  0  0  0  0  0  0  0  0
    2.6292    3.4483    3.5640 H   0  0  0  0  0  0  0  0  0  0  0  0
   -0.9394   -0.0536   -2.4853 N   0  0  0  0  0  0  0  0  0  0  0  0
   -1.5358   -0.9842   -3.4165 C   0  0  2  0  0  0  0  0  0  0  0  0
   -0.4128   -1.7716   -4.0787 C   0  0  0  0  0  0  0  0  0  0  0  0
    0.7447   -1.3629   -4.1445 O   0  0  0  0  0  0  0  0  0  0  0  0
   -2.3799   -0.2629   -4.4556 C   0  0  0  0  0  0  0  0  0  0  0  0
   -1.2242    0.9205   -2.5279 H   0  0  0  0  0  0  0  0  0  0  0  0
   -2.1611   -1.6640   -2.8275 H   0  0  0  0  0  0  0  0  0  0  0  0
   -1.7705    0.4228   -5.0556 H   0  0  0  0  0  0  0  0  0  0  0  0
   -2.8540   -0.9713   -5.1430 H   0  0  0  0  0  0  0  0  0  0  0  0
   -3.1687    0.3266   -3.9759 H   0  0  0  0  0  0  0  0  0  0  0  0
   -0.8640   -2.9647   -4.6256 N   0  0  0  0  0  0  0  0  0  0  0  0
    0.0081   -3.8834   -5.3194 C   0  0  0  0  0  0  0  0  0  0  0  0
   -1.8367   -3.2324   -4.5071 H   0  0  0  0  0  0  0  0  0  0  0  0
   -0.0055   -3.6602   -6.3964 H   0  0  0  0  0  0  0  0  0  0  0  0
    1.0335   -3.7760   -4.9358 H   0  0  0  0  0  0  0  0  0  0  0  0
   -0.3391   -4.9140   -5.1541 H   0  0  0  0  0  0  0  0  0  0  0  0
 22 24  2  0  0  0  0
 24 26  1  0  0  0  0
 25 26  1  0  0  0  0
 23 25  2  0  0  0  0
 21 22  1  0  0  0  0
 22 23  1  0  0  0  0
  1  3  1  0  0  0  0
  1  7  1  0  0  0  0
  1  2  2  0  0  0  0
 36 37  1  0  0  0  0
 37 45  1  0  0  0  0
 37 38  2  0  0  0  0
  8  9  1  0  0  0  0
  9 17  1  0  0  0  0
  9 10  2  0  0  0  0
 18 19  1  0  0  0  0
 19 35  1  0  0  0  0
 19 20  2  0  0  0  0
 36 39  1  0  0  0  0
  8 11  1  0  0  0  0
 45 46  1  0  0  0  0
 18 21  1  0  0  0  0
 35 36  1  0  0  0  0
  7  8  1  0  0  0  0
 17 18  1  0  0  0  0
 24 32  1  0  0  0  0
 25 33  1  0  0  0  0
  3  4  1  0  0  0  0
  3  5  1  0  0  0  0
  3  6  1  0  0  0  0
 39 42  1  0  0  0  0
 39 43  1  0  0  0  0
 39 44  1  0  0  0  0
 11 14  1  0  0  0  0
 11 15  1  0  0  0  0
 11 16  1  0  0  0  0
 46 48  1  0  0  0  0
 46 49  1  0  0  0  0
 46 50  1  0  0  0  0
 21 29  1  0  0  0  0
 21 30  1  0  0  0  0
 36 41  1  0  0  0  0
  8 13  1  0  0  0  0
 18 28  1  0  0  0  0
 26 34  1  0  0  0  0
 23 31  1  0  0  0  0
 45 47  1  0  0  0  0
  7 12  1  0  0  0  0
 35 40  1  0  0  0  0
 17 27  1  0  0  0  0
M  CHG  1  23   1
M  END
$$$$

  -OEChem-05262214473D

 50 50  0     1  0  0  0  0  0999 V2000
   -1.6938    0.4865    3.8080 C   0  0  0  0  0  0  0  0  0  0  0  0
   -0.7464   -0.1282    3.3323 O   0  0  0  0  0  0  0  0  0  0  0  0
   -2.1257    0.2041    5.2087 C   0  0  0  0  0  0  0  0  0  0  0  0
   -2.8853   -0.5922    5.2621 H   0  0  0  0  0  0  0  0  0  0  0  0
   -1.2944   -0.1435    5.8430 H   0  0  0  0  0  0  0  0  0  0  0  0
   -2.5637    1.0590    5.7483 H   0  0  0  0  0  0  0  0  0  0  0  0
   -2.4435    1.4589    3.1669 N   0  0  0  0  0  0  0  0  0  0  0  0
   -2.1966    1.8850    1.8145 C   0  0  2  0  0  0  0  0  0  0  0  0
   -0.8617    1.2996    1.3733 C   0  0  0  0  0  0  0  0  0  0  0  0
    0.0104    0.9468    2.1646 O   0  0  0  0  0  0  0  0  0  0  0  0
   -2.1879    3.4017    1.7050 C   0  0  0  0  0  0  0  0  0  0  0  0
   -3.2085    1.8948    3.6787 H   0  0  0  0  0  0  0  0  0  0  0  0
   -3.0007    1.4665    1.1994 H   0  0  0  0  0  0  0  0  0  0  0  0
   -1.3888    3.8390    2.3147 H   0  0  0  0  0  0  0  0  0  0  0  0
   -2.0284    3.7240    0.6708 H   0  0  0  0  0  0  0  0  0  0  0  0
   -3.1380    3.8230    2.0508 H   0  0  0  0  0  0  0  0  0  0  0  0
   -0.7390    1.2565   -0.0101 N   0  0  0  0  0  0  0  0  0  0  0  0
    0.4383    0.7557   -0.6738 C   0  0  2  0  0  0  0  0  0  0  0  0
    0.0027   -0.4239   -1.5358 C   0  0  0  0  0  0  0  0  0  0  0  0
    0.1946   -1.5946   -1.2141 O   0  0  0  0  0  0  0  0  0  0  0  0
    1.5212    0.3187    0.3195 C   0  0  0  0  0  0  0  0  0  0  0  0
    2.0524    1.4648    1.1453 C   0  0  0  0  0  0  0  0  0  0  0  0
    2.9131    2.3991    0.6213 N   0  3  0  0  0  0  0  0  0  0  0  0
    1.8408    1.8128    2.4495 C   0  0  0  0  0  0  0  0  0  0  0  0
    3.2261    3.2947    1.5633 C   0  0  0  0  0  0  0  0  0  0  0  0
    2.5795    2.9480    2.6810 N   0  0  0  0  0  0  0  0  0  0  0  0
   -1.5221    1.5532   -0.5874 H   0  0  0  0  0  0  0  0  0  0  0  0
    0.7972    1.5621   -1.3240 H   0  0  0  0  0  0  0  0  0  0  0  0
    2.3498   -0.1693   -0.2114 H   0  0  0  0  0  0  0  0  0  0  0  0
    1.1283   -0.4449    1.0038 H   0  0  0  0  0  0  0  0  0  0  0  0
    3.2617    2.4112   -0.3333 H   0  0  0  0  0  0  0  0  0  0  0  0
    1.2689    1.4203    3.2666 H   0  0  0  0  0  0  0  0  0  0  0  0
    3.8812    4.1414    1.4435 H   0  0  0  0  0  0  0  0  0  0  0  0
    2.6292    3.4483    3.5640 H   0  0  0  0  0  0  0  0  0  0  0  0
   -0.6680   -0.0122   -2.6790 N   0  0  0  0  0  0  0  0  0  0  0  0
   -1.2076   -0.9301   -3.6564 C   0  0  2  0  0  0  0  0  0  0  0  0
   -0.1119   -1.9214   -4.0257 C   0  0  0  0  0  0  0  0  0  0  0  0
    1.0850   -1.6848   -3.8759 O   0  0  0  0  0  0  0  0  0  0  0  0
   -1.7120   -0.1938   -4.8877 C   0  0  0  0  0  0  0  0  0  0  0  0
   -0.7857    0.9843   -2.8368 H   0  0  0  0  0  0  0  0  0  0  0  0
   -2.0327   -1.4614   -3.1696 H   0  0  0  0  0  0  0  0  0  0  0  0
   -0.8992    0.3446   -5.3888 H   0  0  0  0  0  0  0  0  0  0  0  0
   -2.1463   -0.8878   -5.6148 H   0  0  0  0  0  0  0  0  0  0  0  0
   -2.4788    0.5398   -4.6163 H   0  0  0  0  0  0  0  0  0  0  0  0
   -0.6261   -3.0842   -4.5823 N   0  0  0  0  0  0  0  0  0  0  0  0
    0.2125   -4.1730   -5.0263 C   0  0  0  0  0  0  0  0  0  0  0  0
   -1.6326   -3.2027   -4.6509 H   0  0  0  0  0  0  0  0  0  0  0  0
    0.4434   -4.0467   -6.0944 H   0  0  0  0  0  0  0  0  0  0  0  0
    1.1476   -4.1753   -4.4469 H   0  0  0  0  0  0  0  0  0  0  0  0
   -0.3146   -5.1266   -4.8755 H   0  0  0  0  0  0  0  0  0  0  0  0
 22 24  2  0  0  0  0
 24 26  1  0  0  0  0
 25 26  1  0  0  0  0
 23 25  2  0  0  0  0
 21 22  1  0  0  0  0
 22 23  1  0  0  0  0
  1  3  1  0  0  0  0
  1  7  1  0  0  0  0
  1  2  2  0  0  0  0
 36 37  1  0  0  0  0
 37 45  1  0  0  0  0
 37 38  2  0  0  0  0
  8  9  1  0  0  0  0
  9 17  1  0  0  0  0
  9 10  2  0  0  0  0
 18 19  1  0  0  0  0
 19 35  1  0  0  0  0
 19 20  2  0  0  0  0
 36 39  1  0  0  0  0
  8 11  1  0  0  0  0
 45 46  1  0  0  0  0
 18 21  1  0  0  0  0
 35 36  1  0  0  0  0
  7  8  1  0  0  0  0
 17 18  1  0  0  0  0
 24 32  1  0  0  0  0
 25 33  1  0  0  0  0
  3  4  1  0  0  0  0
  3  5  1  0  0  0  0
  3  6  1  0  0  0  0
 39 42  1  0  0  0  0
 39 43  1  0  0  0  0
 39 44  1  0  0  0  0
 11 14  1  0  0  0  0
 11 15  1  0  0  0  0
 11 16  1  0  0  0  0
 46 48  1  0  0  0  0
 46 49  1  0  0  0  0
 46 50  1  0  0  0  0
 21 29  1  0  0  0  0
 21 30  1  0  0  0  0
 36 41  1  0  0  0  0
  8 13  1  0  0  0  0
 18 28  1  0  0  0  0
 26 34  1  0  0  0  0
 23 31  1  0  0  0  0
 45 47  1  0  0  0  0
  7 12  1  0  0  0  0
 35 40  1  0  0  0  0
 17 27  1  0  0  0  0
M  CHG  1  23   1
M  END
$$$$

  -OEChem-05262214473D

 50 50  0     1  0  0  0  0  0999 V2000
   -1.6938    0.4865    3.8080 C   0  0  0  0  0  0  0  0  0  0  0  0
   -0.7464   -0.1282    3.3323 O   0  0  0  0  0  0  0  0  0  0  0  0
   -2.1257    0.2041    5.2087 C   0  0  0  0  0  0  0  0  0  0  0  0
   -2.8853   -0.5922    5.2621 H   0  0  0  0  0  0  0  0  0  0  0  0
   -1.2944   -0.1435    5.8430 H   0  0  0  0  0  0  0  0  0  0  0  0
   -2.5637    1.0590    5.7483 H   0  0  0  0  0  0  0  0  0  0  0  0
   -2.4435    1.4589    3.1669 N   0  0  0  0  0  0  0  0  0  0  0  0
   -2.1966    1.8850    1.8145 C   0  0  2  0  0  0  0  0  0  0  0  0
   -0.8617    1.2996    1.3733 C   0  0  0  0  0  0  0  0  0  0  0  0
    0.0104    0.9468    2.1646 O   0  0  0  0  0  0  0  0  0  0  0  0
   -2.1879    3.4017    1.7050 C   0  0  0  0  0  0  0  0  0  0  0  0
   -3.2085    1.8948    3.6787 H   0  0  0  0  0  0  0  0  0  0  0  0
   -3.0007    1.4665    1.1994 H   0  0  0  0  0  0  0  0  0  0  0  0
   -1.3888    3.8390    2.3147 H   0  0  0  0  0  0  0  0  0  0  0  0
   -2.0284    3.7240    0.6708 H   0  0  0  0  0  0  0  0  0  0  0  0
   -3.1380    3.8230    2.0508 H   0  0  0  0  0  0  0  0  0  0  0  0
   -0.7390    1.2565   -0.0101 N   0  0  0  0  0  0  0  0  0  0  0  0
    0.4383    0.7557   -0.6738 C   0  0  2  0  0  0  0  0  0  0  0  0
    0.0027   -0.4239   -1.5358 C   0  0  0  0  0  0  0  0  0  0  0  0
   -0.0542   -1.5766   -1.1129 O   0  0  0  0  0  0  0  0  0  0  0  0
    1.5212    0.3187    0.3195 C   0  0  0  0  0  0  0  0  0  0  0  0
    2.0524    1.4648    1.1453 C   0  0  0  0  0  0  0  0  0  0  0  0
    2.9131    2.3991    0.6213 N   0  3  0  0  0  0  0  0  0  0  0  0
    1.8408    1.8128    2.4495 C   0  0  0  0  0  0  0  0  0  0  0  0
    3.2261    3.2947    1.5633 C   0  0  0  0  0  0  0  0  0  0  0  0
    2.5795    2.9480    2.6810 N   0  0  0  0  0  0  0  0  0  0  0  0
   -1.5221    1.5532   -0.5874 H   0  0  0  0  0  0  0  0  0  0  0  0
    0.7972    1.5621   -1.3240 H   0  0  0  0  0  0  0  0  0  0  0  0
    2.3498   -0.1693   -0.2114 H   0  0  0  0  0  0  0  0  0  0  0  0
    1.1283   -0.4449    1.0038 H   0  0  0  0  0  0  0  0  0  0  0  0
    3.2617    2.4112   -0.3333 H   0  0  0  0  0  0  0  0  0  0  0  0
    1.2689    1.4203    3.2666 H   0  0  0  0  0  0  0  0  0  0  0  0
    3.8812    4.1414    1.4435 H   0  0  0  0  0  0  0  0  0  0  0  0
    2.6292    3.4483    3.5640 H   0  0  0  0  0  0  0  0  0  0  0  0
   -0.3611   -0.0263   -2.8149 N   0  0  0  0  0  0  0  0  0  0  0  0
   -0.8346   -0.9436   -3.8264 C   0  0  2  0  0  0  0  0  0  0  0  0
    0.1462   -2.1063   -3.9031 C   0  0  0  0  0  0  0  0  0  0  0  0
    1.3129   -2.0258   -3.5245 O   0  0  0  0  0  0  0  0  0  0  0  0
   -0.9701   -0.2568   -5.1764 C   0  0  0  0  0  0  0  0  0  0  0  0
   -0.2910    0.9589   -3.0520 H   0  0  0  0  0  0  0  0  0  0  0  0
   -1.8104   -1.3099   -3.4893 H   0  0  0  0  0  0  0  0  0  0  0  0
   -0.0024    0.1169   -5.5305 H   0  0  0  0  0  0  0  0  0  0  0  0
   -1.3560   -0.9456   -5.9351 H   0  0  0  0  0  0  0  0  0  0  0  0
   -1.6529    0.5973   -5.1123 H   0  0  0  0  0  0  0  0  0  0  0  0
   -0.4224   -3.2312   -4.4840 N   0  0  0  0  0  0  0  0  0  0  0  0
    0.3088   -4.4610   -4.6809 C   0  0  0  0  0  0  0  0  0  0  0  0
   -1.4023   -3.2145   -4.7511 H   0  0  0  0  0  0  0  0  0  0  0  0
    0.7599   -4.4634   -5.6841 H   0  0  0  0  0  0  0  0  0  0  0  0
    1.1015   -4.5416   -3.9224 H   0  0  0  0  0  0  0  0  0  0  0  0
   -0.3779   -5.3150   -4.5857 H   0  0  0  0  0  0  0  0  0  0  0  0
 22 24  2  0  0  0  0
 24 26  1  0  0  0  0
 25 26  1  0  0  0  0
 23 25  2  0  0  0  0
 21 22  1  0  0  0  0
 22 23  1  0  0  0  0
  1  3  1  0  0  0  0
  1  7  1  0  0  0  0
  1  2  2  0  0  0  0
 36 37  1  0  0  0  0
 37 45  1  0  0  0  0
 37 38  2  0  0  0  0
  8  9  1  0  0  0  0
  9 17  1  0  0  0  0
  9 10  2  0  0  0  0
 18 19  1  0  0  0  0
 19 35  1  0  0  0  0
 19 20  2  0  0  0  0
 36 39  1  0  0  0  0
  8 11  1  0  0  0  0
 45 46  1  0  0  0  0
 18 21  1  0  0  0  0
 35 36  1  0  0  0  0
  7  8  1  0  0  0  0
 17 18  1  0  0  0  0
 24 32  1  0  0  0  0
 25 33  1  0  0  0  0
  3  4  1  0  0  0  0
  3  5  1  0  0  0  0
  3  6  1  0  0  0  0
 39 42  1  0  0  0  0
 39 43  1  0  0  0  0
 39 44  1  0  0  0  0
 11 14  1  0  0  0  0
 11 15  1  0  0  0  0
 11 16  1  0  0  0  0
 46 48  1  0  0  0  0
 46 49  1  0  0  0  0
 46 50  1  0  0  0  0
 21 29  1  0  0  0  0
 21 30  1  0  0  0  0
 36 41  1  0  0  0  0
  8 13  1  0  0  0  0
 18 28  1  0  0  0  0
 26 34  1  0  0  0  0
 23 31  1  0  0  0  0
 45 47  1  0  0  0  0
  7 12  1  0  0  0  0
 35 40  1  0  0  0  0
 17 27  1  0  0  0  0
M  CHG  1  23   1
M  END
$$$$

  -OEChem-05262214473D

 50 50  0     1  0  0  0  0  0999 V2000
   -1.6938    0.4865    3.8080 C   0  0  0  0  0  0  0  0  0  0  0  0
   -0.7464   -0.1282    3.3323 O   0  0  0  0  0  0  0  0  0  0  0  0
   -2.1257    0.2041    5.2087 C   0  0  0  0  0  0  0  0  0  0  0  0
   -2.8853   -0.5922    5.2621 H   0  0  0  0  0  0  0  0  0  0  0  0
   -1.2944   -0.1435    5.8430 H   0  0  0  0  0  0  0  0  0  0  0  0
   -2.5637    1.0590    5.7483 H   0  0  0  0  0  0  0  0  0  0  0  0
   -2.4435    1.4589    3.1669 N   0  0  0  0  0  0  0  0  0  0  0  0
   -2.1966    1.8850    1.8145 C   0  0  2  0  0  0  0  0  0  0  0  0
   -0.8617    1.2996    1.3733 C   0  0  0  0  0  0  0  0  0  0  0  0
    0.0104    0.9468    2.1646 O   0  0  0  0  0  0  0  0  0  0  0  0
   -2.1879    3.4017    1.7050 C   0  0  0  0  0  0  0  0  0  0  0  0
   -3.2085    1.8948    3.6787 H   0  0  0  0  0  0  0  0  0  0  0  0
   -3.0007    1.4665    1.1994 H   0  0  0  0  0  0  0  0  0  0  0  0
   -1.3888    3.8390    2.3147 H   0  0  0  0  0  0  0  0  0  0  0  0
   -2.0284    3.7240    0.6708 H   0  0  0  0  0  0  0  0  0  0  0  0
   -3.1380    3.8230    2.0508 H   0  0  0  0  0  0  0  0  0  0  0  0
   -0.7390    1.2565   -0.0101 N   0  0  0  0  0  0  0  0  0  0  0  0
    0.4383    0.7557   -0.6738 C   0  0  2  0  0  0  0  0  0  0  0  0
    0.0027   -0.4239   -1.5358 C   0  0  0  0  0  0  0  0  0  0  0  0
   -0.3122   -1.5154   -1.0664 O   0  0  0  0  0  0  0  0  0  0  0  0
    1.5212    0.3187    0.3195 C   0  0  0  0  0  0  0  0  0  0  0  0
    2.0524    1.4648    1.1453 C   0  0  0  0  0  0  0  0  0  0  0  0
    2.9131    2.3991    0.6213 N   0  3  0  0  0  0  0  0  0  0  0  0
    1.8408    1.8128    2.4495 C   0  0  0  0  0  0  0  0  0  0  0  0
    3.2261    3.2947    1.5633 C   0  0  0  0  0  0  0  0  0  0  0  0
    2.5795    2.9480    2.6810 N   0  0  0  0  0  0  0  0  0  0  0  0
   -1.5221    1.5532   -0.5874 H   0  0  0  0  0  0  0  0  0  0  0  0
    0.7972    1.5621   -1.3240 H   0  0  0  0  0  0  0  0  0  0  0  0
    2.3498   -0.1693   -0.2114 H   0  0  0  0  0  0  0  0  0  0  0  0
    1.1283   -0.4449    1.0038 H   0  0  0  0  0  0  0  0  0  0  0  0
    3.2617    2.4112   -0.3333 H   0  0  0  0  0  0  0  0  0  0  0  0
    1.2689    1.4203    3.2666 H   0  0  0  0  0  0  0  0  0  0  0  0
    3.8812    4.1414    1.4435 H   0  0  0  0  0  0  0  0  0  0  0  0
    2.6292    3.4483    3.5640 H   0  0  0  0  0  0  0  0  0  0  0  0
   -0.0394   -0.0949   -2.8835 N   0  0  0  0  0  0  0  0  0  0  0  0
   -0.4423   -1.0238   -3.9149 C   0  0  2  0  0  0  0  0  0  0  0  0
    0.3439   -2.3135   -3.7194 C   0  0  0  0  0  0  0  0  0  0  0  0
    1.4127   -2.3624   -3.1142 O   0  0  0  0  0  0  0  0  0  0  0  0
   -0.2049   -0.4475   -5.3020 C   0  0  0  0  0  0  0  0  0  0  0  0
    0.2263    0.8460   -3.1589 H   0  0  0  0  0  0  0  0  0  0  0  0
   -1.5096   -1.2197   -3.7648 H   0  0  0  0  0  0  0  0  0  0  0  0
    0.8590   -0.2447   -5.4708 H   0  0  0  0  0  0  0  0  0  0  0  0
   -0.5370   -1.1408   -6.0819 H   0  0  0  0  0  0  0  0  0  0  0  0
   -0.7474    0.4954   -5.4304 H   0  0  0  0  0  0  0  0  0  0  0  0
   -0.2669   -3.3958   -4.3374 N   0  0  0  0  0  0  0  0  0  0  0  0
    0.2906   -4.7278   -4.3066 C   0  0  0  0  0  0  0  0  0  0  0  0
   -1.1615   -3.2670   -4.8009 H   0  0  0  0  0  0  0  0  0  0  0  0
    0.9226   -4.8819   -5.1936 H   0  0  0  0  0  0  0  0  0  0  0  0
    0.8983   -4.8499   -3.3979 H   0  0  0  0  0  0  0  0  0  0  0  0
   -0.5246   -5.4663   -4.3045 H   0  0  0  0  0  0  0  0  0  0  0  0
 22 24  2  0  0  0  0
 24 26  1  0  0  0  0
 25 26  1  0  0  0  0
 23 25  2  0  0  0  0
 21 22  1  0  0  0  0
 22 23  1  0  0  0  0
  1  3  1  0  0  0  0
  1  7  1  0  0  0  0
  1  2  2  0  0  0  0
 36 37  1  0  0  0  0
 37 45  1  0  0  0  0
 37 38  2  0  0  0  0
  8  9  1  0  0  0  0
  9 17  1  0  0  0  0
  9 10  2  0  0  0  0
 18 19  1  0  0  0  0
 19 35  1  0  0  0  0
 19 20  2  0  0  0  0
 36 39  1  0  0  0  0
  8 11  1  0  0  0  0
 45 46  1  0  0  0  0
 18 21  1  0  0  0  0
 35 36  1  0  0  0  0
  7  8  1  0  0  0  0
 17 18  1  0  0  0  0
 24 32  1  0  0  0  0
 25 33  1  0  0  0  0
  3  4  1  0  0  0  0
  3  5  1  0  0  0  0
  3  6  1  0  0  0  0
 39 42  1  0  0  0  0
 39 43  1  0  0  0  0
 39 44  1  0  0  0  0
 11 14  1  0  0  0  0
 11 15  1  0  0  0  0
 11 16  1  0  0  0  0
 46 48  1  0  0  0  0
 46 49  1  0  0  0  0
 46 50  1  0  0  0  0
 21 29  1  0  0  0  0
 21 30  1  0  0  0  0
 36 41  1  0  0  0  0
  8 13  1  0  0  0  0
 18 28  1  0  0  0  0
 26 34  1  0  0  0  0
 23 31  1  0  0  0  0
 45 47  1  0  0  0  0
  7 12  1  0  0  0  0
 35 40  1  0  0  0  0
 17 27  1  0  0  0  0
M  CHG  1  23   1
M  END
$$$$

  -OEChem-05262214473D

 50 50  0     1  0  0  0  0  0999 V2000
   -1.6938    0.4865    3.8080 C   0  0  0  0  0  0  0  0  0  0  0  0
   -0.7464   -0.1282    3.3323 O   0  0  0  0  0  0  0  0  0  0  0  0
   -2.1257    0.2041    5.2087 C   0  0  0  0  0  0  0  0  0  0  0  0
   -2.8853   -0.5922    5.2621 H   0  0  0  0  0  0  0  0  0  0  0  0
   -1.2944   -0.1435    5.8430 H   0  0  0  0  0  0  0  0  0  0  0  0
   -2.5637    1.0590    5.7483 H   0  0  0  0  0  0  0  0  0  0  0  0
   -2.4435    1.4589    3.1669 N   0  0  0  0  0  0  0  0  0  0  0  0
   -2.1966    1.8850    1.8145 C   0  0  2  0  0  0  0  0  0  0  0  0
   -0.8617    1.2996    1.3733 C   0  0  0  0  0  0  0  0  0  0  0  0
    0.0104    0.9468    2.1646 O   0  0  0  0  0  0  0  0  0  0  0  0
   -2.1879    3.4017    1.7050 C   0  0  0  0  0  0  0  0  0  0  0  0
   -3.2085    1.8948    3.6787 H   0  0  0  0  0  0  0  0  0  0  0  0
   -3.0007    1.4665    1.1994 H   0  0  0  0  0  0  0  0  0  0  0  0
   -1.3888    3.8390    2.3147 H   0  0  0  0  0  0  0  0  0  0  0  0
   -2.0284    3.7240    0.6708 H   0  0  0  0  0  0  0  0  0  0  0  0
   -3.1380    3.8230    2.0508 H   0  0  0  0  0  0  0  0  0  0  0  0
   -0.7390    1.2565   -0.0101 N   0  0  0  0  0  0  0  0  0  0  0  0
    0.4383    0.7557   -0.6738 C   0  0  2  0  0  0  0  0  0  0  0  0
    0.0027   -0.4239   -1.5358 C   0  0  0  0  0  0  0  0  0  0  0  0
   -0.5617   -1.4151   -1.0776 O   0  0  0  0  0  0  0  0  0  0  0  0
    1.5212    0.3187    0.3195 C   0  0  0  0  0  0  0  0  0  0  0  0
    2.0524    1.4648    1.1453 C   0  0  0  0  0  0  0  0  0  0  0  0
    2.9131    2.3991    0.6213 N   0  3  0  0  0  0  0  0  0  0  0  0
    1.8408    1.8128    2.4495 C   0  0  0  0  0  0  0  0  0  0  0  0
    3.2261    3.2947    1.5633 C   0  0  0  0  0  0  0  0  0  0  0  0
    2.5795    2.9480    2.6810 N   0  0  0  0  0  0  0  0  0  0  0  0
   -1.5221    1.5532   -0.5874 H   0  0  0  0  0  0  0  0  0  0  0  0
    0.7972    1.5621   -1.3240 H   0  0  0  0  0  0  0  0  0  0  0  0
    2.3498   -0.1693   -0.2114 H   0  0  0  0  0  0  0  0  0  0  0  0
    1.1283   -0.4449    1.0038 H   0  0  0  0  0  0  0  0  0  0  0  0
    3.2617    2.4112   -0.3333 H   0  0  0  0  0  0  0  0  0  0  0  0
    1.2689    1.4203    3.2666 H   0  0  0  0  0  0  0  0  0  0  0  0
    3.8812    4.1414    1.4435 H   0  0  0  0  0  0  0  0  0  0  0  0
    2.6292    3.4483    3.5640 H   0  0  0  0  0  0  0  0  0  0  0  0
    0.2750   -0.2134   -2.8804 N   0  0  0  0  0  0  0  0  0  0  0  0
   -0.0573   -1.1652   -3.9159 C   0  0  2  0  0  0  0  0  0  0  0  0
    0.4677   -2.5291   -3.4870 C   0  0  0  0  0  0  0  0  0  0  0  0
    1.3777   -2.6719   -2.6731 O   0  0  0  0  0  0  0  0  0  0  0  0
    0.5314   -0.7530   -5.2561 C   0  0  0  0  0  0  0  0  0  0  0  0
    0.7308    0.6534   -3.1502 H   0  0  0  0  0  0  0  0  0  0  0  0
   -1.1506   -1.1969   -3.9773 H   0  0  0  0  0  0  0  0  0  0  0  0
    1.6261   -0.7157   -5.2140 H   0  0  0  0  0  0  0  0  0  0  0  0
    0.2549   -1.4600   -6.0452 H   0  0  0  0  0  0  0  0  0  0  0  0
    0.1760    0.2409   -5.5487 H   0  0  0  0  0  0  0  0  0  0  0  0
   -0.1702   -3.5666   -4.1525 N   0  0  0  0  0  0  0  0  0  0  0  0
    0.1589   -4.9551   -3.9290 C   0  0  0  0  0  0  0  0  0  0  0  0
   -0.9267   -3.3566   -4.7969 H   0  0  0  0  0  0  0  0  0  0  0  0
    0.9202   -5.2736   -4.6564 H   0  0  0  0  0  0  0  0  0  0  0  0
    0.5519   -5.0791   -2.9091 H   0  0  0  0  0  0  0  0  0  0  0  0
   -0.7448   -5.5702   -4.0512 H   0  0  0  0  0  0  0  0  0  0  0  0
 22 24  2  0  0  0  0
 24 26  1  0  0  0  0
 25 26  1  0  0  0  0
 23 25  2  0  0  0  0
 21 22  1  0  0  0  0
 22 23  1  0  0  0  0
  1  3  1  0  0  0  0
  1  7  1  0  0  0  0
  1  2  2  0  0  0  0
 36 37  1  0  0  0  0
 37 45  1  0  0  0  0
 37 38  2  0  0  0  0
  8  9  1  0  0  0  0
  9 17  1  0  0  0  0
  9 10  2  0  0  0  0
 18 19  1  0  0  0  0
 19 35  1  0  0  0  0
 19 20  2  0  0  0  0
 36 39  1  0  0  0  0
  8 11  1  0  0  0  0
 45 46  1  0  0  0  0
 18 21  1  0  0  0  0
 35 36  1  0  0  0  0
  7  8  1  0  0  0  0
 17 18  1  0  0  0  0
 24 32  1  0  0  0  0
 25 33  1  0  0  0  0
  3  4  1  0  0  0  0
  3  5  1  0  0  0  0
  3  6  1  0  0  0  0
 39 42  1  0  0  0  0
 39 43  1  0  0  0  0
 39 44  1  0  0  0  0
 11 14  1  0  0  0  0
 11 15  1  0  0  0  0
 11 16  1  0  0  0  0
 46 48  1  0  0  0  0
 46 49  1  0  0  0  0
 46 50  1  0  0  0  0
 21 29  1  0  0  0  0
 21 30  1  0  0  0  0
 36 41  1  0  0  0  0
  8 13  1  0  0  0  0
 18 28  1  0  0  0  0
 26 34  1  0  0  0  0
 23 31  1  0  0  0  0
 45 47  1  0  0  0  0
  7 12  1  0  0  0  0
 35 40  1  0  0  0  0
 17 27  1  0  0  0  0
M  CHG  1  23   1
M  END
$$$$

  -OEChem-05262214473D

 50 50  0     1  0  0  0  0  0999 V2000
   -1.6938    0.4865    3.8080 C   0  0  0  0  0  0  0  0  0  0  0  0
   -0.7464   -0.1282    3.3323 O   0  0  0  0  0  0  0  0  0  0  0  0
   -2.1257    0.2041    5.2087 C   0  0  0  0  0  0  0  0  0  0  0  0
   -2.8853   -0.5922    5.2621 H   0  0  0  0  0  0  0  0  0  0  0  0
   -1.2944   -0.1435    5.8430 H   0  0  0  0  0  0  0  0  0  0  0  0
   -2.5637    1.0590    5.7483 H   0  0  0  0  0  0  0  0  0  0  0  0
   -2.4435    1.4589    3.1669 N   0  0  0  0  0  0  0  0  0  0  0  0
   -2.1966    1.8850    1.8145 C   0  0  2  0  0  0  0  0  0  0  0  0
   -0.8617    1.2996    1.3733 C   0  0  0  0  0  0  0  0  0  0  0  0
    0.0104    0.9468    2.1646 O   0  0  0  0  0  0  0  0  0  0  0  0
   -2.1879    3.4017    1.7050 C   0  0  0  0  0  0  0  0  0  0  0  0
   -3.2085    1.8948    3.6787 H   0  0  0  0  0  0  0  0  0  0  0  0
   -3.0007    1.4665    1.1994 H   0  0  0  0  0  0  0  0  0  0  0  0
   -1.3888    3.8390    2.3147 H   0  0  0  0  0  0  0  0  0  0  0  0
   -2.0284    3.7240    0.6708 H   0  0  0  0  0  0  0  0  0  0  0  0
   -3.1380    3.8230    2.0508 H   0  0  0  0  0  0  0  0  0  0  0  0
   -0.7390    1.2565   -0.0101 N   0  0  0  0  0  0  0  0  0  0  0  0
    0.4383    0.7557   -0.6738 C   0  0  2  0  0  0  0  0  0  0  0  0
    0.0027   -0.4239   -1.5358 C   0  0  0  0  0  0  0  0  0  0  0  0
   -0.7858   -1.2825   -1.1458 O   0  0  0  0  0  0  0  0  0  0  0  0
    1.5212    0.3187    0.3195 C   0  0  0  0  0  0  0  0  0  0  0  0
    2.0524    1.4648    1.1453 C   0  0  0  0  0  0  0  0  0  0  0  0
    2.9131    2.3991    0.6213 N   0  3  0  0  0  0  0  0  0  0  0  0
    1.8408    1.8128    2.4495 C   0  0  0  0  0  0  0  0  0  0  0  0
    3.2261    3.2947    1.5633 C   0  0  0  0  0  0  0  0  0  0  0  0
    2.5795    2.9480    2.6810 N   0  0  0  0  0  0  0  0  0  0  0  0
   -1.5221    1.5532   -0.5874 H   0  0  0  0  0  0  0  0  0  0  0  0
    0.7972    1.5621   -1.3240 H   0  0  0  0  0  0  0  0  0  0  0  0
    2.3498   -0.1693   -0.2114 H   0  0  0  0  0  0  0  0  0  0  0  0
    1.1283   -0.4449    1.0038 H   0  0  0  0  0  0  0  0  0  0  0  0
    3.2617    2.4112   -0.3333 H   0  0  0  0  0  0  0  0  0  0  0  0
    1.2689    1.4203    3.2666 H   0  0  0  0  0  0  0  0  0  0  0  0
    3.8812    4.1414    1.4435 H   0  0  0  0  0  0  0  0  0  0  0  0
    2.6292    3.4483    3.5640 H   0  0  0  0  0  0  0  0  0  0  0  0
    0.5608   -0.3735   -2.8056 N   0  0  0  0  0  0  0  0  0  0  0  0
    0.2940   -1.3583   -3.8293 C   0  0  2  0  0  0  0  0  0  0  0  0
    0.5092   -2.7382   -3.2218 C   0  0  0  0  0  0  0  0  0  0  0  0
    1.2103   -2.9331   -2.2311 O   0  0  0  0  0  0  0  0  0  0  0  0
    1.1888   -1.1525   -5.0416 C   0  0  0  0  0  0  0  0  0  0  0  0
    1.1882    0.3941   -3.0266 H   0  0  0  0  0  0  0  0  0  0  0  0
   -0.7580   -1.2432   -4.1124 H   0  0  0  0  0  0  0  0  0  0  0  0
    2.2468   -1.2639   -4.7775 H   0  0  0  0  0  0  0  0  0  0  0  0
    0.9658   -1.8815   -5.8276 H   0  0  0  0  0  0  0  0  0  0  0  0
    1.0544   -0.1488   -5.4593 H   0  0  0  0  0  0  0  0  0  0  0  0
   -0.1387   -3.7322   -3.9418 N   0  0  0  0  0  0  0  0  0  0  0  0
   -0.0771   -5.1274   -3.5739 C   0  0  0  0  0  0  0  0  0  0  0  0
   -0.7137   -3.4773   -4.7394 H   0  0  0  0  0  0  0  0  0  0  0  0
    0.7530   -5.6119   -4.1089 H   0  0  0  0  0  0  0  0  0  0  0  0
    0.0858   -5.2137   -2.4895 H   0  0  0  0  0  0  0  0  0  0  0  0
   -1.0234   -5.6196   -3.8428 H   0  0  0  0  0  0  0  0  0  0  0  0
 22 24  2  0  0  0  0
 24 26  1  0  0  0  0
 25 26  1  0  0  0  0
 23 25  2  0  0  0  0
 21 22  1  0  0  0  0
 22 23  1  0  0  0  0
  1  3  1  0  0  0  0
  1  7  1  0  0  0  0
  1  2  2  0  0  0  0
 36 37  1  0  0  0  0
 37 45  1  0  0  0  0
 37 38  2  0  0  0  0
  8  9  1  0  0  0  0
  9 17  1  0  0  0  0
  9 10  2  0  0  0  0
 18 19  1  0  0  0  0
 19 35  1  0  0  0  0
 19 20  2  0  0  0  0
 36 39  1  0  0  0  0
  8 11  1  0  0  0  0
 45 46  1  0  0  0  0
 18 21  1  0  0  0  0
 35 36  1  0  0  0  0
  7  8  1  0  0  0  0
 17 18  1  0  0  0  0
 24 32  1  0  0  0  0
 25 33  1  0  0  0  0
  3  4  1  0  0  0  0
  3  5  1  0  0  0  0
  3  6  1  0  0  0  0
 39 42  1  0  0  0  0
 39 43  1  0  0  0  0
 39 44  1  0  0  0  0
 11 14  1  0  0  0  0
 11 15  1  0  0  0  0
 11 16  1  0  0  0  0
 46 48  1  0  0  0  0
 46 49  1  0  0  0  0
 46 50  1  0  0  0  0
 21 29  1  0  0  0  0
 21 30  1  0  0  0  0
 36 41  1  0  0  0  0
  8 13  1  0  0  0  0
 18 28  1  0  0  0  0
 26 34  1  0  0  0  0
 23 31  1  0  0  0  0
 45 47  1  0  0  0  0
  7 12  1  0  0  0  0
 35 40  1  0  0  0  0
 17 27  1  0  0  0  0
M  CHG  1  23   1
M  END
$$$$

  -OEChem-05262214473D

 50 50  0     1  0  0  0  0  0999 V2000
   -1.6938    0.4865    3.8080 C   0  0  0  0  0  0  0  0  0  0  0  0
   -0.7464   -0.1282    3.3323 O   0  0  0  0  0  0  0  0  0  0  0  0
   -2.1257    0.2041    5.2087 C   0  0  0  0  0  0  0  0  0  0  0  0
   -2.8853   -0.5922    5.2621 H   0  0  0  0  0  0  0  0  0  0  0  0
   -1.2944   -0.1435    5.8430 H   0  0  0  0  0  0  0  0  0  0  0  0
   -2.5637    1.0590    5.7483 H   0  0  0  0  0  0  0  0  0  0  0  0
   -2.4435    1.4589    3.1669 N   0  0  0  0  0  0  0  0  0  0  0  0
   -2.1966    1.8850    1.8145 C   0  0  2  0  0  0  0  0  0  0  0  0
   -0.8617    1.2996    1.3733 C   0  0  0  0  0  0  0  0  0  0  0  0
    0.0104    0.9468    2.1646 O   0  0  0  0  0  0  0  0  0  0  0  0
   -2.1879    3.4017    1.7050 C   0  0  0  0  0  0  0  0  0  0  0  0
   -3.2085    1.8948    3.6787 H   0  0  0  0  0  0  0  0  0  0  0  0
   -3.0007    1.4665    1.1994 H   0  0  0  0  0  0  0  0  0  0  0  0
   -1.3888    3.8390    2.3147 H   0  0  0  0  0  0  0  0  0  0  0  0
   -2.0284    3.7240    0.6708 H   0  0  0  0  0  0  0  0  0  0  0  0
   -3.1380    3.8230    2.0508 H   0  0  0  0  0  0  0  0  0  0  0  0
   -0.7390    1.2565   -0.0101 N   0  0  0  0  0  0  0  0  0  0  0  0
    0.4383    0.7557   -0.6738 C   0  0  2  0  0  0  0  0  0  0  0  0
    0.0027   -0.4239   -1.5358 C   0  0  0  0  0  0  0  0  0  0  0  0
   -0.9691   -1.1266   -1.2664 O   0  0  0  0  0  0  0  0  0  0  0  0
    1.5212    0.3187    0.3195 C   0  0  0  0  0  0  0  0  0  0  0  0
    2.0524    1.4648    1.1453 C   0  0  0  0  0  0  0  0  0  0  0  0
    2.9131    2.3991    0.6213 N   0  3  0  0  0  0  0  0  0  0  0  0
    1.8408    1.8128    2.4495 C   0  0  0  0  0  0  0  0  0  0  0  0
    3.2261    3.2947    1.5633 C   0  0  0  0  0  0  0  0  0  0  0  0
    2.5795    2.9480    2.6810 N   0  0  0  0  0  0  0  0  0  0  0  0
   -1.5221    1.5532   -0.5874 H   0  0  0  0  0  0  0  0  0  0  0  0
    0.7972    1.5621   -1.3240 H   0  0  0  0  0  0  0  0  0  0  0  0
    2.3498   -0.1693   -0.2114 H   0  0  0  0  0  0  0  0  0  0  0  0
    1.1283   -0.4449    1.0038 H   0  0  0  0  0  0  0  0  0  0  0  0
    3.2617    2.4112   -0.3333 H   0  0  0  0  0  0  0  0  0  0  0  0
    1.2689    1.4203    3.2666 H   0  0  0  0  0  0  0  0  0  0  0  0
    3.8812    4.1414    1.4435 H   0  0  0  0  0  0  0  0  0  0  0  0
    2.6292    3.4483    3.5640 H   0  0  0  0  0  0  0  0  0  0  0  0
    0.7984   -0.5645   -2.6643 N   0  0  0  0  0  0  0  0  0  0  0  0
    0.5878   -1.5897   -3.6610 C   0  0  2  0  0  0  0  0  0  0  0  0
    0.4656   -2.9267   -2.9419 C   0  0  0  0  0  0  0  0  0  0  0  0
    0.9218   -3.1281   -1.8183 O   0  0  0  0  0  0  0  0  0  0  0  0
    1.7223   -1.6187   -4.6733 C   0  0  0  0  0  0  0  0  0  0  0  0
    1.5673    0.0859   -2.7964 H   0  0  0  0  0  0  0  0  0  0  0  0
   -0.3584   -1.3554   -4.1608 H   0  0  0  0  0  0  0  0  0  0  0  0
    2.6786   -1.8519   -4.1910 H   0  0  0  0  0  0  0  0  0  0  0  0
    1.5473   -2.3766   -5.4439 H   0  0  0  0  0  0  0  0  0  0  0  0
    1.8280   -0.6472   -5.1682 H   0  0  0  0  0  0  0  0  0  0  0  0
   -0.1748   -3.8811   -3.7198 N   0  0  0  0  0  0  0  0  0  0  0  0
   -0.4014   -5.2331   -3.2654 C   0  0  0  0  0  0  0  0  0  0  0  0
   -0.5372   -3.6207   -4.6323 H   0  0  0  0  0  0  0  0  0  0  0  0
    0.4323   -5.8738   -3.5886 H   0  0  0  0  0  0  0  0  0  0  0  0
   -0.4681   -5.2445   -2.1675 H   0  0  0  0  0  0  0  0  0  0  0  0
   -1.3415   -5.6111   -3.6937 H   0  0  0  0  0  0  0  0  0  0  0  0
 22 24  2  0  0  0  0
 24 26  1  0  0  0  0
 25 26  1  0  0  0  0
 23 25  2  0  0  0  0
 21 22  1  0  0  0  0
 22 23  1  0  0  0  0
  1  3  1  0  0  0  0
  1  7  1  0  0  0  0
  1  2  2  0  0  0  0
 36 37  1  0  0  0  0
 37 45  1  0  0  0  0
 37 38  2  0  0  0  0
  8  9  1  0  0  0  0
  9 17  1  0  0  0  0
  9 10  2  0  0  0  0
 18 19  1  0  0  0  0
 19 35  1  0  0  0  0
 19 20  2  0  0  0  0
 36 39  1  0  0  0  0
  8 11  1  0  0  0  0
 45 46  1  0  0  0  0
 18 21  1  0  0  0  0
 35 36  1  0  0  0  0
  7  8  1  0  0  0  0
 17 18  1  0  0  0  0
 24 32  1  0  0  0  0
 25 33  1  0  0  0  0
  3  4  1  0  0  0  0
  3  5  1  0  0  0  0
  3  6  1  0  0  0  0
 39 42  1  0  0  0  0
 39 43  1  0  0  0  0
 39 44  1  0  0  0  0
 11 14  1  0  0  0  0
 11 15  1  0  0  0  0
 11 16  1  0  0  0  0
 46 48  1  0  0  0  0
 46 49  1  0  0  0  0
 46 50  1  0  0  0  0
 21 29  1  0  0  0  0
 21 30  1  0  0  0  0
 36 41  1  0  0  0  0
  8 13  1  0  0  0  0
 18 28  1  0  0  0  0
 26 34  1  0  0  0  0
 23 31  1  0  0  0  0
 45 47  1  0  0  0  0
  7 12  1  0  0  0  0
 35 40  1  0  0  0  0
 17 27  1  0  0  0  0
M  CHG  1  23   1
M  END
$$$$

  -OEChem-05262214473D

 50 50  0     1  0  0  0  0  0999 V2000
   -1.6938    0.4865    3.8080 C   0  0  0  0  0  0  0  0  0  0  0  0
   -0.7464   -0.1282    3.3323 O   0  0  0  0  0  0  0  0  0  0  0  0
   -2.1257    0.2041    5.2087 C   0  0  0  0  0  0  0  0  0  0  0  0
   -2.8853   -0.5922    5.2621 H   0  0  0  0  0  0  0  0  0  0  0  0
   -1.2944   -0.1435    5.8430 H   0  0  0  0  0  0  0  0  0  0  0  0
   -2.5637    1.0590    5.7483 H   0  0  0  0  0  0  0  0  0  0  0  0
   -2.4435    1.4589    3.1669 N   0  0  0  0  0  0  0  0  0  0  0  0
   -2.1966    1.8850    1.8145 C   0  0  2  0  0  0  0  0  0  0  0  0
   -0.8617    1.2996    1.3733 C   0  0  0  0  0  0  0  0  0  0  0  0
    0.0104    0.9468    2.1646 O   0  0  0  0  0  0  0  0  0  0  0  0
   -2.1879    3.4017    1.7050 C   0  0  0  0  0  0  0  0  0  0  0  0
   -3.2085    1.8948    3.6787 H   0  0  0  0  0  0  0  0  0  0  0  0
   -3.0007    1.4665    1.1994 H   0  0  0  0  0  0  0  0  0  0  0  0
   -1.3888    3.8390    2.3147 H   0  0  0  0  0  0  0  0  0  0  0  0
   -2.0284    3.7240    0.6708 H   0  0  0  0  0  0  0  0  0  0  0  0
   -3.1380    3.8230    2.0508 H   0  0  0  0  0  0  0  0  0  0  0  0
   -0.7390    1.2565   -0.0101 N   0  0  0  0  0  0  0  0  0  0  0  0
    0.4383    0.7557   -0.6738 C   0  0  2  0  0  0  0  0  0  0  0  0
    0.0027   -0.4239   -1.5358 C   0  0  0  0  0  0  0  0  0  0  0  0
   -1.0993   -0.9582   -1.4312 O   0  0  0  0  0  0  0  0  0  0  0  0
    1.5212    0.3187    0.3195 C   0  0  0  0  0  0  0  0  0  0  0  0
    2.0524    1.4648    1.1453 C   0  0  0  0  0  0  0  0  0  0  0  0
    2.9131    2.3991    0.6213 N   0  3  0  0  0  0  0  0  0  0  0  0
    1.8408    1.8128    2.4495 C   0  0  0  0  0  0  0  0  0  0  0  0
    3.2261    3.2947    1.5633 C   0  0  0  0  0  0  0  0  0  0  0  0
    2.5795    2.9480    2.6810 N   0  0  0  0  0  0  0  0  0  0  0  0
   -1.5221    1.5532   -0.5874 H   0  0  0  0  0  0  0  0  0  0  0  0
    0.7972    1.5621   -1.3240 H   0  0  0  0  0  0  0  0  0  0  0  0
    2.3498   -0.1693   -0.2114 H   0  0  0  0  0  0  0  0  0  0  0  0
    1.1283   -0.4449    1.0038 H   0  0  0  0  0  0  0  0  0  0  0  0
    3.2617    2.4112   -0.3333 H   0  0  0  0  0  0  0  0  0  0  0  0
    1.2689    1.4203    3.2666 H   0  0  0  0  0  0  0  0  0  0  0  0
    3.8812    4.1414    1.4435 H   0  0  0  0  0  0  0  0  0  0  0  0
    2.6292    3.4483    3.5640 H   0  0  0  0  0  0  0  0  0  0  0  0
    0.9716   -0.7733   -2.4662 N   0  0  0  0  0  0  0  0  0  0  0  0
    0.8040   -1.8438   -3.4225 C   0  0  2  0  0  0  0  0  0  0  0  0
    0.3399   -3.0816   -2.6663 C   0  0  0  0  0  0  0  0  0  0  0  0
    0.5319   -3.2438   -1.4630 O   0  0  0  0  0  0  0  0  0  0  0  0
    2.0957   -2.1198   -4.1762 C   0  0  0  0  0  0  0  0  0  0  0  0
    1.8423   -0.2503   -2.4754 H   0  0  0  0  0  0  0  0  0  0  0  0
    0.0208   -1.5257   -4.1192 H   0  0  0  0  0  0  0  0  0  0  0  0
    2.8923   -2.4398   -3.4945 H   0  0  0  0  0  0  0  0  0  0  0  0
    1.9596   -2.9116   -4.9202 H   0  0  0  0  0  0  0  0  0  0  0  0
    2.4439   -1.2203   -4.6952 H   0  0  0  0  0  0  0  0  0  0  0  0
   -0.2758   -4.0032   -3.5016 N   0  0  0  0  0  0  0  0  0  0  0  0
   -0.7919   -5.2650   -3.0245 C   0  0  0  0  0  0  0  0  0  0  0  0
   -0.4092   -3.7772   -4.4829 H   0  0  0  0  0  0  0  0  0  0  0  0
   -0.0199   -6.0413   -3.1308 H   0  0  0  0  0  0  0  0  0  0  0  0
   -1.0721   -5.1693   -1.9651 H   0  0  0  0  0  0  0  0  0  0  0  0
   -1.6773   -5.5453   -3.6140 H   0  0  0  0  0  0  0  0  0  0  0  0
 22 24  2  0  0  0  0
 24 26  1  0  0  0  0
 25 26  1  0  0  0  0
 23 25  2  0  0  0  0
 21 22  1  0  0  0  0
 22 23  1  0  0  0  0
  1  3  1  0  0  0  0
  1  7  1  0  0  0  0
  1  2  2  0  0  0  0
 36 37  1  0  0  0  0
 37 45  1  0  0  0  0
 37 38  2  0  0  0  0
  8  9  1  0  0  0  0
  9 17  1  0  0  0  0
  9 10  2  0  0  0  0
 18 19  1  0  0  0  0
 19 35  1  0  0  0  0
 19 20  2  0  0  0  0
 36 39  1  0  0  0  0
  8 11  1  0  0  0  0
 45 46  1  0  0  0  0
 18 21  1  0  0  0  0
 35 36  1  0  0  0  0
  7  8  1  0  0  0  0
 17 18  1  0  0  0  0
 24 32  1  0  0  0  0
 25 33  1  0  0  0  0
  3  4  1  0  0  0  0
  3  5  1  0  0  0  0
  3  6  1  0  0  0  0
 39 42  1  0  0  0  0
 39 43  1  0  0  0  0
 39 44  1  0  0  0  0
 11 14  1  0  0  0  0
 11 15  1  0  0  0  0
 11 16  1  0  0  0  0
 46 48  1  0  0  0  0
 46 49  1  0  0  0  0
 46 50  1  0  0  0  0
 21 29  1  0  0  0  0
 21 30  1  0  0  0  0
 36 41  1  0  0  0  0
  8 13  1  0  0  0  0
 18 28  1  0  0  0  0
 26 34  1  0  0  0  0
 23 31  1  0  0  0  0
 45 47  1  0  0  0  0
  7 12  1  0  0  0  0
 35 40  1  0  0  0  0
 17 27  1  0  0  0  0
M  CHG  1  23   1
M  END
$$$$

  -OEChem-05262214473D

 50 50  0     1  0  0  0  0  0999 V2000
   -1.6938    0.4865    3.8080 C   0  0  0  0  0  0  0  0  0  0  0  0
   -0.7464   -0.1282    3.3323 O   0  0  0  0  0  0  0  0  0  0  0  0
   -2.1257    0.2041    5.2087 C   0  0  0  0  0  0  0  0  0  0  0  0
   -2.8853   -0.5922    5.2621 H   0  0  0  0  0  0  0  0  0  0  0  0
   -1.2944   -0.1435    5.8430 H   0  0  0  0  0  0  0  0  0  0  0  0
   -2.5637    1.0590    5.7483 H   0  0  0  0  0  0  0  0  0  0  0  0
   -2.4435    1.4589    3.1669 N   0  0  0  0  0  0  0  0  0  0  0  0
   -2.1966    1.8850    1.8145 C   0  0  2  0  0  0  0  0  0  0  0  0
   -0.8617    1.2996    1.3733 C   0  0  0  0  0  0  0  0  0  0  0  0
    0.0104    0.9468    2.1646 O   0  0  0  0  0  0  0  0  0  0  0  0
   -2.1879    3.4017    1.7050 C   0  0  0  0  0  0  0  0  0  0  0  0
   -3.2085    1.8948    3.6787 H   0  0  0  0  0  0  0  0  0  0  0  0
   -3.0007    1.4665    1.1994 H   0  0  0  0  0  0  0  0  0  0  0  0
   -1.3888    3.8390    2.3147 H   0  0  0  0  0  0  0  0  0  0  0  0
   -2.0284    3.7240    0.6708 H   0  0  0  0  0  0  0  0  0  0  0  0
   -3.1380    3.8230    2.0508 H   0  0  0  0  0  0  0  0  0  0  0  0
   -0.7390    1.2565   -0.0101 N   0  0  0  0  0  0  0  0  0  0  0  0
    0.4383    0.7557   -0.6738 C   0  0  2  0  0  0  0  0  0  0  0  0
   -0.0329   -0.1549   -1.8020 C   0  0  0  0  0  0  0  0  0  0  0  0
   -1.2202   -0.3387   -2.0619 O   0  0  0  0  0  0  0  0  0  0  0  0
    1.3590   -0.0123    0.2816 C   0  0  0  0  0  0  0  0  0  0  0  0
    1.9249    0.8610    1.3747 C   0  0  0  0  0  0  0  0  0  0  0  0
    2.9319    1.7642    1.1338 N   0  3  0  0  0  0  0  0  0  0  0  0
    1.6198    0.9571    2.7031 C   0  0  0  0  0  0  0  0  0  0  0  0
    3.2427    2.3986    2.2688 C   0  0  0  0  0  0  0  0  0  0  0  0
    2.4506    1.9155    3.2315 N   0  0  0  0  0  0  0  0  0  0  0  0
   -1.5221    1.5532   -0.5874 H   0  0  0  0  0  0  0  0  0  0  0  0
    0.9483    1.6257   -1.1040 H   0  0  0  0  0  0  0  0  0  0  0  0
    2.1793   -0.4831   -0.2770 H   0  0  0  0  0  0  0  0  0  0  0  0
    0.8167   -0.8434    0.7516 H   0  0  0  0  0  0  0  0  0  0  0  0
    3.3759    1.9277    0.2343 H   0  0  0  0  0  0  0  0  0  0  0  0
    0.9274    0.4818    3.3690 H   0  0  0  0  0  0  0  0  0  0  0  0
    3.9953    3.1602    2.3864 H   0  0  0  0  0  0  0  0  0  0  0  0
    2.4638    2.2125    4.2031 H   0  0  0  0  0  0  0  0  0  0  0  0
    1.0302   -0.6953   -2.5120 N   0  0  0  0  0  0  0  0  0  0  0  0
    0.8616   -1.5748   -3.6464 C   0  0  2  0  0  0  0  0  0  0  0  0
   -0.1097   -2.6775   -3.2463 C   0  0  0  0  0  0  0  0  0  0  0  0
   -0.3166   -2.9976   -2.0776 O   0  0  0  0  0  0  0  0  0  0  0  0
    2.1918   -2.1589   -4.0962 C   0  0  0  0  0  0  0  0  0  0  0  0
    1.9743   -0.4609   -2.2196 H   0  0  0  0  0  0  0  0  0  0  0  0
    0.4219   -0.9739   -4.4499 H   0  0  0  0  0  0  0  0  0  0  0  0
    2.6475   -2.7643   -3.3042 H   0  0  0  0  0  0  0  0  0  0  0  0
    2.0662   -2.8024   -4.9732 H   0  0  0  0  0  0  0  0  0  0  0  0
    2.8990   -1.3636   -4.3552 H   0  0  0  0  0  0  0  0  0  0  0  0
   -0.6858   -3.2912   -4.3497 N   0  0  0  0  0  0  0  0  0  0  0  0
   -1.6323   -4.3759   -4.2329 C   0  0  0  0  0  0  0  0  0  0  0  0
   -0.4706   -2.9483   -5.2813 H   0  0  0  0  0  0  0  0  0  0  0  0
   -1.0975   -5.3362   -4.2761 H   0  0  0  0  0  0  0  0  0  0  0  0
   -2.1649   -4.2958   -3.2738 H   0  0  0  0  0  0  0  0  0  0  0  0
   -2.3557   -4.3217   -5.0597 H   0  0  0  0  0  0  0  0  0  0  0  0
 22 24  2  0  0  0  0
 24 26  1  0  0  0  0
 25 26  1  0  0  0  0
 23 25  2  0  0  0  0
 21 22  1  0  0  0  0
 22 23  1  0  0  0  0
  1  3  1  0  0  0  0
  1  7  1  0  0  0  0
  1  2  2  0  0  0  0
 36 37  1  0  0  0  0
 37 45  1  0  0  0  0
 37 38  2  0  0  0  0
  8  9  1  0  0  0  0
  9 17  1  0  0  0  0
  9 10  2  0  0  0  0
 18 19  1  0  0  0  0
 19 35  1  0  0  0  0
 19 20  2  0  0  0  0
 36 39  1  0  0  0  0
  8 11  1  0  0  0  0
 45 46  1  0  0  0  0
 18 21  1  0  0  0  0
 35 36  1  0  0  0  0
  7  8  1  0  0  0  0
 17 18  1  0  0  0  0
 24 32  1  0  0  0  0
 25 33  1  0  0  0  0
  3  4  1  0  0  0  0
  3  5  1  0  0  0  0
  3  6  1  0  0  0  0
 39 42  1  0  0  0  0
 39 43  1  0  0  0  0
 39 44  1  0  0  0  0
 11 14  1  0  0  0  0
 11 15  1  0  0  0  0
 11 16  1  0  0  0  0
 46 48  1  0  0  0  0
 46 49  1  0  0  0  0
 46 50  1  0  0  0  0
 21 29  1  0  0  0  0
 21 30  1  0  0  0  0
 36 41  1  0  0  0  0
  8 13  1  0  0  0  0
 18 28  1  0  0  0  0
 26 34  1  0  0  0  0
 23 31  1  0  0  0  0
 45 47  1  0  0  0  0
  7 12  1  0  0  0  0
 35 40  1  0  0  0  0
 17 27  1  0  0  0  0
M  CHG  1  23   1
M  END
$$$$

  -OEChem-05262214473D

 50 50  0     1  0  0  0  0  0999 V2000
   -1.6938    0.4865    3.8080 C   0  0  0  0  0  0  0  0  0  0  0  0
   -0.7464   -0.1282    3.3323 O   0  0  0  0  0  0  0  0  0  0  0  0
   -2.1257    0.2041    5.2087 C   0  0  0  0  0  0  0  0  0  0  0  0
   -2.8853   -0.5922    5.2621 H   0  0  0  0  0  0  0  0  0  0  0  0
   -1.2944   -0.1435    5.8430 H   0  0  0  0  0  0  0  0  0  0  0  0
   -2.5637    1.0590    5.7483 H   0  0  0  0  0  0  0  0  0  0  0  0
   -2.4435    1.4589    3.1669 N   0  0  0  0  0  0  0  0  0  0  0  0
   -2.1966    1.8850    1.8145 C   0  0  2  0  0  0  0  0  0  0  0  0
   -0.8617    1.2996    1.3733 C   0  0  0  0  0  0  0  0  0  0  0  0
    0.0104    0.9468    2.1646 O   0  0  0  0  0  0  0  0  0  0  0  0
   -2.1879    3.4017    1.7050 C   0  0  0  0  0  0  0  0  0  0  0  0
   -3.2085    1.8948    3.6787 H   0  0  0  0  0  0  0  0  0  0  0  0
   -3.0007    1.4665    1.1994 H   0  0  0  0  0  0  0  0  0  0  0  0
   -1.3888    3.8390    2.3147 H   0  0  0  0  0  0  0  0  0  0  0  0
   -2.0284    3.7240    0.6708 H   0  0  0  0  0  0  0  0  0  0  0  0
   -3.1380    3.8230    2.0508 H   0  0  0  0  0  0  0  0  0  0  0  0
   -0.7390    1.2565   -0.0101 N   0  0  0  0  0  0  0  0  0  0  0  0
    0.4383    0.7557   -0.6738 C   0  0  2  0  0  0  0  0  0  0  0  0
   -0.0329   -0.1549   -1.8020 C   0  0  0  0  0  0  0  0  0  0  0  0
   -1.1818   -0.1395   -2.2387 O   0  0  0  0  0  0  0  0  0  0  0  0
    1.3590   -0.0123    0.2816 C   0  0  0  0  0  0  0  0  0  0  0  0
    1.9249    0.8610    1.3747 C   0  0  0  0  0  0  0  0  0  0  0  0
    2.9319    1.7642    1.1338 N   0  3  0  0  0  0  0  0  0  0  0  0
    1.6198    0.9571    2.7031 C   0  0  0  0  0  0  0  0  0  0  0  0
    3.2427    2.3986    2.2688 C   0  0  0  0  0  0  0  0  0  0  0  0
    2.4506    1.9155    3.2315 N   0  0  0  0  0  0  0  0  0  0  0  0
   -1.5221    1.5532   -0.5874 H   0  0  0  0  0  0  0  0  0  0  0  0
    0.9483    1.6257   -1.1040 H   0  0  0  0  0  0  0  0  0  0  0  0
    2.1793   -0.4831   -0.2770 H   0  0  0  0  0  0  0  0  0  0  0  0
    0.8167   -0.8434    0.7516 H   0  0  0  0  0  0  0  0  0  0  0  0
    3.3759    1.9277    0.2343 H   0  0  0  0  0  0  0  0  0  0  0  0
    0.9274    0.4818    3.3690 H   0  0  0  0  0  0  0  0  0  0  0  0
    3.9953    3.1602    2.3864 H   0  0  0  0  0  0  0  0  0  0  0  0
    2.4638    2.2125    4.2031 H   0  0  0  0  0  0  0  0  0  0  0  0
    0.9948   -0.9479   -2.2933 N   0  0  0  0  0  0  0  0  0  0  0  0
    0.8239   -1.8847   -3.3805 C   0  0  2  0  0  0  0  0  0  0  0  0
   -0.3944   -2.7453   -3.0727 C   0  0  0  0  0  0  0  0  0  0  0  0
   -0.8298   -2.9089   -1.9348 O   0  0  0  0  0  0  0  0  0  0  0  0
    2.0635   -2.7452   -3.5694 C   0  0  0  0  0  0  0  0  0  0  0  0
    1.9132   -0.8657   -1.8673 H   0  0  0  0  0  0  0  0  0  0  0  0
    0.6346   -1.2919   -4.2820 H   0  0  0  0  0  0  0  0  0  0  0  0
    2.2692   -3.3464   -2.6763 H   0  0  0  0  0  0  0  0  0  0  0  0
    1.9433   -3.4347   -4.4116 H   0  0  0  0  0  0  0  0  0  0  0  0
    2.9443   -2.1229   -3.7612 H   0  0  0  0  0  0  0  0  0  0  0  0
   -0.9121   -3.3438   -4.2128 N   0  0  0  0  0  0  0  0  0  0  0  0
   -2.0612   -4.2182   -4.1810 C   0  0  0  0  0  0  0  0  0  0  0  0
   -0.4990   -3.1367   -5.1173 H   0  0  0  0  0  0  0  0  0  0  0  0
   -1.7265   -5.2606   -4.0743 H   0  0  0  0  0  0  0  0  0  0  0  0
   -2.7024   -3.9500   -3.3284 H   0  0  0  0  0  0  0  0  0  0  0  0
   -2.6303   -4.1098   -5.1161 H   0  0  0  0  0  0  0  0  0  0  0  0
 22 24  2  0  0  0  0
 24 26  1  0  0  0  0
 25 26  1  0  0  0  0
 23 25  2  0  0  0  0
 21 22  1  0  0  0  0
 22 23  1  0  0  0  0
  1  3  1  0  0  0  0
  1  7  1  0  0  0  0
  1  2  2  0  0  0  0
 36 37  1  0  0  0  0
 37 45  1  0  0  0  0
 37 38  2  0  0  0  0
  8  9  1  0  0  0  0
  9 17  1  0  0  0  0
  9 10  2  0  0  0  0
 18 19  1  0  0  0  0
 19 35  1  0  0  0  0
 19 20  2  0  0  0  0
 36 39  1  0  0  0  0
  8 11  1  0  0  0  0
 45 46  1  0  0  0  0
 18 21  1  0  0  0  0
 35 36  1  0  0  0  0
  7  8  1  0  0  0  0
 17 18  1  0  0  0  0
 24 32  1  0  0  0  0
 25 33  1  0  0  0  0
  3  4  1  0  0  0  0
  3  5  1  0  0  0  0
  3  6  1  0  0  0  0
 39 42  1  0  0  0  0
 39 43  1  0  0  0  0
 39 44  1  0  0  0  0
 11 14  1  0  0  0  0
 11 15  1  0  0  0  0
 11 16  1  0  0  0  0
 46 48  1  0  0  0  0
 46 49  1  0  0  0  0
 46 50  1  0  0  0  0
 21 29  1  0  0  0  0
 21 30  1  0  0  0  0
 36 41  1  0  0  0  0
  8 13  1  0  0  0  0
 18 28  1  0  0  0  0
 26 34  1  0  0  0  0
 23 31  1  0  0  0  0
 45 47  1  0  0  0  0
  7 12  1  0  0  0  0
 35 40  1  0  0  0  0
 17 27  1  0  0  0  0
M  CHG  1  23   1
M  END
$$$$

  -OEChem-05262214473D

 50 50  0     1  0  0  0  0  0999 V2000
   -1.6938    0.4865    3.8080 C   0  0  0  0  0  0  0  0  0  0  0  0
   -0.7464   -0.1282    3.3323 O   0  0  0  0  0  0  0  0  0  0  0  0
   -2.1257    0.2041    5.2087 C   0  0  0  0  0  0  0  0  0  0  0  0
   -2.8853   -0.5922    5.2621 H   0  0  0  0  0  0  0  0  0  0  0  0
   -1.2944   -0.1435    5.8430 H   0  0  0  0  0  0  0  0  0  0  0  0
   -2.5637    1.0590    5.7483 H   0  0  0  0  0  0  0  0  0  0  0  0
   -2.4435    1.4589    3.1669 N   0  0  0  0  0  0  0  0  0  0  0  0
   -2.1966    1.8850    1.8145 C   0  0  2  0  0  0  0  0  0  0  0  0
   -0.8617    1.2996    1.3733 C   0  0  0  0  0  0  0  0  0  0  0  0
    0.0104    0.9468    2.1646 O   0  0  0  0  0  0  0  0  0  0  0  0
   -2.1879    3.4017    1.7050 C   0  0  0  0  0  0  0  0  0  0  0  0
   -3.2085    1.8948    3.6787 H   0  0  0  0  0  0  0  0  0  0  0  0
   -3.0007    1.4665    1.1994 H   0  0  0  0  0  0  0  0  0  0  0  0
   -1.3888    3.8390    2.3147 H   0  0  0  0  0  0  0  0  0  0  0  0
   -2.0284    3.7240    0.6708 H   0  0  0  0  0  0  0  0  0  0  0  0
   -3.1380    3.8230    2.0508 H   0  0  0  0  0  0  0  0  0  0  0  0
   -0.7390    1.2565   -0.0101 N   0  0  0  0  0  0  0  0  0  0  0  0
    0.4383    0.7557   -0.6738 C   0  0  2  0  0  0  0  0  0  0  0  0
   -0.0329   -0.1549   -1.8020 C   0  0  0  0  0  0  0  0  0  0  0  0
   -1.0793    0.0315   -2.4196 O   0  0  0  0  0  0  0  0  0  0  0  0
    1.3590   -0.0123    0.2816 C   0  0  0  0  0  0  0  0  0  0  0  0
    1.9249    0.8610    1.3747 C   0  0  0  0  0  0  0  0  0  0  0  0
    2.9319    1.7642    1.1338 N   0  3  0  0  0  0  0  0  0  0  0  0
    1.6198    0.9571    2.7031 C   0  0  0  0  0  0  0  0  0  0  0  0
    3.2427    2.3986    2.2688 C   0  0  0  0  0  0  0  0  0  0  0  0
    2.4506    1.9155    3.2315 N   0  0  0  0  0  0  0  0  0  0  0  0
   -1.5221    1.5532   -0.5874 H   0  0  0  0  0  0  0  0  0  0  0  0
    0.9483    1.6257   -1.1040 H   0  0  0  0  0  0  0  0  0  0  0  0
    2.1793   -0.4831   -0.2770 H   0  0  0  0  0  0  0  0  0  0  0  0
    0.8167   -0.8434    0.7516 H   0  0  0  0  0  0  0  0  0  0  0  0
    3.3759    1.9277    0.2343 H   0  0  0  0  0  0  0  0  0  0  0  0
    0.9274    0.4818    3.3690 H   0  0  0  0  0  0  0  0  0  0  0  0
    3.9953    3.1602    2.3864 H   0  0  0  0  0  0  0  0  0  0  0  0
    2.4638    2.2125    4.2031 H   0  0  0  0  0  0  0  0  0  0  0  0
    0.8783   -1.1676   -2.0674 N   0  0  0  0  0  0  0  0  0  0  0  0
    0.6870   -2.1556   -3.1047 C   0  0  2  0  0  0  0  0  0  0  0  0
   -0.7092   -2.7424   -2.9435 C   0  0  0  0  0  0  0  0  0  0  0  0
   -1.3306   -2.7136   -1.8833 O   0  0  0  0  0  0  0  0  0  0  0  0
    1.7459   -3.2448   -3.0336 C   0  0  0  0  0  0  0  0  0  0  0  0
    1.7222   -1.2169   -1.5041 H   0  0  0  0  0  0  0  0  0  0  0  0
    0.7531   -1.6264   -4.0616 H   0  0  0  0  0  0  0  0  0  0  0  0
    1.6951   -3.7861   -2.0818 H   0  0  0  0  0  0  0  0  0  0  0  0
    1.6166   -3.9770   -3.8374 H   0  0  0  0  0  0  0  0  0  0  0  0
    2.7508   -2.8176   -3.1198 H   0  0  0  0  0  0  0  0  0  0  0  0
   -1.1620   -3.3402   -4.1113 N   0  0  0  0  0  0  0  0  0  0  0  0
   -2.4533   -3.9795   -4.2098 C   0  0  0  0  0  0  0  0  0  0  0  0
   -0.5879   -3.3002   -4.9483 H   0  0  0  0  0  0  0  0  0  0  0  0
   -2.3509   -5.0509   -3.9828 H   0  0  0  0  0  0  0  0  0  0  0  0
   -3.1469   -3.5174   -3.4919 H   0  0  0  0  0  0  0  0  0  0  0  0
   -2.8462   -3.8570   -5.2300 H   0  0  0  0  0  0  0  0  0  0  0  0
 22 24  2  0  0  0  0
 24 26  1  0  0  0  0
 25 26  1  0  0  0  0
 23 25  2  0  0  0  0
 21 22  1  0  0  0  0
 22 23  1  0  0  0  0
  1  3  1  0  0  0  0
  1  7  1  0  0  0  0
  1  2  2  0  0  0  0
 36 37  1  0  0  0  0
 37 45  1  0  0  0  0
 37 38  2  0  0  0  0
  8  9  1  0  0  0  0
  9 17  1  0  0  0  0
  9 10  2  0  0  0  0
 18 19  1  0  0  0  0
 19 35  1  0  0  0  0
 19 20  2  0  0  0  0
 36 39  1  0  0  0  0
  8 11  1  0  0  0  0
 45 46  1  0  0  0  0
 18 21  1  0  0  0  0
 35 36  1  0  0  0  0
  7  8  1  0  0  0  0
 17 18  1  0  0  0  0
 24 32  1  0  0  0  0
 25 33  1  0  0  0  0
  3  4  1  0  0  0  0
  3  5  1  0  0  0  0
  3  6  1  0  0  0  0
 39 42  1  0  0  0  0
 39 43  1  0  0  0  0
 39 44  1  0  0  0  0
 11 14  1  0  0  0  0
 11 15  1  0  0  0  0
 11 16  1  0  0  0  0
 46 48  1  0  0  0  0
 46 49  1  0  0  0  0
 46 50  1  0  0  0  0
 21 29  1  0  0  0  0
 21 30  1  0  0  0  0
 36 41  1  0  0  0  0
  8 13  1  0  0  0  0
 18 28  1  0  0  0  0
 26 34  1  0  0  0  0
 23 31  1  0  0  0  0
 45 47  1  0  0  0  0
  7 12  1  0  0  0  0
 35 40  1  0  0  0  0
 17 27  1  0  0  0  0
M  CHG  1  23   1
M  END
$$$$

  -OEChem-05262214473D

 50 50  0     1  0  0  0  0  0999 V2000
   -1.6938    0.4865    3.8080 C   0  0  0  0  0  0  0  0  0  0  0  0
   -0.7464   -0.1282    3.3323 O   0  0  0  0  0  0  0  0  0  0  0  0
   -2.1257    0.2041    5.2087 C   0  0  0  0  0  0  0  0  0  0  0  0
   -2.8853   -0.5922    5.2621 H   0  0  0  0  0  0  0  0  0  0  0  0
   -1.2944   -0.1435    5.8430 H   0  0  0  0  0  0  0  0  0  0  0  0
   -2.5637    1.0590    5.7483 H   0  0  0  0  0  0  0  0  0  0  0  0
   -2.4435    1.4589    3.1669 N   0  0  0  0  0  0  0  0  0  0  0  0
   -2.1966    1.8850    1.8145 C   0  0  2  0  0  0  0  0  0  0  0  0
   -0.8617    1.2996    1.3733 C   0  0  0  0  0  0  0  0  0  0  0  0
    0.0104    0.9468    2.1646 O   0  0  0  0  0  0  0  0  0  0  0  0
   -2.1879    3.4017    1.7050 C   0  0  0  0  0  0  0  0  0  0  0  0
   -3.2085    1.8948    3.6787 H   0  0  0  0  0  0  0  0  0  0  0  0
   -3.0007    1.4665    1.1994 H   0  0  0  0  0  0  0  0  0  0  0  0
   -1.3888    3.8390    2.3147 H   0  0  0  0  0  0  0  0  0  0  0  0
   -2.0284    3.7240    0.6708 H   0  0  0  0  0  0  0  0  0  0  0  0
   -3.1380    3.8230    2.0508 H   0  0  0  0  0  0  0  0  0  0  0  0
   -0.7390    1.2565   -0.0101 N   0  0  0  0  0  0  0  0  0  0  0  0
    0.4383    0.7557   -0.6738 C   0  0  2  0  0  0  0  0  0  0  0  0
   -0.0329   -0.1549   -1.8020 C   0  0  0  0  0  0  0  0  0  0  0  0
   -0.9195    0.1626   -2.5920 O   0  0  0  0  0  0  0  0  0  0  0  0
    1.3590   -0.0123    0.2816 C   0  0  0  0  0  0  0  0  0  0  0  0
    1.9249    0.8610    1.3747 C   0  0  0  0  0  0  0  0  0  0  0  0
    2.9319    1.7642    1.1338 N   0  3  0  0  0  0  0  0  0  0  0  0
    1.6198    0.9571    2.7031 C   0  0  0  0  0  0  0  0  0  0  0  0
    3.2427    2.3986    2.2688 C   0  0  0  0  0  0  0  0  0  0  0  0
    2.4506    1.9155    3.2315 N   0  0  0  0  0  0  0  0  0  0  0  0
   -1.5221    1.5532   -0.5874 H   0  0  0  0  0  0  0  0  0  0  0  0
    0.9483    1.6257   -1.1040 H   0  0  0  0  0  0  0  0  0  0  0  0
    2.1793   -0.4831   -0.2770 H   0  0  0  0  0  0  0  0  0  0  0  0
    0.8167   -0.8434    0.7516 H   0  0  0  0  0  0  0  0  0  0  0  0
    3.3759    1.9277    0.2343 H   0  0  0  0  0  0  0  0  0  0  0  0
    0.9274    0.4818    3.3690 H   0  0  0  0  0  0  0  0  0  0  0  0
    3.9953    3.1602    2.3864 H   0  0  0  0  0  0  0  0  0  0  0  0
    2.4638    2.2125    4.2031 H   0  0  0  0  0  0  0  0  0  0  0  0
    0.6888   -1.3395   -1.8495 N   0  0  0  0  0  0  0  0  0  0  0  0
    0.4602   -2.3690   -2.8378 C   0  0  2  0  0  0  0  0  0  0  0  0
   -1.0327   -2.6689   -2.8677 C   0  0  0  0  0  0  0  0  0  0  0  0
   -1.7849   -2.4248   -1.9266 O   0  0  0  0  0  0  0  0  0  0  0  0
    1.2606   -3.6237   -2.5251 C   0  0  0  0  0  0  0  0  0  0  0  0
    1.4143   -1.4904   -1.1547 H   0  0  0  0  0  0  0  0  0  0  0  0
    0.7695   -1.9546   -3.8035 H   0  0  0  0  0  0  0  0  0  0  0  0
    0.9646   -4.0532   -1.5610 H   0  0  0  0  0  0  0  0  0  0  0  0
    1.1084   -4.3923   -3.2900 H   0  0  0  0  0  0  0  0  0  0  0  0
    2.3317   -3.4002   -2.4745 H   0  0  0  0  0  0  0  0  0  0  0  0
   -1.4184   -3.2807   -4.0522 N   0  0  0  0  0  0  0  0  0  0  0  0
   -2.7820   -3.6762   -4.3174 C   0  0  0  0  0  0  0  0  0  0  0  0
   -0.7312   -3.4276   -4.7856 H   0  0  0  0  0  0  0  0  0  0  0  0
   -2.9279   -4.7215   -4.0076 H   0  0  0  0  0  0  0  0  0  0  0  0
   -3.4681   -3.0275   -3.7531 H   0  0  0  0  0  0  0  0  0  0  0  0
   -2.9887   -3.5806   -5.3935 H   0  0  0  0  0  0  0  0  0  0  0  0
 22 24  2  0  0  0  0
 24 26  1  0  0  0  0
 25 26  1  0  0  0  0
 23 25  2  0  0  0  0
 21 22  1  0  0  0  0
 22 23  1  0  0  0  0
  1  3  1  0  0  0  0
  1  7  1  0  0  0  0
  1  2  2  0  0  0  0
 36 37  1  0  0  0  0
 37 45  1  0  0  0  0
 37 38  2  0  0  0  0
  8  9  1  0  0  0  0
  9 17  1  0  0  0  0
  9 10  2  0  0  0  0
 18 19  1  0  0  0  0
 19 35  1  0  0  0  0
 19 20  2  0  0  0  0
 36 39  1  0  0  0  0
  8 11  1  0  0  0  0
 45 46  1  0  0  0  0
 18 21  1  0  0  0  0
 35 36  1  0  0  0  0
  7  8  1  0  0  0  0
 17 18  1  0  0  0  0
 24 32  1  0  0  0  0
 25 33  1  0  0  0  0
  3  4  1  0  0  0  0
  3  5  1  0  0  0  0
  3  6  1  0  0  0  0
 39 42  1  0  0  0  0
 39 43  1  0  0  0  0
 39 44  1  0  0  0  0
 11 14  1  0  0  0  0
 11 15  1  0  0  0  0
 11 16  1  0  0  0  0
 46 48  1  0  0  0  0
 46 49  1  0  0  0  0
 46 50  1  0  0  0  0
 21 29  1  0  0  0  0
 21 30  1  0  0  0  0
 36 41  1  0  0  0  0
  8 13  1  0  0  0  0
 18 28  1  0  0  0  0
 26 34  1  0  0  0  0
 23 31  1  0  0  0  0
 45 47  1  0  0  0  0
  7 12  1  0  0  0  0
 35 40  1  0  0  0  0
 17 27  1  0  0  0  0
M  CHG  1  23   1
M  END
$$$$

  -OEChem-05262214473D

 50 50  0     1  0  0  0  0  0999 V2000
   -1.6938    0.4865    3.8080 C   0  0  0  0  0  0  0  0  0  0  0  0
   -0.7464   -0.1282    3.3323 O   0  0  0  0  0  0  0  0  0  0  0  0
   -2.1257    0.2041    5.2087 C   0  0  0  0  0  0  0  0  0  0  0  0
   -2.8853   -0.5922    5.2621 H   0  0  0  0  0  0  0  0  0  0  0  0
   -1.2944   -0.1435    5.8430 H   0  0  0  0  0  0  0  0  0  0  0  0
   -2.5637    1.0590    5.7483 H   0  0  0  0  0  0  0  0  0  0  0  0
   -2.4435    1.4589    3.1669 N   0  0  0  0  0  0  0  0  0  0  0  0
   -2.1966    1.8850    1.8145 C   0  0  2  0  0  0  0  0  0  0  0  0
   -0.8617    1.2996    1.3733 C   0  0  0  0  0  0  0  0  0  0  0  0
    0.0104    0.9468    2.1646 O   0  0  0  0  0  0  0  0  0  0  0  0
   -2.1879    3.4017    1.7050 C   0  0  0  0  0  0  0  0  0  0  0  0
   -3.2085    1.8948    3.6787 H   0  0  0  0  0  0  0  0  0  0  0  0
   -3.0007    1.4665    1.1994 H   0  0  0  0  0  0  0  0  0  0  0  0
   -1.3888    3.8390    2.3147 H   0  0  0  0  0  0  0  0  0  0  0  0
   -2.0284    3.7240    0.6708 H   0  0  0  0  0  0  0  0  0  0  0  0
   -3.1380    3.8230    2.0508 H   0  0  0  0  0  0  0  0  0  0  0  0
   -0.7390    1.2565   -0.0101 N   0  0  0  0  0  0  0  0  0  0  0  0
    0.4383    0.7557   -0.6738 C   0  0  2  0  0  0  0  0  0  0  0  0
   -0.0329   -0.1549   -1.8020 C   0  0  0  0  0  0  0  0  0  0  0  0
   -0.7134    0.2447   -2.7445 O   0  0  0  0  0  0  0  0  0  0  0  0
    1.3590   -0.0123    0.2816 C   0  0  0  0  0  0  0  0  0  0  0  0
    1.9249    0.8610    1.3747 C   0  0  0  0  0  0  0  0  0  0  0  0
    2.9319    1.7642    1.1338 N   0  3  0  0  0  0  0  0  0  0  0  0
    1.6198    0.9571    2.7031 C   0  0  0  0  0  0  0  0  0  0  0  0
    3.2427    2.3986    2.2688 C   0  0  0  0  0  0  0  0  0  0  0  0
    2.4506    1.9155    3.2315 N   0  0  0  0  0  0  0  0  0  0  0  0
   -1.5221    1.5532   -0.5874 H   0  0  0  0  0  0  0  0  0  0  0  0
    0.9483    1.6257   -1.1040 H   0  0  0  0  0  0  0  0  0  0  0  0
    2.1793   -0.4831   -0.2770 H   0  0  0  0  0  0  0  0  0  0  0  0
    0.8167   -0.8434    0.7516 H   0  0  0  0  0  0  0  0  0  0  0  0
    3.3759    1.9277    0.2343 H   0  0  0  0  0  0  0  0  0  0  0  0
    0.9274    0.4818    3.3690 H   0  0  0  0  0  0  0  0  0  0  0  0
    3.9953    3.1602    2.3864 H   0  0  0  0  0  0  0  0  0  0  0  0
    2.4638    2.2125    4.2031 H   0  0  0  0  0  0  0  0  0  0  0  0
    0.4392   -1.4517   -1.6547 N   0  0  0  0  0  0  0  0  0  0  0  0
    0.1590   -2.5102   -2.5980 C   0  0  2  0  0  0  0  0  0  0  0  0
   -1.3428   -2.5299   -2.8504 C   0  0  0  0  0  0  0  0  0  0  0  0
   -2.1617   -2.0624   -2.0618 O   0  0  0  0  0  0  0  0  0  0  0  0
    0.6406   -3.8560   -2.0786 C   0  0  0  0  0  0  0  0  0  0  0  0
    1.0104   -1.6677   -0.8430 H   0  0  0  0  0  0  0  0  0  0  0  0
    0.6825   -2.2540   -3.5255 H   0  0  0  0  0  0  0  0  0  0  0  0
    0.1272   -4.1296   -1.1496 H   0  0  0  0  0  0  0  0  0  0  0  0
    0.4533   -4.6523   -2.8065 H   0  0  0  0  0  0  0  0  0  0  0  0
    1.7155   -3.8311   -1.8694 H   0  0  0  0  0  0  0  0  0  0  0  0
   -1.6638   -3.1695   -4.0395 N   0  0  0  0  0  0  0  0  0  0  0  0
   -3.0246   -3.3289   -4.4963 C   0  0  0  0  0  0  0  0  0  0  0  0
   -0.9191   -3.5101   -4.6405 H   0  0  0  0  0  0  0  0  0  0  0  0
   -3.4184   -4.2948   -4.1471 H   0  0  0  0  0  0  0  0  0  0  0  0
   -3.6441   -2.5136   -4.0943 H   0  0  0  0  0  0  0  0  0  0  0  0
   -3.0481   -3.2994   -5.5957 H   0  0  0  0  0  0  0  0  0  0  0  0
 22 24  2  0  0  0  0
 24 26  1  0  0  0  0
 25 26  1  0  0  0  0
 23 25  2  0  0  0  0
 21 22  1  0  0  0  0
 22 23  1  0  0  0  0
  1  3  1  0  0  0  0
  1  7  1  0  0  0  0
  1  2  2  0  0  0  0
 36 37  1  0  0  0  0
 37 45  1  0  0  0  0
 37 38  2  0  0  0  0
  8  9  1  0  0  0  0
  9 17  1  0  0  0  0
  9 10  2  0  0  0  0
 18 19  1  0  0  0  0
 19 35  1  0  0  0  0
 19 20  2  0  0  0  0
 36 39  1  0  0  0  0
  8 11  1  0  0  0  0
 45 46  1  0  0  0  0
 18 21  1  0  0  0  0
 35 36  1  0  0  0  0
  7  8  1  0  0  0  0
 17 18  1  0  0  0  0
 24 32  1  0  0  0  0
 25 33  1  0  0  0  0
  3  4  1  0  0  0  0
  3  5  1  0  0  0  0
  3  6  1  0  0  0  0
 39 42  1  0  0  0  0
 39 43  1  0  0  0  0
 39 44  1  0  0  0  0
 11 14  1  0  0  0  0
 11 15  1  0  0  0  0
 11 16  1  0  0  0  0
 46 48  1  0  0  0  0
 46 49  1  0  0  0  0
 46 50  1  0  0  0  0
 21 29  1  0  0  0  0
 21 30  1  0  0  0  0
 36 41  1  0  0  0  0
  8 13  1  0  0  0  0
 18 28  1  0  0  0  0
 26 34  1  0  0  0  0
 23 31  1  0  0  0  0
 45 47  1  0  0  0  0
  7 12  1  0  0  0  0
 35 40  1  0  0  0  0
 17 27  1  0  0  0  0
M  CHG  1  23   1
M  END
$$$$

  -OEChem-05262214473D

 50 50  0     1  0  0  0  0  0999 V2000
   -1.6938    0.4865    3.8080 C   0  0  0  0  0  0  0  0  0  0  0  0
   -0.7464   -0.1282    3.3323 O   0  0  0  0  0  0  0  0  0  0  0  0
   -2.1257    0.2041    5.2087 C   0  0  0  0  0  0  0  0  0  0  0  0
   -2.8853   -0.5922    5.2621 H   0  0  0  0  0  0  0  0  0  0  0  0
   -1.2944   -0.1435    5.8430 H   0  0  0  0  0  0  0  0  0  0  0  0
   -2.5637    1.0590    5.7483 H   0  0  0  0  0  0  0  0  0  0  0  0
   -2.4435    1.4589    3.1669 N   0  0  0  0  0  0  0  0  0  0  0  0
   -2.1966    1.8850    1.8145 C   0  0  2  0  0  0  0  0  0  0  0  0
   -0.8617    1.2996    1.3733 C   0  0  0  0  0  0  0  0  0  0  0  0
    0.0104    0.9468    2.1646 O   0  0  0  0  0  0  0  0  0  0  0  0
   -2.1879    3.4017    1.7050 C   0  0  0  0  0  0  0  0  0  0  0  0
   -3.2085    1.8948    3.6787 H   0  0  0  0  0  0  0  0  0  0  0  0
   -3.0007    1.4665    1.1994 H   0  0  0  0  0  0  0  0  0  0  0  0
   -1.3888    3.8390    2.3147 H   0  0  0  0  0  0  0  0  0  0  0  0
   -2.0284    3.7240    0.6708 H   0  0  0  0  0  0  0  0  0  0  0  0
   -3.1380    3.8230    2.0508 H   0  0  0  0  0  0  0  0  0  0  0  0
   -0.7390    1.2565   -0.0101 N   0  0  0  0  0  0  0  0  0  0  0  0
    0.4383    0.7557   -0.6738 C   0  0  2  0  0  0  0  0  0  0  0  0
   -0.0329   -0.1549   -1.8020 C   0  0  0  0  0  0  0  0  0  0  0  0
   -0.4750    0.2724   -2.8664 O   0  0  0  0  0  0  0  0  0  0  0  0
    1.3590   -0.0123    0.2816 C   0  0  0  0  0  0  0  0  0  0  0  0
    1.9249    0.8610    1.3747 C   0  0  0  0  0  0  0  0  0  0  0  0
    2.9319    1.7642    1.1338 N   0  3  0  0  0  0  0  0  0  0  0  0
    1.6198    0.9571    2.7031 C   0  0  0  0  0  0  0  0  0  0  0  0
    3.2427    2.3986    2.2688 C   0  0  0  0  0  0  0  0  0  0  0  0
    2.4506    1.9155    3.2315 N   0  0  0  0  0  0  0  0  0  0  0  0
   -1.5221    1.5532   -0.5874 H   0  0  0  0  0  0  0  0  0  0  0  0
    0.9483    1.6257   -1.1040 H   0  0  0  0  0  0  0  0  0  0  0  0
    2.1793   -0.4831   -0.2770 H   0  0  0  0  0  0  0  0  0  0  0  0
    0.8167   -0.8434    0.7516 H   0  0  0  0  0  0  0  0  0  0  0  0
    3.3759    1.9277    0.2343 H   0  0  0  0  0  0  0  0  0  0  0  0
    0.9274    0.4818    3.3690 H   0  0  0  0  0  0  0  0  0  0  0  0
    3.9953    3.1602    2.3864 H   0  0  0  0  0  0  0  0  0  0  0  0
    2.4638    2.2125    4.2031 H   0  0  0  0  0  0  0  0  0  0  0  0
    0.1465   -1.4968   -1.4960 N   0  0  0  0  0  0  0  0  0  0  0  0
   -0.1960   -2.5698   -2.4016 C   0  0  2  0  0  0  0  0  0  0  0  0
   -1.6184   -2.3349   -2.8927 C   0  0  0  0  0  0  0  0  0  0  0  0
   -2.4353   -1.6509   -2.2796 O   0  0  0  0  0  0  0  0  0  0  0  0
   -0.0718   -3.9260   -1.7246 C   0  0  0  0  0  0  0  0  0  0  0  0
    0.5382   -1.7367   -0.5901 H   0  0  0  0  0  0  0  0  0  0  0  0
    0.4982   -2.5044   -3.2464 H   0  0  0  0  0  0  0  0  0  0  0  0
   -0.7598   -4.0102   -0.8755 H   0  0  0  0  0  0  0  0  0  0  0  0
   -0.3040   -4.7393   -2.4200 H   0  0  0  0  0  0  0  0  0  0  0  0
    0.9442   -4.0808   -1.3457 H   0  0  0  0  0  0  0  0  0  0  0  0
   -1.8815   -3.0140   -4.0741 N   0  0  0  0  0  0  0  0  0  0  0  0
   -3.1649   -2.9612   -4.7345 C   0  0  0  0  0  0  0  0  0  0  0  0
   -1.1389   -3.5423   -4.5228 H   0  0  0  0  0  0  0  0  0  0  0  0
   -3.7888   -3.7998   -4.3919 H   0  0  0  0  0  0  0  0  0  0  0  0
   -3.6630   -2.0109   -4.4922 H   0  0  0  0  0  0  0  0  0  0  0  0
   -3.0204   -3.0325   -5.8226 H   0  0  0  0  0  0  0  0  0  0  0  0
 22 24  2  0  0  0  0
 24 26  1  0  0  0  0
 25 26  1  0  0  0  0
 23 25  2  0  0  0  0
 21 22  1  0  0  0  0
 22 23  1  0  0  0  0
  1  3  1  0  0  0  0
  1  7  1  0  0  0  0
  1  2  2  0  0  0  0
 36 37  1  0  0  0  0
 37 45  1  0  0  0  0
 37 38  2  0  0  0  0
  8  9  1  0  0  0  0
  9 17  1  0  0  0  0
  9 10  2  0  0  0  0
 18 19  1  0  0  0  0
 19 35  1  0  0  0  0
 19 20  2  0  0  0  0
 36 39  1  0  0  0  0
  8 11  1  0  0  0  0
 45 46  1  0  0  0  0
 18 21  1  0  0  0  0
 35 36  1  0  0  0  0
  7  8  1  0  0  0  0
 17 18  1  0  0  0  0
 24 32  1  0  0  0  0
 25 33  1  0  0  0  0
  3  4  1  0  0  0  0
  3  5  1  0  0  0  0
  3  6  1  0  0  0  0
 39 42  1  0  0  0  0
 39 43  1  0  0  0  0
 39 44  1  0  0  0  0
 11 14  1  0  0  0  0
 11 15  1  0  0  0  0
 11 16  1  0  0  0  0
 46 48  1  0  0  0  0
 46 49  1  0  0  0  0
 46 50  1  0  0  0  0
 21 29  1  0  0  0  0
 21 30  1  0  0  0  0
 36 41  1  0  0  0  0
  8 13  1  0  0  0  0
 18 28  1  0  0  0  0
 26 34  1  0  0  0  0
 23 31  1  0  0  0  0
 45 47  1  0  0  0  0
  7 12  1  0  0  0  0
 35 40  1  0  0  0  0
 17 27  1  0  0  0  0
M  CHG  1  23   1
M  END
$$$$

  -OEChem-05262214473D

 50 50  0     1  0  0  0  0  0999 V2000
   -1.6938    0.4865    3.8080 C   0  0  0  0  0  0  0  0  0  0  0  0
   -0.7464   -0.1282    3.3323 O   0  0  0  0  0  0  0  0  0  0  0  0
   -2.1257    0.2041    5.2087 C   0  0  0  0  0  0  0  0  0  0  0  0
   -2.8853   -0.5922    5.2621 H   0  0  0  0  0  0  0  0  0  0  0  0
   -1.2944   -0.1435    5.8430 H   0  0  0  0  0  0  0  0  0  0  0  0
   -2.5637    1.0590    5.7483 H   0  0  0  0  0  0  0  0  0  0  0  0
   -2.4435    1.4589    3.1669 N   0  0  0  0  0  0  0  0  0  0  0  0
   -2.1966    1.8850    1.8145 C   0  0  2  0  0  0  0  0  0  0  0  0
   -0.8617    1.2996    1.3733 C   0  0  0  0  0  0  0  0  0  0  0  0
    0.0104    0.9468    2.1646 O   0  0  0  0  0  0  0  0  0  0  0  0
   -2.1879    3.4017    1.7050 C   0  0  0  0  0  0  0  0  0  0  0  0
   -3.2085    1.8948    3.6787 H   0  0  0  0  0  0  0  0  0  0  0  0
   -3.0007    1.4665    1.1994 H   0  0  0  0  0  0  0  0  0  0  0  0
   -1.3888    3.8390    2.3147 H   0  0  0  0  0  0  0  0  0  0  0  0
   -2.0284    3.7240    0.6708 H   0  0  0  0  0  0  0  0  0  0  0  0
   -3.1380    3.8230    2.0508 H   0  0  0  0  0  0  0  0  0  0  0  0
   -0.7390    1.2565   -0.0101 N   0  0  0  0  0  0  0  0  0  0  0  0
    0.4383    0.7557   -0.6738 C   0  0  2  0  0  0  0  0  0  0  0  0
   -0.0329   -0.1549   -1.8020 C   0  0  0  0  0  0  0  0  0  0  0  0
   -0.2206    0.2438   -2.9495 O   0  0  0  0  0  0  0  0  0  0  0  0
    1.3590   -0.0123    0.2816 C   0  0  0  0  0  0  0  0  0  0  0  0
    1.9249    0.8610    1.3747 C   0  0  0  0  0  0  0  0  0  0  0  0
    2.9319    1.7642    1.1338 N   0  3  0  0  0  0  0  0  0  0  0  0
    1.6198    0.9571    2.7031 C   0  0  0  0  0  0  0  0  0  0  0  0
    3.2427    2.3986    2.2688 C   0  0  0  0  0  0  0  0  0  0  0  0
    2.4506    1.9155    3.2315 N   0  0  0  0  0  0  0  0  0  0  0  0
   -1.5221    1.5532   -0.5874 H   0  0  0  0  0  0  0  0  0  0  0  0
    0.9483    1.6257   -1.1040 H   0  0  0  0  0  0  0  0  0  0  0  0
    2.1793   -0.4831   -0.2770 H   0  0  0  0  0  0  0  0  0  0  0  0
    0.8167   -0.8434    0.7516 H   0  0  0  0  0  0  0  0  0  0  0  0
    3.3759    1.9277    0.2343 H   0  0  0  0  0  0  0  0  0  0  0  0
    0.9274    0.4818    3.3690 H   0  0  0  0  0  0  0  0  0  0  0  0
    3.9953    3.1602    2.3864 H   0  0  0  0  0  0  0  0  0  0  0  0
    2.4638    2.2125    4.2031 H   0  0  0  0  0  0  0  0  0  0  0  0
   -0.1695   -1.4715   -1.3845 N   0  0  0  0  0  0  0  0  0  0  0  0
   -0.5808   -2.5437   -2.2620 C   0  0  2  0  0  0  0  0  0  0  0  0
   -1.8407   -2.0971   -2.9917 C   0  0  0  0  0  0  0  0  0  0  0  0
   -2.5871   -1.2185   -2.5652 O   0  0  0  0  0  0  0  0  0  0  0  0
   -0.8280   -3.8287   -1.4872 C   0  0  0  0  0  0  0  0  0  0  0  0
    0.0298   -1.6926   -0.4133 H   0  0  0  0  0  0  0  0  0  0  0  0
    0.2290   -2.6886   -2.9854 H   0  0  0  0  0  0  0  0  0  0  0  0
   -1.6361   -3.7029   -0.7574 H   0  0  0  0  0  0  0  0  0  0  0  0
   -1.1118   -4.6474   -2.1568 H   0  0  0  0  0  0  0  0  0  0  0  0
    0.0704   -4.1324   -0.9391 H   0  0  0  0  0  0  0  0  0  0  0  0
   -2.0566   -2.8249   -4.1536 N   0  0  0  0  0  0  0  0  0  0  0  0
   -3.1931   -2.5983   -5.0156 C   0  0  0  0  0  0  0  0  0  0  0  0
   -1.3756   -3.5218   -4.4404 H   0  0  0  0  0  0  0  0  0  0  0  0
   -4.0140   -3.2704   -4.7251 H   0  0  0  0  0  0  0  0  0  0  0  0
   -3.5234   -1.5535   -4.9197 H   0  0  0  0  0  0  0  0  0  0  0  0
   -2.9074   -2.7982   -6.0589 H   0  0  0  0  0  0  0  0  0  0  0  0
 22 24  2  0  0  0  0
 24 26  1  0  0  0  0
 25 26  1  0  0  0  0
 23 25  2  0  0  0  0
 21 22  1  0  0  0  0
 22 23  1  0  0  0  0
  1  3  1  0  0  0  0
  1  7  1  0  0  0  0
  1  2  2  0  0  0  0
 36 37  1  0  0  0  0
 37 45  1  0  0  0  0
 37 38  2  0  0  0  0
  8  9  1  0  0  0  0
  9 17  1  0  0  0  0
  9 10  2  0  0  0  0
 18 19  1  0  0  0  0
 19 35  1  0  0  0  0
 19 20  2  0  0  0  0
 36 39  1  0  0  0  0
  8 11  1  0  0  0  0
 45 46  1  0  0  0  0
 18 21  1  0  0  0  0
 35 36  1  0  0  0  0
  7  8  1  0  0  0  0
 17 18  1  0  0  0  0
 24 32  1  0  0  0  0
 25 33  1  0  0  0  0
  3  4  1  0  0  0  0
  3  5  1  0  0  0  0
  3  6  1  0  0  0  0
 39 42  1  0  0  0  0
 39 43  1  0  0  0  0
 39 44  1  0  0  0  0
 11 14  1  0  0  0  0
 11 15  1  0  0  0  0
 11 16  1  0  0  0  0
 46 48  1  0  0  0  0
 46 49  1  0  0  0  0
 46 50  1  0  0  0  0
 21 29  1  0  0  0  0
 21 30  1  0  0  0  0
 36 41  1  0  0  0  0
  8 13  1  0  0  0  0
 18 28  1  0  0  0  0
 26 34  1  0  0  0  0
 23 31  1  0  0  0  0
 45 47  1  0  0  0  0
  7 12  1  0  0  0  0
 35 40  1  0  0  0  0
 17 27  1  0  0  0  0
M  CHG  1  23   1
M  END
$$$$

  -OEChem-05262214473D

 50 50  0     1  0  0  0  0  0999 V2000
   -1.6938    0.4865    3.8080 C   0  0  0  0  0  0  0  0  0  0  0  0
   -0.7464   -0.1282    3.3323 O   0  0  0  0  0  0  0  0  0  0  0  0
   -2.1257    0.2041    5.2087 C   0  0  0  0  0  0  0  0  0  0  0  0
   -2.8853   -0.5922    5.2621 H   0  0  0  0  0  0  0  0  0  0  0  0
   -1.2944   -0.1435    5.8430 H   0  0  0  0  0  0  0  0  0  0  0  0
   -2.5637    1.0590    5.7483 H   0  0  0  0  0  0  0  0  0  0  0  0
   -2.4435    1.4589    3.1669 N   0  0  0  0  0  0  0  0  0  0  0  0
   -2.1966    1.8850    1.8145 C   0  0  2  0  0  0  0  0  0  0  0  0
   -0.8617    1.2996    1.3733 C   0  0  0  0  0  0  0  0  0  0  0  0
    0.0104    0.9468    2.1646 O   0  0  0  0  0  0  0  0  0  0  0  0
   -2.1879    3.4017    1.7050 C   0  0  0  0  0  0  0  0  0  0  0  0
   -3.2085    1.8948    3.6787 H   0  0  0  0  0  0  0  0  0  0  0  0
   -3.0007    1.4665    1.1994 H   0  0  0  0  0  0  0  0  0  0  0  0
   -1.3888    3.8390    2.3147 H   0  0  0  0  0  0  0  0  0  0  0  0
   -2.0284    3.7240    0.6708 H   0  0  0  0  0  0  0  0  0  0  0  0
   -3.1380    3.8230    2.0508 H   0  0  0  0  0  0  0  0  0  0  0  0
   -0.7390    1.2565   -0.0101 N   0  0  0  0  0  0  0  0  0  0  0  0
    0.4383    0.7557   -0.6738 C   0  0  2  0  0  0  0  0  0  0  0  0
   -0.0329   -0.1549   -1.8020 C   0  0  0  0  0  0  0  0  0  0  0  0
    0.0325    0.1607   -2.9882 O   0  0  0  0  0  0  0  0  0  0  0  0
    1.3590   -0.0123    0.2816 C   0  0  0  0  0  0  0  0  0  0  0  0
    1.9249    0.8610    1.3747 C   0  0  0  0  0  0  0  0  0  0  0  0
    2.9319    1.7642    1.1338 N   0  3  0  0  0  0  0  0  0  0  0  0
    1.6198    0.9571    2.7031 C   0  0  0  0  0  0  0  0  0  0  0  0
    3.2427    2.3986    2.2688 C   0  0  0  0  0  0  0  0  0  0  0  0
    2.4506    1.9155    3.2315 N   0  0  0  0  0  0  0  0  0  0  0  0
   -1.5221    1.5532   -0.5874 H   0  0  0  0  0  0  0  0  0  0  0  0
    0.9483    1.6257   -1.1040 H   0  0  0  0  0  0  0  0  0  0  0  0
    2.1793   -0.4831   -0.2770 H   0  0  0  0  0  0  0  0  0  0  0  0
    0.8167   -0.8434    0.7516 H   0  0  0  0  0  0  0  0  0  0  0  0
    3.3759    1.9277    0.2343 H   0  0  0  0  0  0  0  0  0  0  0  0
    0.9274    0.4818    3.3690 H   0  0  0  0  0  0  0  0  0  0  0  0
    3.9953    3.1602    2.3864 H   0  0  0  0  0  0  0  0  0  0  0  0
    2.4638    2.2125    4.2031 H   0  0  0  0  0  0  0  0  0  0  0  0
   -0.4870   -1.3777   -1.3276 N   0  0  0  0  0  0  0  0  0  0  0  0
   -0.9690   -2.4336   -2.1887 C   0  0  2  0  0  0  0  0  0  0  0  0
   -1.9946   -1.8327   -3.1408 C   0  0  0  0  0  0  0  0  0  0  0  0
   -2.6068   -0.7945   -2.8991 O   0  0  0  0  0  0  0  0  0  0  0  0
   -1.5765   -3.5710   -1.3826 C   0  0  0  0  0  0  0  0  0  0  0  0
   -0.4802   -1.5385   -0.3247 H   0  0  0  0  0  0  0  0  0  0  0  0
   -0.1066   -2.7941   -2.7600 H   0  0  0  0  0  0  0  0  0  0  0  0
   -2.4420   -3.2289   -0.8035 H   0  0  0  0  0  0  0  0  0  0  0  0
   -1.9153   -4.3828   -2.0348 H   0  0  0  0  0  0  0  0  0  0  0  0
   -0.8463   -3.9823   -0.6773 H   0  0  0  0  0  0  0  0  0  0  0  0
   -2.1773   -2.6150   -4.2725 N   0  0  0  0  0  0  0  0  0  0  0  0
   -3.1073   -2.2648   -5.3205 C   0  0  0  0  0  0  0  0  0  0  0  0
   -1.6130   -3.4501   -4.3991 H   0  0  0  0  0  0  0  0  0  0  0  0
   -4.0786   -2.7425   -5.1242 H   0  0  0  0  0  0  0  0  0  0  0  0
   -3.2348   -1.1726   -5.3476 H   0  0  0  0  0  0  0  0  0  0  0  0
   -2.7169   -2.6125   -6.2884 H   0  0  0  0  0  0  0  0  0  0  0  0
 22 24  2  0  0  0  0
 24 26  1  0  0  0  0
 25 26  1  0  0  0  0
 23 25  2  0  0  0  0
 21 22  1  0  0  0  0
 22 23  1  0  0  0  0
  1  3  1  0  0  0  0
  1  7  1  0  0  0  0
  1  2  2  0  0  0  0
 36 37  1  0  0  0  0
 37 45  1  0  0  0  0
 37 38  2  0  0  0  0
  8  9  1  0  0  0  0
  9 17  1  0  0  0  0
  9 10  2  0  0  0  0
 18 19  1  0  0  0  0
 19 35  1  0  0  0  0
 19 20  2  0  0  0  0
 36 39  1  0  0  0  0
  8 11  1  0  0  0  0
 45 46  1  0  0  0  0
 18 21  1  0  0  0  0
 35 36  1  0  0  0  0
  7  8  1  0  0  0  0
 17 18  1  0  0  0  0
 24 32  1  0  0  0  0
 25 33  1  0  0  0  0
  3  4  1  0  0  0  0
  3  5  1  0  0  0  0
  3  6  1  0  0  0  0
 39 42  1  0  0  0  0
 39 43  1  0  0  0  0
 39 44  1  0  0  0  0
 11 14  1  0  0  0  0
 11 15  1  0  0  0  0
 11 16  1  0  0  0  0
 46 48  1  0  0  0  0
 46 49  1  0  0  0  0
 46 50  1  0  0  0  0
 21 29  1  0  0  0  0
 21 30  1  0  0  0  0
 36 41  1  0  0  0  0
  8 13  1  0  0  0  0
 18 28  1  0  0  0  0
 26 34  1  0  0  0  0
 23 31  1  0  0  0  0
 45 47  1  0  0  0  0
  7 12  1  0  0  0  0
 35 40  1  0  0  0  0
 17 27  1  0  0  0  0
M  CHG  1  23   1
M  END
$$$$

  -OEChem-05262214473D

 50 50  0     1  0  0  0  0  0999 V2000
   -1.6938    0.4865    3.8080 C   0  0  0  0  0  0  0  0  0  0  0  0
   -0.7464   -0.1282    3.3323 O   0  0  0  0  0  0  0  0  0  0  0  0
   -2.1257    0.2041    5.2087 C   0  0  0  0  0  0  0  0  0  0  0  0
   -2.8853   -0.5922    5.2621 H   0  0  0  0  0  0  0  0  0  0  0  0
   -1.2944   -0.1435    5.8430 H   0  0  0  0  0  0  0  0  0  0  0  0
   -2.5637    1.0590    5.7483 H   0  0  0  0  0  0  0  0  0  0  0  0
   -2.4435    1.4589    3.1669 N   0  0  0  0  0  0  0  0  0  0  0  0
   -2.1966    1.8850    1.8145 C   0  0  2  0  0  0  0  0  0  0  0  0
   -0.8617    1.2996    1.3733 C   0  0  0  0  0  0  0  0  0  0  0  0
    0.0104    0.9468    2.1646 O   0  0  0  0  0  0  0  0  0  0  0  0
   -2.1879    3.4017    1.7050 C   0  0  0  0  0  0  0  0  0  0  0  0
   -3.2085    1.8948    3.6787 H   0  0  0  0  0  0  0  0  0  0  0  0
   -3.0007    1.4665    1.1994 H   0  0  0  0  0  0  0  0  0  0  0  0
   -1.3888    3.8390    2.3147 H   0  0  0  0  0  0  0  0  0  0  0  0
   -2.0284    3.7240    0.6708 H   0  0  0  0  0  0  0  0  0  0  0  0
   -3.1380    3.8230    2.0508 H   0  0  0  0  0  0  0  0  0  0  0  0
   -0.7390    1.2565   -0.0101 N   0  0  0  0  0  0  0  0  0  0  0  0
    0.4383    0.7557   -0.6738 C   0  0  2  0  0  0  0  0  0  0  0  0
   -0.0329   -0.1549   -1.8020 C   0  0  0  0  0  0  0  0  0  0  0  0
    0.2670    0.0289   -2.9798 O   0  0  0  0  0  0  0  0  0  0  0  0
    1.3590   -0.0123    0.2816 C   0  0  0  0  0  0  0  0  0  0  0  0
    1.9249    0.8610    1.3747 C   0  0  0  0  0  0  0  0  0  0  0  0
    2.9319    1.7642    1.1338 N   0  3  0  0  0  0  0  0  0  0  0  0
    1.6198    0.9571    2.7031 C   0  0  0  0  0  0  0  0  0  0  0  0
    3.2427    2.3986    2.2688 C   0  0  0  0  0  0  0  0  0  0  0  0
    2.4506    1.9155    3.2315 N   0  0  0  0  0  0  0  0  0  0  0  0
   -1.5221    1.5532   -0.5874 H   0  0  0  0  0  0  0  0  0  0  0  0
    0.9483    1.6257   -1.1040 H   0  0  0  0  0  0  0  0  0  0  0  0
    2.1793   -0.4831   -0.2770 H   0  0  0  0  0  0  0  0  0  0  0  0
    0.8167   -0.8434    0.7516 H   0  0  0  0  0  0  0  0  0  0  0  0
    3.3759    1.9277    0.2343 H   0  0  0  0  0  0  0  0  0  0  0  0
    0.9274    0.4818    3.3690 H   0  0  0  0  0  0  0  0  0  0  0  0
    3.9953    3.1602    2.3864 H   0  0  0  0  0  0  0  0  0  0  0  0
    2.4638    2.2125    4.2031 H   0  0  0  0  0  0  0  0  0  0  0  0
   -0.7846   -1.2216   -1.3292 N   0  0  0  0  0  0  0  0  0  0  0  0
   -1.3342   -2.2470   -2.1867 C   0  0  2  0  0  0  0  0  0  0  0  0
   -2.0695   -1.5598   -3.3298 C   0  0  0  0  0  0  0  0  0  0  0  0
   -2.4930   -0.4080   -3.2586 O   0  0  0  0  0  0  0  0  0  0  0  0
   -2.2664   -3.1703   -1.4179 C   0  0  0  0  0  0  0  0  0  0  0  0
   -0.9571   -1.2849   -0.3302 H   0  0  0  0  0  0  0  0  0  0  0  0
   -0.4859   -2.8137   -2.5858 H   0  0  0  0  0  0  0  0  0  0  0  0
   -3.1225   -2.6203   -1.0104 H   0  0  0  0  0  0  0  0  0  0  0  0
   -2.6595   -3.9635   -2.0623 H   0  0  0  0  0  0  0  0  0  0  0  0
   -1.7435   -3.6408   -0.5782 H   0  0  0  0  0  0  0  0  0  0  0  0
   -2.2352   -2.3987   -4.4229 N   0  0  0  0  0  0  0  0  0  0  0  0
   -2.9135   -1.9835   -5.6285 C   0  0  0  0  0  0  0  0  0  0  0  0
   -1.8350   -3.3320   -4.4017 H   0  0  0  0  0  0  0  0  0  0  0  0
   -3.9781   -2.2521   -5.5619 H   0  0  0  0  0  0  0  0  0  0  0  0
   -2.8170   -0.8942   -5.7468 H   0  0  0  0  0  0  0  0  0  0  0  0
   -2.4618   -2.4879   -6.4954 H   0  0  0  0  0  0  0  0  0  0  0  0
 22 24  2  0  0  0  0
 24 26  1  0  0  0  0
 25 26  1  0  0  0  0
 23 25  2  0  0  0  0
 21 22  1  0  0  0  0
 22 23  1  0  0  0  0
  1  3  1  0  0  0  0
  1  7  1  0  0  0  0
  1  2  2  0  0  0  0
 36 37  1  0  0  0  0
 37 45  1  0  0  0  0
 37 38  2  0  0  0  0
  8  9  1  0  0  0  0
  9 17  1  0  0  0  0
  9 10  2  0  0  0  0
 18 19  1  0  0  0  0
 19 35  1  0  0  0  0
 19 20  2  0  0  0  0
 36 39  1  0  0  0  0
  8 11  1  0  0  0  0
 45 46  1  0  0  0  0
 18 21  1  0  0  0  0
 35 36  1  0  0  0  0
  7  8  1  0  0  0  0
 17 18  1  0  0  0  0
 24 32  1  0  0  0  0
 25 33  1  0  0  0  0
  3  4  1  0  0  0  0
  3  5  1  0  0  0  0
  3  6  1  0  0  0  0
 39 42  1  0  0  0  0
 39 43  1  0  0  0  0
 39 44  1  0  0  0  0
 11 14  1  0  0  0  0
 11 15  1  0  0  0  0
 11 16  1  0  0  0  0
 46 48  1  0  0  0  0
 46 49  1  0  0  0  0
 46 50  1  0  0  0  0
 21 29  1  0  0  0  0
 21 30  1  0  0  0  0
 36 41  1  0  0  0  0
  8 13  1  0  0  0  0
 18 28  1  0  0  0  0
 26 34  1  0  0  0  0
 23 31  1  0  0  0  0
 45 47  1  0  0  0  0
  7 12  1  0  0  0  0
 35 40  1  0  0  0  0
 17 27  1  0  0  0  0
M  CHG  1  23   1
M  END
$$$$

  -OEChem-05262214473D

 50 50  0     1  0  0  0  0  0999 V2000
   -1.6938    0.4865    3.8080 C   0  0  0  0  0  0  0  0  0  0  0  0
   -0.7464   -0.1282    3.3323 O   0  0  0  0  0  0  0  0  0  0  0  0
   -2.1257    0.2041    5.2087 C   0  0  0  0  0  0  0  0  0  0  0  0
   -2.8853   -0.5922    5.2621 H   0  0  0  0  0  0  0  0  0  0  0  0
   -1.2944   -0.1435    5.8430 H   0  0  0  0  0  0  0  0  0  0  0  0
   -2.5637    1.0590    5.7483 H   0  0  0  0  0  0  0  0  0  0  0  0
   -2.4435    1.4589    3.1669 N   0  0  0  0  0  0  0  0  0  0  0  0
   -2.1966    1.8850    1.8145 C   0  0  2  0  0  0  0  0  0  0  0  0
   -0.8617    1.2996    1.3733 C   0  0  0  0  0  0  0  0  0  0  0  0
    0.0104    0.9468    2.1646 O   0  0  0  0  0  0  0  0  0  0  0  0
   -2.1879    3.4017    1.7050 C   0  0  0  0  0  0  0  0  0  0  0  0
   -3.2085    1.8948    3.6787 H   0  0  0  0  0  0  0  0  0  0  0  0
   -3.0007    1.4665    1.1994 H   0  0  0  0  0  0  0  0  0  0  0  0
   -1.3888    3.8390    2.3147 H   0  0  0  0  0  0  0  0  0  0  0  0
   -2.0284    3.7240    0.6708 H   0  0  0  0  0  0  0  0  0  0  0  0
   -3.1380    3.8230    2.0508 H   0  0  0  0  0  0  0  0  0  0  0  0
   -0.7390    1.2565   -0.0101 N   0  0  0  0  0  0  0  0  0  0  0  0
    0.4383    0.7557   -0.6738 C   0  0  2  0  0  0  0  0  0  0  0  0
   -0.0329   -0.1549   -1.8020 C   0  0  0  0  0  0  0  0  0  0  0  0
    0.4670   -0.1426   -2.9249 O   0  0  0  0  0  0  0  0  0  0  0  0
    1.3590   -0.0123    0.2816 C   0  0  0  0  0  0  0  0  0  0  0  0
    1.9249    0.8610    1.3747 C   0  0  0  0  0  0  0  0  0  0  0  0
    2.9319    1.7642    1.1338 N   0  3  0  0  0  0  0  0  0  0  0  0
    1.6198    0.9571    2.7031 C   0  0  0  0  0  0  0  0  0  0  0  0
    3.2427    2.3986    2.2688 C   0  0  0  0  0  0  0  0  0  0  0  0
    2.4506    1.9155    3.2315 N   0  0  0  0  0  0  0  0  0  0  0  0
   -1.5221    1.5532   -0.5874 H   0  0  0  0  0  0  0  0  0  0  0  0
    0.9483    1.6257   -1.1040 H   0  0  0  0  0  0  0  0  0  0  0  0
    2.1793   -0.4831   -0.2770 H   0  0  0  0  0  0  0  0  0  0  0  0
    0.8167   -0.8434    0.7516 H   0  0  0  0  0  0  0  0  0  0  0  0
    3.3759    1.9277    0.2343 H   0  0  0  0  0  0  0  0  0  0  0  0
    0.9274    0.4818    3.3690 H   0  0  0  0  0  0  0  0  0  0  0  0
    3.9953    3.1602    2.3864 H   0  0  0  0  0  0  0  0  0  0  0  0
    2.4638    2.2125    4.2031 H   0  0  0  0  0  0  0  0  0  0  0  0
   -1.0419   -1.0141   -1.3893 N   0  0  0  0  0  0  0  0  0  0  0  0
   -1.6515   -1.9967   -2.2562 C   0  0  2  0  0  0  0  0  0  0  0  0
   -2.0604   -1.2970   -3.5457 C   0  0  0  0  0  0  0  0  0  0  0  0
   -2.2534   -0.0852   -3.6192 O   0  0  0  0  0  0  0  0  0  0  0  0
   -2.8505   -2.6539   -1.5906 C   0  0  0  0  0  0  0  0  0  0  0  0
   -1.3682   -0.9490   -0.4296 H   0  0  0  0  0  0  0  0  0  0  0  0
   -0.8828   -2.7460   -2.4746 H   0  0  0  0  0  0  0  0  0  0  0  0
   -3.6312   -1.9186   -1.3642 H   0  0  0  0  0  0  0  0  0  0  0  0
   -3.2939   -3.4182   -2.2374 H   0  0  0  0  0  0  0  0  0  0  0  0
   -2.5601   -3.1312   -0.6484 H   0  0  0  0  0  0  0  0  0  0  0  0
   -2.2265   -2.1907   -4.5944 N   0  0  0  0  0  0  0  0  0  0  0  0
   -2.6248   -1.7736   -5.9186 C   0  0  0  0  0  0  0  0  0  0  0  0
   -2.0264   -3.1757   -4.4479 H   0  0  0  0  0  0  0  0  0  0  0  0
   -3.7195   -1.8327   -6.0084 H   0  0  0  0  0  0  0  0  0  0  0  0
   -2.2984   -0.7372   -6.0901 H   0  0  0  0  0  0  0  0  0  0  0  0
   -2.1595   -2.4330   -6.6660 H   0  0  0  0  0  0  0  0  0  0  0  0
 22 24  2  0  0  0  0
 24 26  1  0  0  0  0
 25 26  1  0  0  0  0
 23 25  2  0  0  0  0
 21 22  1  0  0  0  0
 22 23  1  0  0  0  0
  1  3  1  0  0  0  0
  1  7  1  0  0  0  0
  1  2  2  0  0  0  0
 36 37  1  0  0  0  0
 37 45  1  0  0  0  0
 37 38  2  0  0  0  0
  8  9  1  0  0  0  0
  9 17  1  0  0  0  0
  9 10  2  0  0  0  0
 18 19  1  0  0  0  0
 19 35  1  0  0  0  0
 19 20  2  0  0  0  0
 36 39  1  0  0  0  0
  8 11  1  0  0  0  0
 45 46  1  0  0  0  0
 18 21  1  0  0  0  0
 35 36  1  0  0  0  0
  7  8  1  0  0  0  0
 17 18  1  0  0  0  0
 24 32  1  0  0  0  0
 25 33  1  0  0  0  0
  3  4  1  0  0  0  0
  3  5  1  0  0  0  0
  3  6  1  0  0  0  0
 39 42  1  0  0  0  0
 39 43  1  0  0  0  0
 39 44  1  0  0  0  0
 11 14  1  0  0  0  0
 11 15  1  0  0  0  0
 11 16  1  0  0  0  0
 46 48  1  0  0  0  0
 46 49  1  0  0  0  0
 46 50  1  0  0  0  0
 21 29  1  0  0  0  0
 21 30  1  0  0  0  0
 36 41  1  0  0  0  0
  8 13  1  0  0  0  0
 18 28  1  0  0  0  0
 26 34  1  0  0  0  0
 23 31  1  0  0  0  0
 45 47  1  0  0  0  0
  7 12  1  0  0  0  0
 35 40  1  0  0  0  0
 17 27  1  0  0  0  0
M  CHG  1  23   1
M  END
$$$$

  -OEChem-05262214473D

 50 50  0     1  0  0  0  0  0999 V2000
   -1.6938    0.4865    3.8080 C   0  0  0  0  0  0  0  0  0  0  0  0
   -0.7464   -0.1282    3.3323 O   0  0  0  0  0  0  0  0  0  0  0  0
   -2.1257    0.2041    5.2087 C   0  0  0  0  0  0  0  0  0  0  0  0
   -2.8853   -0.5922    5.2621 H   0  0  0  0  0  0  0  0  0  0  0  0
   -1.2944   -0.1435    5.8430 H   0  0  0  0  0  0  0  0  0  0  0  0
   -2.5637    1.0590    5.7483 H   0  0  0  0  0  0  0  0  0  0  0  0
   -2.4435    1.4589    3.1669 N   0  0  0  0  0  0  0  0  0  0  0  0
   -2.1966    1.8850    1.8145 C   0  0  2  0  0  0  0  0  0  0  0  0
   -0.8617    1.2996    1.3733 C   0  0  0  0  0  0  0  0  0  0  0  0
    0.0104    0.9468    2.1646 O   0  0  0  0  0  0  0  0  0  0  0  0
   -2.1879    3.4017    1.7050 C   0  0  0  0  0  0  0  0  0  0  0  0
   -3.2085    1.8948    3.6787 H   0  0  0  0  0  0  0  0  0  0  0  0
   -3.0007    1.4665    1.1994 H   0  0  0  0  0  0  0  0  0  0  0  0
   -1.3888    3.8390    2.3147 H   0  0  0  0  0  0  0  0  0  0  0  0
   -2.0284    3.7240    0.6708 H   0  0  0  0  0  0  0  0  0  0  0  0
   -3.1380    3.8230    2.0508 H   0  0  0  0  0  0  0  0  0  0  0  0
   -0.7390    1.2565   -0.0101 N   0  0  0  0  0  0  0  0  0  0  0  0
    0.4383    0.7557   -0.6738 C   0  0  2  0  0  0  0  0  0  0  0  0
   -0.0329   -0.1549   -1.8020 C   0  0  0  0  0  0  0  0  0  0  0  0
    0.6189   -0.3423   -2.8272 O   0  0  0  0  0  0  0  0  0  0  0  0
    1.3590   -0.0123    0.2816 C   0  0  0  0  0  0  0  0  0  0  0  0
    1.9249    0.8610    1.3747 C   0  0  0  0  0  0  0  0  0  0  0  0
    2.9319    1.7642    1.1338 N   0  3  0  0  0  0  0  0  0  0  0  0
    1.6198    0.9571    2.7031 C   0  0  0  0  0  0  0  0  0  0  0  0
    3.2427    2.3986    2.2688 C   0  0  0  0  0  0  0  0  0  0  0  0
    2.4506    1.9155    3.2315 N   0  0  0  0  0  0  0  0  0  0  0  0
   -1.5221    1.5532   -0.5874 H   0  0  0  0  0  0  0  0  0  0  0  0
    0.9483    1.6257   -1.1040 H   0  0  0  0  0  0  0  0  0  0  0  0
    2.1793   -0.4831   -0.2770 H   0  0  0  0  0  0  0  0  0  0  0  0
    0.8167   -0.8434    0.7516 H   0  0  0  0  0  0  0  0  0  0  0  0
    3.3759    1.9277    0.2343 H   0  0  0  0  0  0  0  0  0  0  0  0
    0.9274    0.4818    3.3690 H   0  0  0  0  0  0  0  0  0  0  0  0
    3.9953    3.1602    2.3864 H   0  0  0  0  0  0  0  0  0  0  0  0
    2.4638    2.2125    4.2031 H   0  0  0  0  0  0  0  0  0  0  0  0
   -1.2413   -0.7691   -1.5037 N   0  0  0  0  0  0  0  0  0  0  0  0
   -1.8993   -1.6996   -2.3925 C   0  0  2  0  0  0  0  0  0  0  0  0
   -1.9679   -1.0621   -3.7739 C   0  0  0  0  0  0  0  0  0  0  0  0
   -1.9045    0.1519   -3.9563 O   0  0  0  0  0  0  0  0  0  0  0  0
   -3.2891   -2.0571   -1.8891 C   0  0  0  0  0  0  0  0  0  0  0  0
   -1.6856   -0.5537   -0.6160 H   0  0  0  0  0  0  0  0  0  0  0  0
   -1.2705   -2.5957   -2.4340 H   0  0  0  0  0  0  0  0  0  0  0  0
   -3.9335   -1.1718   -1.8407 H   0  0  0  0  0  0  0  0  0  0  0  0
   -3.7750   -2.7840   -2.5483 H   0  0  0  0  0  0  0  0  0  0  0  0
   -3.2404   -2.4881   -0.8833 H   0  0  0  0  0  0  0  0  0  0  0  0
   -2.1518   -2.0052   -4.7754 N   0  0  0  0  0  0  0  0  0  0  0  0
   -2.2609   -1.6493   -6.1709 C   0  0  0  0  0  0  0  0  0  0  0  0
   -2.1742   -2.9917   -4.5347 H   0  0  0  0  0  0  0  0  0  0  0  0
   -3.3204   -1.5129   -6.4333 H   0  0  0  0  0  0  0  0  0  0  0  0
   -1.7143   -0.7124   -6.3540 H   0  0  0  0  0  0  0  0  0  0  0  0
   -1.8307   -2.4515   -6.7884 H   0  0  0  0  0  0  0  0  0  0  0  0
 22 24  2  0  0  0  0
 24 26  1  0  0  0  0
 25 26  1  0  0  0  0
 23 25  2  0  0  0  0
 21 22  1  0  0  0  0
 22 23  1  0  0  0  0
  1  3  1  0  0  0  0
  1  7  1  0  0  0  0
  1  2  2  0  0  0  0
 36 37  1  0  0  0  0
 37 45  1  0  0  0  0
 37 38  2  0  0  0  0
  8  9  1  0  0  0  0
  9 17  1  0  0  0  0
  9 10  2  0  0  0  0
 18 19  1  0  0  0  0
 19 35  1  0  0  0  0
 19 20  2  0  0  0  0
 36 39  1  0  0  0  0
  8 11  1  0  0  0  0
 45 46  1  0  0  0  0
 18 21  1  0  0  0  0
 35 36  1  0  0  0  0
  7  8  1  0  0  0  0
 17 18  1  0  0  0  0
 24 32  1  0  0  0  0
 25 33  1  0  0  0  0
  3  4  1  0  0  0  0
  3  5  1  0  0  0  0
  3  6  1  0  0  0  0
 39 42  1  0  0  0  0
 39 43  1  0  0  0  0
 39 44  1  0  0  0  0
 11 14  1  0  0  0  0
 11 15  1  0  0  0  0
 11 16  1  0  0  0  0
 46 48  1  0  0  0  0
 46 49  1  0  0  0  0
 46 50  1  0  0  0  0
 21 29  1  0  0  0  0
 21 30  1  0  0  0  0
 36 41  1  0  0  0  0
  8 13  1  0  0  0  0
 18 28  1  0  0  0  0
 26 34  1  0  0  0  0
 23 31  1  0  0  0  0
 45 47  1  0  0  0  0
  7 12  1  0  0  0  0
 35 40  1  0  0  0  0
 17 27  1  0  0  0  0
M  CHG  1  23   1
M  END
$$$$

  -OEChem-05262214473D

 50 50  0     1  0  0  0  0  0999 V2000
   -1.6938    0.4865    3.8080 C   0  0  0  0  0  0  0  0  0  0  0  0
   -0.7464   -0.1282    3.3323 O   0  0  0  0  0  0  0  0  0  0  0  0
   -2.1257    0.2041    5.2087 C   0  0  0  0  0  0  0  0  0  0  0  0
   -2.8853   -0.5922    5.2621 H   0  0  0  0  0  0  0  0  0  0  0  0
   -1.2944   -0.1435    5.8430 H   0  0  0  0  0  0  0  0  0  0  0  0
   -2.5637    1.0590    5.7483 H   0  0  0  0  0  0  0  0  0  0  0  0
   -2.4435    1.4589    3.1669 N   0  0  0  0  0  0  0  0  0  0  0  0
   -2.1966    1.8850    1.8145 C   0  0  2  0  0  0  0  0  0  0  0  0
   -0.8617    1.2996    1.3733 C   0  0  0  0  0  0  0  0  0  0  0  0
    0.0104    0.9468    2.1646 O   0  0  0  0  0  0  0  0  0  0  0  0
   -2.1879    3.4017    1.7050 C   0  0  0  0  0  0  0  0  0  0  0  0
   -3.2085    1.8948    3.6787 H   0  0  0  0  0  0  0  0  0  0  0  0
   -3.0007    1.4665    1.1994 H   0  0  0  0  0  0  0  0  0  0  0  0
   -1.3888    3.8390    2.3147 H   0  0  0  0  0  0  0  0  0  0  0  0
   -2.0284    3.7240    0.6708 H   0  0  0  0  0  0  0  0  0  0  0  0
   -3.1380    3.8230    2.0508 H   0  0  0  0  0  0  0  0  0  0  0  0
   -0.7390    1.2565   -0.0101 N   0  0  0  0  0  0  0  0  0  0  0  0
    0.4383    0.7557   -0.6738 C   0  0  2  0  0  0  0  0  0  0  0  0
   -0.0329   -0.1549   -1.8020 C   0  0  0  0  0  0  0  0  0  0  0  0
    0.7122   -0.5564   -2.6934 O   0  0  0  0  0  0  0  0  0  0  0  0
    1.3590   -0.0123    0.2816 C   0  0  0  0  0  0  0  0  0  0  0  0
    1.9249    0.8610    1.3747 C   0  0  0  0  0  0  0  0  0  0  0  0
    2.9319    1.7642    1.1338 N   0  3  0  0  0  0  0  0  0  0  0  0
    1.6198    0.9571    2.7031 C   0  0  0  0  0  0  0  0  0  0  0  0
    3.2427    2.3986    2.2688 C   0  0  0  0  0  0  0  0  0  0  0  0
    2.4506    1.9155    3.2315 N   0  0  0  0  0  0  0  0  0  0  0  0
   -1.5221    1.5532   -0.5874 H   0  0  0  0  0  0  0  0  0  0  0  0
    0.9483    1.6257   -1.1040 H   0  0  0  0  0  0  0  0  0  0  0  0
    2.1793   -0.4831   -0.2770 H   0  0  0  0  0  0  0  0  0  0  0  0
    0.8167   -0.8434    0.7516 H   0  0  0  0  0  0  0  0  0  0  0  0
    3.3759    1.9277    0.2343 H   0  0  0  0  0  0  0  0  0  0  0  0
    0.9274    0.4818    3.3690 H   0  0  0  0  0  0  0  0  0  0  0  0
    3.9953    3.1602    2.3864 H   0  0  0  0  0  0  0  0  0  0  0  0
    2.4638    2.2125    4.2031 H   0  0  0  0  0  0  0  0  0  0  0  0
   -1.3694   -0.5034   -1.6646 N   0  0  0  0  0  0  0  0  0  0  0  0
   -2.0607   -1.3762   -2.5861 C   0  0  2  0  0  0  0  0  0  0  0  0
   -1.7983   -0.8712   -3.9988 C   0  0  0  0  0  0  0  0  0  0  0  0
   -1.4699    0.2871   -4.2469 O   0  0  0  0  0  0  0  0  0  0  0  0
   -3.5523   -1.4205   -2.2930 C   0  0  0  0  0  0  0  0  0  0  0  0
   -1.8877   -0.1261   -0.8767 H   0  0  0  0  0  0  0  0  0  0  0  0
   -1.6225   -2.3730   -2.4667 H   0  0  0  0  0  0  0  0  0  0  0  0
   -4.0088   -0.4306   -2.4075 H   0  0  0  0  0  0  0  0  0  0  0  0
   -4.0703   -2.1040   -2.9737 H   0  0  0  0  0  0  0  0  0  0  0  0
   -3.7380   -1.7555   -1.2668 H   0  0  0  0  0  0  0  0  0  0  0  0
   -2.0161   -1.8547   -4.9534 N   0  0  0  0  0  0  0  0  0  0  0  0
   -1.8465   -1.6191   -6.3683 C   0  0  0  0  0  0  0  0  0  0  0  0
   -2.2683   -2.7927   -4.6560 H   0  0  0  0  0  0  0  0  0  0  0  0
   -2.8079   -1.3144   -6.8075 H   0  0  0  0  0  0  0  0  0  0  0  0
   -1.1046   -0.8214   -6.5207 H   0  0  0  0  0  0  0  0  0  0  0  0
   -1.4976   -2.5422   -6.8543 H   0  0  0  0  0  0  0  0  0  0  0  0
 22 24  2  0  0  0  0
 24 26  1  0  0  0  0
 25 26  1  0  0  0  0
 23 25  2  0  0  0  0
 21 22  1  0  0  0  0
 22 23  1  0  0  0  0
  1  3  1  0  0  0  0
  1  7  1  0  0  0  0
  1  2  2  0  0  0  0
 36 37  1  0  0  0  0
 37 45  1  0  0  0  0
 37 38  2  0  0  0  0
  8  9  1  0  0  0  0
  9 17  1  0  0  0  0
  9 10  2  0  0  0  0
 18 19  1  0  0  0  0
 19 35  1  0  0  0  0
 19 20  2  0  0  0  0
 36 39  1  0  0  0  0
  8 11  1  0  0  0  0
 45 46  1  0  0  0  0
 18 21  1  0  0  0  0
 35 36  1  0  0  0  0
  7  8  1  0  0  0  0
 17 18  1  0  0  0  0
 24 32  1  0  0  0  0
 25 33  1  0  0  0  0
  3  4  1  0  0  0  0
  3  5  1  0  0  0  0
  3  6  1  0  0  0  0
 39 42  1  0  0  0  0
 39 43  1  0  0  0  0
 39 44  1  0  0  0  0
 11 14  1  0  0  0  0
 11 15  1  0  0  0  0
 11 16  1  0  0  0  0
 46 48  1  0  0  0  0
 46 49  1  0  0  0  0
 46 50  1  0  0  0  0
 21 29  1  0  0  0  0
 21 30  1  0  0  0  0
 36 41  1  0  0  0  0
  8 13  1  0  0  0  0
 18 28  1  0  0  0  0
 26 34  1  0  0  0  0
 23 31  1  0  0  0  0
 45 47  1  0  0  0  0
  7 12  1  0  0  0  0
 35 40  1  0  0  0  0
 17 27  1  0  0  0  0
M  CHG  1  23   1
M  END
$$$$

  -OEChem-05262214473D

 50 50  0     1  0  0  0  0  0999 V2000
   -1.6938    0.4865    3.8080 C   0  0  0  0  0  0  0  0  0  0  0  0
   -0.7464   -0.1282    3.3323 O   0  0  0  0  0  0  0  0  0  0  0  0
   -2.1257    0.2041    5.2087 C   0  0  0  0  0  0  0  0  0  0  0  0
   -2.8853   -0.5922    5.2621 H   0  0  0  0  0  0  0  0  0  0  0  0
   -1.2944   -0.1435    5.8430 H   0  0  0  0  0  0  0  0  0  0  0  0
   -2.5637    1.0590    5.7483 H   0  0  0  0  0  0  0  0  0  0  0  0
   -2.4435    1.4589    3.1669 N   0  0  0  0  0  0  0  0  0  0  0  0
   -2.1966    1.8850    1.8145 C   0  0  2  0  0  0  0  0  0  0  0  0
   -0.8617    1.2996    1.3733 C   0  0  0  0  0  0  0  0  0  0  0  0
    0.0104    0.9468    2.1646 O   0  0  0  0  0  0  0  0  0  0  0  0
   -2.1879    3.4017    1.7050 C   0  0  0  0  0  0  0  0  0  0  0  0
   -3.2085    1.8948    3.6787 H   0  0  0  0  0  0  0  0  0  0  0  0
   -3.0007    1.4665    1.1994 H   0  0  0  0  0  0  0  0  0  0  0  0
   -1.3888    3.8390    2.3147 H   0  0  0  0  0  0  0  0  0  0  0  0
   -2.0284    3.7240    0.6708 H   0  0  0  0  0  0  0  0  0  0  0  0
   -3.1380    3.8230    2.0508 H   0  0  0  0  0  0  0  0  0  0  0  0
   -0.7390    1.2565   -0.0101 N   0  0  0  0  0  0  0  0  0  0  0  0
    0.4383    0.7557   -0.6738 C   0  0  2  0  0  0  0  0  0  0  0  0
   -0.0329   -0.1549   -1.8020 C   0  0  0  0  0  0  0  0  0  0  0  0
    0.7406   -0.7703   -2.5326 O   0  0  0  0  0  0  0  0  0  0  0  0
    1.3590   -0.0123    0.2816 C   0  0  0  0  0  0  0  0  0  0  0  0
    1.9249    0.8610    1.3747 C   0  0  0  0  0  0  0  0  0  0  0  0
    2.9319    1.7642    1.1338 N   0  3  0  0  0  0  0  0  0  0  0  0
    1.6198    0.9571    2.7031 C   0  0  0  0  0  0  0  0  0  0  0  0
    3.2427    2.3986    2.2688 C   0  0  0  0  0  0  0  0  0  0  0  0
    2.4506    1.9155    3.2315 N   0  0  0  0  0  0  0  0  0  0  0  0
   -1.5221    1.5532   -0.5874 H   0  0  0  0  0  0  0  0  0  0  0  0
    0.9483    1.6257   -1.1040 H   0  0  0  0  0  0  0  0  0  0  0  0
    2.1793   -0.4831   -0.2770 H   0  0  0  0  0  0  0  0  0  0  0  0
    0.8167   -0.8434    0.7516 H   0  0  0  0  0  0  0  0  0  0  0  0
    3.3759    1.9277    0.2343 H   0  0  0  0  0  0  0  0  0  0  0  0
    0.9274    0.4818    3.3690 H   0  0  0  0  0  0  0  0  0  0  0  0
    3.9953    3.1602    2.3864 H   0  0  0  0  0  0  0  0  0  0  0  0
    2.4638    2.2125    4.2031 H   0  0  0  0  0  0  0  0  0  0  0  0
   -1.4173   -0.2351   -1.8611 N   0  0  0  0  0  0  0  0  0  0  0  0
   -2.1247   -1.0483   -2.8240 C   0  0  2  0  0  0  0  0  0  0  0  0
   -1.5632   -0.7373   -4.2051 C   0  0  0  0  0  0  0  0  0  0  0  0
   -0.9792    0.3112   -4.4713 O   0  0  0  0  0  0  0  0  0  0  0  0
   -3.6221   -0.7874   -2.7747 C   0  0  0  0  0  0  0  0  0  0  0  0
   -1.9607    0.3048   -1.1940 H   0  0  0  0  0  0  0  0  0  0  0  0
   -1.9148   -2.0931   -2.5705 H   0  0  0  0  0  0  0  0  0  0  0  0
   -3.8519    0.2545   -3.0258 H   0  0  0  0  0  0  0  0  0  0  0  0
   -4.1595   -1.4248   -3.4847 H   0  0  0  0  0  0  0  0  0  0  0  0
   -4.0191   -0.9831   -1.7727 H   0  0  0  0  0  0  0  0  0  0  0  0
   -1.8286   -1.7497   -5.1165 N   0  0  0  0  0  0  0  0  0  0  0  0
   -1.4100   -1.6852   -6.4973 C   0  0  0  0  0  0  0  0  0  0  0  0
   -2.3023   -2.5921   -4.8037 H   0  0  0  0  0  0  0  0  0  0  0  0
   -2.2170   -1.2507   -7.1057 H   0  0  0  0  0  0  0  0  0  0  0  0
   -0.5108   -1.0569   -6.5787 H   0  0  0  0  0  0  0  0  0  0  0  0
   -1.1831   -2.6988   -6.8593 H   0  0  0  0  0  0  0  0  0  0  0  0
 22 24  2  0  0  0  0
 24 26  1  0  0  0  0
 25 26  1  0  0  0  0
 23 25  2  0  0  0  0
 21 22  1  0  0  0  0
 22 23  1  0  0  0  0
  1  3  1  0  0  0  0
  1  7  1  0  0  0  0
  1  2  2  0  0  0  0
 36 37  1  0  0  0  0
 37 45  1  0  0  0  0
 37 38  2  0  0  0  0
  8  9  1  0  0  0  0
  9 17  1  0  0  0  0
  9 10  2  0  0  0  0
 18 19  1  0  0  0  0
 19 35  1  0  0  0  0
 19 20  2  0  0  0  0
 36 39  1  0  0  0  0
  8 11  1  0  0  0  0
 45 46  1  0  0  0  0
 18 21  1  0  0  0  0
 35 36  1  0  0  0  0
  7  8  1  0  0  0  0
 17 18  1  0  0  0  0
 24 32  1  0  0  0  0
 25 33  1  0  0  0  0
  3  4  1  0  0  0  0
  3  5  1  0  0  0  0
  3  6  1  0  0  0  0
 39 42  1  0  0  0  0
 39 43  1  0  0  0  0
 39 44  1  0  0  0  0
 11 14  1  0  0  0  0
 11 15  1  0  0  0  0
 11 16  1  0  0  0  0
 46 48  1  0  0  0  0
 46 49  1  0  0  0  0
 46 50  1  0  0  0  0
 21 29  1  0  0  0  0
 21 30  1  0  0  0  0
 36 41  1  0  0  0  0
  8 13  1  0  0  0  0
 18 28  1  0  0  0  0
 26 34  1  0  0  0  0
 23 31  1  0  0  0  0
 45 47  1  0  0  0  0
  7 12  1  0  0  0  0
 35 40  1  0  0  0  0
 17 27  1  0  0  0  0
M  CHG  1  23   1
M  END
$$$$

  -OEChem-05262214473D

 50 50  0     1  0  0  0  0  0999 V2000
   -1.6938    0.4865    3.8080 C   0  0  0  0  0  0  0  0  0  0  0  0
   -0.7464   -0.1282    3.3323 O   0  0  0  0  0  0  0  0  0  0  0  0
   -2.1257    0.2041    5.2087 C   0  0  0  0  0  0  0  0  0  0  0  0
   -2.8853   -0.5922    5.2621 H   0  0  0  0  0  0  0  0  0  0  0  0
   -1.2944   -0.1435    5.8430 H   0  0  0  0  0  0  0  0  0  0  0  0
   -2.5637    1.0590    5.7483 H   0  0  0  0  0  0  0  0  0  0  0  0
   -2.4435    1.4589    3.1669 N   0  0  0  0  0  0  0  0  0  0  0  0
   -2.1966    1.8850    1.8145 C   0  0  2  0  0  0  0  0  0  0  0  0
   -0.8617    1.2996    1.3733 C   0  0  0  0  0  0  0  0  0  0  0  0
    0.0104    0.9468    2.1646 O   0  0  0  0  0  0  0  0  0  0  0  0
   -2.1879    3.4017    1.7050 C   0  0  0  0  0  0  0  0  0  0  0  0
   -3.2085    1.8948    3.6787 H   0  0  0  0  0  0  0  0  0  0  0  0
   -3.0007    1.4665    1.1994 H   0  0  0  0  0  0  0  0  0  0  0  0
   -1.3888    3.8390    2.3147 H   0  0  0  0  0  0  0  0  0  0  0  0
   -2.0284    3.7240    0.6708 H   0  0  0  0  0  0  0  0  0  0  0  0
   -3.1380    3.8230    2.0508 H   0  0  0  0  0  0  0  0  0  0  0  0
   -0.7390    1.2565   -0.0101 N   0  0  0  0  0  0  0  0  0  0  0  0
    0.4383    0.7557   -0.6738 C   0  0  2  0  0  0  0  0  0  0  0  0
   -0.0329   -0.1549   -1.8020 C   0  0  0  0  0  0  0  0  0  0  0  0
    0.7023   -0.9696   -2.3557 O   0  0  0  0  0  0  0  0  0  0  0  0
    1.3590   -0.0123    0.2816 C   0  0  0  0  0  0  0  0  0  0  0  0
    1.9249    0.8610    1.3747 C   0  0  0  0  0  0  0  0  0  0  0  0
    2.9319    1.7642    1.1338 N   0  3  0  0  0  0  0  0  0  0  0  0
    1.6198    0.9571    2.7031 C   0  0  0  0  0  0  0  0  0  0  0  0
    3.2427    2.3986    2.2688 C   0  0  0  0  0  0  0  0  0  0  0  0
    2.4506    1.9155    3.2315 N   0  0  0  0  0  0  0  0  0  0  0  0
   -1.5221    1.5532   -0.5874 H   0  0  0  0  0  0  0  0  0  0  0  0
    0.9483    1.6257   -1.1040 H   0  0  0  0  0  0  0  0  0  0  0  0
    2.1793   -0.4831   -0.2770 H   0  0  0  0  0  0  0  0  0  0  0  0
    0.8167   -0.8434    0.7516 H   0  0  0  0  0  0  0  0  0  0  0  0
    3.3759    1.9277    0.2343 H   0  0  0  0  0  0  0  0  0  0  0  0
    0.9274    0.4818    3.3690 H   0  0  0  0  0  0  0  0  0  0  0  0
    3.9953    3.1602    2.3864 H   0  0  0  0  0  0  0  0  0  0  0  0
    2.4638    2.2125    4.2031 H   0  0  0  0  0  0  0  0  0  0  0  0
   -1.3819    0.0175   -2.0798 N   0  0  0  0  0  0  0  0  0  0  0  0
   -2.0870   -0.7383   -3.0899 C   0  0  2  0  0  0  0  0  0  0  0  0
   -1.2785   -0.6695   -4.3787 C   0  0  0  0  0  0  0  0  0  0  0  0
   -0.4661    0.2225   -4.6140 O   0  0  0  0  0  0  0  0  0  0  0  0
   -3.4939   -0.2011   -3.3015 C   0  0  0  0  0  0  0  0  0  0  0  0
   -1.8995    0.7097   -1.5463 H   0  0  0  0  0  0  0  0  0  0  0  0
   -2.1274   -1.7751   -2.7384 H   0  0  0  0  0  0  0  0  0  0  0  0
   -3.4736    0.8366   -3.6537 H   0  0  0  0  0  0  0  0  0  0  0  0
   -4.0365   -0.7925   -4.0464 H   0  0  0  0  0  0  0  0  0  0  0  0
   -4.0644   -0.2237   -2.3667 H   0  0  0  0  0  0  0  0  0  0  0  0
   -1.6023   -1.6972   -5.2534 N   0  0  0  0  0  0  0  0  0  0  0  0
   -0.9811   -1.8429   -6.5492 C   0  0  0  0  0  0  0  0  0  0  0  0
   -2.2739   -2.4036   -4.9677 H   0  0  0  0  0  0  0  0  0  0  0  0
   -1.5879   -1.3263   -7.3074 H   0  0  0  0  0  0  0  0  0  0  0  0
    0.0267   -1.4027   -6.5241 H   0  0  0  0  0  0  0  0  0  0  0  0
   -0.9086   -2.9107   -6.8029 H   0  0  0  0  0  0  0  0  0  0  0  0
 22 24  2  0  0  0  0
 24 26  1  0  0  0  0
 25 26  1  0  0  0  0
 23 25  2  0  0  0  0
 21 22  1  0  0  0  0
 22 23  1  0  0  0  0
  1  3  1  0  0  0  0
  1  7  1  0  0  0  0
  1  2  2  0  0  0  0
 36 37  1  0  0  0  0
 37 45  1  0  0  0  0
 37 38  2  0  0  0  0
  8  9  1  0  0  0  0
  9 17  1  0  0  0  0
  9 10  2  0  0  0  0
 18 19  1  0  0  0  0
 19 35  1  0  0  0  0
 19 20  2  0  0  0  0
 36 39  1  0  0  0  0
  8 11  1  0  0  0  0
 45 46  1  0  0  0  0
 18 21  1  0  0  0  0
 35 36  1  0  0  0  0
  7  8  1  0  0  0  0
 17 18  1  0  0  0  0
 24 32  1  0  0  0  0
 25 33  1  0  0  0  0
  3  4  1  0  0  0  0
  3  5  1  0  0  0  0
  3  6  1  0  0  0  0
 39 42  1  0  0  0  0
 39 43  1  0  0  0  0
 39 44  1  0  0  0  0
 11 14  1  0  0  0  0
 11 15  1  0  0  0  0
 11 16  1  0  0  0  0
 46 48  1  0  0  0  0
 46 49  1  0  0  0  0
 46 50  1  0  0  0  0
 21 29  1  0  0  0  0
 21 30  1  0  0  0  0
 36 41  1  0  0  0  0
  8 13  1  0  0  0  0
 18 28  1  0  0  0  0
 26 34  1  0  0  0  0
 23 31  1  0  0  0  0
 45 47  1  0  0  0  0
  7 12  1  0  0  0  0
 35 40  1  0  0  0  0
 17 27  1  0  0  0  0
M  CHG  1  23   1
M  END
$$$$

  -OEChem-05262214473D

 50 50  0     1  0  0  0  0  0999 V2000
   -1.6938    0.4865    3.8080 C   0  0  0  0  0  0  0  0  0  0  0  0
   -0.7464   -0.1282    3.3323 O   0  0  0  0  0  0  0  0  0  0  0  0
   -2.1257    0.2041    5.2087 C   0  0  0  0  0  0  0  0  0  0  0  0
   -2.8853   -0.5922    5.2621 H   0  0  0  0  0  0  0  0  0  0  0  0
   -1.2944   -0.1435    5.8430 H   0  0  0  0  0  0  0  0  0  0  0  0
   -2.5637    1.0590    5.7483 H   0  0  0  0  0  0  0  0  0  0  0  0
   -2.4435    1.4589    3.1669 N   0  0  0  0  0  0  0  0  0  0  0  0
   -2.1966    1.8850    1.8145 C   0  0  2  0  0  0  0  0  0  0  0  0
   -0.8617    1.2996    1.3733 C   0  0  0  0  0  0  0  0  0  0  0  0
    0.0104    0.9468    2.1646 O   0  0  0  0  0  0  0  0  0  0  0  0
   -2.1879    3.4017    1.7050 C   0  0  0  0  0  0  0  0  0  0  0  0
   -3.2085    1.8948    3.6787 H   0  0  0  0  0  0  0  0  0  0  0  0
   -3.0007    1.4665    1.1994 H   0  0  0  0  0  0  0  0  0  0  0  0
   -1.3888    3.8390    2.3147 H   0  0  0  0  0  0  0  0  0  0  0  0
   -2.0284    3.7240    0.6708 H   0  0  0  0  0  0  0  0  0  0  0  0
   -3.1380    3.8230    2.0508 H   0  0  0  0  0  0  0  0  0  0  0  0
   -0.7390    1.2565   -0.0101 N   0  0  0  0  0  0  0  0  0  0  0  0
    0.4383    0.7557   -0.6738 C   0  0  2  0  0  0  0  0  0  0  0  0
   -0.0329   -0.1549   -1.8020 C   0  0  0  0  0  0  0  0  0  0  0  0
    0.5997   -1.1406   -2.1749 O   0  0  0  0  0  0  0  0  0  0  0  0
    1.3590   -0.0123    0.2816 C   0  0  0  0  0  0  0  0  0  0  0  0
    1.9249    0.8610    1.3747 C   0  0  0  0  0  0  0  0  0  0  0  0
    2.9319    1.7642    1.1338 N   0  3  0  0  0  0  0  0  0  0  0  0
    1.6198    0.9571    2.7031 C   0  0  0  0  0  0  0  0  0  0  0  0
    3.2427    2.3986    2.2688 C   0  0  0  0  0  0  0  0  0  0  0  0
    2.4506    1.9155    3.2315 N   0  0  0  0  0  0  0  0  0  0  0  0
   -1.5221    1.5532   -0.5874 H   0  0  0  0  0  0  0  0  0  0  0  0
    0.9483    1.6257   -1.1040 H   0  0  0  0  0  0  0  0  0  0  0  0
    2.1793   -0.4831   -0.2770 H   0  0  0  0  0  0  0  0  0  0  0  0
    0.8167   -0.8434    0.7516 H   0  0  0  0  0  0  0  0  0  0  0  0
    3.3759    1.9277    0.2343 H   0  0  0  0  0  0  0  0  0  0  0  0
    0.9274    0.4818    3.3690 H   0  0  0  0  0  0  0  0  0  0  0  0
    3.9953    3.1602    2.3864 H   0  0  0  0  0  0  0  0  0  0  0  0
    2.4638    2.2125    4.2031 H   0  0  0  0  0  0  0  0  0  0  0  0
   -1.2654    0.2372   -2.3057 N   0  0  0  0  0  0  0  0  0  0  0  0
   -1.9501   -0.4675   -3.3657 C   0  0  2  0  0  0  0  0  0  0  0  0
   -0.9637   -0.6724   -4.5078 C   0  0  0  0  0  0  0  0  0  0  0  0
    0.0347    0.0271   -4.6655 O   0  0  0  0  0  0  0  0  0  0  0  0
   -3.1763    0.2985   -3.8373 C   0  0  0  0  0  0  0  0  0  0  0  0
   -1.7085    1.0608   -1.9095 H   0  0  0  0  0  0  0  0  0  0  0  0
   -2.2460   -1.4406   -2.9589 H   0  0  0  0  0  0  0  0  0  0  0  0
   -2.8996    1.2763   -4.2483 H   0  0  0  0  0  0  0  0  0  0  0  0
   -3.7098   -0.2502   -4.6205 H   0  0  0  0  0  0  0  0  0  0  0  0
   -3.8709    0.4709   -3.0081 H   0  0  0  0  0  0  0  0  0  0  0  0
   -1.3524   -1.7008   -5.3549 N   0  0  0  0  0  0  0  0  0  0  0  0
   -0.5890   -2.0815   -6.5204 C   0  0  0  0  0  0  0  0  0  0  0  0
   -2.1850   -2.2401   -5.1368 H   0  0  0  0  0  0  0  0  0  0  0  0
   -0.9636   -1.5360   -7.3990 H   0  0  0  0  0  0  0  0  0  0  0  0
    0.4712   -1.8353   -6.3606 H   0  0  0  0  0  0  0  0  0  0  0  0
   -0.6927   -3.1635   -6.6891 H   0  0  0  0  0  0  0  0  0  0  0  0
 22 24  2  0  0  0  0
 24 26  1  0  0  0  0
 25 26  1  0  0  0  0
 23 25  2  0  0  0  0
 21 22  1  0  0  0  0
 22 23  1  0  0  0  0
  1  3  1  0  0  0  0
  1  7  1  0  0  0  0
  1  2  2  0  0  0  0
 36 37  1  0  0  0  0
 37 45  1  0  0  0  0
 37 38  2  0  0  0  0
  8  9  1  0  0  0  0
  9 17  1  0  0  0  0
  9 10  2  0  0  0  0
 18 19  1  0  0  0  0
 19 35  1  0  0  0  0
 19 20  2  0  0  0  0
 36 39  1  0  0  0  0
  8 11  1  0  0  0  0
 45 46  1  0  0  0  0
 18 21  1  0  0  0  0
 35 36  1  0  0  0  0
  7  8  1  0  0  0  0
 17 18  1  0  0  0  0
 24 32  1  0  0  0  0
 25 33  1  0  0  0  0
  3  4  1  0  0  0  0
  3  5  1  0  0  0  0
  3  6  1  0  0  0  0
 39 42  1  0  0  0  0
 39 43  1  0  0  0  0
 39 44  1  0  0  0  0
 11 14  1  0  0  0  0
 11 15  1  0  0  0  0
 11 16  1  0  0  0  0
 46 48  1  0  0  0  0
 46 49  1  0  0  0  0
 46 50  1  0  0  0  0
 21 29  1  0  0  0  0
 21 30  1  0  0  0  0
 36 41  1  0  0  0  0
  8 13  1  0  0  0  0
 18 28  1  0  0  0  0
 26 34  1  0  0  0  0
 23 31  1  0  0  0  0
 45 47  1  0  0  0  0
  7 12  1  0  0  0  0
 35 40  1  0  0  0  0
 17 27  1  0  0  0  0
M  CHG  1  23   1
M  END
$$$$

  -OEChem-05262214473D

 50 50  0     1  0  0  0  0  0999 V2000
   -1.6938    0.4865    3.8080 C   0  0  0  0  0  0  0  0  0  0  0  0
   -0.7464   -0.1282    3.3323 O   0  0  0  0  0  0  0  0  0  0  0  0
   -2.1257    0.2041    5.2087 C   0  0  0  0  0  0  0  0  0  0  0  0
   -2.8853   -0.5922    5.2621 H   0  0  0  0  0  0  0  0  0  0  0  0
   -1.2944   -0.1435    5.8430 H   0  0  0  0  0  0  0  0  0  0  0  0
   -2.5637    1.0590    5.7483 H   0  0  0  0  0  0  0  0  0  0  0  0
   -2.4435    1.4589    3.1669 N   0  0  0  0  0  0  0  0  0  0  0  0
   -2.1966    1.8850    1.8145 C   0  0  2  0  0  0  0  0  0  0  0  0
   -0.8617    1.2996    1.3733 C   0  0  0  0  0  0  0  0  0  0  0  0
    0.0104    0.9468    2.1646 O   0  0  0  0  0  0  0  0  0  0  0  0
   -2.1879    3.4017    1.7050 C   0  0  0  0  0  0  0  0  0  0  0  0
   -3.2085    1.8948    3.6787 H   0  0  0  0  0  0  0  0  0  0  0  0
   -3.0007    1.4665    1.1994 H   0  0  0  0  0  0  0  0  0  0  0  0
   -1.3888    3.8390    2.3147 H   0  0  0  0  0  0  0  0  0  0  0  0
   -2.0284    3.7240    0.6708 H   0  0  0  0  0  0  0  0  0  0  0  0
   -3.1380    3.8230    2.0508 H   0  0  0  0  0  0  0  0  0  0  0  0
   -0.7390    1.2565   -0.0101 N   0  0  0  0  0  0  0  0  0  0  0  0
    0.4383    0.7557   -0.6738 C   0  0  2  0  0  0  0  0  0  0  0  0
   -0.0329   -0.1549   -1.8020 C   0  0  0  0  0  0  0  0  0  0  0  0
    0.4400   -1.2716   -2.0024 O   0  0  0  0  0  0  0  0  0  0  0  0
    1.3590   -0.0123    0.2816 C   0  0  0  0  0  0  0  0  0  0  0  0
    1.9249    0.8610    1.3747 C   0  0  0  0  0  0  0  0  0  0  0  0
    2.9319    1.7642    1.1338 N   0  3  0  0  0  0  0  0  0  0  0  0
    1.6198    0.9571    2.7031 C   0  0  0  0  0  0  0  0  0  0  0  0
    3.2427    2.3986    2.2688 C   0  0  0  0  0  0  0  0  0  0  0  0
    2.4506    1.9155    3.2315 N   0  0  0  0  0  0  0  0  0  0  0  0
   -1.5221    1.5532   -0.5874 H   0  0  0  0  0  0  0  0  0  0  0  0
    0.9483    1.6257   -1.1040 H   0  0  0  0  0  0  0  0  0  0  0  0
    2.1793   -0.4831   -0.2770 H   0  0  0  0  0  0  0  0  0  0  0  0
    0.8167   -0.8434    0.7516 H   0  0  0  0  0  0  0  0  0  0  0  0
    3.3759    1.9277    0.2343 H   0  0  0  0  0  0  0  0  0  0  0  0
    0.9274    0.4818    3.3690 H   0  0  0  0  0  0  0  0  0  0  0  0
    3.9953    3.1602    2.3864 H   0  0  0  0  0  0  0  0  0  0  0  0
    2.4638    2.2125    4.2031 H   0  0  0  0  0  0  0  0  0  0  0  0
   -1.0759    0.4090   -2.5236 N   0  0  0  0  0  0  0  0  0  0  0  0
   -1.7233   -0.2541   -3.6326 C   0  0  2  0  0  0  0  0  0  0  0  0
   -0.6402   -0.7459   -4.5837 C   0  0  0  0  0  0  0  0  0  0  0  0
    0.4890   -0.2616   -4.6222 O   0  0  0  0  0  0  0  0  0  0  0  0
   -2.6909    0.6774   -4.3458 C   0  0  0  0  0  0  0  0  0  0  0  0
   -1.4006    1.3344   -2.2588 H   0  0  0  0  0  0  0  0  0  0  0  0
   -2.2623   -1.1124   -3.2169 H   0  0  0  0  0  0  0  0  0  0  0  0
   -2.1690    1.5434   -4.7690 H   0  0  0  0  0  0  0  0  0  0  0  0
   -3.2016    0.1651   -5.1679 H   0  0  0  0  0  0  0  0  0  0  0  0
   -3.4517    1.0535   -3.6534 H   0  0  0  0  0  0  0  0  0  0  0  0
   -1.0960   -1.7602   -5.4140 N   0  0  0  0  0  0  0  0  0  0  0  0
   -0.2604   -2.3848   -6.4128 C   0  0  0  0  0  0  0  0  0  0  0  0
   -2.0417   -2.1128   -5.2994 H   0  0  0  0  0  0  0  0  0  0  0  0
   -0.3865   -1.8654   -7.3742 H   0  0  0  0  0  0  0  0  0  0  0  0
    0.7923   -2.3252   -6.0994 H   0  0  0  0  0  0  0  0  0  0  0  0
   -0.5502   -3.4399   -6.5255 H   0  0  0  0  0  0  0  0  0  0  0  0
 22 24  2  0  0  0  0
 24 26  1  0  0  0  0
 25 26  1  0  0  0  0
 23 25  2  0  0  0  0
 21 22  1  0  0  0  0
 22 23  1  0  0  0  0
  1  3  1  0  0  0  0
  1  7  1  0  0  0  0
  1  2  2  0  0  0  0
 36 37  1  0  0  0  0
 37 45  1  0  0  0  0
 37 38  2  0  0  0  0
  8  9  1  0  0  0  0
  9 17  1  0  0  0  0
  9 10  2  0  0  0  0
 18 19  1  0  0  0  0
 19 35  1  0  0  0  0
 19 20  2  0  0  0  0
 36 39  1  0  0  0  0
  8 11  1  0  0  0  0
 45 46  1  0  0  0  0
 18 21  1  0  0  0  0
 35 36  1  0  0  0  0
  7  8  1  0  0  0  0
 17 18  1  0  0  0  0
 24 32  1  0  0  0  0
 25 33  1  0  0  0  0
  3  4  1  0  0  0  0
  3  5  1  0  0  0  0
  3  6  1  0  0  0  0
 39 42  1  0  0  0  0
 39 43  1  0  0  0  0
 39 44  1  0  0  0  0
 11 14  1  0  0  0  0
 11 15  1  0  0  0  0
 11 16  1  0  0  0  0
 46 48  1  0  0  0  0
 46 49  1  0  0  0  0
 46 50  1  0  0  0  0
 21 29  1  0  0  0  0
 21 30  1  0  0  0  0
 36 41  1  0  0  0  0
  8 13  1  0  0  0  0
 18 28  1  0  0  0  0
 26 34  1  0  0  0  0
 23 31  1  0  0  0  0
 45 47  1  0  0  0  0
  7 12  1  0  0  0  0
 35 40  1  0  0  0  0
 17 27  1  0  0  0  0
M  CHG  1  23   1
M  END
$$$$

  -OEChem-05262214473D

 50 50  0     1  0  0  0  0  0999 V2000
   -1.6938    0.4865    3.8080 C   0  0  0  0  0  0  0  0  0  0  0  0
   -0.7464   -0.1282    3.3323 O   0  0  0  0  0  0  0  0  0  0  0  0
   -2.1257    0.2041    5.2087 C   0  0  0  0  0  0  0  0  0  0  0  0
   -2.8853   -0.5922    5.2621 H   0  0  0  0  0  0  0  0  0  0  0  0
   -1.2944   -0.1435    5.8430 H   0  0  0  0  0  0  0  0  0  0  0  0
   -2.5637    1.0590    5.7483 H   0  0  0  0  0  0  0  0  0  0  0  0
   -2.4435    1.4589    3.1669 N   0  0  0  0  0  0  0  0  0  0  0  0
   -2.1966    1.8850    1.8145 C   0  0  2  0  0  0  0  0  0  0  0  0
   -0.8617    1.2996    1.3733 C   0  0  0  0  0  0  0  0  0  0  0  0
    0.0104    0.9468    2.1646 O   0  0  0  0  0  0  0  0  0  0  0  0
   -2.1879    3.4017    1.7050 C   0  0  0  0  0  0  0  0  0  0  0  0
   -3.2085    1.8948    3.6787 H   0  0  0  0  0  0  0  0  0  0  0  0
   -3.0007    1.4665    1.1994 H   0  0  0  0  0  0  0  0  0  0  0  0
   -1.3888    3.8390    2.3147 H   0  0  0  0  0  0  0  0  0  0  0  0
   -2.0284    3.7240    0.6708 H   0  0  0  0  0  0  0  0  0  0  0  0
   -3.1380    3.8230    2.0508 H   0  0  0  0  0  0  0  0  0  0  0  0
   -0.7390    1.2565   -0.0101 N   0  0  0  0  0  0  0  0  0  0  0  0
    0.4383    0.7557   -0.6738 C   0  0  2  0  0  0  0  0  0  0  0  0
   -0.0329   -0.1549   -1.8020 C   0  0  0  0  0  0  0  0  0  0  0  0
    0.2339   -1.3538   -1.8500 O   0  0  0  0  0  0  0  0  0  0  0  0
    1.3590   -0.0123    0.2816 C   0  0  0  0  0  0  0  0  0  0  0  0
    1.9249    0.8610    1.3747 C   0  0  0  0  0  0  0  0  0  0  0  0
    2.9319    1.7642    1.1338 N   0  3  0  0  0  0  0  0  0  0  0  0
    1.6198    0.9571    2.7031 C   0  0  0  0  0  0  0  0  0  0  0  0
    3.2427    2.3986    2.2688 C   0  0  0  0  0  0  0  0  0  0  0  0
    2.4506    1.9155    3.2315 N   0  0  0  0  0  0  0  0  0  0  0  0
   -1.5221    1.5532   -0.5874 H   0  0  0  0  0  0  0  0  0  0  0  0
    0.9483    1.6257   -1.1040 H   0  0  0  0  0  0  0  0  0  0  0  0
    2.1793   -0.4831   -0.2770 H   0  0  0  0  0  0  0  0  0  0  0  0
    0.8167   -0.8434    0.7516 H   0  0  0  0  0  0  0  0  0  0  0  0
    3.3759    1.9277    0.2343 H   0  0  0  0  0  0  0  0  0  0  0  0
    0.9274    0.4818    3.3690 H   0  0  0  0  0  0  0  0  0  0  0  0
    3.9953    3.1602    2.3864 H   0  0  0  0  0  0  0  0  0  0  0  0
    2.4638    2.2125    4.2031 H   0  0  0  0  0  0  0  0  0  0  0  0
   -0.8263    0.5213   -2.7184 N   0  0  0  0  0  0  0  0  0  0  0  0
   -1.4221   -0.1128   -3.8724 C   0  0  2  0  0  0  0  0  0  0  0  0
   -0.3300   -0.8849   -4.6010 C   0  0  0  0  0  0  0  0  0  0  0  0
    0.8658   -0.6241   -4.4871 O   0  0  0  0  0  0  0  0  0  0  0  0
   -2.0710    0.9097   -4.7923 C   0  0  0  0  0  0  0  0  0  0  0  0
   -0.9968    1.5117   -2.5706 H   0  0  0  0  0  0  0  0  0  0  0  0
   -2.1753   -0.8129   -3.4949 H   0  0  0  0  0  0  0  0  0  0  0  0
   -1.3317    1.6198   -5.1804 H   0  0  0  0  0  0  0  0  0  0  0  0
   -2.5466    0.4251   -5.6514 H   0  0  0  0  0  0  0  0  0  0  0  0
   -2.8355    1.4844   -4.2585 H   0  0  0  0  0  0  0  0  0  0  0  0
   -0.8506   -1.8715   -5.4267 N   0  0  0  0  0  0  0  0  0  0  0  0
   -0.0177   -2.7321   -6.2339 C   0  0  0  0  0  0  0  0  0  0  0  0
   -1.8537   -2.0302   -5.4445 H   0  0  0  0  0  0  0  0  0  0  0  0
    0.1039   -2.2921   -7.2347 H   0  0  0  0  0  0  0  0  0  0  0  0
    0.9684   -2.8391   -5.7582 H   0  0  0  0  0  0  0  0  0  0  0  0
   -0.4908   -3.7212   -6.3234 H   0  0  0  0  0  0  0  0  0  0  0  0
 22 24  2  0  0  0  0
 24 26  1  0  0  0  0
 25 26  1  0  0  0  0
 23 25  2  0  0  0  0
 21 22  1  0  0  0  0
 22 23  1  0  0  0  0
  1  3  1  0  0  0  0
  1  7  1  0  0  0  0
  1  2  2  0  0  0  0
 36 37  1  0  0  0  0
 37 45  1  0  0  0  0
 37 38  2  0  0  0  0
  8  9  1  0  0  0  0
  9 17  1  0  0  0  0
  9 10  2  0  0  0  0
 18 19  1  0  0  0  0
 19 35  1  0  0  0  0
 19 20  2  0  0  0  0
 36 39  1  0  0  0  0
  8 11  1  0  0  0  0
 45 46  1  0  0  0  0
 18 21  1  0  0  0  0
 35 36  1  0  0  0  0
  7  8  1  0  0  0  0
 17 18  1  0  0  0  0
 24 32  1  0  0  0  0
 25 33  1  0  0  0  0
  3  4  1  0  0  0  0
  3  5  1  0  0  0  0
  3  6  1  0  0  0  0
 39 42  1  0  0  0  0
 39 43  1  0  0  0  0
 39 44  1  0  0  0  0
 11 14  1  0  0  0  0
 11 15  1  0  0  0  0
 11 16  1  0  0  0  0
 46 48  1  0  0  0  0
 46 49  1  0  0  0  0
 46 50  1  0  0  0  0
 21 29  1  0  0  0  0
 21 30  1  0  0  0  0
 36 41  1  0  0  0  0
  8 13  1  0  0  0  0
 18 28  1  0  0  0  0
 26 34  1  0  0  0  0
 23 31  1  0  0  0  0
 45 47  1  0  0  0  0
  7 12  1  0  0  0  0
 35 40  1  0  0  0  0
 17 27  1  0  0  0  0
M  CHG  1  23   1
M  END
$$$$

  -OEChem-05262214473D

 50 50  0     1  0  0  0  0  0999 V2000
   -1.6938    0.4865    3.8080 C   0  0  0  0  0  0  0  0  0  0  0  0
   -0.7464   -0.1282    3.3323 O   0  0  0  0  0  0  0  0  0  0  0  0
   -2.1257    0.2041    5.2087 C   0  0  0  0  0  0  0  0  0  0  0  0
   -2.8853   -0.5922    5.2621 H   0  0  0  0  0  0  0  0  0  0  0  0
   -1.2944   -0.1435    5.8430 H   0  0  0  0  0  0  0  0  0  0  0  0
   -2.5637    1.0590    5.7483 H   0  0  0  0  0  0  0  0  0  0  0  0
   -2.4435    1.4589    3.1669 N   0  0  0  0  0  0  0  0  0  0  0  0
   -2.1966    1.8850    1.8145 C   0  0  2  0  0  0  0  0  0  0  0  0
   -0.8617    1.2996    1.3733 C   0  0  0  0  0  0  0  0  0  0  0  0
    0.0104    0.9468    2.1646 O   0  0  0  0  0  0  0  0  0  0  0  0
   -2.1879    3.4017    1.7050 C   0  0  0  0  0  0  0  0  0  0  0  0
   -3.2085    1.8948    3.6787 H   0  0  0  0  0  0  0  0  0  0  0  0
   -3.0007    1.4665    1.1994 H   0  0  0  0  0  0  0  0  0  0  0  0
   -1.3888    3.8390    2.3147 H   0  0  0  0  0  0  0  0  0  0  0  0
   -2.0284    3.7240    0.6708 H   0  0  0  0  0  0  0  0  0  0  0  0
   -3.1380    3.8230    2.0508 H   0  0  0  0  0  0  0  0  0  0  0  0
   -0.7390    1.2565   -0.0101 N   0  0  0  0  0  0  0  0  0  0  0  0
    0.4383    0.7557   -0.6738 C   0  0  2  0  0  0  0  0  0  0  0  0
   -0.0329   -0.1549   -1.8020 C   0  0  0  0  0  0  0  0  0  0  0  0
   -0.0045   -1.3815   -1.7281 O   0  0  0  0  0  0  0  0  0  0  0  0
    1.3590   -0.0123    0.2816 C   0  0  0  0  0  0  0  0  0  0  0  0
    1.9249    0.8610    1.3747 C   0  0  0  0  0  0  0  0  0  0  0  0
    2.9319    1.7642    1.1338 N   0  3  0  0  0  0  0  0  0  0  0  0
    1.6198    0.9571    2.7031 C   0  0  0  0  0  0  0  0  0  0  0  0
    3.2427    2.3986    2.2688 C   0  0  0  0  0  0  0  0  0  0  0  0
    2.4506    1.9155    3.2315 N   0  0  0  0  0  0  0  0  0  0  0  0
   -1.5221    1.5532   -0.5874 H   0  0  0  0  0  0  0  0  0  0  0  0
    0.9483    1.6257   -1.1040 H   0  0  0  0  0  0  0  0  0  0  0  0
    2.1793   -0.4831   -0.2770 H   0  0  0  0  0  0  0  0  0  0  0  0
    0.8167   -0.8434    0.7516 H   0  0  0  0  0  0  0  0  0  0  0  0
    3.3759    1.9277    0.2343 H   0  0  0  0  0  0  0  0  0  0  0  0
    0.9274    0.4818    3.3690 H   0  0  0  0  0  0  0  0  0  0  0  0
    3.9953    3.1602    2.3864 H   0  0  0  0  0  0  0  0  0  0  0  0
    2.4638    2.2125    4.2031 H   0  0  0  0  0  0  0  0  0  0  0  0
   -0.5336    0.5663   -2.8771 N   0  0  0  0  0  0  0  0  0  0  0  0
   -1.0671   -0.0532   -4.0688 C   0  0  2  0  0  0  0  0  0  0  0  0
   -0.0544   -1.0799   -4.5587 C   0  0  0  0  0  0  0  0  0  0  0  0
    1.1394   -1.0355   -4.2693 O   0  0  0  0  0  0  0  0  0  0  0  0
   -1.3586    0.9796   -5.1463 C   0  0  0  0  0  0  0  0  0  0  0  0
   -0.5245    1.5806   -2.8235 H   0  0  0  0  0  0  0  0  0  0  0  0
   -1.9910   -0.5626   -3.7740 H   0  0  0  0  0  0  0  0  0  0  0  0
   -0.4446    1.5004   -5.4545 H   0  0  0  0  0  0  0  0  0  0  0  0
   -1.7893    0.5121   -6.0379 H   0  0  0  0  0  0  0  0  0  0  0  0
   -2.0643    1.7341   -4.7822 H   0  0  0  0  0  0  0  0  0  0  0  0
   -0.6329   -2.0270   -5.3922 N   0  0  0  0  0  0  0  0  0  0  0  0
    0.1225   -3.0998   -5.9957 C   0  0  0  0  0  0  0  0  0  0  0  0
   -1.6339   -1.9981   -5.5623 H   0  0  0  0  0  0  0  0  0  0  0  0
    0.4744   -2.7871   -6.9899 H   0  0  0  0  0  0  0  0  0  0  0  0
    0.9872   -3.3418   -5.3603 H   0  0  0  0  0  0  0  0  0  0  0  0
   -0.5185   -3.9880   -6.0964 H   0  0  0  0  0  0  0  0  0  0  0  0
 22 24  2  0  0  0  0
 24 26  1  0  0  0  0
 25 26  1  0  0  0  0
 23 25  2  0  0  0  0
 21 22  1  0  0  0  0
 22 23  1  0  0  0  0
  1  3  1  0  0  0  0
  1  7  1  0  0  0  0
  1  2  2  0  0  0  0
 36 37  1  0  0  0  0
 37 45  1  0  0  0  0
 37 38  2  0  0  0  0
  8  9  1  0  0  0  0
  9 17  1  0  0  0  0
  9 10  2  0  0  0  0
 18 19  1  0  0  0  0
 19 35  1  0  0  0  0
 19 20  2  0  0  0  0
 36 39  1  0  0  0  0
  8 11  1  0  0  0  0
 45 46  1  0  0  0  0
 18 21  1  0  0  0  0
 35 36  1  0  0  0  0
  7  8  1  0  0  0  0
 17 18  1  0  0  0  0
 24 32  1  0  0  0  0
 25 33  1  0  0  0  0
  3  4  1  0  0  0  0
  3  5  1  0  0  0  0
  3  6  1  0  0  0  0
 39 42  1  0  0  0  0
 39 43  1  0  0  0  0
 39 44  1  0  0  0  0
 11 14  1  0  0  0  0
 11 15  1  0  0  0  0
 11 16  1  0  0  0  0
 46 48  1  0  0  0  0
 46 49  1  0  0  0  0
 46 50  1  0  0  0  0
 21 29  1  0  0  0  0
 21 30  1  0  0  0  0
 36 41  1  0  0  0  0
  8 13  1  0  0  0  0
 18 28  1  0  0  0  0
 26 34  1  0  0  0  0
 23 31  1  0  0  0  0
 45 47  1  0  0  0  0
  7 12  1  0  0  0  0
 35 40  1  0  0  0  0
 17 27  1  0  0  0  0
M  CHG  1  23   1
M  END
$$$$

  -OEChem-05262214473D

 50 50  0     1  0  0  0  0  0999 V2000
   -1.6938    0.4865    3.8080 C   0  0  0  0  0  0  0  0  0  0  0  0
   -0.7464   -0.1282    3.3323 O   0  0  0  0  0  0  0  0  0  0  0  0
   -2.1257    0.2041    5.2087 C   0  0  0  0  0  0  0  0  0  0  0  0
   -2.8853   -0.5922    5.2621 H   0  0  0  0  0  0  0  0  0  0  0  0
   -1.2944   -0.1435    5.8430 H   0  0  0  0  0  0  0  0  0  0  0  0
   -2.5637    1.0590    5.7483 H   0  0  0  0  0  0  0  0  0  0  0  0
   -2.4435    1.4589    3.1669 N   0  0  0  0  0  0  0  0  0  0  0  0
   -2.1966    1.8850    1.8145 C   0  0  2  0  0  0  0  0  0  0  0  0
   -0.8617    1.2996    1.3733 C   0  0  0  0  0  0  0  0  0  0  0  0
    0.0104    0.9468    2.1646 O   0  0  0  0  0  0  0  0  0  0  0  0
   -2.1879    3.4017    1.7050 C   0  0  0  0  0  0  0  0  0  0  0  0
   -3.2085    1.8948    3.6787 H   0  0  0  0  0  0  0  0  0  0  0  0
   -3.0007    1.4665    1.1994 H   0  0  0  0  0  0  0  0  0  0  0  0
   -1.3888    3.8390    2.3147 H   0  0  0  0  0  0  0  0  0  0  0  0
   -2.0284    3.7240    0.6708 H   0  0  0  0  0  0  0  0  0  0  0  0
   -3.1380    3.8230    2.0508 H   0  0  0  0  0  0  0  0  0  0  0  0
   -0.7390    1.2565   -0.0101 N   0  0  0  0  0  0  0  0  0  0  0  0
    0.4383    0.7557   -0.6738 C   0  0  2  0  0  0  0  0  0  0  0  0
   -0.0329   -0.1549   -1.8020 C   0  0  0  0  0  0  0  0  0  0  0  0
   -0.2589   -1.3529   -1.6449 O   0  0  0  0  0  0  0  0  0  0  0  0
    1.3590   -0.0123    0.2816 C   0  0  0  0  0  0  0  0  0  0  0  0
    1.9249    0.8610    1.3747 C   0  0  0  0  0  0  0  0  0  0  0  0
    2.9319    1.7642    1.1338 N   0  3  0  0  0  0  0  0  0  0  0  0
    1.6198    0.9571    2.7031 C   0  0  0  0  0  0  0  0  0  0  0  0
    3.2427    2.3986    2.2688 C   0  0  0  0  0  0  0  0  0  0  0  0
    2.4506    1.9155    3.2315 N   0  0  0  0  0  0  0  0  0  0  0  0
   -1.5221    1.5532   -0.5874 H   0  0  0  0  0  0  0  0  0  0  0  0
    0.9483    1.6257   -1.1040 H   0  0  0  0  0  0  0  0  0  0  0  0
    2.1793   -0.4831   -0.2770 H   0  0  0  0  0  0  0  0  0  0  0  0
    0.8167   -0.8434    0.7516 H   0  0  0  0  0  0  0  0  0  0  0  0
    3.3759    1.9277    0.2343 H   0  0  0  0  0  0  0  0  0  0  0  0
    0.9274    0.4818    3.3690 H   0  0  0  0  0  0  0  0  0  0  0  0
    3.9953    3.1602    2.3864 H   0  0  0  0  0  0  0  0  0  0  0  0
    2.4638    2.2125    4.2031 H   0  0  0  0  0  0  0  0  0  0  0  0
   -0.2176    0.5411   -2.9886 N   0  0  0  0  0  0  0  0  0  0  0  0
   -0.6823   -0.0794   -4.2084 C   0  0  2  0  0  0  0  0  0  0  0  0
    0.1679   -1.3177   -4.4596 C   0  0  0  0  0  0  0  0  0  0  0  0
    1.2913   -1.4680   -3.9837 O   0  0  0  0  0  0  0  0  0  0  0  0
   -0.6024    0.8824   -5.3837 C   0  0  0  0  0  0  0  0  0  0  0  0
   -0.0161    1.5366   -3.0003 H   0  0  0  0  0  0  0  0  0  0  0  0
   -1.7218   -0.3784   -4.0351 H   0  0  0  0  0  0  0  0  0  0  0  0
    0.4317    1.1931   -5.5726 H   0  0  0  0  0  0  0  0  0  0  0  0
   -0.9814    0.4202   -6.3011 H   0  0  0  0  0  0  0  0  0  0  0  0
   -1.1905    1.7857   -5.1888 H   0  0  0  0  0  0  0  0  0  0  0  0
   -0.4578   -2.2161   -5.3127 N   0  0  0  0  0  0  0  0  0  0  0  0
    0.1508   -3.4627   -5.7146 C   0  0  0  0  0  0  0  0  0  0  0  0
   -1.3972   -2.0186   -5.6446 H   0  0  0  0  0  0  0  0  0  0  0  0
    0.6996   -3.3165   -6.6566 H   0  0  0  0  0  0  0  0  0  0  0  0
    0.8476   -3.7992   -4.9328 H   0  0  0  0  0  0  0  0  0  0  0  0
   -0.6315   -4.2223   -5.8602 H   0  0  0  0  0  0  0  0  0  0  0  0
 22 24  2  0  0  0  0
 24 26  1  0  0  0  0
 25 26  1  0  0  0  0
 23 25  2  0  0  0  0
 21 22  1  0  0  0  0
 22 23  1  0  0  0  0
  1  3  1  0  0  0  0
  1  7  1  0  0  0  0
  1  2  2  0  0  0  0
 36 37  1  0  0  0  0
 37 45  1  0  0  0  0
 37 38  2  0  0  0  0
  8  9  1  0  0  0  0
  9 17  1  0  0  0  0
  9 10  2  0  0  0  0
 18 19  1  0  0  0  0
 19 35  1  0  0  0  0
 19 20  2  0  0  0  0
 36 39  1  0  0  0  0
  8 11  1  0  0  0  0
 45 46  1  0  0  0  0
 18 21  1  0  0  0  0
 35 36  1  0  0  0  0
  7  8  1  0  0  0  0
 17 18  1  0  0  0  0
 24 32  1  0  0  0  0
 25 33  1  0  0  0  0
  3  4  1  0  0  0  0
  3  5  1  0  0  0  0
  3  6  1  0  0  0  0
 39 42  1  0  0  0  0
 39 43  1  0  0  0  0
 39 44  1  0  0  0  0
 11 14  1  0  0  0  0
 11 15  1  0  0  0  0
 11 16  1  0  0  0  0
 46 48  1  0  0  0  0
 46 49  1  0  0  0  0
 46 50  1  0  0  0  0
 21 29  1  0  0  0  0
 21 30  1  0  0  0  0
 36 41  1  0  0  0  0
  8 13  1  0  0  0  0
 18 28  1  0  0  0  0
 26 34  1  0  0  0  0
 23 31  1  0  0  0  0
 45 47  1  0  0  0  0
  7 12  1  0  0  0  0
 35 40  1  0  0  0  0
 17 27  1  0  0  0  0
M  CHG  1  23   1
M  END
$$$$

  -OEChem-05262214473D

 50 50  0     1  0  0  0  0  0999 V2000
   -1.6938    0.4865    3.8080 C   0  0  0  0  0  0  0  0  0  0  0  0
   -0.7464   -0.1282    3.3323 O   0  0  0  0  0  0  0  0  0  0  0  0
   -2.1257    0.2041    5.2087 C   0  0  0  0  0  0  0  0  0  0  0  0
   -2.8853   -0.5922    5.2621 H   0  0  0  0  0  0  0  0  0  0  0  0
   -1.2944   -0.1435    5.8430 H   0  0  0  0  0  0  0  0  0  0  0  0
   -2.5637    1.0590    5.7483 H   0  0  0  0  0  0  0  0  0  0  0  0
   -2.4435    1.4589    3.1669 N   0  0  0  0  0  0  0  0  0  0  0  0
   -2.1966    1.8850    1.8145 C   0  0  2  0  0  0  0  0  0  0  0  0
   -0.8617    1.2996    1.3733 C   0  0  0  0  0  0  0  0  0  0  0  0
    0.0104    0.9468    2.1646 O   0  0  0  0  0  0  0  0  0  0  0  0
   -2.1879    3.4017    1.7050 C   0  0  0  0  0  0  0  0  0  0  0  0
   -3.2085    1.8948    3.6787 H   0  0  0  0  0  0  0  0  0  0  0  0
   -3.0007    1.4665    1.1994 H   0  0  0  0  0  0  0  0  0  0  0  0
   -1.3888    3.8390    2.3147 H   0  0  0  0  0  0  0  0  0  0  0  0
   -2.0284    3.7240    0.6708 H   0  0  0  0  0  0  0  0  0  0  0  0
   -3.1380    3.8230    2.0508 H   0  0  0  0  0  0  0  0  0  0  0  0
   -0.7390    1.2565   -0.0101 N   0  0  0  0  0  0  0  0  0  0  0  0
    0.4383    0.7557   -0.6738 C   0  0  2  0  0  0  0  0  0  0  0  0
   -0.0329   -0.1549   -1.8020 C   0  0  0  0  0  0  0  0  0  0  0  0
   -0.5120   -1.2698   -1.6062 O   0  0  0  0  0  0  0  0  0  0  0  0
    1.3590   -0.0123    0.2816 C   0  0  0  0  0  0  0  0  0  0  0  0
    1.9249    0.8610    1.3747 C   0  0  0  0  0  0  0  0  0  0  0  0
    2.9319    1.7642    1.1338 N   0  3  0  0  0  0  0  0  0  0  0  0
    1.6198    0.9571    2.7031 C   0  0  0  0  0  0  0  0  0  0  0  0
    3.2427    2.3986    2.2688 C   0  0  0  0  0  0  0  0  0  0  0  0
    2.4506    1.9155    3.2315 N   0  0  0  0  0  0  0  0  0  0  0  0
   -1.5221    1.5532   -0.5874 H   0  0  0  0  0  0  0  0  0  0  0  0
    0.9483    1.6257   -1.1040 H   0  0  0  0  0  0  0  0  0  0  0  0
    2.1793   -0.4831   -0.2770 H   0  0  0  0  0  0  0  0  0  0  0  0
    0.8167   -0.8434    0.7516 H   0  0  0  0  0  0  0  0  0  0  0  0
    3.3759    1.9277    0.2343 H   0  0  0  0  0  0  0  0  0  0  0  0
    0.9274    0.4818    3.3690 H   0  0  0  0  0  0  0  0  0  0  0  0
    3.9953    3.1602    2.3864 H   0  0  0  0  0  0  0  0  0  0  0  0
    2.4638    2.2125    4.2031 H   0  0  0  0  0  0  0  0  0  0  0  0
    0.0999    0.4472   -3.0455 N   0  0  0  0  0  0  0  0  0  0  0  0
   -0.2941   -0.1895   -4.2817 C   0  0  2  0  0  0  0  0  0  0  0  0
    0.3218   -1.5821   -4.3105 C   0  0  0  0  0  0  0  0  0  0  0  0
    1.3109   -1.8919   -3.6498 O   0  0  0  0  0  0  0  0  0  0  0  0
    0.1462    0.6247   -5.4883 C   0  0  0  0  0  0  0  0  0  0  0  0
    0.4939    1.3824   -3.0889 H   0  0  0  0  0  0  0  0  0  0  0  0
   -1.3862   -0.2729   -4.2604 H   0  0  0  0  0  0  0  0  0  0  0  0
    1.2375    0.7191   -5.5266 H   0  0  0  0  0  0  0  0  0  0  0  0
   -0.1780    0.1556   -6.4232 H   0  0  0  0  0  0  0  0  0  0  0  0
   -0.2737    1.6357   -5.4506 H   0  0  0  0  0  0  0  0  0  0  0  0
   -0.3371   -2.4259   -5.1937 N   0  0  0  0  0  0  0  0  0  0  0  0
    0.0650   -3.7962   -5.4096 C   0  0  0  0  0  0  0  0  0  0  0  0
   -1.1598   -2.0903   -5.6859 H   0  0  0  0  0  0  0  0  0  0  0  0
    0.7641   -3.8444   -6.2576 H   0  0  0  0  0  0  0  0  0  0  0  0
    0.5591   -4.1801   -4.5049 H   0  0  0  0  0  0  0  0  0  0  0  0
   -0.8220   -4.4080   -5.6307 H   0  0  0  0  0  0  0  0  0  0  0  0
 22 24  2  0  0  0  0
 24 26  1  0  0  0  0
 25 26  1  0  0  0  0
 23 25  2  0  0  0  0
 21 22  1  0  0  0  0
 22 23  1  0  0  0  0
  1  3  1  0  0  0  0
  1  7  1  0  0  0  0
  1  2  2  0  0  0  0
 36 37  1  0  0  0  0
 37 45  1  0  0  0  0
 37 38  2  0  0  0  0
  8  9  1  0  0  0  0
  9 17  1  0  0  0  0
  9 10  2  0  0  0  0
 18 19  1  0  0  0  0
 19 35  1  0  0  0  0
 19 20  2  0  0  0  0
 36 39  1  0  0  0  0
  8 11  1  0  0  0  0
 45 46  1  0  0  0  0
 18 21  1  0  0  0  0
 35 36  1  0  0  0  0
  7  8  1  0  0  0  0
 17 18  1  0  0  0  0
 24 32  1  0  0  0  0
 25 33  1  0  0  0  0
  3  4  1  0  0  0  0
  3  5  1  0  0  0  0
  3  6  1  0  0  0  0
 39 42  1  0  0  0  0
 39 43  1  0  0  0  0
 39 44  1  0  0  0  0
 11 14  1  0  0  0  0
 11 15  1  0  0  0  0
 11 16  1  0  0  0  0
 46 48  1  0  0  0  0
 46 49  1  0  0  0  0
 46 50  1  0  0  0  0
 21 29  1  0  0  0  0
 21 30  1  0  0  0  0
 36 41  1  0  0  0  0
  8 13  1  0  0  0  0
 18 28  1  0  0  0  0
 26 34  1  0  0  0  0
 23 31  1  0  0  0  0
 45 47  1  0  0  0  0
  7 12  1  0  0  0  0
 35 40  1  0  0  0  0
 17 27  1  0  0  0  0
M  CHG  1  23   1
M  END
$$$$

  -OEChem-05262214473D

 50 50  0     1  0  0  0  0  0999 V2000
   -1.6938    0.4865    3.8080 C   0  0  0  0  0  0  0  0  0  0  0  0
   -0.7464   -0.1282    3.3323 O   0  0  0  0  0  0  0  0  0  0  0  0
   -2.1257    0.2041    5.2087 C   0  0  0  0  0  0  0  0  0  0  0  0
   -2.8853   -0.5922    5.2621 H   0  0  0  0  0  0  0  0  0  0  0  0
   -1.2944   -0.1435    5.8430 H   0  0  0  0  0  0  0  0  0  0  0  0
   -2.5637    1.0590    5.7483 H   0  0  0  0  0  0  0  0  0  0  0  0
   -2.4435    1.4589    3.1669 N   0  0  0  0  0  0  0  0  0  0  0  0
   -2.1966    1.8850    1.8145 C   0  0  2  0  0  0  0  0  0  0  0  0
   -0.8617    1.2996    1.3733 C   0  0  0  0  0  0  0  0  0  0  0  0
    0.0104    0.9468    2.1646 O   0  0  0  0  0  0  0  0  0  0  0  0
   -2.1879    3.4017    1.7050 C   0  0  0  0  0  0  0  0  0  0  0  0
   -3.2085    1.8948    3.6787 H   0  0  0  0  0  0  0  0  0  0  0  0
   -3.0007    1.4665    1.1994 H   0  0  0  0  0  0  0  0  0  0  0  0
   -1.3888    3.8390    2.3147 H   0  0  0  0  0  0  0  0  0  0  0  0
   -2.0284    3.7240    0.6708 H   0  0  0  0  0  0  0  0  0  0  0  0
   -3.1380    3.8230    2.0508 H   0  0  0  0  0  0  0  0  0  0  0  0
   -0.7390    1.2565   -0.0101 N   0  0  0  0  0  0  0  0  0  0  0  0
    0.4383    0.7557   -0.6738 C   0  0  2  0  0  0  0  0  0  0  0  0
   -0.0329   -0.1549   -1.8020 C   0  0  0  0  0  0  0  0  0  0  0  0
   -0.7466   -1.1380   -1.6146 O   0  0  0  0  0  0  0  0  0  0  0  0
    1.3590   -0.0123    0.2816 C   0  0  0  0  0  0  0  0  0  0  0  0
    1.9249    0.8610    1.3747 C   0  0  0  0  0  0  0  0  0  0  0  0
    2.9319    1.7642    1.1338 N   0  3  0  0  0  0  0  0  0  0  0  0
    1.6198    0.9571    2.7031 C   0  0  0  0  0  0  0  0  0  0  0  0
    3.2427    2.3986    2.2688 C   0  0  0  0  0  0  0  0  0  0  0  0
    2.4506    1.9155    3.2315 N   0  0  0  0  0  0  0  0  0  0  0  0
   -1.5221    1.5532   -0.5874 H   0  0  0  0  0  0  0  0  0  0  0  0
    0.9483    1.6257   -1.1040 H   0  0  0  0  0  0  0  0  0  0  0  0
    2.1793   -0.4831   -0.2770 H   0  0  0  0  0  0  0  0  0  0  0  0
    0.8167   -0.8434    0.7516 H   0  0  0  0  0  0  0  0  0  0  0  0
    3.3759    1.9277    0.2343 H   0  0  0  0  0  0  0  0  0  0  0  0
    0.9274    0.4818    3.3690 H   0  0  0  0  0  0  0  0  0  0  0  0
    3.9953    3.1602    2.3864 H   0  0  0  0  0  0  0  0  0  0  0  0
    2.4638    2.2125    4.2031 H   0  0  0  0  0  0  0  0  0  0  0  0
    0.3975    0.2912   -3.0439 N   0  0  0  0  0  0  0  0  0  0  0  0
    0.0711   -0.3761   -4.2836 C   0  0  2  0  0  0  0  0  0  0  0  0
    0.3967   -1.8550   -4.1216 C   0  0  0  0  0  0  0  0  0  0  0  0
    1.1971   -2.2785   -3.2903 O   0  0  0  0  0  0  0  0  0  0  0  0
    0.8360    0.2240   -5.4530 C   0  0  0  0  0  0  0  0  0  0  0  0
    0.9707    1.1288   -3.0834 H   0  0  0  0  0  0  0  0  0  0  0  0
   -1.0070   -0.2533   -4.4346 H   0  0  0  0  0  0  0  0  0  0  0  0
    1.9180    0.1105   -5.3196 H   0  0  0  0  0  0  0  0  0  0  0  0
    0.5663   -0.2637   -6.3957 H   0  0  0  0  0  0  0  0  0  0  0  0
    0.6235    1.2942   -5.5497 H   0  0  0  0  0  0  0  0  0  0  0  0
   -0.2792   -2.6422   -5.0433 N   0  0  0  0  0  0  0  0  0  0  0  0
   -0.1288   -4.0775   -5.1017 C   0  0  0  0  0  0  0  0  0  0  0  0
   -0.9379   -2.2083   -5.6833 H   0  0  0  0  0  0  0  0  0  0  0  0
    0.6637   -4.3348   -5.8198 H   0  0  0  0  0  0  0  0  0  0  0  0
    0.1413   -4.4585   -4.1057 H   0  0  0  0  0  0  0  0  0  0  0  0
   -1.0771   -4.5326   -5.4236 H   0  0  0  0  0  0  0  0  0  0  0  0
 22 24  2  0  0  0  0
 24 26  1  0  0  0  0
 25 26  1  0  0  0  0
 23 25  2  0  0  0  0
 21 22  1  0  0  0  0
 22 23  1  0  0  0  0
  1  3  1  0  0  0  0
  1  7  1  0  0  0  0
  1  2  2  0  0  0  0
 36 37  1  0  0  0  0
 37 45  1  0  0  0  0
 37 38  2  0  0  0  0
  8  9  1  0  0  0  0
  9 17  1  0  0  0  0
  9 10  2  0  0  0  0
 18 19  1  0  0  0  0
 19 35  1  0  0  0  0
 19 20  2  0  0  0  0
 36 39  1  0  0  0  0
  8 11  1  0  0  0  0
 45 46  1  0  0  0  0
 18 21  1  0  0  0  0
 35 36  1  0  0  0  0
  7  8  1  0  0  0  0
 17 18  1  0  0  0  0
 24 32  1  0  0  0  0
 25 33  1  0  0  0  0
  3  4  1  0  0  0  0
  3  5  1  0  0  0  0
  3  6  1  0  0  0  0
 39 42  1  0  0  0  0
 39 43  1  0  0  0  0
 39 44  1  0  0  0  0
 11 14  1  0  0  0  0
 11 15  1  0  0  0  0
 11 16  1  0  0  0  0
 46 48  1  0  0  0  0
 46 49  1  0  0  0  0
 46 50  1  0  0  0  0
 21 29  1  0  0  0  0
 21 30  1  0  0  0  0
 36 41  1  0  0  0  0
  8 13  1  0  0  0  0
 18 28  1  0  0  0  0
 26 34  1  0  0  0  0
 23 31  1  0  0  0  0
 45 47  1  0  0  0  0
  7 12  1  0  0  0  0
 35 40  1  0  0  0  0
 17 27  1  0  0  0  0
M  CHG  1  23   1
M  END
$$$$

  -OEChem-05262214473D

 50 50  0     1  0  0  0  0  0999 V2000
   -1.6938    0.4865    3.8080 C   0  0  0  0  0  0  0  0  0  0  0  0
   -0.7464   -0.1282    3.3323 O   0  0  0  0  0  0  0  0  0  0  0  0
   -2.1257    0.2041    5.2087 C   0  0  0  0  0  0  0  0  0  0  0  0
   -2.8853   -0.5922    5.2621 H   0  0  0  0  0  0  0  0  0  0  0  0
   -1.2944   -0.1435    5.8430 H   0  0  0  0  0  0  0  0  0  0  0  0
   -2.5637    1.0590    5.7483 H   0  0  0  0  0  0  0  0  0  0  0  0
   -2.4435    1.4589    3.1669 N   0  0  0  0  0  0  0  0  0  0  0  0
   -2.1966    1.8850    1.8145 C   0  0  2  0  0  0  0  0  0  0  0  0
   -0.8617    1.2996    1.3733 C   0  0  0  0  0  0  0  0  0  0  0  0
    0.0104    0.9468    2.1646 O   0  0  0  0  0  0  0  0  0  0  0  0
   -2.1879    3.4017    1.7050 C   0  0  0  0  0  0  0  0  0  0  0  0
   -3.2085    1.8948    3.6787 H   0  0  0  0  0  0  0  0  0  0  0  0
   -3.0007    1.4665    1.1994 H   0  0  0  0  0  0  0  0  0  0  0  0
   -1.3888    3.8390    2.3147 H   0  0  0  0  0  0  0  0  0  0  0  0
   -2.0284    3.7240    0.6708 H   0  0  0  0  0  0  0  0  0  0  0  0
   -3.1380    3.8230    2.0508 H   0  0  0  0  0  0  0  0  0  0  0  0
   -0.7390    1.2565   -0.0101 N   0  0  0  0  0  0  0  0  0  0  0  0
    0.4383    0.7557   -0.6738 C   0  0  2  0  0  0  0  0  0  0  0  0
   -0.0329   -0.1549   -1.8020 C   0  0  0  0  0  0  0  0  0  0  0  0
   -0.9466   -0.9664   -1.6696 O   0  0  0  0  0  0  0  0  0  0  0  0
    1.3590   -0.0123    0.2816 C   0  0  0  0  0  0  0  0  0  0  0  0
    1.9249    0.8610    1.3747 C   0  0  0  0  0  0  0  0  0  0  0  0
    2.9319    1.7642    1.1338 N   0  3  0  0  0  0  0  0  0  0  0  0
    1.6198    0.9571    2.7031 C   0  0  0  0  0  0  0  0  0  0  0  0
    3.2427    2.3986    2.2688 C   0  0  0  0  0  0  0  0  0  0  0  0
    2.4506    1.9155    3.2315 N   0  0  0  0  0  0  0  0  0  0  0  0
   -1.5221    1.5532   -0.5874 H   0  0  0  0  0  0  0  0  0  0  0  0
    0.9483    1.6257   -1.1040 H   0  0  0  0  0  0  0  0  0  0  0  0
    2.1793   -0.4831   -0.2770 H   0  0  0  0  0  0  0  0  0  0  0  0
    0.8167   -0.8434    0.7516 H   0  0  0  0  0  0  0  0  0  0  0  0
    3.3759    1.9277    0.2343 H   0  0  0  0  0  0  0  0  0  0  0  0
    0.9274    0.4818    3.3690 H   0  0  0  0  0  0  0  0  0  0  0  0
    3.9953    3.1602    2.3864 H   0  0  0  0  0  0  0  0  0  0  0  0
    2.4638    2.2125    4.2031 H   0  0  0  0  0  0  0  0  0  0  0  0
    0.6548    0.0836   -2.9838 N   0  0  0  0  0  0  0  0  0  0  0  0
    0.3884   -0.6264   -4.2141 C   0  0  2  0  0  0  0  0  0  0  0  0
    0.3876   -2.1178   -3.9057 C   0  0  0  0  0  0  0  0  0  0  0  0
    0.9576   -2.6013   -2.9297 O   0  0  0  0  0  0  0  0  0  0  0  0
    1.4201   -0.2924   -5.2803 C   0  0  0  0  0  0  0  0  0  0  0  0
    1.3818    0.7929   -2.9840 H   0  0  0  0  0  0  0  0  0  0  0  0
   -0.6100   -0.3210   -4.5458 H   0  0  0  0  0  0  0  0  0  0  0  0
    2.4267   -0.5912   -4.9658 H   0  0  0  0  0  0  0  0  0  0  0  0
    1.2006   -0.8090   -6.2205 H   0  0  0  0  0  0  0  0  0  0  0  0
    1.4401    0.7845   -5.4795 H   0  0  0  0  0  0  0  0  0  0  0  0
   -0.2879   -2.8502   -4.8718 N   0  0  0  0  0  0  0  0  0  0  0  0
   -0.4175   -4.2875   -4.8116 C   0  0  0  0  0  0  0  0  0  0  0  0
   -0.7465   -2.3646   -5.6371 H   0  0  0  0  0  0  0  0  0  0  0  0
    0.4051   -4.7542   -5.3734 H   0  0  0  0  0  0  0  0  0  0  0  0
   -0.3773   -4.6155   -3.7625 H   0  0  0  0  0  0  0  0  0  0  0  0
   -1.3793   -4.5875   -5.2530 H   0  0  0  0  0  0  0  0  0  0  0  0
 22 24  2  0  0  0  0
 24 26  1  0  0  0  0
 25 26  1  0  0  0  0
 23 25  2  0  0  0  0
 21 22  1  0  0  0  0
 22 23  1  0  0  0  0
  1  3  1  0  0  0  0
  1  7  1  0  0  0  0
  1  2  2  0  0  0  0
 36 37  1  0  0  0  0
 37 45  1  0  0  0  0
 37 38  2  0  0  0  0
  8  9  1  0  0  0  0
  9 17  1  0  0  0  0
  9 10  2  0  0  0  0
 18 19  1  0  0  0  0
 19 35  1  0  0  0  0
 19 20  2  0  0  0  0
 36 39  1  0  0  0  0
  8 11  1  0  0  0  0
 45 46  1  0  0  0  0
 18 21  1  0  0  0  0
 35 36  1  0  0  0  0
  7  8  1  0  0  0  0
 17 18  1  0  0  0  0
 24 32  1  0  0  0  0
 25 33  1  0  0  0  0
  3  4  1  0  0  0  0
  3  5  1  0  0  0  0
  3  6  1  0  0  0  0
 39 42  1  0  0  0  0
 39 43  1  0  0  0  0
 39 44  1  0  0  0  0
 11 14  1  0  0  0  0
 11 15  1  0  0  0  0
 11 16  1  0  0  0  0
 46 48  1  0  0  0  0
 46 49  1  0  0  0  0
 46 50  1  0  0  0  0
 21 29  1  0  0  0  0
 21 30  1  0  0  0  0
 36 41  1  0  0  0  0
  8 13  1  0  0  0  0
 18 28  1  0  0  0  0
 26 34  1  0  0  0  0
 23 31  1  0  0  0  0
 45 47  1  0  0  0  0
  7 12  1  0  0  0  0
 35 40  1  0  0  0  0
 17 27  1  0  0  0  0
M  CHG  1  23   1
M  END
$$$$

  -OEChem-05262214473D

 50 50  0     1  0  0  0  0  0999 V2000
   -1.6938    0.4865    3.8080 C   0  0  0  0  0  0  0  0  0  0  0  0
   -0.7464   -0.1282    3.3323 O   0  0  0  0  0  0  0  0  0  0  0  0
   -2.1257    0.2041    5.2087 C   0  0  0  0  0  0  0  0  0  0  0  0
   -2.8853   -0.5922    5.2621 H   0  0  0  0  0  0  0  0  0  0  0  0
   -1.2944   -0.1435    5.8430 H   0  0  0  0  0  0  0  0  0  0  0  0
   -2.5637    1.0590    5.7483 H   0  0  0  0  0  0  0  0  0  0  0  0
   -2.4435    1.4589    3.1669 N   0  0  0  0  0  0  0  0  0  0  0  0
   -2.1966    1.8850    1.8145 C   0  0  2  0  0  0  0  0  0  0  0  0
   -0.8617    1.2996    1.3733 C   0  0  0  0  0  0  0  0  0  0  0  0
    0.0104    0.9468    2.1646 O   0  0  0  0  0  0  0  0  0  0  0  0
   -2.1879    3.4017    1.7050 C   0  0  0  0  0  0  0  0  0  0  0  0
   -3.2085    1.8948    3.6787 H   0  0  0  0  0  0  0  0  0  0  0  0
   -3.0007    1.4665    1.1994 H   0  0  0  0  0  0  0  0  0  0  0  0
   -1.3888    3.8390    2.3147 H   0  0  0  0  0  0  0  0  0  0  0  0
   -2.0284    3.7240    0.6708 H   0  0  0  0  0  0  0  0  0  0  0  0
   -3.1380    3.8230    2.0508 H   0  0  0  0  0  0  0  0  0  0  0  0
   -0.7390    1.2565   -0.0101 N   0  0  0  0  0  0  0  0  0  0  0  0
    0.4383    0.7557   -0.6738 C   0  0  2  0  0  0  0  0  0  0  0  0
   -0.0329   -0.1549   -1.8020 C   0  0  0  0  0  0  0  0  0  0  0  0
   -1.0984   -0.7668   -1.7673 O   0  0  0  0  0  0  0  0  0  0  0  0
    1.3590   -0.0123    0.2816 C   0  0  0  0  0  0  0  0  0  0  0  0
    1.9249    0.8610    1.3747 C   0  0  0  0  0  0  0  0  0  0  0  0
    2.9319    1.7642    1.1338 N   0  3  0  0  0  0  0  0  0  0  0  0
    1.6198    0.9571    2.7031 C   0  0  0  0  0  0  0  0  0  0  0  0
    3.2427    2.3986    2.2688 C   0  0  0  0  0  0  0  0  0  0  0  0
    2.4506    1.9155    3.2315 N   0  0  0  0  0  0  0  0  0  0  0  0
   -1.5221    1.5532   -0.5874 H   0  0  0  0  0  0  0  0  0  0  0  0
    0.9483    1.6257   -1.1040 H   0  0  0  0  0  0  0  0  0  0  0  0
    2.1793   -0.4831   -0.2770 H   0  0  0  0  0  0  0  0  0  0  0  0
    0.8167   -0.8434    0.7516 H   0  0  0  0  0  0  0  0  0  0  0  0
    3.3759    1.9277    0.2343 H   0  0  0  0  0  0  0  0  0  0  0  0
    0.9274    0.4818    3.3690 H   0  0  0  0  0  0  0  0  0  0  0  0
    3.9953    3.1602    2.3864 H   0  0  0  0  0  0  0  0  0  0  0  0
    2.4638    2.2125    4.2031 H   0  0  0  0  0  0  0  0  0  0  0  0
    0.8542   -0.1613   -2.8694 N   0  0  0  0  0  0  0  0  0  0  0  0
    0.6362   -0.9234   -4.0779 C   0  0  2  0  0  0  0  0  0  0  0  0
    0.2951   -2.3527   -3.6775 C   0  0  0  0  0  0  0  0  0  0  0  0
    0.6086   -2.8383   -2.5926 O   0  0  0  0  0  0  0  0  0  0  0  0
    1.8587   -0.8892   -4.9818 C   0  0  0  0  0  0  0  0  0  0  0  0
    1.6993    0.3977   -2.7976 H   0  0  0  0  0  0  0  0  0  0  0  0
   -0.2223   -0.4713   -4.5864 H   0  0  0  0  0  0  0  0  0  0  0  0
    2.7291   -1.3380   -4.4893 H   0  0  0  0  0  0  0  0  0  0  0  0
    1.6818   -1.4432   -5.9096 H   0  0  0  0  0  0  0  0  0  0  0  0
    2.1204    0.1414   -5.2446 H   0  0  0  0  0  0  0  0  0  0  0  0
   -0.3626   -3.0358   -4.6909 N   0  0  0  0  0  0  0  0  0  0  0  0
   -0.7814   -4.4117   -4.5593 C   0  0  0  0  0  0  0  0  0  0  0  0
   -0.5987   -2.5486   -5.5503 H   0  0  0  0  0  0  0  0  0  0  0  0
    0.0059   -5.0740   -4.9485 H   0  0  0  0  0  0  0  0  0  0  0  0
   -0.9614   -4.6403   -3.4985 H   0  0  0  0  0  0  0  0  0  0  0  0
   -1.7082   -4.5690   -5.1306 H   0  0  0  0  0  0  0  0  0  0  0  0
 22 24  2  0  0  0  0
 24 26  1  0  0  0  0
 25 26  1  0  0  0  0
 23 25  2  0  0  0  0
 21 22  1  0  0  0  0
 22 23  1  0  0  0  0
  1  3  1  0  0  0  0
  1  7  1  0  0  0  0
  1  2  2  0  0  0  0
 36 37  1  0  0  0  0
 37 45  1  0  0  0  0
 37 38  2  0  0  0  0
  8  9  1  0  0  0  0
  9 17  1  0  0  0  0
  9 10  2  0  0  0  0
 18 19  1  0  0  0  0
 19 35  1  0  0  0  0
 19 20  2  0  0  0  0
 36 39  1  0  0  0  0
  8 11  1  0  0  0  0
 45 46  1  0  0  0  0
 18 21  1  0  0  0  0
 35 36  1  0  0  0  0
  7  8  1  0  0  0  0
 17 18  1  0  0  0  0
 24 32  1  0  0  0  0
 25 33  1  0  0  0  0
  3  4  1  0  0  0  0
  3  5  1  0  0  0  0
  3  6  1  0  0  0  0
 39 42  1  0  0  0  0
 39 43  1  0  0  0  0
 39 44  1  0  0  0  0
 11 14  1  0  0  0  0
 11 15  1  0  0  0  0
 11 16  1  0  0  0  0
 46 48  1  0  0  0  0
 46 49  1  0  0  0  0
 46 50  1  0  0  0  0
 21 29  1  0  0  0  0
 21 30  1  0  0  0  0
 36 41  1  0  0  0  0
  8 13  1  0  0  0  0
 18 28  1  0  0  0  0
 26 34  1  0  0  0  0
 23 31  1  0  0  0  0
 45 47  1  0  0  0  0
  7 12  1  0  0  0  0
 35 40  1  0  0  0  0
 17 27  1  0  0  0  0
M  CHG  1  23   1
M  END
$$$$

  -OEChem-05262214473D

 50 50  0     1  0  0  0  0  0999 V2000
   -1.6938    0.4865    3.8080 C   0  0  0  0  0  0  0  0  0  0  0  0
   -0.7464   -0.1282    3.3323 O   0  0  0  0  0  0  0  0  0  0  0  0
   -2.1257    0.2041    5.2087 C   0  0  0  0  0  0  0  0  0  0  0  0
   -2.8853   -0.5922    5.2621 H   0  0  0  0  0  0  0  0  0  0  0  0
   -1.2944   -0.1435    5.8430 H   0  0  0  0  0  0  0  0  0  0  0  0
   -2.5637    1.0590    5.7483 H   0  0  0  0  0  0  0  0  0  0  0  0
   -2.4435    1.4589    3.1669 N   0  0  0  0  0  0  0  0  0  0  0  0
   -2.1966    1.8850    1.8145 C   0  0  2  0  0  0  0  0  0  0  0  0
   -0.8617    1.2996    1.3733 C   0  0  0  0  0  0  0  0  0  0  0  0
    0.0104    0.9468    2.1646 O   0  0  0  0  0  0  0  0  0  0  0  0
   -2.1879    3.4017    1.7050 C   0  0  0  0  0  0  0  0  0  0  0  0
   -3.2085    1.8948    3.6787 H   0  0  0  0  0  0  0  0  0  0  0  0
   -3.0007    1.4665    1.1994 H   0  0  0  0  0  0  0  0  0  0  0  0
   -1.3888    3.8390    2.3147 H   0  0  0  0  0  0  0  0  0  0  0  0
   -2.0284    3.7240    0.6708 H   0  0  0  0  0  0  0  0  0  0  0  0
   -3.1380    3.8230    2.0508 H   0  0  0  0  0  0  0  0  0  0  0  0
   -0.7390    1.2565   -0.0101 N   0  0  0  0  0  0  0  0  0  0  0  0
    0.4383    0.7557   -0.6738 C   0  0  2  0  0  0  0  0  0  0  0  0
   -0.0329   -0.1549   -1.8020 C   0  0  0  0  0  0  0  0  0  0  0  0
   -1.1917   -0.5527   -1.9011 O   0  0  0  0  0  0  0  0  0  0  0  0
    1.3590   -0.0123    0.2816 C   0  0  0  0  0  0  0  0  0  0  0  0
    1.9249    0.8610    1.3747 C   0  0  0  0  0  0  0  0  0  0  0  0
    2.9319    1.7642    1.1338 N   0  3  0  0  0  0  0  0  0  0  0  0
    1.6198    0.9571    2.7031 C   0  0  0  0  0  0  0  0  0  0  0  0
    3.2427    2.3986    2.2688 C   0  0  0  0  0  0  0  0  0  0  0  0
    2.4506    1.9155    3.2315 N   0  0  0  0  0  0  0  0  0  0  0  0
   -1.5221    1.5532   -0.5874 H   0  0  0  0  0  0  0  0  0  0  0  0
    0.9483    1.6257   -1.1040 H   0  0  0  0  0  0  0  0  0  0  0  0
    2.1793   -0.4831   -0.2770 H   0  0  0  0  0  0  0  0  0  0  0  0
    0.8167   -0.8434    0.7516 H   0  0  0  0  0  0  0  0  0  0  0  0
    3.3759    1.9277    0.2343 H   0  0  0  0  0  0  0  0  0  0  0  0
    0.9274    0.4818    3.3690 H   0  0  0  0  0  0  0  0  0  0  0  0
    3.9953    3.1602    2.3864 H   0  0  0  0  0  0  0  0  0  0  0  0
    2.4638    2.2125    4.2031 H   0  0  0  0  0  0  0  0  0  0  0  0
    0.9823   -0.4270   -2.7085 N   0  0  0  0  0  0  0  0  0  0  0  0
    0.7976   -1.2469   -3.8843 C   0  0  2  0  0  0  0  0  0  0  0  0
    0.1255   -2.5436   -3.4526 C   0  0  0  0  0  0  0  0  0  0  0  0
    0.1740   -2.9735   -2.3020 O   0  0  0  0  0  0  0  0  0  0  0  0
    2.1219   -1.5258   -4.5779 C   0  0  0  0  0  0  0  0  0  0  0  0
    1.9013   -0.0300   -2.5369 H   0  0  0  0  0  0  0  0  0  0  0  0
    0.1297   -0.6940   -4.5537 H   0  0  0  0  0  0  0  0  0  0  0  0
    2.8043   -2.0792   -3.9226 H   0  0  0  0  0  0  0  0  0  0  0  0
    1.9770   -2.1231   -5.4842 H   0  0  0  0  0  0  0  0  0  0  0  0
    2.6180   -0.5912   -4.8611 H   0  0  0  0  0  0  0  0  0  0  0  0
   -0.4983   -3.1862   -4.5128 N   0  0  0  0  0  0  0  0  0  0  0  0
   -1.1958   -4.4419   -4.3619 C   0  0  0  0  0  0  0  0  0  0  0  0
   -0.5046   -2.7477   -5.4290 H   0  0  0  0  0  0  0  0  0  0  0  0
   -0.5066   -5.2725   -4.5742 H   0  0  0  0  0  0  0  0  0  0  0  0
   -1.5711   -4.5312   -3.3318 H   0  0  0  0  0  0  0  0  0  0  0  0
   -2.0412   -4.4783   -5.0647 H   0  0  0  0  0  0  0  0  0  0  0  0
 22 24  2  0  0  0  0
 24 26  1  0  0  0  0
 25 26  1  0  0  0  0
 23 25  2  0  0  0  0
 21 22  1  0  0  0  0
 22 23  1  0  0  0  0
  1  3  1  0  0  0  0
  1  7  1  0  0  0  0
  1  2  2  0  0  0  0
 36 37  1  0  0  0  0
 37 45  1  0  0  0  0
 37 38  2  0  0  0  0
  8  9  1  0  0  0  0
  9 17  1  0  0  0  0
  9 10  2  0  0  0  0
 18 19  1  0  0  0  0
 19 35  1  0  0  0  0
 19 20  2  0  0  0  0
 36 39  1  0  0  0  0
  8 11  1  0  0  0  0
 45 46  1  0  0  0  0
 18 21  1  0  0  0  0
 35 36  1  0  0  0  0
  7  8  1  0  0  0  0
 17 18  1  0  0  0  0
 24 32  1  0  0  0  0
 25 33  1  0  0  0  0
  3  4  1  0  0  0  0
  3  5  1  0  0  0  0
  3  6  1  0  0  0  0
 39 42  1  0  0  0  0
 39 43  1  0  0  0  0
 39 44  1  0  0  0  0
 11 14  1  0  0  0  0
 11 15  1  0  0  0  0
 11 16  1  0  0  0  0
 46 48  1  0  0  0  0
 46 49  1  0  0  0  0
 46 50  1  0  0  0  0
 21 29  1  0  0  0  0
 21 30  1  0  0  0  0
 36 41  1  0  0  0  0
  8 13  1  0  0  0  0
 18 28  1  0  0  0  0
 26 34  1  0  0  0  0
 23 31  1  0  0  0  0
 45 47  1  0  0  0  0
  7 12  1  0  0  0  0
 35 40  1  0  0  0  0
 17 27  1  0  0  0  0
M  CHG  1  23   1
M  END
$$$$

  -OEChem-05262214473D

 50 50  0     1  0  0  0  0  0999 V2000
   -1.6938    0.4865    3.8080 C   0  0  0  0  0  0  0  0  0  0  0  0
   -0.7464   -0.1282    3.3323 O   0  0  0  0  0  0  0  0  0  0  0  0
   -2.1257    0.2041    5.2087 C   0  0  0  0  0  0  0  0  0  0  0  0
   -2.8853   -0.5922    5.2621 H   0  0  0  0  0  0  0  0  0  0  0  0
   -1.2944   -0.1435    5.8430 H   0  0  0  0  0  0  0  0  0  0  0  0
   -2.5637    1.0590    5.7483 H   0  0  0  0  0  0  0  0  0  0  0  0
   -2.4435    1.4589    3.1669 N   0  0  0  0  0  0  0  0  0  0  0  0
   -2.1966    1.8850    1.8145 C   0  0  2  0  0  0  0  0  0  0  0  0
   -0.8617    1.2996    1.3733 C   0  0  0  0  0  0  0  0  0  0  0  0
    0.0104    0.9468    2.1646 O   0  0  0  0  0  0  0  0  0  0  0  0
   -2.1879    3.4017    1.7050 C   0  0  0  0  0  0  0  0  0  0  0  0
   -3.2085    1.8948    3.6787 H   0  0  0  0  0  0  0  0  0  0  0  0
   -3.0007    1.4665    1.1994 H   0  0  0  0  0  0  0  0  0  0  0  0
   -1.3888    3.8390    2.3147 H   0  0  0  0  0  0  0  0  0  0  0  0
   -2.0284    3.7240    0.6708 H   0  0  0  0  0  0  0  0  0  0  0  0
   -3.1380    3.8230    2.0508 H   0  0  0  0  0  0  0  0  0  0  0  0
   -0.7390    1.2565   -0.0101 N   0  0  0  0  0  0  0  0  0  0  0  0
    0.4383    0.7557   -0.6738 C   0  0  2  0  0  0  0  0  0  0  0  0
   -0.0114    0.1655   -2.0055 C   0  0  0  0  0  0  0  0  0  0  0  0
   -1.1786    0.1937   -2.3898 O   0  0  0  0  0  0  0  0  0  0  0  0
    1.1663   -0.3047    0.1604 C   0  0  0  0  0  0  0  0  0  0  0  0
    1.7091    0.2444    1.4572 C   0  0  0  0  0  0  0  0  0  0  0  0
    2.8284    1.0404    1.4963 N   0  3  0  0  0  0  0  0  0  0  0  0
    1.2815    0.1033    2.7472 C   0  0  0  0  0  0  0  0  0  0  0  0
    3.0885    1.3820    2.7624 C   0  0  0  0  0  0  0  0  0  0  0  0
    2.1536    0.8171    3.5334 N   0  0  0  0  0  0  0  0  0  0  0  0
   -1.5221    1.5532   -0.5874 H   0  0  0  0  0  0  0  0  0  0  0  0
    1.0820    1.6225   -0.8644 H   0  0  0  0  0  0  0  0  0  0  0  0
    1.9831   -0.7520   -0.4221 H   0  0  0  0  0  0  0  0  0  0  0  0
    0.4908   -1.1378    0.3957 H   0  0  0  0  0  0  0  0  0  0  0  0
    3.3777    1.3270    0.6906 H   0  0  0  0  0  0  0  0  0  0  0  0
    0.4765   -0.4057    3.2388 H   0  0  0  0  0  0  0  0  0  0  0  0
    3.9039    1.9996    3.1000 H   0  0  0  0  0  0  0  0  0  0  0  0
    2.0993    0.9034    4.5443 H   0  0  0  0  0  0  0  0  0  0  0  0
    1.0535   -0.3495   -2.7317 N   0  0  0  0  0  0  0  0  0  0  0  0
    0.9071   -0.9473   -4.0393 C   0  0  2  0  0  0  0  0  0  0  0  0
   -0.2151   -1.9742   -3.9640 C   0  0  0  0  0  0  0  0  0  0  0  0
   -0.5748   -2.4987   -2.9121 O   0  0  0  0  0  0  0  0  0  0  0  0
    2.2043   -1.5926   -4.5012 C   0  0  0  0  0  0  0  0  0  0  0  0
    1.9825   -0.3040   -2.3235 H   0  0  0  0  0  0  0  0  0  0  0  0
    0.6207   -0.1422   -4.7248 H   0  0  0  0  0  0  0  0  0  0  0  0
    2.5072   -2.4017   -3.8266 H   0  0  0  0  0  0  0  0  0  0  0  0
    2.0999   -2.0200   -5.5039 H   0  0  0  0  0  0  0  0  0  0  0  0
    3.0173   -0.8589   -4.5262 H   0  0  0  0  0  0  0  0  0  0  0  0
   -0.7385   -2.2680   -5.2154 N   0  0  0  0  0  0  0  0  0  0  0  0
   -1.8051   -3.2223   -5.4099 C   0  0  0  0  0  0  0  0  0  0  0  0
   -0.3925   -1.7712   -6.0309 H   0  0  0  0  0  0  0  0  0  0  0  0
   -1.3771   -4.2138   -5.6189 H   0  0  0  0  0  0  0  0  0  0  0  0
   -2.4215   -3.2735   -4.5002 H   0  0  0  0  0  0  0  0  0  0  0  0
   -2.4294   -2.9062   -6.2586 H   0  0  0  0  0  0  0  0  0  0  0  0
 22 24  2  0  0  0  0
 24 26  1  0  0  0  0
 25 26  1  0  0  0  0
 23 25  2  0  0  0  0
 21 22  1  0  0  0  0
 22 23  1  0  0  0  0
  1  3  1  0  0  0  0
  1  7  1  0  0  0  0
  1  2  2  0  0  0  0
 36 37  1  0  0  0  0
 37 45  1  0  0  0  0
 37 38  2  0  0  0  0
  8  9  1  0  0  0  0
  9 17  1  0  0  0  0
  9 10  2  0  0  0  0
 18 19  1  0  0  0  0
 19 35  1  0  0  0  0
 19 20  2  0  0  0  0
 36 39  1  0  0  0  0
  8 11  1  0  0  0  0
 45 46  1  0  0  0  0
 18 21  1  0  0  0  0
 35 36  1  0  0  0  0
  7  8  1  0  0  0  0
 17 18  1  0  0  0  0
 24 32  1  0  0  0  0
 25 33  1  0  0  0  0
  3  4  1  0  0  0  0
  3  5  1  0  0  0  0
  3  6  1  0  0  0  0
 39 42  1  0  0  0  0
 39 43  1  0  0  0  0
 39 44  1  0  0  0  0
 11 14  1  0  0  0  0
 11 15  1  0  0  0  0
 11 16  1  0  0  0  0
 46 48  1  0  0  0  0
 46 49  1  0  0  0  0
 46 50  1  0  0  0  0
 21 29  1  0  0  0  0
 21 30  1  0  0  0  0
 36 41  1  0  0  0  0
  8 13  1  0  0  0  0
 18 28  1  0  0  0  0
 26 34  1  0  0  0  0
 23 31  1  0  0  0  0
 45 47  1  0  0  0  0
  7 12  1  0  0  0  0
 35 40  1  0  0  0  0
 17 27  1  0  0  0  0
M  CHG  1  23   1
M  END
$$$$

  -OEChem-05262214473D

 50 50  0     1  0  0  0  0  0999 V2000
   -1.6938    0.4865    3.8080 C   0  0  0  0  0  0  0  0  0  0  0  0
   -0.7464   -0.1282    3.3323 O   0  0  0  0  0  0  0  0  0  0  0  0
   -2.1257    0.2041    5.2087 C   0  0  0  0  0  0  0  0  0  0  0  0
   -2.8853   -0.5922    5.2621 H   0  0  0  0  0  0  0  0  0  0  0  0
   -1.2944   -0.1435    5.8430 H   0  0  0  0  0  0  0  0  0  0  0  0
   -2.5637    1.0590    5.7483 H   0  0  0  0  0  0  0  0  0  0  0  0
   -2.4435    1.4589    3.1669 N   0  0  0  0  0  0  0  0  0  0  0  0
   -2.1966    1.8850    1.8145 C   0  0  2  0  0  0  0  0  0  0  0  0
   -0.8617    1.2996    1.3733 C   0  0  0  0  0  0  0  0  0  0  0  0
    0.0104    0.9468    2.1646 O   0  0  0  0  0  0  0  0  0  0  0  0
   -2.1879    3.4017    1.7050 C   0  0  0  0  0  0  0  0  0  0  0  0
   -3.2085    1.8948    3.6787 H   0  0  0  0  0  0  0  0  0  0  0  0
   -3.0007    1.4665    1.1994 H   0  0  0  0  0  0  0  0  0  0  0  0
   -1.3888    3.8390    2.3147 H   0  0  0  0  0  0  0  0  0  0  0  0
   -2.0284    3.7240    0.6708 H   0  0  0  0  0  0  0  0  0  0  0  0
   -3.1380    3.8230    2.0508 H   0  0  0  0  0  0  0  0  0  0  0  0
   -0.7390    1.2565   -0.0101 N   0  0  0  0  0  0  0  0  0  0  0  0
    0.4383    0.7557   -0.6738 C   0  0  2  0  0  0  0  0  0  0  0  0
   -0.0114    0.1655   -2.0055 C   0  0  0  0  0  0  0  0  0  0  0  0
   -1.1007    0.4184   -2.5158 O   0  0  0  0  0  0  0  0  0  0  0  0
    1.1663   -0.3047    0.1604 C   0  0  0  0  0  0  0  0  0  0  0  0
    1.7091    0.2444    1.4572 C   0  0  0  0  0  0  0  0  0  0  0  0
    2.8284    1.0404    1.4963 N   0  3  0  0  0  0  0  0  0  0  0  0
    1.2815    0.1033    2.7472 C   0  0  0  0  0  0  0  0  0  0  0  0
    3.0885    1.3820    2.7624 C   0  0  0  0  0  0  0  0  0  0  0  0
    2.1536    0.8171    3.5334 N   0  0  0  0  0  0  0  0  0  0  0  0
   -1.5221    1.5532   -0.5874 H   0  0  0  0  0  0  0  0  0  0  0  0
    1.0820    1.6225   -0.8644 H   0  0  0  0  0  0  0  0  0  0  0  0
    1.9831   -0.7520   -0.4221 H   0  0  0  0  0  0  0  0  0  0  0  0
    0.4908   -1.1378    0.3957 H   0  0  0  0  0  0  0  0  0  0  0  0
    3.3777    1.3270    0.6906 H   0  0  0  0  0  0  0  0  0  0  0  0
    0.4765   -0.4057    3.2388 H   0  0  0  0  0  0  0  0  0  0  0  0
    3.9039    1.9996    3.1000 H   0  0  0  0  0  0  0  0  0  0  0  0
    2.0993    0.9034    4.5443 H   0  0  0  0  0  0  0  0  0  0  0  0
    0.9683   -0.6350   -2.5764 N   0  0  0  0  0  0  0  0  0  0  0  0
    0.8085   -1.2978   -3.8507 C   0  0  2  0  0  0  0  0  0  0  0  0
   -0.5218   -2.0390   -3.8317 C   0  0  0  0  0  0  0  0  0  0  0  0
   -1.0872   -2.3760   -2.7935 O   0  0  0  0  0  0  0  0  0  0  0  0
    1.9592   -2.2533   -4.1256 C   0  0  0  0  0  0  0  0  0  0  0  0
    1.8416   -0.7614   -2.0732 H   0  0  0  0  0  0  0  0  0  0  0  0
    0.7789   -0.5127   -4.6141 H   0  0  0  0  0  0  0  0  0  0  0  0
    2.0049   -3.0470   -3.3710 H   0  0  0  0  0  0  0  0  0  0  0  0
    1.8514   -2.7332   -5.1039 H   0  0  0  0  0  0  0  0  0  0  0  0
    2.9179   -1.7237   -4.1094 H   0  0  0  0  0  0  0  0  0  0  0  0
   -0.9821   -2.3180   -5.1109 N   0  0  0  0  0  0  0  0  0  0  0  0
   -2.2172   -3.0247   -5.3583 C   0  0  0  0  0  0  0  0  0  0  0  0
   -0.4580   -1.9841   -5.9144 H   0  0  0  0  0  0  0  0  0  0  0  0
   -2.0114   -4.1010   -5.4547 H   0  0  0  0  0  0  0  0  0  0  0  0
   -2.9094   -2.8576   -4.5198 H   0  0  0  0  0  0  0  0  0  0  0  0
   -2.6718   -2.6537   -6.2886 H   0  0  0  0  0  0  0  0  0  0  0  0
 22 24  2  0  0  0  0
 24 26  1  0  0  0  0
 25 26  1  0  0  0  0
 23 25  2  0  0  0  0
 21 22  1  0  0  0  0
 22 23  1  0  0  0  0
  1  3  1  0  0  0  0
  1  7  1  0  0  0  0
  1  2  2  0  0  0  0
 36 37  1  0  0  0  0
 37 45  1  0  0  0  0
 37 38  2  0  0  0  0
  8  9  1  0  0  0  0
  9 17  1  0  0  0  0
  9 10  2  0  0  0  0
 18 19  1  0  0  0  0
 19 35  1  0  0  0  0
 19 20  2  0  0  0  0
 36 39  1  0  0  0  0
  8 11  1  0  0  0  0
 45 46  1  0  0  0  0
 18 21  1  0  0  0  0
 35 36  1  0  0  0  0
  7  8  1  0  0  0  0
 17 18  1  0  0  0  0
 24 32  1  0  0  0  0
 25 33  1  0  0  0  0
  3  4  1  0  0  0  0
  3  5  1  0  0  0  0
  3  6  1  0  0  0  0
 39 42  1  0  0  0  0
 39 43  1  0  0  0  0
 39 44  1  0  0  0  0
 11 14  1  0  0  0  0
 11 15  1  0  0  0  0
 11 16  1  0  0  0  0
 46 48  1  0  0  0  0
 46 49  1  0  0  0  0
 46 50  1  0  0  0  0
 21 29  1  0  0  0  0
 21 30  1  0  0  0  0
 36 41  1  0  0  0  0
  8 13  1  0  0  0  0
 18 28  1  0  0  0  0
 26 34  1  0  0  0  0
 23 31  1  0  0  0  0
 45 47  1  0  0  0  0
  7 12  1  0  0  0  0
 35 40  1  0  0  0  0
 17 27  1  0  0  0  0
M  CHG  1  23   1
M  END
$$$$

  -OEChem-05262214473D

 50 50  0     1  0  0  0  0  0999 V2000
   -1.6938    0.4865    3.8080 C   0  0  0  0  0  0  0  0  0  0  0  0
   -0.7464   -0.1282    3.3323 O   0  0  0  0  0  0  0  0  0  0  0  0
   -2.1257    0.2041    5.2087 C   0  0  0  0  0  0  0  0  0  0  0  0
   -2.8853   -0.5922    5.2621 H   0  0  0  0  0  0  0  0  0  0  0  0
   -1.2944   -0.1435    5.8430 H   0  0  0  0  0  0  0  0  0  0  0  0
   -2.5637    1.0590    5.7483 H   0  0  0  0  0  0  0  0  0  0  0  0
   -2.4435    1.4589    3.1669 N   0  0  0  0  0  0  0  0  0  0  0  0
   -2.1966    1.8850    1.8145 C   0  0  2  0  0  0  0  0  0  0  0  0
   -0.8617    1.2996    1.3733 C   0  0  0  0  0  0  0  0  0  0  0  0
    0.0104    0.9468    2.1646 O   0  0  0  0  0  0  0  0  0  0  0  0
   -2.1879    3.4017    1.7050 C   0  0  0  0  0  0  0  0  0  0  0  0
   -3.2085    1.8948    3.6787 H   0  0  0  0  0  0  0  0  0  0  0  0
   -3.0007    1.4665    1.1994 H   0  0  0  0  0  0  0  0  0  0  0  0
   -1.3888    3.8390    2.3147 H   0  0  0  0  0  0  0  0  0  0  0  0
   -2.0284    3.7240    0.6708 H   0  0  0  0  0  0  0  0  0  0  0  0
   -3.1380    3.8230    2.0508 H   0  0  0  0  0  0  0  0  0  0  0  0
   -0.7390    1.2565   -0.0101 N   0  0  0  0  0  0  0  0  0  0  0  0
    0.4383    0.7557   -0.6738 C   0  0  2  0  0  0  0  0  0  0  0  0
   -0.0114    0.1655   -2.0055 C   0  0  0  0  0  0  0  0  0  0  0  0
   -0.9620    0.6083   -2.6468 O   0  0  0  0  0  0  0  0  0  0  0  0
    1.1663   -0.3047    0.1604 C   0  0  0  0  0  0  0  0  0  0  0  0
    1.7091    0.2444    1.4572 C   0  0  0  0  0  0  0  0  0  0  0  0
    2.8284    1.0404    1.4963 N   0  3  0  0  0  0  0  0  0  0  0  0
    1.2815    0.1033    2.7472 C   0  0  0  0  0  0  0  0  0  0  0  0
    3.0885    1.3820    2.7624 C   0  0  0  0  0  0  0  0  0  0  0  0
    2.1536    0.8171    3.5334 N   0  0  0  0  0  0  0  0  0  0  0  0
   -1.5221    1.5532   -0.5874 H   0  0  0  0  0  0  0  0  0  0  0  0
    1.0820    1.6225   -0.8644 H   0  0  0  0  0  0  0  0  0  0  0  0
    1.9831   -0.7520   -0.4221 H   0  0  0  0  0  0  0  0  0  0  0  0
    0.4908   -1.1378    0.3957 H   0  0  0  0  0  0  0  0  0  0  0  0
    3.3777    1.3270    0.6906 H   0  0  0  0  0  0  0  0  0  0  0  0
    0.4765   -0.4057    3.2388 H   0  0  0  0  0  0  0  0  0  0  0  0
    3.9039    1.9996    3.1000 H   0  0  0  0  0  0  0  0  0  0  0  0
    2.0993    0.9034    4.5443 H   0  0  0  0  0  0  0  0  0  0  0  0
    0.8059   -0.8797   -2.4131 N   0  0  0  0  0  0  0  0  0  0  0  0
    0.6151   -1.5997   -3.6516 C   0  0  2  0  0  0  0  0  0  0  0  0
   -0.8460   -2.0222   -3.7297 C   0  0  0  0  0  0  0  0  0  0  0  0
   -1.5662   -2.1326   -2.7396 O   0  0  0  0  0  0  0  0  0  0  0  0
    1.5354   -2.8074   -3.7369 C   0  0  0  0  0  0  0  0  0  0  0  0
    1.5769   -1.1522   -1.8106 H   0  0  0  0  0  0  0  0  0  0  0  0
    0.8368   -0.8978   -4.4629 H   0  0  0  0  0  0  0  0  0  0  0  0
    1.3282   -3.5219   -2.9320 H   0  0  0  0  0  0  0  0  0  0  0  0
    1.4100   -3.3354   -4.6880 H   0  0  0  0  0  0  0  0  0  0  0  0
    2.5846   -2.5047   -3.6507 H   0  0  0  0  0  0  0  0  0  0  0  0
   -1.2392   -2.3032   -5.0307 N   0  0  0  0  0  0  0  0  0  0  0  0
   -2.5758   -2.7368   -5.3648 C   0  0  0  0  0  0  0  0  0  0  0  0
   -0.5812   -2.1661   -5.7922 H   0  0  0  0  0  0  0  0  0  0  0  0
   -2.6151   -3.8361   -5.3683 H   0  0  0  0  0  0  0  0  0  0  0  0
   -3.2846   -2.3470   -4.6194 H   0  0  0  0  0  0  0  0  0  0  0  0
   -2.8459   -2.3572   -6.3612 H   0  0  0  0  0  0  0  0  0  0  0  0
 22 24  2  0  0  0  0
 24 26  1  0  0  0  0
 25 26  1  0  0  0  0
 23 25  2  0  0  0  0
 21 22  1  0  0  0  0
 22 23  1  0  0  0  0
  1  3  1  0  0  0  0
  1  7  1  0  0  0  0
  1  2  2  0  0  0  0
 36 37  1  0  0  0  0
 37 45  1  0  0  0  0
 37 38  2  0  0  0  0
  8  9  1  0  0  0  0
  9 17  1  0  0  0  0
  9 10  2  0  0  0  0
 18 19  1  0  0  0  0
 19 35  1  0  0  0  0
 19 20  2  0  0  0  0
 36 39  1  0  0  0  0
  8 11  1  0  0  0  0
 45 46  1  0  0  0  0
 18 21  1  0  0  0  0
 35 36  1  0  0  0  0
  7  8  1  0  0  0  0
 17 18  1  0  0  0  0
 24 32  1  0  0  0  0
 25 33  1  0  0  0  0
  3  4  1  0  0  0  0
  3  5  1  0  0  0  0
  3  6  1  0  0  0  0
 39 42  1  0  0  0  0
 39 43  1  0  0  0  0
 39 44  1  0  0  0  0
 11 14  1  0  0  0  0
 11 15  1  0  0  0  0
 11 16  1  0  0  0  0
 46 48  1  0  0  0  0
 46 49  1  0  0  0  0
 46 50  1  0  0  0  0
 21 29  1  0  0  0  0
 21 30  1  0  0  0  0
 36 41  1  0  0  0  0
  8 13  1  0  0  0  0
 18 28  1  0  0  0  0
 26 34  1  0  0  0  0
 23 31  1  0  0  0  0
 45 47  1  0  0  0  0
  7 12  1  0  0  0  0
 35 40  1  0  0  0  0
 17 27  1  0  0  0  0
M  CHG  1  23   1
M  END
$$$$

  -OEChem-05262214473D

 50 50  0     1  0  0  0  0  0999 V2000
   -1.6938    0.4865    3.8080 C   0  0  0  0  0  0  0  0  0  0  0  0
   -0.7464   -0.1282    3.3323 O   0  0  0  0  0  0  0  0  0  0  0  0
   -2.1257    0.2041    5.2087 C   0  0  0  0  0  0  0  0  0  0  0  0
   -2.8853   -0.5922    5.2621 H   0  0  0  0  0  0  0  0  0  0  0  0
   -1.2944   -0.1435    5.8430 H   0  0  0  0  0  0  0  0  0  0  0  0
   -2.5637    1.0590    5.7483 H   0  0  0  0  0  0  0  0  0  0  0  0
   -2.4435    1.4589    3.1669 N   0  0  0  0  0  0  0  0  0  0  0  0
   -2.1966    1.8850    1.8145 C   0  0  2  0  0  0  0  0  0  0  0  0
   -0.8617    1.2996    1.3733 C   0  0  0  0  0  0  0  0  0  0  0  0
    0.0104    0.9468    2.1646 O   0  0  0  0  0  0  0  0  0  0  0  0
   -2.1879    3.4017    1.7050 C   0  0  0  0  0  0  0  0  0  0  0  0
   -3.2085    1.8948    3.6787 H   0  0  0  0  0  0  0  0  0  0  0  0
   -3.0007    1.4665    1.1994 H   0  0  0  0  0  0  0  0  0  0  0  0
   -1.3888    3.8390    2.3147 H   0  0  0  0  0  0  0  0  0  0  0  0
   -2.0284    3.7240    0.6708 H   0  0  0  0  0  0  0  0  0  0  0  0
   -3.1380    3.8230    2.0508 H   0  0  0  0  0  0  0  0  0  0  0  0
   -0.7390    1.2565   -0.0101 N   0  0  0  0  0  0  0  0  0  0  0  0
    0.4383    0.7557   -0.6738 C   0  0  2  0  0  0  0  0  0  0  0  0
   -0.0114    0.1655   -2.0055 C   0  0  0  0  0  0  0  0  0  0  0  0
   -0.7720    0.7504   -2.7739 O   0  0  0  0  0  0  0  0  0  0  0  0
    1.1663   -0.3047    0.1604 C   0  0  0  0  0  0  0  0  0  0  0  0
    1.7091    0.2444    1.4572 C   0  0  0  0  0  0  0  0  0  0  0  0
    2.8284    1.0404    1.4963 N   0  3  0  0  0  0  0  0  0  0  0  0
    1.2815    0.1033    2.7472 C   0  0  0  0  0  0  0  0  0  0  0  0
    3.0885    1.3820    2.7624 C   0  0  0  0  0  0  0  0  0  0  0  0
    2.1536    0.8171    3.5334 N   0  0  0  0  0  0  0  0  0  0  0  0
   -1.5221    1.5532   -0.5874 H   0  0  0  0  0  0  0  0  0  0  0  0
    1.0820    1.6225   -0.8644 H   0  0  0  0  0  0  0  0  0  0  0  0
    1.9831   -0.7520   -0.4221 H   0  0  0  0  0  0  0  0  0  0  0  0
    0.4908   -1.1378    0.3957 H   0  0  0  0  0  0  0  0  0  0  0  0
    3.3777    1.3270    0.6906 H   0  0  0  0  0  0  0  0  0  0  0  0
    0.4765   -0.4057    3.2388 H   0  0  0  0  0  0  0  0  0  0  0  0
    3.9039    1.9996    3.1000 H   0  0  0  0  0  0  0  0  0  0  0  0
    2.0993    0.9034    4.5443 H   0  0  0  0  0  0  0  0  0  0  0  0
    0.5774   -1.0668   -2.2530 N   0  0  0  0  0  0  0  0  0  0  0  0
    0.3401   -1.8325   -3.4556 C   0  0  2  0  0  0  0  0  0  0  0  0
   -1.1656   -1.9249   -3.6649 C   0  0  0  0  0  0  0  0  0  0  0  0
   -1.9792   -1.7850   -2.7542 O   0  0  0  0  0  0  0  0  0  0  0  0
    0.9619   -3.2171   -3.3617 C   0  0  0  0  0  0  0  0  0  0  0  0
    1.2066   -1.4498   -1.5537 H   0  0  0  0  0  0  0  0  0  0  0  0
    0.7905   -1.2714   -4.2817 H   0  0  0  0  0  0  0  0  0  0  0  0
    0.5232   -3.7942   -2.5395 H   0  0  0  0  0  0  0  0  0  0  0  0
    0.8058   -3.7855   -4.2845 H   0  0  0  0  0  0  0  0  0  0  0  0
    2.0401   -3.1488   -3.1814 H   0  0  0  0  0  0  0  0  0  0  0  0
   -1.4922   -2.2247   -4.9800 N   0  0  0  0  0  0  0  0  0  0  0  0
   -2.8564   -2.3780   -5.4290 C   0  0  0  0  0  0  0  0  0  0  0  0
   -0.7535   -2.3047   -5.6726 H   0  0  0  0  0  0  0  0  0  0  0  0
   -3.1470   -3.4371   -5.3655 H   0  0  0  0  0  0  0  0  0  0  0  0
   -3.5217   -1.7766   -4.7921 H   0  0  0  0  0  0  0  0  0  0  0  0
   -2.9397   -2.0370   -6.4715 H   0  0  0  0  0  0  0  0  0  0  0  0
 22 24  2  0  0  0  0
 24 26  1  0  0  0  0
 25 26  1  0  0  0  0
 23 25  2  0  0  0  0
 21 22  1  0  0  0  0
 22 23  1  0  0  0  0
  1  3  1  0  0  0  0
  1  7  1  0  0  0  0
  1  2  2  0  0  0  0
 36 37  1  0  0  0  0
 37 45  1  0  0  0  0
 37 38  2  0  0  0  0
  8  9  1  0  0  0  0
  9 17  1  0  0  0  0
  9 10  2  0  0  0  0
 18 19  1  0  0  0  0
 19 35  1  0  0  0  0
 19 20  2  0  0  0  0
 36 39  1  0  0  0  0
  8 11  1  0  0  0  0
 45 46  1  0  0  0  0
 18 21  1  0  0  0  0
 35 36  1  0  0  0  0
  7  8  1  0  0  0  0
 17 18  1  0  0  0  0
 24 32  1  0  0  0  0
 25 33  1  0  0  0  0
  3  4  1  0  0  0  0
  3  5  1  0  0  0  0
  3  6  1  0  0  0  0
 39 42  1  0  0  0  0
 39 43  1  0  0  0  0
 39 44  1  0  0  0  0
 11 14  1  0  0  0  0
 11 15  1  0  0  0  0
 11 16  1  0  0  0  0
 46 48  1  0  0  0  0
 46 49  1  0  0  0  0
 46 50  1  0  0  0  0
 21 29  1  0  0  0  0
 21 30  1  0  0  0  0
 36 41  1  0  0  0  0
  8 13  1  0  0  0  0
 18 28  1  0  0  0  0
 26 34  1  0  0  0  0
 23 31  1  0  0  0  0
 45 47  1  0  0  0  0
  7 12  1  0  0  0  0
 35 40  1  0  0  0  0
 17 27  1  0  0  0  0
M  CHG  1  23   1
M  END
$$$$

  -OEChem-05262214473D

 50 50  0     1  0  0  0  0  0999 V2000
   -1.6938    0.4865    3.8080 C   0  0  0  0  0  0  0  0  0  0  0  0
   -0.7464   -0.1282    3.3323 O   0  0  0  0  0  0  0  0  0  0  0  0
   -2.1257    0.2041    5.2087 C   0  0  0  0  0  0  0  0  0  0  0  0
   -2.8853   -0.5922    5.2621 H   0  0  0  0  0  0  0  0  0  0  0  0
   -1.2944   -0.1435    5.8430 H   0  0  0  0  0  0  0  0  0  0  0  0
   -2.5637    1.0590    5.7483 H   0  0  0  0  0  0  0  0  0  0  0  0
   -2.4435    1.4589    3.1669 N   0  0  0  0  0  0  0  0  0  0  0  0
   -2.1966    1.8850    1.8145 C   0  0  2  0  0  0  0  0  0  0  0  0
   -0.8617    1.2996    1.3733 C   0  0  0  0  0  0  0  0  0  0  0  0
    0.0104    0.9468    2.1646 O   0  0  0  0  0  0  0  0  0  0  0  0
   -2.1879    3.4017    1.7050 C   0  0  0  0  0  0  0  0  0  0  0  0
   -3.2085    1.8948    3.6787 H   0  0  0  0  0  0  0  0  0  0  0  0
   -3.0007    1.4665    1.1994 H   0  0  0  0  0  0  0  0  0  0  0  0
   -1.3888    3.8390    2.3147 H   0  0  0  0  0  0  0  0  0  0  0  0
   -2.0284    3.7240    0.6708 H   0  0  0  0  0  0  0  0  0  0  0  0
   -3.1380    3.8230    2.0508 H   0  0  0  0  0  0  0  0  0  0  0  0
   -0.7390    1.2565   -0.0101 N   0  0  0  0  0  0  0  0  0  0  0  0
    0.4383    0.7557   -0.6738 C   0  0  2  0  0  0  0  0  0  0  0  0
   -0.0114    0.1655   -2.0055 C   0  0  0  0  0  0  0  0  0  0  0  0
   -0.5435    0.8349   -2.8885 O   0  0  0  0  0  0  0  0  0  0  0  0
    1.1663   -0.3047    0.1604 C   0  0  0  0  0  0  0  0  0  0  0  0
    1.7091    0.2444    1.4572 C   0  0  0  0  0  0  0  0  0  0  0  0
    2.8284    1.0404    1.4963 N   0  3  0  0  0  0  0  0  0  0  0  0
    1.2815    0.1033    2.7472 C   0  0  0  0  0  0  0  0  0  0  0  0
    3.0885    1.3820    2.7624 C   0  0  0  0  0  0  0  0  0  0  0  0
    2.1536    0.8171    3.5334 N   0  0  0  0  0  0  0  0  0  0  0  0
   -1.5221    1.5532   -0.5874 H   0  0  0  0  0  0  0  0  0  0  0  0
    1.0820    1.6225   -0.8644 H   0  0  0  0  0  0  0  0  0  0  0  0
    1.9831   -0.7520   -0.4221 H   0  0  0  0  0  0  0  0  0  0  0  0
    0.4908   -1.1378    0.3957 H   0  0  0  0  0  0  0  0  0  0  0  0
    3.3777    1.3270    0.6906 H   0  0  0  0  0  0  0  0  0  0  0  0
    0.4765   -0.4057    3.2388 H   0  0  0  0  0  0  0  0  0  0  0  0
    3.9039    1.9996    3.1000 H   0  0  0  0  0  0  0  0  0  0  0  0
    2.0993    0.9034    4.5443 H   0  0  0  0  0  0  0  0  0  0  0  0
    0.2983   -1.1837   -2.1070 N   0  0  0  0  0  0  0  0  0  0  0  0
    0.0022   -1.9801   -3.2761 C   0  0  2  0  0  0  0  0  0  0  0  0
   -1.4587   -1.7537   -3.6418 C   0  0  0  0  0  0  0  0  0  0  0  0
   -2.2982   -1.3570   -2.8361 O   0  0  0  0  0  0  0  0  0  0  0  0
    0.2776   -3.4546   -3.0254 C   0  0  0  0  0  0  0  0  0  0  0  0
    0.7559   -1.6340   -1.3199 H   0  0  0  0  0  0  0  0  0  0  0  0
    0.6432   -1.6080   -4.0828 H   0  0  0  0  0  0  0  0  0  0  0  0
   -0.3553   -3.8452   -2.2203 H   0  0  0  0  0  0  0  0  0  0  0  0
    0.0801   -4.0529   -3.9209 H   0  0  0  0  0  0  0  0  0  0  0  0
    1.3216   -3.6119   -2.7335 H   0  0  0  0  0  0  0  0  0  0  0  0
   -1.7240   -2.0878   -4.9625 N   0  0  0  0  0  0  0  0  0  0  0  0
   -3.0399   -1.9730   -5.5465 C   0  0  0  0  0  0  0  0  0  0  0  0
   -0.9633   -2.3904   -5.5638 H   0  0  0  0  0  0  0  0  0  0  0  0
   -3.5709   -2.9312   -5.4466 H   0  0  0  0  0  0  0  0  0  0  0  0
   -3.6044   -1.1851   -5.0263 H   0  0  0  0  0  0  0  0  0  0  0  0
   -2.9469   -1.7149   -6.6118 H   0  0  0  0  0  0  0  0  0  0  0  0
 22 24  2  0  0  0  0
 24 26  1  0  0  0  0
 25 26  1  0  0  0  0
 23 25  2  0  0  0  0
 21 22  1  0  0  0  0
 22 23  1  0  0  0  0
  1  3  1  0  0  0  0
  1  7  1  0  0  0  0
  1  2  2  0  0  0  0
 36 37  1  0  0  0  0
 37 45  1  0  0  0  0
 37 38  2  0  0  0  0
  8  9  1  0  0  0  0
  9 17  1  0  0  0  0
  9 10  2  0  0  0  0
 18 19  1  0  0  0  0
 19 35  1  0  0  0  0
 19 20  2  0  0  0  0
 36 39  1  0  0  0  0
  8 11  1  0  0  0  0
 45 46  1  0  0  0  0
 18 21  1  0  0  0  0
 35 36  1  0  0  0  0
  7  8  1  0  0  0  0
 17 18  1  0  0  0  0
 24 32  1  0  0  0  0
 25 33  1  0  0  0  0
  3  4  1  0  0  0  0
  3  5  1  0  0  0  0
  3  6  1  0  0  0  0
 39 42  1  0  0  0  0
 39 43  1  0  0  0  0
 39 44  1  0  0  0  0
 11 14  1  0  0  0  0
 11 15  1  0  0  0  0
 11 16  1  0  0  0  0
 46 48  1  0  0  0  0
 46 49  1  0  0  0  0
 46 50  1  0  0  0  0
 21 29  1  0  0  0  0
 21 30  1  0  0  0  0
 36 41  1  0  0  0  0
  8 13  1  0  0  0  0
 18 28  1  0  0  0  0
 26 34  1  0  0  0  0
 23 31  1  0  0  0  0
 45 47  1  0  0  0  0
  7 12  1  0  0  0  0
 35 40  1  0  0  0  0
 17 27  1  0  0  0  0
M  CHG  1  23   1
M  END
$$$$

  -OEChem-05262214473D

 50 50  0     1  0  0  0  0  0999 V2000
   -1.6938    0.4865    3.8080 C   0  0  0  0  0  0  0  0  0  0  0  0
   -0.7464   -0.1282    3.3323 O   0  0  0  0  0  0  0  0  0  0  0  0
   -2.1257    0.2041    5.2087 C   0  0  0  0  0  0  0  0  0  0  0  0
   -2.8853   -0.5922    5.2621 H   0  0  0  0  0  0  0  0  0  0  0  0
   -1.2944   -0.1435    5.8430 H   0  0  0  0  0  0  0  0  0  0  0  0
   -2.5637    1.0590    5.7483 H   0  0  0  0  0  0  0  0  0  0  0  0
   -2.4435    1.4589    3.1669 N   0  0  0  0  0  0  0  0  0  0  0  0
   -2.1966    1.8850    1.8145 C   0  0  2  0  0  0  0  0  0  0  0  0
   -0.8617    1.2996    1.3733 C   0  0  0  0  0  0  0  0  0  0  0  0
    0.0104    0.9468    2.1646 O   0  0  0  0  0  0  0  0  0  0  0  0
   -2.1879    3.4017    1.7050 C   0  0  0  0  0  0  0  0  0  0  0  0
   -3.2085    1.8948    3.6787 H   0  0  0  0  0  0  0  0  0  0  0  0
   -3.0007    1.4665    1.1994 H   0  0  0  0  0  0  0  0  0  0  0  0
   -1.3888    3.8390    2.3147 H   0  0  0  0  0  0  0  0  0  0  0  0
   -2.0284    3.7240    0.6708 H   0  0  0  0  0  0  0  0  0  0  0  0
   -3.1380    3.8230    2.0508 H   0  0  0  0  0  0  0  0  0  0  0  0
   -0.7390    1.2565   -0.0101 N   0  0  0  0  0  0  0  0  0  0  0  0
    0.4383    0.7557   -0.6738 C   0  0  2  0  0  0  0  0  0  0  0  0
   -0.0114    0.1655   -2.0055 C   0  0  0  0  0  0  0  0  0  0  0  0
   -0.2923    0.8562   -2.9827 O   0  0  0  0  0  0  0  0  0  0  0  0
    1.1663   -0.3047    0.1604 C   0  0  0  0  0  0  0  0  0  0  0  0
    1.7091    0.2444    1.4572 C   0  0  0  0  0  0  0  0  0  0  0  0
    2.8284    1.0404    1.4963 N   0  3  0  0  0  0  0  0  0  0  0  0
    1.2815    0.1033    2.7472 C   0  0  0  0  0  0  0  0  0  0  0  0
    3.0885    1.3820    2.7624 C   0  0  0  0  0  0  0  0  0  0  0  0
    2.1536    0.8171    3.5334 N   0  0  0  0  0  0  0  0  0  0  0  0
   -1.5221    1.5532   -0.5874 H   0  0  0  0  0  0  0  0  0  0  0  0
    1.0820    1.6225   -0.8644 H   0  0  0  0  0  0  0  0  0  0  0  0
    1.9831   -0.7520   -0.4221 H   0  0  0  0  0  0  0  0  0  0  0  0
    0.4908   -1.1378    0.3957 H   0  0  0  0  0  0  0  0  0  0  0  0
    3.3777    1.3270    0.6906 H   0  0  0  0  0  0  0  0  0  0  0  0
    0.4765   -0.4057    3.2388 H   0  0  0  0  0  0  0  0  0  0  0  0
    3.9039    1.9996    3.1000 H   0  0  0  0  0  0  0  0  0  0  0  0
    2.0993    0.9034    4.5443 H   0  0  0  0  0  0  0  0  0  0  0  0
   -0.0124   -1.2223   -1.9849 N   0  0  0  0  0  0  0  0  0  0  0  0
   -0.3755   -2.0326   -3.1253 C   0  0  2  0  0  0  0  0  0  0  0  0
   -1.7055   -1.5203   -3.6619 C   0  0  0  0  0  0  0  0  0  0  0  0
   -2.5013   -0.8778   -2.9800 O   0  0  0  0  0  0  0  0  0  0  0  0
   -0.4707   -3.5035   -2.7510 C   0  0  0  0  0  0  0  0  0  0  0  0
    0.2555   -1.6921   -1.1251 H   0  0  0  0  0  0  0  0  0  0  0  0
    0.4048   -1.8846   -3.8798 H   0  0  0  0  0  0  0  0  0  0  0  0
   -1.2474   -3.6715   -1.9960 H   0  0  0  0  0  0  0  0  0  0  0  0
   -0.7179   -4.1194   -3.6221 H   0  0  0  0  0  0  0  0  0  0  0  0
    0.4779   -3.8627   -2.3375 H   0  0  0  0  0  0  0  0  0  0  0  0
   -1.9186   -1.9018   -4.9792 N   0  0  0  0  0  0  0  0  0  0  0  0
   -3.1138   -1.5492   -5.7094 C   0  0  0  0  0  0  0  0  0  0  0  0
   -1.1962   -2.4175   -5.4731 H   0  0  0  0  0  0  0  0  0  0  0  0
   -3.8578   -2.3529   -5.6060 H   0  0  0  0  0  0  0  0  0  0  0  0
   -3.5271   -0.6131   -5.3059 H   0  0  0  0  0  0  0  0  0  0  0  0
   -2.8670   -1.4129   -6.7726 H   0  0  0  0  0  0  0  0  0  0  0  0
 22 24  2  0  0  0  0
 24 26  1  0  0  0  0
 25 26  1  0  0  0  0
 23 25  2  0  0  0  0
 21 22  1  0  0  0  0
 22 23  1  0  0  0  0
  1  3  1  0  0  0  0
  1  7  1  0  0  0  0
  1  2  2  0  0  0  0
 36 37  1  0  0  0  0
 37 45  1  0  0  0  0
 37 38  2  0  0  0  0
  8  9  1  0  0  0  0
  9 17  1  0  0  0  0
  9 10  2  0  0  0  0
 18 19  1  0  0  0  0
 19 35  1  0  0  0  0
 19 20  2  0  0  0  0
 36 39  1  0  0  0  0
  8 11  1  0  0  0  0
 45 46  1  0  0  0  0
 18 21  1  0  0  0  0
 35 36  1  0  0  0  0
  7  8  1  0  0  0  0
 17 18  1  0  0  0  0
 24 32  1  0  0  0  0
 25 33  1  0  0  0  0
  3  4  1  0  0  0  0
  3  5  1  0  0  0  0
  3  6  1  0  0  0  0
 39 42  1  0  0  0  0
 39 43  1  0  0  0  0
 39 44  1  0  0  0  0
 11 14  1  0  0  0  0
 11 15  1  0  0  0  0
 11 16  1  0  0  0  0
 46 48  1  0  0  0  0
 46 49  1  0  0  0  0
 46 50  1  0  0  0  0
 21 29  1  0  0  0  0
 21 30  1  0  0  0  0
 36 41  1  0  0  0  0
  8 13  1  0  0  0  0
 18 28  1  0  0  0  0
 26 34  1  0  0  0  0
 23 31  1  0  0  0  0
 45 47  1  0  0  0  0
  7 12  1  0  0  0  0
 35 40  1  0  0  0  0
 17 27  1  0  0  0  0
M  CHG  1  23   1
M  END
$$$$

  -OEChem-05262214473D

 50 50  0     1  0  0  0  0  0999 V2000
   -1.6938    0.4865    3.8080 C   0  0  0  0  0  0  0  0  0  0  0  0
   -0.7464   -0.1282    3.3323 O   0  0  0  0  0  0  0  0  0  0  0  0
   -2.1257    0.2041    5.2087 C   0  0  0  0  0  0  0  0  0  0  0  0
   -2.8853   -0.5922    5.2621 H   0  0  0  0  0  0  0  0  0  0  0  0
   -1.2944   -0.1435    5.8430 H   0  0  0  0  0  0  0  0  0  0  0  0
   -2.5637    1.0590    5.7483 H   0  0  0  0  0  0  0  0  0  0  0  0
   -2.4435    1.4589    3.1669 N   0  0  0  0  0  0  0  0  0  0  0  0
   -2.1966    1.8850    1.8145 C   0  0  2  0  0  0  0  0  0  0  0  0
   -0.8617    1.2996    1.3733 C   0  0  0  0  0  0  0  0  0  0  0  0
    0.0104    0.9468    2.1646 O   0  0  0  0  0  0  0  0  0  0  0  0
   -2.1879    3.4017    1.7050 C   0  0  0  0  0  0  0  0  0  0  0  0
   -3.2085    1.8948    3.6787 H   0  0  0  0  0  0  0  0  0  0  0  0
   -3.0007    1.4665    1.1994 H   0  0  0  0  0  0  0  0  0  0  0  0
   -1.3888    3.8390    2.3147 H   0  0  0  0  0  0  0  0  0  0  0  0
   -2.0284    3.7240    0.6708 H   0  0  0  0  0  0  0  0  0  0  0  0
   -3.1380    3.8230    2.0508 H   0  0  0  0  0  0  0  0  0  0  0  0
   -0.7390    1.2565   -0.0101 N   0  0  0  0  0  0  0  0  0  0  0  0
    0.4383    0.7557   -0.6738 C   0  0  2  0  0  0  0  0  0  0  0  0
   -0.0114    0.1655   -2.0055 C   0  0  0  0  0  0  0  0  0  0  0  0
   -0.0354    0.8128   -3.0502 O   0  0  0  0  0  0  0  0  0  0  0  0
    1.1663   -0.3047    0.1604 C   0  0  0  0  0  0  0  0  0  0  0  0
    1.7091    0.2444    1.4572 C   0  0  0  0  0  0  0  0  0  0  0  0
    2.8284    1.0404    1.4963 N   0  3  0  0  0  0  0  0  0  0  0  0
    1.2815    0.1033    2.7472 C   0  0  0  0  0  0  0  0  0  0  0  0
    3.0885    1.3820    2.7624 C   0  0  0  0  0  0  0  0  0  0  0  0
    2.1536    0.8171    3.5334 N   0  0  0  0  0  0  0  0  0  0  0  0
   -1.5221    1.5532   -0.5874 H   0  0  0  0  0  0  0  0  0  0  0  0
    1.0820    1.6225   -0.8644 H   0  0  0  0  0  0  0  0  0  0  0  0
    1.9831   -0.7520   -0.4221 H   0  0  0  0  0  0  0  0  0  0  0  0
    0.4908   -1.1378    0.3957 H   0  0  0  0  0  0  0  0  0  0  0  0
    3.3777    1.3270    0.6906 H   0  0  0  0  0  0  0  0  0  0  0  0
    0.4765   -0.4057    3.2388 H   0  0  0  0  0  0  0  0  0  0  0  0
    3.9039    1.9996    3.1000 H   0  0  0  0  0  0  0  0  0  0  0  0
    2.0993    0.9034    4.5443 H   0  0  0  0  0  0  0  0  0  0  0  0
   -0.3334   -1.1801   -1.8953 N   0  0  0  0  0  0  0  0  0  0  0  0
   -0.7673   -1.9864   -3.0134 C   0  0  2  0  0  0  0  0  0  0  0  0
   -1.8891   -1.2405   -3.7239 C   0  0  0  0  0  0  0  0  0  0  0  0
   -2.5747   -0.3799   -3.1758 O   0  0  0  0  0  0  0  0  0  0  0  0
   -1.2321   -3.3607   -2.5572 C   0  0  0  0  0  0  0  0  0  0  0  0
   -0.2605   -1.6202   -0.9828 H   0  0  0  0  0  0  0  0  0  0  0  0
    0.0917   -2.0824   -3.6864 H   0  0  0  0  0  0  0  0  0  0  0  0
   -2.0923   -3.2848   -1.8821 H   0  0  0  0  0  0  0  0  0  0  0  0
   -1.5336   -3.9803   -3.4083 H   0  0  0  0  0  0  0  0  0  0  0  0
   -0.4334   -3.8839   -2.0204 H   0  0  0  0  0  0  0  0  0  0  0  0
   -2.0629   -1.6794   -5.0290 N   0  0  0  0  0  0  0  0  0  0  0  0
   -3.0731   -1.1357   -5.9064 C   0  0  0  0  0  0  0  0  0  0  0  0
   -1.4364   -2.3841   -5.4068 H   0  0  0  0  0  0  0  0  0  0  0  0
   -3.9882   -1.7416   -5.8328 H   0  0  0  0  0  0  0  0  0  0  0  0
   -3.2951   -0.0993   -5.6119 H   0  0  0  0  0  0  0  0  0  0  0  0
   -2.7053   -1.1515   -6.9430 H   0  0  0  0  0  0  0  0  0  0  0  0
 22 24  2  0  0  0  0
 24 26  1  0  0  0  0
 25 26  1  0  0  0  0
 23 25  2  0  0  0  0
 21 22  1  0  0  0  0
 22 23  1  0  0  0  0
  1  3  1  0  0  0  0
  1  7  1  0  0  0  0
  1  2  2  0  0  0  0
 36 37  1  0  0  0  0
 37 45  1  0  0  0  0
 37 38  2  0  0  0  0
  8  9  1  0  0  0  0
  9 17  1  0  0  0  0
  9 10  2  0  0  0  0
 18 19  1  0  0  0  0
 19 35  1  0  0  0  0
 19 20  2  0  0  0  0
 36 39  1  0  0  0  0
  8 11  1  0  0  0  0
 45 46  1  0  0  0  0
 18 21  1  0  0  0  0
 35 36  1  0  0  0  0
  7  8  1  0  0  0  0
 17 18  1  0  0  0  0
 24 32  1  0  0  0  0
 25 33  1  0  0  0  0
  3  4  1  0  0  0  0
  3  5  1  0  0  0  0
  3  6  1  0  0  0  0
 39 42  1  0  0  0  0
 39 43  1  0  0  0  0
 39 44  1  0  0  0  0
 11 14  1  0  0  0  0
 11 15  1  0  0  0  0
 11 16  1  0  0  0  0
 46 48  1  0  0  0  0
 46 49  1  0  0  0  0
 46 50  1  0  0  0  0
 21 29  1  0  0  0  0
 21 30  1  0  0  0  0
 36 41  1  0  0  0  0
  8 13  1  0  0  0  0
 18 28  1  0  0  0  0
 26 34  1  0  0  0  0
 23 31  1  0  0  0  0
 45 47  1  0  0  0  0
  7 12  1  0  0  0  0
 35 40  1  0  0  0  0
 17 27  1  0  0  0  0
M  CHG  1  23   1
M  END
$$$$

  -OEChem-05262214473D

 50 50  0     1  0  0  0  0  0999 V2000
   -1.6938    0.4865    3.8080 C   0  0  0  0  0  0  0  0  0  0  0  0
   -0.7464   -0.1282    3.3323 O   0  0  0  0  0  0  0  0  0  0  0  0
   -2.1257    0.2041    5.2087 C   0  0  0  0  0  0  0  0  0  0  0  0
   -2.8853   -0.5922    5.2621 H   0  0  0  0  0  0  0  0  0  0  0  0
   -1.2944   -0.1435    5.8430 H   0  0  0  0  0  0  0  0  0  0  0  0
   -2.5637    1.0590    5.7483 H   0  0  0  0  0  0  0  0  0  0  0  0
   -2.4435    1.4589    3.1669 N   0  0  0  0  0  0  0  0  0  0  0  0
   -2.1966    1.8850    1.8145 C   0  0  2  0  0  0  0  0  0  0  0  0
   -0.8617    1.2996    1.3733 C   0  0  0  0  0  0  0  0  0  0  0  0
    0.0104    0.9468    2.1646 O   0  0  0  0  0  0  0  0  0  0  0  0
   -2.1879    3.4017    1.7050 C   0  0  0  0  0  0  0  0  0  0  0  0
   -3.2085    1.8948    3.6787 H   0  0  0  0  0  0  0  0  0  0  0  0
   -3.0007    1.4665    1.1994 H   0  0  0  0  0  0  0  0  0  0  0  0
   -1.3888    3.8390    2.3147 H   0  0  0  0  0  0  0  0  0  0  0  0
   -2.0284    3.7240    0.6708 H   0  0  0  0  0  0  0  0  0  0  0  0
   -3.1380    3.8230    2.0508 H   0  0  0  0  0  0  0  0  0  0  0  0
   -0.7390    1.2565   -0.0101 N   0  0  0  0  0  0  0  0  0  0  0  0
    0.4383    0.7557   -0.6738 C   0  0  2  0  0  0  0  0  0  0  0  0
   -0.0114    0.1655   -2.0055 C   0  0  0  0  0  0  0  0  0  0  0  0
    0.2097    0.7075   -3.0864 O   0  0  0  0  0  0  0  0  0  0  0  0
    1.1663   -0.3047    0.1604 C   0  0  0  0  0  0  0  0  0  0  0  0
    1.7091    0.2444    1.4572 C   0  0  0  0  0  0  0  0  0  0  0  0
    2.8284    1.0404    1.4963 N   0  3  0  0  0  0  0  0  0  0  0  0
    1.2815    0.1033    2.7472 C   0  0  0  0  0  0  0  0  0  0  0  0
    3.0885    1.3820    2.7624 C   0  0  0  0  0  0  0  0  0  0  0  0
    2.1536    0.8171    3.5334 N   0  0  0  0  0  0  0  0  0  0  0  0
   -1.5221    1.5532   -0.5874 H   0  0  0  0  0  0  0  0  0  0  0  0
    1.0820    1.6225   -0.8644 H   0  0  0  0  0  0  0  0  0  0  0  0
    1.9831   -0.7520   -0.4221 H   0  0  0  0  0  0  0  0  0  0  0  0
    0.4908   -1.1378    0.3957 H   0  0  0  0  0  0  0  0  0  0  0  0
    3.3777    1.3270    0.6906 H   0  0  0  0  0  0  0  0  0  0  0  0
    0.4765   -0.4057    3.2388 H   0  0  0  0  0  0  0  0  0  0  0  0
    3.9039    1.9996    3.1000 H   0  0  0  0  0  0  0  0  0  0  0  0
    2.0993    0.9034    4.5443 H   0  0  0  0  0  0  0  0  0  0  0  0
   -0.6430   -1.0598   -1.8440 N   0  0  0  0  0  0  0  0  0  0  0  0
   -1.1466   -1.8447   -2.9482 C   0  0  2  0  0  0  0  0  0  0  0  0
   -1.9970   -0.9335   -3.8235 C   0  0  0  0  0  0  0  0  0  0  0  0
   -2.5134    0.1026   -3.4104 O   0  0  0  0  0  0  0  0  0  0  0  0
   -1.9547   -3.0358   -2.4572 C   0  0  0  0  0  0  0  0  0  0  0  0
   -0.7569   -1.4233   -0.9024 H   0  0  0  0  0  0  0  0  0  0  0  0
   -0.2748   -2.1878   -3.5159 H   0  0  0  0  0  0  0  0  0  0  0  0
   -2.8324   -2.7116   -1.8862 H   0  0  0  0  0  0  0  0  0  0  0  0
   -2.3115   -3.6452   -3.2941 H   0  0  0  0  0  0  0  0  0  0  0  0
   -1.3502   -3.6741   -1.8038 H   0  0  0  0  0  0  0  0  0  0  0  0
   -2.1470   -1.4358   -5.1086 N   0  0  0  0  0  0  0  0  0  0  0  0
   -2.9205   -0.7604   -6.1243 C   0  0  0  0  0  0  0  0  0  0  0  0
   -1.6675   -2.2925   -5.3694 H   0  0  0  0  0  0  0  0  0  0  0  0
   -3.9532   -1.1390   -6.1117 H   0  0  0  0  0  0  0  0  0  0  0  0
   -2.9241    0.3211   -5.9235 H   0  0  0  0  0  0  0  0  0  0  0  0
   -2.4731   -0.9486   -7.1114 H   0  0  0  0  0  0  0  0  0  0  0  0
 22 24  2  0  0  0  0
 24 26  1  0  0  0  0
 25 26  1  0  0  0  0
 23 25  2  0  0  0  0
 21 22  1  0  0  0  0
 22 23  1  0  0  0  0
  1  3  1  0  0  0  0
  1  7  1  0  0  0  0
  1  2  2  0  0  0  0
 36 37  1  0  0  0  0
 37 45  1  0  0  0  0
 37 38  2  0  0  0  0
  8  9  1  0  0  0  0
  9 17  1  0  0  0  0
  9 10  2  0  0  0  0
 18 19  1  0  0  0  0
 19 35  1  0  0  0  0
 19 20  2  0  0  0  0
 36 39  1  0  0  0  0
  8 11  1  0  0  0  0
 45 46  1  0  0  0  0
 18 21  1  0  0  0  0
 35 36  1  0  0  0  0
  7  8  1  0  0  0  0
 17 18  1  0  0  0  0
 24 32  1  0  0  0  0
 25 33  1  0  0  0  0
  3  4  1  0  0  0  0
  3  5  1  0  0  0  0
  3  6  1  0  0  0  0
 39 42  1  0  0  0  0
 39 43  1  0  0  0  0
 39 44  1  0  0  0  0
 11 14  1  0  0  0  0
 11 15  1  0  0  0  0
 11 16  1  0  0  0  0
 46 48  1  0  0  0  0
 46 49  1  0  0  0  0
 46 50  1  0  0  0  0
 21 29  1  0  0  0  0
 21 30  1  0  0  0  0
 36 41  1  0  0  0  0
  8 13  1  0  0  0  0
 18 28  1  0  0  0  0
 26 34  1  0  0  0  0
 23 31  1  0  0  0  0
 45 47  1  0  0  0  0
  7 12  1  0  0  0  0
 35 40  1  0  0  0  0
 17 27  1  0  0  0  0
M  CHG  1  23   1
M  END
$$$$

  -OEChem-05262214473D

 50 50  0     1  0  0  0  0  0999 V2000
   -1.6938    0.4865    3.8080 C   0  0  0  0  0  0  0  0  0  0  0  0
   -0.7464   -0.1282    3.3323 O   0  0  0  0  0  0  0  0  0  0  0  0
   -2.1257    0.2041    5.2087 C   0  0  0  0  0  0  0  0  0  0  0  0
   -2.8853   -0.5922    5.2621 H   0  0  0  0  0  0  0  0  0  0  0  0
   -1.2944   -0.1435    5.8430 H   0  0  0  0  0  0  0  0  0  0  0  0
   -2.5637    1.0590    5.7483 H   0  0  0  0  0  0  0  0  0  0  0  0
   -2.4435    1.4589    3.1669 N   0  0  0  0  0  0  0  0  0  0  0  0
   -2.1966    1.8850    1.8145 C   0  0  2  0  0  0  0  0  0  0  0  0
   -0.8617    1.2996    1.3733 C   0  0  0  0  0  0  0  0  0  0  0  0
    0.0104    0.9468    2.1646 O   0  0  0  0  0  0  0  0  0  0  0  0
   -2.1879    3.4017    1.7050 C   0  0  0  0  0  0  0  0  0  0  0  0
   -3.2085    1.8948    3.6787 H   0  0  0  0  0  0  0  0  0  0  0  0
   -3.0007    1.4665    1.1994 H   0  0  0  0  0  0  0  0  0  0  0  0
   -1.3888    3.8390    2.3147 H   0  0  0  0  0  0  0  0  0  0  0  0
   -2.0284    3.7240    0.6708 H   0  0  0  0  0  0  0  0  0  0  0  0
   -3.1380    3.8230    2.0508 H   0  0  0  0  0  0  0  0  0  0  0  0
   -0.7390    1.2565   -0.0101 N   0  0  0  0  0  0  0  0  0  0  0  0
    0.4383    0.7557   -0.6738 C   0  0  2  0  0  0  0  0  0  0  0  0
   -0.0114    0.1655   -2.0055 C   0  0  0  0  0  0  0  0  0  0  0  0
    0.4263    0.5477   -3.0887 O   0  0  0  0  0  0  0  0  0  0  0  0
    1.1663   -0.3047    0.1604 C   0  0  0  0  0  0  0  0  0  0  0  0
    1.7091    0.2444    1.4572 C   0  0  0  0  0  0  0  0  0  0  0  0
    2.8284    1.0404    1.4963 N   0  3  0  0  0  0  0  0  0  0  0  0
    1.2815    0.1033    2.7472 C   0  0  0  0  0  0  0  0  0  0  0  0
    3.0885    1.3820    2.7624 C   0  0  0  0  0  0  0  0  0  0  0  0
    2.1536    0.8171    3.5334 N   0  0  0  0  0  0  0  0  0  0  0  0
   -1.5221    1.5532   -0.5874 H   0  0  0  0  0  0  0  0  0  0  0  0
    1.0820    1.6225   -0.8644 H   0  0  0  0  0  0  0  0  0  0  0  0
    1.9831   -0.7520   -0.4221 H   0  0  0  0  0  0  0  0  0  0  0  0
    0.4908   -1.1378    0.3957 H   0  0  0  0  0  0  0  0  0  0  0  0
    3.3777    1.3270    0.6906 H   0  0  0  0  0  0  0  0  0  0  0  0
    0.4765   -0.4057    3.2388 H   0  0  0  0  0  0  0  0  0  0  0  0
    3.9039    1.9996    3.1000 H   0  0  0  0  0  0  0  0  0  0  0  0
    2.0993    0.9034    4.5443 H   0  0  0  0  0  0  0  0  0  0  0  0
   -0.9199   -0.8698   -1.8347 N   0  0  0  0  0  0  0  0  0  0  0  0
   -1.4874   -1.6170   -2.9340 C   0  0  2  0  0  0  0  0  0  0  0  0
   -2.0218   -0.6203   -3.9540 C   0  0  0  0  0  0  0  0  0  0  0  0
   -2.3216    0.5370   -3.6676 O   0  0  0  0  0  0  0  0  0  0  0  0
   -2.5892   -2.5509   -2.4579 C   0  0  0  0  0  0  0  0  0  0  0  0
   -1.2000   -1.1147   -0.8896 H   0  0  0  0  0  0  0  0  0  0  0  0
   -0.6698   -2.1939   -3.3798 H   0  0  0  0  0  0  0  0  0  0  0  0
   -3.4172   -1.9910   -2.0081 H   0  0  0  0  0  0  0  0  0  0  0  0
   -2.9985   -3.1370   -3.2873 H   0  0  0  0  0  0  0  0  0  0  0  0
   -2.2101   -3.2477   -1.7025 H   0  0  0  0  0  0  0  0  0  0  0  0
   -2.1651   -1.1875   -5.2125 N   0  0  0  0  0  0  0  0  0  0  0  0
   -2.6664   -0.4491   -6.3480 C   0  0  0  0  0  0  0  0  0  0  0  0
   -1.8738   -2.1488   -5.3634 H   0  0  0  0  0  0  0  0  0  0  0  0
   -3.7552   -0.5862   -6.4236 H   0  0  0  0  0  0  0  0  0  0  0  0
   -2.4396    0.6196   -6.2194 H   0  0  0  0  0  0  0  0  0  0  0  0
   -2.1859   -0.8180   -7.2662 H   0  0  0  0  0  0  0  0  0  0  0  0
 22 24  2  0  0  0  0
 24 26  1  0  0  0  0
 25 26  1  0  0  0  0
 23 25  2  0  0  0  0
 21 22  1  0  0  0  0
 22 23  1  0  0  0  0
  1  3  1  0  0  0  0
  1  7  1  0  0  0  0
  1  2  2  0  0  0  0
 36 37  1  0  0  0  0
 37 45  1  0  0  0  0
 37 38  2  0  0  0  0
  8  9  1  0  0  0  0
  9 17  1  0  0  0  0
  9 10  2  0  0  0  0
 18 19  1  0  0  0  0
 19 35  1  0  0  0  0
 19 20  2  0  0  0  0
 36 39  1  0  0  0  0
  8 11  1  0  0  0  0
 45 46  1  0  0  0  0
 18 21  1  0  0  0  0
 35 36  1  0  0  0  0
  7  8  1  0  0  0  0
 17 18  1  0  0  0  0
 24 32  1  0  0  0  0
 25 33  1  0  0  0  0
  3  4  1  0  0  0  0
  3  5  1  0  0  0  0
  3  6  1  0  0  0  0
 39 42  1  0  0  0  0
 39 43  1  0  0  0  0
 39 44  1  0  0  0  0
 11 14  1  0  0  0  0
 11 15  1  0  0  0  0
 11 16  1  0  0  0  0
 46 48  1  0  0  0  0
 46 49  1  0  0  0  0
 46 50  1  0  0  0  0
 21 29  1  0  0  0  0
 21 30  1  0  0  0  0
 36 41  1  0  0  0  0
  8 13  1  0  0  0  0
 18 28  1  0  0  0  0
 26 34  1  0  0  0  0
 23 31  1  0  0  0  0
 45 47  1  0  0  0  0
  7 12  1  0  0  0  0
 35 40  1  0  0  0  0
 17 27  1  0  0  0  0
M  CHG  1  23   1
M  END
$$$$

  -OEChem-05262214473D

 50 50  0     1  0  0  0  0  0999 V2000
   -1.6938    0.4865    3.8080 C   0  0  0  0  0  0  0  0  0  0  0  0
   -0.7464   -0.1282    3.3323 O   0  0  0  0  0  0  0  0  0  0  0  0
   -2.1257    0.2041    5.2087 C   0  0  0  0  0  0  0  0  0  0  0  0
   -2.8853   -0.5922    5.2621 H   0  0  0  0  0  0  0  0  0  0  0  0
   -1.2944   -0.1435    5.8430 H   0  0  0  0  0  0  0  0  0  0  0  0
   -2.5637    1.0590    5.7483 H   0  0  0  0  0  0  0  0  0  0  0  0
   -2.4435    1.4589    3.1669 N   0  0  0  0  0  0  0  0  0  0  0  0
   -2.1966    1.8850    1.8145 C   0  0  2  0  0  0  0  0  0  0  0  0
   -0.8617    1.2996    1.3733 C   0  0  0  0  0  0  0  0  0  0  0  0
    0.0104    0.9468    2.1646 O   0  0  0  0  0  0  0  0  0  0  0  0
   -2.1879    3.4017    1.7050 C   0  0  0  0  0  0  0  0  0  0  0  0
   -3.2085    1.8948    3.6787 H   0  0  0  0  0  0  0  0  0  0  0  0
   -3.0007    1.4665    1.1994 H   0  0  0  0  0  0  0  0  0  0  0  0
   -1.3888    3.8390    2.3147 H   0  0  0  0  0  0  0  0  0  0  0  0
   -2.0284    3.7240    0.6708 H   0  0  0  0  0  0  0  0  0  0  0  0
   -3.1380    3.8230    2.0508 H   0  0  0  0  0  0  0  0  0  0  0  0
   -0.7390    1.2565   -0.0101 N   0  0  0  0  0  0  0  0  0  0  0  0
    0.4383    0.7557   -0.6738 C   0  0  2  0  0  0  0  0  0  0  0  0
   -0.0114    0.1655   -2.0055 C   0  0  0  0  0  0  0  0  0  0  0  0
    0.5996    0.3442   -3.0570 O   0  0  0  0  0  0  0  0  0  0  0  0
    1.1663   -0.3047    0.1604 C   0  0  0  0  0  0  0  0  0  0  0  0
    1.7091    0.2444    1.4572 C   0  0  0  0  0  0  0  0  0  0  0  0
    2.8284    1.0404    1.4963 N   0  3  0  0  0  0  0  0  0  0  0  0
    1.2815    0.1033    2.7472 C   0  0  0  0  0  0  0  0  0  0  0  0
    3.0885    1.3820    2.7624 C   0  0  0  0  0  0  0  0  0  0  0  0
    2.1536    0.8171    3.5334 N   0  0  0  0  0  0  0  0  0  0  0  0
   -1.5221    1.5532   -0.5874 H   0  0  0  0  0  0  0  0  0  0  0  0
    1.0820    1.6225   -0.8644 H   0  0  0  0  0  0  0  0  0  0  0  0
    1.9831   -0.7520   -0.4221 H   0  0  0  0  0  0  0  0  0  0  0  0
    0.4908   -1.1378    0.3957 H   0  0  0  0  0  0  0  0  0  0  0  0
    3.3777    1.3270    0.6906 H   0  0  0  0  0  0  0  0  0  0  0  0
    0.4765   -0.4057    3.2388 H   0  0  0  0  0  0  0  0  0  0  0  0
    3.9039    1.9996    3.1000 H   0  0  0  0  0  0  0  0  0  0  0  0
    2.0993    0.9034    4.5443 H   0  0  0  0  0  0  0  0  0  0  0  0
   -1.1454   -0.6230   -1.8680 N   0  0  0  0  0  0  0  0  0  0  0  0
   -1.7666   -1.3190   -2.9718 C   0  0  2  0  0  0  0  0  0  0  0  0
   -1.9618   -0.3220   -4.1064 C   0  0  0  0  0  0  0  0  0  0  0  0
   -2.0124    0.8935   -3.9300 O   0  0  0  0  0  0  0  0  0  0  0  0
   -3.0924   -1.9392   -2.5591 C   0  0  0  0  0  0  0  0  0  0  0  0
   -1.5595   -0.7154   -0.9451 H   0  0  0  0  0  0  0  0  0  0  0  0
   -1.0663   -2.1000   -3.2876 H   0  0  0  0  0  0  0  0  0  0  0  0
   -3.8070   -1.1719   -2.2395 H   0  0  0  0  0  0  0  0  0  0  0  0
   -3.5480   -2.4902   -3.3884 H   0  0  0  0  0  0  0  0  0  0  0  0
   -2.9544   -2.6336   -1.7233 H   0  0  0  0  0  0  0  0  0  0  0  0
   -2.1161   -0.9515   -5.3336 N   0  0  0  0  0  0  0  0  0  0  0  0
   -2.3282   -0.2229   -6.5625 C   0  0  0  0  0  0  0  0  0  0  0  0
   -2.0412   -1.9630   -5.3892 H   0  0  0  0  0  0  0  0  0  0  0  0
   -3.4077   -0.1207   -6.7472 H   0  0  0  0  0  0  0  0  0  0  0  0
   -1.8744    0.7757   -6.4794 H   0  0  0  0  0  0  0  0  0  0  0  0
   -1.8636   -0.7685   -7.3970 H   0  0  0  0  0  0  0  0  0  0  0  0
 22 24  2  0  0  0  0
 24 26  1  0  0  0  0
 25 26  1  0  0  0  0
 23 25  2  0  0  0  0
 21 22  1  0  0  0  0
 22 23  1  0  0  0  0
  1  3  1  0  0  0  0
  1  7  1  0  0  0  0
  1  2  2  0  0  0  0
 36 37  1  0  0  0  0
 37 45  1  0  0  0  0
 37 38  2  0  0  0  0
  8  9  1  0  0  0  0
  9 17  1  0  0  0  0
  9 10  2  0  0  0  0
 18 19  1  0  0  0  0
 19 35  1  0  0  0  0
 19 20  2  0  0  0  0
 36 39  1  0  0  0  0
  8 11  1  0  0  0  0
 45 46  1  0  0  0  0
 18 21  1  0  0  0  0
 35 36  1  0  0  0  0
  7  8  1  0  0  0  0
 17 18  1  0  0  0  0
 24 32  1  0  0  0  0
 25 33  1  0  0  0  0
  3  4  1  0  0  0  0
  3  5  1  0  0  0  0
  3  6  1  0  0  0  0
 39 42  1  0  0  0  0
 39 43  1  0  0  0  0
 39 44  1  0  0  0  0
 11 14  1  0  0  0  0
 11 15  1  0  0  0  0
 11 16  1  0  0  0  0
 46 48  1  0  0  0  0
 46 49  1  0  0  0  0
 46 50  1  0  0  0  0
 21 29  1  0  0  0  0
 21 30  1  0  0  0  0
 36 41  1  0  0  0  0
  8 13  1  0  0  0  0
 18 28  1  0  0  0  0
 26 34  1  0  0  0  0
 23 31  1  0  0  0  0
 45 47  1  0  0  0  0
  7 12  1  0  0  0  0
 35 40  1  0  0  0  0
 17 27  1  0  0  0  0
M  CHG  1  23   1
M  END
$$$$

  -OEChem-05262214473D

 50 50  0     1  0  0  0  0  0999 V2000
   -1.6938    0.4865    3.8080 C   0  0  0  0  0  0  0  0  0  0  0  0
   -0.7464   -0.1282    3.3323 O   0  0  0  0  0  0  0  0  0  0  0  0
   -2.1257    0.2041    5.2087 C   0  0  0  0  0  0  0  0  0  0  0  0
   -2.8853   -0.5922    5.2621 H   0  0  0  0  0  0  0  0  0  0  0  0
   -1.2944   -0.1435    5.8430 H   0  0  0  0  0  0  0  0  0  0  0  0
   -2.5637    1.0590    5.7483 H   0  0  0  0  0  0  0  0  0  0  0  0
   -2.4435    1.4589    3.1669 N   0  0  0  0  0  0  0  0  0  0  0  0
   -2.1966    1.8850    1.8145 C   0  0  2  0  0  0  0  0  0  0  0  0
   -0.8617    1.2996    1.3733 C   0  0  0  0  0  0  0  0  0  0  0  0
    0.0104    0.9468    2.1646 O   0  0  0  0  0  0  0  0  0  0  0  0
   -2.1879    3.4017    1.7050 C   0  0  0  0  0  0  0  0  0  0  0  0
   -3.2085    1.8948    3.6787 H   0  0  0  0  0  0  0  0  0  0  0  0
   -3.0007    1.4665    1.1994 H   0  0  0  0  0  0  0  0  0  0  0  0
   -1.3888    3.8390    2.3147 H   0  0  0  0  0  0  0  0  0  0  0  0
   -2.0284    3.7240    0.6708 H   0  0  0  0  0  0  0  0  0  0  0  0
   -3.1380    3.8230    2.0508 H   0  0  0  0  0  0  0  0  0  0  0  0
   -0.7390    1.2565   -0.0101 N   0  0  0  0  0  0  0  0  0  0  0  0
    0.4383    0.7557   -0.6738 C   0  0  2  0  0  0  0  0  0  0  0  0
   -0.0114    0.1655   -2.0055 C   0  0  0  0  0  0  0  0  0  0  0  0
    0.7178    0.1109   -2.9935 O   0  0  0  0  0  0  0  0  0  0  0  0
    1.1663   -0.3047    0.1604 C   0  0  0  0  0  0  0  0  0  0  0  0
    1.7091    0.2444    1.4572 C   0  0  0  0  0  0  0  0  0  0  0  0
    2.8284    1.0404    1.4963 N   0  3  0  0  0  0  0  0  0  0  0  0
    1.2815    0.1033    2.7472 C   0  0  0  0  0  0  0  0  0  0  0  0
    3.0885    1.3820    2.7624 C   0  0  0  0  0  0  0  0  0  0  0  0
    2.1536    0.8171    3.5334 N   0  0  0  0  0  0  0  0  0  0  0  0
   -1.5221    1.5532   -0.5874 H   0  0  0  0  0  0  0  0  0  0  0  0
    1.0820    1.6225   -0.8644 H   0  0  0  0  0  0  0  0  0  0  0  0
    1.9831   -0.7520   -0.4221 H   0  0  0  0  0  0  0  0  0  0  0  0
    0.4908   -1.1378    0.3957 H   0  0  0  0  0  0  0  0  0  0  0  0
    3.3777    1.3270    0.6906 H   0  0  0  0  0  0  0  0  0  0  0  0
    0.4765   -0.4057    3.2388 H   0  0  0  0  0  0  0  0  0  0  0  0
    3.9039    1.9996    3.1000 H   0  0  0  0  0  0  0  0  0  0  0  0
    2.0993    0.9034    4.5443 H   0  0  0  0  0  0  0  0  0  0  0  0
   -1.3040   -0.3361   -1.9416 N   0  0  0  0  0  0  0  0  0  0  0  0
   -1.9651   -0.9709   -3.0591 C   0  0  2  0  0  0  0  0  0  0  0  0
   -1.8212   -0.0591   -4.2704 C   0  0  0  0  0  0  0  0  0  0  0  0
   -1.6067    1.1479   -4.1797 O   0  0  0  0  0  0  0  0  0  0  0  0
   -3.4300   -1.2422   -2.7539 C   0  0  0  0  0  0  0  0  0  0  0  0
   -1.8108   -0.2527   -1.0653 H   0  0  0  0  0  0  0  0  0  0  0  0
   -1.4373   -1.9126   -3.2453 H   0  0  0  0  0  0  0  0  0  0  0  0
   -3.9751   -0.3104   -2.5645 H   0  0  0  0  0  0  0  0  0  0  0  0
   -3.9223   -1.7489   -3.5905 H   0  0  0  0  0  0  0  0  0  0  0  0
   -3.5324   -1.8738   -1.8648 H   0  0  0  0  0  0  0  0  0  0  0  0
   -2.0033   -0.7439   -5.4637 N   0  0  0  0  0  0  0  0  0  0  0  0
   -1.9288   -0.0972   -6.7530 C   0  0  0  0  0  0  0  0  0  0  0  0
   -2.1582   -1.7476   -5.4452 H   0  0  0  0  0  0  0  0  0  0  0  0
   -2.9344    0.2256   -7.0605 H   0  0  0  0  0  0  0  0  0  0  0  0
   -1.2671    0.7789   -6.6859 H   0  0  0  0  0  0  0  0  0  0  0  0
   -1.5279   -0.8037   -7.4948 H   0  0  0  0  0  0  0  0  0  0  0  0
 22 24  2  0  0  0  0
 24 26  1  0  0  0  0
 25 26  1  0  0  0  0
 23 25  2  0  0  0  0
 21 22  1  0  0  0  0
 22 23  1  0  0  0  0
  1  3  1  0  0  0  0
  1  7  1  0  0  0  0
  1  2  2  0  0  0  0
 36 37  1  0  0  0  0
 37 45  1  0  0  0  0
 37 38  2  0  0  0  0
  8  9  1  0  0  0  0
  9 17  1  0  0  0  0
  9 10  2  0  0  0  0
 18 19  1  0  0  0  0
 19 35  1  0  0  0  0
 19 20  2  0  0  0  0
 36 39  1  0  0  0  0
  8 11  1  0  0  0  0
 45 46  1  0  0  0  0
 18 21  1  0  0  0  0
 35 36  1  0  0  0  0
  7  8  1  0  0  0  0
 17 18  1  0  0  0  0
 24 32  1  0  0  0  0
 25 33  1  0  0  0  0
  3  4  1  0  0  0  0
  3  5  1  0  0  0  0
  3  6  1  0  0  0  0
 39 42  1  0  0  0  0
 39 43  1  0  0  0  0
 39 44  1  0  0  0  0
 11 14  1  0  0  0  0
 11 15  1  0  0  0  0
 11 16  1  0  0  0  0
 46 48  1  0  0  0  0
 46 49  1  0  0  0  0
 46 50  1  0  0  0  0
 21 29  1  0  0  0  0
 21 30  1  0  0  0  0
 36 41  1  0  0  0  0
  8 13  1  0  0  0  0
 18 28  1  0  0  0  0
 26 34  1  0  0  0  0
 23 31  1  0  0  0  0
 45 47  1  0  0  0  0
  7 12  1  0  0  0  0
 35 40  1  0  0  0  0
 17 27  1  0  0  0  0
M  CHG  1  23   1
M  END
$$$$

  -OEChem-05262214473D

 50 50  0     1  0  0  0  0  0999 V2000
   -1.6938    0.4865    3.8080 C   0  0  0  0  0  0  0  0  0  0  0  0
   -0.7464   -0.1282    3.3323 O   0  0  0  0  0  0  0  0  0  0  0  0
   -2.1257    0.2041    5.2087 C   0  0  0  0  0  0  0  0  0  0  0  0
   -2.8853   -0.5922    5.2621 H   0  0  0  0  0  0  0  0  0  0  0  0
   -1.2944   -0.1435    5.8430 H   0  0  0  0  0  0  0  0  0  0  0  0
   -2.5637    1.0590    5.7483 H   0  0  0  0  0  0  0  0  0  0  0  0
   -2.4435    1.4589    3.1669 N   0  0  0  0  0  0  0  0  0  0  0  0
   -2.1966    1.8850    1.8145 C   0  0  2  0  0  0  0  0  0  0  0  0
   -0.8617    1.2996    1.3733 C   0  0  0  0  0  0  0  0  0  0  0  0
    0.0104    0.9468    2.1646 O   0  0  0  0  0  0  0  0  0  0  0  0
   -2.1879    3.4017    1.7050 C   0  0  0  0  0  0  0  0  0  0  0  0
   -3.2085    1.8948    3.6787 H   0  0  0  0  0  0  0  0  0  0  0  0
   -3.0007    1.4665    1.1994 H   0  0  0  0  0  0  0  0  0  0  0  0
   -1.3888    3.8390    2.3147 H   0  0  0  0  0  0  0  0  0  0  0  0
   -2.0284    3.7240    0.6708 H   0  0  0  0  0  0  0  0  0  0  0  0
   -3.1380    3.8230    2.0508 H   0  0  0  0  0  0  0  0  0  0  0  0
   -0.7390    1.2565   -0.0101 N   0  0  0  0  0  0  0  0  0  0  0  0
    0.4383    0.7557   -0.6738 C   0  0  2  0  0  0  0  0  0  0  0  0
   -0.0114    0.1655   -2.0055 C   0  0  0  0  0  0  0  0  0  0  0  0
    0.7729   -0.1364   -2.9026 O   0  0  0  0  0  0  0  0  0  0  0  0
    1.1663   -0.3047    0.1604 C   0  0  0  0  0  0  0  0  0  0  0  0
    1.7091    0.2444    1.4572 C   0  0  0  0  0  0  0  0  0  0  0  0
    2.8284    1.0404    1.4963 N   0  3  0  0  0  0  0  0  0  0  0  0
    1.2815    0.1033    2.7472 C   0  0  0  0  0  0  0  0  0  0  0  0
    3.0885    1.3820    2.7624 C   0  0  0  0  0  0  0  0  0  0  0  0
    2.1536    0.8171    3.5334 N   0  0  0  0  0  0  0  0  0  0  0  0
   -1.5221    1.5532   -0.5874 H   0  0  0  0  0  0  0  0  0  0  0  0
    1.0820    1.6225   -0.8644 H   0  0  0  0  0  0  0  0  0  0  0  0
    1.9831   -0.7520   -0.4221 H   0  0  0  0  0  0  0  0  0  0  0  0
    0.4908   -1.1378    0.3957 H   0  0  0  0  0  0  0  0  0  0  0  0
    3.3777    1.3270    0.6906 H   0  0  0  0  0  0  0  0  0  0  0  0
    0.4765   -0.4057    3.2388 H   0  0  0  0  0  0  0  0  0  0  0  0
    3.9039    1.9996    3.1000 H   0  0  0  0  0  0  0  0  0  0  0  0
    2.0993    0.9034    4.5443 H   0  0  0  0  0  0  0  0  0  0  0  0
   -1.3850   -0.0287   -2.0505 N   0  0  0  0  0  0  0  0  0  0  0  0
   -2.0693   -0.5964   -3.1898 C   0  0  2  0  0  0  0  0  0  0  0  0
   -1.6095    0.1506   -4.4348 C   0  0  0  0  0  0  0  0  0  0  0  0
   -1.1324    1.2829   -4.3997 O   0  0  0  0  0  0  0  0  0  0  0  0
   -3.5790   -0.5076   -3.0292 C   0  0  0  0  0  0  0  0  0  0  0  0
   -1.9370    0.2418   -1.2419 H   0  0  0  0  0  0  0  0  0  0  0  0
   -1.7575   -1.6445   -3.2560 H   0  0  0  0  0  0  0  0  0  0  0  0
   -3.9102    0.5351   -2.9611 H   0  0  0  0  0  0  0  0  0  0  0  0
   -4.0960   -0.9637   -3.8798 H   0  0  0  0  0  0  0  0  0  0  0  0
   -3.9047   -1.0200   -2.1175 H   0  0  0  0  0  0  0  0  0  0  0  0
   -1.8344   -0.5788   -5.5939 N   0  0  0  0  0  0  0  0  0  0  0  0
   -1.4956   -0.0807   -6.9066 C   0  0  0  0  0  0  0  0  0  0  0  0
   -2.2170   -1.5174   -5.5273 H   0  0  0  0  0  0  0  0  0  0  0  0
   -2.3675    0.4292   -7.3421 H   0  0  0  0  0  0  0  0  0  0  0  0
   -0.6591    0.6289   -6.8247 H   0  0  0  0  0  0  0  0  0  0  0  0
   -1.2018   -0.9209   -7.5529 H   0  0  0  0  0  0  0  0  0  0  0  0
 22 24  2  0  0  0  0
 24 26  1  0  0  0  0
 25 26  1  0  0  0  0
 23 25  2  0  0  0  0
 21 22  1  0  0  0  0
 22 23  1  0  0  0  0
  1  3  1  0  0  0  0
  1  7  1  0  0  0  0
  1  2  2  0  0  0  0
 36 37  1  0  0  0  0
 37 45  1  0  0  0  0
 37 38  2  0  0  0  0
  8  9  1  0  0  0  0
  9 17  1  0  0  0  0
  9 10  2  0  0  0  0
 18 19  1  0  0  0  0
 19 35  1  0  0  0  0
 19 20  2  0  0  0  0
 36 39  1  0  0  0  0
  8 11  1  0  0  0  0
 45 46  1  0  0  0  0
 18 21  1  0  0  0  0
 35 36  1  0  0  0  0
  7  8  1  0  0  0  0
 17 18  1  0  0  0  0
 24 32  1  0  0  0  0
 25 33  1  0  0  0  0
  3  4  1  0  0  0  0
  3  5  1  0  0  0  0
  3  6  1  0  0  0  0
 39 42  1  0  0  0  0
 39 43  1  0  0  0  0
 39 44  1  0  0  0  0
 11 14  1  0  0  0  0
 11 15  1  0  0  0  0
 11 16  1  0  0  0  0
 46 48  1  0  0  0  0
 46 49  1  0  0  0  0
 46 50  1  0  0  0  0
 21 29  1  0  0  0  0
 21 30  1  0  0  0  0
 36 41  1  0  0  0  0
  8 13  1  0  0  0  0
 18 28  1  0  0  0  0
 26 34  1  0  0  0  0
 23 31  1  0  0  0  0
 45 47  1  0  0  0  0
  7 12  1  0  0  0  0
 35 40  1  0  0  0  0
 17 27  1  0  0  0  0
M  CHG  1  23   1
M  END
$$$$

  -OEChem-05262214473D

 50 50  0     1  0  0  0  0  0999 V2000
   -1.6938    0.4865    3.8080 C   0  0  0  0  0  0  0  0  0  0  0  0
   -0.7464   -0.1282    3.3323 O   0  0  0  0  0  0  0  0  0  0  0  0
   -2.1257    0.2041    5.2087 C   0  0  0  0  0  0  0  0  0  0  0  0
   -2.8853   -0.5922    5.2621 H   0  0  0  0  0  0  0  0  0  0  0  0
   -1.2944   -0.1435    5.8430 H   0  0  0  0  0  0  0  0  0  0  0  0
   -2.5637    1.0590    5.7483 H   0  0  0  0  0  0  0  0  0  0  0  0
   -2.4435    1.4589    3.1669 N   0  0  0  0  0  0  0  0  0  0  0  0
   -2.1966    1.8850    1.8145 C   0  0  2  0  0  0  0  0  0  0  0  0
   -0.8617    1.2996    1.3733 C   0  0  0  0  0  0  0  0  0  0  0  0
    0.0104    0.9468    2.1646 O   0  0  0  0  0  0  0  0  0  0  0  0
   -2.1879    3.4017    1.7050 C   0  0  0  0  0  0  0  0  0  0  0  0
   -3.2085    1.8948    3.6787 H   0  0  0  0  0  0  0  0  0  0  0  0
   -3.0007    1.4665    1.1994 H   0  0  0  0  0  0  0  0  0  0  0  0
   -1.3888    3.8390    2.3147 H   0  0  0  0  0  0  0  0  0  0  0  0
   -2.0284    3.7240    0.6708 H   0  0  0  0  0  0  0  0  0  0  0  0
   -3.1380    3.8230    2.0508 H   0  0  0  0  0  0  0  0  0  0  0  0
   -0.7390    1.2565   -0.0101 N   0  0  0  0  0  0  0  0  0  0  0  0
    0.4383    0.7557   -0.6738 C   0  0  2  0  0  0  0  0  0  0  0  0
   -0.0114    0.1655   -2.0055 C   0  0  0  0  0  0  0  0  0  0  0  0
    0.7611   -0.3807   -2.7903 O   0  0  0  0  0  0  0  0  0  0  0  0
    1.1663   -0.3047    0.1604 C   0  0  0  0  0  0  0  0  0  0  0  0
    1.7091    0.2444    1.4572 C   0  0  0  0  0  0  0  0  0  0  0  0
    2.8284    1.0404    1.4963 N   0  3  0  0  0  0  0  0  0  0  0  0
    1.2815    0.1033    2.7472 C   0  0  0  0  0  0  0  0  0  0  0  0
    3.0885    1.3820    2.7624 C   0  0  0  0  0  0  0  0  0  0  0  0
    2.1536    0.8171    3.5334 N   0  0  0  0  0  0  0  0  0  0  0  0
   -1.5221    1.5532   -0.5874 H   0  0  0  0  0  0  0  0  0  0  0  0
    1.0820    1.6225   -0.8644 H   0  0  0  0  0  0  0  0  0  0  0  0
    1.9831   -0.7520   -0.4221 H   0  0  0  0  0  0  0  0  0  0  0  0
    0.4908   -1.1378    0.3957 H   0  0  0  0  0  0  0  0  0  0  0  0
    3.3777    1.3270    0.6906 H   0  0  0  0  0  0  0  0  0  0  0  0
    0.4765   -0.4057    3.2388 H   0  0  0  0  0  0  0  0  0  0  0  0
    3.9039    1.9996    3.1000 H   0  0  0  0  0  0  0  0  0  0  0  0
    2.0993    0.9034    4.5443 H   0  0  0  0  0  0  0  0  0  0  0  0
   -1.3828    0.2782   -2.1872 N   0  0  0  0  0  0  0  0  0  0  0  0
   -2.0723   -0.2211   -3.3551 C   0  0  2  0  0  0  0  0  0  0  0  0
   -1.3411    0.2927   -4.5884 C   0  0  0  0  0  0  0  0  0  0  0  0
   -0.6217    1.2893   -4.5750 O   0  0  0  0  0  0  0  0  0  0  0  0
   -3.5292    0.2147   -3.3661 C   0  0  0  0  0  0  0  0  0  0  0  0
   -1.9294    0.7346   -1.4628 H   0  0  0  0  0  0  0  0  0  0  0  0
   -2.0052   -1.3139   -3.3189 H   0  0  0  0  0  0  0  0  0  0  0  0
   -3.6165    1.3067   -3.4022 H   0  0  0  0  0  0  0  0  0  0  0  0
   -4.0573   -0.1881   -4.2367 H   0  0  0  0  0  0  0  0  0  0  0  0
   -4.0460   -0.1303   -2.4640 H   0  0  0  0  0  0  0  0  0  0  0  0
   -1.6208   -0.4675   -5.7154 N   0  0  0  0  0  0  0  0  0  0  0  0
   -1.0580   -0.1744   -7.0128 C   0  0  0  0  0  0  0  0  0  0  0  0
   -2.2135   -1.2880   -5.6302 H   0  0  0  0  0  0  0  0  0  0  0  0
   -1.7457    0.4762   -7.5729 H   0  0  0  0  0  0  0  0  0  0  0  0
   -0.0918    0.3359   -6.8865 H   0  0  0  0  0  0  0  0  0  0  0  0
   -0.9075   -1.1124   -7.5674 H   0  0  0  0  0  0  0  0  0  0  0  0
 22 24  2  0  0  0  0
 24 26  1  0  0  0  0
 25 26  1  0  0  0  0
 23 25  2  0  0  0  0
 21 22  1  0  0  0  0
 22 23  1  0  0  0  0
  1  3  1  0  0  0  0
  1  7  1  0  0  0  0
  1  2  2  0  0  0  0
 36 37  1  0  0  0  0
 37 45  1  0  0  0  0
 37 38  2  0  0  0  0
  8  9  1  0  0  0  0
  9 17  1  0  0  0  0
  9 10  2  0  0  0  0
 18 19  1  0  0  0  0
 19 35  1  0  0  0  0
 19 20  2  0  0  0  0
 36 39  1  0  0  0  0
  8 11  1  0  0  0  0
 45 46  1  0  0  0  0
 18 21  1  0  0  0  0
 35 36  1  0  0  0  0
  7  8  1  0  0  0  0
 17 18  1  0  0  0  0
 24 32  1  0  0  0  0
 25 33  1  0  0  0  0
  3  4  1  0  0  0  0
  3  5  1  0  0  0  0
  3  6  1  0  0  0  0
 39 42  1  0  0  0  0
 39 43  1  0  0  0  0
 39 44  1  0  0  0  0
 11 14  1  0  0  0  0
 11 15  1  0  0  0  0
 11 16  1  0  0  0  0
 46 48  1  0  0  0  0
 46 49  1  0  0  0  0
 46 50  1  0  0  0  0
 21 29  1  0  0  0  0
 21 30  1  0  0  0  0
 36 41  1  0  0  0  0
  8 13  1  0  0  0  0
 18 28  1  0  0  0  0
 26 34  1  0  0  0  0
 23 31  1  0  0  0  0
 45 47  1  0  0  0  0
  7 12  1  0  0  0  0
 35 40  1  0  0  0  0
 17 27  1  0  0  0  0
M  CHG  1  23   1
M  END
$$$$

  -OEChem-05262214473D

 50 50  0     1  0  0  0  0  0999 V2000
   -1.6938    0.4865    3.8080 C   0  0  0  0  0  0  0  0  0  0  0  0
   -0.7464   -0.1282    3.3323 O   0  0  0  0  0  0  0  0  0  0  0  0
   -2.1257    0.2041    5.2087 C   0  0  0  0  0  0  0  0  0  0  0  0
   -2.8853   -0.5922    5.2621 H   0  0  0  0  0  0  0  0  0  0  0  0
   -1.2944   -0.1435    5.8430 H   0  0  0  0  0  0  0  0  0  0  0  0
   -2.5637    1.0590    5.7483 H   0  0  0  0  0  0  0  0  0  0  0  0
   -2.4435    1.4589    3.1669 N   0  0  0  0  0  0  0  0  0  0  0  0
   -2.1966    1.8850    1.8145 C   0  0  2  0  0  0  0  0  0  0  0  0
   -0.8617    1.2996    1.3733 C   0  0  0  0  0  0  0  0  0  0  0  0
    0.0104    0.9468    2.1646 O   0  0  0  0  0  0  0  0  0  0  0  0
   -2.1879    3.4017    1.7050 C   0  0  0  0  0  0  0  0  0  0  0  0
   -3.2085    1.8948    3.6787 H   0  0  0  0  0  0  0  0  0  0  0  0
   -3.0007    1.4665    1.1994 H   0  0  0  0  0  0  0  0  0  0  0  0
   -1.3888    3.8390    2.3147 H   0  0  0  0  0  0  0  0  0  0  0  0
   -2.0284    3.7240    0.6708 H   0  0  0  0  0  0  0  0  0  0  0  0
   -3.1380    3.8230    2.0508 H   0  0  0  0  0  0  0  0  0  0  0  0
   -0.7390    1.2565   -0.0101 N   0  0  0  0  0  0  0  0  0  0  0  0
    0.4383    0.7557   -0.6738 C   0  0  2  0  0  0  0  0  0  0  0  0
   -0.0114    0.1655   -2.0055 C   0  0  0  0  0  0  0  0  0  0  0  0
    0.6832   -0.6055   -2.6643 O   0  0  0  0  0  0  0  0  0  0  0  0
    1.1663   -0.3047    0.1604 C   0  0  0  0  0  0  0  0  0  0  0  0
    1.7091    0.2444    1.4572 C   0  0  0  0  0  0  0  0  0  0  0  0
    2.8284    1.0404    1.4963 N   0  3  0  0  0  0  0  0  0  0  0  0
    1.2815    0.1033    2.7472 C   0  0  0  0  0  0  0  0  0  0  0  0
    3.0885    1.3820    2.7624 C   0  0  0  0  0  0  0  0  0  0  0  0
    2.1536    0.8171    3.5334 N   0  0  0  0  0  0  0  0  0  0  0  0
   -1.5221    1.5532   -0.5874 H   0  0  0  0  0  0  0  0  0  0  0  0
    1.0820    1.6225   -0.8644 H   0  0  0  0  0  0  0  0  0  0  0  0
    1.9831   -0.7520   -0.4221 H   0  0  0  0  0  0  0  0  0  0  0  0
    0.4908   -1.1378    0.3957 H   0  0  0  0  0  0  0  0  0  0  0  0
    3.3777    1.3270    0.6906 H   0  0  0  0  0  0  0  0  0  0  0  0
    0.4765   -0.4057    3.2388 H   0  0  0  0  0  0  0  0  0  0  0  0
    3.9039    1.9996    3.1000 H   0  0  0  0  0  0  0  0  0  0  0  0
    2.0993    0.9034    4.5443 H   0  0  0  0  0  0  0  0  0  0  0  0
   -1.2976    0.5637   -2.3425 N   0  0  0  0  0  0  0  0  0  0  0  0
   -1.9737    0.1294   -3.5438 C   0  0  2  0  0  0  0  0  0  0  0  0
   -1.0344    0.3575   -4.7207 C   0  0  0  0  0  0  0  0  0  0  0  0
   -0.1093    1.1666   -4.6936 O   0  0  0  0  0  0  0  0  0  0  0  0
   -3.2841    0.8754   -3.7416 C   0  0  0  0  0  0  0  0  0  0  0  0
   -1.7884    1.1920   -1.7131 H   0  0  0  0  0  0  0  0  0  0  0  0
   -2.1633   -0.9434   -3.4297 H   0  0  0  0  0  0  0  0  0  0  0  0
   -3.1142    1.9520   -3.8578 H   0  0  0  0  0  0  0  0  0  0  0  0
   -3.8088    0.5251   -4.6366 H   0  0  0  0  0  0  0  0  0  0  0  0
   -3.9466    0.7345   -2.8808 H   0  0  0  0  0  0  0  0  0  0  0  0
   -1.3772   -0.4175   -5.8198 N   0  0  0  0  0  0  0  0  0  0  0  0
   -0.6459   -0.3720   -7.0644 C   0  0  0  0  0  0  0  0  0  0  0  0
   -2.1479   -1.0751   -5.7467 H   0  0  0  0  0  0  0  0  0  0  0  0
   -1.1114    0.3634   -7.7371 H   0  0  0  0  0  0  0  0  0  0  0  0
    0.3961   -0.0800   -6.8669 H   0  0  0  0  0  0  0  0  0  0  0  0
   -0.6651   -1.3650   -7.5374 H   0  0  0  0  0  0  0  0  0  0  0  0
 22 24  2  0  0  0  0
 24 26  1  0  0  0  0
 25 26  1  0  0  0  0
 23 25  2  0  0  0  0
 21 22  1  0  0  0  0
 22 23  1  0  0  0  0
  1  3  1  0  0  0  0
  1  7  1  0  0  0  0
  1  2  2  0  0  0  0
 36 37  1  0  0  0  0
 37 45  1  0  0  0  0
 37 38  2  0  0  0  0
  8  9  1  0  0  0  0
  9 17  1  0  0  0  0
  9 10  2  0  0  0  0
 18 19  1  0  0  0  0
 19 35  1  0  0  0  0
 19 20  2  0  0  0  0
 36 39  1  0  0  0  0
  8 11  1  0  0  0  0
 45 46  1  0  0  0  0
 18 21  1  0  0  0  0
 35 36  1  0  0  0  0
  7  8  1  0  0  0  0
 17 18  1  0  0  0  0
 24 32  1  0  0  0  0
 25 33  1  0  0  0  0
  3  4  1  0  0  0  0
  3  5  1  0  0  0  0
  3  6  1  0  0  0  0
 39 42  1  0  0  0  0
 39 43  1  0  0  0  0
 39 44  1  0  0  0  0
 11 14  1  0  0  0  0
 11 15  1  0  0  0  0
 11 16  1  0  0  0  0
 46 48  1  0  0  0  0
 46 49  1  0  0  0  0
 46 50  1  0  0  0  0
 21 29  1  0  0  0  0
 21 30  1  0  0  0  0
 36 41  1  0  0  0  0
  8 13  1  0  0  0  0
 18 28  1  0  0  0  0
 26 34  1  0  0  0  0
 23 31  1  0  0  0  0
 45 47  1  0  0  0  0
  7 12  1  0  0  0  0
 35 40  1  0  0  0  0
 17 27  1  0  0  0  0
M  CHG  1  23   1
M  END
$$$$

  -OEChem-05262214473D

 50 50  0     1  0  0  0  0  0999 V2000
   -1.6938    0.4865    3.8080 C   0  0  0  0  0  0  0  0  0  0  0  0
   -0.7464   -0.1282    3.3323 O   0  0  0  0  0  0  0  0  0  0  0  0
   -2.1257    0.2041    5.2087 C   0  0  0  0  0  0  0  0  0  0  0  0
   -2.8853   -0.5922    5.2621 H   0  0  0  0  0  0  0  0  0  0  0  0
   -1.2944   -0.1435    5.8430 H   0  0  0  0  0  0  0  0  0  0  0  0
   -2.5637    1.0590    5.7483 H   0  0  0  0  0  0  0  0  0  0  0  0
   -2.4435    1.4589    3.1669 N   0  0  0  0  0  0  0  0  0  0  0  0
   -2.1966    1.8850    1.8145 C   0  0  2  0  0  0  0  0  0  0  0  0
   -0.8617    1.2996    1.3733 C   0  0  0  0  0  0  0  0  0  0  0  0
    0.0104    0.9468    2.1646 O   0  0  0  0  0  0  0  0  0  0  0  0
   -2.1879    3.4017    1.7050 C   0  0  0  0  0  0  0  0  0  0  0  0
   -3.2085    1.8948    3.6787 H   0  0  0  0  0  0  0  0  0  0  0  0
   -3.0007    1.4665    1.1994 H   0  0  0  0  0  0  0  0  0  0  0  0
   -1.3888    3.8390    2.3147 H   0  0  0  0  0  0  0  0  0  0  0  0
   -2.0284    3.7240    0.6708 H   0  0  0  0  0  0  0  0  0  0  0  0
   -3.1380    3.8230    2.0508 H   0  0  0  0  0  0  0  0  0  0  0  0
   -0.7390    1.2565   -0.0101 N   0  0  0  0  0  0  0  0  0  0  0  0
    0.4383    0.7557   -0.6738 C   0  0  2  0  0  0  0  0  0  0  0  0
   -0.0114    0.1655   -2.0055 C   0  0  0  0  0  0  0  0  0  0  0  0
    0.5445   -0.7954   -2.5334 O   0  0  0  0  0  0  0  0  0  0  0  0
    1.1663   -0.3047    0.1604 C   0  0  0  0  0  0  0  0  0  0  0  0
    1.7091    0.2444    1.4572 C   0  0  0  0  0  0  0  0  0  0  0  0
    2.8284    1.0404    1.4963 N   0  3  0  0  0  0  0  0  0  0  0  0
    1.2815    0.1033    2.7472 C   0  0  0  0  0  0  0  0  0  0  0  0
    3.0885    1.3820    2.7624 C   0  0  0  0  0  0  0  0  0  0  0  0
    2.1536    0.8171    3.5334 N   0  0  0  0  0  0  0  0  0  0  0  0
   -1.5221    1.5532   -0.5874 H   0  0  0  0  0  0  0  0  0  0  0  0
    1.0820    1.6225   -0.8644 H   0  0  0  0  0  0  0  0  0  0  0  0
    1.9831   -0.7520   -0.4221 H   0  0  0  0  0  0  0  0  0  0  0  0
    0.4908   -1.1378    0.3957 H   0  0  0  0  0  0  0  0  0  0  0  0
    3.3777    1.3270    0.6906 H   0  0  0  0  0  0  0  0  0  0  0  0
    0.4765   -0.4057    3.2388 H   0  0  0  0  0  0  0  0  0  0  0  0
    3.9039    1.9996    3.1000 H   0  0  0  0  0  0  0  0  0  0  0  0
    2.0993    0.9034    4.5443 H   0  0  0  0  0  0  0  0  0  0  0  0
   -1.1352    0.8084   -2.5057 N   0  0  0  0  0  0  0  0  0  0  0  0
   -1.7803    0.4314   -3.7429 C   0  0  2  0  0  0  0  0  0  0  0  0
   -0.7102    0.3407   -4.8227 C   0  0  0  0  0  0  0  0  0  0  0  0
    0.3697    0.9231   -4.7475 O   0  0  0  0  0  0  0  0  0  0  0  0
   -2.8603    1.4295   -4.1303 C   0  0  0  0  0  0  0  0  0  0  0  0
   -1.5238    1.5828   -1.9757 H   0  0  0  0  0  0  0  0  0  0  0  0
   -2.2212   -0.5583   -3.5808 H   0  0  0  0  0  0  0  0  0  0  0  0
   -2.4375    2.4270   -4.2968 H   0  0  0  0  0  0  0  0  0  0  0  0
   -3.3674    1.1273   -5.0526 H   0  0  0  0  0  0  0  0  0  0  0  0
   -3.6133    1.5155   -3.3395 H   0  0  0  0  0  0  0  0  0  0  0  0
   -1.1201   -0.4323   -5.9000 N   0  0  0  0  0  0  0  0  0  0  0  0
   -0.2873   -0.6600   -7.0579 C   0  0  0  0  0  0  0  0  0  0  0  0
   -2.0247   -0.8932   -5.8689 H   0  0  0  0  0  0  0  0  0  0  0  0
   -0.5077    0.0985   -7.8235 H   0  0  0  0  0  0  0  0  0  0  0  0
    0.7714   -0.5906   -6.7673 H   0  0  0  0  0  0  0  0  0  0  0  0
   -0.4910   -1.6614   -7.4647 H   0  0  0  0  0  0  0  0  0  0  0  0
 22 24  2  0  0  0  0
 24 26  1  0  0  0  0
 25 26  1  0  0  0  0
 23 25  2  0  0  0  0
 21 22  1  0  0  0  0
 22 23  1  0  0  0  0
  1  3  1  0  0  0  0
  1  7  1  0  0  0  0
  1  2  2  0  0  0  0
 36 37  1  0  0  0  0
 37 45  1  0  0  0  0
 37 38  2  0  0  0  0
  8  9  1  0  0  0  0
  9 17  1  0  0  0  0
  9 10  2  0  0  0  0
 18 19  1  0  0  0  0
 19 35  1  0  0  0  0
 19 20  2  0  0  0  0
 36 39  1  0  0  0  0
  8 11  1  0  0  0  0
 45 46  1  0  0  0  0
 18 21  1  0  0  0  0
 35 36  1  0  0  0  0
  7  8  1  0  0  0  0
 17 18  1  0  0  0  0
 24 32  1  0  0  0  0
 25 33  1  0  0  0  0
  3  4  1  0  0  0  0
  3  5  1  0  0  0  0
  3  6  1  0  0  0  0
 39 42  1  0  0  0  0
 39 43  1  0  0  0  0
 39 44  1  0  0  0  0
 11 14  1  0  0  0  0
 11 15  1  0  0  0  0
 11 16  1  0  0  0  0
 46 48  1  0  0  0  0
 46 49  1  0  0  0  0
 46 50  1  0  0  0  0
 21 29  1  0  0  0  0
 21 30  1  0  0  0  0
 36 41  1  0  0  0  0
  8 13  1  0  0  0  0
 18 28  1  0  0  0  0
 26 34  1  0  0  0  0
 23 31  1  0  0  0  0
 45 47  1  0  0  0  0
  7 12  1  0  0  0  0
 35 40  1  0  0  0  0
 17 27  1  0  0  0  0
M  CHG  1  23   1
M  END
$$$$

  -OEChem-05262214473D

 50 50  0     1  0  0  0  0  0999 V2000
   -1.6938    0.4865    3.8080 C   0  0  0  0  0  0  0  0  0  0  0  0
   -0.7464   -0.1282    3.3323 O   0  0  0  0  0  0  0  0  0  0  0  0
   -2.1257    0.2041    5.2087 C   0  0  0  0  0  0  0  0  0  0  0  0
   -2.8853   -0.5922    5.2621 H   0  0  0  0  0  0  0  0  0  0  0  0
   -1.2944   -0.1435    5.8430 H   0  0  0  0  0  0  0  0  0  0  0  0
   -2.5637    1.0590    5.7483 H   0  0  0  0  0  0  0  0  0  0  0  0
   -2.4435    1.4589    3.1669 N   0  0  0  0  0  0  0  0  0  0  0  0
   -2.1966    1.8850    1.8145 C   0  0  2  0  0  0  0  0  0  0  0  0
   -0.8617    1.2996    1.3733 C   0  0  0  0  0  0  0  0  0  0  0  0
    0.0104    0.9468    2.1646 O   0  0  0  0  0  0  0  0  0  0  0  0
   -2.1879    3.4017    1.7050 C   0  0  0  0  0  0  0  0  0  0  0  0
   -3.2085    1.8948    3.6787 H   0  0  0  0  0  0  0  0  0  0  0  0
   -3.0007    1.4665    1.1994 H   0  0  0  0  0  0  0  0  0  0  0  0
   -1.3888    3.8390    2.3147 H   0  0  0  0  0  0  0  0  0  0  0  0
   -2.0284    3.7240    0.6708 H   0  0  0  0  0  0  0  0  0  0  0  0
   -3.1380    3.8230    2.0508 H   0  0  0  0  0  0  0  0  0  0  0  0
   -0.7390    1.2565   -0.0101 N   0  0  0  0  0  0  0  0  0  0  0  0
    0.4383    0.7557   -0.6738 C   0  0  2  0  0  0  0  0  0  0  0  0
   -0.0114    0.1655   -2.0055 C   0  0  0  0  0  0  0  0  0  0  0  0
    0.3544   -0.9374   -2.4062 O   0  0  0  0  0  0  0  0  0  0  0  0
    1.1663   -0.3047    0.1604 C   0  0  0  0  0  0  0  0  0  0  0  0
    1.7091    0.2444    1.4572 C   0  0  0  0  0  0  0  0  0  0  0  0
    2.8284    1.0404    1.4963 N   0  3  0  0  0  0  0  0  0  0  0  0
    1.2815    0.1033    2.7472 C   0  0  0  0  0  0  0  0  0  0  0  0
    3.0885    1.3820    2.7624 C   0  0  0  0  0  0  0  0  0  0  0  0
    2.1536    0.8171    3.5334 N   0  0  0  0  0  0  0  0  0  0  0  0
   -1.5221    1.5532   -0.5874 H   0  0  0  0  0  0  0  0  0  0  0  0
    1.0820    1.6225   -0.8644 H   0  0  0  0  0  0  0  0  0  0  0  0
    1.9831   -0.7520   -0.4221 H   0  0  0  0  0  0  0  0  0  0  0  0
    0.4908   -1.1378    0.3957 H   0  0  0  0  0  0  0  0  0  0  0  0
    3.3777    1.3270    0.6906 H   0  0  0  0  0  0  0  0  0  0  0  0
    0.4765   -0.4057    3.2388 H   0  0  0  0  0  0  0  0  0  0  0  0
    3.9039    1.9996    3.1000 H   0  0  0  0  0  0  0  0  0  0  0  0
    2.0993    0.9034    4.5443 H   0  0  0  0  0  0  0  0  0  0  0  0
   -0.9067    0.9955   -2.6659 N   0  0  0  0  0  0  0  0  0  0  0  0
   -1.5054    0.6641   -3.9388 C   0  0  2  0  0  0  0  0  0  0  0  0
   -0.3906    0.2434   -4.8875 C   0  0  0  0  0  0  0  0  0  0  0  0
    0.7827    0.5756   -4.7329 O   0  0  0  0  0  0  0  0  0  0  0  0
   -2.2867    1.8392   -4.5055 C   0  0  0  0  0  0  0  0  0  0  0  0
   -1.1535    1.8805   -2.2326 H   0  0  0  0  0  0  0  0  0  0  0  0
   -2.1750   -0.1847   -3.7620 H   0  0  0  0  0  0  0  0  0  0  0  0
   -1.6324    2.6992   -4.6893 H   0  0  0  0  0  0  0  0  0  0  0  0
   -2.7633    1.5775   -5.4560 H   0  0  0  0  0  0  0  0  0  0  0  0
   -3.0689    2.1595   -3.8088 H   0  0  0  0  0  0  0  0  0  0  0  0
   -0.8671   -0.5108   -5.9507 N   0  0  0  0  0  0  0  0  0  0  0  0
   -0.0067   -1.0187   -6.9937 C   0  0  0  0  0  0  0  0  0  0  0  0
   -1.8524   -0.7546   -5.9885 H   0  0  0  0  0  0  0  0  0  0  0  0
    0.0242   -0.3005   -7.8263 H   0  0  0  0  0  0  0  0  0  0  0  0
    1.0084   -1.1611   -6.5946 H   0  0  0  0  0  0  0  0  0  0  0  0
   -0.3972   -1.9816   -7.3545 H   0  0  0  0  0  0  0  0  0  0  0  0
 22 24  2  0  0  0  0
 24 26  1  0  0  0  0
 25 26  1  0  0  0  0
 23 25  2  0  0  0  0
 21 22  1  0  0  0  0
 22 23  1  0  0  0  0
  1  3  1  0  0  0  0
  1  7  1  0  0  0  0
  1  2  2  0  0  0  0
 36 37  1  0  0  0  0
 37 45  1  0  0  0  0
 37 38  2  0  0  0  0
  8  9  1  0  0  0  0
  9 17  1  0  0  0  0
  9 10  2  0  0  0  0
 18 19  1  0  0  0  0
 19 35  1  0  0  0  0
 19 20  2  0  0  0  0
 36 39  1  0  0  0  0
  8 11  1  0  0  0  0
 45 46  1  0  0  0  0
 18 21  1  0  0  0  0
 35 36  1  0  0  0  0
  7  8  1  0  0  0  0
 17 18  1  0  0  0  0
 24 32  1  0  0  0  0
 25 33  1  0  0  0  0
  3  4  1  0  0  0  0
  3  5  1  0  0  0  0
  3  6  1  0  0  0  0
 39 42  1  0  0  0  0
 39 43  1  0  0  0  0
 39 44  1  0  0  0  0
 11 14  1  0  0  0  0
 11 15  1  0  0  0  0
 11 16  1  0  0  0  0
 46 48  1  0  0  0  0
 46 49  1  0  0  0  0
 46 50  1  0  0  0  0
 21 29  1  0  0  0  0
 21 30  1  0  0  0  0
 36 41  1  0  0  0  0
  8 13  1  0  0  0  0
 18 28  1  0  0  0  0
 26 34  1  0  0  0  0
 23 31  1  0  0  0  0
 45 47  1  0  0  0  0
  7 12  1  0  0  0  0
 35 40  1  0  0  0  0
 17 27  1  0  0  0  0
M  CHG  1  23   1
M  END
$$$$

  -OEChem-05262214473D

 50 50  0     1  0  0  0  0  0999 V2000
   -1.6938    0.4865    3.8080 C   0  0  0  0  0  0  0  0  0  0  0  0
   -0.7464   -0.1282    3.3323 O   0  0  0  0  0  0  0  0  0  0  0  0
   -2.1257    0.2041    5.2087 C   0  0  0  0  0  0  0  0  0  0  0  0
   -2.8853   -0.5922    5.2621 H   0  0  0  0  0  0  0  0  0  0  0  0
   -1.2944   -0.1435    5.8430 H   0  0  0  0  0  0  0  0  0  0  0  0
   -2.5637    1.0590    5.7483 H   0  0  0  0  0  0  0  0  0  0  0  0
   -2.4435    1.4589    3.1669 N   0  0  0  0  0  0  0  0  0  0  0  0
   -2.1966    1.8850    1.8145 C   0  0  2  0  0  0  0  0  0  0  0  0
   -0.8617    1.2996    1.3733 C   0  0  0  0  0  0  0  0  0  0  0  0
    0.0104    0.9468    2.1646 O   0  0  0  0  0  0  0  0  0  0  0  0
   -2.1879    3.4017    1.7050 C   0  0  0  0  0  0  0  0  0  0  0  0
   -3.2085    1.8948    3.6787 H   0  0  0  0  0  0  0  0  0  0  0  0
   -3.0007    1.4665    1.1994 H   0  0  0  0  0  0  0  0  0  0  0  0
   -1.3888    3.8390    2.3147 H   0  0  0  0  0  0  0  0  0  0  0  0
   -2.0284    3.7240    0.6708 H   0  0  0  0  0  0  0  0  0  0  0  0
   -3.1380    3.8230    2.0508 H   0  0  0  0  0  0  0  0  0  0  0  0
   -0.7390    1.2565   -0.0101 N   0  0  0  0  0  0  0  0  0  0  0  0
    0.4383    0.7557   -0.6738 C   0  0  2  0  0  0  0  0  0  0  0  0
   -0.0114    0.1655   -2.0055 C   0  0  0  0  0  0  0  0  0  0  0  0
    0.1260   -1.0220   -2.2916 O   0  0  0  0  0  0  0  0  0  0  0  0
    1.1663   -0.3047    0.1604 C   0  0  0  0  0  0  0  0  0  0  0  0
    1.7091    0.2444    1.4572 C   0  0  0  0  0  0  0  0  0  0  0  0
    2.8284    1.0404    1.4963 N   0  3  0  0  0  0  0  0  0  0  0  0
    1.2815    0.1033    2.7472 C   0  0  0  0  0  0  0  0  0  0  0  0
    3.0885    1.3820    2.7624 C   0  0  0  0  0  0  0  0  0  0  0  0
    2.1536    0.8171    3.5334 N   0  0  0  0  0  0  0  0  0  0  0  0
   -1.5221    1.5532   -0.5874 H   0  0  0  0  0  0  0  0  0  0  0  0
    1.0820    1.6225   -0.8644 H   0  0  0  0  0  0  0  0  0  0  0  0
    1.9831   -0.7520   -0.4221 H   0  0  0  0  0  0  0  0  0  0  0  0
    0.4908   -1.1378    0.3957 H   0  0  0  0  0  0  0  0  0  0  0  0
    3.3777    1.3270    0.6906 H   0  0  0  0  0  0  0  0  0  0  0  0
    0.4765   -0.4057    3.2388 H   0  0  0  0  0  0  0  0  0  0  0  0
    3.9039    1.9996    3.1000 H   0  0  0  0  0  0  0  0  0  0  0  0
    2.0993    0.9034    4.5443 H   0  0  0  0  0  0  0  0  0  0  0  0
   -0.6276    1.1124   -2.8119 N   0  0  0  0  0  0  0  0  0  0  0  0
   -1.1675    0.8117   -4.1184 C   0  0  2  0  0  0  0  0  0  0  0  0
   -0.0975    0.0721   -4.9106 C   0  0  0  0  0  0  0  0  0  0  0  0
    1.1017    0.1476   -4.6510 O   0  0  0  0  0  0  0  0  0  0  0  0
   -1.6025    2.0767   -4.8418 C   0  0  0  0  0  0  0  0  0  0  0  0
   -0.7028    2.0646   -2.4664 H   0  0  0  0  0  0  0  0  0  0  0  0
   -2.0276    0.1519   -3.9609 H   0  0  0  0  0  0  0  0  0  0  0  0
   -0.7540    2.7502   -5.0085 H   0  0  0  0  0  0  0  0  0  0  0  0
   -2.0375    1.8448   -5.8196 H   0  0  0  0  0  0  0  0  0  0  0  0
   -2.3503    2.6227   -4.2567 H   0  0  0  0  0  0  0  0  0  0  0  0
   -0.6353   -0.6477   -5.9683 N   0  0  0  0  0  0  0  0  0  0  0  0
    0.1768   -1.4237   -6.8761 C   0  0  0  0  0  0  0  0  0  0  0  0
   -1.6426   -0.6688   -6.0974 H   0  0  0  0  0  0  0  0  0  0  0  0
    0.4481   -0.8064   -7.7453 H   0  0  0  0  0  0  0  0  0  0  0  0
    1.0911   -1.7525   -6.3604 H   0  0  0  0  0  0  0  0  0  0  0  0
   -0.3900   -2.3037   -7.2142 H   0  0  0  0  0  0  0  0  0  0  0  0
 22 24  2  0  0  0  0
 24 26  1  0  0  0  0
 25 26  1  0  0  0  0
 23 25  2  0  0  0  0
 21 22  1  0  0  0  0
 22 23  1  0  0  0  0
  1  3  1  0  0  0  0
  1  7  1  0  0  0  0
  1  2  2  0  0  0  0
 36 37  1  0  0  0  0
 37 45  1  0  0  0  0
 37 38  2  0  0  0  0
  8  9  1  0  0  0  0
  9 17  1  0  0  0  0
  9 10  2  0  0  0  0
 18 19  1  0  0  0  0
 19 35  1  0  0  0  0
 19 20  2  0  0  0  0
 36 39  1  0  0  0  0
  8 11  1  0  0  0  0
 45 46  1  0  0  0  0
 18 21  1  0  0  0  0
 35 36  1  0  0  0  0
  7  8  1  0  0  0  0
 17 18  1  0  0  0  0
 24 32  1  0  0  0  0
 25 33  1  0  0  0  0
  3  4  1  0  0  0  0
  3  5  1  0  0  0  0
  3  6  1  0  0  0  0
 39 42  1  0  0  0  0
 39 43  1  0  0  0  0
 39 44  1  0  0  0  0
 11 14  1  0  0  0  0
 11 15  1  0  0  0  0
 11 16  1  0  0  0  0
 46 48  1  0  0  0  0
 46 49  1  0  0  0  0
 46 50  1  0  0  0  0
 21 29  1  0  0  0  0
 21 30  1  0  0  0  0
 36 41  1  0  0  0  0
  8 13  1  0  0  0  0
 18 28  1  0  0  0  0
 26 34  1  0  0  0  0
 23 31  1  0  0  0  0
 45 47  1  0  0  0  0
  7 12  1  0  0  0  0
 35 40  1  0  0  0  0
 17 27  1  0  0  0  0
M  CHG  1  23   1
M  END
$$$$

  -OEChem-05262214473D

 50 50  0     1  0  0  0  0  0999 V2000
   -1.6938    0.4865    3.8080 C   0  0  0  0  0  0  0  0  0  0  0  0
   -0.7464   -0.1282    3.3323 O   0  0  0  0  0  0  0  0  0  0  0  0
   -2.1257    0.2041    5.2087 C   0  0  0  0  0  0  0  0  0  0  0  0
   -2.8853   -0.5922    5.2621 H   0  0  0  0  0  0  0  0  0  0  0  0
   -1.2944   -0.1435    5.8430 H   0  0  0  0  0  0  0  0  0  0  0  0
   -2.5637    1.0590    5.7483 H   0  0  0  0  0  0  0  0  0  0  0  0
   -2.4435    1.4589    3.1669 N   0  0  0  0  0  0  0  0  0  0  0  0
   -2.1966    1.8850    1.8145 C   0  0  2  0  0  0  0  0  0  0  0  0
   -0.8617    1.2996    1.3733 C   0  0  0  0  0  0  0  0  0  0  0  0
    0.0104    0.9468    2.1646 O   0  0  0  0  0  0  0  0  0  0  0  0
   -2.1879    3.4017    1.7050 C   0  0  0  0  0  0  0  0  0  0  0  0
   -3.2085    1.8948    3.6787 H   0  0  0  0  0  0  0  0  0  0  0  0
   -3.0007    1.4665    1.1994 H   0  0  0  0  0  0  0  0  0  0  0  0
   -1.3888    3.8390    2.3147 H   0  0  0  0  0  0  0  0  0  0  0  0
   -2.0284    3.7240    0.6708 H   0  0  0  0  0  0  0  0  0  0  0  0
   -3.1380    3.8230    2.0508 H   0  0  0  0  0  0  0  0  0  0  0  0
   -0.7390    1.2565   -0.0101 N   0  0  0  0  0  0  0  0  0  0  0  0
    0.4383    0.7557   -0.6738 C   0  0  2  0  0  0  0  0  0  0  0  0
   -0.0114    0.1655   -2.0055 C   0  0  0  0  0  0  0  0  0  0  0  0
   -0.1252   -1.0433   -2.1974 O   0  0  0  0  0  0  0  0  0  0  0  0
    1.1663   -0.3047    0.1604 C   0  0  0  0  0  0  0  0  0  0  0  0
    1.7091    0.2444    1.4572 C   0  0  0  0  0  0  0  0  0  0  0  0
    2.8284    1.0404    1.4963 N   0  3  0  0  0  0  0  0  0  0  0  0
    1.2815    0.1033    2.7472 C   0  0  0  0  0  0  0  0  0  0  0  0
    3.0885    1.3820    2.7624 C   0  0  0  0  0  0  0  0  0  0  0  0
    2.1536    0.8171    3.5334 N   0  0  0  0  0  0  0  0  0  0  0  0
   -1.5221    1.5532   -0.5874 H   0  0  0  0  0  0  0  0  0  0  0  0
    1.0820    1.6225   -0.8644 H   0  0  0  0  0  0  0  0  0  0  0  0
    1.9831   -0.7520   -0.4221 H   0  0  0  0  0  0  0  0  0  0  0  0
    0.4908   -1.1378    0.3957 H   0  0  0  0  0  0  0  0  0  0  0  0
    3.3777    1.3270    0.6906 H   0  0  0  0  0  0  0  0  0  0  0  0
    0.4765   -0.4057    3.2388 H   0  0  0  0  0  0  0  0  0  0  0  0
    3.9039    1.9996    3.1000 H   0  0  0  0  0  0  0  0  0  0  0  0
    2.0993    0.9034    4.5443 H   0  0  0  0  0  0  0  0  0  0  0  0
   -0.3169    1.1510   -2.9339 N   0  0  0  0  0  0  0  0  0  0  0  0
   -0.7897    0.8642   -4.2692 C   0  0  2  0  0  0  0  0  0  0  0  0
    0.1493   -0.1613   -4.8905 C   0  0  0  0  0  0  0  0  0  0  0  0
    1.3048   -0.3317   -4.5072 O   0  0  0  0  0  0  0  0  0  0  0  0
   -0.8542    2.1256   -5.1162 C   0  0  0  0  0  0  0  0  0  0  0  0
   -0.2024    2.1227   -2.6611 H   0  0  0  0  0  0  0  0  0  0  0  0
   -1.7893    0.4285   -4.1640 H   0  0  0  0  0  0  0  0  0  0  0  0
    0.1381    2.5765   -5.2328 H   0  0  0  0  0  0  0  0  0  0  0  0
   -1.2396    1.9113   -6.1185 H   0  0  0  0  0  0  0  0  0  0  0  0
   -1.5066    2.8734   -4.6527 H   0  0  0  0  0  0  0  0  0  0  0  0
   -0.4407   -0.8337   -5.9515 N   0  0  0  0  0  0  0  0  0  0  0  0
    0.2507   -1.8475   -6.7133 C   0  0  0  0  0  0  0  0  0  0  0  0
   -1.4097   -0.6417   -6.1880 H   0  0  0  0  0  0  0  0  0  0  0  0
    0.7350   -1.3847   -7.5859 H   0  0  0  0  0  0  0  0  0  0  0  0
    1.0138   -2.3245   -6.0808 H   0  0  0  0  0  0  0  0  0  0  0  0
   -0.4700   -2.6057   -7.0534 H   0  0  0  0  0  0  0  0  0  0  0  0
 22 24  2  0  0  0  0
 24 26  1  0  0  0  0
 25 26  1  0  0  0  0
 23 25  2  0  0  0  0
 21 22  1  0  0  0  0
 22 23  1  0  0  0  0
  1  3  1  0  0  0  0
  1  7  1  0  0  0  0
  1  2  2  0  0  0  0
 36 37  1  0  0  0  0
 37 45  1  0  0  0  0
 37 38  2  0  0  0  0
  8  9  1  0  0  0  0
  9 17  1  0  0  0  0
  9 10  2  0  0  0  0
 18 19  1  0  0  0  0
 19 35  1  0  0  0  0
 19 20  2  0  0  0  0
 36 39  1  0  0  0  0
  8 11  1  0  0  0  0
 45 46  1  0  0  0  0
 18 21  1  0  0  0  0
 35 36  1  0  0  0  0
  7  8  1  0  0  0  0
 17 18  1  0  0  0  0
 24 32  1  0  0  0  0
 25 33  1  0  0  0  0
  3  4  1  0  0  0  0
  3  5  1  0  0  0  0
  3  6  1  0  0  0  0
 39 42  1  0  0  0  0
 39 43  1  0  0  0  0
 39 44  1  0  0  0  0
 11 14  1  0  0  0  0
 11 15  1  0  0  0  0
 11 16  1  0  0  0  0
 46 48  1  0  0  0  0
 46 49  1  0  0  0  0
 46 50  1  0  0  0  0
 21 29  1  0  0  0  0
 21 30  1  0  0  0  0
 36 41  1  0  0  0  0
  8 13  1  0  0  0  0
 18 28  1  0  0  0  0
 26 34  1  0  0  0  0
 23 31  1  0  0  0  0
 45 47  1  0  0  0  0
  7 12  1  0  0  0  0
 35 40  1  0  0  0  0
 17 27  1  0  0  0  0
M  CHG  1  23   1
M  END
$$$$

  -OEChem-05262214473D

 50 50  0     1  0  0  0  0  0999 V2000
   -1.6938    0.4865    3.8080 C   0  0  0  0  0  0  0  0  0  0  0  0
   -0.7464   -0.1282    3.3323 O   0  0  0  0  0  0  0  0  0  0  0  0
   -2.1257    0.2041    5.2087 C   0  0  0  0  0  0  0  0  0  0  0  0
   -2.8853   -0.5922    5.2621 H   0  0  0  0  0  0  0  0  0  0  0  0
   -1.2944   -0.1435    5.8430 H   0  0  0  0  0  0  0  0  0  0  0  0
   -2.5637    1.0590    5.7483 H   0  0  0  0  0  0  0  0  0  0  0  0
   -2.4435    1.4589    3.1669 N   0  0  0  0  0  0  0  0  0  0  0  0
   -2.1966    1.8850    1.8145 C   0  0  2  0  0  0  0  0  0  0  0  0
   -0.8617    1.2996    1.3733 C   0  0  0  0  0  0  0  0  0  0  0  0
    0.0104    0.9468    2.1646 O   0  0  0  0  0  0  0  0  0  0  0  0
   -2.1879    3.4017    1.7050 C   0  0  0  0  0  0  0  0  0  0  0  0
   -3.2085    1.8948    3.6787 H   0  0  0  0  0  0  0  0  0  0  0  0
   -3.0007    1.4665    1.1994 H   0  0  0  0  0  0  0  0  0  0  0  0
   -1.3888    3.8390    2.3147 H   0  0  0  0  0  0  0  0  0  0  0  0
   -2.0284    3.7240    0.6708 H   0  0  0  0  0  0  0  0  0  0  0  0
   -3.1380    3.8230    2.0508 H   0  0  0  0  0  0  0  0  0  0  0  0
   -0.7390    1.2565   -0.0101 N   0  0  0  0  0  0  0  0  0  0  0  0
    0.4383    0.7557   -0.6738 C   0  0  2  0  0  0  0  0  0  0  0  0
   -0.0114    0.1655   -2.0055 C   0  0  0  0  0  0  0  0  0  0  0  0
   -0.3821   -0.9998   -2.1299 O   0  0  0  0  0  0  0  0  0  0  0  0
    1.1663   -0.3047    0.1604 C   0  0  0  0  0  0  0  0  0  0  0  0
    1.7091    0.2444    1.4572 C   0  0  0  0  0  0  0  0  0  0  0  0
    2.8284    1.0404    1.4963 N   0  3  0  0  0  0  0  0  0  0  0  0
    1.2815    0.1033    2.7472 C   0  0  0  0  0  0  0  0  0  0  0  0
    3.0885    1.3820    2.7624 C   0  0  0  0  0  0  0  0  0  0  0  0
    2.1536    0.8171    3.5334 N   0  0  0  0  0  0  0  0  0  0  0  0
   -1.5221    1.5532   -0.5874 H   0  0  0  0  0  0  0  0  0  0  0  0
    1.0820    1.6225   -0.8644 H   0  0  0  0  0  0  0  0  0  0  0  0
    1.9831   -0.7520   -0.4221 H   0  0  0  0  0  0  0  0  0  0  0  0
    0.4908   -1.1378    0.3957 H   0  0  0  0  0  0  0  0  0  0  0  0
    3.3777    1.3270    0.6906 H   0  0  0  0  0  0  0  0  0  0  0  0
    0.4765   -0.4057    3.2388 H   0  0  0  0  0  0  0  0  0  0  0  0
    3.9039    1.9996    3.1000 H   0  0  0  0  0  0  0  0  0  0  0  0
    2.0993    0.9034    4.5443 H   0  0  0  0  0  0  0  0  0  0  0  0
    0.0041    1.1088   -3.0236 N   0  0  0  0  0  0  0  0  0  0  0  0
   -0.3979    0.8180   -4.3810 C   0  0  2  0  0  0  0  0  0  0  0  0
    0.3329   -0.4410   -4.8285 C   0  0  0  0  0  0  0  0  0  0  0  0
    1.3782   -0.8295   -4.3113 O   0  0  0  0  0  0  0  0  0  0  0  0
   -0.0928    1.9828   -5.3100 C   0  0  0  0  0  0  0  0  0  0  0  0
    0.3136    2.0509   -2.8035 H   0  0  0  0  0  0  0  0  0  0  0  0
   -1.4762    0.6262   -4.3573 H   0  0  0  0  0  0  0  0  0  0  0  0
    0.9830    2.1899   -5.3467 H   0  0  0  0  0  0  0  0  0  0  0  0
   -0.4239    1.7722   -6.3323 H   0  0  0  0  0  0  0  0  0  0  0  0
   -0.5953    2.8947   -4.9698 H   0  0  0  0  0  0  0  0  0  0  0  0
   -0.2964   -1.0561   -5.9017 N   0  0  0  0  0  0  0  0  0  0  0  0
    0.2100   -2.2611   -6.5163 C   0  0  0  0  0  0  0  0  0  0  0  0
   -1.1695   -0.6751   -6.2543 H   0  0  0  0  0  0  0  0  0  0  0  0
    0.8654   -1.9959   -7.3590 H   0  0  0  0  0  0  0  0  0  0  0  0
    0.7818   -2.8383   -5.7747 H   0  0  0  0  0  0  0  0  0  0  0  0
   -0.6316   -2.8671   -6.8830 H   0  0  0  0  0  0  0  0  0  0  0  0
 22 24  2  0  0  0  0
 24 26  1  0  0  0  0
 25 26  1  0  0  0  0
 23 25  2  0  0  0  0
 21 22  1  0  0  0  0
 22 23  1  0  0  0  0
  1  3  1  0  0  0  0
  1  7  1  0  0  0  0
  1  2  2  0  0  0  0
 36 37  1  0  0  0  0
 37 45  1  0  0  0  0
 37 38  2  0  0  0  0
  8  9  1  0  0  0  0
  9 17  1  0  0  0  0
  9 10  2  0  0  0  0
 18 19  1  0  0  0  0
 19 35  1  0  0  0  0
 19 20  2  0  0  0  0
 36 39  1  0  0  0  0
  8 11  1  0  0  0  0
 45 46  1  0  0  0  0
 18 21  1  0  0  0  0
 35 36  1  0  0  0  0
  7  8  1  0  0  0  0
 17 18  1  0  0  0  0
 24 32  1  0  0  0  0
 25 33  1  0  0  0  0
  3  4  1  0  0  0  0
  3  5  1  0  0  0  0
  3  6  1  0  0  0  0
 39 42  1  0  0  0  0
 39 43  1  0  0  0  0
 39 44  1  0  0  0  0
 11 14  1  0  0  0  0
 11 15  1  0  0  0  0
 11 16  1  0  0  0  0
 46 48  1  0  0  0  0
 46 49  1  0  0  0  0
 46 50  1  0  0  0  0
 21 29  1  0  0  0  0
 21 30  1  0  0  0  0
 36 41  1  0  0  0  0
  8 13  1  0  0  0  0
 18 28  1  0  0  0  0
 26 34  1  0  0  0  0
 23 31  1  0  0  0  0
 45 47  1  0  0  0  0
  7 12  1  0  0  0  0
 35 40  1  0  0  0  0
 17 27  1  0  0  0  0
M  CHG  1  23   1
M  END
$$$$

  -OEChem-05262214473D

 50 50  0     1  0  0  0  0  0999 V2000
   -1.6938    0.4865    3.8080 C   0  0  0  0  0  0  0  0  0  0  0  0
   -0.7464   -0.1282    3.3323 O   0  0  0  0  0  0  0  0  0  0  0  0
   -2.1257    0.2041    5.2087 C   0  0  0  0  0  0  0  0  0  0  0  0
   -2.8853   -0.5922    5.2621 H   0  0  0  0  0  0  0  0  0  0  0  0
   -1.2944   -0.1435    5.8430 H   0  0  0  0  0  0  0  0  0  0  0  0
   -2.5637    1.0590    5.7483 H   0  0  0  0  0  0  0  0  0  0  0  0
   -2.4435    1.4589    3.1669 N   0  0  0  0  0  0  0  0  0  0  0  0
   -2.1966    1.8850    1.8145 C   0  0  2  0  0  0  0  0  0  0  0  0
   -0.8617    1.2996    1.3733 C   0  0  0  0  0  0  0  0  0  0  0  0
    0.0104    0.9468    2.1646 O   0  0  0  0  0  0  0  0  0  0  0  0
   -2.1879    3.4017    1.7050 C   0  0  0  0  0  0  0  0  0  0  0  0
   -3.2085    1.8948    3.6787 H   0  0  0  0  0  0  0  0  0  0  0  0
   -3.0007    1.4665    1.1994 H   0  0  0  0  0  0  0  0  0  0  0  0
   -1.3888    3.8390    2.3147 H   0  0  0  0  0  0  0  0  0  0  0  0
   -2.0284    3.7240    0.6708 H   0  0  0  0  0  0  0  0  0  0  0  0
   -3.1380    3.8230    2.0508 H   0  0  0  0  0  0  0  0  0  0  0  0
   -0.7390    1.2565   -0.0101 N   0  0  0  0  0  0  0  0  0  0  0  0
    0.4383    0.7557   -0.6738 C   0  0  2  0  0  0  0  0  0  0  0  0
   -0.0114    0.1655   -2.0055 C   0  0  0  0  0  0  0  0  0  0  0  0
   -0.6272   -0.8946   -2.0937 O   0  0  0  0  0  0  0  0  0  0  0  0
    1.1663   -0.3047    0.1604 C   0  0  0  0  0  0  0  0  0  0  0  0
    1.7091    0.2444    1.4572 C   0  0  0  0  0  0  0  0  0  0  0  0
    2.8284    1.0404    1.4963 N   0  3  0  0  0  0  0  0  0  0  0  0
    1.2815    0.1033    2.7472 C   0  0  0  0  0  0  0  0  0  0  0  0
    3.0885    1.3820    2.7624 C   0  0  0  0  0  0  0  0  0  0  0  0
    2.1536    0.8171    3.5334 N   0  0  0  0  0  0  0  0  0  0  0  0
   -1.5221    1.5532   -0.5874 H   0  0  0  0  0  0  0  0  0  0  0  0
    1.0820    1.6225   -0.8644 H   0  0  0  0  0  0  0  0  0  0  0  0
    1.9831   -0.7520   -0.4221 H   0  0  0  0  0  0  0  0  0  0  0  0
    0.4908   -1.1378    0.3957 H   0  0  0  0  0  0  0  0  0  0  0  0
    3.3777    1.3270    0.6906 H   0  0  0  0  0  0  0  0  0  0  0  0
    0.4765   -0.4057    3.2388 H   0  0  0  0  0  0  0  0  0  0  0  0
    3.9039    1.9996    3.1000 H   0  0  0  0  0  0  0  0  0  0  0  0
    2.0993    0.9034    4.5443 H   0  0  0  0  0  0  0  0  0  0  0  0
    0.3137    0.9886   -3.0748 N   0  0  0  0  0  0  0  0  0  0  0  0
   -0.0186    0.6763   -4.4463 C   0  0  2  0  0  0  0  0  0  0  0  0
    0.4407   -0.7480   -4.7289 C   0  0  0  0  0  0  0  0  0  0  0  0
    1.3169   -1.3121   -4.0768 O   0  0  0  0  0  0  0  0  0  0  0  0
    0.6298    1.6579   -5.4100 C   0  0  0  0  0  0  0  0  0  0  0  0
    0.8101    1.8539   -2.8839 H   0  0  0  0  0  0  0  0  0  0  0  0
   -1.1096    0.7317   -4.5278 H   0  0  0  0  0  0  0  0  0  0  0  0
    1.7231    1.6167   -5.3426 H   0  0  0  0  0  0  0  0  0  0  0  0
    0.3540    1.4371   -6.4465 H   0  0  0  0  0  0  0  0  0  0  0  0
    0.3215    2.6849   -5.1864 H   0  0  0  0  0  0  0  0  0  0  0  0
   -0.2123   -1.2998   -5.8221 N   0  0  0  0  0  0  0  0  0  0  0  0
    0.0574   -2.6363   -6.2984 C   0  0  0  0  0  0  0  0  0  0  0  0
   -0.9384   -0.7668   -6.2917 H   0  0  0  0  0  0  0  0  0  0  0  0
    0.8304   -2.5985   -7.0801 H   0  0  0  0  0  0  0  0  0  0  0  0
    0.4109   -3.2587   -5.4632 H   0  0  0  0  0  0  0  0  0  0  0  0
   -0.8639   -3.0700   -6.7146 H   0  0  0  0  0  0  0  0  0  0  0  0
 22 24  2  0  0  0  0
 24 26  1  0  0  0  0
 25 26  1  0  0  0  0
 23 25  2  0  0  0  0
 21 22  1  0  0  0  0
 22 23  1  0  0  0  0
  1  3  1  0  0  0  0
  1  7  1  0  0  0  0
  1  2  2  0  0  0  0
 36 37  1  0  0  0  0
 37 45  1  0  0  0  0
 37 38  2  0  0  0  0
  8  9  1  0  0  0  0
  9 17  1  0  0  0  0
  9 10  2  0  0  0  0
 18 19  1  0  0  0  0
 19 35  1  0  0  0  0
 19 20  2  0  0  0  0
 36 39  1  0  0  0  0
  8 11  1  0  0  0  0
 45 46  1  0  0  0  0
 18 21  1  0  0  0  0
 35 36  1  0  0  0  0
  7  8  1  0  0  0  0
 17 18  1  0  0  0  0
 24 32  1  0  0  0  0
 25 33  1  0  0  0  0
  3  4  1  0  0  0  0
  3  5  1  0  0  0  0
  3  6  1  0  0  0  0
 39 42  1  0  0  0  0
 39 43  1  0  0  0  0
 39 44  1  0  0  0  0
 11 14  1  0  0  0  0
 11 15  1  0  0  0  0
 11 16  1  0  0  0  0
 46 48  1  0  0  0  0
 46 49  1  0  0  0  0
 46 50  1  0  0  0  0
 21 29  1  0  0  0  0
 21 30  1  0  0  0  0
 36 41  1  0  0  0  0
  8 13  1  0  0  0  0
 18 28  1  0  0  0  0
 26 34  1  0  0  0  0
 23 31  1  0  0  0  0
 45 47  1  0  0  0  0
  7 12  1  0  0  0  0
 35 40  1  0  0  0  0
 17 27  1  0  0  0  0
M  CHG  1  23   1
M  END
$$$$

  -OEChem-05262214473D

 50 50  0     1  0  0  0  0  0999 V2000
   -1.6938    0.4865    3.8080 C   0  0  0  0  0  0  0  0  0  0  0  0
   -0.7464   -0.1282    3.3323 O   0  0  0  0  0  0  0  0  0  0  0  0
   -2.1257    0.2041    5.2087 C   0  0  0  0  0  0  0  0  0  0  0  0
   -2.8853   -0.5922    5.2621 H   0  0  0  0  0  0  0  0  0  0  0  0
   -1.2944   -0.1435    5.8430 H   0  0  0  0  0  0  0  0  0  0  0  0
   -2.5637    1.0590    5.7483 H   0  0  0  0  0  0  0  0  0  0  0  0
   -2.4435    1.4589    3.1669 N   0  0  0  0  0  0  0  0  0  0  0  0
   -2.1966    1.8850    1.8145 C   0  0  2  0  0  0  0  0  0  0  0  0
   -0.8617    1.2996    1.3733 C   0  0  0  0  0  0  0  0  0  0  0  0
    0.0104    0.9468    2.1646 O   0  0  0  0  0  0  0  0  0  0  0  0
   -2.1879    3.4017    1.7050 C   0  0  0  0  0  0  0  0  0  0  0  0
   -3.2085    1.8948    3.6787 H   0  0  0  0  0  0  0  0  0  0  0  0
   -3.0007    1.4665    1.1994 H   0  0  0  0  0  0  0  0  0  0  0  0
   -1.3888    3.8390    2.3147 H   0  0  0  0  0  0  0  0  0  0  0  0
   -2.0284    3.7240    0.6708 H   0  0  0  0  0  0  0  0  0  0  0  0
   -3.1380    3.8230    2.0508 H   0  0  0  0  0  0  0  0  0  0  0  0
   -0.7390    1.2565   -0.0101 N   0  0  0  0  0  0  0  0  0  0  0  0
    0.4383    0.7557   -0.6738 C   0  0  2  0  0  0  0  0  0  0  0  0
   -0.0114    0.1655   -2.0055 C   0  0  0  0  0  0  0  0  0  0  0  0
   -0.8438   -0.7348   -2.0914 O   0  0  0  0  0  0  0  0  0  0  0  0
    1.1663   -0.3047    0.1604 C   0  0  0  0  0  0  0  0  0  0  0  0
    1.7091    0.2444    1.4572 C   0  0  0  0  0  0  0  0  0  0  0  0
    2.8284    1.0404    1.4963 N   0  3  0  0  0  0  0  0  0  0  0  0
    1.2815    0.1033    2.7472 C   0  0  0  0  0  0  0  0  0  0  0  0
    3.0885    1.3820    2.7624 C   0  0  0  0  0  0  0  0  0  0  0  0
    2.1536    0.8171    3.5334 N   0  0  0  0  0  0  0  0  0  0  0  0
   -1.5221    1.5532   -0.5874 H   0  0  0  0  0  0  0  0  0  0  0  0
    1.0820    1.6225   -0.8644 H   0  0  0  0  0  0  0  0  0  0  0  0
    1.9831   -0.7520   -0.4221 H   0  0  0  0  0  0  0  0  0  0  0  0
    0.4908   -1.1378    0.3957 H   0  0  0  0  0  0  0  0  0  0  0  0
    3.3777    1.3270    0.6906 H   0  0  0  0  0  0  0  0  0  0  0  0
    0.4765   -0.4057    3.2388 H   0  0  0  0  0  0  0  0  0  0  0  0
    3.9039    1.9996    3.1000 H   0  0  0  0  0  0  0  0  0  0  0  0
    2.0993    0.9034    4.5443 H   0  0  0  0  0  0  0  0  0  0  0  0
    0.5906    0.7985   -3.0841 N   0  0  0  0  0  0  0  0  0  0  0  0
    0.3222    0.4486   -4.4605 C   0  0  2  0  0  0  0  0  0  0  0  0
    0.4655   -1.0613   -4.5984 C   0  0  0  0  0  0  0  0  0  0  0  0
    1.1251   -1.7464   -3.8195 O   0  0  0  0  0  0  0  0  0  0  0  0
    1.2643    1.1730   -5.4094 C   0  0  0  0  0  0  0  0  0  0  0  0
    1.2531    1.5453   -2.8967 H   0  0  0  0  0  0  0  0  0  0  0  0
   -0.7147    0.7377   -4.6639 H   0  0  0  0  0  0  0  0  0  0  0  0
    2.3079    0.8960   -5.2207 H   0  0  0  0  0  0  0  0  0  0  0  0
    1.0411    0.9289   -6.4532 H   0  0  0  0  0  0  0  0  0  0  0  0
    1.1814    2.2584   -5.2878 H   0  0  0  0  0  0  0  0  0  0  0  0
   -0.1942   -1.5480   -5.7183 N   0  0  0  0  0  0  0  0  0  0  0  0
   -0.1967   -2.9476   -6.0747 C   0  0  0  0  0  0  0  0  0  0  0  0
   -0.7321   -0.9104   -6.2977 H   0  0  0  0  0  0  0  0  0  0  0  0
    0.6324   -3.1514   -6.7683 H   0  0  0  0  0  0  0  0  0  0  0  0
   -0.0737   -3.5572   -5.1673 H   0  0  0  0  0  0  0  0  0  0  0  0
   -1.1510   -3.2006   -6.5598 H   0  0  0  0  0  0  0  0  0  0  0  0
 22 24  2  0  0  0  0
 24 26  1  0  0  0  0
 25 26  1  0  0  0  0
 23 25  2  0  0  0  0
 21 22  1  0  0  0  0
 22 23  1  0  0  0  0
  1  3  1  0  0  0  0
  1  7  1  0  0  0  0
  1  2  2  0  0  0  0
 36 37  1  0  0  0  0
 37 45  1  0  0  0  0
 37 38  2  0  0  0  0
  8  9  1  0  0  0  0
  9 17  1  0  0  0  0
  9 10  2  0  0  0  0
 18 19  1  0  0  0  0
 19 35  1  0  0  0  0
 19 20  2  0  0  0  0
 36 39  1  0  0  0  0
  8 11  1  0  0  0  0
 45 46  1  0  0  0  0
 18 21  1  0  0  0  0
 35 36  1  0  0  0  0
  7  8  1  0  0  0  0
 17 18  1  0  0  0  0
 24 32  1  0  0  0  0
 25 33  1  0  0  0  0
  3  4  1  0  0  0  0
  3  5  1  0  0  0  0
  3  6  1  0  0  0  0
 39 42  1  0  0  0  0
 39 43  1  0  0  0  0
 39 44  1  0  0  0  0
 11 14  1  0  0  0  0
 11 15  1  0  0  0  0
 11 16  1  0  0  0  0
 46 48  1  0  0  0  0
 46 49  1  0  0  0  0
 46 50  1  0  0  0  0
 21 29  1  0  0  0  0
 21 30  1  0  0  0  0
 36 41  1  0  0  0  0
  8 13  1  0  0  0  0
 18 28  1  0  0  0  0
 26 34  1  0  0  0  0
 23 31  1  0  0  0  0
 45 47  1  0  0  0  0
  7 12  1  0  0  0  0
 35 40  1  0  0  0  0
 17 27  1  0  0  0  0
M  CHG  1  23   1
M  END
$$$$

  -OEChem-05262214473D

 50 50  0     1  0  0  0  0  0999 V2000
   -1.6938    0.4865    3.8080 C   0  0  0  0  0  0  0  0  0  0  0  0
   -0.7464   -0.1282    3.3323 O   0  0  0  0  0  0  0  0  0  0  0  0
   -2.1257    0.2041    5.2087 C   0  0  0  0  0  0  0  0  0  0  0  0
   -2.8853   -0.5922    5.2621 H   0  0  0  0  0  0  0  0  0  0  0  0
   -1.2944   -0.1435    5.8430 H   0  0  0  0  0  0  0  0  0  0  0  0
   -2.5637    1.0590    5.7483 H   0  0  0  0  0  0  0  0  0  0  0  0
   -2.4435    1.4589    3.1669 N   0  0  0  0  0  0  0  0  0  0  0  0
   -2.1966    1.8850    1.8145 C   0  0  2  0  0  0  0  0  0  0  0  0
   -0.8617    1.2996    1.3733 C   0  0  0  0  0  0  0  0  0  0  0  0
    0.0104    0.9468    2.1646 O   0  0  0  0  0  0  0  0  0  0  0  0
   -2.1879    3.4017    1.7050 C   0  0  0  0  0  0  0  0  0  0  0  0
   -3.2085    1.8948    3.6787 H   0  0  0  0  0  0  0  0  0  0  0  0
   -3.0007    1.4665    1.1994 H   0  0  0  0  0  0  0  0  0  0  0  0
   -1.3888    3.8390    2.3147 H   0  0  0  0  0  0  0  0  0  0  0  0
   -2.0284    3.7240    0.6708 H   0  0  0  0  0  0  0  0  0  0  0  0
   -3.1380    3.8230    2.0508 H   0  0  0  0  0  0  0  0  0  0  0  0
   -0.7390    1.2565   -0.0101 N   0  0  0  0  0  0  0  0  0  0  0  0
    0.4383    0.7557   -0.6738 C   0  0  2  0  0  0  0  0  0  0  0  0
   -0.0114    0.1655   -2.0055 C   0  0  0  0  0  0  0  0  0  0  0  0
   -1.0171   -0.5313   -2.1231 O   0  0  0  0  0  0  0  0  0  0  0  0
    1.1663   -0.3047    0.1604 C   0  0  0  0  0  0  0  0  0  0  0  0
    1.7091    0.2444    1.4572 C   0  0  0  0  0  0  0  0  0  0  0  0
    2.8284    1.0404    1.4963 N   0  3  0  0  0  0  0  0  0  0  0  0
    1.2815    0.1033    2.7472 C   0  0  0  0  0  0  0  0  0  0  0  0
    3.0885    1.3820    2.7624 C   0  0  0  0  0  0  0  0  0  0  0  0
    2.1536    0.8171    3.5334 N   0  0  0  0  0  0  0  0  0  0  0  0
   -1.5221    1.5532   -0.5874 H   0  0  0  0  0  0  0  0  0  0  0  0
    1.0820    1.6225   -0.8644 H   0  0  0  0  0  0  0  0  0  0  0  0
    1.9831   -0.7520   -0.4221 H   0  0  0  0  0  0  0  0  0  0  0  0
    0.4908   -1.1378    0.3957 H   0  0  0  0  0  0  0  0  0  0  0  0
    3.3777    1.3270    0.6906 H   0  0  0  0  0  0  0  0  0  0  0  0
    0.4765   -0.4057    3.2388 H   0  0  0  0  0  0  0  0  0  0  0  0
    3.9039    1.9996    3.1000 H   0  0  0  0  0  0  0  0  0  0  0  0
    2.0993    0.9034    4.5443 H   0  0  0  0  0  0  0  0  0  0  0  0
    0.8161    0.5517   -3.0509 N   0  0  0  0  0  0  0  0  0  0  0  0
    0.6014    0.1506   -4.4227 C   0  0  2  0  0  0  0  0  0  0  0  0
    0.4056   -1.3596   -4.4460 C   0  0  0  0  0  0  0  0  0  0  0  0
    0.8158   -2.1030   -3.5571 O   0  0  0  0  0  0  0  0  0  0  0  0
    1.7675    0.5613   -5.3082 C   0  0  0  0  0  0  0  0  0  0  0  0
    1.6126    1.1461   -2.8412 H   0  0  0  0  0  0  0  0  0  0  0  0
   -0.3182    0.6439   -4.7561 H   0  0  0  0  0  0  0  0  0  0  0  0
    2.6977    0.0770   -4.9893 H   0  0  0  0  0  0  0  0  0  0  0  0
    1.5905    0.2821   -6.3521 H   0  0  0  0  0  0  0  0  0  0  0  0
    1.9256    1.6444   -5.2669 H   0  0  0  0  0  0  0  0  0  0  0  0
   -0.2432   -1.7840   -5.5971 N   0  0  0  0  0  0  0  0  0  0  0  0
   -0.5349   -3.1738   -5.8602 C   0  0  0  0  0  0  0  0  0  0  0  0
   -0.5648   -1.0962   -6.2719 H   0  0  0  0  0  0  0  0  0  0  0  0
    0.2849   -3.6169   -6.4446 H   0  0  0  0  0  0  0  0  0  0  0  0
   -0.6389   -3.7133   -4.9072 H   0  0  0  0  0  0  0  0  0  0  0  0
   -1.4734   -3.2501   -6.4290 H   0  0  0  0  0  0  0  0  0  0  0  0
 22 24  2  0  0  0  0
 24 26  1  0  0  0  0
 25 26  1  0  0  0  0
 23 25  2  0  0  0  0
 21 22  1  0  0  0  0
 22 23  1  0  0  0  0
  1  3  1  0  0  0  0
  1  7  1  0  0  0  0
  1  2  2  0  0  0  0
 36 37  1  0  0  0  0
 37 45  1  0  0  0  0
 37 38  2  0  0  0  0
  8  9  1  0  0  0  0
  9 17  1  0  0  0  0
  9 10  2  0  0  0  0
 18 19  1  0  0  0  0
 19 35  1  0  0  0  0
 19 20  2  0  0  0  0
 36 39  1  0  0  0  0
  8 11  1  0  0  0  0
 45 46  1  0  0  0  0
 18 21  1  0  0  0  0
 35 36  1  0  0  0  0
  7  8  1  0  0  0  0
 17 18  1  0  0  0  0
 24 32  1  0  0  0  0
 25 33  1  0  0  0  0
  3  4  1  0  0  0  0
  3  5  1  0  0  0  0
  3  6  1  0  0  0  0
 39 42  1  0  0  0  0
 39 43  1  0  0  0  0
 39 44  1  0  0  0  0
 11 14  1  0  0  0  0
 11 15  1  0  0  0  0
 11 16  1  0  0  0  0
 46 48  1  0  0  0  0
 46 49  1  0  0  0  0
 46 50  1  0  0  0  0
 21 29  1  0  0  0  0
 21 30  1  0  0  0  0
 36 41  1  0  0  0  0
  8 13  1  0  0  0  0
 18 28  1  0  0  0  0
 26 34  1  0  0  0  0
 23 31  1  0  0  0  0
 45 47  1  0  0  0  0
  7 12  1  0  0  0  0
 35 40  1  0  0  0  0
 17 27  1  0  0  0  0
M  CHG  1  23   1
M  END
$$$$

  -OEChem-05262214473D

 50 50  0     1  0  0  0  0  0999 V2000
   -1.6938    0.4865    3.8080 C   0  0  0  0  0  0  0  0  0  0  0  0
   -0.7464   -0.1282    3.3323 O   0  0  0  0  0  0  0  0  0  0  0  0
   -2.1257    0.2041    5.2087 C   0  0  0  0  0  0  0  0  0  0  0  0
   -2.8853   -0.5922    5.2621 H   0  0  0  0  0  0  0  0  0  0  0  0
   -1.2944   -0.1435    5.8430 H   0  0  0  0  0  0  0  0  0  0  0  0
   -2.5637    1.0590    5.7483 H   0  0  0  0  0  0  0  0  0  0  0  0
   -2.4435    1.4589    3.1669 N   0  0  0  0  0  0  0  0  0  0  0  0
   -2.1966    1.8850    1.8145 C   0  0  2  0  0  0  0  0  0  0  0  0
   -0.8617    1.2996    1.3733 C   0  0  0  0  0  0  0  0  0  0  0  0
    0.0104    0.9468    2.1646 O   0  0  0  0  0  0  0  0  0  0  0  0
   -2.1879    3.4017    1.7050 C   0  0  0  0  0  0  0  0  0  0  0  0
   -3.2085    1.8948    3.6787 H   0  0  0  0  0  0  0  0  0  0  0  0
   -3.0007    1.4665    1.1994 H   0  0  0  0  0  0  0  0  0  0  0  0
   -1.3888    3.8390    2.3147 H   0  0  0  0  0  0  0  0  0  0  0  0
   -2.0284    3.7240    0.6708 H   0  0  0  0  0  0  0  0  0  0  0  0
   -3.1380    3.8230    2.0508 H   0  0  0  0  0  0  0  0  0  0  0  0
   -0.7390    1.2565   -0.0101 N   0  0  0  0  0  0  0  0  0  0  0  0
    0.4383    0.7557   -0.6738 C   0  0  2  0  0  0  0  0  0  0  0  0
   -0.0114    0.1655   -2.0055 C   0  0  0  0  0  0  0  0  0  0  0  0
   -1.1354   -0.2980   -2.1866 O   0  0  0  0  0  0  0  0  0  0  0  0
    1.1663   -0.3047    0.1604 C   0  0  0  0  0  0  0  0  0  0  0  0
    1.7091    0.2444    1.4572 C   0  0  0  0  0  0  0  0  0  0  0  0
    2.8284    1.0404    1.4963 N   0  3  0  0  0  0  0  0  0  0  0  0
    1.2815    0.1033    2.7472 C   0  0  0  0  0  0  0  0  0  0  0  0
    3.0885    1.3820    2.7624 C   0  0  0  0  0  0  0  0  0  0  0  0
    2.1536    0.8171    3.5334 N   0  0  0  0  0  0  0  0  0  0  0  0
   -1.5221    1.5532   -0.5874 H   0  0  0  0  0  0  0  0  0  0  0  0
    1.0820    1.6225   -0.8644 H   0  0  0  0  0  0  0  0  0  0  0  0
    1.9831   -0.7520   -0.4221 H   0  0  0  0  0  0  0  0  0  0  0  0
    0.4908   -1.1378    0.3957 H   0  0  0  0  0  0  0  0  0  0  0  0
    3.3777    1.3270    0.6906 H   0  0  0  0  0  0  0  0  0  0  0  0
    0.4765   -0.4057    3.2388 H   0  0  0  0  0  0  0  0  0  0  0  0
    3.9039    1.9996    3.1000 H   0  0  0  0  0  0  0  0  0  0  0  0
    2.0993    0.9034    4.5443 H   0  0  0  0  0  0  0  0  0  0  0  0
    0.9747    0.2648   -2.9773 N   0  0  0  0  0  0  0  0  0  0  0  0
    0.7998   -0.1975   -4.3354 C   0  0  2  0  0  0  0  0  0  0  0  0
    0.2650   -1.6225   -4.2820 C   0  0  0  0  0  0  0  0  0  0  0  0
    0.4102   -2.3574   -3.3074 O   0  0  0  0  0  0  0  0  0  0  0  0
    2.1051   -0.1357   -5.1133 C   0  0  0  0  0  0  0  0  0  0  0  0
    1.8640    0.6834   -2.7210 H   0  0  0  0  0  0  0  0  0  0  0  0
    0.0528    0.4565   -4.7984 H   0  0  0  0  0  0  0  0  0  0  0  0
    2.8658   -0.7846   -4.6643 H   0  0  0  0  0  0  0  0  0  0  0  0
    1.9649   -0.4592   -6.1500 H   0  0  0  0  0  0  0  0  0  0  0  0
    2.5037    0.8845   -5.1254 H   0  0  0  0  0  0  0  0  0  0  0  0
   -0.3560   -1.9916   -5.4670 N   0  0  0  0  0  0  0  0  0  0  0  0
   -0.9343   -3.2995   -5.6697 C   0  0  0  0  0  0  0  0  0  0  0  0
   -0.4477   -1.3116   -6.2160 H   0  0  0  0  0  0  0  0  0  0  0  0
   -0.1884   -3.9632   -6.1313 H   0  0  0  0  0  0  0  0  0  0  0  0
   -1.2462   -3.7165   -4.7008 H   0  0  0  0  0  0  0  0  0  0  0  0
   -1.8090   -3.2150   -6.3312 H   0  0  0  0  0  0  0  0  0  0  0  0
 22 24  2  0  0  0  0
 24 26  1  0  0  0  0
 25 26  1  0  0  0  0
 23 25  2  0  0  0  0
 21 22  1  0  0  0  0
 22 23  1  0  0  0  0
  1  3  1  0  0  0  0
  1  7  1  0  0  0  0
  1  2  2  0  0  0  0
 36 37  1  0  0  0  0
 37 45  1  0  0  0  0
 37 38  2  0  0  0  0
  8  9  1  0  0  0  0
  9 17  1  0  0  0  0
  9 10  2  0  0  0  0
 18 19  1  0  0  0  0
 19 35  1  0  0  0  0
 19 20  2  0  0  0  0
 36 39  1  0  0  0  0
  8 11  1  0  0  0  0
 45 46  1  0  0  0  0
 18 21  1  0  0  0  0
 35 36  1  0  0  0  0
  7  8  1  0  0  0  0
 17 18  1  0  0  0  0
 24 32  1  0  0  0  0
 25 33  1  0  0  0  0
  3  4  1  0  0  0  0
  3  5  1  0  0  0  0
  3  6  1  0  0  0  0
 39 42  1  0  0  0  0
 39 43  1  0  0  0  0
 39 44  1  0  0  0  0
 11 14  1  0  0  0  0
 11 15  1  0  0  0  0
 11 16  1  0  0  0  0
 46 48  1  0  0  0  0
 46 49  1  0  0  0  0
 46 50  1  0  0  0  0
 21 29  1  0  0  0  0
 21 30  1  0  0  0  0
 36 41  1  0  0  0  0
  8 13  1  0  0  0  0
 18 28  1  0  0  0  0
 26 34  1  0  0  0  0
 23 31  1  0  0  0  0
 45 47  1  0  0  0  0
  7 12  1  0  0  0  0
 35 40  1  0  0  0  0
 17 27  1  0  0  0  0
M  CHG  1  23   1
M  END
$$$$

  -OEChem-05262214473D

 50 50  0     1  0  0  0  0  0999 V2000
   -1.6938    0.4865    3.8080 C   0  0  0  0  0  0  0  0  0  0  0  0
   -0.7464   -0.1282    3.3323 O   0  0  0  0  0  0  0  0  0  0  0  0
   -2.1257    0.2041    5.2087 C   0  0  0  0  0  0  0  0  0  0  0  0
   -2.8853   -0.5922    5.2621 H   0  0  0  0  0  0  0  0  0  0  0  0
   -1.2944   -0.1435    5.8430 H   0  0  0  0  0  0  0  0  0  0  0  0
   -2.5637    1.0590    5.7483 H   0  0  0  0  0  0  0  0  0  0  0  0
   -2.4435    1.4589    3.1669 N   0  0  0  0  0  0  0  0  0  0  0  0
   -2.1966    1.8850    1.8145 C   0  0  2  0  0  0  0  0  0  0  0  0
   -0.8617    1.2996    1.3733 C   0  0  0  0  0  0  0  0  0  0  0  0
    0.0104    0.9468    2.1646 O   0  0  0  0  0  0  0  0  0  0  0  0
   -2.1879    3.4017    1.7050 C   0  0  0  0  0  0  0  0  0  0  0  0
   -3.2085    1.8948    3.6787 H   0  0  0  0  0  0  0  0  0  0  0  0
   -3.0007    1.4665    1.1994 H   0  0  0  0  0  0  0  0  0  0  0  0
   -1.3888    3.8390    2.3147 H   0  0  0  0  0  0  0  0  0  0  0  0
   -2.0284    3.7240    0.6708 H   0  0  0  0  0  0  0  0  0  0  0  0
   -3.1380    3.8230    2.0508 H   0  0  0  0  0  0  0  0  0  0  0  0
   -0.7390    1.2565   -0.0101 N   0  0  0  0  0  0  0  0  0  0  0  0
    0.4383    0.7557   -0.6738 C   0  0  2  0  0  0  0  0  0  0  0  0
   -0.0114    0.1655   -2.0055 C   0  0  0  0  0  0  0  0  0  0  0  0
   -1.1904   -0.0507   -2.2776 O   0  0  0  0  0  0  0  0  0  0  0  0
    1.1663   -0.3047    0.1604 C   0  0  0  0  0  0  0  0  0  0  0  0
    1.7091    0.2444    1.4572 C   0  0  0  0  0  0  0  0  0  0  0  0
    2.8284    1.0404    1.4963 N   0  3  0  0  0  0  0  0  0  0  0  0
    1.2815    0.1033    2.7472 C   0  0  0  0  0  0  0  0  0  0  0  0
    3.0885    1.3820    2.7624 C   0  0  0  0  0  0  0  0  0  0  0  0
    2.1536    0.8171    3.5334 N   0  0  0  0  0  0  0  0  0  0  0  0
   -1.5221    1.5532   -0.5874 H   0  0  0  0  0  0  0  0  0  0  0  0
    1.0820    1.6225   -0.8644 H   0  0  0  0  0  0  0  0  0  0  0  0
    1.9831   -0.7520   -0.4221 H   0  0  0  0  0  0  0  0  0  0  0  0
    0.4908   -1.1378    0.3957 H   0  0  0  0  0  0  0  0  0  0  0  0
    3.3777    1.3270    0.6906 H   0  0  0  0  0  0  0  0  0  0  0  0
    0.4765   -0.4057    3.2388 H   0  0  0  0  0  0  0  0  0  0  0  0
    3.9039    1.9996    3.1000 H   0  0  0  0  0  0  0  0  0  0  0  0
    2.0993    0.9034    4.5443 H   0  0  0  0  0  0  0  0  0  0  0  0
    1.0557   -0.0426   -2.8684 N   0  0  0  0  0  0  0  0  0  0  0  0
    0.9041   -0.5720   -4.2047 C   0  0  2  0  0  0  0  0  0  0  0  0
    0.0533   -1.8321   -4.1176 C   0  0  0  0  0  0  0  0  0  0  0  0
   -0.0641   -2.4924   -3.0874 O   0  0  0  0  0  0  0  0  0  0  0  0
    2.2541   -0.8703   -4.8381 C   0  0  0  0  0  0  0  0  0  0  0  0
    1.9901    0.1888   -2.5444 H   0  0  0  0  0  0  0  0  0  0  0  0
    0.3731    0.1884   -4.7877 H   0  0  0  0  0  0  0  0  0  0  0  0
    2.8009   -1.6300   -4.2677 H   0  0  0  0  0  0  0  0  0  0  0  0
    2.1386   -1.2444   -5.8607 H   0  0  0  0  0  0  0  0  0  0  0  0
    2.8760    0.0307   -4.8727 H   0  0  0  0  0  0  0  0  0  0  0  0
   -0.5249   -2.1567   -5.3368 N   0  0  0  0  0  0  0  0  0  0  0  0
   -1.3675   -3.3160   -5.5161 C   0  0  0  0  0  0  0  0  0  0  0  0
   -0.3890   -1.5418   -6.1338 H   0  0  0  0  0  0  0  0  0  0  0  0
   -0.7552   -4.1668   -5.8497 H   0  0  0  0  0  0  0  0  0  0  0  0
   -1.8542   -3.5665   -4.5620 H   0  0  0  0  0  0  0  0  0  0  0  0
   -2.1351   -3.0977   -6.2731 H   0  0  0  0  0  0  0  0  0  0  0  0
 22 24  2  0  0  0  0
 24 26  1  0  0  0  0
 25 26  1  0  0  0  0
 23 25  2  0  0  0  0
 21 22  1  0  0  0  0
 22 23  1  0  0  0  0
  1  3  1  0  0  0  0
  1  7  1  0  0  0  0
  1  2  2  0  0  0  0
 36 37  1  0  0  0  0
 37 45  1  0  0  0  0
 37 38  2  0  0  0  0
  8  9  1  0  0  0  0
  9 17  1  0  0  0  0
  9 10  2  0  0  0  0
 18 19  1  0  0  0  0
 19 35  1  0  0  0  0
 19 20  2  0  0  0  0
 36 39  1  0  0  0  0
  8 11  1  0  0  0  0
 45 46  1  0  0  0  0
 18 21  1  0  0  0  0
 35 36  1  0  0  0  0
  7  8  1  0  0  0  0
 17 18  1  0  0  0  0
 24 32  1  0  0  0  0
 25 33  1  0  0  0  0
  3  4  1  0  0  0  0
  3  5  1  0  0  0  0
  3  6  1  0  0  0  0
 39 42  1  0  0  0  0
 39 43  1  0  0  0  0
 39 44  1  0  0  0  0
 11 14  1  0  0  0  0
 11 15  1  0  0  0  0
 11 16  1  0  0  0  0
 46 48  1  0  0  0  0
 46 49  1  0  0  0  0
 46 50  1  0  0  0  0
 21 29  1  0  0  0  0
 21 30  1  0  0  0  0
 36 41  1  0  0  0  0
  8 13  1  0  0  0  0
 18 28  1  0  0  0  0
 26 34  1  0  0  0  0
 23 31  1  0  0  0  0
 45 47  1  0  0  0  0
  7 12  1  0  0  0  0
 35 40  1  0  0  0  0
 17 27  1  0  0  0  0
M  CHG  1  23   1
M  END
$$$$

  -OEChem-05262214473D

 50 50  0     1  0  0  0  0  0999 V2000
   -1.6938    0.4865    3.8080 C   0  0  0  0  0  0  0  0  0  0  0  0
   -0.7464   -0.1282    3.3323 O   0  0  0  0  0  0  0  0  0  0  0  0
   -2.1257    0.2041    5.2087 C   0  0  0  0  0  0  0  0  0  0  0  0
   -2.8853   -0.5922    5.2621 H   0  0  0  0  0  0  0  0  0  0  0  0
   -1.2944   -0.1435    5.8430 H   0  0  0  0  0  0  0  0  0  0  0  0
   -2.5637    1.0590    5.7483 H   0  0  0  0  0  0  0  0  0  0  0  0
   -2.4435    1.4589    3.1669 N   0  0  0  0  0  0  0  0  0  0  0  0
   -2.1966    1.8850    1.8145 C   0  0  2  0  0  0  0  0  0  0  0  0
   -0.8617    1.2996    1.3733 C   0  0  0  0  0  0  0  0  0  0  0  0
    0.0104    0.9468    2.1646 O   0  0  0  0  0  0  0  0  0  0  0  0
   -2.1879    3.4017    1.7050 C   0  0  0  0  0  0  0  0  0  0  0  0
   -3.2085    1.8948    3.6787 H   0  0  0  0  0  0  0  0  0  0  0  0
   -3.0007    1.4665    1.1994 H   0  0  0  0  0  0  0  0  0  0  0  0
   -1.3888    3.8390    2.3147 H   0  0  0  0  0  0  0  0  0  0  0  0
   -2.0284    3.7240    0.6708 H   0  0  0  0  0  0  0  0  0  0  0  0
   -3.1380    3.8230    2.0508 H   0  0  0  0  0  0  0  0  0  0  0  0
   -0.7390    1.2565   -0.0101 N   0  0  0  0  0  0  0  0  0  0  0  0
    0.4383    0.7557   -0.6738 C   0  0  2  0  0  0  0  0  0  0  0  0
    0.0659    0.5154   -2.1325 C   0  0  0  0  0  0  0  0  0  0  0  0
   -1.0455    0.7723   -2.5903 O   0  0  0  0  0  0  0  0  0  0  0  0
    0.9562   -0.5385   -0.0358 C   0  0  0  0  0  0  0  0  0  0  0  0
    1.4197   -0.3430    1.3870 C   0  0  0  0  0  0  0  0  0  0  0  0
    2.6095    0.2770    1.6840 N   0  3  0  0  0  0  0  0  0  0  0  0
    0.8490   -0.6903    2.5789 C   0  0  0  0  0  0  0  0  0  0  0  0
    2.7740    0.3140    3.0103 C   0  0  0  0  0  0  0  0  0  0  0  0
    1.7086   -0.2723    3.5660 N   0  0  0  0  0  0  0  0  0  0  0  0
   -1.5221    1.5532   -0.5874 H   0  0  0  0  0  0  0  0  0  0  0  0
    1.1892    1.5529   -0.6217 H   0  0  0  0  0  0  0  0  0  0  0  0
    1.7747   -0.9577   -0.6367 H   0  0  0  0  0  0  0  0  0  0  0  0
    0.1730   -1.3081   -0.0396 H   0  0  0  0  0  0  0  0  0  0  0  0
    3.2667    0.6501    1.0045 H   0  0  0  0  0  0  0  0  0  0  0  0
   -0.0531   -1.1817    2.8848 H   0  0  0  0  0  0  0  0  0  0  0  0
    3.6131    0.7385    3.5357 H   0  0  0  0  0  0  0  0  0  0  0  0
    1.5605   -0.3897    4.5643 H   0  0  0  0  0  0  0  0  0  0  0  0
    1.1369    0.0282   -2.8687 N   0  0  0  0  0  0  0  0  0  0  0  0
    1.0611   -0.2635   -4.2821 C   0  0  2  0  0  0  0  0  0  0  0  0
   -0.1686   -1.1306   -4.5181 C   0  0  0  0  0  0  0  0  0  0  0  0
   -0.6898   -1.8097   -3.6359 O   0  0  0  0  0  0  0  0  0  0  0  0
    2.3204   -0.9615   -4.7715 C   0  0  0  0  0  0  0  0  0  0  0  0
    2.0184   -0.1314   -2.3899 H   0  0  0  0  0  0  0  0  0  0  0  0
    0.9366    0.6956   -4.7967 H   0  0  0  0  0  0  0  0  0  0  0  0
    2.4620   -1.9243   -4.2671 H   0  0  0  0  0  0  0  0  0  0  0  0
    2.2734   -1.1561   -5.8480 H   0  0  0  0  0  0  0  0  0  0  0  0
    3.2071   -0.3494   -4.5740 H   0  0  0  0  0  0  0  0  0  0  0  0
   -0.5896   -1.0904   -5.8399 N   0  0  0  0  0  0  0  0  0  0  0  0
   -1.7286   -1.8386   -6.3184 C   0  0  0  0  0  0  0  0  0  0  0  0
   -0.1093   -0.4851   -6.4992 H   0  0  0  0  0  0  0  0  0  0  0  0
   -1.3926   -2.8125   -6.7039 H   0  0  0  0  0  0  0  0  0  0  0  0
   -2.4371   -1.9962   -5.4918 H   0  0  0  0  0  0  0  0  0  0  0  0
   -2.2241   -1.2767   -7.1239 H   0  0  0  0  0  0  0  0  0  0  0  0
 22 24  2  0  0  0  0
 24 26  1  0  0  0  0
 25 26  1  0  0  0  0
 23 25  2  0  0  0  0
 21 22  1  0  0  0  0
 22 23  1  0  0  0  0
  1  3  1  0  0  0  0
  1  7  1  0  0  0  0
  1  2  2  0  0  0  0
 36 37  1  0  0  0  0
 37 45  1  0  0  0  0
 37 38  2  0  0  0  0
  8  9  1  0  0  0  0
  9 17  1  0  0  0  0
  9 10  2  0  0  0  0
 18 19  1  0  0  0  0
 19 35  1  0  0  0  0
 19 20  2  0  0  0  0
 36 39  1  0  0  0  0
  8 11  1  0  0  0  0
 45 46  1  0  0  0  0
 18 21  1  0  0  0  0
 35 36  1  0  0  0  0
  7  8  1  0  0  0  0
 17 18  1  0  0  0  0
 24 32  1  0  0  0  0
 25 33  1  0  0  0  0
  3  4  1  0  0  0  0
  3  5  1  0  0  0  0
  3  6  1  0  0  0  0
 39 42  1  0  0  0  0
 39 43  1  0  0  0  0
 39 44  1  0  0  0  0
 11 14  1  0  0  0  0
 11 15  1  0  0  0  0
 11 16  1  0  0  0  0
 46 48  1  0  0  0  0
 46 49  1  0  0  0  0
 46 50  1  0  0  0  0
 21 29  1  0  0  0  0
 21 30  1  0  0  0  0
 36 41  1  0  0  0  0
  8 13  1  0  0  0  0
 18 28  1  0  0  0  0
 26 34  1  0  0  0  0
 23 31  1  0  0  0  0
 45 47  1  0  0  0  0
  7 12  1  0  0  0  0
 35 40  1  0  0  0  0
 17 27  1  0  0  0  0
M  CHG  1  23   1
M  END
$$$$

  -OEChem-05262214473D

 50 50  0     1  0  0  0  0  0999 V2000
   -1.6938    0.4865    3.8080 C   0  0  0  0  0  0  0  0  0  0  0  0
   -0.7464   -0.1282    3.3323 O   0  0  0  0  0  0  0  0  0  0  0  0
   -2.1257    0.2041    5.2087 C   0  0  0  0  0  0  0  0  0  0  0  0
   -2.8853   -0.5922    5.2621 H   0  0  0  0  0  0  0  0  0  0  0  0
   -1.2944   -0.1435    5.8430 H   0  0  0  0  0  0  0  0  0  0  0  0
   -2.5637    1.0590    5.7483 H   0  0  0  0  0  0  0  0  0  0  0  0
   -2.4435    1.4589    3.1669 N   0  0  0  0  0  0  0  0  0  0  0  0
   -2.1966    1.8850    1.8145 C   0  0  2  0  0  0  0  0  0  0  0  0
   -0.8617    1.2996    1.3733 C   0  0  0  0  0  0  0  0  0  0  0  0
    0.0104    0.9468    2.1646 O   0  0  0  0  0  0  0  0  0  0  0  0
   -2.1879    3.4017    1.7050 C   0  0  0  0  0  0  0  0  0  0  0  0
   -3.2085    1.8948    3.6787 H   0  0  0  0  0  0  0  0  0  0  0  0
   -3.0007    1.4665    1.1994 H   0  0  0  0  0  0  0  0  0  0  0  0
   -1.3888    3.8390    2.3147 H   0  0  0  0  0  0  0  0  0  0  0  0
   -2.0284    3.7240    0.6708 H   0  0  0  0  0  0  0  0  0  0  0  0
   -3.1380    3.8230    2.0508 H   0  0  0  0  0  0  0  0  0  0  0  0
   -0.7390    1.2565   -0.0101 N   0  0  0  0  0  0  0  0  0  0  0  0
    0.4383    0.7557   -0.6738 C   0  0  2  0  0  0  0  0  0  0  0  0
    0.0659    0.5154   -2.1325 C   0  0  0  0  0  0  0  0  0  0  0  0
   -0.9309    1.0062   -2.6581 O   0  0  0  0  0  0  0  0  0  0  0  0
    0.9562   -0.5385   -0.0358 C   0  0  0  0  0  0  0  0  0  0  0  0
    1.4197   -0.3430    1.3870 C   0  0  0  0  0  0  0  0  0  0  0  0
    2.6095    0.2770    1.6840 N   0  3  0  0  0  0  0  0  0  0  0  0
    0.8490   -0.6903    2.5789 C   0  0  0  0  0  0  0  0  0  0  0  0
    2.7740    0.3140    3.0103 C   0  0  0  0  0  0  0  0  0  0  0  0
    1.7086   -0.2723    3.5660 N   0  0  0  0  0  0  0  0  0  0  0  0
   -1.5221    1.5532   -0.5874 H   0  0  0  0  0  0  0  0  0  0  0  0
    1.1892    1.5529   -0.6217 H   0  0  0  0  0  0  0  0  0  0  0  0
    1.7747   -0.9577   -0.6367 H   0  0  0  0  0  0  0  0  0  0  0  0
    0.1730   -1.3081   -0.0396 H   0  0  0  0  0  0  0  0  0  0  0  0
    3.2667    0.6501    1.0045 H   0  0  0  0  0  0  0  0  0  0  0  0
   -0.0531   -1.1817    2.8848 H   0  0  0  0  0  0  0  0  0  0  0  0
    3.6131    0.7385    3.5357 H   0  0  0  0  0  0  0  0  0  0  0  0
    1.5605   -0.3897    4.5643 H   0  0  0  0  0  0  0  0  0  0  0  0
    1.0055   -0.2698   -2.7860 N   0  0  0  0  0  0  0  0  0  0  0  0
    0.9058   -0.6297   -4.1822 C   0  0  2  0  0  0  0  0  0  0  0  0
   -0.4925   -1.1812   -4.4270 C   0  0  0  0  0  0  0  0  0  0  0  0
   -1.1950   -1.6490   -3.5334 O   0  0  0  0  0  0  0  0  0  0  0  0
    1.9671   -1.6482   -4.5682 C   0  0  0  0  0  0  0  0  0  0  0  0
    1.8033   -0.6085   -2.2564 H   0  0  0  0  0  0  0  0  0  0  0  0
    1.0410    0.2930   -4.7571 H   0  0  0  0  0  0  0  0  0  0  0  0
    1.8479   -2.5794   -4.0024 H   0  0  0  0  0  0  0  0  0  0  0  0
    1.9085   -1.8983   -5.6326 H   0  0  0  0  0  0  0  0  0  0  0  0
    2.9713   -1.2613   -4.3636 H   0  0  0  0  0  0  0  0  0  0  0  0
   -0.8467   -1.1290   -5.7679 N   0  0  0  0  0  0  0  0  0  0  0  0
   -2.1198   -1.6045   -6.2571 C   0  0  0  0  0  0  0  0  0  0  0  0
   -0.2095   -0.7072   -6.4370 H   0  0  0  0  0  0  0  0  0  0  0  0
   -2.0243   -2.6551   -6.5685 H   0  0  0  0  0  0  0  0  0  0  0  0
   -2.8719   -1.5258   -5.4583 H   0  0  0  0  0  0  0  0  0  0  0  0
   -2.4330   -0.9943   -7.1171 H   0  0  0  0  0  0  0  0  0  0  0  0
 22 24  2  0  0  0  0
 24 26  1  0  0  0  0
 25 26  1  0  0  0  0
 23 25  2  0  0  0  0
 21 22  1  0  0  0  0
 22 23  1  0  0  0  0
  1  3  1  0  0  0  0
  1  7  1  0  0  0  0
  1  2  2  0  0  0  0
 36 37  1  0  0  0  0
 37 45  1  0  0  0  0
 37 38  2  0  0  0  0
  8  9  1  0  0  0  0
  9 17  1  0  0  0  0
  9 10  2  0  0  0  0
 18 19  1  0  0  0  0
 19 35  1  0  0  0  0
 19 20  2  0  0  0  0
 36 39  1  0  0  0  0
  8 11  1  0  0  0  0
 45 46  1  0  0  0  0
 18 21  1  0  0  0  0
 35 36  1  0  0  0  0
  7  8  1  0  0  0  0
 17 18  1  0  0  0  0
 24 32  1  0  0  0  0
 25 33  1  0  0  0  0
  3  4  1  0  0  0  0
  3  5  1  0  0  0  0
  3  6  1  0  0  0  0
 39 42  1  0  0  0  0
 39 43  1  0  0  0  0
 39 44  1  0  0  0  0
 11 14  1  0  0  0  0
 11 15  1  0  0  0  0
 11 16  1  0  0  0  0
 46 48  1  0  0  0  0
 46 49  1  0  0  0  0
 46 50  1  0  0  0  0
 21 29  1  0  0  0  0
 21 30  1  0  0  0  0
 36 41  1  0  0  0  0
  8 13  1  0  0  0  0
 18 28  1  0  0  0  0
 26 34  1  0  0  0  0
 23 31  1  0  0  0  0
 45 47  1  0  0  0  0
  7 12  1  0  0  0  0
 35 40  1  0  0  0  0
 17 27  1  0  0  0  0
M  CHG  1  23   1
M  END
$$$$

  -OEChem-05262214473D

 50 50  0     1  0  0  0  0  0999 V2000
   -1.6938    0.4865    3.8080 C   0  0  0  0  0  0  0  0  0  0  0  0
   -0.7464   -0.1282    3.3323 O   0  0  0  0  0  0  0  0  0  0  0  0
   -2.1257    0.2041    5.2087 C   0  0  0  0  0  0  0  0  0  0  0  0
   -2.8853   -0.5922    5.2621 H   0  0  0  0  0  0  0  0  0  0  0  0
   -1.2944   -0.1435    5.8430 H   0  0  0  0  0  0  0  0  0  0  0  0
   -2.5637    1.0590    5.7483 H   0  0  0  0  0  0  0  0  0  0  0  0
   -2.4435    1.4589    3.1669 N   0  0  0  0  0  0  0  0  0  0  0  0
   -2.1966    1.8850    1.8145 C   0  0  2  0  0  0  0  0  0  0  0  0
   -0.8617    1.2996    1.3733 C   0  0  0  0  0  0  0  0  0  0  0  0
    0.0104    0.9468    2.1646 O   0  0  0  0  0  0  0  0  0  0  0  0
   -2.1879    3.4017    1.7050 C   0  0  0  0  0  0  0  0  0  0  0  0
   -3.2085    1.8948    3.6787 H   0  0  0  0  0  0  0  0  0  0  0  0
   -3.0007    1.4665    1.1994 H   0  0  0  0  0  0  0  0  0  0  0  0
   -1.3888    3.8390    2.3147 H   0  0  0  0  0  0  0  0  0  0  0  0
   -2.0284    3.7240    0.6708 H   0  0  0  0  0  0  0  0  0  0  0  0
   -3.1380    3.8230    2.0508 H   0  0  0  0  0  0  0  0  0  0  0  0
   -0.7390    1.2565   -0.0101 N   0  0  0  0  0  0  0  0  0  0  0  0
    0.4383    0.7557   -0.6738 C   0  0  2  0  0  0  0  0  0  0  0  0
    0.0659    0.5154   -2.1325 C   0  0  0  0  0  0  0  0  0  0  0  0
   -0.7595    1.1995   -2.7337 O   0  0  0  0  0  0  0  0  0  0  0  0
    0.9562   -0.5385   -0.0358 C   0  0  0  0  0  0  0  0  0  0  0  0
    1.4197   -0.3430    1.3870 C   0  0  0  0  0  0  0  0  0  0  0  0
    2.6095    0.2770    1.6840 N   0  3  0  0  0  0  0  0  0  0  0  0
    0.8490   -0.6903    2.5789 C   0  0  0  0  0  0  0  0  0  0  0  0
    2.7740    0.3140    3.0103 C   0  0  0  0  0  0  0  0  0  0  0  0
    1.7086   -0.2723    3.5660 N   0  0  0  0  0  0  0  0  0  0  0  0
   -1.5221    1.5532   -0.5874 H   0  0  0  0  0  0  0  0  0  0  0  0
    1.1892    1.5529   -0.6217 H   0  0  0  0  0  0  0  0  0  0  0  0
    1.7747   -0.9577   -0.6367 H   0  0  0  0  0  0  0  0  0  0  0  0
    0.1730   -1.3081   -0.0396 H   0  0  0  0  0  0  0  0  0  0  0  0
    3.2667    0.6501    1.0045 H   0  0  0  0  0  0  0  0  0  0  0  0
   -0.0531   -1.1817    2.8848 H   0  0  0  0  0  0  0  0  0  0  0  0
    3.6131    0.7385    3.5357 H   0  0  0  0  0  0  0  0  0  0  0  0
    1.5605   -0.3897    4.5643 H   0  0  0  0  0  0  0  0  0  0  0  0
    0.8014   -0.5198   -2.6927 N   0  0  0  0  0  0  0  0  0  0  0  0
    0.6611   -0.9386   -4.0688 C   0  0  2  0  0  0  0  0  0  0  0  0
   -0.8217   -1.1441   -4.3491 C   0  0  0  0  0  0  0  0  0  0  0  0
   -1.6475   -1.3623   -3.4651 O   0  0  0  0  0  0  0  0  0  0  0  0
    1.4475   -2.2111   -4.3428 C   0  0  0  0  0  0  0  0  0  0  0  0
    1.4719   -1.0076   -2.1060 H   0  0  0  0  0  0  0  0  0  0  0  0
    1.0405   -0.1192   -4.6890 H   0  0  0  0  0  0  0  0  0  0  0  0
    1.0817   -3.0433   -3.7304 H   0  0  0  0  0  0  0  0  0  0  0  0
    1.3634   -2.5113   -5.3925 H   0  0  0  0  0  0  0  0  0  0  0  0
    2.5091   -2.0705   -4.1123 H   0  0  0  0  0  0  0  0  0  0  0  0
   -1.1075   -1.0981   -5.7064 N   0  0  0  0  0  0  0  0  0  0  0  0
   -2.4421   -1.2776   -6.2287 C   0  0  0  0  0  0  0  0  0  0  0  0
   -0.3637   -0.8930   -6.3671 H   0  0  0  0  0  0  0  0  0  0  0  0
   -2.6010   -2.3382   -6.4735 H   0  0  0  0  0  0  0  0  0  0  0  0
   -3.1768   -0.9617   -5.4734 H   0  0  0  0  0  0  0  0  0  0  0  0
   -2.5652   -0.6693   -7.1369 H   0  0  0  0  0  0  0  0  0  0  0  0
 22 24  2  0  0  0  0
 24 26  1  0  0  0  0
 25 26  1  0  0  0  0
 23 25  2  0  0  0  0
 21 22  1  0  0  0  0
 22 23  1  0  0  0  0
  1  3  1  0  0  0  0
  1  7  1  0  0  0  0
  1  2  2  0  0  0  0
 36 37  1  0  0  0  0
 37 45  1  0  0  0  0
 37 38  2  0  0  0  0
  8  9  1  0  0  0  0
  9 17  1  0  0  0  0
  9 10  2  0  0  0  0
 18 19  1  0  0  0  0
 19 35  1  0  0  0  0
 19 20  2  0  0  0  0
 36 39  1  0  0  0  0
  8 11  1  0  0  0  0
 45 46  1  0  0  0  0
 18 21  1  0  0  0  0
 35 36  1  0  0  0  0
  7  8  1  0  0  0  0
 17 18  1  0  0  0  0
 24 32  1  0  0  0  0
 25 33  1  0  0  0  0
  3  4  1  0  0  0  0
  3  5  1  0  0  0  0
  3  6  1  0  0  0  0
 39 42  1  0  0  0  0
 39 43  1  0  0  0  0
 39 44  1  0  0  0  0
 11 14  1  0  0  0  0
 11 15  1  0  0  0  0
 11 16  1  0  0  0  0
 46 48  1  0  0  0  0
 46 49  1  0  0  0  0
 46 50  1  0  0  0  0
 21 29  1  0  0  0  0
 21 30  1  0  0  0  0
 36 41  1  0  0  0  0
  8 13  1  0  0  0  0
 18 28  1  0  0  0  0
 26 34  1  0  0  0  0
 23 31  1  0  0  0  0
 45 47  1  0  0  0  0
  7 12  1  0  0  0  0
 35 40  1  0  0  0  0
 17 27  1  0  0  0  0
M  CHG  1  23   1
M  END
$$$$

  -OEChem-05262214473D

 50 50  0     1  0  0  0  0  0999 V2000
   -1.6938    0.4865    3.8080 C   0  0  0  0  0  0  0  0  0  0  0  0
   -0.7464   -0.1282    3.3323 O   0  0  0  0  0  0  0  0  0  0  0  0
   -2.1257    0.2041    5.2087 C   0  0  0  0  0  0  0  0  0  0  0  0
   -2.8853   -0.5922    5.2621 H   0  0  0  0  0  0  0  0  0  0  0  0
   -1.2944   -0.1435    5.8430 H   0  0  0  0  0  0  0  0  0  0  0  0
   -2.5637    1.0590    5.7483 H   0  0  0  0  0  0  0  0  0  0  0  0
   -2.4435    1.4589    3.1669 N   0  0  0  0  0  0  0  0  0  0  0  0
   -2.1966    1.8850    1.8145 C   0  0  2  0  0  0  0  0  0  0  0  0
   -0.8617    1.2996    1.3733 C   0  0  0  0  0  0  0  0  0  0  0  0
    0.0104    0.9468    2.1646 O   0  0  0  0  0  0  0  0  0  0  0  0
   -2.1879    3.4017    1.7050 C   0  0  0  0  0  0  0  0  0  0  0  0
   -3.2085    1.8948    3.6787 H   0  0  0  0  0  0  0  0  0  0  0  0
   -3.0007    1.4665    1.1994 H   0  0  0  0  0  0  0  0  0  0  0  0
   -1.3888    3.8390    2.3147 H   0  0  0  0  0  0  0  0  0  0  0  0
   -2.0284    3.7240    0.6708 H   0  0  0  0  0  0  0  0  0  0  0  0
   -3.1380    3.8230    2.0508 H   0  0  0  0  0  0  0  0  0  0  0  0
   -0.7390    1.2565   -0.0101 N   0  0  0  0  0  0  0  0  0  0  0  0
    0.4383    0.7557   -0.6738 C   0  0  2  0  0  0  0  0  0  0  0  0
    0.0659    0.5154   -2.1325 C   0  0  0  0  0  0  0  0  0  0  0  0
   -0.5430    1.3390   -2.8120 O   0  0  0  0  0  0  0  0  0  0  0  0
    0.9562   -0.5385   -0.0358 C   0  0  0  0  0  0  0  0  0  0  0  0
    1.4197   -0.3430    1.3870 C   0  0  0  0  0  0  0  0  0  0  0  0
    2.6095    0.2770    1.6840 N   0  3  0  0  0  0  0  0  0  0  0  0
    0.8490   -0.6903    2.5789 C   0  0  0  0  0  0  0  0  0  0  0  0
    2.7740    0.3140    3.0103 C   0  0  0  0  0  0  0  0  0  0  0  0
    1.7086   -0.2723    3.5660 N   0  0  0  0  0  0  0  0  0  0  0  0
   -1.5221    1.5532   -0.5874 H   0  0  0  0  0  0  0  0  0  0  0  0
    1.1892    1.5529   -0.6217 H   0  0  0  0  0  0  0  0  0  0  0  0
    1.7747   -0.9577   -0.6367 H   0  0  0  0  0  0  0  0  0  0  0  0
    0.1730   -1.3081   -0.0396 H   0  0  0  0  0  0  0  0  0  0  0  0
    3.2667    0.6501    1.0045 H   0  0  0  0  0  0  0  0  0  0  0  0
   -0.0531   -1.1817    2.8848 H   0  0  0  0  0  0  0  0  0  0  0  0
    3.6131    0.7385    3.5357 H   0  0  0  0  0  0  0  0  0  0  0  0
    1.5605   -0.3897    4.5643 H   0  0  0  0  0  0  0  0  0  0  0  0
    0.5385   -0.7049   -2.5951 N   0  0  0  0  0  0  0  0  0  0  0  0
    0.3436   -1.1693   -3.9498 C   0  0  2  0  0  0  0  0  0  0  0  0
   -1.1336   -1.0219   -4.2896 C   0  0  0  0  0  0  0  0  0  0  0  0
   -2.0163   -0.9689   -3.4357 O   0  0  0  0  0  0  0  0  0  0  0  0
    0.7971   -2.6119   -4.1107 C   0  0  0  0  0  0  0  0  0  0  0  0
    1.0468   -1.3015   -1.9491 H   0  0  0  0  0  0  0  0  0  0  0  0
    0.9352   -0.5130   -4.5973 H   0  0  0  0  0  0  0  0  0  0  0  0
    0.2156   -3.2845   -3.4696 H   0  0  0  0  0  0  0  0  0  0  0  0
    0.6754   -2.9532   -5.1441 H   0  0  0  0  0  0  0  0  0  0  0  0
    1.8520   -2.7217   -3.8373 H   0  0  0  0  0  0  0  0  0  0  0  0
   -1.3543   -0.9997   -5.6597 N   0  0  0  0  0  0  0  0  0  0  0  0
   -2.6736   -0.8802   -6.2350 C   0  0  0  0  0  0  0  0  0  0  0  0
   -0.5615   -1.0298   -6.2940 H   0  0  0  0  0  0  0  0  0  0  0  0
   -3.0835   -1.8832   -6.4253 H   0  0  0  0  0  0  0  0  0  0  0  0
   -3.3309   -0.3422   -5.5361 H   0  0  0  0  0  0  0  0  0  0  0  0
   -2.6115   -0.3239   -7.1819 H   0  0  0  0  0  0  0  0  0  0  0  0
 22 24  2  0  0  0  0
 24 26  1  0  0  0  0
 25 26  1  0  0  0  0
 23 25  2  0  0  0  0
 21 22  1  0  0  0  0
 22 23  1  0  0  0  0
  1  3  1  0  0  0  0
  1  7  1  0  0  0  0
  1  2  2  0  0  0  0
 36 37  1  0  0  0  0
 37 45  1  0  0  0  0
 37 38  2  0  0  0  0
  8  9  1  0  0  0  0
  9 17  1  0  0  0  0
  9 10  2  0  0  0  0
 18 19  1  0  0  0  0
 19 35  1  0  0  0  0
 19 20  2  0  0  0  0
 36 39  1  0  0  0  0
  8 11  1  0  0  0  0
 45 46  1  0  0  0  0
 18 21  1  0  0  0  0
 35 36  1  0  0  0  0
  7  8  1  0  0  0  0
 17 18  1  0  0  0  0
 24 32  1  0  0  0  0
 25 33  1  0  0  0  0
  3  4  1  0  0  0  0
  3  5  1  0  0  0  0
  3  6  1  0  0  0  0
 39 42  1  0  0  0  0
 39 43  1  0  0  0  0
 39 44  1  0  0  0  0
 11 14  1  0  0  0  0
 11 15  1  0  0  0  0
 11 16  1  0  0  0  0
 46 48  1  0  0  0  0
 46 49  1  0  0  0  0
 46 50  1  0  0  0  0
 21 29  1  0  0  0  0
 21 30  1  0  0  0  0
 36 41  1  0  0  0  0
  8 13  1  0  0  0  0
 18 28  1  0  0  0  0
 26 34  1  0  0  0  0
 23 31  1  0  0  0  0
 45 47  1  0  0  0  0
  7 12  1  0  0  0  0
 35 40  1  0  0  0  0
 17 27  1  0  0  0  0
M  CHG  1  23   1
M  END
$$$$

  -OEChem-05262214473D

 50 50  0     1  0  0  0  0  0999 V2000
   -1.6938    0.4865    3.8080 C   0  0  0  0  0  0  0  0  0  0  0  0
   -0.7464   -0.1282    3.3323 O   0  0  0  0  0  0  0  0  0  0  0  0
   -2.1257    0.2041    5.2087 C   0  0  0  0  0  0  0  0  0  0  0  0
   -2.8853   -0.5922    5.2621 H   0  0  0  0  0  0  0  0  0  0  0  0
   -1.2944   -0.1435    5.8430 H   0  0  0  0  0  0  0  0  0  0  0  0
   -2.5637    1.0590    5.7483 H   0  0  0  0  0  0  0  0  0  0  0  0
   -2.4435    1.4589    3.1669 N   0  0  0  0  0  0  0  0  0  0  0  0
   -2.1966    1.8850    1.8145 C   0  0  2  0  0  0  0  0  0  0  0  0
   -0.8617    1.2996    1.3733 C   0  0  0  0  0  0  0  0  0  0  0  0
    0.0104    0.9468    2.1646 O   0  0  0  0  0  0  0  0  0  0  0  0
   -2.1879    3.4017    1.7050 C   0  0  0  0  0  0  0  0  0  0  0  0
   -3.2085    1.8948    3.6787 H   0  0  0  0  0  0  0  0  0  0  0  0
   -3.0007    1.4665    1.1994 H   0  0  0  0  0  0  0  0  0  0  0  0
   -1.3888    3.8390    2.3147 H   0  0  0  0  0  0  0  0  0  0  0  0
   -2.0284    3.7240    0.6708 H   0  0  0  0  0  0  0  0  0  0  0  0
   -3.1380    3.8230    2.0508 H   0  0  0  0  0  0  0  0  0  0  0  0
   -0.7390    1.2565   -0.0101 N   0  0  0  0  0  0  0  0  0  0  0  0
    0.4383    0.7557   -0.6738 C   0  0  2  0  0  0  0  0  0  0  0  0
    0.0659    0.5154   -2.1325 C   0  0  0  0  0  0  0  0  0  0  0  0
   -0.2962    1.4152   -2.8875 O   0  0  0  0  0  0  0  0  0  0  0  0
    0.9562   -0.5385   -0.0358 C   0  0  0  0  0  0  0  0  0  0  0  0
    1.4197   -0.3430    1.3870 C   0  0  0  0  0  0  0  0  0  0  0  0
    2.6095    0.2770    1.6840 N   0  3  0  0  0  0  0  0  0  0  0  0
    0.8490   -0.6903    2.5789 C   0  0  0  0  0  0  0  0  0  0  0  0
    2.7740    0.3140    3.0103 C   0  0  0  0  0  0  0  0  0  0  0  0
    1.7086   -0.2723    3.5660 N   0  0  0  0  0  0  0  0  0  0  0  0
   -1.5221    1.5532   -0.5874 H   0  0  0  0  0  0  0  0  0  0  0  0
    1.1892    1.5529   -0.6217 H   0  0  0  0  0  0  0  0  0  0  0  0
    1.7747   -0.9577   -0.6367 H   0  0  0  0  0  0  0  0  0  0  0  0
    0.1730   -1.3081   -0.0396 H   0  0  0  0  0  0  0  0  0  0  0  0
    3.2667    0.6501    1.0045 H   0  0  0  0  0  0  0  0  0  0  0  0
   -0.0531   -1.1817    2.8848 H   0  0  0  0  0  0  0  0  0  0  0  0
    3.6131    0.7385    3.5357 H   0  0  0  0  0  0  0  0  0  0  0  0
    1.5605   -0.3897    4.5643 H   0  0  0  0  0  0  0  0  0  0  0  0
    0.2347   -0.8123   -2.4999 N   0  0  0  0  0  0  0  0  0  0  0  0
   -0.0250   -1.3060   -3.8332 C   0  0  2  0  0  0  0  0  0  0  0  0
   -1.4071   -0.8228   -4.2526 C   0  0  0  0  0  0  0  0  0  0  0  0
   -2.2763   -0.4958   -3.4473 O   0  0  0  0  0  0  0  0  0  0  0  0
    0.0600   -2.8234   -3.8877 C   0  0  0  0  0  0  0  0  0  0  0  0
    0.5570   -1.4702   -1.7963 H   0  0  0  0  0  0  0  0  0  0  0  0
    0.7323   -0.8614   -4.4881 H   0  0  0  0  0  0  0  0  0  0  0  0
   -0.6913   -3.2866   -3.2377 H   0  0  0  0  0  0  0  0  0  0  0  0
   -0.1088   -3.1939   -4.9042 H   0  0  0  0  0  0  0  0  0  0  0  0
    1.0449   -3.1707   -3.5573 H   0  0  0  0  0  0  0  0  0  0  0  0
   -1.5702   -0.8407   -5.6307 N   0  0  0  0  0  0  0  0  0  0  0  0
   -2.7986   -0.4395   -6.2757 C   0  0  0  0  0  0  0  0  0  0  0  0
   -0.7895   -1.1084   -6.2229 H   0  0  0  0  0  0  0  0  0  0  0  0
   -3.4388   -1.3211   -6.4271 H   0  0  0  0  0  0  0  0  0  0  0  0
   -3.3239    0.2904   -5.6421 H   0  0  0  0  0  0  0  0  0  0  0  0
   -2.5690    0.0183   -7.2492 H   0  0  0  0  0  0  0  0  0  0  0  0
 22 24  2  0  0  0  0
 24 26  1  0  0  0  0
 25 26  1  0  0  0  0
 23 25  2  0  0  0  0
 21 22  1  0  0  0  0
 22 23  1  0  0  0  0
  1  3  1  0  0  0  0
  1  7  1  0  0  0  0
  1  2  2  0  0  0  0
 36 37  1  0  0  0  0
 37 45  1  0  0  0  0
 37 38  2  0  0  0  0
  8  9  1  0  0  0  0
  9 17  1  0  0  0  0
  9 10  2  0  0  0  0
 18 19  1  0  0  0  0
 19 35  1  0  0  0  0
 19 20  2  0  0  0  0
 36 39  1  0  0  0  0
  8 11  1  0  0  0  0
 45 46  1  0  0  0  0
 18 21  1  0  0  0  0
 35 36  1  0  0  0  0
  7  8  1  0  0  0  0
 17 18  1  0  0  0  0
 24 32  1  0  0  0  0
 25 33  1  0  0  0  0
  3  4  1  0  0  0  0
  3  5  1  0  0  0  0
  3  6  1  0  0  0  0
 39 42  1  0  0  0  0
 39 43  1  0  0  0  0
 39 44  1  0  0  0  0
 11 14  1  0  0  0  0
 11 15  1  0  0  0  0
 11 16  1  0  0  0  0
 46 48  1  0  0  0  0
 46 49  1  0  0  0  0
 46 50  1  0  0  0  0
 21 29  1  0  0  0  0
 21 30  1  0  0  0  0
 36 41  1  0  0  0  0
  8 13  1  0  0  0  0
 18 28  1  0  0  0  0
 26 34  1  0  0  0  0
 23 31  1  0  0  0  0
 45 47  1  0  0  0  0
  7 12  1  0  0  0  0
 35 40  1  0  0  0  0
 17 27  1  0  0  0  0
M  CHG  1  23   1
M  END
$$$$

  -OEChem-05262214473D

 50 50  0     1  0  0  0  0  0999 V2000
   -1.6938    0.4865    3.8080 C   0  0  0  0  0  0  0  0  0  0  0  0
   -0.7464   -0.1282    3.3323 O   0  0  0  0  0  0  0  0  0  0  0  0
   -2.1257    0.2041    5.2087 C   0  0  0  0  0  0  0  0  0  0  0  0
   -2.8853   -0.5922    5.2621 H   0  0  0  0  0  0  0  0  0  0  0  0
   -1.2944   -0.1435    5.8430 H   0  0  0  0  0  0  0  0  0  0  0  0
   -2.5637    1.0590    5.7483 H   0  0  0  0  0  0  0  0  0  0  0  0
   -2.4435    1.4589    3.1669 N   0  0  0  0  0  0  0  0  0  0  0  0
   -2.1966    1.8850    1.8145 C   0  0  2  0  0  0  0  0  0  0  0  0
   -0.8617    1.2996    1.3733 C   0  0  0  0  0  0  0  0  0  0  0  0
    0.0104    0.9468    2.1646 O   0  0  0  0  0  0  0  0  0  0  0  0
   -2.1879    3.4017    1.7050 C   0  0  0  0  0  0  0  0  0  0  0  0
   -3.2085    1.8948    3.6787 H   0  0  0  0  0  0  0  0  0  0  0  0
   -3.0007    1.4665    1.1994 H   0  0  0  0  0  0  0  0  0  0  0  0
   -1.3888    3.8390    2.3147 H   0  0  0  0  0  0  0  0  0  0  0  0
   -2.0284    3.7240    0.6708 H   0  0  0  0  0  0  0  0  0  0  0  0
   -3.1380    3.8230    2.0508 H   0  0  0  0  0  0  0  0  0  0  0  0
   -0.7390    1.2565   -0.0101 N   0  0  0  0  0  0  0  0  0  0  0  0
    0.4383    0.7557   -0.6738 C   0  0  2  0  0  0  0  0  0  0  0  0
    0.0659    0.5154   -2.1325 C   0  0  0  0  0  0  0  0  0  0  0  0
   -0.0358    1.4229   -2.9553 O   0  0  0  0  0  0  0  0  0  0  0  0
    0.9562   -0.5385   -0.0358 C   0  0  0  0  0  0  0  0  0  0  0  0
    1.4197   -0.3430    1.3870 C   0  0  0  0  0  0  0  0  0  0  0  0
    2.6095    0.2770    1.6840 N   0  3  0  0  0  0  0  0  0  0  0  0
    0.8490   -0.6903    2.5789 C   0  0  0  0  0  0  0  0  0  0  0  0
    2.7740    0.3140    3.0103 C   0  0  0  0  0  0  0  0  0  0  0  0
    1.7086   -0.2723    3.5660 N   0  0  0  0  0  0  0  0  0  0  0  0
   -1.5221    1.5532   -0.5874 H   0  0  0  0  0  0  0  0  0  0  0  0
    1.1892    1.5529   -0.6217 H   0  0  0  0  0  0  0  0  0  0  0  0
    1.7747   -0.9577   -0.6367 H   0  0  0  0  0  0  0  0  0  0  0  0
    0.1730   -1.3081   -0.0396 H   0  0  0  0  0  0  0  0  0  0  0  0
    3.2667    0.6501    1.0045 H   0  0  0  0  0  0  0  0  0  0  0  0
   -0.0531   -1.1817    2.8848 H   0  0  0  0  0  0  0  0  0  0  0  0
    3.6131    0.7385    3.5357 H   0  0  0  0  0  0  0  0  0  0  0  0
    1.5605   -0.3897    4.5643 H   0  0  0  0  0  0  0  0  0  0  0  0
   -0.0892   -0.8349   -2.4135 N   0  0  0  0  0  0  0  0  0  0  0  0
   -0.4197   -1.3393   -3.7269 C   0  0  2  0  0  0  0  0  0  0  0  0
   -1.6234   -0.5604   -4.2406 C   0  0  0  0  0  0  0  0  0  0  0  0
   -2.4099    0.0249   -3.4990 O   0  0  0  0  0  0  0  0  0  0  0  0
   -0.7134   -2.8310   -3.6890 C   0  0  0  0  0  0  0  0  0  0  0  0
    0.0359   -1.5023   -1.6580 H   0  0  0  0  0  0  0  0  0  0  0  0
    0.4455   -1.1408   -4.3689 H   0  0  0  0  0  0  0  0  0  0  0  0
   -1.5773   -3.0493   -3.0506 H   0  0  0  0  0  0  0  0  0  0  0  0
   -0.9357   -3.2171   -4.6893 H   0  0  0  0  0  0  0  0  0  0  0  0
    0.1426   -3.3867   -3.2914 H   0  0  0  0  0  0  0  0  0  0  0  0
   -1.7405   -0.6317   -5.6217 N   0  0  0  0  0  0  0  0  0  0  0  0
   -2.8086    0.0146   -6.3480 C   0  0  0  0  0  0  0  0  0  0  0  0
   -1.0321   -1.1233   -6.1585 H   0  0  0  0  0  0  0  0  0  0  0  0
   -3.6427   -0.6904   -6.4790 H   0  0  0  0  0  0  0  0  0  0  0  0
   -3.1561    0.8929   -5.7842 H   0  0  0  0  0  0  0  0  0  0  0  0
   -2.4403    0.3341   -7.3340 H   0  0  0  0  0  0  0  0  0  0  0  0
 22 24  2  0  0  0  0
 24 26  1  0  0  0  0
 25 26  1  0  0  0  0
 23 25  2  0  0  0  0
 21 22  1  0  0  0  0
 22 23  1  0  0  0  0
  1  3  1  0  0  0  0
  1  7  1  0  0  0  0
  1  2  2  0  0  0  0
 36 37  1  0  0  0  0
 37 45  1  0  0  0  0
 37 38  2  0  0  0  0
  8  9  1  0  0  0  0
  9 17  1  0  0  0  0
  9 10  2  0  0  0  0
 18 19  1  0  0  0  0
 19 35  1  0  0  0  0
 19 20  2  0  0  0  0
 36 39  1  0  0  0  0
  8 11  1  0  0  0  0
 45 46  1  0  0  0  0
 18 21  1  0  0  0  0
 35 36  1  0  0  0  0
  7  8  1  0  0  0  0
 17 18  1  0  0  0  0
 24 32  1  0  0  0  0
 25 33  1  0  0  0  0
  3  4  1  0  0  0  0
  3  5  1  0  0  0  0
  3  6  1  0  0  0  0
 39 42  1  0  0  0  0
 39 43  1  0  0  0  0
 39 44  1  0  0  0  0
 11 14  1  0  0  0  0
 11 15  1  0  0  0  0
 11 16  1  0  0  0  0
 46 48  1  0  0  0  0
 46 49  1  0  0  0  0
 46 50  1  0  0  0  0
 21 29  1  0  0  0  0
 21 30  1  0  0  0  0
 36 41  1  0  0  0  0
  8 13  1  0  0  0  0
 18 28  1  0  0  0  0
 26 34  1  0  0  0  0
 23 31  1  0  0  0  0
 45 47  1  0  0  0  0
  7 12  1  0  0  0  0
 35 40  1  0  0  0  0
 17 27  1  0  0  0  0
M  CHG  1  23   1
M  END
$$$$

  -OEChem-05262214473D

 50 50  0     1  0  0  0  0  0999 V2000
   -1.6938    0.4865    3.8080 C   0  0  0  0  0  0  0  0  0  0  0  0
   -0.7464   -0.1282    3.3323 O   0  0  0  0  0  0  0  0  0  0  0  0
   -2.1257    0.2041    5.2087 C   0  0  0  0  0  0  0  0  0  0  0  0
   -2.8853   -0.5922    5.2621 H   0  0  0  0  0  0  0  0  0  0  0  0
   -1.2944   -0.1435    5.8430 H   0  0  0  0  0  0  0  0  0  0  0  0
   -2.5637    1.0590    5.7483 H   0  0  0  0  0  0  0  0  0  0  0  0
   -2.4435    1.4589    3.1669 N   0  0  0  0  0  0  0  0  0  0  0  0
   -2.1966    1.8850    1.8145 C   0  0  2  0  0  0  0  0  0  0  0  0
   -0.8617    1.2996    1.3733 C   0  0  0  0  0  0  0  0  0  0  0  0
    0.0104    0.9468    2.1646 O   0  0  0  0  0  0  0  0  0  0  0  0
   -2.1879    3.4017    1.7050 C   0  0  0  0  0  0  0  0  0  0  0  0
   -3.2085    1.8948    3.6787 H   0  0  0  0  0  0  0  0  0  0  0  0
   -3.0007    1.4665    1.1994 H   0  0  0  0  0  0  0  0  0  0  0  0
   -1.3888    3.8390    2.3147 H   0  0  0  0  0  0  0  0  0  0  0  0
   -2.0284    3.7240    0.6708 H   0  0  0  0  0  0  0  0  0  0  0  0
   -3.1380    3.8230    2.0508 H   0  0  0  0  0  0  0  0  0  0  0  0
   -0.7390    1.2565   -0.0101 N   0  0  0  0  0  0  0  0  0  0  0  0
    0.4383    0.7557   -0.6738 C   0  0  2  0  0  0  0  0  0  0  0  0
    0.0659    0.5154   -2.1325 C   0  0  0  0  0  0  0  0  0  0  0  0
    0.2204    1.3615   -3.0106 O   0  0  0  0  0  0  0  0  0  0  0  0
    0.9562   -0.5385   -0.0358 C   0  0  0  0  0  0  0  0  0  0  0  0
    1.4197   -0.3430    1.3870 C   0  0  0  0  0  0  0  0  0  0  0  0
    2.6095    0.2770    1.6840 N   0  3  0  0  0  0  0  0  0  0  0  0
    0.8490   -0.6903    2.5789 C   0  0  0  0  0  0  0  0  0  0  0  0
    2.7740    0.3140    3.0103 C   0  0  0  0  0  0  0  0  0  0  0  0
    1.7086   -0.2723    3.5660 N   0  0  0  0  0  0  0  0  0  0  0  0
   -1.5221    1.5532   -0.5874 H   0  0  0  0  0  0  0  0  0  0  0  0
    1.1892    1.5529   -0.6217 H   0  0  0  0  0  0  0  0  0  0  0  0
    1.7747   -0.9577   -0.6367 H   0  0  0  0  0  0  0  0  0  0  0  0
    0.1730   -1.3081   -0.0396 H   0  0  0  0  0  0  0  0  0  0  0  0
    3.2667    0.6501    1.0045 H   0  0  0  0  0  0  0  0  0  0  0  0
   -0.0531   -1.1817    2.8848 H   0  0  0  0  0  0  0  0  0  0  0  0
    3.6131    0.7385    3.5357 H   0  0  0  0  0  0  0  0  0  0  0  0
    1.5605   -0.3897    4.5643 H   0  0  0  0  0  0  0  0  0  0  0  0
   -0.4112   -0.7711   -2.3418 N   0  0  0  0  0  0  0  0  0  0  0  0
   -0.8136   -1.2670   -3.6383 C   0  0  2  0  0  0  0  0  0  0  0  0
   -1.7679   -0.2526   -4.2544 C   0  0  0  0  0  0  0  0  0  0  0  0
   -2.4078    0.5577   -3.5873 O   0  0  0  0  0  0  0  0  0  0  0  0
   -1.4704   -2.6342   -3.5282 C   0  0  0  0  0  0  0  0  0  0  0  0
   -0.4810   -1.3954   -1.5436 H   0  0  0  0  0  0  0  0  0  0  0  0
    0.0944   -1.3322   -4.2477 H   0  0  0  0  0  0  0  0  0  0  0  0
   -2.3819   -2.5888   -2.9211 H   0  0  0  0  0  0  0  0  0  0  0  0
   -1.7489   -3.0211   -4.5140 H   0  0  0  0  0  0  0  0  0  0  0  0
   -0.7932   -3.3552   -3.0577 H   0  0  0  0  0  0  0  0  0  0  0  0
   -1.8537   -0.3872   -5.6331 N   0  0  0  0  0  0  0  0  0  0  0  0
   -2.7027    0.4512   -6.4469 C   0  0  0  0  0  0  0  0  0  0  0  0
   -1.2727   -1.0736   -6.1052 H   0  0  0  0  0  0  0  0  0  0  0  0
   -3.6814   -0.0339   -6.5772 H   0  0  0  0  0  0  0  0  0  0  0  0
   -2.8390    1.4244   -5.9527 H   0  0  0  0  0  0  0  0  0  0  0  0
   -2.2344    0.6019   -7.4307 H   0  0  0  0  0  0  0  0  0  0  0  0
 22 24  2  0  0  0  0
 24 26  1  0  0  0  0
 25 26  1  0  0  0  0
 23 25  2  0  0  0  0
 21 22  1  0  0  0  0
 22 23  1  0  0  0  0
  1  3  1  0  0  0  0
  1  7  1  0  0  0  0
  1  2  2  0  0  0  0
 36 37  1  0  0  0  0
 37 45  1  0  0  0  0
 37 38  2  0  0  0  0
  8  9  1  0  0  0  0
  9 17  1  0  0  0  0
  9 10  2  0  0  0  0
 18 19  1  0  0  0  0
 19 35  1  0  0  0  0
 19 20  2  0  0  0  0
 36 39  1  0  0  0  0
  8 11  1  0  0  0  0
 45 46  1  0  0  0  0
 18 21  1  0  0  0  0
 35 36  1  0  0  0  0
  7  8  1  0  0  0  0
 17 18  1  0  0  0  0
 24 32  1  0  0  0  0
 25 33  1  0  0  0  0
  3  4  1  0  0  0  0
  3  5  1  0  0  0  0
  3  6  1  0  0  0  0
 39 42  1  0  0  0  0
 39 43  1  0  0  0  0
 39 44  1  0  0  0  0
 11 14  1  0  0  0  0
 11 15  1  0  0  0  0
 11 16  1  0  0  0  0
 46 48  1  0  0  0  0
 46 49  1  0  0  0  0
 46 50  1  0  0  0  0
 21 29  1  0  0  0  0
 21 30  1  0  0  0  0
 36 41  1  0  0  0  0
  8 13  1  0  0  0  0
 18 28  1  0  0  0  0
 26 34  1  0  0  0  0
 23 31  1  0  0  0  0
 45 47  1  0  0  0  0
  7 12  1  0  0  0  0
 35 40  1  0  0  0  0
 17 27  1  0  0  0  0
M  CHG  1  23   1
M  END
$$$$

  -OEChem-05262214473D

 50 50  0     1  0  0  0  0  0999 V2000
   -1.6938    0.4865    3.8080 C   0  0  0  0  0  0  0  0  0  0  0  0
   -0.7464   -0.1282    3.3323 O   0  0  0  0  0  0  0  0  0  0  0  0
   -2.1257    0.2041    5.2087 C   0  0  0  0  0  0  0  0  0  0  0  0
   -2.8853   -0.5922    5.2621 H   0  0  0  0  0  0  0  0  0  0  0  0
   -1.2944   -0.1435    5.8430 H   0  0  0  0  0  0  0  0  0  0  0  0
   -2.5637    1.0590    5.7483 H   0  0  0  0  0  0  0  0  0  0  0  0
   -2.4435    1.4589    3.1669 N   0  0  0  0  0  0  0  0  0  0  0  0
   -2.1966    1.8850    1.8145 C   0  0  2  0  0  0  0  0  0  0  0  0
   -0.8617    1.2996    1.3733 C   0  0  0  0  0  0  0  0  0  0  0  0
    0.0104    0.9468    2.1646 O   0  0  0  0  0  0  0  0  0  0  0  0
   -2.1879    3.4017    1.7050 C   0  0  0  0  0  0  0  0  0  0  0  0
   -3.2085    1.8948    3.6787 H   0  0  0  0  0  0  0  0  0  0  0  0
   -3.0007    1.4665    1.1994 H   0  0  0  0  0  0  0  0  0  0  0  0
   -1.3888    3.8390    2.3147 H   0  0  0  0  0  0  0  0  0  0  0  0
   -2.0284    3.7240    0.6708 H   0  0  0  0  0  0  0  0  0  0  0  0
   -3.1380    3.8230    2.0508 H   0  0  0  0  0  0  0  0  0  0  0  0
   -0.7390    1.2565   -0.0101 N   0  0  0  0  0  0  0  0  0  0  0  0
    0.4383    0.7557   -0.6738 C   0  0  2  0  0  0  0  0  0  0  0  0
    0.0659    0.5154   -2.1325 C   0  0  0  0  0  0  0  0  0  0  0  0
    0.4549    1.2353   -3.0497 O   0  0  0  0  0  0  0  0  0  0  0  0
    0.9562   -0.5385   -0.0358 C   0  0  0  0  0  0  0  0  0  0  0  0
    1.4197   -0.3430    1.3870 C   0  0  0  0  0  0  0  0  0  0  0  0
    2.6095    0.2770    1.6840 N   0  3  0  0  0  0  0  0  0  0  0  0
    0.8490   -0.6903    2.5789 C   0  0  0  0  0  0  0  0  0  0  0  0
    2.7740    0.3140    3.0103 C   0  0  0  0  0  0  0  0  0  0  0  0
    1.7086   -0.2723    3.5660 N   0  0  0  0  0  0  0  0  0  0  0  0
   -1.5221    1.5532   -0.5874 H   0  0  0  0  0  0  0  0  0  0  0  0
    1.1892    1.5529   -0.6217 H   0  0  0  0  0  0  0  0  0  0  0  0
    1.7747   -0.9577   -0.6367 H   0  0  0  0  0  0  0  0  0  0  0  0
    0.1730   -1.3081   -0.0396 H   0  0  0  0  0  0  0  0  0  0  0  0
    3.2667    0.6501    1.0045 H   0  0  0  0  0  0  0  0  0  0  0  0
   -0.0531   -1.1817    2.8848 H   0  0  0  0  0  0  0  0  0  0  0  0
    3.6131    0.7385    3.5357 H   0  0  0  0  0  0  0  0  0  0  0  0
    1.5605   -0.3897    4.5643 H   0  0  0  0  0  0  0  0  0  0  0  0
   -0.7093   -0.6251   -2.2897 N   0  0  0  0  0  0  0  0  0  0  0  0
   -1.1797   -1.0941   -3.5733 C   0  0  2  0  0  0  0  0  0  0  0  0
   -1.8307    0.0796   -4.2931 C   0  0  0  0  0  0  0  0  0  0  0  0
   -2.2703    1.0662   -3.7061 O   0  0  0  0  0  0  0  0  0  0  0  0
   -2.1595   -2.2465   -3.4161 C   0  0  0  0  0  0  0  0  0  0  0  0
   -0.9585   -1.1569   -1.4610 H   0  0  0  0  0  0  0  0  0  0  0  0
   -0.2971   -1.4224   -4.1329 H   0  0  0  0  0  0  0  0  0  0  0  0
   -3.0504   -1.9366   -2.8578 H   0  0  0  0  0  0  0  0  0  0  0  0
   -2.4930   -2.6194   -4.3902 H   0  0  0  0  0  0  0  0  0  0  0  0
   -1.6989   -3.0782   -2.8721 H   0  0  0  0  0  0  0  0  0  0  0  0
   -1.9020   -0.1236   -5.6641 N   0  0  0  0  0  0  0  0  0  0  0  0
   -2.4884    0.8404   -6.5657 C   0  0  0  0  0  0  0  0  0  0  0  0
   -1.4950   -0.9627   -6.0668 H   0  0  0  0  0  0  0  0  0  0  0  0
   -3.5521    0.6036   -6.7152 H   0  0  0  0  0  0  0  0  0  0  0  0
   -2.3942    1.8486   -6.1361 H   0  0  0  0  0  0  0  0  0  0  0  0
   -1.9652    0.8035   -7.5326 H   0  0  0  0  0  0  0  0  0  0  0  0
 22 24  2  0  0  0  0
 24 26  1  0  0  0  0
 25 26  1  0  0  0  0
 23 25  2  0  0  0  0
 21 22  1  0  0  0  0
 22 23  1  0  0  0  0
  1  3  1  0  0  0  0
  1  7  1  0  0  0  0
  1  2  2  0  0  0  0
 36 37  1  0  0  0  0
 37 45  1  0  0  0  0
 37 38  2  0  0  0  0
  8  9  1  0  0  0  0
  9 17  1  0  0  0  0
  9 10  2  0  0  0  0
 18 19  1  0  0  0  0
 19 35  1  0  0  0  0
 19 20  2  0  0  0  0
 36 39  1  0  0  0  0
  8 11  1  0  0  0  0
 45 46  1  0  0  0  0
 18 21  1  0  0  0  0
 35 36  1  0  0  0  0
  7  8  1  0  0  0  0
 17 18  1  0  0  0  0
 24 32  1  0  0  0  0
 25 33  1  0  0  0  0
  3  4  1  0  0  0  0
  3  5  1  0  0  0  0
  3  6  1  0  0  0  0
 39 42  1  0  0  0  0
 39 43  1  0  0  0  0
 39 44  1  0  0  0  0
 11 14  1  0  0  0  0
 11 15  1  0  0  0  0
 11 16  1  0  0  0  0
 46 48  1  0  0  0  0
 46 49  1  0  0  0  0
 46 50  1  0  0  0  0
 21 29  1  0  0  0  0
 21 30  1  0  0  0  0
 36 41  1  0  0  0  0
  8 13  1  0  0  0  0
 18 28  1  0  0  0  0
 26 34  1  0  0  0  0
 23 31  1  0  0  0  0
 45 47  1  0  0  0  0
  7 12  1  0  0  0  0
 35 40  1  0  0  0  0
 17 27  1  0  0  0  0
M  CHG  1  23   1
M  END
$$$$

  -OEChem-05262214473D

 50 50  0     1  0  0  0  0  0999 V2000
   -1.6938    0.4865    3.8080 C   0  0  0  0  0  0  0  0  0  0  0  0
   -0.7464   -0.1282    3.3323 O   0  0  0  0  0  0  0  0  0  0  0  0
   -2.1257    0.2041    5.2087 C   0  0  0  0  0  0  0  0  0  0  0  0
   -2.8853   -0.5922    5.2621 H   0  0  0  0  0  0  0  0  0  0  0  0
   -1.2944   -0.1435    5.8430 H   0  0  0  0  0  0  0  0  0  0  0  0
   -2.5637    1.0590    5.7483 H   0  0  0  0  0  0  0  0  0  0  0  0
   -2.4435    1.4589    3.1669 N   0  0  0  0  0  0  0  0  0  0  0  0
   -2.1966    1.8850    1.8145 C   0  0  2  0  0  0  0  0  0  0  0  0
   -0.8617    1.2996    1.3733 C   0  0  0  0  0  0  0  0  0  0  0  0
    0.0104    0.9468    2.1646 O   0  0  0  0  0  0  0  0  0  0  0  0
   -2.1879    3.4017    1.7050 C   0  0  0  0  0  0  0  0  0  0  0  0
   -3.2085    1.8948    3.6787 H   0  0  0  0  0  0  0  0  0  0  0  0
   -3.0007    1.4665    1.1994 H   0  0  0  0  0  0  0  0  0  0  0  0
   -1.3888    3.8390    2.3147 H   0  0  0  0  0  0  0  0  0  0  0  0
   -2.0284    3.7240    0.6708 H   0  0  0  0  0  0  0  0  0  0  0  0
   -3.1380    3.8230    2.0508 H   0  0  0  0  0  0  0  0  0  0  0  0
   -0.7390    1.2565   -0.0101 N   0  0  0  0  0  0  0  0  0  0  0  0
    0.4383    0.7557   -0.6738 C   0  0  2  0  0  0  0  0  0  0  0  0
    0.0659    0.5154   -2.1325 C   0  0  0  0  0  0  0  0  0  0  0  0
    0.6518    1.0529   -3.0699 O   0  0  0  0  0  0  0  0  0  0  0  0
    0.9562   -0.5385   -0.0358 C   0  0  0  0  0  0  0  0  0  0  0  0
    1.4197   -0.3430    1.3870 C   0  0  0  0  0  0  0  0  0  0  0  0
    2.6095    0.2770    1.6840 N   0  3  0  0  0  0  0  0  0  0  0  0
    0.8490   -0.6903    2.5789 C   0  0  0  0  0  0  0  0  0  0  0  0
    2.7740    0.3140    3.0103 C   0  0  0  0  0  0  0  0  0  0  0  0
    1.7086   -0.2723    3.5660 N   0  0  0  0  0  0  0  0  0  0  0  0
   -1.5221    1.5532   -0.5874 H   0  0  0  0  0  0  0  0  0  0  0  0
    1.1892    1.5529   -0.6217 H   0  0  0  0  0  0  0  0  0  0  0  0
    1.7747   -0.9577   -0.6367 H   0  0  0  0  0  0  0  0  0  0  0  0
    0.1730   -1.3081   -0.0396 H   0  0  0  0  0  0  0  0  0  0  0  0
    3.2667    0.6501    1.0045 H   0  0  0  0  0  0  0  0  0  0  0  0
   -0.0531   -1.1817    2.8848 H   0  0  0  0  0  0  0  0  0  0  0  0
    3.6131    0.7385    3.5357 H   0  0  0  0  0  0  0  0  0  0  0  0
    1.5605   -0.3897    4.5643 H   0  0  0  0  0  0  0  0  0  0  0  0
   -0.9632   -0.4070   -2.2608 N   0  0  0  0  0  0  0  0  0  0  0  0
   -1.4932   -0.8323   -3.5364 C   0  0  2  0  0  0  0  0  0  0  0  0
   -1.8075    0.4136   -4.3540 C   0  0  0  0  0  0  0  0  0  0  0  0
   -2.0067    1.5158   -3.8475 O   0  0  0  0  0  0  0  0  0  0  0  0
   -2.7336   -1.6943   -3.3605 C   0  0  0  0  0  0  0  0  0  0  0  0
   -1.3641   -0.8031   -1.4157 H   0  0  0  0  0  0  0  0  0  0  0  0
   -0.7022   -1.4054   -4.0323 H   0  0  0  0  0  0  0  0  0  0  0  0
   -3.5372   -1.1371   -2.8652 H   0  0  0  0  0  0  0  0  0  0  0  0
   -3.1173   -2.0392   -4.3264 H   0  0  0  0  0  0  0  0  0  0  0  0
   -2.5128   -2.5746   -2.7473 H   0  0  0  0  0  0  0  0  0  0  0  0
   -1.8821    0.1410   -5.7128 N   0  0  0  0  0  0  0  0  0  0  0  0
   -2.1801    1.1557   -6.6964 C   0  0  0  0  0  0  0  0  0  0  0  0
   -1.6838   -0.7980   -6.0457 H   0  0  0  0  0  0  0  0  0  0  0  0
   -3.2638    1.1786   -6.8836 H   0  0  0  0  0  0  0  0  0  0  0  0
   -1.8520    2.1367   -6.3220 H   0  0  0  0  0  0  0  0  0  0  0  0
   -1.6512    0.9251   -7.6329 H   0  0  0  0  0  0  0  0  0  0  0  0
 22 24  2  0  0  0  0
 24 26  1  0  0  0  0
 25 26  1  0  0  0  0
 23 25  2  0  0  0  0
 21 22  1  0  0  0  0
 22 23  1  0  0  0  0
  1  3  1  0  0  0  0
  1  7  1  0  0  0  0
  1  2  2  0  0  0  0
 36 37  1  0  0  0  0
 37 45  1  0  0  0  0
 37 38  2  0  0  0  0
  8  9  1  0  0  0  0
  9 17  1  0  0  0  0
  9 10  2  0  0  0  0
 18 19  1  0  0  0  0
 19 35  1  0  0  0  0
 19 20  2  0  0  0  0
 36 39  1  0  0  0  0
  8 11  1  0  0  0  0
 45 46  1  0  0  0  0
 18 21  1  0  0  0  0
 35 36  1  0  0  0  0
  7  8  1  0  0  0  0
 17 18  1  0  0  0  0
 24 32  1  0  0  0  0
 25 33  1  0  0  0  0
  3  4  1  0  0  0  0
  3  5  1  0  0  0  0
  3  6  1  0  0  0  0
 39 42  1  0  0  0  0
 39 43  1  0  0  0  0
 39 44  1  0  0  0  0
 11 14  1  0  0  0  0
 11 15  1  0  0  0  0
 11 16  1  0  0  0  0
 46 48  1  0  0  0  0
 46 49  1  0  0  0  0
 46 50  1  0  0  0  0
 21 29  1  0  0  0  0
 21 30  1  0  0  0  0
 36 41  1  0  0  0  0
  8 13  1  0  0  0  0
 18 28  1  0  0  0  0
 26 34  1  0  0  0  0
 23 31  1  0  0  0  0
 45 47  1  0  0  0  0
  7 12  1  0  0  0  0
 35 40  1  0  0  0  0
 17 27  1  0  0  0  0
M  CHG  1  23   1
M  END
$$$$

  -OEChem-05262214473D

 50 50  0     1  0  0  0  0  0999 V2000
   -1.6938    0.4865    3.8080 C   0  0  0  0  0  0  0  0  0  0  0  0
   -0.7464   -0.1282    3.3323 O   0  0  0  0  0  0  0  0  0  0  0  0
   -2.1257    0.2041    5.2087 C   0  0  0  0  0  0  0  0  0  0  0  0
   -2.8853   -0.5922    5.2621 H   0  0  0  0  0  0  0  0  0  0  0  0
   -1.2944   -0.1435    5.8430 H   0  0  0  0  0  0  0  0  0  0  0  0
   -2.5637    1.0590    5.7483 H   0  0  0  0  0  0  0  0  0  0  0  0
   -2.4435    1.4589    3.1669 N   0  0  0  0  0  0  0  0  0  0  0  0
   -2.1966    1.8850    1.8145 C   0  0  2  0  0  0  0  0  0  0  0  0
   -0.8617    1.2996    1.3733 C   0  0  0  0  0  0  0  0  0  0  0  0
    0.0104    0.9468    2.1646 O   0  0  0  0  0  0  0  0  0  0  0  0
   -2.1879    3.4017    1.7050 C   0  0  0  0  0  0  0  0  0  0  0  0
   -3.2085    1.8948    3.6787 H   0  0  0  0  0  0  0  0  0  0  0  0
   -3.0007    1.4665    1.1994 H   0  0  0  0  0  0  0  0  0  0  0  0
   -1.3888    3.8390    2.3147 H   0  0  0  0  0  0  0  0  0  0  0  0
   -2.0284    3.7240    0.6708 H   0  0  0  0  0  0  0  0  0  0  0  0
   -3.1380    3.8230    2.0508 H   0  0  0  0  0  0  0  0  0  0  0  0
   -0.7390    1.2565   -0.0101 N   0  0  0  0  0  0  0  0  0  0  0  0
    0.4383    0.7557   -0.6738 C   0  0  2  0  0  0  0  0  0  0  0  0
    0.0659    0.5154   -2.1325 C   0  0  0  0  0  0  0  0  0  0  0  0
    0.7976    0.8266   -3.0698 O   0  0  0  0  0  0  0  0  0  0  0  0
    0.9562   -0.5385   -0.0358 C   0  0  0  0  0  0  0  0  0  0  0  0
    1.4197   -0.3430    1.3870 C   0  0  0  0  0  0  0  0  0  0  0  0
    2.6095    0.2770    1.6840 N   0  3  0  0  0  0  0  0  0  0  0  0
    0.8490   -0.6903    2.5789 C   0  0  0  0  0  0  0  0  0  0  0  0
    2.7740    0.3140    3.0103 C   0  0  0  0  0  0  0  0  0  0  0  0
    1.7086   -0.2723    3.5660 N   0  0  0  0  0  0  0  0  0  0  0  0
   -1.5221    1.5532   -0.5874 H   0  0  0  0  0  0  0  0  0  0  0  0
    1.1892    1.5529   -0.6217 H   0  0  0  0  0  0  0  0  0  0  0  0
    1.7747   -0.9577   -0.6367 H   0  0  0  0  0  0  0  0  0  0  0  0
    0.1730   -1.3081   -0.0396 H   0  0  0  0  0  0  0  0  0  0  0  0
    3.2667    0.6501    1.0045 H   0  0  0  0  0  0  0  0  0  0  0  0
   -0.0531   -1.1817    2.8848 H   0  0  0  0  0  0  0  0  0  0  0  0
    3.6131    0.7385    3.5357 H   0  0  0  0  0  0  0  0  0  0  0  0
    1.5605   -0.3897    4.5643 H   0  0  0  0  0  0  0  0  0  0  0  0
   -1.1557   -0.1316   -2.2570 N   0  0  0  0  0  0  0  0  0  0  0  0
   -1.7327   -0.4994   -3.5301 C   0  0  2  0  0  0  0  0  0  0  0  0
   -1.6999    0.7266   -4.4330 C   0  0  0  0  0  0  0  0  0  0  0  0
   -1.6349    1.8758   -4.0017 O   0  0  0  0  0  0  0  0  0  0  0  0
   -3.1537   -1.0152   -3.3651 C   0  0  0  0  0  0  0  0  0  0  0  0
   -1.6700   -0.3581   -1.4109 H   0  0  0  0  0  0  0  0  0  0  0  0
   -1.0934   -1.2822   -3.9527 H   0  0  0  0  0  0  0  0  0  0  0  0
   -3.8091   -0.2447   -2.9428 H   0  0  0  0  0  0  0  0  0  0  0  0
   -3.5793   -1.3202   -4.3269 H   0  0  0  0  0  0  0  0  0  0  0  0
   -3.1792   -1.8788   -2.6917 H   0  0  0  0  0  0  0  0  0  0  0  0
   -1.7953    0.3885   -5.7757 N   0  0  0  0  0  0  0  0  0  0  0  0
   -1.7989    1.3757   -6.8299 C   0  0  0  0  0  0  0  0  0  0  0  0
   -1.8263   -0.5908   -6.0434 H   0  0  0  0  0  0  0  0  0  0  0  0
   -2.8361    1.6520   -7.0707 H   0  0  0  0  0  0  0  0  0  0  0  0
   -1.2494    2.2688   -6.4976 H   0  0  0  0  0  0  0  0  0  0  0  0
   -1.3136    0.9584   -7.7245 H   0  0  0  0  0  0  0  0  0  0  0  0
 22 24  2  0  0  0  0
 24 26  1  0  0  0  0
 25 26  1  0  0  0  0
 23 25  2  0  0  0  0
 21 22  1  0  0  0  0
 22 23  1  0  0  0  0
  1  3  1  0  0  0  0
  1  7  1  0  0  0  0
  1  2  2  0  0  0  0
 36 37  1  0  0  0  0
 37 45  1  0  0  0  0
 37 38  2  0  0  0  0
  8  9  1  0  0  0  0
  9 17  1  0  0  0  0
  9 10  2  0  0  0  0
 18 19  1  0  0  0  0
 19 35  1  0  0  0  0
 19 20  2  0  0  0  0
 36 39  1  0  0  0  0
  8 11  1  0  0  0  0
 45 46  1  0  0  0  0
 18 21  1  0  0  0  0
 35 36  1  0  0  0  0
  7  8  1  0  0  0  0
 17 18  1  0  0  0  0
 24 32  1  0  0  0  0
 25 33  1  0  0  0  0
  3  4  1  0  0  0  0
  3  5  1  0  0  0  0
  3  6  1  0  0  0  0
 39 42  1  0  0  0  0
 39 43  1  0  0  0  0
 39 44  1  0  0  0  0
 11 14  1  0  0  0  0
 11 15  1  0  0  0  0
 11 16  1  0  0  0  0
 46 48  1  0  0  0  0
 46 49  1  0  0  0  0
 46 50  1  0  0  0  0
 21 29  1  0  0  0  0
 21 30  1  0  0  0  0
 36 41  1  0  0  0  0
  8 13  1  0  0  0  0
 18 28  1  0  0  0  0
 26 34  1  0  0  0  0
 23 31  1  0  0  0  0
 45 47  1  0  0  0  0
  7 12  1  0  0  0  0
 35 40  1  0  0  0  0
 17 27  1  0  0  0  0
M  CHG  1  23   1
M  END
$$$$

  -OEChem-05262214473D

 50 50  0     1  0  0  0  0  0999 V2000
   -1.6938    0.4865    3.8080 C   0  0  0  0  0  0  0  0  0  0  0  0
   -0.7464   -0.1282    3.3323 O   0  0  0  0  0  0  0  0  0  0  0  0
   -2.1257    0.2041    5.2087 C   0  0  0  0  0  0  0  0  0  0  0  0
   -2.8853   -0.5922    5.2621 H   0  0  0  0  0  0  0  0  0  0  0  0
   -1.2944   -0.1435    5.8430 H   0  0  0  0  0  0  0  0  0  0  0  0
   -2.5637    1.0590    5.7483 H   0  0  0  0  0  0  0  0  0  0  0  0
   -2.4435    1.4589    3.1669 N   0  0  0  0  0  0  0  0  0  0  0  0
   -2.1966    1.8850    1.8145 C   0  0  2  0  0  0  0  0  0  0  0  0
   -0.8617    1.2996    1.3733 C   0  0  0  0  0  0  0  0  0  0  0  0
    0.0104    0.9468    2.1646 O   0  0  0  0  0  0  0  0  0  0  0  0
   -2.1879    3.4017    1.7050 C   0  0  0  0  0  0  0  0  0  0  0  0
   -3.2085    1.8948    3.6787 H   0  0  0  0  0  0  0  0  0  0  0  0
   -3.0007    1.4665    1.1994 H   0  0  0  0  0  0  0  0  0  0  0  0
   -1.3888    3.8390    2.3147 H   0  0  0  0  0  0  0  0  0  0  0  0
   -2.0284    3.7240    0.6708 H   0  0  0  0  0  0  0  0  0  0  0  0
   -3.1380    3.8230    2.0508 H   0  0  0  0  0  0  0  0  0  0  0  0
   -0.7390    1.2565   -0.0101 N   0  0  0  0  0  0  0  0  0  0  0  0
    0.4383    0.7557   -0.6738 C   0  0  2  0  0  0  0  0  0  0  0  0
    0.0659    0.5154   -2.1325 C   0  0  0  0  0  0  0  0  0  0  0  0
    0.8824    0.5720   -3.0495 O   0  0  0  0  0  0  0  0  0  0  0  0
    0.9562   -0.5385   -0.0358 C   0  0  0  0  0  0  0  0  0  0  0  0
    1.4197   -0.3430    1.3870 C   0  0  0  0  0  0  0  0  0  0  0  0
    2.6095    0.2770    1.6840 N   0  3  0  0  0  0  0  0  0  0  0  0
    0.8490   -0.6903    2.5789 C   0  0  0  0  0  0  0  0  0  0  0  0
    2.7740    0.3140    3.0103 C   0  0  0  0  0  0  0  0  0  0  0  0
    1.7086   -0.2723    3.5660 N   0  0  0  0  0  0  0  0  0  0  0  0
   -1.5221    1.5532   -0.5874 H   0  0  0  0  0  0  0  0  0  0  0  0
    1.1892    1.5529   -0.6217 H   0  0  0  0  0  0  0  0  0  0  0  0
    1.7747   -0.9577   -0.6367 H   0  0  0  0  0  0  0  0  0  0  0  0
    0.1730   -1.3081   -0.0396 H   0  0  0  0  0  0  0  0  0  0  0  0
    3.2667    0.6501    1.0045 H   0  0  0  0  0  0  0  0  0  0  0  0
   -0.0531   -1.1817    2.8848 H   0  0  0  0  0  0  0  0  0  0  0  0
    3.6131    0.7385    3.5357 H   0  0  0  0  0  0  0  0  0  0  0  0
    1.5605   -0.3897    4.5643 H   0  0  0  0  0  0  0  0  0  0  0  0
   -1.2735    0.1823   -2.2787 N   0  0  0  0  0  0  0  0  0  0  0  0
   -1.8818   -0.1182   -3.5548 C   0  0  2  0  0  0  0  0  0  0  0  0
   -1.5153    0.9973   -4.5248 C   0  0  0  0  0  0  0  0  0  0  0  0
   -1.1804    2.1218   -4.1583 O   0  0  0  0  0  0  0  0  0  0  0  0
   -3.3912   -0.2555   -3.4297 C   0  0  0  0  0  0  0  0  0  0  0  0
   -1.8555    0.1479   -1.4469 H   0  0  0  0  0  0  0  0  0  0  0  0
   -1.4440   -1.0613   -3.8996 H   0  0  0  0  0  0  0  0  0  0  0  0
   -3.8476    0.6797   -3.0853 H   0  0  0  0  0  0  0  0  0  0  0  0
   -3.8474   -0.5113   -4.3917 H   0  0  0  0  0  0  0  0  0  0  0  0
   -3.6529   -1.0381   -2.7093 H   0  0  0  0  0  0  0  0  0  0  0  0
   -1.6477    0.6022   -5.8486 N   0  0  0  0  0  0  0  0  0  0  0  0
   -1.3708    1.4854   -6.9573 C   0  0  0  0  0  0  0  0  0  0  0  0
   -1.9127   -0.3553   -6.0602 H   0  0  0  0  0  0  0  0  0  0  0  0
   -2.2980    1.9915   -7.2640 H   0  0  0  0  0  0  0  0  0  0  0  0
   -0.6275    2.2362   -6.6510 H   0  0  0  0  0  0  0  0  0  0  0  0
   -0.9755    0.9013   -7.8014 H   0  0  0  0  0  0  0  0  0  0  0  0
 22 24  2  0  0  0  0
 24 26  1  0  0  0  0
 25 26  1  0  0  0  0
 23 25  2  0  0  0  0
 21 22  1  0  0  0  0
 22 23  1  0  0  0  0
  1  3  1  0  0  0  0
  1  7  1  0  0  0  0
  1  2  2  0  0  0  0
 36 37  1  0  0  0  0
 37 45  1  0  0  0  0
 37 38  2  0  0  0  0
  8  9  1  0  0  0  0
  9 17  1  0  0  0  0
  9 10  2  0  0  0  0
 18 19  1  0  0  0  0
 19 35  1  0  0  0  0
 19 20  2  0  0  0  0
 36 39  1  0  0  0  0
  8 11  1  0  0  0  0
 45 46  1  0  0  0  0
 18 21  1  0  0  0  0
 35 36  1  0  0  0  0
  7  8  1  0  0  0  0
 17 18  1  0  0  0  0
 24 32  1  0  0  0  0
 25 33  1  0  0  0  0
  3  4  1  0  0  0  0
  3  5  1  0  0  0  0
  3  6  1  0  0  0  0
 39 42  1  0  0  0  0
 39 43  1  0  0  0  0
 39 44  1  0  0  0  0
 11 14  1  0  0  0  0
 11 15  1  0  0  0  0
 11 16  1  0  0  0  0
 46 48  1  0  0  0  0
 46 49  1  0  0  0  0
 46 50  1  0  0  0  0
 21 29  1  0  0  0  0
 21 30  1  0  0  0  0
 36 41  1  0  0  0  0
  8 13  1  0  0  0  0
 18 28  1  0  0  0  0
 26 34  1  0  0  0  0
 23 31  1  0  0  0  0
 45 47  1  0  0  0  0
  7 12  1  0  0  0  0
 35 40  1  0  0  0  0
 17 27  1  0  0  0  0
M  CHG  1  23   1
M  END
$$$$

  -OEChem-05262214473D

 50 50  0     1  0  0  0  0  0999 V2000
   -1.6938    0.4865    3.8080 C   0  0  0  0  0  0  0  0  0  0  0  0
   -0.7464   -0.1282    3.3323 O   0  0  0  0  0  0  0  0  0  0  0  0
   -2.1257    0.2041    5.2087 C   0  0  0  0  0  0  0  0  0  0  0  0
   -2.8853   -0.5922    5.2621 H   0  0  0  0  0  0  0  0  0  0  0  0
   -1.2944   -0.1435    5.8430 H   0  0  0  0  0  0  0  0  0  0  0  0
   -2.5637    1.0590    5.7483 H   0  0  0  0  0  0  0  0  0  0  0  0
   -2.4435    1.4589    3.1669 N   0  0  0  0  0  0  0  0  0  0  0  0
   -2.1966    1.8850    1.8145 C   0  0  2  0  0  0  0  0  0  0  0  0
   -0.8617    1.2996    1.3733 C   0  0  0  0  0  0  0  0  0  0  0  0
    0.0104    0.9468    2.1646 O   0  0  0  0  0  0  0  0  0  0  0  0
   -2.1879    3.4017    1.7050 C   0  0  0  0  0  0  0  0  0  0  0  0
   -3.2085    1.8948    3.6787 H   0  0  0  0  0  0  0  0  0  0  0  0
   -3.0007    1.4665    1.1994 H   0  0  0  0  0  0  0  0  0  0  0  0
   -1.3888    3.8390    2.3147 H   0  0  0  0  0  0  0  0  0  0  0  0
   -2.0284    3.7240    0.6708 H   0  0  0  0  0  0  0  0  0  0  0  0
   -3.1380    3.8230    2.0508 H   0  0  0  0  0  0  0  0  0  0  0  0
   -0.7390    1.2565   -0.0101 N   0  0  0  0  0  0  0  0  0  0  0  0
    0.4383    0.7557   -0.6738 C   0  0  2  0  0  0  0  0  0  0  0  0
    0.0659    0.5154   -2.1325 C   0  0  0  0  0  0  0  0  0  0  0  0
    0.9004    0.3063   -3.0104 O   0  0  0  0  0  0  0  0  0  0  0  0
    0.9562   -0.5385   -0.0358 C   0  0  0  0  0  0  0  0  0  0  0  0
    1.4197   -0.3430    1.3870 C   0  0  0  0  0  0  0  0  0  0  0  0
    2.6095    0.2770    1.6840 N   0  3  0  0  0  0  0  0  0  0  0  0
    0.8490   -0.6903    2.5789 C   0  0  0  0  0  0  0  0  0  0  0  0
    2.7740    0.3140    3.0103 C   0  0  0  0  0  0  0  0  0  0  0  0
    1.7086   -0.2723    3.5660 N   0  0  0  0  0  0  0  0  0  0  0  0
   -1.5221    1.5532   -0.5874 H   0  0  0  0  0  0  0  0  0  0  0  0
    1.1892    1.5529   -0.6217 H   0  0  0  0  0  0  0  0  0  0  0  0
    1.7747   -0.9577   -0.6367 H   0  0  0  0  0  0  0  0  0  0  0  0
    0.1730   -1.3081   -0.0396 H   0  0  0  0  0  0  0  0  0  0  0  0
    3.2667    0.6501    1.0045 H   0  0  0  0  0  0  0  0  0  0  0  0
   -0.0531   -1.1817    2.8848 H   0  0  0  0  0  0  0  0  0  0  0  0
    3.6131    0.7385    3.5357 H   0  0  0  0  0  0  0  0  0  0  0  0
    1.5605   -0.3897    4.5643 H   0  0  0  0  0  0  0  0  0  0  0  0
   -1.3087    0.5133   -2.3242 N   0  0  0  0  0  0  0  0  0  0  0  0
   -1.9305    0.2854   -3.6088 C   0  0  2  0  0  0  0  0  0  0  0  0
   -1.2661    1.2072   -4.6230 C   0  0  0  0  0  0  0  0  0  0  0  0
   -0.6740    2.2369   -4.3065 O   0  0  0  0  0  0  0  0  0  0  0  0
   -3.4298    0.5330   -3.5497 C   0  0  0  0  0  0  0  0  0  0  0  0
   -1.9080    0.6803   -1.5212 H   0  0  0  0  0  0  0  0  0  0  0  0
   -1.7302   -0.7578   -3.8765 H   0  0  0  0  0  0  0  0  0  0  0  0
   -3.6500    1.5731   -3.2829 H   0  0  0  0  0  0  0  0  0  0  0  0
   -3.9035    0.3324   -4.5163 H   0  0  0  0  0  0  0  0  0  0  0  0
   -3.9016   -0.1098   -2.7987 H   0  0  0  0  0  0  0  0  0  0  0  0
   -1.4492    0.7674   -5.9265 N   0  0  0  0  0  0  0  0  0  0  0  0
   -0.9249    1.4773   -7.0698 C   0  0  0  0  0  0  0  0  0  0  0  0
   -1.9371   -0.1075   -6.0948 H   0  0  0  0  0  0  0  0  0  0  0  0
   -1.6863    2.1740   -7.4502 H   0  0  0  0  0  0  0  0  0  0  0  0
   -0.0285    2.0409   -6.7717 H   0  0  0  0  0  0  0  0  0  0  0  0
   -0.6600    0.7575   -7.8583 H   0  0  0  0  0  0  0  0  0  0  0  0
 22 24  2  0  0  0  0
 24 26  1  0  0  0  0
 25 26  1  0  0  0  0
 23 25  2  0  0  0  0
 21 22  1  0  0  0  0
 22 23  1  0  0  0  0
  1  3  1  0  0  0  0
  1  7  1  0  0  0  0
  1  2  2  0  0  0  0
 36 37  1  0  0  0  0
 37 45  1  0  0  0  0
 37 38  2  0  0  0  0
  8  9  1  0  0  0  0
  9 17  1  0  0  0  0
  9 10  2  0  0  0  0
 18 19  1  0  0  0  0
 19 35  1  0  0  0  0
 19 20  2  0  0  0  0
 36 39  1  0  0  0  0
  8 11  1  0  0  0  0
 45 46  1  0  0  0  0
 18 21  1  0  0  0  0
 35 36  1  0  0  0  0
  7  8  1  0  0  0  0
 17 18  1  0  0  0  0
 24 32  1  0  0  0  0
 25 33  1  0  0  0  0
  3  4  1  0  0  0  0
  3  5  1  0  0  0  0
  3  6  1  0  0  0  0
 39 42  1  0  0  0  0
 39 43  1  0  0  0  0
 39 44  1  0  0  0  0
 11 14  1  0  0  0  0
 11 15  1  0  0  0  0
 11 16  1  0  0  0  0
 46 48  1  0  0  0  0
 46 49  1  0  0  0  0
 46 50  1  0  0  0  0
 21 29  1  0  0  0  0
 21 30  1  0  0  0  0
 36 41  1  0  0  0  0
  8 13  1  0  0  0  0
 18 28  1  0  0  0  0
 26 34  1  0  0  0  0
 23 31  1  0  0  0  0
 45 47  1  0  0  0  0
  7 12  1  0  0  0  0
 35 40  1  0  0  0  0
 17 27  1  0  0  0  0
M  CHG  1  23   1
M  END
$$$$

  -OEChem-05262214473D

 50 50  0     1  0  0  0  0  0999 V2000
   -1.6938    0.4865    3.8080 C   0  0  0  0  0  0  0  0  0  0  0  0
   -0.7464   -0.1282    3.3323 O   0  0  0  0  0  0  0  0  0  0  0  0
   -2.1257    0.2041    5.2087 C   0  0  0  0  0  0  0  0  0  0  0  0
   -2.8853   -0.5922    5.2621 H   0  0  0  0  0  0  0  0  0  0  0  0
   -1.2944   -0.1435    5.8430 H   0  0  0  0  0  0  0  0  0  0  0  0
   -2.5637    1.0590    5.7483 H   0  0  0  0  0  0  0  0  0  0  0  0
   -2.4435    1.4589    3.1669 N   0  0  0  0  0  0  0  0  0  0  0  0
   -2.1966    1.8850    1.8145 C   0  0  2  0  0  0  0  0  0  0  0  0
   -0.8617    1.2996    1.3733 C   0  0  0  0  0  0  0  0  0  0  0  0
    0.0104    0.9468    2.1646 O   0  0  0  0  0  0  0  0  0  0  0  0
   -2.1879    3.4017    1.7050 C   0  0  0  0  0  0  0  0  0  0  0  0
   -3.2085    1.8948    3.6787 H   0  0  0  0  0  0  0  0  0  0  0  0
   -3.0007    1.4665    1.1994 H   0  0  0  0  0  0  0  0  0  0  0  0
   -1.3888    3.8390    2.3147 H   0  0  0  0  0  0  0  0  0  0  0  0
   -2.0284    3.7240    0.6708 H   0  0  0  0  0  0  0  0  0  0  0  0
   -3.1380    3.8230    2.0508 H   0  0  0  0  0  0  0  0  0  0  0  0
   -0.7390    1.2565   -0.0101 N   0  0  0  0  0  0  0  0  0  0  0  0
    0.4383    0.7557   -0.6738 C   0  0  2  0  0  0  0  0  0  0  0  0
    0.0659    0.5154   -2.1325 C   0  0  0  0  0  0  0  0  0  0  0  0
    0.8504    0.0477   -2.9550 O   0  0  0  0  0  0  0  0  0  0  0  0
    0.9562   -0.5385   -0.0358 C   0  0  0  0  0  0  0  0  0  0  0  0
    1.4197   -0.3430    1.3870 C   0  0  0  0  0  0  0  0  0  0  0  0
    2.6095    0.2770    1.6840 N   0  3  0  0  0  0  0  0  0  0  0  0
    0.8490   -0.6903    2.5789 C   0  0  0  0  0  0  0  0  0  0  0  0
    2.7740    0.3140    3.0103 C   0  0  0  0  0  0  0  0  0  0  0  0
    1.7086   -0.2723    3.5660 N   0  0  0  0  0  0  0  0  0  0  0  0
   -1.5221    1.5532   -0.5874 H   0  0  0  0  0  0  0  0  0  0  0  0
    1.1892    1.5529   -0.6217 H   0  0  0  0  0  0  0  0  0  0  0  0
    1.7747   -0.9577   -0.6367 H   0  0  0  0  0  0  0  0  0  0  0  0
    0.1730   -1.3081   -0.0396 H   0  0  0  0  0  0  0  0  0  0  0  0
    3.2667    0.6501    1.0045 H   0  0  0  0  0  0  0  0  0  0  0  0
   -0.0531   -1.1817    2.8848 H   0  0  0  0  0  0  0  0  0  0  0  0
    3.6131    0.7385    3.5357 H   0  0  0  0  0  0  0  0  0  0  0  0
    1.5605   -0.3897    4.5643 H   0  0  0  0  0  0  0  0  0  0  0  0
   -1.2589    0.8389   -2.3905 N   0  0  0  0  0  0  0  0  0  0  0  0
   -1.8753    0.6839   -3.6886 C   0  0  2  0  0  0  0  0  0  0  0  0
   -0.9695    1.3421   -4.7209 C   0  0  0  0  0  0  0  0  0  0  0  0
   -0.1504    2.2134   -4.4363 O   0  0  0  0  0  0  0  0  0  0  0  0
   -3.2669    1.2966   -3.7171 C   0  0  0  0  0  0  0  0  0  0  0  0
   -1.8238    1.2028   -1.6288 H   0  0  0  0  0  0  0  0  0  0  0  0
   -1.9323   -0.3923   -3.8851 H   0  0  0  0  0  0  0  0  0  0  0  0
   -3.2299    2.3746   -3.5222 H   0  0  0  0  0  0  0  0  0  0  0  0
   -3.7436    1.1533   -4.6923 H   0  0  0  0  0  0  0  0  0  0  0  0
   -3.9083    0.8427   -2.9539 H   0  0  0  0  0  0  0  0  0  0  0  0
   -1.2134    0.8728   -6.0041 N   0  0  0  0  0  0  0  0  0  0  0  0
   -0.4916    1.3519   -7.1597 C   0  0  0  0  0  0  0  0  0  0  0  0
   -1.8979    0.1357   -6.1448 H   0  0  0  0  0  0  0  0  0  0  0  0
   -1.0427    2.1870   -7.6167 H   0  0  0  0  0  0  0  0  0  0  0  0
    0.5066    1.6964   -6.8516 H   0  0  0  0  0  0  0  0  0  0  0  0
   -0.3885    0.5368   -7.8912 H   0  0  0  0  0  0  0  0  0  0  0  0
 22 24  2  0  0  0  0
 24 26  1  0  0  0  0
 25 26  1  0  0  0  0
 23 25  2  0  0  0  0
 21 22  1  0  0  0  0
 22 23  1  0  0  0  0
  1  3  1  0  0  0  0
  1  7  1  0  0  0  0
  1  2  2  0  0  0  0
 36 37  1  0  0  0  0
 37 45  1  0  0  0  0
 37 38  2  0  0  0  0
  8  9  1  0  0  0  0
  9 17  1  0  0  0  0
  9 10  2  0  0  0  0
 18 19  1  0  0  0  0
 19 35  1  0  0  0  0
 19 20  2  0  0  0  0
 36 39  1  0  0  0  0
  8 11  1  0  0  0  0
 45 46  1  0  0  0  0
 18 21  1  0  0  0  0
 35 36  1  0  0  0  0
  7  8  1  0  0  0  0
 17 18  1  0  0  0  0
 24 32  1  0  0  0  0
 25 33  1  0  0  0  0
  3  4  1  0  0  0  0
  3  5  1  0  0  0  0
  3  6  1  0  0  0  0
 39 42  1  0  0  0  0
 39 43  1  0  0  0  0
 39 44  1  0  0  0  0
 11 14  1  0  0  0  0
 11 15  1  0  0  0  0
 11 16  1  0  0  0  0
 46 48  1  0  0  0  0
 46 49  1  0  0  0  0
 46 50  1  0  0  0  0
 21 29  1  0  0  0  0
 21 30  1  0  0  0  0
 36 41  1  0  0  0  0
  8 13  1  0  0  0  0
 18 28  1  0  0  0  0
 26 34  1  0  0  0  0
 23 31  1  0  0  0  0
 45 47  1  0  0  0  0
  7 12  1  0  0  0  0
 35 40  1  0  0  0  0
 17 27  1  0  0  0  0
M  CHG  1  23   1
M  END
$$$$

  -OEChem-05262214473D

 50 50  0     1  0  0  0  0  0999 V2000
   -1.6938    0.4865    3.8080 C   0  0  0  0  0  0  0  0  0  0  0  0
   -0.7464   -0.1282    3.3323 O   0  0  0  0  0  0  0  0  0  0  0  0
   -2.1257    0.2041    5.2087 C   0  0  0  0  0  0  0  0  0  0  0  0
   -2.8853   -0.5922    5.2621 H   0  0  0  0  0  0  0  0  0  0  0  0
   -1.2944   -0.1435    5.8430 H   0  0  0  0  0  0  0  0  0  0  0  0
   -2.5637    1.0590    5.7483 H   0  0  0  0  0  0  0  0  0  0  0  0
   -2.4435    1.4589    3.1669 N   0  0  0  0  0  0  0  0  0  0  0  0
   -2.1966    1.8850    1.8145 C   0  0  2  0  0  0  0  0  0  0  0  0
   -0.8617    1.2996    1.3733 C   0  0  0  0  0  0  0  0  0  0  0  0
    0.0104    0.9468    2.1646 O   0  0  0  0  0  0  0  0  0  0  0  0
   -2.1879    3.4017    1.7050 C   0  0  0  0  0  0  0  0  0  0  0  0
   -3.2085    1.8948    3.6787 H   0  0  0  0  0  0  0  0  0  0  0  0
   -3.0007    1.4665    1.1994 H   0  0  0  0  0  0  0  0  0  0  0  0
   -1.3888    3.8390    2.3147 H   0  0  0  0  0  0  0  0  0  0  0  0
   -2.0284    3.7240    0.6708 H   0  0  0  0  0  0  0  0  0  0  0  0
   -3.1380    3.8230    2.0508 H   0  0  0  0  0  0  0  0  0  0  0  0
   -0.7390    1.2565   -0.0101 N   0  0  0  0  0  0  0  0  0  0  0  0
    0.4383    0.7557   -0.6738 C   0  0  2  0  0  0  0  0  0  0  0  0
    0.0659    0.5154   -2.1325 C   0  0  0  0  0  0  0  0  0  0  0  0
    0.7359   -0.1863   -2.8872 O   0  0  0  0  0  0  0  0  0  0  0  0
    0.9562   -0.5385   -0.0358 C   0  0  0  0  0  0  0  0  0  0  0  0
    1.4197   -0.3430    1.3870 C   0  0  0  0  0  0  0  0  0  0  0  0
    2.6095    0.2770    1.6840 N   0  3  0  0  0  0  0  0  0  0  0  0
    0.8490   -0.6903    2.5789 C   0  0  0  0  0  0  0  0  0  0  0  0
    2.7740    0.3140    3.0103 C   0  0  0  0  0  0  0  0  0  0  0  0
    1.7086   -0.2723    3.5660 N   0  0  0  0  0  0  0  0  0  0  0  0
   -1.5221    1.5532   -0.5874 H   0  0  0  0  0  0  0  0  0  0  0  0
    1.1892    1.5529   -0.6217 H   0  0  0  0  0  0  0  0  0  0  0  0
    1.7747   -0.9577   -0.6367 H   0  0  0  0  0  0  0  0  0  0  0  0
    0.1730   -1.3081   -0.0396 H   0  0  0  0  0  0  0  0  0  0  0  0
    3.2667    0.6501    1.0045 H   0  0  0  0  0  0  0  0  0  0  0  0
   -0.0531   -1.1817    2.8848 H   0  0  0  0  0  0  0  0  0  0  0  0
    3.6131    0.7385    3.5357 H   0  0  0  0  0  0  0  0  0  0  0  0
    1.5605   -0.3897    4.5643 H   0  0  0  0  0  0  0  0  0  0  0  0
   -1.1275    1.1368   -2.4732 N   0  0  0  0  0  0  0  0  0  0  0  0
   -1.7201    1.0501   -3.7885 C   0  0  2  0  0  0  0  0  0  0  0  0
   -0.6455    1.3927   -4.8120 C   0  0  0  0  0  0  0  0  0  0  0  0
    0.3549    2.0528   -4.5388 O   0  0  0  0  0  0  0  0  0  0  0  0
   -2.9136    1.9833   -3.9204 C   0  0  0  0  0  0  0  0  0  0  0  0
   -1.6086    1.6799   -1.7623 H   0  0  0  0  0  0  0  0  0  0  0  0
   -2.0367    0.0103   -3.9248 H   0  0  0  0  0  0  0  0  0  0  0  0
   -2.6158    3.0297   -3.7868 H   0  0  0  0  0  0  0  0  0  0  0  0
   -3.3787    1.8955   -4.9078 H   0  0  0  0  0  0  0  0  0  0  0  0
   -3.6725    1.7547   -3.1643 H   0  0  0  0  0  0  0  0  0  0  0  0
   -0.9563    0.9114   -6.0761 N   0  0  0  0  0  0  0  0  0  0  0  0
   -0.1005    1.1177   -7.2210 C   0  0  0  0  0  0  0  0  0  0  0  0
   -1.7978    0.3578   -6.2070 H   0  0  0  0  0  0  0  0  0  0  0  0
   -0.4110    2.0296   -7.7520 H   0  0  0  0  0  0  0  0  0  0  0  0
    0.9414    1.2260   -6.8851 H   0  0  0  0  0  0  0  0  0  0  0  0
   -0.1796    0.2544   -7.8981 H   0  0  0  0  0  0  0  0  0  0  0  0
 22 24  2  0  0  0  0
 24 26  1  0  0  0  0
 25 26  1  0  0  0  0
 23 25  2  0  0  0  0
 21 22  1  0  0  0  0
 22 23  1  0  0  0  0
  1  3  1  0  0  0  0
  1  7  1  0  0  0  0
  1  2  2  0  0  0  0
 36 37  1  0  0  0  0
 37 45  1  0  0  0  0
 37 38  2  0  0  0  0
  8  9  1  0  0  0  0
  9 17  1  0  0  0  0
  9 10  2  0  0  0  0
 18 19  1  0  0  0  0
 19 35  1  0  0  0  0
 19 20  2  0  0  0  0
 36 39  1  0  0  0  0
  8 11  1  0  0  0  0
 45 46  1  0  0  0  0
 18 21  1  0  0  0  0
 35 36  1  0  0  0  0
  7  8  1  0  0  0  0
 17 18  1  0  0  0  0
 24 32  1  0  0  0  0
 25 33  1  0  0  0  0
  3  4  1  0  0  0  0
  3  5  1  0  0  0  0
  3  6  1  0  0  0  0
 39 42  1  0  0  0  0
 39 43  1  0  0  0  0
 39 44  1  0  0  0  0
 11 14  1  0  0  0  0
 11 15  1  0  0  0  0
 11 16  1  0  0  0  0
 46 48  1  0  0  0  0
 46 49  1  0  0  0  0
 46 50  1  0  0  0  0
 21 29  1  0  0  0  0
 21 30  1  0  0  0  0
 36 41  1  0  0  0  0
  8 13  1  0  0  0  0
 18 28  1  0  0  0  0
 26 34  1  0  0  0  0
 23 31  1  0  0  0  0
 45 47  1  0  0  0  0
  7 12  1  0  0  0  0
 35 40  1  0  0  0  0
 17 27  1  0  0  0  0
M  CHG  1  23   1
M  END
$$$$

  -OEChem-05262214473D

 50 50  0     1  0  0  0  0  0999 V2000
   -1.6938    0.4865    3.8080 C   0  0  0  0  0  0  0  0  0  0  0  0
   -0.7464   -0.1282    3.3323 O   0  0  0  0  0  0  0  0  0  0  0  0
   -2.1257    0.2041    5.2087 C   0  0  0  0  0  0  0  0  0  0  0  0
   -2.8853   -0.5922    5.2621 H   0  0  0  0  0  0  0  0  0  0  0  0
   -1.2944   -0.1435    5.8430 H   0  0  0  0  0  0  0  0  0  0  0  0
   -2.5637    1.0590    5.7483 H   0  0  0  0  0  0  0  0  0  0  0  0
   -2.4435    1.4589    3.1669 N   0  0  0  0  0  0  0  0  0  0  0  0
   -2.1966    1.8850    1.8145 C   0  0  2  0  0  0  0  0  0  0  0  0
   -0.8617    1.2996    1.3733 C   0  0  0  0  0  0  0  0  0  0  0  0
    0.0104    0.9468    2.1646 O   0  0  0  0  0  0  0  0  0  0  0  0
   -2.1879    3.4017    1.7050 C   0  0  0  0  0  0  0  0  0  0  0  0
   -3.2085    1.8948    3.6787 H   0  0  0  0  0  0  0  0  0  0  0  0
   -3.0007    1.4665    1.1994 H   0  0  0  0  0  0  0  0  0  0  0  0
   -1.3888    3.8390    2.3147 H   0  0  0  0  0  0  0  0  0  0  0  0
   -2.0284    3.7240    0.6708 H   0  0  0  0  0  0  0  0  0  0  0  0
   -3.1380    3.8230    2.0508 H   0  0  0  0  0  0  0  0  0  0  0  0
   -0.7390    1.2565   -0.0101 N   0  0  0  0  0  0  0  0  0  0  0  0
    0.4383    0.7557   -0.6738 C   0  0  2  0  0  0  0  0  0  0  0  0
    0.0659    0.5154   -2.1325 C   0  0  0  0  0  0  0  0  0  0  0  0
    0.5645   -0.3796   -2.8116 O   0  0  0  0  0  0  0  0  0  0  0  0
    0.9562   -0.5385   -0.0358 C   0  0  0  0  0  0  0  0  0  0  0  0
    1.4197   -0.3430    1.3870 C   0  0  0  0  0  0  0  0  0  0  0  0
    2.6095    0.2770    1.6840 N   0  3  0  0  0  0  0  0  0  0  0  0
    0.8490   -0.6903    2.5789 C   0  0  0  0  0  0  0  0  0  0  0  0
    2.7740    0.3140    3.0103 C   0  0  0  0  0  0  0  0  0  0  0  0
    1.7086   -0.2723    3.5660 N   0  0  0  0  0  0  0  0  0  0  0  0
   -1.5221    1.5532   -0.5874 H   0  0  0  0  0  0  0  0  0  0  0  0
    1.1892    1.5529   -0.6217 H   0  0  0  0  0  0  0  0  0  0  0  0
    1.7747   -0.9577   -0.6367 H   0  0  0  0  0  0  0  0  0  0  0  0
    0.1730   -1.3081   -0.0396 H   0  0  0  0  0  0  0  0  0  0  0  0
    3.2667    0.6501    1.0045 H   0  0  0  0  0  0  0  0  0  0  0  0
   -0.0531   -1.1817    2.8848 H   0  0  0  0  0  0  0  0  0  0  0  0
    3.6131    0.7385    3.5357 H   0  0  0  0  0  0  0  0  0  0  0  0
    1.5605   -0.3897    4.5643 H   0  0  0  0  0  0  0  0  0  0  0  0
   -0.9234    1.3869   -2.5665 N   0  0  0  0  0  0  0  0  0  0  0  0
   -1.4754    1.3591   -3.9019 C   0  0  2  0  0  0  0  0  0  0  0  0
   -0.3163    1.3556   -4.8899 C   0  0  0  0  0  0  0  0  0  0  0  0
    0.8074    1.7660   -4.6071 O   0  0  0  0  0  0  0  0  0  0  0  0
   -2.3940    2.5462   -4.1457 C   0  0  0  0  0  0  0  0  0  0  0  0
   -1.2772    2.0790   -1.9126 H   0  0  0  0  0  0  0  0  0  0  0  0
   -2.0363    0.4225   -3.9928 H   0  0  0  0  0  0  0  0  0  0  0  0
   -1.8496    3.4937   -4.0588 H   0  0  0  0  0  0  0  0  0  0  0  0
   -2.8337    2.5084   -5.1479 H   0  0  0  0  0  0  0  0  0  0  0  0
   -3.2103    2.5638   -3.4156 H   0  0  0  0  0  0  0  0  0  0  0  0
   -0.6955    0.8805   -6.1375 N   0  0  0  0  0  0  0  0  0  0  0  0
    0.2219    0.7909   -7.2495 C   0  0  0  0  0  0  0  0  0  0  0  0
   -1.6436    0.5436   -6.2769 H   0  0  0  0  0  0  0  0  0  0  0  0
    0.1657    1.7127   -7.8471 H   0  0  0  0  0  0  0  0  0  0  0  0
    1.2462    0.6618   -6.8700 H   0  0  0  0  0  0  0  0  0  0  0  0
   -0.0474   -0.0706   -7.8783 H   0  0  0  0  0  0  0  0  0  0  0  0
 22 24  2  0  0  0  0
 24 26  1  0  0  0  0
 25 26  1  0  0  0  0
 23 25  2  0  0  0  0
 21 22  1  0  0  0  0
 22 23  1  0  0  0  0
  1  3  1  0  0  0  0
  1  7  1  0  0  0  0
  1  2  2  0  0  0  0
 36 37  1  0  0  0  0
 37 45  1  0  0  0  0
 37 38  2  0  0  0  0
  8  9  1  0  0  0  0
  9 17  1  0  0  0  0
  9 10  2  0  0  0  0
 18 19  1  0  0  0  0
 19 35  1  0  0  0  0
 19 20  2  0  0  0  0
 36 39  1  0  0  0  0
  8 11  1  0  0  0  0
 45 46  1  0  0  0  0
 18 21  1  0  0  0  0
 35 36  1  0  0  0  0
  7  8  1  0  0  0  0
 17 18  1  0  0  0  0
 24 32  1  0  0  0  0
 25 33  1  0  0  0  0
  3  4  1  0  0  0  0
  3  5  1  0  0  0  0
  3  6  1  0  0  0  0
 39 42  1  0  0  0  0
 39 43  1  0  0  0  0
 39 44  1  0  0  0  0
 11 14  1  0  0  0  0
 11 15  1  0  0  0  0
 11 16  1  0  0  0  0
 46 48  1  0  0  0  0
 46 49  1  0  0  0  0
 46 50  1  0  0  0  0
 21 29  1  0  0  0  0
 21 30  1  0  0  0  0
 36 41  1  0  0  0  0
  8 13  1  0  0  0  0
 18 28  1  0  0  0  0
 26 34  1  0  0  0  0
 23 31  1  0  0  0  0
 45 47  1  0  0  0  0
  7 12  1  0  0  0  0
 35 40  1  0  0  0  0
 17 27  1  0  0  0  0
M  CHG  1  23   1
M  END
$$$$

  -OEChem-05262214473D

 50 50  0     1  0  0  0  0  0999 V2000
   -1.6938    0.4865    3.8080 C   0  0  0  0  0  0  0  0  0  0  0  0
   -0.7464   -0.1282    3.3323 O   0  0  0  0  0  0  0  0  0  0  0  0
   -2.1257    0.2041    5.2087 C   0  0  0  0  0  0  0  0  0  0  0  0
   -2.8853   -0.5922    5.2621 H   0  0  0  0  0  0  0  0  0  0  0  0
   -1.2944   -0.1435    5.8430 H   0  0  0  0  0  0  0  0  0  0  0  0
   -2.5637    1.0590    5.7483 H   0  0  0  0  0  0  0  0  0  0  0  0
   -2.4435    1.4589    3.1669 N   0  0  0  0  0  0  0  0  0  0  0  0
   -2.1966    1.8850    1.8145 C   0  0  2  0  0  0  0  0  0  0  0  0
   -0.8617    1.2996    1.3733 C   0  0  0  0  0  0  0  0  0  0  0  0
    0.0104    0.9468    2.1646 O   0  0  0  0  0  0  0  0  0  0  0  0
   -2.1879    3.4017    1.7050 C   0  0  0  0  0  0  0  0  0  0  0  0
   -3.2085    1.8948    3.6787 H   0  0  0  0  0  0  0  0  0  0  0  0
   -3.0007    1.4665    1.1994 H   0  0  0  0  0  0  0  0  0  0  0  0
   -1.3888    3.8390    2.3147 H   0  0  0  0  0  0  0  0  0  0  0  0
   -2.0284    3.7240    0.6708 H   0  0  0  0  0  0  0  0  0  0  0  0
   -3.1380    3.8230    2.0508 H   0  0  0  0  0  0  0  0  0  0  0  0
   -0.7390    1.2565   -0.0101 N   0  0  0  0  0  0  0  0  0  0  0  0
    0.4383    0.7557   -0.6738 C   0  0  2  0  0  0  0  0  0  0  0  0
    0.0659    0.5154   -2.1325 C   0  0  0  0  0  0  0  0  0  0  0  0
    0.3480   -0.5191   -2.7334 O   0  0  0  0  0  0  0  0  0  0  0  0
    0.9562   -0.5385   -0.0358 C   0  0  0  0  0  0  0  0  0  0  0  0
    1.4197   -0.3430    1.3870 C   0  0  0  0  0  0  0  0  0  0  0  0
    2.6095    0.2770    1.6840 N   0  3  0  0  0  0  0  0  0  0  0  0
    0.8490   -0.6903    2.5789 C   0  0  0  0  0  0  0  0  0  0  0  0
    2.7740    0.3140    3.0103 C   0  0  0  0  0  0  0  0  0  0  0  0
    1.7086   -0.2723    3.5660 N   0  0  0  0  0  0  0  0  0  0  0  0
   -1.5221    1.5532   -0.5874 H   0  0  0  0  0  0  0  0  0  0  0  0
    1.1892    1.5529   -0.6217 H   0  0  0  0  0  0  0  0  0  0  0  0
    1.7747   -0.9577   -0.6367 H   0  0  0  0  0  0  0  0  0  0  0  0
    0.1730   -1.3081   -0.0396 H   0  0  0  0  0  0  0  0  0  0  0  0
    3.2667    0.6501    1.0045 H   0  0  0  0  0  0  0  0  0  0  0  0
   -0.0531   -1.1817    2.8848 H   0  0  0  0  0  0  0  0  0  0  0  0
    3.6131    0.7385    3.5357 H   0  0  0  0  0  0  0  0  0  0  0  0
    1.5605   -0.3897    4.5643 H   0  0  0  0  0  0  0  0  0  0  0  0
   -0.6605    1.5719   -2.6641 N   0  0  0  0  0  0  0  0  0  0  0  0
   -1.1579    1.5897   -4.0209 C   0  0  2  0  0  0  0  0  0  0  0  0
   -0.0044    1.2334   -4.9494 C   0  0  0  0  0  0  0  0  0  0  0  0
    1.1762    1.3726   -4.6365 O   0  0  0  0  0  0  0  0  0  0  0  0
   -1.7435    2.9471   -4.3778 C   0  0  0  0  0  0  0  0  0  0  0  0
   -0.8521    2.3729   -2.0696 H   0  0  0  0  0  0  0  0  0  0  0  0
   -1.9310    0.8163   -4.0845 H   0  0  0  0  0  0  0  0  0  0  0  0
   -0.9836    3.7349   -4.3197 H   0  0  0  0  0  0  0  0  0  0  0  0
   -2.1456    2.9503   -5.3963 H   0  0  0  0  0  0  0  0  0  0  0  0
   -2.5532    3.2151   -3.6906 H   0  0  0  0  0  0  0  0  0  0  0  0
   -0.4488    0.7822   -6.1843 N   0  0  0  0  0  0  0  0  0  0  0  0
    0.4534    0.3935   -7.2431 C   0  0  0  0  0  0  0  0  0  0  0  0
   -1.4457    0.6805   -6.3500 H   0  0  0  0  0  0  0  0  0  0  0  0
    0.6482    1.2576   -7.8953 H   0  0  0  0  0  0  0  0  0  0  0  0
    1.4004    0.0424   -6.8073 H   0  0  0  0  0  0  0  0  0  0  0  0
   -0.0011   -0.4160   -7.8332 H   0  0  0  0  0  0  0  0  0  0  0  0
 22 24  2  0  0  0  0
 24 26  1  0  0  0  0
 25 26  1  0  0  0  0
 23 25  2  0  0  0  0
 21 22  1  0  0  0  0
 22 23  1  0  0  0  0
  1  3  1  0  0  0  0
  1  7  1  0  0  0  0
  1  2  2  0  0  0  0
 36 37  1  0  0  0  0
 37 45  1  0  0  0  0
 37 38  2  0  0  0  0
  8  9  1  0  0  0  0
  9 17  1  0  0  0  0
  9 10  2  0  0  0  0
 18 19  1  0  0  0  0
 19 35  1  0  0  0  0
 19 20  2  0  0  0  0
 36 39  1  0  0  0  0
  8 11  1  0  0  0  0
 45 46  1  0  0  0  0
 18 21  1  0  0  0  0
 35 36  1  0  0  0  0
  7  8  1  0  0  0  0
 17 18  1  0  0  0  0
 24 32  1  0  0  0  0
 25 33  1  0  0  0  0
  3  4  1  0  0  0  0
  3  5  1  0  0  0  0
  3  6  1  0  0  0  0
 39 42  1  0  0  0  0
 39 43  1  0  0  0  0
 39 44  1  0  0  0  0
 11 14  1  0  0  0  0
 11 15  1  0  0  0  0
 11 16  1  0  0  0  0
 46 48  1  0  0  0  0
 46 49  1  0  0  0  0
 46 50  1  0  0  0  0
 21 29  1  0  0  0  0
 21 30  1  0  0  0  0
 36 41  1  0  0  0  0
  8 13  1  0  0  0  0
 18 28  1  0  0  0  0
 26 34  1  0  0  0  0
 23 31  1  0  0  0  0
 45 47  1  0  0  0  0
  7 12  1  0  0  0  0
 35 40  1  0  0  0  0
 17 27  1  0  0  0  0
M  CHG  1  23   1
M  END
$$$$

  -OEChem-05262214473D

 50 50  0     1  0  0  0  0  0999 V2000
   -1.6938    0.4865    3.8080 C   0  0  0  0  0  0  0  0  0  0  0  0
   -0.7464   -0.1282    3.3323 O   0  0  0  0  0  0  0  0  0  0  0  0
   -2.1257    0.2041    5.2087 C   0  0  0  0  0  0  0  0  0  0  0  0
   -2.8853   -0.5922    5.2621 H   0  0  0  0  0  0  0  0  0  0  0  0
   -1.2944   -0.1435    5.8430 H   0  0  0  0  0  0  0  0  0  0  0  0
   -2.5637    1.0590    5.7483 H   0  0  0  0  0  0  0  0  0  0  0  0
   -2.4435    1.4589    3.1669 N   0  0  0  0  0  0  0  0  0  0  0  0
   -2.1966    1.8850    1.8145 C   0  0  2  0  0  0  0  0  0  0  0  0
   -0.8617    1.2996    1.3733 C   0  0  0  0  0  0  0  0  0  0  0  0
    0.0104    0.9468    2.1646 O   0  0  0  0  0  0  0  0  0  0  0  0
   -2.1879    3.4017    1.7050 C   0  0  0  0  0  0  0  0  0  0  0  0
   -3.2085    1.8948    3.6787 H   0  0  0  0  0  0  0  0  0  0  0  0
   -3.0007    1.4665    1.1994 H   0  0  0  0  0  0  0  0  0  0  0  0
   -1.3888    3.8390    2.3147 H   0  0  0  0  0  0  0  0  0  0  0  0
   -2.0284    3.7240    0.6708 H   0  0  0  0  0  0  0  0  0  0  0  0
   -3.1380    3.8230    2.0508 H   0  0  0  0  0  0  0  0  0  0  0  0
   -0.7390    1.2565   -0.0101 N   0  0  0  0  0  0  0  0  0  0  0  0
    0.4383    0.7557   -0.6738 C   0  0  2  0  0  0  0  0  0  0  0  0
    0.0659    0.5154   -2.1325 C   0  0  0  0  0  0  0  0  0  0  0  0
    0.1011   -0.5953   -2.6578 O   0  0  0  0  0  0  0  0  0  0  0  0
    0.9562   -0.5385   -0.0358 C   0  0  0  0  0  0  0  0  0  0  0  0
    1.4197   -0.3430    1.3870 C   0  0  0  0  0  0  0  0  0  0  0  0
    2.6095    0.2770    1.6840 N   0  3  0  0  0  0  0  0  0  0  0  0
    0.8490   -0.6903    2.5789 C   0  0  0  0  0  0  0  0  0  0  0  0
    2.7740    0.3140    3.0103 C   0  0  0  0  0  0  0  0  0  0  0  0
    1.7086   -0.2723    3.5660 N   0  0  0  0  0  0  0  0  0  0  0  0
   -1.5221    1.5532   -0.5874 H   0  0  0  0  0  0  0  0  0  0  0  0
    1.1892    1.5529   -0.6217 H   0  0  0  0  0  0  0  0  0  0  0  0
    1.7747   -0.9577   -0.6367 H   0  0  0  0  0  0  0  0  0  0  0  0
    0.1730   -1.3081   -0.0396 H   0  0  0  0  0  0  0  0  0  0  0  0
    3.2667    0.6501    1.0045 H   0  0  0  0  0  0  0  0  0  0  0  0
   -0.0531   -1.1817    2.8848 H   0  0  0  0  0  0  0  0  0  0  0  0
    3.6131    0.7385    3.5357 H   0  0  0  0  0  0  0  0  0  0  0  0
    1.5605   -0.3897    4.5643 H   0  0  0  0  0  0  0  0  0  0  0  0
   -0.3567    1.6794   -2.7593 N   0  0  0  0  0  0  0  0  0  0  0  0
   -0.7892    1.7264   -4.1376 C   0  0  2  0  0  0  0  0  0  0  0  0
    0.2691    1.0343   -4.9864 C   0  0  0  0  0  0  0  0  0  0  0  0
    1.4362    0.8995   -4.6249 O   0  0  0  0  0  0  0  0  0  0  0  0
   -1.0064    3.1585   -4.6008 C   0  0  0  0  0  0  0  0  0  0  0  0
   -0.3624    2.5416   -2.2224 H   0  0  0  0  0  0  0  0  0  0  0  0
   -1.7280    1.1647   -4.1937 H   0  0  0  0  0  0  0  0  0  0  0  0
   -0.0766    3.7369   -4.5515 H   0  0  0  0  0  0  0  0  0  0  0  0
   -1.3614    3.1911   -5.6362 H   0  0  0  0  0  0  0  0  0  0  0  0
   -1.7461    3.6640   -3.9706 H   0  0  0  0  0  0  0  0  0  0  0  0
   -0.2329    0.6231   -6.2133 N   0  0  0  0  0  0  0  0  0  0  0  0
    0.5784   -0.0473   -7.2024 C   0  0  0  0  0  0  0  0  0  0  0  0
   -1.2178    0.7591   -6.4211 H   0  0  0  0  0  0  0  0  0  0  0  0
    1.0035    0.6956   -7.8934 H   0  0  0  0  0  0  0  0  0  0  0  0
    1.3933   -0.5902   -6.7013 H   0  0  0  0  0  0  0  0  0  0  0  0
   -0.0437   -0.7582   -7.7660 H   0  0  0  0  0  0  0  0  0  0  0  0
 22 24  2  0  0  0  0
 24 26  1  0  0  0  0
 25 26  1  0  0  0  0
 23 25  2  0  0  0  0
 21 22  1  0  0  0  0
 22 23  1  0  0  0  0
  1  3  1  0  0  0  0
  1  7  1  0  0  0  0
  1  2  2  0  0  0  0
 36 37  1  0  0  0  0
 37 45  1  0  0  0  0
 37 38  2  0  0  0  0
  8  9  1  0  0  0  0
  9 17  1  0  0  0  0
  9 10  2  0  0  0  0
 18 19  1  0  0  0  0
 19 35  1  0  0  0  0
 19 20  2  0  0  0  0
 36 39  1  0  0  0  0
  8 11  1  0  0  0  0
 45 46  1  0  0  0  0
 18 21  1  0  0  0  0
 35 36  1  0  0  0  0
  7  8  1  0  0  0  0
 17 18  1  0  0  0  0
 24 32  1  0  0  0  0
 25 33  1  0  0  0  0
  3  4  1  0  0  0  0
  3  5  1  0  0  0  0
  3  6  1  0  0  0  0
 39 42  1  0  0  0  0
 39 43  1  0  0  0  0
 39 44  1  0  0  0  0
 11 14  1  0  0  0  0
 11 15  1  0  0  0  0
 11 16  1  0  0  0  0
 46 48  1  0  0  0  0
 46 49  1  0  0  0  0
 46 50  1  0  0  0  0
 21 29  1  0  0  0  0
 21 30  1  0  0  0  0
 36 41  1  0  0  0  0
  8 13  1  0  0  0  0
 18 28  1  0  0  0  0
 26 34  1  0  0  0  0
 23 31  1  0  0  0  0
 45 47  1  0  0  0  0
  7 12  1  0  0  0  0
 35 40  1  0  0  0  0
 17 27  1  0  0  0  0
M  CHG  1  23   1
M  END
$$$$

  -OEChem-05262214473D

 50 50  0     1  0  0  0  0  0999 V2000
   -1.6938    0.4865    3.8080 C   0  0  0  0  0  0  0  0  0  0  0  0
   -0.7464   -0.1282    3.3323 O   0  0  0  0  0  0  0  0  0  0  0  0
   -2.1257    0.2041    5.2087 C   0  0  0  0  0  0  0  0  0  0  0  0
   -2.8853   -0.5922    5.2621 H   0  0  0  0  0  0  0  0  0  0  0  0
   -1.2944   -0.1435    5.8430 H   0  0  0  0  0  0  0  0  0  0  0  0
   -2.5637    1.0590    5.7483 H   0  0  0  0  0  0  0  0  0  0  0  0
   -2.4435    1.4589    3.1669 N   0  0  0  0  0  0  0  0  0  0  0  0
   -2.1966    1.8850    1.8145 C   0  0  2  0  0  0  0  0  0  0  0  0
   -0.8617    1.2996    1.3733 C   0  0  0  0  0  0  0  0  0  0  0  0
    0.0104    0.9468    2.1646 O   0  0  0  0  0  0  0  0  0  0  0  0
   -2.1879    3.4017    1.7050 C   0  0  0  0  0  0  0  0  0  0  0  0
   -3.2085    1.8948    3.6787 H   0  0  0  0  0  0  0  0  0  0  0  0
   -3.0007    1.4665    1.1994 H   0  0  0  0  0  0  0  0  0  0  0  0
   -1.3888    3.8390    2.3147 H   0  0  0  0  0  0  0  0  0  0  0  0
   -2.0284    3.7240    0.6708 H   0  0  0  0  0  0  0  0  0  0  0  0
   -3.1380    3.8230    2.0508 H   0  0  0  0  0  0  0  0  0  0  0  0
   -0.7390    1.2565   -0.0101 N   0  0  0  0  0  0  0  0  0  0  0  0
    0.4383    0.7557   -0.6738 C   0  0  2  0  0  0  0  0  0  0  0  0
    0.0659    0.5154   -2.1325 C   0  0  0  0  0  0  0  0  0  0  0  0
   -0.1593   -0.6030   -2.5901 O   0  0  0  0  0  0  0  0  0  0  0  0
    0.9562   -0.5385   -0.0358 C   0  0  0  0  0  0  0  0  0  0  0  0
    1.4197   -0.3430    1.3870 C   0  0  0  0  0  0  0  0  0  0  0  0
    2.6095    0.2770    1.6840 N   0  3  0  0  0  0  0  0  0  0  0  0
    0.8490   -0.6903    2.5789 C   0  0  0  0  0  0  0  0  0  0  0  0
    2.7740    0.3140    3.0103 C   0  0  0  0  0  0  0  0  0  0  0  0
    1.7086   -0.2723    3.5660 N   0  0  0  0  0  0  0  0  0  0  0  0
   -1.5221    1.5532   -0.5874 H   0  0  0  0  0  0  0  0  0  0  0  0
    1.1892    1.5529   -0.6217 H   0  0  0  0  0  0  0  0  0  0  0  0
    1.7747   -0.9577   -0.6367 H   0  0  0  0  0  0  0  0  0  0  0  0
    0.1730   -1.3081   -0.0396 H   0  0  0  0  0  0  0  0  0  0  0  0
    3.2667    0.6501    1.0045 H   0  0  0  0  0  0  0  0  0  0  0  0
   -0.0531   -1.1817    2.8848 H   0  0  0  0  0  0  0  0  0  0  0  0
    3.6131    0.7385    3.5357 H   0  0  0  0  0  0  0  0  0  0  0  0
    1.5605   -0.3897    4.5643 H   0  0  0  0  0  0  0  0  0  0  0  0
   -0.0328    1.7020   -2.8457 N   0  0  0  0  0  0  0  0  0  0  0  0
   -0.3945    1.7597   -4.2438 C   0  0  2  0  0  0  0  0  0  0  0  0
    0.4854    0.7719   -4.9984 C   0  0  0  0  0  0  0  0  0  0  0  0
    1.5697    0.3788   -4.5732 O   0  0  0  0  0  0  0  0  0  0  0  0
   -0.2330    3.1661   -4.7995 C   0  0  0  0  0  0  0  0  0  0  0  0
    0.1588    2.5737   -2.3607 H   0  0  0  0  0  0  0  0  0  0  0  0
   -1.4412    1.4441   -4.3130 H   0  0  0  0  0  0  0  0  0  0  0  0
    0.8093    3.4996   -4.7386 H   0  0  0  0  0  0  0  0  0  0  0  0
   -0.5346    3.2143   -5.8511 H   0  0  0  0  0  0  0  0  0  0  0  0
   -0.8438    3.8801   -4.2365 H   0  0  0  0  0  0  0  0  0  0  0  0
   -0.0625    0.4142   -6.2223 N   0  0  0  0  0  0  0  0  0  0  0  0
    0.5883   -0.5014   -7.1302 C   0  0  0  0  0  0  0  0  0  0  0  0
   -0.9752    0.7740   -6.4855 H   0  0  0  0  0  0  0  0  0  0  0  0
    1.2074    0.0649   -7.8416 H   0  0  0  0  0  0  0  0  0  0  0  0
    1.2255   -1.1928   -6.5592 H   0  0  0  0  0  0  0  0  0  0  0  0
   -0.1723   -1.0740   -7.6811 H   0  0  0  0  0  0  0  0  0  0  0  0
 22 24  2  0  0  0  0
 24 26  1  0  0  0  0
 25 26  1  0  0  0  0
 23 25  2  0  0  0  0
 21 22  1  0  0  0  0
 22 23  1  0  0  0  0
  1  3  1  0  0  0  0
  1  7  1  0  0  0  0
  1  2  2  0  0  0  0
 36 37  1  0  0  0  0
 37 45  1  0  0  0  0
 37 38  2  0  0  0  0
  8  9  1  0  0  0  0
  9 17  1  0  0  0  0
  9 10  2  0  0  0  0
 18 19  1  0  0  0  0
 19 35  1  0  0  0  0
 19 20  2  0  0  0  0
 36 39  1  0  0  0  0
  8 11  1  0  0  0  0
 45 46  1  0  0  0  0
 18 21  1  0  0  0  0
 35 36  1  0  0  0  0
  7  8  1  0  0  0  0
 17 18  1  0  0  0  0
 24 32  1  0  0  0  0
 25 33  1  0  0  0  0
  3  4  1  0  0  0  0
  3  5  1  0  0  0  0
  3  6  1  0  0  0  0
 39 42  1  0  0  0  0
 39 43  1  0  0  0  0
 39 44  1  0  0  0  0
 11 14  1  0  0  0  0
 11 15  1  0  0  0  0
 11 16  1  0  0  0  0
 46 48  1  0  0  0  0
 46 49  1  0  0  0  0
 46 50  1  0  0  0  0
 21 29  1  0  0  0  0
 21 30  1  0  0  0  0
 36 41  1  0  0  0  0
  8 13  1  0  0  0  0
 18 28  1  0  0  0  0
 26 34  1  0  0  0  0
 23 31  1  0  0  0  0
 45 47  1  0  0  0  0
  7 12  1  0  0  0  0
 35 40  1  0  0  0  0
 17 27  1  0  0  0  0
M  CHG  1  23   1
M  END
$$$$

  -OEChem-05262214473D

 50 50  0     1  0  0  0  0  0999 V2000
   -1.6938    0.4865    3.8080 C   0  0  0  0  0  0  0  0  0  0  0  0
   -0.7464   -0.1282    3.3323 O   0  0  0  0  0  0  0  0  0  0  0  0
   -2.1257    0.2041    5.2087 C   0  0  0  0  0  0  0  0  0  0  0  0
   -2.8853   -0.5922    5.2621 H   0  0  0  0  0  0  0  0  0  0  0  0
   -1.2944   -0.1435    5.8430 H   0  0  0  0  0  0  0  0  0  0  0  0
   -2.5637    1.0590    5.7483 H   0  0  0  0  0  0  0  0  0  0  0  0
   -2.4435    1.4589    3.1669 N   0  0  0  0  0  0  0  0  0  0  0  0
   -2.1966    1.8850    1.8145 C   0  0  2  0  0  0  0  0  0  0  0  0
   -0.8617    1.2996    1.3733 C   0  0  0  0  0  0  0  0  0  0  0  0
    0.0104    0.9468    2.1646 O   0  0  0  0  0  0  0  0  0  0  0  0
   -2.1879    3.4017    1.7050 C   0  0  0  0  0  0  0  0  0  0  0  0
   -3.2085    1.8948    3.6787 H   0  0  0  0  0  0  0  0  0  0  0  0
   -3.0007    1.4665    1.1994 H   0  0  0  0  0  0  0  0  0  0  0  0
   -1.3888    3.8390    2.3147 H   0  0  0  0  0  0  0  0  0  0  0  0
   -2.0284    3.7240    0.6708 H   0  0  0  0  0  0  0  0  0  0  0  0
   -3.1380    3.8230    2.0508 H   0  0  0  0  0  0  0  0  0  0  0  0
   -0.7390    1.2565   -0.0101 N   0  0  0  0  0  0  0  0  0  0  0  0
    0.4383    0.7557   -0.6738 C   0  0  2  0  0  0  0  0  0  0  0  0
    0.0659    0.5154   -2.1325 C   0  0  0  0  0  0  0  0  0  0  0  0
   -0.4155   -0.5416   -2.5348 O   0  0  0  0  0  0  0  0  0  0  0  0
    0.9562   -0.5385   -0.0358 C   0  0  0  0  0  0  0  0  0  0  0  0
    1.4197   -0.3430    1.3870 C   0  0  0  0  0  0  0  0  0  0  0  0
    2.6095    0.2770    1.6840 N   0  3  0  0  0  0  0  0  0  0  0  0
    0.8490   -0.6903    2.5789 C   0  0  0  0  0  0  0  0  0  0  0  0
    2.7740    0.3140    3.0103 C   0  0  0  0  0  0  0  0  0  0  0  0
    1.7086   -0.2723    3.5660 N   0  0  0  0  0  0  0  0  0  0  0  0
   -1.5221    1.5532   -0.5874 H   0  0  0  0  0  0  0  0  0  0  0  0
    1.1892    1.5529   -0.6217 H   0  0  0  0  0  0  0  0  0  0  0  0
    1.7747   -0.9577   -0.6367 H   0  0  0  0  0  0  0  0  0  0  0  0
    0.1730   -1.3081   -0.0396 H   0  0  0  0  0  0  0  0  0  0  0  0
    3.2667    0.6501    1.0045 H   0  0  0  0  0  0  0  0  0  0  0  0
   -0.0531   -1.1817    2.8848 H   0  0  0  0  0  0  0  0  0  0  0  0
    3.6131    0.7385    3.5357 H   0  0  0  0  0  0  0  0  0  0  0  0
    1.5605   -0.3897    4.5643 H   0  0  0  0  0  0  0  0  0  0  0  0
    0.2892    1.6381   -2.9174 N   0  0  0  0  0  0  0  0  0  0  0  0
   -0.0007    1.6875   -4.3325 C   0  0  2  0  0  0  0  0  0  0  0  0
    0.6299    0.4641   -4.9846 C   0  0  0  0  0  0  0  0  0  0  0  0
    1.5677   -0.1539   -4.4849 O   0  0  0  0  0  0  0  0  0  0  0  0
    0.5240    2.9693   -4.9604 C   0  0  0  0  0  0  0  0  0  0  0  0
    0.6757    2.4668   -2.4751 H   0  0  0  0  0  0  0  0  0  0  0  0
   -1.0902    1.6355   -4.4341 H   0  0  0  0  0  0  0  0  0  0  0  0
    1.6140    3.0392   -4.8682 H   0  0  0  0  0  0  0  0  0  0  0  0
    0.2786    3.0183   -6.0264 H   0  0  0  0  0  0  0  0  0  0  0  0
    0.0920    3.8486   -4.4703 H   0  0  0  0  0  0  0  0  0  0  0  0
    0.0507    0.1696   -6.2109 N   0  0  0  0  0  0  0  0  0  0  0  0
    0.4825   -0.9379   -7.0312 C   0  0  0  0  0  0  0  0  0  0  0  0
   -0.7346    0.7243   -6.5388 H   0  0  0  0  0  0  0  0  0  0  0  0
    1.2461   -0.5916   -7.7433 H   0  0  0  0  0  0  0  0  0  0  0  0
    0.9084   -1.7243   -6.3907 H   0  0  0  0  0  0  0  0  0  0  0  0
   -0.3782   -1.3418   -7.5844 H   0  0  0  0  0  0  0  0  0  0  0  0
 22 24  2  0  0  0  0
 24 26  1  0  0  0  0
 25 26  1  0  0  0  0
 23 25  2  0  0  0  0
 21 22  1  0  0  0  0
 22 23  1  0  0  0  0
  1  3  1  0  0  0  0
  1  7  1  0  0  0  0
  1  2  2  0  0  0  0
 36 37  1  0  0  0  0
 37 45  1  0  0  0  0
 37 38  2  0  0  0  0
  8  9  1  0  0  0  0
  9 17  1  0  0  0  0
  9 10  2  0  0  0  0
 18 19  1  0  0  0  0
 19 35  1  0  0  0  0
 19 20  2  0  0  0  0
 36 39  1  0  0  0  0
  8 11  1  0  0  0  0
 45 46  1  0  0  0  0
 18 21  1  0  0  0  0
 35 36  1  0  0  0  0
  7  8  1  0  0  0  0
 17 18  1  0  0  0  0
 24 32  1  0  0  0  0
 25 33  1  0  0  0  0
  3  4  1  0  0  0  0
  3  5  1  0  0  0  0
  3  6  1  0  0  0  0
 39 42  1  0  0  0  0
 39 43  1  0  0  0  0
 39 44  1  0  0  0  0
 11 14  1  0  0  0  0
 11 15  1  0  0  0  0
 11 16  1  0  0  0  0
 46 48  1  0  0  0  0
 46 49  1  0  0  0  0
 46 50  1  0  0  0  0
 21 29  1  0  0  0  0
 21 30  1  0  0  0  0
 36 41  1  0  0  0  0
  8 13  1  0  0  0  0
 18 28  1  0  0  0  0
 26 34  1  0  0  0  0
 23 31  1  0  0  0  0
 45 47  1  0  0  0  0
  7 12  1  0  0  0  0
 35 40  1  0  0  0  0
 17 27  1  0  0  0  0
M  CHG  1  23   1
M  END
$$$$

  -OEChem-05262214473D

 50 50  0     1  0  0  0  0  0999 V2000
   -1.6938    0.4865    3.8080 C   0  0  0  0  0  0  0  0  0  0  0  0
   -0.7464   -0.1282    3.3323 O   0  0  0  0  0  0  0  0  0  0  0  0
   -2.1257    0.2041    5.2087 C   0  0  0  0  0  0  0  0  0  0  0  0
   -2.8853   -0.5922    5.2621 H   0  0  0  0  0  0  0  0  0  0  0  0
   -1.2944   -0.1435    5.8430 H   0  0  0  0  0  0  0  0  0  0  0  0
   -2.5637    1.0590    5.7483 H   0  0  0  0  0  0  0  0  0  0  0  0
   -2.4435    1.4589    3.1669 N   0  0  0  0  0  0  0  0  0  0  0  0
   -2.1966    1.8850    1.8145 C   0  0  2  0  0  0  0  0  0  0  0  0
   -0.8617    1.2996    1.3733 C   0  0  0  0  0  0  0  0  0  0  0  0
    0.0104    0.9468    2.1646 O   0  0  0  0  0  0  0  0  0  0  0  0
   -2.1879    3.4017    1.7050 C   0  0  0  0  0  0  0  0  0  0  0  0
   -3.2085    1.8948    3.6787 H   0  0  0  0  0  0  0  0  0  0  0  0
   -3.0007    1.4665    1.1994 H   0  0  0  0  0  0  0  0  0  0  0  0
   -1.3888    3.8390    2.3147 H   0  0  0  0  0  0  0  0  0  0  0  0
   -2.0284    3.7240    0.6708 H   0  0  0  0  0  0  0  0  0  0  0  0
   -3.1380    3.8230    2.0508 H   0  0  0  0  0  0  0  0  0  0  0  0
   -0.7390    1.2565   -0.0101 N   0  0  0  0  0  0  0  0  0  0  0  0
    0.4383    0.7557   -0.6738 C   0  0  2  0  0  0  0  0  0  0  0  0
    0.0659    0.5154   -2.1325 C   0  0  0  0  0  0  0  0  0  0  0  0
   -0.6500   -0.4154   -2.4957 O   0  0  0  0  0  0  0  0  0  0  0  0
    0.9562   -0.5385   -0.0358 C   0  0  0  0  0  0  0  0  0  0  0  0
    1.4197   -0.3430    1.3870 C   0  0  0  0  0  0  0  0  0  0  0  0
    2.6095    0.2770    1.6840 N   0  3  0  0  0  0  0  0  0  0  0  0
    0.8490   -0.6903    2.5789 C   0  0  0  0  0  0  0  0  0  0  0  0
    2.7740    0.3140    3.0103 C   0  0  0  0  0  0  0  0  0  0  0  0
    1.7086   -0.2723    3.5660 N   0  0  0  0  0  0  0  0  0  0  0  0
   -1.5221    1.5532   -0.5874 H   0  0  0  0  0  0  0  0  0  0  0  0
    1.1892    1.5529   -0.6217 H   0  0  0  0  0  0  0  0  0  0  0  0
    1.7747   -0.9577   -0.6367 H   0  0  0  0  0  0  0  0  0  0  0  0
    0.1730   -1.3081   -0.0396 H   0  0  0  0  0  0  0  0  0  0  0  0
    3.2667    0.6501    1.0045 H   0  0  0  0  0  0  0  0  0  0  0  0
   -0.0531   -1.1817    2.8848 H   0  0  0  0  0  0  0  0  0  0  0  0
    3.6131    0.7385    3.5357 H   0  0  0  0  0  0  0  0  0  0  0  0
    1.5605   -0.3897    4.5643 H   0  0  0  0  0  0  0  0  0  0  0  0
    0.5873    1.4922   -2.9695 N   0  0  0  0  0  0  0  0  0  0  0  0
    0.3655    1.5145   -4.3974 C   0  0  2  0  0  0  0  0  0  0  0  0
    0.6927    0.1319   -4.9459 C   0  0  0  0  0  0  0  0  0  0  0  0
    1.4301   -0.6624   -4.3661 O   0  0  0  0  0  0  0  0  0  0  0  0
    1.2131    2.5817   -5.0724 C   0  0  0  0  0  0  0  0  0  0  0  0
    1.1532    2.2283   -2.5577 H   0  0  0  0  0  0  0  0  0  0  0  0
   -0.6987    1.7257   -4.5489 H   0  0  0  0  0  0  0  0  0  0  0  0
    2.2825    2.3869   -4.9314 H   0  0  0  0  0  0  0  0  0  0  0  0
    1.0227    2.6165   -6.1502 H   0  0  0  0  0  0  0  0  0  0  0  0
    0.9977    3.5716   -4.6559 H   0  0  0  0  0  0  0  0  0  0  0  0
    0.0989   -0.0940   -6.1798 N   0  0  0  0  0  0  0  0  0  0  0  0
    0.2682   -1.3271   -6.9124 C   0  0  0  0  0  0  0  0  0  0  0  0
   -0.5123    0.6133   -6.5772 H   0  0  0  0  0  0  0  0  0  0  0  0
    1.1169   -1.2291   -7.6053 H   0  0  0  0  0  0  0  0  0  0  0  0
    0.4637   -2.1485   -6.2073 H   0  0  0  0  0  0  0  0  0  0  0  0
   -0.6474   -1.5434   -7.4825 H   0  0  0  0  0  0  0  0  0  0  0  0
 22 24  2  0  0  0  0
 24 26  1  0  0  0  0
 25 26  1  0  0  0  0
 23 25  2  0  0  0  0
 21 22  1  0  0  0  0
 22 23  1  0  0  0  0
  1  3  1  0  0  0  0
  1  7  1  0  0  0  0
  1  2  2  0  0  0  0
 36 37  1  0  0  0  0
 37 45  1  0  0  0  0
 37 38  2  0  0  0  0
  8  9  1  0  0  0  0
  9 17  1  0  0  0  0
  9 10  2  0  0  0  0
 18 19  1  0  0  0  0
 19 35  1  0  0  0  0
 19 20  2  0  0  0  0
 36 39  1  0  0  0  0
  8 11  1  0  0  0  0
 45 46  1  0  0  0  0
 18 21  1  0  0  0  0
 35 36  1  0  0  0  0
  7  8  1  0  0  0  0
 17 18  1  0  0  0  0
 24 32  1  0  0  0  0
 25 33  1  0  0  0  0
  3  4  1  0  0  0  0
  3  5  1  0  0  0  0
  3  6  1  0  0  0  0
 39 42  1  0  0  0  0
 39 43  1  0  0  0  0
 39 44  1  0  0  0  0
 11 14  1  0  0  0  0
 11 15  1  0  0  0  0
 11 16  1  0  0  0  0
 46 48  1  0  0  0  0
 46 49  1  0  0  0  0
 46 50  1  0  0  0  0
 21 29  1  0  0  0  0
 21 30  1  0  0  0  0
 36 41  1  0  0  0  0
  8 13  1  0  0  0  0
 18 28  1  0  0  0  0
 26 34  1  0  0  0  0
 23 31  1  0  0  0  0
 45 47  1  0  0  0  0
  7 12  1  0  0  0  0
 35 40  1  0  0  0  0
 17 27  1  0  0  0  0
M  CHG  1  23   1
M  END
$$$$

  -OEChem-05262214473D

 50 50  0     1  0  0  0  0  0999 V2000
   -1.6938    0.4865    3.8080 C   0  0  0  0  0  0  0  0  0  0  0  0
   -0.7464   -0.1282    3.3323 O   0  0  0  0  0  0  0  0  0  0  0  0
   -2.1257    0.2041    5.2087 C   0  0  0  0  0  0  0  0  0  0  0  0
   -2.8853   -0.5922    5.2621 H   0  0  0  0  0  0  0  0  0  0  0  0
   -1.2944   -0.1435    5.8430 H   0  0  0  0  0  0  0  0  0  0  0  0
   -2.5637    1.0590    5.7483 H   0  0  0  0  0  0  0  0  0  0  0  0
   -2.4435    1.4589    3.1669 N   0  0  0  0  0  0  0  0  0  0  0  0
   -2.1966    1.8850    1.8145 C   0  0  2  0  0  0  0  0  0  0  0  0
   -0.8617    1.2996    1.3733 C   0  0  0  0  0  0  0  0  0  0  0  0
    0.0104    0.9468    2.1646 O   0  0  0  0  0  0  0  0  0  0  0  0
   -2.1879    3.4017    1.7050 C   0  0  0  0  0  0  0  0  0  0  0  0
   -3.2085    1.8948    3.6787 H   0  0  0  0  0  0  0  0  0  0  0  0
   -3.0007    1.4665    1.1994 H   0  0  0  0  0  0  0  0  0  0  0  0
   -1.3888    3.8390    2.3147 H   0  0  0  0  0  0  0  0  0  0  0  0
   -2.0284    3.7240    0.6708 H   0  0  0  0  0  0  0  0  0  0  0  0
   -3.1380    3.8230    2.0508 H   0  0  0  0  0  0  0  0  0  0  0  0
   -0.7390    1.2565   -0.0101 N   0  0  0  0  0  0  0  0  0  0  0  0
    0.4383    0.7557   -0.6738 C   0  0  2  0  0  0  0  0  0  0  0  0
    0.0659    0.5154   -2.1325 C   0  0  0  0  0  0  0  0  0  0  0  0
   -0.8469   -0.2330   -2.4755 O   0  0  0  0  0  0  0  0  0  0  0  0
    0.9562   -0.5385   -0.0358 C   0  0  0  0  0  0  0  0  0  0  0  0
    1.4197   -0.3430    1.3870 C   0  0  0  0  0  0  0  0  0  0  0  0
    2.6095    0.2770    1.6840 N   0  3  0  0  0  0  0  0  0  0  0  0
    0.8490   -0.6903    2.5789 C   0  0  0  0  0  0  0  0  0  0  0  0
    2.7740    0.3140    3.0103 C   0  0  0  0  0  0  0  0  0  0  0  0
    1.7086   -0.2723    3.5660 N   0  0  0  0  0  0  0  0  0  0  0  0
   -1.5221    1.5532   -0.5874 H   0  0  0  0  0  0  0  0  0  0  0  0
    1.1892    1.5529   -0.6217 H   0  0  0  0  0  0  0  0  0  0  0  0
    1.7747   -0.9577   -0.6367 H   0  0  0  0  0  0  0  0  0  0  0  0
    0.1730   -1.3081   -0.0396 H   0  0  0  0  0  0  0  0  0  0  0  0
    3.2667    0.6501    1.0045 H   0  0  0  0  0  0  0  0  0  0  0  0
   -0.0531   -1.1817    2.8848 H   0  0  0  0  0  0  0  0  0  0  0  0
    3.6131    0.7385    3.5357 H   0  0  0  0  0  0  0  0  0  0  0  0
    1.5605   -0.3897    4.5643 H   0  0  0  0  0  0  0  0  0  0  0  0
    0.8412    1.2741   -2.9984 N   0  0  0  0  0  0  0  0  0  0  0  0
    0.6790    1.2527   -4.4343 C   0  0  2  0  0  0  0  0  0  0  0  0
    0.6695   -0.2020   -4.8850 C   0  0  0  0  0  0  0  0  0  0  0  0
    1.1665   -1.1120   -4.2247 O   0  0  0  0  0  0  0  0  0  0  0  0
    1.7872    2.0294   -5.1280 C   0  0  0  0  0  0  0  0  0  0  0  0
    1.5588    1.8745   -2.6030 H   0  0  0  0  0  0  0  0  0  0  0  0
   -0.2936    1.7087   -4.6495 H   0  0  0  0  0  0  0  0  0  0  0  0
    2.7693    1.5874   -4.9240 H   0  0  0  0  0  0  0  0  0  0  0  0
    1.6471    2.0364   -6.2140 H   0  0  0  0  0  0  0  0  0  0  0  0
    1.8116    3.0680   -4.7807 H   0  0  0  0  0  0  0  0  0  0  0  0
    0.0790   -0.3585   -6.1312 N   0  0  0  0  0  0  0  0  0  0  0  0
   -0.0401   -1.6425   -6.7818 C   0  0  0  0  0  0  0  0  0  0  0  0
   -0.3235    0.4487   -6.5983 H   0  0  0  0  0  0  0  0  0  0  0  0
    0.8285   -1.8041   -7.4370 H   0  0  0  0  0  0  0  0  0  0  0  0
   -0.0785   -2.4365   -6.0214 H   0  0  0  0  0  0  0  0  0  0  0  0
   -0.9614   -1.6650   -7.3823 H   0  0  0  0  0  0  0  0  0  0  0  0
 22 24  2  0  0  0  0
 24 26  1  0  0  0  0
 25 26  1  0  0  0  0
 23 25  2  0  0  0  0
 21 22  1  0  0  0  0
 22 23  1  0  0  0  0
  1  3  1  0  0  0  0
  1  7  1  0  0  0  0
  1  2  2  0  0  0  0
 36 37  1  0  0  0  0
 37 45  1  0  0  0  0
 37 38  2  0  0  0  0
  8  9  1  0  0  0  0
  9 17  1  0  0  0  0
  9 10  2  0  0  0  0
 18 19  1  0  0  0  0
 19 35  1  0  0  0  0
 19 20  2  0  0  0  0
 36 39  1  0  0  0  0
  8 11  1  0  0  0  0
 45 46  1  0  0  0  0
 18 21  1  0  0  0  0
 35 36  1  0  0  0  0
  7  8  1  0  0  0  0
 17 18  1  0  0  0  0
 24 32  1  0  0  0  0
 25 33  1  0  0  0  0
  3  4  1  0  0  0  0
  3  5  1  0  0  0  0
  3  6  1  0  0  0  0
 39 42  1  0  0  0  0
 39 43  1  0  0  0  0
 39 44  1  0  0  0  0
 11 14  1  0  0  0  0
 11 15  1  0  0  0  0
 11 16  1  0  0  0  0
 46 48  1  0  0  0  0
 46 49  1  0  0  0  0
 46 50  1  0  0  0  0
 21 29  1  0  0  0  0
 21 30  1  0  0  0  0
 36 41  1  0  0  0  0
  8 13  1  0  0  0  0
 18 28  1  0  0  0  0
 26 34  1  0  0  0  0
 23 31  1  0  0  0  0
 45 47  1  0  0  0  0
  7 12  1  0  0  0  0
 35 40  1  0  0  0  0
 17 27  1  0  0  0  0
M  CHG  1  23   1
M  END
$$$$

  -OEChem-05262214473D

 50 50  0     1  0  0  0  0  0999 V2000
   -1.6938    0.4865    3.8080 C   0  0  0  0  0  0  0  0  0  0  0  0
   -0.7464   -0.1282    3.3323 O   0  0  0  0  0  0  0  0  0  0  0  0
   -2.1257    0.2041    5.2087 C   0  0  0  0  0  0  0  0  0  0  0  0
   -2.8853   -0.5922    5.2621 H   0  0  0  0  0  0  0  0  0  0  0  0
   -1.2944   -0.1435    5.8430 H   0  0  0  0  0  0  0  0  0  0  0  0
   -2.5637    1.0590    5.7483 H   0  0  0  0  0  0  0  0  0  0  0  0
   -2.4435    1.4589    3.1669 N   0  0  0  0  0  0  0  0  0  0  0  0
   -2.1966    1.8850    1.8145 C   0  0  2  0  0  0  0  0  0  0  0  0
   -0.8617    1.2996    1.3733 C   0  0  0  0  0  0  0  0  0  0  0  0
    0.0104    0.9468    2.1646 O   0  0  0  0  0  0  0  0  0  0  0  0
   -2.1879    3.4017    1.7050 C   0  0  0  0  0  0  0  0  0  0  0  0
   -3.2085    1.8948    3.6787 H   0  0  0  0  0  0  0  0  0  0  0  0
   -3.0007    1.4665    1.1994 H   0  0  0  0  0  0  0  0  0  0  0  0
   -1.3888    3.8390    2.3147 H   0  0  0  0  0  0  0  0  0  0  0  0
   -2.0284    3.7240    0.6708 H   0  0  0  0  0  0  0  0  0  0  0  0
   -3.1380    3.8230    2.0508 H   0  0  0  0  0  0  0  0  0  0  0  0
   -0.7390    1.2565   -0.0101 N   0  0  0  0  0  0  0  0  0  0  0  0
    0.4383    0.7557   -0.6738 C   0  0  2  0  0  0  0  0  0  0  0  0
    0.0659    0.5154   -2.1325 C   0  0  0  0  0  0  0  0  0  0  0  0
   -0.9927   -0.0067   -2.4755 O   0  0  0  0  0  0  0  0  0  0  0  0
    0.9562   -0.5385   -0.0358 C   0  0  0  0  0  0  0  0  0  0  0  0
    1.4197   -0.3430    1.3870 C   0  0  0  0  0  0  0  0  0  0  0  0
    2.6095    0.2770    1.6840 N   0  3  0  0  0  0  0  0  0  0  0  0
    0.8490   -0.6903    2.5789 C   0  0  0  0  0  0  0  0  0  0  0  0
    2.7740    0.3140    3.0103 C   0  0  0  0  0  0  0  0  0  0  0  0
    1.7086   -0.2723    3.5660 N   0  0  0  0  0  0  0  0  0  0  0  0
   -1.5221    1.5532   -0.5874 H   0  0  0  0  0  0  0  0  0  0  0  0
    1.1892    1.5529   -0.6217 H   0  0  0  0  0  0  0  0  0  0  0  0
    1.7747   -0.9577   -0.6367 H   0  0  0  0  0  0  0  0  0  0  0  0
    0.1730   -1.3081   -0.0396 H   0  0  0  0  0  0  0  0  0  0  0  0
    3.2667    0.6501    1.0045 H   0  0  0  0  0  0  0  0  0  0  0  0
   -0.0531   -1.1817    2.8848 H   0  0  0  0  0  0  0  0  0  0  0  0
    3.6131    0.7385    3.5357 H   0  0  0  0  0  0  0  0  0  0  0  0
    1.5605   -0.3897    4.5643 H   0  0  0  0  0  0  0  0  0  0  0  0
    1.0337    0.9987   -3.0022 N   0  0  0  0  0  0  0  0  0  0  0  0
    0.9184    0.9199   -4.4407 C   0  0  2  0  0  0  0  0  0  0  0  0
    0.5619   -0.5150   -4.8060 C   0  0  0  0  0  0  0  0  0  0  0  0
    0.7948   -1.4721   -4.0705 O   0  0  0  0  0  0  0  0  0  0  0  0
    2.2073    1.3504   -5.1234 C   0  0  0  0  0  0  0  0  0  0  0  0
    1.8647    1.4295   -2.6078 H   0  0  0  0  0  0  0  0  0  0  0  0
    0.0976    1.5855   -4.7291 H   0  0  0  0  0  0  0  0  0  0  0  0
    3.0412    0.6950   -4.8464 H   0  0  0  0  0  0  0  0  0  0  0  0
    2.1090    1.3174   -6.2135 H   0  0  0  0  0  0  0  0  0  0  0  0
    2.4780    2.3721   -4.8362 H   0  0  0  0  0  0  0  0  0  0  0  0
   -0.0077   -0.6061   -6.0683 N   0  0  0  0  0  0  0  0  0  0  0  0
   -0.4213   -1.8625   -6.6482 C   0  0  0  0  0  0  0  0  0  0  0  0
   -0.1810    0.2415   -6.6006 H   0  0  0  0  0  0  0  0  0  0  0  0
    0.4008   -2.2775   -7.2498 H   0  0  0  0  0  0  0  0  0  0  0  0
   -0.6811   -2.5687   -5.8458 H   0  0  0  0  0  0  0  0  0  0  0  0
   -1.2990   -1.6984   -7.2906 H   0  0  0  0  0  0  0  0  0  0  0  0
 22 24  2  0  0  0  0
 24 26  1  0  0  0  0
 25 26  1  0  0  0  0
 23 25  2  0  0  0  0
 21 22  1  0  0  0  0
 22 23  1  0  0  0  0
  1  3  1  0  0  0  0
  1  7  1  0  0  0  0
  1  2  2  0  0  0  0
 36 37  1  0  0  0  0
 37 45  1  0  0  0  0
 37 38  2  0  0  0  0
  8  9  1  0  0  0  0
  9 17  1  0  0  0  0
  9 10  2  0  0  0  0
 18 19  1  0  0  0  0
 19 35  1  0  0  0  0
 19 20  2  0  0  0  0
 36 39  1  0  0  0  0
  8 11  1  0  0  0  0
 45 46  1  0  0  0  0
 18 21  1  0  0  0  0
 35 36  1  0  0  0  0
  7  8  1  0  0  0  0
 17 18  1  0  0  0  0
 24 32  1  0  0  0  0
 25 33  1  0  0  0  0
  3  4  1  0  0  0  0
  3  5  1  0  0  0  0
  3  6  1  0  0  0  0
 39 42  1  0  0  0  0
 39 43  1  0  0  0  0
 39 44  1  0  0  0  0
 11 14  1  0  0  0  0
 11 15  1  0  0  0  0
 11 16  1  0  0  0  0
 46 48  1  0  0  0  0
 46 49  1  0  0  0  0
 46 50  1  0  0  0  0
 21 29  1  0  0  0  0
 21 30  1  0  0  0  0
 36 41  1  0  0  0  0
  8 13  1  0  0  0  0
 18 28  1  0  0  0  0
 26 34  1  0  0  0  0
 23 31  1  0  0  0  0
 45 47  1  0  0  0  0
  7 12  1  0  0  0  0
 35 40  1  0  0  0  0
 17 27  1  0  0  0  0
M  CHG  1  23   1
M  END
$$$$

  -OEChem-05262214473D

 50 50  0     1  0  0  0  0  0999 V2000
   -1.6938    0.4865    3.8080 C   0  0  0  0  0  0  0  0  0  0  0  0
   -0.7464   -0.1282    3.3323 O   0  0  0  0  0  0  0  0  0  0  0  0
   -2.1257    0.2041    5.2087 C   0  0  0  0  0  0  0  0  0  0  0  0
   -2.8853   -0.5922    5.2621 H   0  0  0  0  0  0  0  0  0  0  0  0
   -1.2944   -0.1435    5.8430 H   0  0  0  0  0  0  0  0  0  0  0  0
   -2.5637    1.0590    5.7483 H   0  0  0  0  0  0  0  0  0  0  0  0
   -2.4435    1.4589    3.1669 N   0  0  0  0  0  0  0  0  0  0  0  0
   -2.1966    1.8850    1.8145 C   0  0  2  0  0  0  0  0  0  0  0  0
   -0.8617    1.2996    1.3733 C   0  0  0  0  0  0  0  0  0  0  0  0
    0.0104    0.9468    2.1646 O   0  0  0  0  0  0  0  0  0  0  0  0
   -2.1879    3.4017    1.7050 C   0  0  0  0  0  0  0  0  0  0  0  0
   -3.2085    1.8948    3.6787 H   0  0  0  0  0  0  0  0  0  0  0  0
   -3.0007    1.4665    1.1994 H   0  0  0  0  0  0  0  0  0  0  0  0
   -1.3888    3.8390    2.3147 H   0  0  0  0  0  0  0  0  0  0  0  0
   -2.0284    3.7240    0.6708 H   0  0  0  0  0  0  0  0  0  0  0  0
   -3.1380    3.8230    2.0508 H   0  0  0  0  0  0  0  0  0  0  0  0
   -0.7390    1.2565   -0.0101 N   0  0  0  0  0  0  0  0  0  0  0  0
    0.4383    0.7557   -0.6738 C   0  0  2  0  0  0  0  0  0  0  0  0
    0.0659    0.5154   -2.1325 C   0  0  0  0  0  0  0  0  0  0  0  0
   -1.0775    0.2480   -2.4958 O   0  0  0  0  0  0  0  0  0  0  0  0
    0.9562   -0.5385   -0.0358 C   0  0  0  0  0  0  0  0  0  0  0  0
    1.4197   -0.3430    1.3870 C   0  0  0  0  0  0  0  0  0  0  0  0
    2.6095    0.2770    1.6840 N   0  3  0  0  0  0  0  0  0  0  0  0
    0.8490   -0.6903    2.5789 C   0  0  0  0  0  0  0  0  0  0  0  0
    2.7740    0.3140    3.0103 C   0  0  0  0  0  0  0  0  0  0  0  0
    1.7086   -0.2723    3.5660 N   0  0  0  0  0  0  0  0  0  0  0  0
   -1.5221    1.5532   -0.5874 H   0  0  0  0  0  0  0  0  0  0  0  0
    1.1892    1.5529   -0.6217 H   0  0  0  0  0  0  0  0  0  0  0  0
    1.7747   -0.9577   -0.6367 H   0  0  0  0  0  0  0  0  0  0  0  0
    0.1730   -1.3081   -0.0396 H   0  0  0  0  0  0  0  0  0  0  0  0
    3.2667    0.6501    1.0045 H   0  0  0  0  0  0  0  0  0  0  0  0
   -0.0531   -1.1817    2.8848 H   0  0  0  0  0  0  0  0  0  0  0  0
    3.6131    0.7385    3.5357 H   0  0  0  0  0  0  0  0  0  0  0  0
    1.5605   -0.3897    4.5643 H   0  0  0  0  0  0  0  0  0  0  0  0
    1.1515    0.6848   -2.9805 N   0  0  0  0  0  0  0  0  0  0  0  0
    1.0676    0.5386   -4.4159 C   0  0  2  0  0  0  0  0  0  0  0  0
    0.3772   -0.7857   -4.7142 C   0  0  0  0  0  0  0  0  0  0  0  0
    0.3402   -1.7181   -3.9139 O   0  0  0  0  0  0  0  0  0  0  0  0
    2.4447    0.5907   -5.0589 C   0  0  0  0  0  0  0  0  0  0  0  0
    2.0502    0.9235   -2.5718 H   0  0  0  0  0  0  0  0  0  0  0  0
    0.4482    1.3646   -4.7823 H   0  0  0  0  0  0  0  0  0  0  0  0
    3.0796   -0.2293   -4.7040 H   0  0  0  0  0  0  0  0  0  0  0  0
    2.3772    0.5084   -6.1487 H   0  0  0  0  0  0  0  0  0  0  0  0
    2.9517    1.5314   -4.8187 H   0  0  0  0  0  0  0  0  0  0  0  0
   -0.1553   -0.8197   -5.9954 N   0  0  0  0  0  0  0  0  0  0  0  0
   -0.8494   -1.9722   -6.5208 C   0  0  0  0  0  0  0  0  0  0  0  0
   -0.0946    0.0060   -6.5838 H   0  0  0  0  0  0  0  0  0  0  0  0
   -0.1373   -2.6170   -7.0565 H   0  0  0  0  0  0  0  0  0  0  0  0
   -1.3031   -2.5360   -5.6924 H   0  0  0  0  0  0  0  0  0  0  0  0
   -1.6371   -1.6412   -7.2137 H   0  0  0  0  0  0  0  0  0  0  0  0
 22 24  2  0  0  0  0
 24 26  1  0  0  0  0
 25 26  1  0  0  0  0
 23 25  2  0  0  0  0
 21 22  1  0  0  0  0
 22 23  1  0  0  0  0
  1  3  1  0  0  0  0
  1  7  1  0  0  0  0
  1  2  2  0  0  0  0
 36 37  1  0  0  0  0
 37 45  1  0  0  0  0
 37 38  2  0  0  0  0
  8  9  1  0  0  0  0
  9 17  1  0  0  0  0
  9 10  2  0  0  0  0
 18 19  1  0  0  0  0
 19 35  1  0  0  0  0
 19 20  2  0  0  0  0
 36 39  1  0  0  0  0
  8 11  1  0  0  0  0
 45 46  1  0  0  0  0
 18 21  1  0  0  0  0
 35 36  1  0  0  0  0
  7  8  1  0  0  0  0
 17 18  1  0  0  0  0
 24 32  1  0  0  0  0
 25 33  1  0  0  0  0
  3  4  1  0  0  0  0
  3  5  1  0  0  0  0
  3  6  1  0  0  0  0
 39 42  1  0  0  0  0
 39 43  1  0  0  0  0
 39 44  1  0  0  0  0
 11 14  1  0  0  0  0
 11 15  1  0  0  0  0
 11 16  1  0  0  0  0
 46 48  1  0  0  0  0
 46 49  1  0  0  0  0
 46 50  1  0  0  0  0
 21 29  1  0  0  0  0
 21 30  1  0  0  0  0
 36 41  1  0  0  0  0
  8 13  1  0  0  0  0
 18 28  1  0  0  0  0
 26 34  1  0  0  0  0
 23 31  1  0  0  0  0
 45 47  1  0  0  0  0
  7 12  1  0  0  0  0
 35 40  1  0  0  0  0
 17 27  1  0  0  0  0
M  CHG  1  23   1
M  END
$$$$

  -OEChem-05262214473D

 50 50  0     1  0  0  0  0  0999 V2000
   -1.6938    0.4865    3.8080 C   0  0  0  0  0  0  0  0  0  0  0  0
   -0.7464   -0.1282    3.3323 O   0  0  0  0  0  0  0  0  0  0  0  0
   -2.1257    0.2041    5.2087 C   0  0  0  0  0  0  0  0  0  0  0  0
   -2.8853   -0.5922    5.2621 H   0  0  0  0  0  0  0  0  0  0  0  0
   -1.2944   -0.1435    5.8430 H   0  0  0  0  0  0  0  0  0  0  0  0
   -2.5637    1.0590    5.7483 H   0  0  0  0  0  0  0  0  0  0  0  0
   -2.4435    1.4589    3.1669 N   0  0  0  0  0  0  0  0  0  0  0  0
   -2.1966    1.8850    1.8145 C   0  0  2  0  0  0  0  0  0  0  0  0
   -0.8617    1.2996    1.3733 C   0  0  0  0  0  0  0  0  0  0  0  0
    0.0104    0.9468    2.1646 O   0  0  0  0  0  0  0  0  0  0  0  0
   -2.1879    3.4017    1.7050 C   0  0  0  0  0  0  0  0  0  0  0  0
   -3.2085    1.8948    3.6787 H   0  0  0  0  0  0  0  0  0  0  0  0
   -3.0007    1.4665    1.1994 H   0  0  0  0  0  0  0  0  0  0  0  0
   -1.3888    3.8390    2.3147 H   0  0  0  0  0  0  0  0  0  0  0  0
   -2.0284    3.7240    0.6708 H   0  0  0  0  0  0  0  0  0  0  0  0
   -3.1380    3.8230    2.0508 H   0  0  0  0  0  0  0  0  0  0  0  0
   -0.7390    1.2565   -0.0101 N   0  0  0  0  0  0  0  0  0  0  0  0
    0.4383    0.7557   -0.6738 C   0  0  2  0  0  0  0  0  0  0  0  0
    0.0659    0.5154   -2.1325 C   0  0  0  0  0  0  0  0  0  0  0  0
   -1.0955    0.5137   -2.5350 O   0  0  0  0  0  0  0  0  0  0  0  0
    0.9562   -0.5385   -0.0358 C   0  0  0  0  0  0  0  0  0  0  0  0
    1.4197   -0.3430    1.3870 C   0  0  0  0  0  0  0  0  0  0  0  0
    2.6095    0.2770    1.6840 N   0  3  0  0  0  0  0  0  0  0  0  0
    0.8490   -0.6903    2.5789 C   0  0  0  0  0  0  0  0  0  0  0  0
    2.7740    0.3140    3.0103 C   0  0  0  0  0  0  0  0  0  0  0  0
    1.7086   -0.2723    3.5660 N   0  0  0  0  0  0  0  0  0  0  0  0
   -1.5221    1.5532   -0.5874 H   0  0  0  0  0  0  0  0  0  0  0  0
    1.1892    1.5529   -0.6217 H   0  0  0  0  0  0  0  0  0  0  0  0
    1.7747   -0.9577   -0.6367 H   0  0  0  0  0  0  0  0  0  0  0  0
    0.1730   -1.3081   -0.0396 H   0  0  0  0  0  0  0  0  0  0  0  0
    3.2667    0.6501    1.0045 H   0  0  0  0  0  0  0  0  0  0  0  0
   -0.0531   -1.1817    2.8848 H   0  0  0  0  0  0  0  0  0  0  0  0
    3.6131    0.7385    3.5357 H   0  0  0  0  0  0  0  0  0  0  0  0
    1.5605   -0.3897    4.5643 H   0  0  0  0  0  0  0  0  0  0  0  0
    1.1867    0.3538   -2.9350 N   0  0  0  0  0  0  0  0  0  0  0  0
    1.1162    0.1350   -4.3619 C   0  0  2  0  0  0  0  0  0  0  0  0
    0.1281   -0.9957   -4.6160 C   0  0  0  0  0  0  0  0  0  0  0  0
   -0.1661   -1.8332   -3.7657 O   0  0  0  0  0  0  0  0  0  0  0  0
    2.4833   -0.1979   -4.9389 C   0  0  0  0  0  0  0  0  0  0  0  0
    2.1027    0.3911   -2.4975 H   0  0  0  0  0  0  0  0  0  0  0  0
    0.7344    1.0611   -4.8053 H   0  0  0  0  0  0  0  0  0  0  0  0
    2.8821   -1.1228   -4.5064 H   0  0  0  0  0  0  0  0  0  0  0  0
    2.4332   -0.3352   -6.0241 H   0  0  0  0  0  0  0  0  0  0  0  0
    3.2004    0.6032   -4.7292 H   0  0  0  0  0  0  0  0  0  0  0  0
   -0.3538   -0.9849   -5.9175 N   0  0  0  0  0  0  0  0  0  0  0  0
   -1.2953   -1.9640   -6.4083 C   0  0  0  0  0  0  0  0  0  0  0  0
   -0.0702   -0.2418   -6.5492 H   0  0  0  0  0  0  0  0  0  0  0  0
   -0.7490   -2.7995   -6.8703 H   0  0  0  0  0  0  0  0  0  0  0  0
   -1.9020   -2.3408   -5.5717 H   0  0  0  0  0  0  0  0  0  0  0  0
   -1.9526   -1.4974   -7.1569 H   0  0  0  0  0  0  0  0  0  0  0  0
 22 24  2  0  0  0  0
 24 26  1  0  0  0  0
 25 26  1  0  0  0  0
 23 25  2  0  0  0  0
 21 22  1  0  0  0  0
 22 23  1  0  0  0  0
  1  3  1  0  0  0  0
  1  7  1  0  0  0  0
  1  2  2  0  0  0  0
 36 37  1  0  0  0  0
 37 45  1  0  0  0  0
 37 38  2  0  0  0  0
  8  9  1  0  0  0  0
  9 17  1  0  0  0  0
  9 10  2  0  0  0  0
 18 19  1  0  0  0  0
 19 35  1  0  0  0  0
 19 20  2  0  0  0  0
 36 39  1  0  0  0  0
  8 11  1  0  0  0  0
 45 46  1  0  0  0  0
 18 21  1  0  0  0  0
 35 36  1  0  0  0  0
  7  8  1  0  0  0  0
 17 18  1  0  0  0  0
 24 32  1  0  0  0  0
 25 33  1  0  0  0  0
  3  4  1  0  0  0  0
  3  5  1  0  0  0  0
  3  6  1  0  0  0  0
 39 42  1  0  0  0  0
 39 43  1  0  0  0  0
 39 44  1  0  0  0  0
 11 14  1  0  0  0  0
 11 15  1  0  0  0  0
 11 16  1  0  0  0  0
 46 48  1  0  0  0  0
 46 49  1  0  0  0  0
 46 50  1  0  0  0  0
 21 29  1  0  0  0  0
 21 30  1  0  0  0  0
 36 41  1  0  0  0  0
  8 13  1  0  0  0  0
 18 28  1  0  0  0  0
 26 34  1  0  0  0  0
 23 31  1  0  0  0  0
 45 47  1  0  0  0  0
  7 12  1  0  0  0  0
 35 40  1  0  0  0  0
 17 27  1  0  0  0  0
M  CHG  1  23   1
M  END
$$$$
