@<TRIPOS>MOLECULE
default_name
   14    13     1     0     0
SMALL
No Charge or Current Charge


@<TRIPOS>ATOM
      1 H1          25.9650    25.0310    24.0000 H          1 ACE       0.112300
      2 CH3         25.9830    26.1190    24.0000 C.3        1 ACE      -0.366200
      3 H2          25.4880    26.5010    24.8900 H          1 ACE       0.112300
      4 H3          25.4880    26.5010    23.1100 H          1 ACE       0.112300
      5 C           27.4210    26.5870    24.0000 C.2        1 ACE       0.597200
      6 O           28.3270    25.7590    24.0000 O.2        1 ACE      -0.567900
      7 N           27.6030    27.9060    24.0000 N.am       2 CGL      -0.567900
      8 H           26.7960    28.5190    24.0000 H          2 CGL      -0.567900
      9 CA          28.8780    28.6320    24.0000 C.3        2 CGL      -0.567900
     10 HA2         29.4550    28.3830    24.8870 H          2 CGL      -0.567900
     11 HA3         29.4550    28.3830    23.1130 H          2 CGL      -0.567900
     12 C           28.6520    30.1410    24.0000 C.2        2 CGL      -0.567900
     13 O           27.4640    30.5410    24.0000 O.co2      2 CGL      -0.567900
     14 OXT         29.6720    30.8570    24.0000 O.co2      2 CGL      -0.567900
@<TRIPOS>BOND
     1     5     6 2   
     2     5     7 am  
     3     2     3 1   
     4     2     4 1   
     5     2     5 1   
     6     1     2 1   
     7    12    13 1   
     8    12    14 1   
     9     9    10 1   
    10     9    11 1   
    11     9    12 1   
    12     7     8 1   
    13     7     9 1   
@<TRIPOS>SUBSTRUCTURE
     1 ACE         1 TEMP              0 ****  ****    0 ROOT
